# generated using pymatgen
data_Y3NF10
_symmetry_space_group_name_H-M   'P 1'
_cell_length_a   8.29471044
_cell_length_b   8.29471044
_cell_length_c   8.29471044
_cell_angle_alpha   60.00000000
_cell_angle_beta   60.00000000
_cell_angle_gamma   60.00000000
_symmetry_Int_Tables_number   1
_chemical_formula_structural   Y3NF10
_chemical_formula_sum   'Y6 N2 F20'
_cell_volume   403.54195316
_cell_formula_units_Z   2
loop_
 _symmetry_equiv_pos_site_id
 _symmetry_equiv_pos_as_xyz
  1  'x, y, z'
loop_
 _atom_site_type_symbol
 _atom_site_label
 _atom_site_symmetry_multiplicity
 _atom_site_fract_x
 _atom_site_fract_y
 _atom_site_fract_z
 _atom_site_occupancy
  Y  Y0  1  0.23849900  0.76150100  0.23849900  1
  Y  Y1  1  0.76150100  0.23849900  0.23849900  1
  Y  Y2  1  0.76150100  0.76150100  0.23849900  1
  Y  Y3  1  0.76150100  0.23849900  0.76150100  1
  Y  Y4  1  0.23849900  0.23849900  0.76150100  1
  Y  Y5  1  0.23849900  0.76150100  0.76150100  1
  N  N0  1  0.75000000  0.75000000  0.75000000  1
  N  N1  1  0.25000000  0.25000000  0.25000000  1
  F  F0  1  0.88965000  0.88965000  0.33105000  1
  F  F1  1  0.88965000  0.33105000  0.88965000  1
  F  F2  1  0.33105000  0.88965000  0.88965000  1
  F  F3  1  0.88965000  0.88965000  0.88965000  1
  F  F4  1  0.11035000  0.11035000  0.66895000  1
  F  F5  1  0.11035000  0.66895000  0.11035000  1
  F  F6  1  0.66895000  0.11035000  0.11035000  1
  F  F7  1  0.11035000  0.11035000  0.11035000  1
  F  F8  1  0.50000000  0.50000000  0.17487800  1
  F  F9  1  0.82512200  0.50000000  0.17487800  1
  F  F10  1  0.50000000  0.82512200  0.17487800  1
  F  F11  1  0.82512200  0.17487800  0.50000000  1
  F  F12  1  0.50000000  0.17487800  0.50000000  1
  F  F13  1  0.50000000  0.17487800  0.82512200  1
  F  F14  1  0.17487800  0.82512200  0.50000000  1
  F  F15  1  0.17487800  0.50000000  0.82512200  1
  F  F16  1  0.17487800  0.50000000  0.50000000  1
  F  F17  1  0.50000000  0.50000000  0.82512200  1
  F  F18  1  0.50000000  0.82512200  0.50000000  1
  F  F19  1  0.82512200  0.50000000  0.50000000  1
loop_
_geom_bond_atom_site_label_1
_geom_bond_atom_site_label_2
_geom_bond_distance
_geom_bond_site_symmetry_2
F0 Y0 2.368758 1_655
F0 Y1 2.368758 1_565
F0 Y2 2.368758 1_555
F1 Y1 2.368758 1_556
F1 Y4 2.368758 1_655
F1 Y3 2.368758 1_555
F2 Y0 2.368758 1_556
F2 Y4 2.368758 1_565
F2 Y5 2.368758 1_555
F3 Y3 2.368758 1_565
F3 Y5 2.368758 1_655
F3 Y2 2.368758 1_556
F4 Y4 2.368758 1_555
F4 Y3 2.368758 1_455
F4 Y5 2.368758 1_545
F5 Y0 2.368758 1_555
F5 Y2 2.368758 1_455
F5 Y5 2.368758 1_554
F6 Y1 2.368758 1_555
F6 Y2 2.368758 1_545
F6 Y3 2.368758 1_554
F7 Y1 2.368758 1_455
F7 Y4 2.368758 1_554
F7 Y0 2.368758 1_545
F8 Y0 2.232347 1_555
F8 Y1 2.232347 1_555
F9 Y2 2.232347 1_555
F9 Y1 2.232347 1_555
F10 Y2 2.232347 1_555
F10 Y0 2.232347 1_555
F11 Y3 2.232347 1_555
F11 Y1 2.232347 1_555
F12 Y4 2.232347 1_555
F12 Y1 2.232347 1_555
F13 Y3 2.232347 1_555
F13 Y4 2.232347 1_555
F14 Y5 2.232347 1_555
F14 Y0 2.232347 1_555
F15 Y5 2.232347 1_555
F15 Y4 2.232347 1_555
F16 Y0 2.232347 1_555
F16 Y4 2.232347 1_555
F17 Y3 2.232347 1_555
F17 Y5 2.232347 1_555
F18 Y2 2.232347 1_555
F18 Y5 2.232347 1_555
F19 Y3 2.232347 1_555
F19 Y2 2.232347 1_555
