# generated using pymatgen
data_C6S3(N3Cl)2
_symmetry_space_group_name_H-M   'P 1'
_cell_length_a   16.03455100
_cell_length_b   7.90951700
_cell_length_c   13.56236236
_cell_angle_alpha   64.00750307
_cell_angle_beta   90.00000000
_cell_angle_gamma   90.00000000
_symmetry_Int_Tables_number   1
_chemical_formula_structural   C6S3(N3Cl)2
_chemical_formula_sum   'C24 S12 N24 Cl8'
_cell_volume   1546.07312710
_cell_formula_units_Z   4
loop_
 _symmetry_equiv_pos_site_id
 _symmetry_equiv_pos_as_xyz
  1  'x, y, z'
loop_
 _atom_site_type_symbol
 _atom_site_label
 _atom_site_symmetry_multiplicity
 _atom_site_fract_x
 _atom_site_fract_y
 _atom_site_fract_z
 _atom_site_occupancy
  C  C0  1  0.73100700  0.87992900  0.41994000  1
  C  C1  1  0.76899300  0.87992900  0.91994000  1
  C  C2  1  0.26899300  0.12007100  0.58006000  1
  C  C3  1  0.23100700  0.12007100  0.08006000  1
  C  C4  1  0.83831200  0.32469100  0.30482600  1
  C  C5  1  0.66168800  0.32469100  0.80482600  1
  C  C6  1  0.16168800  0.67530900  0.69517400  1
  C  C7  1  0.33831200  0.67530900  0.19517400  1
  C  C8  1  0.77769100  0.05309300  0.35541900  1
  C  C9  1  0.72230900  0.05309300  0.85541900  1
  C  C10  1  0.22230900  0.94690700  0.64458100  1
  C  C11  1  0.27769100  0.94690700  0.14458100  1
  C  C12  1  0.86205500  0.48959700  0.31625700  1
  C  C13  1  0.63794500  0.48959700  0.81625700  1
  C  C14  1  0.13794500  0.51040300  0.68374300  1
  C  C15  1  0.36205500  0.51040300  0.18374300  1
  C  C16  1  0.59649400  0.39521300  0.33322800  1
  C  C17  1  0.90350600  0.39521300  0.83322800  1
  C  C18  1  0.40350600  0.60478700  0.66677200  1
  C  C19  1  0.09649400  0.60478700  0.16677200  1
  C  C20  1  0.59904600  0.34403900  0.24811700  1
  C  C21  1  0.90095400  0.34403900  0.74811700  1
  C  C22  1  0.40095400  0.65596100  0.75188300  1
  C  C23  1  0.09904600  0.65596100  0.25188300  1
  S  S0  1  0.65213500  0.58574300  0.43342500  1
  S  S1  1  0.84786500  0.58574300  0.93342500  1
  S  S2  1  0.34786500  0.41425700  0.56657500  1
  S  S3  1  0.15213500  0.41425700  0.06657500  1
  S  S4  1  0.81728700  0.11166400  0.22488800  1
  S  S5  1  0.68271300  0.11166400  0.72488800  1
  S  S6  1  0.18271300  0.88833600  0.77511200  1
  S  S7  1  0.31728700  0.88833600  0.27511200  1
  S  S8  1  0.57896700  0.34322400  0.13038200  1
  S  S9  1  0.92103300  0.34322400  0.63038200  1
  S  S10  1  0.42103300  0.65677600  0.86961800  1
  S  S11  1  0.07896700  0.65677600  0.36961800  1
  N  N0  1  0.70452100  0.78177900  0.37176300  1
  N  N1  1  0.79547900  0.78177900  0.87176300  1
  N  N2  1  0.29547900  0.21822100  0.62823700  1
  N  N3  1  0.20452100  0.21822100  0.12823700  1
  N  N4  1  0.85598900  0.31050200  0.21263800  1
  N  N5  1  0.64401100  0.31050200  0.71263800  1
  N  N6  1  0.14401100  0.68949800  0.78736200  1
  N  N7  1  0.35598900  0.68949800  0.28736200  1
  N  N8  1  0.79557100  0.18555000  0.38705200  1
  N  N9  1  0.70442900  0.18555000  0.88705200  1
  N  N10  1  0.20442900  0.81445000  0.61294800  1
  N  N11  1  0.29557100  0.81445000  0.11294800  1
  N  N12  1  0.87934000  0.62495000  0.32624500  1
  N  N13  1  0.62066000  0.62495000  0.82624500  1
  N  N14  1  0.12066000  0.37505000  0.67375500  1
  N  N15  1  0.37934000  0.37505000  0.17375500  1
  N  N16  1  0.63557500  0.54418900  0.32708700  1
  N  N17  1  0.86442500  0.54418900  0.82708700  1
  N  N18  1  0.36442500  0.45581100  0.67291300  1
  N  N19  1  0.13557500  0.45581100  0.17291300  1
  N  N20  1  0.54608100  0.16309500  0.12795400  1
  N  N21  1  0.95391900  0.16309500  0.62795400  1
  N  N22  1  0.45391900  0.83690500  0.87204600  1
  N  N23  1  0.04608100  0.83690500  0.37204600  1
  Cl  Cl0  1  0.71681400  0.81895500  0.55873700  1
  Cl  Cl1  1  0.78318600  0.81895500  0.05873700  1
  Cl  Cl2  1  0.28318600  0.18104500  0.44126300  1
  Cl  Cl3  1  0.21681400  0.18104500  0.94126300  1
  Cl  Cl4  1  0.54770300  0.22985100  0.45493800  1
  Cl  Cl5  1  0.95229700  0.22985100  0.95493800  1
  Cl  Cl6  1  0.45229700  0.77014900  0.54506200  1
  Cl  Cl7  1  0.04770300  0.77014900  0.04506200  1
loop_
_geom_bond_atom_site_label_1
_geom_bond_atom_site_label_2
_geom_bond_distance
_geom_bond_site_symmetry_2
C0 N0 1.286297 1_555
C0 C8 1.466792 1_565
C0 Cl0 1.741304 1_555
C1 N1 1.286297 1_555
C1 C9 1.466792 1_565
C1 Cl1 1.741304 1_556
C2 N2 1.286297 1_555
C2 Cl2 1.741304 1_555
C3 N3 1.286297 1_555
C3 Cl3 1.741304 1_554
C4 N4 1.333845 1_555
C4 N8 1.359689 1_555
C5 N5 1.333845 1_555
C5 N9 1.359689 1_555
C6 N6 1.333845 1_555
C6 N10 1.359689 1_555
C7 N7 1.333845 1_555
C7 N11 1.359689 1_555
C8 N8 1.325832 1_555
C8 S4 1.741513 1_555
C9 N9 1.325832 1_555
C9 S5 1.741513 1_555
C10 N10 1.325832 1_555
C10 C2 1.466792 1_565
C10 S6 1.741513 1_555
C11 N11 1.325832 1_555
C11 C3 1.466792 1_565
C11 S7 1.741513 1_555
C12 N12 1.169792 1_555
C12 C4 1.430902 1_555
C13 N13 1.169792 1_555
C13 C5 1.430902 1_555
C14 N14 1.169792 1_555
C14 C6 1.430902 1_555
C15 N15 1.169792 1_555
C15 C7 1.430902 1_555
C16 N16 1.304630 1_555
C16 C20 1.381105 1_555
C16 Cl4 1.776266 1_555
C17 N17 1.304630 1_555
C17 C21 1.381105 1_555
C17 Cl5 1.776266 1_555
C18 N18 1.304630 1_555
C18 C22 1.381105 1_555
C18 Cl6 1.776266 1_555
C19 N19 1.304630 1_555
C19 C23 1.381105 1_555
C19 Cl7 1.776266 1_555
C20 S8 1.631679 1_555
C21 S9 1.631679 1_555
C22 S10 1.631679 1_555
C23 S11 1.631679 1_555
N0 S0 1.634804 1_555
N1 S1 1.634804 1_555
N2 S2 1.634804 1_555
N3 S3 1.634804 1_555
N4 S4 1.630065 1_555
N5 S5 1.630065 1_555
N6 S6 1.630065 1_555
N7 S7 1.630065 1_555
N16 S0 1.635216 1_555
N17 S1 1.635216 1_555
N18 S2 1.635216 1_555
N19 S3 1.635216 1_555
N20 S8 1.533013 1_555
N21 S9 1.533013 1_555
N22 S10 1.533013 1_555
N23 S11 1.533013 1_555
