# generated using pymatgen
data_VO2F
_symmetry_space_group_name_H-M   'P 1'
_cell_length_a   5.05121700
_cell_length_b   5.22656565
_cell_length_c   12.49330877
_cell_angle_alpha   89.73964682
_cell_angle_beta   92.31119976
_cell_angle_gamma   116.82586725
_symmetry_Int_Tables_number   1
_chemical_formula_structural   VO2F
_chemical_formula_sum   'V6 O12 F6'
_cell_volume   294.06032609
_cell_formula_units_Z   6
loop_
 _symmetry_equiv_pos_site_id
 _symmetry_equiv_pos_as_xyz
  1  'x, y, z'
loop_
 _atom_site_type_symbol
 _atom_site_label
 _atom_site_symmetry_multiplicity
 _atom_site_fract_x
 _atom_site_fract_y
 _atom_site_fract_z
 _atom_site_occupancy
  V  V0  1  0.19173500  0.87690700  0.83575400  1
  V  V1  1  0.11519900  0.76625400  0.33236900  1
  V  V2  1  0.50000000  0.50000000  0.00000000  1
  V  V3  1  0.50000000  0.50000000  0.50000000  1
  V  V4  1  0.88480100  0.23374600  0.66763100  1
  V  V5  1  0.80826500  0.12309300  0.16424600  1
  O  O0  1  0.31512400  0.70120600  0.44565900  1
  O  O1  1  0.08321200  0.50463400  0.24922600  1
  O  O2  1  0.91678800  0.49536600  0.75077400  1
  O  O3  1  0.68487600  0.29879400  0.55434100  1
  O  O4  1  0.02993800  0.98551500  0.22123400  1
  O  O5  1  0.63421000  0.36565700  0.10845100  1
  O  O6  1  0.76913500  0.62953100  0.38626700  1
  O  O7  1  0.97006200  0.01448500  0.77876600  1
  O  O8  1  0.42632400  0.16143700  0.91717600  1
  O  O9  1  0.57367600  0.83856300  0.08282400  1
  O  O10  1  0.23086500  0.37046900  0.61373300  1
  O  O11  1  0.36579000  0.63434300  0.89154900  1
  F  F0  1  0.56605700  0.03541600  0.28168100  1
  F  F1  1  0.43394300  0.96458400  0.71831900  1
  F  F2  1  0.90285800  0.69589100  0.95077300  1
  F  F3  1  0.76085600  0.82206600  0.58400900  1
  F  F4  1  0.23914400  0.17793400  0.41599100  1
  F  F5  1  0.09714200  0.30410900  0.04922700  1
loop_
_geom_bond_atom_site_label_1
_geom_bond_atom_site_label_2
_geom_bond_distance
_geom_bond_site_symmetry_2
O0 V3 1.807654 1_555
O0 V1 1.824527 1_555
O1 V1 1.665758 1_555
O1 V5 2.105535 1_455
O2 V4 1.665758 1_555
O2 V0 2.105535 1_655
O3 V3 1.807654 1_555
O3 V4 1.824527 1_555
O4 V5 1.713318 1_465
O4 V1 1.951741 1_555
O5 V2 1.770672 1_555
O5 V5 1.953120 1_555
O6 V1 1.727096 1_655
O6 V3 1.908350 1_555
O7 V0 1.713318 1_645
O7 V4 1.951741 1_555
O8 V0 1.725242 1_545
O8 V2 1.931740 1_556
O9 V5 1.725242 1_565
O9 V2 1.931740 1_555
O10 V4 1.727096 1_455
O10 V3 1.908350 1_555
O11 V2 1.770672 1_556
O11 V0 1.953120 1_555
F0 V5 1.868687 1_555
F0 V1 2.187040 1_545
F1 V0 1.868687 1_555
F1 V4 2.187040 1_565
F2 V2 1.944784 1_556
F2 V0 1.999983 1_655
F3 V3 1.890471 1_555
F3 V4 2.205657 1_565
F4 V3 1.890471 1_555
F4 V1 2.205657 1_545
F5 V2 1.944784 1_555
F5 V5 1.999983 1_455
