# generated using pymatgen
data_LiVP2HO7
_symmetry_space_group_name_H-M   'P 1'
_cell_length_a   6.54231584
_cell_length_b   6.61277513
_cell_length_c   12.55739914
_cell_angle_alpha   98.33095517
_cell_angle_beta   87.62972523
_cell_angle_gamma   96.41402047
_symmetry_Int_Tables_number   1
_chemical_formula_structural   LiVP2HO7
_chemical_formula_sum   'Li4 V4 P8 H4 O28'
_cell_volume   533.99656804
_cell_formula_units_Z   4
loop_
 _symmetry_equiv_pos_site_id
 _symmetry_equiv_pos_as_xyz
  1  'x, y, z'
loop_
 _atom_site_type_symbol
 _atom_site_label
 _atom_site_symmetry_multiplicity
 _atom_site_fract_x
 _atom_site_fract_y
 _atom_site_fract_z
 _atom_site_occupancy
  Li  Li0  1  0.11974400  0.68699700  0.42530200  1
  Li  Li1  1  0.11973200  0.18697800  0.92531200  1
  Li  Li2  1  0.88030900  0.81299000  0.07472500  1
  Li  Li3  1  0.88014300  0.31296400  0.57467600  1
  V  V0  1  0.35077900  0.73916800  0.64120300  1
  V  V1  1  0.64931900  0.26088100  0.35878700  1
  V  V2  1  0.35057900  0.23915500  0.14120100  1
  V  V3  1  0.64964100  0.76087900  0.85875100  1
  P  P0  1  0.15465300  0.15646000  0.38304500  1
  P  P1  1  0.15487900  0.65642300  0.88305800  1
  P  P2  1  0.84521300  0.34354300  0.11695200  1
  P  P3  1  0.84530400  0.84355800  0.61693500  1
  P  P4  1  0.39036200  0.72861700  0.08998100  1
  P  P5  1  0.39028500  0.22867800  0.58994300  1
  P  P6  1  0.60963100  0.77139000  0.41003400  1
  P  P7  1  0.60965400  0.27131900  0.91004300  1
  H  H0  1  0.17228300  0.90532900  0.24888300  1
  H  H1  1  0.17234500  0.40534900  0.74887000  1
  H  H2  1  0.82763000  0.59467100  0.25111700  1
  H  H3  1  0.82766800  0.09464000  0.75113200  1
  O  O0  1  0.09450900  0.92999600  0.32463300  1
  O  O1  1  0.09464100  0.42998300  0.82463800  1
  O  O2  1  0.90539700  0.56999600  0.17536700  1
  O  O3  1  0.90539000  0.07002300  0.67537200  1
  O  O4  1  0.02991300  0.22275900  0.08891400  1
  O  O5  1  0.03003600  0.72285800  0.58888300  1
  O  O6  1  0.96993300  0.27717700  0.41109700  1
  O  O7  1  0.97020100  0.77723700  0.91110400  1
  O  O8  1  0.23761300  0.11041300  0.49308500  1
  O  O9  1  0.23780600  0.61029800  0.99308300  1
  O  O10  1  0.76226500  0.38963500  0.00692600  1
  O  O11  1  0.76224700  0.88962200  0.50693100  1
  O  O12  1  0.27166100  0.90915800  0.14249200  1
  O  O13  1  0.27171800  0.40926900  0.64248300  1
  O  O14  1  0.72823300  0.59082900  0.35750500  1
  O  O15  1  0.72831900  0.09075100  0.85754100  1
  O  O16  1  0.32438800  0.26618300  0.31872300  1
  O  O17  1  0.32465600  0.76606400  0.81873500  1
  O  O18  1  0.67542900  0.23388900  0.18127300  1
  O  O19  1  0.67557500  0.73383300  0.68126300  1
  O  O20  1  0.40192300  0.56641800  0.16124900  1
  O  O21  1  0.40202300  0.06646000  0.66118300  1
  O  O22  1  0.59795300  0.93367600  0.33879200  1
  O  O23  1  0.59803200  0.43351600  0.83877900  1
  O  O24  1  0.40894300  0.69843400  0.46665400  1
  O  O25  1  0.40892900  0.19836300  0.96666700  1
  O  O26  1  0.59111600  0.80154700  0.03337000  1
  O  O27  1  0.59099500  0.30161400  0.53330800  1
loop_
_geom_bond_atom_site_label_1
_geom_bond_atom_site_label_2
_geom_bond_distance
_geom_bond_site_symmetry_2
Li0 O24 1.973084 1_555
Li0 O5 2.100105 1_555
Li0 O0 2.207399 1_555
Li1 O25 1.973120 1_555
Li1 O4 2.100538 1_556
Li1 O1 2.207305 1_555
Li2 O26 1.973053 1_555
Li2 O7 2.100884 1_554
Li2 O2 2.206968 1_555
Li3 O27 1.972883 1_555
Li3 O6 2.100215 1_555
Li3 O3 2.207330 1_555
H0 O0 1.060132 1_555
H0 O12 1.463732 1_555
H1 O1 1.060098 1_555
H1 O13 1.463734 1_555
H2 O2 1.060115 1_555
H2 O14 1.463757 1_555
H3 O3 1.060057 1_555
H3 O15 1.463897 1_555
O0 P0 1.584118 1_565
O1 P1 1.584117 1_555
O2 P2 1.584111 1_555
O3 P3 1.584168 1_545
O4 P2 1.523488 1_455
O4 V2 2.210549 1_555
O5 P3 1.523364 1_455
O5 V0 2.211224 1_555
O6 P0 1.523363 1_655
O6 V1 2.210385 1_555
O7 P1 1.523494 1_655
O7 V3 2.210184 1_555
O8 P0 1.586695 1_555
O8 P5 1.654975 1_555
O9 P1 1.586621 1_555
O9 P4 1.654988 1_556
O10 P2 1.586609 1_555
O10 P7 1.655061 1_554
O11 P3 1.586576 1_555
O11 P6 1.655036 1_555
O12 P4 1.549157 1_555
O12 V2 2.187840 1_565
O13 P5 1.549018 1_555
O13 V0 2.187307 1_555
O14 P6 1.548956 1_555
O14 V1 2.187506 1_555
O15 P7 1.549127 1_555
O15 V3 2.186698 1_545
O16 P0 1.525650 1_555
O16 V1 2.209886 1_555
O16 V2 2.211446 1_555
O17 P1 1.525581 1_555
O17 V3 2.209946 1_555
O17 V0 2.211600 1_555
O18 P2 1.525637 1_555
O18 V2 2.209360 1_555
O18 V1 2.211336 1_555
O19 P3 1.525673 1_555
O19 V0 2.209047 1_555
O19 V3 2.210941 1_555
O20 P4 1.502985 1_555
O20 V2 2.132209 1_555
O21 P5 1.503020 1_555
O21 V0 2.132384 1_545
O22 P6 1.503339 1_555
O22 V1 2.131855 1_565
O23 P7 1.503001 1_555
O23 V3 2.132964 1_555
O24 P6 1.530623 1_555
O24 V0 2.191922 1_555
O25 P7 1.530841 1_555
O25 V2 2.191915 1_556
O26 P4 1.530867 1_555
O26 V3 2.193126 1_554
O27 P5 1.530790 1_555
O27 V1 2.191732 1_555
