# generated using pymatgen
data_LiPH4NO3F
_symmetry_space_group_name_H-M   'P 1'
_cell_length_a   5.07060900
_cell_length_b   5.52643900
_cell_length_c   14.52840878
_cell_angle_alpha   89.85615710
_cell_angle_beta   90.00000000
_cell_angle_gamma   90.00000000
_symmetry_Int_Tables_number   1
_chemical_formula_structural   LiPH4NO3F
_chemical_formula_sum   'Li4 P4 H16 N4 O12 F4'
_cell_volume   407.11976396
_cell_formula_units_Z   4
loop_
 _symmetry_equiv_pos_site_id
 _symmetry_equiv_pos_as_xyz
  1  'x, y, z'
loop_
 _atom_site_type_symbol
 _atom_site_label
 _atom_site_symmetry_multiplicity
 _atom_site_fract_x
 _atom_site_fract_y
 _atom_site_fract_z
 _atom_site_occupancy
  Li  Li0  1  0.44501900  0.81531400  0.74533600  1
  Li  Li1  1  0.94501900  0.18468600  0.75466400  1
  Li  Li2  1  0.55498100  0.18468600  0.25466400  1
  Li  Li3  1  0.05498100  0.81531400  0.24533600  1
  P  P0  1  0.44081600  0.29816100  0.85597400  1
  P  P1  1  0.94081600  0.70183900  0.64402600  1
  P  P2  1  0.55918400  0.70183900  0.14402600  1
  P  P3  1  0.05918400  0.29816100  0.35597400  1
  H  H0  1  0.52049300  0.27351800  0.51658500  1
  H  H1  1  0.02049300  0.72648200  0.98341500  1
  H  H2  1  0.47950700  0.72648200  0.48341500  1
  H  H3  1  0.97950700  0.27351800  0.01658500  1
  H  H4  1  0.27473800  0.29831600  0.59703700  1
  H  H5  1  0.77473800  0.70168400  0.90296300  1
  H  H6  1  0.72526200  0.70168400  0.40296300  1
  H  H7  1  0.22526200  0.29831600  0.09703700  1
  H  H8  1  0.50652400  0.06709400  0.60199000  1
  H  H9  1  0.00652400  0.93290600  0.89801000  1
  H  H10  1  0.49347600  0.93290600  0.39801000  1
  H  H11  1  0.99347600  0.06709400  0.10199000  1
  H  H12  1  0.59052700  0.35539400  0.62438100  1
  H  H13  1  0.09052700  0.64460600  0.87561900  1
  H  H14  1  0.40947300  0.64460600  0.37561900  1
  H  H15  1  0.90947300  0.35539400  0.12438100  1
  N  N0  1  0.47009100  0.24811200  0.58459700  1
  N  N1  1  0.97009100  0.75188800  0.91540300  1
  N  N2  1  0.52990900  0.75188800  0.41540300  1
  N  N3  1  0.02990900  0.24811200  0.08459700  1
  O  O0  1  0.57912400  0.12707100  0.78973600  1
  O  O1  1  0.07912400  0.87292900  0.71026400  1
  O  O2  1  0.42087600  0.87292900  0.21026400  1
  O  O3  1  0.92087600  0.12707100  0.28973600  1
  O  O4  1  0.49595700  0.56582100  0.83967000  1
  O  O5  1  0.99595700  0.43417900  0.66033000  1
  O  O6  1  0.50404300  0.43417900  0.16033000  1
  O  O7  1  0.00404300  0.56582100  0.33967000  1
  O  O8  1  0.14900400  0.23956100  0.87196900  1
  O  O9  1  0.64900400  0.76043900  0.62803100  1
  O  O10  1  0.85099600  0.76043900  0.12803100  1
  O  O11  1  0.35099600  0.23956100  0.37196900  1
  F  F0  1  0.57877200  0.24472300  0.95510900  1
  F  F1  1  0.07877200  0.75527700  0.54489100  1
  F  F2  1  0.42122800  0.75527700  0.04489100  1
  F  F3  1  0.92122800  0.24472300  0.45510900  1
loop_
_geom_bond_atom_site_label_1
_geom_bond_atom_site_label_2
_geom_bond_distance
_geom_bond_site_symmetry_2
Li0 O1 1.949968 1_555
Li0 O4 1.958741 1_555
Li0 O0 1.962774 1_565
Li0 O9 2.017147 1_555
Li1 O0 1.949968 1_555
Li1 O5 1.958741 1_555
Li1 O1 1.962774 1_645
Li1 O8 2.017147 1_655
Li2 O3 1.949968 1_555
Li2 O6 1.958741 1_555
Li2 O2 1.962774 1_545
Li2 O11 2.017147 1_555
Li3 O2 1.949968 1_555
Li3 O7 1.958741 1_555
Li3 O3 1.962774 1_465
Li3 O10 2.017147 1_455
H0 N0 1.029896 1_555
H1 N1 1.029896 1_455
H2 N2 1.029896 1_555
H3 N3 1.029896 1_655
H4 N0 1.044558 1_555
H5 N1 1.044558 1_555
H6 N2 1.044558 1_555
H7 N3 1.044558 1_555
H8 N0 1.047608 1_555
H9 N1 1.047608 1_455
H10 N2 1.047608 1_555
H11 N3 1.047608 1_655
H12 N0 1.029686 1_555
H13 N1 1.029686 1_455
H14 N2 1.029686 1_555
H15 N3 1.029686 1_655
O0 P0 1.522001 1_555
O1 P1 1.522001 1_455
O2 P2 1.522001 1_555
O3 P3 1.522001 1_655
O4 P0 1.523344 1_555
O5 P1 1.523344 1_555
O6 P2 1.523344 1_555
O7 P3 1.523344 1_555
O8 P0 1.532289 1_555
O9 P1 1.532289 1_555
O10 P2 1.532289 1_555
O11 P3 1.532289 1_555
F0 P0 1.627513 1_555
F1 P1 1.627513 1_455
F2 P2 1.627513 1_555
F3 P3 1.627513 1_655
