# generated using pymatgen
data_Li2VP4(H2O3)6
_symmetry_space_group_name_H-M   'P 1'
_cell_length_a   11.54307100
_cell_length_b   8.14121500
_cell_length_c   8.96567694
_cell_angle_alpha   64.47235828
_cell_angle_beta   90.00000000
_cell_angle_gamma   90.00000000
_symmetry_Int_Tables_number   1
_chemical_formula_structural   Li2VP4(H2O3)6
_chemical_formula_sum   'Li4 V2 P8 H24 O36'
_cell_volume   760.29463743
_cell_formula_units_Z   2
loop_
 _symmetry_equiv_pos_site_id
 _symmetry_equiv_pos_as_xyz
  1  'x, y, z'
loop_
 _atom_site_type_symbol
 _atom_site_label
 _atom_site_symmetry_multiplicity
 _atom_site_fract_x
 _atom_site_fract_y
 _atom_site_fract_z
 _atom_site_occupancy
  Li  Li0  1  0.75000000  0.97608800  0.57514600  1
  Li  Li1  1  0.25000000  0.75033500  0.90877800  1
  Li  Li2  1  0.75000000  0.24966500  0.09122200  1
  Li  Li3  1  0.25000000  0.02391200  0.42485400  1
  V  V0  1  0.75000000  0.52840600  0.73920800  1
  V  V1  1  0.25000000  0.47159400  0.26079200  1
  P  P0  1  0.48680100  0.71213600  0.64335400  1
  P  P1  1  0.01319900  0.71213600  0.64335400  1
  P  P2  1  0.50040000  0.69496200  0.16164800  1
  P  P3  1  0.99960000  0.69496200  0.16164800  1
  P  P4  1  0.00040000  0.30503800  0.83835200  1
  P  P5  1  0.49960000  0.30503800  0.83835200  1
  P  P6  1  0.98680100  0.28786400  0.35664600  1
  P  P7  1  0.51319900  0.28786400  0.35664600  1
  H  H0  1  0.81724800  0.94034400  0.86591200  1
  H  H1  1  0.68275200  0.94034400  0.86591200  1
  H  H2  1  0.49075200  0.74905800  0.87297300  1
  H  H3  1  0.00924800  0.74905800  0.87297300  1
  H  H4  1  0.81831800  0.60567700  0.99530200  1
  H  H5  1  0.68168200  0.60567700  0.99530200  1
  H  H6  1  0.81789600  0.91545300  0.28182100  1
  H  H7  1  0.68210400  0.91545300  0.28182100  1
  H  H8  1  0.48278800  0.82424800  0.33561400  1
  H  H9  1  0.01721200  0.82424800  0.33561400  1
  H  H10  1  0.18342100  0.58412000  0.49539400  1
  H  H11  1  0.31657900  0.58412000  0.49539400  1
  H  H12  1  0.81657900  0.41588000  0.50460600  1
  H  H13  1  0.68342100  0.41588000  0.50460600  1
  H  H14  1  0.98278800  0.17575200  0.66438600  1
  H  H15  1  0.51721200  0.17575200  0.66438600  1
  H  H16  1  0.31789600  0.08454700  0.71817900  1
  H  H17  1  0.18210400  0.08454700  0.71817900  1
  H  H18  1  0.31831800  0.39432300  0.00469800  1
  H  H19  1  0.18168200  0.39432300  0.00469800  1
  H  H20  1  0.99075200  0.25094200  0.12702700  1
  H  H21  1  0.50924800  0.25094200  0.12702700  1
  H  H22  1  0.31724800  0.05965600  0.13408800  1
  H  H23  1  0.18275200  0.05965600  0.13408800  1
  O  O0  1  0.43138600  0.75161000  0.78542000  1
  O  O1  1  0.06861400  0.75161000  0.78542000  1
  O  O2  1  0.75000000  0.98826500  0.28190400  1
  O  O3  1  0.25000000  0.01949700  0.20756100  1
  O  O4  1  0.41605500  0.80953500  0.48652200  1
  O  O5  1  0.08394500  0.80953500  0.48652200  1
  O  O6  1  0.88310500  0.73798800  0.63407700  1
  O  O7  1  0.61689500  0.73798800  0.63407700  1
  O  O8  1  0.75000000  0.53885500  0.98032300  1
  O  O9  1  0.53300200  0.83207800  0.23591300  1
  O  O10  1  0.96699800  0.83207800  0.23591300  1
  O  O11  1  0.45816200  0.49803300  0.69336100  1
  O  O12  1  0.04183800  0.49803300  0.69336100  1
  O  O13  1  0.92555400  0.73879600  0.00842300  1
  O  O14  1  0.57444600  0.73879600  0.00842300  1
  O  O15  1  0.37200000  0.68576700  0.13328100  1
  O  O16  1  0.12800000  0.68576700  0.13328100  1
  O  O17  1  0.25000000  0.51509400  0.48473600  1
  O  O18  1  0.75000000  0.48490600  0.51526400  1
  O  O19  1  0.62800000  0.31423300  0.86671900  1
  O  O20  1  0.87200000  0.31423300  0.86671900  1
  O  O21  1  0.42555400  0.26120400  0.99157700  1
  O  O22  1  0.07444600  0.26120400  0.99157700  1
  O  O23  1  0.95816200  0.50196700  0.30663900  1
  O  O24  1  0.54183800  0.50196700  0.30663900  1
  O  O25  1  0.46699800  0.16792200  0.76408700  1
  O  O26  1  0.03300200  0.16792200  0.76408700  1
  O  O27  1  0.25000000  0.46114500  0.01967700  1
  O  O28  1  0.11689500  0.26201200  0.36592300  1
  O  O29  1  0.38310500  0.26201200  0.36592300  1
  O  O30  1  0.91605500  0.19046500  0.51347800  1
  O  O31  1  0.58394500  0.19046500  0.51347800  1
  O  O32  1  0.75000000  0.98050300  0.79243900  1
  O  O33  1  0.25000000  0.01173500  0.71809600  1
  O  O34  1  0.93138600  0.24839000  0.21458000  1
  O  O35  1  0.56861400  0.24839000  0.21458000  1
loop_
_geom_bond_atom_site_label_1
_geom_bond_atom_site_label_2
_geom_bond_distance
_geom_bond_site_symmetry_2
Li0 O32 1.963936 1_555
Li0 O6 2.348311 1_555
Li0 O7 2.348311 1_555
Li0 O30 2.488794 1_565
Li0 O31 2.488794 1_565
Li0 O2 2.587938 1_555
Li1 O33 2.077458 1_565
Li1 O27 2.124617 1_556
Li1 O16 2.323578 1_556
Li1 O15 2.323578 1_556
Li1 O0 2.365844 1_555
Li1 O1 2.365844 1_555
Li2 O2 2.077458 1_545
Li2 O8 2.124617 1_554
Li2 O19 2.323578 1_554
Li2 O20 2.323578 1_554
Li2 O34 2.365844 1_555
Li2 O35 2.365844 1_555
Li3 O3 1.963936 1_555
Li3 O28 2.348311 1_555
Li3 O29 2.348311 1_555
Li3 O4 2.488794 1_545
Li3 O5 2.488794 1_545
Li3 O33 2.587938 1_555
H0 O32 0.978652 1_555
H1 O32 0.978652 1_555
H2 O0 1.035445 1_555
H2 O14 1.525656 1_556
H3 O1 1.035445 1_555
H3 O13 1.525656 1_456
H4 O8 0.999422 1_555
H4 O13 1.682399 1_556
H5 O8 0.999422 1_555
H5 O14 1.682399 1_556
H6 O2 0.982851 1_555
H7 O2 0.982851 1_555
H8 O9 1.044006 1_555
H8 O4 1.516121 1_555
H9 O10 1.044006 1_455
H9 O5 1.516121 1_555
H10 O17 0.980734 1_555
H11 O17 0.980734 1_555
H12 O18 0.980734 1_555
H13 O18 0.980734 1_555
H14 O26 1.044006 1_655
H14 O30 1.516121 1_555
H15 O25 1.044006 1_555
H15 O31 1.516121 1_555
H16 O33 0.982851 1_555
H17 O33 0.982851 1_555
H18 O27 0.999422 1_555
H18 O21 1.682399 1_554
H19 O27 0.999422 1_555
H19 O22 1.682399 1_554
H20 O34 1.035445 1_555
H20 O22 1.525656 1_654
H21 O35 1.035445 1_555
H21 O21 1.525656 1_554
H22 O3 0.978652 1_555
H23 O3 0.978652 1_555
O0 P0 1.577212 1_555
O1 P1 1.577212 1_555
O4 P0 1.520458 1_555
O5 P1 1.520458 1_555
O6 P1 1.513665 1_655
O6 V0 2.185002 1_555
O7 P0 1.513665 1_555
O7 V0 2.185002 1_555
O8 V0 2.199759 1_555
O9 P2 1.572158 1_555
O10 P3 1.572158 1_555
O11 P5 1.620787 1_555
O11 P0 1.635539 1_555
O12 P4 1.620787 1_555
O12 P1 1.635539 1_555
O13 P3 1.524004 1_555
O14 P2 1.524004 1_555
O15 P2 1.511095 1_555
O15 V1 2.147631 1_555
O16 P3 1.511095 1_455
O16 V1 2.147631 1_555
O17 V1 2.183934 1_555
O18 V0 2.183934 1_555
O19 P5 1.511095 1_555
O19 V0 2.147631 1_555
O20 P4 1.511095 1_655
O20 V0 2.147631 1_555
O21 P5 1.524004 1_555
O22 P4 1.524004 1_555
O23 P3 1.620787 1_555
O23 P6 1.635539 1_555
O24 P2 1.620787 1_555
O24 P7 1.635539 1_555
O25 P5 1.572158 1_555
O26 P4 1.572158 1_555
O27 V1 2.199759 1_555
O28 P6 1.513665 1_455
O28 V1 2.185002 1_555
O29 P7 1.513665 1_555
O29 V1 2.185002 1_555
O30 P6 1.520458 1_555
O31 P7 1.520458 1_555
O34 P6 1.577212 1_555
O35 P7 1.577212 1_555
