# generated using pymatgen
data_Li6AlFeO6
_symmetry_space_group_name_H-M   'P 1'
_cell_length_a   5.40786706
_cell_length_b   9.36257997
_cell_length_c   9.78452429
_cell_angle_alpha   89.99660567
_cell_angle_beta   89.97225290
_cell_angle_gamma   90.00699097
_symmetry_Int_Tables_number   1
_chemical_formula_structural   Li6AlFeO6
_chemical_formula_sum   'Li24 Al4 Fe4 O24'
_cell_volume   495.40593808
_cell_formula_units_Z   4
loop_
 _symmetry_equiv_pos_site_id
 _symmetry_equiv_pos_as_xyz
  1  'x, y, z'
loop_
 _atom_site_type_symbol
 _atom_site_label
 _atom_site_symmetry_multiplicity
 _atom_site_fract_x
 _atom_site_fract_y
 _atom_site_fract_z
 _atom_site_occupancy
  Li  Li0  1  0.85084700  0.46891100  0.42539800  1
  Li  Li1  1  0.35084400  0.96891000  0.42540700  1
  Li  Li2  1  0.85096400  0.53141100  0.92409300  1
  Li  Li3  1  0.35096700  0.03140900  0.92408200  1
  Li  Li4  1  0.37754500  0.31067700  0.92541100  1
  Li  Li5  1  0.87754300  0.81068500  0.92540500  1
  Li  Li6  1  0.15748500  0.46886800  0.07710000  1
  Li  Li7  1  0.65748600  0.96886600  0.07708900  1
  Li  Li8  1  0.78553800  0.84199500  0.42577900  1
  Li  Li9  1  0.28554000  0.34199800  0.42577600  1
  Li  Li10  1  0.15912900  0.53071600  0.57724200  1
  Li  Li11  1  0.65912600  0.03071600  0.57725300  1
  Li  Li12  1  0.63252000  0.30974400  0.57810500  1
  Li  Li13  1  0.13252100  0.80975200  0.57811100  1
  Li  Li14  1  0.37903900  0.68945900  0.42352400  1
  Li  Li15  1  0.87904200  0.18946800  0.42353100  1
  Li  Li16  1  0.28482300  0.65761600  0.92476600  1
  Li  Li17  1  0.78482500  0.15761200  0.92476100  1
  Li  Li18  1  0.72477200  0.34201400  0.07725500  1
  Li  Li19  1  0.22477400  0.84201000  0.07725100  1
  Li  Li20  1  0.63095300  0.68899700  0.07899200  1
  Li  Li21  1  0.13095200  0.18900500  0.07898400  1
  Li  Li22  1  0.22534000  0.15728900  0.57784900  1
  Li  Li23  1  0.72534400  0.65729300  0.57784300  1
  Al  Al0  1  0.50539200  0.83273400  0.75139300  1
  Al  Al1  1  0.00539300  0.33272200  0.75139300  1
  Al  Al2  1  0.00429200  0.66620900  0.25140600  1
  Al  Al3  1  0.50428900  0.16622000  0.25140500  1
  Fe  Fe0  1  0.00419100  0.99909400  0.25122700  1
  Fe  Fe1  1  0.50487100  0.49921300  0.75108200  1
  Fe  Fe2  1  0.50419300  0.49909200  0.25123000  1
  Fe  Fe3  1  0.00487200  0.99921400  0.75108200  1
  O  O0  1  0.82663100  0.52730000  0.13464500  1
  O  O1  1  0.32662300  0.02730800  0.13464300  1
  O  O2  1  0.82756900  0.47169700  0.63461100  1
  O  O3  1  0.32757500  0.97170600  0.63461400  1
  O  O4  1  0.38473400  0.32496300  0.13472400  1
  O  O5  1  0.88474300  0.82496300  0.13472200  1
  O  O6  1  0.18271800  0.52739100  0.36833900  1
  O  O7  1  0.68272300  0.02740000  0.36834000  1
  O  O8  1  0.18218300  0.47201400  0.86771800  1
  O  O9  1  0.68217600  0.97202200  0.86771600  1
  O  O10  1  0.80311000  0.85198500  0.63474100  1
  O  O11  1  0.30310800  0.35198300  0.63474100  1
  O  O12  1  0.38626600  0.67421400  0.63453400  1
  O  O13  1  0.88626000  0.17421300  0.63453600  1
  O  O14  1  0.70671700  0.35216500  0.86774300  1
  O  O15  1  0.20671400  0.85216600  0.86774400  1
  O  O16  1  0.30166000  0.64701300  0.13491600  1
  O  O17  1  0.80165900  0.14701500  0.13491500  1
  O  O18  1  0.62429800  0.32495600  0.36797200  1
  O  O19  1  0.12428900  0.82495400  0.36797400  1
  O  O20  1  0.20757700  0.14729900  0.36771000  1
  O  O21  1  0.70757500  0.64729600  0.36770900  1
  O  O22  1  0.62400600  0.67463500  0.86806800  1
  O  O23  1  0.12401400  0.17463300  0.86806700  1
loop_
_geom_bond_atom_site_label_1
_geom_bond_atom_site_label_2
_geom_bond_distance
_geom_bond_site_symmetry_2
Li0 O18 1.906199 1_555
Li0 O21 1.925859 1_555
Li0 O6 1.957352 1_655
Li0 O2 2.051023 1_555
Li1 O19 1.906246 1_555
Li1 O20 1.925903 1_565
Li1 O7 1.957441 1_565
Li1 O3 2.050963 1_555
Li2 O22 1.898950 1_555
Li2 O14 1.931083 1_555
Li2 O8 1.954789 1_655
Li2 O0 2.064642 1_556
Li3 O23 1.898904 1_555
Li3 O15 1.931038 1_545
Li3 O9 1.954688 1_545
Li3 O1 2.064732 1_556
Li4 O14 1.907071 1_555
Li4 O8 1.928057 1_555
Li4 O23 1.953817 1_555
Li4 O4 2.052786 1_556
Li5 O15 1.907032 1_655
Li5 O9 1.928060 1_555
Li5 O22 1.953856 1_555
Li5 O5 2.052821 1_556
Li6 O4 1.909040 1_555
Li6 O16 1.926141 1_555
Li6 O0 1.953690 1_455
Li6 O8 2.053197 1_554
Li7 O5 1.909081 1_555
Li7 O17 1.926198 1_565
Li7 O1 1.953786 1_565
Li7 O9 2.053108 1_554
Li8 O7 1.907530 1_565
Li8 O19 1.923633 1_655
Li8 O21 1.955421 1_555
Li8 O10 2.048988 1_555
Li9 O6 1.907433 1_555
Li9 O18 1.923667 1_555
Li9 O20 1.955410 1_555
Li9 O11 2.049014 1_555
Li10 O12 1.904838 1_555
Li10 O11 1.929682 1_555
Li10 O2 1.958095 1_455
Li10 O6 2.048170 1_555
Li11 O13 1.904795 1_555
Li11 O10 1.929645 1_545
Li11 O3 1.958004 1_545
Li11 O7 2.048269 1_555
Li12 O11 1.906874 1_555
Li12 O2 1.928138 1_555
Li12 O13 1.949106 1_555
Li12 O18 2.061471 1_555
Li13 O10 1.906840 1_455
Li13 O3 1.928152 1_555
Li13 O12 1.949146 1_555
Li13 O19 2.061505 1_555
Li14 O21 1.899981 1_555
Li14 O6 1.929093 1_555
Li14 O19 1.950315 1_555
Li14 O12 2.069940 1_555
Li15 O20 1.900004 1_655
Li15 O7 1.929104 1_555
Li15 O18 1.950274 1_555
Li15 O13 2.069897 1_555
Li16 O8 1.907747 1_555
Li16 O22 1.922650 1_555
Li16 O15 1.951367 1_555
Li16 O16 2.060664 1_556
Li17 O9 1.907650 1_545
Li17 O23 1.922671 1_655
Li17 O14 1.951381 1_555
Li17 O17 2.060700 1_556
Li18 O0 1.904810 1_555
Li18 O4 1.929267 1_555
Li18 O17 1.955665 1_555
Li18 O14 2.054541 1_554
Li19 O1 1.904903 1_565
Li19 O5 1.929234 1_455
Li19 O16 1.955661 1_555
Li19 O15 2.054495 1_554
Li20 O16 1.903665 1_555
Li20 O0 1.925892 1_555
Li20 O5 1.949843 1_555
Li20 O22 2.068534 1_554
Li21 O17 1.903696 1_455
Li21 O1 1.925887 1_555
Li21 O4 1.949791 1_555
Li21 O23 2.068471 1_554
Li22 O3 1.906202 1_545
Li22 O13 1.922056 1_455
Li22 O11 1.951830 1_555
Li22 O20 2.060528 1_555
Li23 O2 1.906306 1_555
Li23 O12 1.922055 1_555
Li23 O10 1.951827 1_555
Li23 O21 2.060484 1_555
Al0 O22 1.976488 1_555
Al0 O9 1.977623 1_555
Al0 O3 1.981020 1_555
Al0 O10 1.981295 1_555
Al0 O12 1.981364 1_555
Al0 O15 1.984028 1_555
Al1 O23 1.976424 1_555
Al1 O8 1.977674 1_555
Al1 O2 1.981074 1_455
Al1 O13 1.981288 1_455
Al1 O11 1.981291 1_555
Al1 O14 1.984023 1_455
Al2 O21 1.974647 1_455
Al2 O16 1.978847 1_555
Al2 O0 1.980056 1_455
Al2 O6 1.982546 1_555
Al2 O5 1.982780 1_455
Al2 O19 1.982839 1_555
Al3 O20 1.974643 1_555
Al3 O17 1.978863 1_555
Al3 O1 1.980094 1_555
Al3 O7 1.982590 1_555
Al3 O4 1.982697 1_555
Al3 O18 1.982791 1_555
Fe0 O5 2.091732 1_455
Fe0 O19 2.094196 1_555
Fe0 O7 2.098513 1_465
Fe0 O1 2.099840 1_565
Fe0 O17 2.100996 1_465
Fe0 O20 2.105978 1_565
Fe1 O11 2.094634 1_555
Fe1 O14 2.095538 1_555
Fe1 O12 2.096933 1_555
Fe1 O2 2.099692 1_555
Fe1 O8 2.100093 1_555
Fe1 O22 2.103205 1_555
Fe2 O4 2.091742 1_555
Fe2 O18 2.094152 1_555
Fe2 O6 2.098515 1_555
Fe2 O0 2.099865 1_555
Fe2 O16 2.101009 1_555
Fe2 O21 2.105939 1_555
Fe3 O10 2.094625 1_455
Fe3 O15 2.095532 1_555
Fe3 O13 2.096919 1_465
Fe3 O3 2.099689 1_555
Fe3 O9 2.100110 1_455
Fe3 O23 2.103190 1_565
