# generated using pymatgen
data_Li3SiNiO5
_symmetry_space_group_name_H-M   'P 1'
_cell_length_a   6.33674908
_cell_length_b   8.42154667
_cell_length_c   6.51634555
_cell_angle_alpha   72.31721600
_cell_angle_beta   88.64786743
_cell_angle_gamma   95.76348994
_symmetry_Int_Tables_number   1
_chemical_formula_structural   Li3SiNiO5
_chemical_formula_sum   'Li12 Si4 Ni4 O20'
_cell_volume   329.10411055
_cell_formula_units_Z   4
loop_
 _symmetry_equiv_pos_site_id
 _symmetry_equiv_pos_as_xyz
  1  'x, y, z'
loop_
 _atom_site_type_symbol
 _atom_site_label
 _atom_site_symmetry_multiplicity
 _atom_site_fract_x
 _atom_site_fract_y
 _atom_site_fract_z
 _atom_site_occupancy
  Li  Li0  1  0.62053500  0.86904700  0.00414300  1
  Li  Li1  1  0.12054100  0.36905200  0.00414500  1
  Li  Li2  1  0.37946200  0.13094800  0.99586200  1
  Li  Li3  1  0.87946300  0.63094700  0.99585900  1
  Li  Li4  1  0.42643300  0.87533300  0.40187100  1
  Li  Li5  1  0.92643100  0.37532900  0.40188800  1
  Li  Li6  1  0.57357100  0.12466500  0.59812800  1
  Li  Li7  1  0.07356300  0.62466600  0.59812000  1
  Li  Li8  1  0.17410000  0.12446400  0.40321100  1
  Li  Li9  1  0.67410300  0.62446400  0.40320600  1
  Li  Li10  1  0.82589400  0.87553400  0.59679100  1
  Li  Li11  1  0.32589200  0.37552800  0.59679800  1
  Si  Si0  1  0.53388500  0.37539200  0.22760600  1
  Si  Si1  1  0.03388400  0.87539100  0.22758600  1
  Si  Si2  1  0.46610500  0.62460500  0.77240400  1
  Si  Si3  1  0.96611200  0.12460600  0.77241300  1
  Ni  Ni0  1  0.27801900  0.62516000  0.20630200  1
  Ni  Ni1  1  0.72198200  0.37483400  0.79371600  1
  Ni  Ni2  1  0.77802400  0.12520900  0.20626900  1
  Ni  Ni3  1  0.22196400  0.87480900  0.79369300  1
  O  O0  1  0.75960500  0.88570600  0.28022300  1
  O  O1  1  0.25959400  0.38568600  0.28024100  1
  O  O2  1  0.24040300  0.11430800  0.71976500  1
  O  O3  1  0.74040300  0.61431400  0.71976200  1
  O  O4  1  0.49415800  0.15415600  0.27938300  1
  O  O5  1  0.99414700  0.65414600  0.27939200  1
  O  O6  1  0.50585800  0.84584500  0.72060600  1
  O  O7  1  0.00585100  0.34585100  0.72061500  1
  O  O8  1  0.55445000  0.60205700  0.10201000  1
  O  O9  1  0.05445300  0.10206100  0.10199200  1
  O  O10  1  0.44555100  0.39793900  0.89799500  1
  O  O11  1  0.94556100  0.89794000  0.89799900  1
  O  O12  1  0.61801700  0.37754400  0.47224500  1
  O  O13  1  0.11801600  0.87754500  0.47223000  1
  O  O14  1  0.38197900  0.62244900  0.52776100  1
  O  O15  1  0.88198300  0.12245100  0.52777200  1
  O  O16  1  0.29497000  0.86604800  0.11376200  1
  O  O17  1  0.79497300  0.36607300  0.11375500  1
  O  O18  1  0.70502900  0.13395400  0.88624100  1
  O  O19  1  0.20503300  0.63394200  0.88623900  1
loop_
_geom_bond_atom_site_label_1
_geom_bond_atom_site_label_2
_geom_bond_distance
_geom_bond_site_symmetry_2
Li0 O6 2.057699 1_554
Li0 O0 2.058185 1_555
Li0 O11 2.123553 1_554
Li0 O18 2.133873 1_564
Li0 O8 2.136554 1_555
Li0 O16 2.162401 1_555
Li1 O7 2.057683 1_554
Li1 O1 2.058170 1_555
Li1 O10 2.123471 1_554
Li1 O19 2.133742 1_554
Li1 O9 2.136567 1_555
Li1 O17 2.162432 1_455
Li2 O4 2.057662 1_556
Li2 O2 2.058207 1_555
Li2 O9 2.123430 1_556
Li2 O16 2.133817 1_546
Li2 O10 2.136564 1_555
Li2 O18 2.162406 1_555
Li3 O5 2.057682 1_556
Li3 O3 2.058193 1_555
Li3 O8 2.123488 1_556
Li3 O17 2.133615 1_556
Li3 O11 2.136586 1_555
Li3 O19 2.162439 1_655
Li4 O13 2.000074 1_555
Li4 O14 2.023636 1_555
Li4 O16 2.091576 1_555
Li4 O6 2.095221 1_555
Li4 O0 2.221530 1_555
Li4 O4 2.231098 1_565
Li5 O12 2.000057 1_555
Li5 O15 2.023585 1_555
Li5 O17 2.091641 1_555
Li5 O7 2.095176 1_655
Li5 O1 2.221496 1_655
Li5 O5 2.231049 1_555
Li6 O15 2.000042 1_555
Li6 O12 2.023592 1_555
Li6 O18 2.091596 1_555
Li6 O4 2.095259 1_555
Li6 O2 2.221505 1_555
Li6 O6 2.231067 1_545
Li7 O14 2.000075 1_555
Li7 O13 2.023597 1_555
Li7 O19 2.091634 1_555
Li7 O5 2.095172 1_455
Li7 O3 2.221475 1_455
Li7 O7 2.231031 1_555
Li8 O13 1.982052 1_545
Li8 O15 2.000004 1_455
Li8 O2 2.092802 1_555
Li8 O1 2.108171 1_555
Li8 O4 2.127266 1_555
Li8 O9 2.174779 1_555
Li9 O12 1.982049 1_555
Li9 O14 2.000026 1_555
Li9 O3 2.092822 1_555
Li9 O0 2.108335 1_555
Li9 O5 2.127162 1_555
Li9 O8 2.174664 1_555
Li10 O15 1.982038 1_565
Li10 O13 2.000036 1_655
Li10 O0 2.092839 1_555
Li10 O3 2.108153 1_555
Li10 O6 2.127111 1_555
Li10 O11 2.174766 1_555
Li11 O14 1.982059 1_555
Li11 O12 2.000025 1_555
Li11 O1 2.092810 1_555
Li11 O2 2.108150 1_555
Li11 O7 2.127154 1_555
Li11 O10 2.174694 1_555
Ni0 O5 1.908034 1_455
Ni0 O8 1.913288 1_555
Ni0 O1 1.916449 1_555
Ni0 O16 1.923697 1_555
Ni0 O19 2.127900 1_554
Ni0 O14 2.204885 1_555
Ni1 O7 1.908027 1_655
Ni1 O10 1.913262 1_555
Ni1 O3 1.916493 1_555
Ni1 O18 1.923633 1_555
Ni1 O17 2.127797 1_556
Ni1 O12 2.204972 1_555
Ni2 O4 1.907941 1_555
Ni2 O9 1.913355 1_655
Ni2 O0 1.916681 1_545
Ni2 O17 1.923507 1_555
Ni2 O18 2.127766 1_554
Ni2 O15 2.205058 1_555
Ni3 O6 1.908106 1_555
Ni3 O11 1.913229 1_455
Ni3 O2 1.916654 1_565
Ni3 O19 1.923535 1_555
Ni3 O16 2.128011 1_556
Ni3 O13 2.204833 1_555
O0 Si1 1.779398 1_655
O1 Si0 1.779434 1_555
O2 Si3 1.779457 1_455
O3 Si2 1.779481 1_555
O4 Si0 1.780012 1_555
O5 Si1 1.780063 1_655
O6 Si2 1.780032 1_555
O7 Si3 1.780070 1_455
O8 Si0 1.823876 1_555
O8 Si2 2.189280 1_554
O9 Si1 1.823912 1_545
O9 Si3 2.189108 1_454
O10 Si2 1.823883 1_555
O10 Si0 2.189293 1_556
O11 Si3 1.823880 1_565
O11 Si1 2.189119 1_656
O12 Si0 1.697525 1_555
O13 Si1 1.697560 1_555
O14 Si2 1.697546 1_555
O15 Si3 1.697537 1_555
O16 Si1 1.815814 1_555
O17 Si0 1.815843 1_555
O18 Si3 1.815818 1_555
O19 Si2 1.815749 1_555
