# generated using pymatgen
data_Ba2YBr7
_symmetry_space_group_name_H-M   'P 1'
_cell_length_a   13.40985600
_cell_length_b   8.62369700
_cell_length_c   16.40513520
_cell_angle_alpha   60.94106466
_cell_angle_beta   90.00000000
_cell_angle_gamma   90.00000000
_symmetry_Int_Tables_number   1
_chemical_formula_structural   Ba2YBr7
_chemical_formula_sum   'Ba8 Y4 Br28'
_cell_volume   1658.32158370
_cell_formula_units_Z   4
loop_
 _symmetry_equiv_pos_site_id
 _symmetry_equiv_pos_as_xyz
  1  'x, y, z'
loop_
 _atom_site_type_symbol
 _atom_site_label
 _atom_site_symmetry_multiplicity
 _atom_site_fract_x
 _atom_site_fract_y
 _atom_site_fract_z
 _atom_site_occupancy
  Ba  Ba0  1  0.23705400  0.80888100  0.47681500  1
  Ba  Ba1  1  0.36393700  0.41381900  0.78305500  1
  Ba  Ba2  1  0.86393700  0.58618100  0.71694500  1
  Ba  Ba3  1  0.26294600  0.80888100  0.97681500  1
  Ba  Ba4  1  0.73705400  0.19111900  0.02318500  1
  Ba  Ba5  1  0.13606300  0.41381900  0.28305500  1
  Ba  Ba6  1  0.63606300  0.58618100  0.21694500  1
  Ba  Ba7  1  0.76294600  0.19111900  0.52318500  1
  Y  Y0  1  0.70106500  0.95033100  0.32301800  1
  Y  Y1  1  0.79893500  0.95033100  0.82301800  1
  Y  Y2  1  0.20106500  0.04966900  0.17698200  1
  Y  Y3  1  0.29893500  0.04966900  0.67698200  1
  Br  Br0  1  0.55926200  0.98563800  0.18765300  1
  Br  Br1  1  0.82671600  0.85134700  0.21933500  1
  Br  Br2  1  0.27068200  0.70429700  0.31296400  1
  Br  Br3  1  0.40948500  0.84153200  0.61590300  1
  Br  Br4  1  0.94073800  0.98563800  0.68765300  1
  Br  Br5  1  0.08426300  0.60952000  0.63910400  1
  Br  Br6  1  0.81617800  0.85172900  0.48671700  1
  Br  Br7  1  0.36680100  0.40947700  0.58240900  1
  Br  Br8  1  0.67328400  0.85134700  0.71933500  1
  Br  Br9  1  0.22931800  0.70429700  0.81296400  1
  Br  Br10  1  0.86680100  0.59052300  0.91759100  1
  Br  Br11  1  0.31617800  0.14827100  0.01328300  1
  Br  Br12  1  0.58426300  0.39048000  0.86089600  1
  Br  Br13  1  0.09051500  0.84153200  0.11590300  1
  Br  Br14  1  0.90948500  0.15846800  0.88409700  1
  Br  Br15  1  0.41573700  0.60952000  0.13910400  1
  Br  Br16  1  0.68382200  0.85172900  0.98671700  1
  Br  Br17  1  0.13319900  0.40947700  0.08240900  1
  Br  Br18  1  0.77068200  0.29570300  0.18703600  1
  Br  Br19  1  0.32671600  0.14865300  0.28066500  1
  Br  Br20  1  0.63319900  0.59052300  0.41759100  1
  Br  Br21  1  0.18382200  0.14827100  0.51328300  1
  Br  Br22  1  0.91573700  0.39048000  0.36089600  1
  Br  Br23  1  0.05926200  0.01436200  0.31234700  1
  Br  Br24  1  0.59051500  0.15846800  0.38409700  1
  Br  Br25  1  0.72931800  0.29570300  0.68703600  1
  Br  Br26  1  0.17328400  0.14865300  0.78066500  1
  Br  Br27  1  0.44073800  0.01436200  0.81234700  1
loop_
_geom_bond_atom_site_label_1
_geom_bond_atom_site_label_2
_geom_bond_distance
_geom_bond_site_symmetry_2
Ba0 Br5 3.129790 1_555
Ba0 Br2 3.255323 1_555
Ba0 Br21 3.336849 1_565
Ba0 Br19 3.350613 1_565
Ba0 Br3 3.355061 1_555
Ba0 Br23 3.385213 1_565
Ba0 Br7 3.477852 1_555
Ba1 Br12 3.186040 1_555
Ba1 Br7 3.310196 1_555
Ba1 Br9 3.311879 1_555
Ba1 Br11 3.393739 1_556
Ba1 Br27 3.398554 1_555
Ba1 Br3 3.416431 1_555
Ba1 Br26 3.442969 1_555
Ba2 Br5 3.186040 1_655
Ba2 Br10 3.310196 1_555
Ba2 Br25 3.311879 1_555
Ba2 Br6 3.393739 1_555
Ba2 Br4 3.398554 1_555
Ba2 Br14 3.416431 1_555
Ba2 Br8 3.442969 1_555
Ba3 Br15 3.129790 1_556
Ba3 Br9 3.255323 1_555
Ba3 Br11 3.336849 1_566
Ba3 Br26 3.350613 1_565
Ba3 Br13 3.355061 1_556
Ba3 Br27 3.385213 1_565
Ba3 Br17 3.477852 1_556
Ba4 Br12 3.129790 1_554
Ba4 Br18 3.255323 1_555
Ba4 Br16 3.336849 1_544
Ba4 Br1 3.350613 1_545
Ba4 Br14 3.355061 1_554
Ba4 Br0 3.385213 1_545
Ba4 Br10 3.477852 1_554
Ba5 Br22 3.186040 1_455
Ba5 Br17 3.310196 1_555
Ba5 Br2 3.311879 1_555
Ba5 Br21 3.393739 1_555
Ba5 Br23 3.398554 1_555
Ba5 Br13 3.416431 1_555
Ba5 Br19 3.442969 1_555
Ba6 Br15 3.186040 1_555
Ba6 Br20 3.310196 1_555
Ba6 Br18 3.311879 1_555
Ba6 Br16 3.393739 1_554
Ba6 Br0 3.398554 1_555
Ba6 Br24 3.416431 1_555
Ba6 Br1 3.442969 1_555
Ba7 Br22 3.129790 1_555
Ba7 Br25 3.255323 1_555
Ba7 Br6 3.336849 1_545
Ba7 Br8 3.350613 1_545
Ba7 Br24 3.355061 1_555
Ba7 Br4 3.385213 1_545
Ba7 Br20 3.477852 1_555
Br0 Y0 2.825461 1_555
Br1 Y0 2.805593 1_555
Br2 Y2 2.874803 1_565
Br3 Y3 2.858413 1_565
Br4 Y1 2.825461 1_555
Br6 Y0 2.845973 1_555
Br7 Y3 2.861242 1_555
Br8 Y1 2.805593 1_555
Br9 Y3 2.874803 1_565
Br10 Y1 2.861242 1_555
Br11 Y2 2.845973 1_555
Br13 Y2 2.858413 1_565
Br14 Y1 2.858413 1_545
Br16 Y1 2.845973 1_555
Br17 Y2 2.861242 1_555
Br18 Y0 2.874803 1_545
Br19 Y2 2.805593 1_555
Br20 Y0 2.861242 1_555
Br21 Y3 2.845973 1_555
Br23 Y2 2.825461 1_555
Br24 Y0 2.858413 1_545
Br25 Y1 2.874803 1_545
Br26 Y3 2.805593 1_555
Br27 Y3 2.825461 1_555
