# generated using pymatgen
data_FePO4
_symmetry_space_group_name_H-M   'P 1'
_cell_length_a   5.23831500
_cell_length_b   10.42315300
_cell_length_c   14.31537900
_cell_angle_alpha   90.00000000
_cell_angle_beta   90.00000000
_cell_angle_gamma   90.00000000
_symmetry_Int_Tables_number   1
_chemical_formula_structural   FePO4
_chemical_formula_sum   'Fe8 P8 O32'
_cell_volume   781.61623920
_cell_formula_units_Z   8
loop_
 _symmetry_equiv_pos_site_id
 _symmetry_equiv_pos_as_xyz
  1  'x, y, z'
loop_
 _atom_site_type_symbol
 _atom_site_label
 _atom_site_symmetry_multiplicity
 _atom_site_fract_x
 _atom_site_fract_y
 _atom_site_fract_z
 _atom_site_occupancy
  Fe  Fe0  1  0.06859500  0.03732300  0.24728500  1
  Fe  Fe1  1  0.55344500  0.22006800  0.99920100  1
  Fe  Fe2  1  0.55344500  0.27993200  0.49920100  1
  Fe  Fe3  1  0.06859500  0.46267700  0.74728500  1
  Fe  Fe4  1  0.93140500  0.53732300  0.24728500  1
  Fe  Fe5  1  0.44655500  0.72006800  0.99920100  1
  Fe  Fe6  1  0.44655500  0.77993200  0.49920100  1
  Fe  Fe7  1  0.93140500  0.96267700  0.74728500  1
  P  P0  1  0.42798300  0.03065500  0.62435300  1
  P  P1  1  0.05366700  0.21204500  0.87196200  1
  P  P2  1  0.05366700  0.28795500  0.37196200  1
  P  P3  1  0.42798300  0.46934500  0.12435300  1
  P  P4  1  0.57201700  0.53065500  0.62435300  1
  P  P5  1  0.94633300  0.71204500  0.87196200  1
  P  P6  1  0.94633300  0.78795500  0.37196200  1
  P  P7  1  0.57201700  0.96934500  0.12435300  1
  O  O0  1  0.85758500  0.99214400  0.14620900  1
  O  O1  1  0.49889300  0.04854100  0.03669800  1
  O  O2  1  0.41119700  0.01075100  0.20989400  1
  O  O3  1  0.00951500  0.06858200  0.85014700  1
  O  O4  1  0.47308100  0.17418900  0.60236800  1
  O  O5  1  0.89106300  0.25095400  0.45837800  1
  O  O6  1  0.98285900  0.20635400  0.28532800  1
  O  O7  1  0.33789700  0.23808100  0.89483400  1
  O  O8  1  0.33789700  0.26191900  0.39483400  1
  O  O9  1  0.98285900  0.29364600  0.78532800  1
  O  O10  1  0.89106300  0.24904600  0.95837800  1
  O  O11  1  0.47308100  0.32581100  0.10236800  1
  O  O12  1  0.00951500  0.43141800  0.35014700  1
  O  O13  1  0.41119700  0.48924900  0.70989400  1
  O  O14  1  0.49889300  0.45145900  0.53669800  1
  O  O15  1  0.85758500  0.50785600  0.64620900  1
  O  O16  1  0.14241500  0.49214400  0.14620900  1
  O  O17  1  0.50110700  0.54854100  0.03669800  1
  O  O18  1  0.58880300  0.51075100  0.20989400  1
  O  O19  1  0.99048500  0.56858200  0.85014700  1
  O  O20  1  0.52691900  0.67418900  0.60236800  1
  O  O21  1  0.10893700  0.75095400  0.45837800  1
  O  O22  1  0.01714100  0.70635400  0.28532800  1
  O  O23  1  0.66210300  0.73808100  0.89483400  1
  O  O24  1  0.66210300  0.76191900  0.39483400  1
  O  O25  1  0.01714100  0.79364600  0.78532800  1
  O  O26  1  0.10893700  0.74904600  0.95837800  1
  O  O27  1  0.52691900  0.82581100  0.10236800  1
  O  O28  1  0.99048500  0.93141800  0.35014700  1
  O  O29  1  0.58880300  0.98924900  0.70989400  1
  O  O30  1  0.50110700  0.95145900  0.53669800  1
  O  O31  1  0.14241500  0.00785600  0.64620900  1
loop_
_geom_bond_atom_site_label_1
_geom_bond_atom_site_label_2
_geom_bond_distance
_geom_bond_site_symmetry_2
Fe0 O0 1.880735 1_445
Fe0 O28 1.885262 1_445
Fe0 O2 1.893149 1_555
Fe0 O6 1.897988 1_455
Fe1 O7 1.882108 1_555
Fe1 O10 1.886933 1_555
Fe1 O1 1.888441 1_556
Fe1 O11 1.890282 1_556
Fe2 O8 1.882108 1_555
Fe2 O5 1.886933 1_555
Fe2 O14 1.888441 1_555
Fe2 O4 1.890282 1_555
Fe3 O15 1.880735 1_455
Fe3 O19 1.885262 1_455
Fe3 O13 1.893149 1_555
Fe3 O9 1.897988 1_455
Fe4 O16 1.880735 1_655
Fe4 O12 1.885262 1_655
Fe4 O18 1.893149 1_555
Fe4 O22 1.897988 1_655
Fe5 O23 1.882108 1_555
Fe5 O26 1.886933 1_555
Fe5 O17 1.888441 1_556
Fe5 O27 1.890282 1_556
Fe6 O24 1.882108 1_555
Fe6 O21 1.886933 1_555
Fe6 O30 1.888441 1_555
Fe6 O20 1.890282 1_555
Fe7 O31 1.880735 1_665
Fe7 O3 1.885262 1_665
Fe7 O29 1.893149 1_555
Fe7 O25 1.897988 1_655
O0 P7 1.546630 1_555
O1 P7 1.550061 1_545
O2 P7 1.547731 1_545
O3 P1 1.545008 1_555
O4 P0 1.546966 1_555
O5 P2 1.550682 1_655
O6 P2 1.548899 1_655
O7 P1 1.548429 1_555
O8 P2 1.548429 1_555
O9 P1 1.548899 1_655
O10 P1 1.550682 1_655
O11 P3 1.546966 1_555
O12 P2 1.545008 1_555
O13 P4 1.547731 1_555
O14 P4 1.550061 1_555
O15 P4 1.546630 1_555
O16 P3 1.546630 1_555
O17 P3 1.550061 1_555
O18 P3 1.547731 1_555
O19 P5 1.545008 1_555
O20 P4 1.546966 1_555
O21 P6 1.550682 1_455
O22 P6 1.548899 1_455
O23 P5 1.548429 1_555
O24 P6 1.548429 1_555
O25 P5 1.548899 1_455
O26 P5 1.550682 1_455
O27 P7 1.546966 1_555
O28 P6 1.545008 1_555
O29 P0 1.547731 1_565
O30 P0 1.550061 1_565
O31 P0 1.546630 1_555
