# generated using pymatgen
data_Li3FeNi3O8
_symmetry_space_group_name_H-M   'P 1'
_cell_length_a   5.88074364
_cell_length_b   5.88074364
_cell_length_c   5.88074381
_cell_angle_alpha   59.30444445
_cell_angle_beta   59.30444445
_cell_angle_gamma   59.30444940
_symmetry_Int_Tables_number   1
_chemical_formula_structural   Li3FeNi3O8
_chemical_formula_sum   'Li3 Fe1 Ni3 O8'
_cell_volume   141.53003496
_cell_formula_units_Z   1
loop_
 _symmetry_equiv_pos_site_id
 _symmetry_equiv_pos_as_xyz
  1  'x, y, z'
loop_
 _atom_site_type_symbol
 _atom_site_label
 _atom_site_symmetry_multiplicity
 _atom_site_fract_x
 _atom_site_fract_y
 _atom_site_fract_z
 _atom_site_occupancy
  Li  Li0  1  0.00000000  0.00000000  0.50000000  1
  Li  Li1  1  0.50000000  0.00000000  0.00000000  1
  Li  Li2  1  0.00000000  0.50000000  0.00000000  1
  Fe  Fe0  1  0.00000000  0.00000000  0.00000000  1
  Ni  Ni0  1  0.50000000  0.50000000  0.00000000  1
  Ni  Ni1  1  0.00000000  0.50000000  0.50000000  1
  Ni  Ni2  1  0.50000000  0.00000000  0.50000000  1
  O  O0  1  0.26159300  0.26159300  0.26159300  1
  O  O1  1  0.77223700  0.77223700  0.23669000  1
  O  O2  1  0.23669000  0.77223700  0.77223700  1
  O  O3  1  0.73840700  0.73840700  0.73840700  1
  O  O4  1  0.77223700  0.23669000  0.77223700  1
  O  O5  1  0.22776300  0.22776300  0.76331000  1
  O  O6  1  0.76331000  0.22776300  0.22776300  1
  O  O7  1  0.22776300  0.76331000  0.22776300  1
loop_
_geom_bond_atom_site_label_1
_geom_bond_atom_site_label_2
_geom_bond_distance
_geom_bond_site_symmetry_2
Li0 O7 2.115871 1_545
Li0 O4 2.115871 1_455
Li0 O2 2.115871 1_545
Li0 O6 2.115871 1_455
Li0 O3 2.170462 1_445
Li0 O0 2.170462 1_555
Li1 O7 2.115871 1_545
Li1 O4 2.115871 1_554
Li1 O5 2.115871 1_554
Li1 O1 2.115871 1_545
Li1 O3 2.170463 1_544
Li1 O0 2.170463 1_555
Li2 O6 2.115871 1_455
Li2 O2 2.115871 1_554
Li2 O1 2.115871 1_455
Li2 O5 2.115871 1_554
Li2 O3 2.170463 1_454
Li2 O0 2.170463 1_555
Fe0 O5 1.884221 1_554
Fe0 O1 1.884221 1_445
Fe0 O6 1.884221 1_455
Fe0 O7 1.884221 1_545
Fe0 O2 1.884221 1_544
Fe0 O4 1.884221 1_454
Ni0 O0 1.975009 1_555
Ni0 O3 1.975009 1_554
Ni0 O2 2.037664 1_554
Ni0 O7 2.037664 1_555
Ni0 O4 2.037664 1_554
Ni0 O6 2.037664 1_555
Ni1 O0 1.975010 1_555
Ni1 O3 1.975010 1_455
Ni1 O4 2.037664 1_455
Ni1 O7 2.037664 1_555
Ni1 O5 2.037664 1_555
Ni1 O1 2.037664 1_455
Ni2 O0 1.975010 1_555
Ni2 O3 1.975010 1_545
Ni2 O6 2.037664 1_555
Ni2 O2 2.037664 1_545
Ni2 O5 2.037664 1_555
Ni2 O1 2.037664 1_545
