# generated using pymatgen
data_La2Hf2O7
_symmetry_space_group_name_H-M   'P 1'
_cell_length_a   5.74534100
_cell_length_b   8.08763100
_cell_length_c   13.81552522
_cell_angle_alpha   81.53521192
_cell_angle_beta   90.00000000
_cell_angle_gamma   90.00000000
_symmetry_Int_Tables_number   1
_chemical_formula_structural   La2Hf2O7
_chemical_formula_sum   'La8 Hf8 O28'
_cell_volume   634.96180348
_cell_formula_units_Z   4
loop_
 _symmetry_equiv_pos_site_id
 _symmetry_equiv_pos_as_xyz
  1  'x, y, z'
loop_
 _atom_site_type_symbol
 _atom_site_label
 _atom_site_symmetry_multiplicity
 _atom_site_fract_x
 _atom_site_fract_y
 _atom_site_fract_z
 _atom_site_occupancy
  La  La0  1  0.76106000  0.77212300  0.90435200  1
  La  La1  1  0.33209700  0.85649600  0.56860300  1
  La  La2  1  0.25215700  0.71784500  0.12230700  1
  La  La3  1  0.77439700  0.64421800  0.40088000  1
  La  La4  1  0.27439700  0.35578200  0.59912000  1
  La  La5  1  0.75215700  0.28215500  0.87769300  1
  La  La6  1  0.83209700  0.14350400  0.43139700  1
  La  La7  1  0.26106000  0.22787700  0.09564800  1
  Hf  Hf0  1  0.27584800  0.92344100  0.31749900  1
  Hf  Hf1  1  0.76623600  0.96986500  0.11416300  1
  Hf  Hf2  1  0.78414100  0.58386800  0.67853200  1
  Hf  Hf3  1  0.26678000  0.52691500  0.88374600  1
  Hf  Hf4  1  0.76678000  0.47308500  0.11625400  1
  Hf  Hf5  1  0.28414100  0.41613200  0.32146800  1
  Hf  Hf6  1  0.26623600  0.03013500  0.88583700  1
  Hf  Hf7  1  0.77584800  0.07655900  0.68250100  1
  O  O0  1  0.44753700  0.98162600  0.17919500  1
  O  O1  1  0.55070700  0.91418400  0.41155300  1
  O  O2  1  0.69269800  0.82452800  0.69896300  1
  O  O3  1  0.33646500  0.77642700  0.89288500  1
  O  O4  1  0.05731000  0.87421400  0.43157600  1
  O  O5  1  0.05133300  0.95299900  0.01946500  1
  O  O6  1  0.97828200  0.88178000  0.22506700  1
  O  O7  1  0.08221200  0.62026200  0.60616200  1
  O  O8  1  0.94514600  0.56966100  0.82125200  1
  O  O9  1  0.36244400  0.67423000  0.30253900  1
  O  O10  1  0.67744800  0.72880300  0.08410800  1
  O  O11  1  0.57522100  0.59494300  0.55814700  1
  O  O12  1  0.55001500  0.46330000  0.98018700  1
  O  O13  1  0.47880900  0.49454600  0.77306300  1
  O  O14  1  0.97880900  0.50545400  0.22693700  1
  O  O15  1  0.05001500  0.53670000  0.01981300  1
  O  O16  1  0.07522100  0.40505700  0.44185300  1
  O  O17  1  0.17744800  0.27119700  0.91589200  1
  O  O18  1  0.86244400  0.32577000  0.69746100  1
  O  O19  1  0.44514600  0.43033900  0.17874800  1
  O  O20  1  0.58221200  0.37973800  0.39383800  1
  O  O21  1  0.47828200  0.11822000  0.77493300  1
  O  O22  1  0.55133300  0.04700100  0.98053500  1
  O  O23  1  0.55731000  0.12578600  0.56842400  1
  O  O24  1  0.83646500  0.22357300  0.10711500  1
  O  O25  1  0.19269800  0.17547200  0.30103700  1
  O  O26  1  0.05070700  0.08581600  0.58844700  1
  O  O27  1  0.94753700  0.01837400  0.82080500  1
loop_
_geom_bond_atom_site_label_1
_geom_bond_atom_site_label_2
_geom_bond_distance
_geom_bond_site_symmetry_2
La0 O8 2.381451 1_555
La0 O27 2.402036 1_565
La0 O3 2.444498 1_555
La0 O10 2.502949 1_556
La0 O2 2.834001 1_555
La0 O15 2.834027 1_656
La0 O12 2.834738 1_555
La0 O5 2.852254 1_656
La0 O22 2.861952 1_565
La1 O7 2.385128 1_555
La1 O4 2.452944 1_555
La1 O1 2.490960 1_555
La1 O26 2.505646 1_565
La1 O23 2.532981 1_565
La1 O11 2.556686 1_555
La1 O2 2.732323 1_555
La2 O15 2.472031 1_555
La2 O5 2.484239 1_555
La2 O10 2.498600 1_555
La2 O9 2.543116 1_555
La2 O19 2.590444 1_555
La2 O14 2.602987 1_455
La2 O6 2.608340 1_455
La2 O0 2.631088 1_555
La3 O20 2.421840 1_555
La3 O11 2.436009 1_555
La3 O4 2.552287 1_655
La3 O1 2.556437 1_555
La3 O16 2.593557 1_655
La3 O9 2.722040 1_555
La3 O14 3.034418 1_555
La3 O6 3.096688 1_555
La4 O7 2.421840 1_555
La4 O16 2.436009 1_555
La4 O23 2.552287 1_555
La4 O26 2.556437 1_555
La4 O11 2.593557 1_555
La4 O18 2.722040 1_455
La4 O13 3.034418 1_555
La4 O21 3.096688 1_555
La5 O12 2.472031 1_555
La5 O22 2.484239 1_555
La5 O17 2.498600 1_655
La5 O18 2.543116 1_555
La5 O8 2.590444 1_555
La5 O13 2.602987 1_555
La5 O21 2.608340 1_555
La5 O27 2.631088 1_555
La6 O20 2.385128 1_555
La6 O23 2.452944 1_555
La6 O26 2.490960 1_655
La6 O1 2.505646 1_545
La6 O4 2.532981 1_645
La6 O16 2.556686 1_655
La6 O25 2.732323 1_655
La7 O19 2.381451 1_555
La7 O0 2.402036 1_545
La7 O24 2.444498 1_455
La7 O17 2.502949 1_554
La7 O25 2.834001 1_555
La7 O12 2.834027 1_554
La7 O15 2.834738 1_555
La7 O22 2.852254 1_554
La7 O5 2.861952 1_545
Hf0 O4 2.008515 1_555
Hf0 O1 2.039402 1_555
Hf0 O25 2.073227 1_565
Hf0 O9 2.115475 1_555
Hf0 O0 2.140251 1_555
Hf0 O6 2.189455 1_455
Hf1 O6 2.004492 1_555
Hf1 O0 2.047952 1_555
Hf1 O24 2.079362 1_565
Hf1 O5 2.113239 1_655
Hf1 O10 2.114706 1_555
Hf1 O22 2.232222 1_564
Hf2 O7 1.983023 1_655
Hf2 O11 2.042327 1_555
Hf2 O2 2.075038 1_555
Hf2 O18 2.113602 1_555
Hf2 O8 2.165638 1_555
Hf2 O13 2.242115 1_555
Hf3 O13 2.002156 1_555
Hf3 O8 2.047390 1_455
Hf3 O3 2.079281 1_555
Hf3 O17 2.113647 1_555
Hf3 O12 2.118061 1_555
Hf3 O15 2.266019 1_556
Hf4 O14 2.002156 1_555
Hf4 O19 2.047390 1_555
Hf4 O24 2.079281 1_555
Hf4 O10 2.113647 1_555
Hf4 O15 2.118061 1_655
Hf4 O12 2.266019 1_554
Hf5 O20 1.983023 1_555
Hf5 O16 2.042327 1_555
Hf5 O25 2.075038 1_555
Hf5 O9 2.113602 1_555
Hf5 O19 2.165638 1_555
Hf5 O14 2.242115 1_455
Hf6 O21 2.004492 1_555
Hf6 O27 2.047952 1_455
Hf6 O3 2.079362 1_545
Hf6 O22 2.113239 1_555
Hf6 O17 2.114706 1_555
Hf6 O5 2.232222 1_546
Hf7 O23 2.008515 1_555
Hf7 O26 2.039402 1_655
Hf7 O2 2.073227 1_545
Hf7 O18 2.115475 1_555
Hf7 O27 2.140251 1_555
Hf7 O21 2.189455 1_555
