# generated using pymatgen
data_MnH6(OF)3
_symmetry_space_group_name_H-M   'P 1'
_cell_length_a   8.31042035
_cell_length_b   9.40464171
_cell_length_c   6.27084076
_cell_angle_alpha   89.99840324
_cell_angle_beta   97.13980900
_cell_angle_gamma   89.99834797
_symmetry_Int_Tables_number   1
_chemical_formula_structural   MnH6(OF)3
_chemical_formula_sum   'Mn4 H24 O12 F12'
_cell_volume   486.30674901
_cell_formula_units_Z   4
loop_
 _symmetry_equiv_pos_site_id
 _symmetry_equiv_pos_as_xyz
  1  'x, y, z'
loop_
 _atom_site_type_symbol
 _atom_site_label
 _atom_site_symmetry_multiplicity
 _atom_site_fract_x
 _atom_site_fract_y
 _atom_site_fract_z
 _atom_site_occupancy
  Mn  Mn0  1  0.50000000  0.50000000  0.50000000  1
  Mn  Mn1  1  0.50000000  -0.00000000  0.00000000  1
  Mn  Mn2  1  0.00000000  0.50000000  0.00000000  1
  Mn  Mn3  1  0.00000000  -0.00000000  0.50000000  1
  H  H0  1  0.55675047  0.22246357  0.66070052  1
  H  H1  1  0.44325286  0.72247373  0.83928384  1
  H  H2  1  0.44324953  0.77753643  0.33929948  1
  H  H3  1  0.55674714  0.27752627  0.16071616  1
  H  H4  1  0.71280581  0.31647804  0.71412823  1
  H  H5  1  0.28720513  0.81649642  0.78587370  1
  H  H6  1  0.28719419  0.68352196  0.28587177  1
  H  H7  1  0.71279487  0.18350358  0.21412630  1
  H  H8  1  0.12792748  0.41148822  0.39408592  1
  H  H9  1  0.87207376  0.91150605  0.10591825  1
  H  H10  1  0.87207252  0.58851178  0.60591408  1
  H  H11  1  0.12792624  0.08849395  0.89408175  1
  H  H12  1  0.98656246  0.30169115  0.31727265  1
  H  H13  1  0.01342414  0.80169444  0.18270889  1
  H  H14  1  0.01343754  0.69830885  0.68272735  1
  H  H15  1  0.98657586  0.19830556  0.81729111  1
  H  H16  1  0.24667281  0.42876222  0.79125013  1
  H  H17  1  0.75333657  0.92876903  0.70874846  1
  H  H18  1  0.75332719  0.57123778  0.20874987  1
  H  H19  1  0.24666343  0.07123097  0.29125154  1
  H  H20  1  0.30776410  0.42175020  0.04374169  1
  H  H21  1  0.69224538  0.92174995  0.45626155  1
  H  H22  1  0.69223590  0.57824980  0.95625831  1
  H  H23  1  0.30775462  0.07825005  0.54373845  1
  O  O0  1  0.61618390  0.30329783  0.61065011  1
  O  O1  1  0.38382805  0.80330773  0.88934891  1
  O  O2  1  0.38381610  0.69670217  0.38934889  1
  O  O3  1  0.61617195  0.19669227  0.11065109  1
  O  O4  1  0.02770173  0.39742691  0.29542014  1
  O  O5  1  0.97230253  0.89743530  0.20457410  1
  O  O6  1  0.97229827  0.60257309  0.70457986  1
  O  O7  1  0.02769747  0.10256470  0.79542590  1
  O  O8  1  0.21223620  0.41306589  0.93435701  1
  O  O9  1  0.78777458  0.91306925  0.56564651  1
  O  O10  1  0.78776380  0.58693411  0.06564299  1
  O  O11  1  0.21222542  0.08693075  0.43435349  1
  F  F0  1  0.29695990  0.43637766  0.55293394  1
  F  F1  1  0.70302813  0.93637871  0.94707079  1
  F  F2  1  0.70304010  0.56362234  0.44706606  1
  F  F3  1  0.29697187  0.06362129  0.05292921  1
  F  F4  1  0.53745300  0.57429223  0.77712727  1
  F  F5  1  0.46254344  0.07429009  0.72286573  1
  F  F6  1  0.46254700  0.42570777  0.22287273  1
  F  F7  1  0.53745656  0.92570991  0.27713427  1
  F  F8  1  0.89330999  0.34955401  0.86663547  1
  F  F9  1  0.10670007  0.84955356  0.63337786  1
  F  F10  1  0.10669001  0.65044599  0.13336453  1
  F  F11  1  0.89329993  0.15044644  0.36662214  1
loop_
_geom_bond_atom_site_label_1
_geom_bond_atom_site_label_2
_geom_bond_distance
_geom_bond_site_symmetry_2
Mn0 O0 2.160829 1_555
Mn0 O2 2.160831 1_555
Mn1 O1 2.160791 1_544
Mn1 O3 2.160791 1_555
Mn2 O8 2.032042 1_554
Mn2 O10 2.032042 1_455
Mn2 O4 2.075891 1_555
Mn2 O6 2.075891 1_454
Mn3 O9 2.031988 1_445
Mn3 O11 2.031988 1_555
Mn3 O5 2.075940 1_445
Mn3 O7 2.075940 1_555
H0 O0 0.979252 1_555
H1 O1 0.979238 1_555
H2 O2 0.979250 1_555
H3 O3 0.979238 1_555
H4 O0 0.975539 1_555
H5 O1 0.975535 1_555
H6 O2 0.975536 1_555
H7 O3 0.975535 1_555
H8 O4 0.982832 1_555
H9 O5 0.982819 1_555
H10 O6 0.982832 1_555
H11 O7 0.982819 1_555
H12 O4 0.978759 1_655
H13 O5 0.978753 1_455
H14 O6 0.978759 1_455
H15 O7 0.978753 1_655
H16 O8 0.986334 1_555
H17 O9 0.986320 1_555
H18 O10 0.986334 1_555
H19 O11 0.986320 1_555
H20 O8 0.985930 1_554
H21 O9 0.985929 1_555
H22 O10 0.985930 1_556
H23 O11 0.985929 1_555
F0 H16 1.602617 1_555
F0 H8 1.634777 1_555
F0 Mn0 1.858662 1_555
F1 H17 1.602721 1_555
F1 H9 1.634819 1_556
F1 Mn1 1.858532 1_566
F2 H18 1.602617 1_555
F2 H10 1.634777 1_555
F2 Mn0 1.858662 1_555
F3 H19 1.602721 1_555
F3 H11 1.634819 1_554
F3 Mn1 1.858532 1_555
F4 H22 1.599567 1_555
F4 H1 1.668139 1_555
F4 Mn0 1.862979 1_555
F5 H23 1.599585 1_555
F5 H0 1.668140 1_555
F5 Mn1 1.862970 1_556
F6 H20 1.599567 1_555
F6 H3 1.668139 1_555
F6 Mn0 1.862979 1_555
F7 H21 1.599585 1_555
F7 H2 1.668140 1_555
F7 Mn1 1.862970 1_565
F8 Mn2 1.817490 1_656
F9 Mn3 1.817486 1_565
F10 Mn2 1.817490 1_555
F11 Mn3 1.817486 1_655
