# generated using pymatgen
data_Li4Fe3Ni3(SnO8)2
_symmetry_space_group_name_H-M   'P 1'
_cell_length_a   5.94027537
_cell_length_b   5.87731667
_cell_length_c   9.69145955
_cell_angle_alpha   89.84945154
_cell_angle_beta   90.70635459
_cell_angle_gamma   119.73295882
_symmetry_Int_Tables_number   1
_chemical_formula_structural   Li4Fe3Ni3(SnO8)2
_chemical_formula_sum   'Li4 Fe3 Ni3 Sn2 O16'
_cell_volume   293.78616569
_cell_formula_units_Z   1
loop_
 _symmetry_equiv_pos_site_id
 _symmetry_equiv_pos_as_xyz
  1  'x, y, z'
loop_
 _atom_site_type_symbol
 _atom_site_label
 _atom_site_symmetry_multiplicity
 _atom_site_fract_x
 _atom_site_fract_y
 _atom_site_fract_z
 _atom_site_occupancy
  Li  Li0  1  0.32706400  0.66308700  0.89259400  1
  Li  Li1  1  0.99684200  0.99786900  0.99270000  1
  Li  Li2  1  0.00044900  0.00049700  0.49548000  1
  Li  Li3  1  0.67031500  0.33590500  0.39574900  1
  Fe  Fe0  1  0.16853400  0.82918600  0.21414700  1
  Fe  Fe1  1  0.16885600  0.33873900  0.21422700  1
  Fe  Fe2  1  0.33851200  0.16900200  0.71479400  1
  Ni  Ni0  1  0.65985200  0.83093100  0.21436700  1
  Ni  Ni1  1  0.82848100  0.66091300  0.71395100  1
  Ni  Ni2  1  0.82779500  0.16785200  0.71396900  1
  Sn  Sn0  1  0.33994500  0.67198000  0.49189400  1
  Sn  Sn1  1  0.66254300  0.32978300  0.99032600  1
  O  O0  1  0.16909000  0.84450100  0.60070300  1
  O  O1  1  0.03455200  0.51790400  0.34144400  1
  O  O2  1  0.32943500  0.66752400  0.10662600  1
  O  O3  1  0.99946300  0.99612500  0.30727500  1
  O  O4  1  0.99220600  0.99696800  0.80413800  1
  O  O5  1  0.17287100  0.32636400  0.59904100  1
  O  O6  1  0.48547500  0.96969500  0.34054600  1
  O  O7  1  0.49492000  0.52882900  0.33922700  1
  O  O8  1  0.32115700  0.15979100  0.10025800  1
  O  O9  1  0.69087200  0.84820700  0.60211400  1
  O  O10  1  0.50940400  0.48007200  0.84004000  1
  O  O11  1  0.50638400  0.02868300  0.83993200  1
  O  O12  1  0.67263200  0.33626500  0.61163900  1
  O  O13  1  0.84128300  0.67659500  0.09812400  1
  O  O14  1  0.95750200  0.47558100  0.83359900  1
  O  O15  1  0.83356500  0.15145200  0.09893700  1
loop_
_geom_bond_atom_site_label_1
_geom_bond_atom_site_label_2
_geom_bond_distance
_geom_bond_site_symmetry_2
Li0 O11 1.936354 1_565
Li0 O10 1.939526 1_555
Li0 O14 1.983265 1_455
Li0 O2 2.074301 1_556
Li1 O4 1.827291 1_555
Li1 O15 1.927043 1_566
Li1 O13 1.935355 1_556
Li1 O8 1.959809 1_666
Li2 O3 1.824126 1_445
Li2 O9 1.913181 1_445
Li2 O5 1.939959 1_555
Li2 O0 1.940361 1_545
Li3 O6 1.942105 1_545
Li3 O7 1.955959 1_555
Li3 O1 1.957564 1_655
Li3 O12 2.092165 1_555
Fe0 O3 1.946886 1_455
Fe0 O2 1.957730 1_555
Fe0 O13 2.017358 1_455
Fe0 O1 2.017562 1_555
Fe0 O8 2.020337 1_565
Fe0 O6 2.033086 1_555
Fe1 O3 1.970658 1_445
Fe1 O2 1.979139 1_555
Fe1 O8 2.029578 1_555
Fe1 O1 2.032187 1_555
Fe1 O15 2.050355 1_455
Fe1 O7 2.066438 1_555
Fe2 O11 1.981422 1_555
Fe2 O5 1.987967 1_555
Fe2 O0 1.988111 1_545
Fe2 O4 1.995014 1_445
Fe2 O10 1.996680 1_555
Fe2 O12 2.003380 1_555
Ni0 O3 1.959640 1_555
Ni0 O7 1.967022 1_555
Ni0 O2 1.987472 1_555
Ni0 O15 1.988516 1_565
Ni0 O6 2.026805 1_555
Ni0 O13 2.063613 1_555
Ni1 O4 1.921871 1_555
Ni1 O12 1.927714 1_555
Ni1 O14 1.979392 1_555
Ni1 O9 1.979678 1_555
Ni1 O10 2.065793 1_555
Ni1 O0 2.084621 1_655
Ni2 O4 1.916634 1_545
Ni2 O12 1.920954 1_555
Ni2 O14 1.953377 1_555
Ni2 O9 1.959421 1_545
Ni2 O11 2.075519 1_555
Ni2 O5 2.113523 1_655
O0 Sn0 2.054989 1_555
O1 Sn0 2.132902 1_555
O5 Sn0 2.050384 1_555
O6 Sn0 2.116087 1_555
O7 Sn0 2.133745 1_555
O8 Sn1 2.069715 1_554
O9 Sn0 2.090125 1_555
O10 Sn1 2.118185 1_555
O11 Sn1 2.113885 1_555
O13 Sn1 2.051990 1_554
O14 Sn1 2.163532 1_555
O15 Sn1 2.064608 1_554
