# generated using pymatgen
data_Na2Si(H5O4)2
_symmetry_space_group_name_H-M   'P 1'
_cell_length_a   6.67577800
_cell_length_b   7.96112903
_cell_length_c   8.58709015
_cell_angle_alpha   108.88079945
_cell_angle_beta   98.58251938
_cell_angle_gamma   104.30565942
_symmetry_Int_Tables_number   1
_chemical_formula_structural   Na2Si(H5O4)2
_chemical_formula_sum   'Na4 Si2 H20 O16'
_cell_volume   405.14522413
_cell_formula_units_Z   2
loop_
 _symmetry_equiv_pos_site_id
 _symmetry_equiv_pos_as_xyz
  1  'x, y, z'
loop_
 _atom_site_type_symbol
 _atom_site_label
 _atom_site_symmetry_multiplicity
 _atom_site_fract_x
 _atom_site_fract_y
 _atom_site_fract_z
 _atom_site_occupancy
  Na  Na0  1  0.18691300  0.45815600  0.84944800  1
  Na  Na1  1  0.81308700  0.54184400  0.15055200  1
  Na  Na2  1  0.63152600  0.31661100  0.66225900  1
  Na  Na3  1  0.36847400  0.68338900  0.33774100  1
  Si  Si0  1  0.97000600  0.03375600  0.76642800  1
  Si  Si1  1  0.02999400  0.96624400  0.23357200  1
  H  H0  1  0.78196700  0.92139500  0.93685100  1
  H  H1  1  0.21803300  0.07860500  0.06314900  1
  H  H2  1  0.92546700  0.13754100  0.54363500  1
  H  H3  1  0.07453300  0.86245900  0.45636500  1
  H  H4  1  0.20773500  0.31371000  0.51166700  1
  H  H5  1  0.79226500  0.68629000  0.48833300  1
  H  H6  1  0.34420200  0.53140400  0.60791600  1
  H  H7  1  0.65579800  0.46859600  0.39208400  1
  H  H8  1  0.24826000  0.80516600  0.65252800  1
  H  H9  1  0.75174000  0.19483400  0.34747200  1
  H  H10  1  0.50458800  0.84150900  0.71162600  1
  H  H11  1  0.49541200  0.15849100  0.28837400  1
  H  H12  1  0.42535300  0.22795000  0.92004700  1
  H  H13  1  0.57464700  0.77205000  0.07995300  1
  H  H14  1  0.63682200  0.16690300  0.91024500  1
  H  H15  1  0.36317800  0.83309700  0.08975500  1
  H  H16  1  0.88726200  0.68294100  0.90738700  1
  H  H17  1  0.11273800  0.31705900  0.09261300  1
  H  H18  1  0.95799600  0.68067200  0.74019000  1
  H  H19  1  0.04200400  0.31932800  0.25981000  1
  O  O0  1  0.17250800  0.17742300  0.92533200  1
  O  O1  1  0.82749200  0.82257700  0.07466800  1
  O  O2  1  0.01176200  0.84926100  0.64283500  1
  O  O3  1  0.98823800  0.15073900  0.35716500  1
  O  O4  1  0.75738900  0.97636700  0.84641300  1
  O  O5  1  0.24261100  0.02363300  0.15358700  1
  O  O6  1  0.88917500  0.15409100  0.65584600  1
  O  O7  1  0.11082500  0.84590900  0.34415400  1
  O  O8  1  0.32587400  0.40483700  0.61262700  1
  O  O9  1  0.67412600  0.59516300  0.38737300  1
  O  O10  1  0.36956800  0.75656600  0.62629300  1
  O  O11  1  0.63043200  0.24343400  0.37370700  1
  O  O12  1  0.58118300  0.27319500  0.92021000  1
  O  O13  1  0.41881700  0.72680500  0.07979000  1
  O  O14  1  0.92084500  0.59887000  0.80554400  1
  O  O15  1  0.07915500  0.40113000  0.19445600  1
loop_
_geom_bond_atom_site_label_1
_geom_bond_atom_site_label_2
_geom_bond_distance
_geom_bond_site_symmetry_2
Na0 O8 2.318467 1_555
Na0 O13 2.365413 1_556
Na0 O14 2.368292 1_455
Na0 O0 2.506772 1_555
Na0 O6 2.570158 1_455
Na1 O9 2.318467 1_555
Na1 O12 2.365413 1_554
Na1 O15 2.368292 1_655
Na1 O1 2.506772 1_555
Na1 O7 2.570158 1_655
Na2 O8 2.341136 1_555
Na2 O11 2.353147 1_555
Na2 O14 2.377023 1_555
Na2 O6 2.391113 1_555
Na2 O12 2.408141 1_555
Na3 O9 2.341136 1_555
Na3 O10 2.353147 1_555
Na3 O15 2.377023 1_555
Na3 O7 2.391113 1_555
Na3 O13 2.408141 1_555
H0 O4 1.019301 1_555
H0 O1 1.650811 1_556
H1 O5 1.019301 1_555
H1 O0 1.650811 1_554
H2 O6 1.003894 1_555
H3 O7 1.003894 1_555
H4 O8 1.003012 1_555
H5 O9 1.003012 1_555
H6 O8 0.999415 1_555
H7 O9 0.999415 1_555
H8 O10 1.004566 1_555
H9 O11 1.004566 1_555
H10 O10 0.993798 1_555
H11 O11 0.993798 1_555
H12 O12 1.012918 1_555
H12 O0 1.646856 1_555
H13 O13 1.012918 1_555
H13 O1 1.646856 1_555
H14 O12 0.989595 1_555
H15 O13 0.989595 1_555
H16 O14 1.008408 1_555
H16 O1 1.677855 1_556
H17 O15 1.008408 1_555
H17 O0 1.677855 1_554
H18 O14 0.999411 1_555
H19 O15 0.999411 1_555
O0 Si0 1.634890 1_455
O1 Si1 1.634890 1_655
O2 Si0 1.625782 1_465
O3 Si1 1.625782 1_645
O4 Si0 1.693732 1_565
O5 Si1 1.693732 1_545
O6 Si0 1.673899 1_555
O7 Si1 1.673899 1_555
