# generated using pymatgen
data_Li4Ti3V3(TeO8)2
_symmetry_space_group_name_H-M   'P 1'
_cell_length_a   6.09447311
_cell_length_b   10.36927356
_cell_length_c   10.30128356
_cell_angle_alpha   90.06307138
_cell_angle_beta   90.01517551
_cell_angle_gamma   88.20954838
_symmetry_Int_Tables_number   1
_chemical_formula_structural   Li4Ti3V3(TeO8)2
_chemical_formula_sum   'Li8 Ti6 V6 Te4 O32'
_cell_volume   650.67404272
_cell_formula_units_Z   2
loop_
 _symmetry_equiv_pos_site_id
 _symmetry_equiv_pos_as_xyz
  1  'x, y, z'
loop_
 _atom_site_type_symbol
 _atom_site_label
 _atom_site_symmetry_multiplicity
 _atom_site_fract_x
 _atom_site_fract_y
 _atom_site_fract_z
 _atom_site_occupancy
  Li  Li0  1  0.99401900  0.33145600  0.90606200  1
  Li  Li1  1  0.49405500  0.83147600  0.90609800  1
  Li  Li2  1  0.00620400  0.00200200  0.98525700  1
  Li  Li3  1  0.50610200  0.50201700  0.98532200  1
  Li  Li4  1  0.00244800  0.00091600  0.49552300  1
  Li  Li5  1  0.50250200  0.50092200  0.49565800  1
  Li  Li6  1  0.50516600  0.16839200  0.39580900  1
  Li  Li7  1  0.00529800  0.66825300  0.39591900  1
  Ti  Ti0  1  0.26457000  0.08830000  0.73302600  1
  Ti  Ti1  1  0.76460500  0.58826200  0.73302400  1
  Ti  Ti2  1  0.76403700  0.42032500  0.22018200  1
  Ti  Ti3  1  0.26432300  0.92033700  0.22019500  1
  Ti  Ti4  1  0.01293000  0.17202300  0.21960100  1
  Ti  Ti5  1  0.51335900  0.67196300  0.21998300  1
  V  V0  1  0.74640100  0.91544500  0.20800500  1
  V  V1  1  0.00299300  0.82426600  0.71618700  1
  V  V2  1  0.23771600  0.58932000  0.71626900  1
  V  V3  1  0.24610600  0.41543500  0.20783100  1
  V  V4  1  0.50309100  0.32423000  0.71620700  1
  V  V5  1  0.73755400  0.08945800  0.71631100  1
  Te  Te0  1  0.00536400  0.33505600  0.51239200  1
  Te  Te1  1  0.50531900  0.83505900  0.51247000  1
  Te  Te2  1  0.51706200  0.17240600  0.99620700  1
  Te  Te3  1  0.01698600  0.67226400  0.99623800  1
  O  O0  1  0.77304600  0.25755000  0.32036000  1
  O  O1  1  0.27304700  0.75758500  0.32026800  1
  O  O2  1  0.98802600  0.32938800  0.10876500  1
  O  O3  1  0.48854100  0.82949100  0.10898100  1
  O  O4  1  0.00215600  0.00066400  0.31117000  1
  O  O5  1  0.50255100  0.50075500  0.31132200  1
  O  O6  1  0.01001900  0.00336400  0.80271000  1
  O  O7  1  0.51000800  0.50332400  0.80271900  1
  O  O8  1  0.21376900  0.07115800  0.10855200  1
  O  O9  1  0.71386300  0.57122700  0.10853500  1
  O  O10  1  0.25824400  0.41952400  0.60008500  1
  O  O11  1  0.75823300  0.91951500  0.60013500  1
  O  O12  1  0.47525400  0.15847700  0.60770000  1
  O  O13  1  0.97524800  0.65848100  0.60776800  1
  O  O14  1  0.71836200  0.23953800  0.85693000  1
  O  O15  1  0.21845700  0.73947400  0.85696600  1
  O  O16  1  0.75174700  0.41578600  0.60200000  1
  O  O17  1  0.25164800  0.91581400  0.60207100  1
  O  O18  1  0.99929600  0.16800400  0.60213800  1
  O  O19  1  0.49927200  0.66800600  0.60217600  1
  O  O20  1  0.99400200  0.49241100  0.31276900  1
  O  O21  1  0.49395200  0.99256700  0.31269400  1
  O  O22  1  0.23599600  0.25071400  0.31225000  1
  O  O23  1  0.73611000  0.75065500  0.31270700  1
  O  O24  1  0.25852300  0.23910700  0.83301300  1
  O  O25  1  0.75863500  0.73903600  0.83314700  1
  O  O26  1  0.48773200  0.00989900  0.83329800  1
  O  O27  1  0.98768700  0.50978000  0.83317900  1
  O  O28  1  0.50719200  0.34234700  0.09546700  1
  O  O29  1  0.00711200  0.84224900  0.09525300  1
  O  O30  1  0.76686700  0.08243800  0.09524300  1
  O  O31  1  0.26689500  0.58238500  0.09553700  1
loop_
_geom_bond_atom_site_label_1
_geom_bond_atom_site_label_2
_geom_bond_distance
_geom_bond_site_symmetry_2
Li0 O27 1.995718 1_555
Li0 O24 1.996100 1_655
Li0 O14 2.021261 1_555
Li0 O2 2.088576 1_556
Li1 O26 1.996347 1_565
Li1 O25 1.996516 1_555
Li1 O15 2.021390 1_555
Li1 O3 2.090369 1_556
Li2 O6 1.880692 1_555
Li2 O8 1.944589 1_556
Li2 O30 2.007418 1_456
Li2 O29 2.007877 1_546
Li3 O7 1.881271 1_555
Li3 O9 1.945046 1_556
Li3 O31 2.007908 1_556
Li3 O28 2.008009 1_556
Li4 O4 1.899072 1_555
Li4 O11 2.042139 1_445
Li4 O18 2.049914 1_455
Li4 O17 2.051213 1_545
Li5 O5 1.898896 1_555
Li5 O10 2.041314 1_555
Li5 O19 2.049337 1_555
Li5 O16 2.050421 1_555
Li6 O21 2.016440 1_545
Li6 O22 2.018421 1_555
Li6 O0 2.054432 1_555
Li6 O12 2.193188 1_555
Li7 O20 2.016783 1_455
Li7 O23 2.017316 1_455
Li7 O1 2.055434 1_555
Li7 O13 2.192754 1_455
O0 Ti2 1.978596 1_555
O0 Ti4 1.979633 1_655
O0 Te0 2.574850 1_655
O1 Ti3 1.977826 1_555
O1 Ti5 1.979390 1_555
O1 Te1 2.575929 1_555
O2 Ti4 1.994446 1_655
O2 Ti2 1.996986 1_555
O2 V3 2.096728 1_655
O3 Ti3 1.996296 1_555
O3 Ti5 1.996780 1_555
O3 V0 2.095062 1_555
O4 Ti3 2.010180 1_545
O4 Ti4 2.015530 1_555
O4 V0 2.103068 1_445
O5 Ti2 2.008147 1_555
O5 Ti5 2.013049 1_555
O5 V3 2.108399 1_555
O6 Ti0 1.945514 1_555
O6 V1 2.060687 1_545
O6 V5 2.062717 1_455
O7 Ti1 1.945793 1_555
O7 V4 2.060568 1_555
O7 V2 2.061695 1_555
O8 Ti4 1.954181 1_555
O8 Ti3 1.958836 1_545
O8 Te2 2.446070 1_554
O9 Ti5 1.954657 1_555
O9 Ti2 1.959222 1_555
O9 Te3 2.444047 1_654
O10 Te0 2.010043 1_555
O10 V2 2.128307 1_555
O10 V4 2.131555 1_555
O11 Te1 2.010018 1_555
O11 V5 2.129549 1_565
O11 V1 2.130580 1_655
O12 Ti0 1.976427 1_555
O12 V4 2.060613 1_555
O12 V5 2.061253 1_555
O13 Ti1 1.975960 1_555
O13 V1 2.060339 1_655
O13 V2 2.061898 1_655
O14 Te2 2.025982 1_555
O14 V5 2.125458 1_555
O14 V4 2.126897 1_555
O15 Te3 2.026882 1_555
O15 V2 2.126578 1_555
O15 V1 2.128410 1_555
O16 Te0 1.964714 1_655
O16 V4 2.162228 1_555
O16 Ti1 2.242725 1_555
O17 Te1 1.965038 1_555
O17 V1 2.161675 1_555
O17 Ti0 2.242404 1_565
O18 Te0 1.965746 1_655
O18 V5 2.162295 1_555
O18 Ti0 2.243334 1_655
O19 Te1 1.965555 1_555
O19 V2 2.161578 1_555
O19 Ti1 2.243485 1_555
O20 Ti2 1.869712 1_555
O20 V3 2.022041 1_655
O20 Te0 2.626028 1_655
O21 Ti3 1.868323 1_555
O21 V0 2.022806 1_555
O21 Te1 2.628249 1_555
O22 Ti4 1.868626 1_555
O22 V3 2.022094 1_555
O22 Te0 2.629060 1_555
O23 Ti5 1.867603 1_555
O23 V0 2.024318 1_555
O23 Te1 2.626712 1_555
O24 Ti0 1.870952 1_555
O24 V4 2.129328 1_555
O24 Te2 2.391704 1_555
O25 Ti1 1.871440 1_555
O25 V1 2.129799 1_655
O25 Te3 2.390413 1_655
O26 Ti0 1.873396 1_555
O26 V5 2.128999 1_555
O26 Te2 2.387497 1_555
O27 Ti1 1.872730 1_555
O27 V2 2.129387 1_655
O27 Te3 2.388395 1_655
O28 Te2 2.035633 1_554
O28 V3 2.090384 1_555
O28 Ti2 2.197800 1_555
O29 Te3 2.034764 1_554
O29 V0 2.091266 1_455
O29 Ti3 2.201223 1_555
O30 Te2 2.035049 1_554
O30 V0 2.093151 1_545
O30 Ti4 2.199154 1_655
O31 Te3 2.036473 1_554
O31 V3 2.090275 1_555
O31 Ti5 2.201348 1_555
