# generated using pymatgen
data_Li3La7(FeO8)2
_symmetry_space_group_name_H-M   'P 1'
_cell_length_a   7.60216509
_cell_length_b   7.60216509
_cell_length_c   6.93413646
_cell_angle_alpha   74.13704988
_cell_angle_beta   74.13704988
_cell_angle_gamma   90.26606032
_symmetry_Int_Tables_number   1
_chemical_formula_structural   Li3La7(FeO8)2
_chemical_formula_sum   'Li3 La7 Fe2 O16'
_cell_volume   369.43681572
_cell_formula_units_Z   1
loop_
 _symmetry_equiv_pos_site_id
 _symmetry_equiv_pos_as_xyz
  1  'x, y, z'
loop_
 _atom_site_type_symbol
 _atom_site_label
 _atom_site_symmetry_multiplicity
 _atom_site_fract_x
 _atom_site_fract_y
 _atom_site_fract_z
 _atom_site_occupancy
  Li  Li0  1  0.99282500  0.49772500  0.01878400  1
  Li  Li1  1  0.67672200  0.67672200  0.29407400  1
  Li  Li2  1  0.49772500  0.99282500  0.01878400  1
  La  La0  1  0.81559000  0.81559000  0.73077500  1
  La  La1  1  0.82030700  0.32362200  0.71239600  1
  La  La2  1  0.68109400  0.17928700  0.27823000  1
  La  La3  1  0.32366600  0.32366600  0.71723800  1
  La  La4  1  0.32362200  0.82030700  0.71239600  1
  La  La5  1  0.17928700  0.68109400  0.27823000  1
  La  La6  1  0.17839200  0.17839200  0.28344500  1
  Fe  Fe0  1  0.99646800  0.99646800  0.00444000  1
  Fe  Fe1  1  0.50102800  0.50102800  0.00551500  1
  O  O0  1  0.92558500  0.92558500  0.35006100  1
  O  O1  1  0.00334600  0.75789400  0.99487700  1
  O  O2  1  0.00177600  0.24392000  0.99368700  1
  O  O3  1  0.92994200  0.39205200  0.35589500  1
  O  O4  1  0.58953800  0.09158100  0.63806900  1
  O  O5  1  0.74399200  0.49916100  0.99620500  1
  O  O6  1  0.75789400  0.00334600  0.99487700  1
  O  O7  1  0.58796800  0.58796800  0.64517400  1
  O  O8  1  0.40007900  0.40007900  0.34756300  1
  O  O9  1  0.50111200  0.25922600  0.99469300  1
  O  O10  1  0.49916100  0.74399200  0.99620500  1
  O  O11  1  0.39205200  0.92994200  0.35589500  1
  O  O12  1  0.09158100  0.58953800  0.63806900  1
  O  O13  1  0.24392000  0.00177600  0.99368700  1
  O  O14  1  0.08609800  0.08609800  0.65604200  1
  O  O15  1  0.25922600  0.50111200  0.99469300  1
loop_
_geom_bond_atom_site_label_1
_geom_bond_atom_site_label_2
_geom_bond_distance
_geom_bond_site_symmetry_2
Li0 O1 1.938505 1_654
Li0 O5 1.940158 1_554
Li0 O2 1.983952 1_654
Li0 O15 1.985527 1_654
Li0 O3 2.167278 1_555
Li0 O12 2.434006 1_654
Li1 O7 2.244421 1_555
Li2 O6 1.938505 1_564
Li2 O10 1.940158 1_554
Li2 O13 1.983952 1_564
Li2 O9 1.985527 1_564
Li2 O11 2.167278 1_555
Li2 O4 2.434006 1_564
La0 O0 2.438768 1_555
La0 O5 2.547597 1_555
La0 O10 2.547597 1_555
La0 O6 2.564980 1_565
La0 O1 2.564980 1_655
La0 O7 2.726945 1_555
La0 O14 2.742638 1_665
La0 O4 2.769232 1_565
La0 O12 2.769232 1_655
La1 O3 2.289721 1_555
La1 O5 2.609413 1_555
La1 O9 2.613057 1_555
La1 O6 2.619942 1_555
La1 O2 2.628211 1_655
La1 O7 2.710439 1_555
La1 O12 2.723208 1_655
La1 O4 2.723539 1_555
La1 O14 2.735688 1_655
La2 O4 2.300368 1_555
La2 O6 2.609049 1_554
La2 O5 2.616227 1_554
La2 O2 2.628114 1_654
La2 O9 2.632883 1_554
La2 O0 2.727042 1_545
La2 O11 2.732736 1_545
La2 O3 2.736754 1_555
La2 O8 2.743235 1_555
La3 O8 2.369512 1_555
La3 O9 2.582796 1_555
La3 O15 2.582796 1_555
La3 O13 2.610904 1_555
La3 O2 2.610904 1_555
La3 O7 2.681186 1_555
La3 O12 2.730492 1_555
La3 O4 2.730492 1_555
La3 O14 2.740654 1_555
La4 O11 2.289721 1_555
La4 O10 2.609413 1_555
La4 O15 2.613057 1_555
La4 O1 2.619942 1_555
La4 O13 2.628211 1_565
La4 O7 2.710439 1_555
La4 O4 2.723208 1_565
La4 O12 2.723539 1_555
La4 O14 2.735688 1_565
La5 O12 2.300368 1_555
La5 O1 2.609049 1_554
La5 O10 2.616227 1_554
La5 O13 2.628114 1_564
La5 O15 2.632883 1_554
La5 O0 2.727042 1_455
La5 O3 2.732736 1_455
La5 O11 2.736754 1_555
La5 O8 2.743235 1_555
La6 O14 2.381850 1_555
La6 O11 2.532573 1_545
La6 O3 2.532573 1_455
La6 O0 2.568207 1_445
La6 O8 2.582830 1_555
La6 O2 2.649847 1_554
La6 O13 2.649847 1_554
La6 O15 2.652095 1_554
La6 O9 2.652095 1_554
Fe0 O6 1.833383 1_564
Fe0 O1 1.833383 1_654
Fe0 O13 1.861978 1_664
Fe0 O2 1.861978 1_664
Fe0 O0 2.215779 1_555
Fe0 O14 2.227276 1_664
Fe1 O10 1.830719 1_554
Fe1 O5 1.830719 1_554
Fe1 O15 1.860127 1_554
Fe1 O9 1.860127 1_554
Fe1 O8 2.192667 1_555
Fe1 O7 2.303752 1_554
