# generated using pymatgen
data_Ge2(WO3)9
_symmetry_space_group_name_H-M   'P 1'
_cell_length_a   7.59718897
_cell_length_b   7.59718897
_cell_length_c   11.58999629
_cell_angle_alpha   89.97014199
_cell_angle_beta   89.97014199
_cell_angle_gamma   119.99687340
_symmetry_Int_Tables_number   1
_chemical_formula_structural   Ge2(WO3)9
_chemical_formula_sum   'Ge2 W9 O27'
_cell_volume   579.33962382
_cell_formula_units_Z   1
loop_
 _symmetry_equiv_pos_site_id
 _symmetry_equiv_pos_as_xyz
  1  'x, y, z'
loop_
 _atom_site_type_symbol
 _atom_site_label
 _atom_site_symmetry_multiplicity
 _atom_site_fract_x
 _atom_site_fract_y
 _atom_site_fract_z
 _atom_site_occupancy
  Ge  Ge0  1  0.89742400  0.89742400  0.33997700  1
  Ge  Ge1  1  0.10257600  0.10257600  0.66002300  1
  W  W0  1  0.00000000  0.50000000  0.00000000  1
  W  W1  1  0.00603600  0.49192800  0.33288800  1
  W  W2  1  0.99396400  0.50807200  0.66711200  1
  W  W3  1  0.49192800  0.00603600  0.33288800  1
  W  W4  1  0.50000000  0.00000000  0.00000000  1
  W  W5  1  0.50807200  0.99396400  0.66711200  1
  W  W6  1  0.50000000  0.50000000  0.00000000  1
  W  W7  1  0.50462700  0.50462700  0.66748400  1
  W  W8  1  0.49537300  0.49537300  0.33251600  1
  O  O0  1  0.99661100  0.50107600  0.16896800  1
  O  O1  1  0.00000000  0.50000000  0.50000000  1
  O  O2  1  0.00338900  0.49892400  0.83103200  1
  O  O3  1  0.78489800  0.56968000  0.99901000  1
  O  O4  1  0.79678300  0.58457100  0.66534200  1
  O  O5  1  0.81268300  0.61784700  0.33568600  1
  O  O6  1  0.78067100  0.21714800  0.66559300  1
  O  O7  1  0.78285200  0.21932900  0.33440700  1
  O  O8  1  0.78490900  0.21509100  0.00000000  1
  O  O9  1  0.43032000  0.21510200  0.00099000  1
  O  O10  1  0.41542900  0.20321700  0.33465800  1
  O  O11  1  0.38215300  0.18731700  0.66431400  1
  O  O12  1  0.49892400  0.00338900  0.83103200  1
  O  O13  1  0.50107600  0.99661100  0.16896800  1
  O  O14  1  0.50000000  0.00000000  0.50000000  1
  O  O15  1  0.56968000  0.78489800  0.99901000  1
  O  O16  1  0.61784700  0.81268300  0.33568600  1
  O  O17  1  0.58457100  0.79678300  0.66534200  1
  O  O18  1  0.49869800  0.49869800  0.83012900  1
  O  O19  1  0.50130200  0.50130200  0.16987100  1
  O  O20  1  0.50000000  0.50000000  0.50000000  1
  O  O21  1  0.21509100  0.78490900  0.00000000  1
  O  O22  1  0.21932900  0.78285200  0.33440700  1
  O  O23  1  0.21714800  0.78067100  0.66559300  1
  O  O24  1  0.20321700  0.41542900  0.33465800  1
  O  O25  1  0.21510200  0.43032000  0.00099000  1
  O  O26  1  0.18731700  0.38215300  0.66431400  1
loop_
_geom_bond_atom_site_label_1
_geom_bond_atom_site_label_2
_geom_bond_distance
_geom_bond_site_symmetry_2
Ge0 O16 1.887107 1_555
Ge0 O5 1.887107 1_555
Ge1 O26 1.887107 1_555
Ge1 O11 1.887107 1_555
O0 W1 1.903759 1_655
O0 W0 1.958569 1_655
O1 W1 1.939074 1_555
O1 W2 1.939074 1_455
O2 W2 1.903759 1_455
O2 W0 1.958569 1_556
O3 W0 1.953432 1_656
O3 W6 1.954325 1_556
O4 W2 1.858174 1_555
O4 W7 1.986947 1_555
O5 W8 2.106115 1_555
O5 W1 2.116378 1_655
O6 W5 1.911286 1_545
O6 W2 1.982431 1_555
O7 W1 1.911286 1_655
O7 W3 1.982431 1_555
O8 W4 1.954143 1_555
O8 W0 1.954143 1_655
O9 W4 1.953432 1_555
O9 W6 1.954325 1_555
O10 W3 1.858174 1_555
O10 W8 1.986947 1_555
O11 W7 2.106115 1_555
O11 W5 2.116378 1_545
O12 W5 1.903759 1_545
O12 W4 1.958569 1_556
O13 W3 1.903759 1_565
O13 W4 1.958569 1_565
O14 W3 1.939074 1_555
O14 W5 1.939074 1_545
O15 W4 1.953432 1_566
O15 W6 1.954325 1_556
O16 W8 2.106115 1_555
O16 W3 2.116378 1_565
O17 W5 1.858174 1_555
O17 W7 1.986947 1_555
O18 W7 1.885546 1_555
O18 W6 1.968839 1_556
O19 W8 1.885546 1_555
O19 W6 1.968839 1_555
O20 W7 1.941494 1_555
O20 W8 1.941494 1_555
O21 W4 1.954143 1_565
O21 W0 1.954143 1_555
O22 W3 1.911286 1_565
O22 W1 1.982431 1_555
O23 W2 1.911286 1_455
O23 W5 1.982431 1_555
O24 W1 1.858174 1_555
O24 W8 1.986947 1_555
O25 W0 1.953432 1_555
O25 W6 1.954325 1_555
O26 W7 2.106115 1_555
O26 W2 2.116378 1_455
