# generated using pymatgen
data_CoSb3(PO4)6
_symmetry_space_group_name_H-M   'P 1'
_cell_length_a   8.82811531
_cell_length_b   8.82811531
_cell_length_c   8.82811578
_cell_angle_alpha   58.00566635
_cell_angle_beta   58.00566635
_cell_angle_gamma   58.00566592
_symmetry_Int_Tables_number   1
_chemical_formula_structural   CoSb3(PO4)6
_chemical_formula_sum   'Co1 Sb3 P6 O24'
_cell_volume   464.25100345
_cell_formula_units_Z   1
loop_
 _symmetry_equiv_pos_site_id
 _symmetry_equiv_pos_as_xyz
  1  'x, y, z'
loop_
 _atom_site_type_symbol
 _atom_site_label
 _atom_site_symmetry_multiplicity
 _atom_site_fract_x
 _atom_site_fract_y
 _atom_site_fract_z
 _atom_site_occupancy
  Co  Co0  1  0.14408300  0.14408300  0.14408300  1
  Sb  Sb0  1  0.85686300  0.85686300  0.85686300  1
  Sb  Sb1  1  0.64352600  0.64352600  0.64352600  1
  Sb  Sb2  1  0.35671200  0.35671200  0.35671200  1
  P  P0  1  0.52971200  0.96488300  0.24791800  1
  P  P1  1  0.24791800  0.52971200  0.96488300  1
  P  P2  1  0.96488300  0.24791800  0.52971200  1
  P  P3  1  0.04030000  0.75830600  0.45440900  1
  P  P4  1  0.75830600  0.45440900  0.04030000  1
  P  P5  1  0.45440900  0.04030000  0.75830600  1
  O  O0  1  0.48528500  0.86792900  0.72448600  1
  O  O1  1  0.86792900  0.72448600  0.48528500  1
  O  O2  1  0.71949400  0.94032200  0.07665700  1
  O  O3  1  0.72448600  0.48528500  0.86792900  1
  O  O4  1  0.55928200  0.78139200  0.42349200  1
  O  O5  1  0.36139900  0.98994600  0.22307600  1
  O  O6  1  0.07665700  0.71949400  0.94032200  1
  O  O7  1  0.42349200  0.55928200  0.78139200  1
  O  O8  1  0.78139200  0.42349200  0.55928200  1
  O  O9  1  0.01490700  0.77080900  0.63650400  1
  O  O10  1  0.06069500  0.92991300  0.27822600  1
  O  O11  1  0.77080900  0.63650400  0.01490700  1
  O  O12  1  0.22307600  0.36139900  0.98994600  1
  O  O13  1  0.94032200  0.07665700  0.71949400  1
  O  O14  1  0.98994600  0.22307600  0.36139900  1
  O  O15  1  0.21791400  0.57424700  0.44310500  1
  O  O16  1  0.57424700  0.44310500  0.21791400  1
  O  O17  1  0.92991300  0.27822600  0.06069500  1
  O  O18  1  0.63650400  0.01490700  0.77080900  1
  O  O19  1  0.44310500  0.21791400  0.57424700  1
  O  O20  1  0.27499100  0.51644100  0.13277400  1
  O  O21  1  0.27822600  0.06069500  0.92991300  1
  O  O22  1  0.13277400  0.27499100  0.51644100  1
  O  O23  1  0.51644100  0.13277400  0.27499100  1
loop_
_geom_bond_atom_site_label_1
_geom_bond_atom_site_label_2
_geom_bond_distance
_geom_bond_site_symmetry_2
Co0 O12 1.914249 1_554
Co0 O5 1.914249 1_545
Co0 O14 1.914249 1_455
Co0 O10 1.922918 1_545
Co0 O17 1.922918 1_455
Co0 O21 1.922918 1_554
O0 P5 1.560357 1_565
O0 Sb1 1.974005 1_555
O1 P3 1.560357 1_655
O1 Sb1 1.974005 1_555
O2 P0 1.555028 1_555
O2 Sb0 1.962943 1_554
O3 P4 1.560358 1_556
O3 Sb1 1.974005 1_555
O4 P0 1.553921 1_555
O4 Sb1 1.968272 1_555
O5 P0 1.500140 1_555
O6 P1 1.555028 1_555
O6 Sb0 1.962943 1_455
O7 P1 1.553921 1_555
O7 Sb1 1.968272 1_555
O8 P2 1.553921 1_555
O8 Sb1 1.968272 1_555
O9 P3 1.557757 1_555
O9 Sb0 1.968476 1_455
O10 P3 1.497352 1_555
O11 P4 1.557756 1_555
O11 Sb0 1.968475 1_554
O12 P1 1.500140 1_555
O13 P2 1.555028 1_555
O13 Sb0 1.962943 1_545
O14 P2 1.500140 1_555
O15 P3 1.554030 1_555
O15 Sb2 1.959429 1_555
O16 P4 1.554030 1_555
O16 Sb2 1.959429 1_555
O17 P4 1.497352 1_555
O18 P5 1.557756 1_555
O18 Sb0 1.968475 1_545
O19 P5 1.554030 1_555
O19 Sb2 1.959429 1_555
O20 P1 1.558637 1_554
O20 Sb2 1.973957 1_555
O21 P5 1.497352 1_555
O22 P2 1.558637 1_455
O22 Sb2 1.973957 1_555
O23 P0 1.558637 1_545
O23 Sb2 1.973957 1_555
