# generated using pymatgen
data_Na5(NiO2)6
_symmetry_space_group_name_H-M   'P 1'
_cell_length_a   5.90590272
_cell_length_b   6.77917068
_cell_length_c   6.82454395
_cell_angle_alpha   66.79941026
_cell_angle_beta   76.68024110
_cell_angle_gamma   66.93232418
_symmetry_Int_Tables_number   1
_chemical_formula_structural   Na5(NiO2)6
_chemical_formula_sum   'Na5 Ni6 O12'
_cell_volume   230.12281164
_cell_formula_units_Z   1
loop_
 _symmetry_equiv_pos_site_id
 _symmetry_equiv_pos_as_xyz
  1  'x, y, z'
loop_
 _atom_site_type_symbol
 _atom_site_label
 _atom_site_symmetry_multiplicity
 _atom_site_fract_x
 _atom_site_fract_y
 _atom_site_fract_z
 _atom_site_occupancy
  Na  Na0  1  0.32065767  0.17693899  0.82630832  1
  Na  Na1  1  0.50000000  0.50000000  0.50000000  1
  Na  Na2  1  0.83785608  0.18592795  0.81737606  1
  Na  Na3  1  0.16214392  0.81407205  0.18262394  1
  Na  Na4  1  0.67934233  0.82306101  0.17369168  1
  Ni  Ni0  1  0.58173318  0.66785606  0.83336527  1
  Ni  Ni1  1  0.08055766  0.66757408  0.83322976  1
  Ni  Ni2  1  0.24826061  0.00244863  0.50159193  1
  Ni  Ni3  1  0.41826682  0.33214394  0.16663473  1
  Ni  Ni4  1  0.75173939  0.99755137  0.49840807  1
  Ni  Ni5  1  0.91944234  0.33242592  0.16677024  1
  O  O0  1  0.20991959  0.89598336  0.80360039  1
  O  O1  1  0.40859998  0.21300236  0.46871652  1
  O  O2  1  0.10037631  0.78619558  0.53138708  1
  O  O3  1  0.70963543  0.89739073  0.80044204  1
  O  O4  1  0.55074480  0.55611273  0.13892356  1
  O  O5  1  0.29036457  0.10260927  0.19955796  1
  O  O6  1  0.89962369  0.21380442  0.46861292  1
  O  O7  1  0.59140002  0.78699764  0.53128348  1
  O  O8  1  0.44925520  0.44388727  0.86107644  1
  O  O9  1  0.05511797  0.55309494  0.13391054  1
  O  O10  1  0.79008041  0.10401664  0.19639961  1
  O  O11  1  0.94488203  0.44690506  0.86608946  1
loop_
_geom_bond_atom_site_label_1
_geom_bond_atom_site_label_2
_geom_bond_distance
_geom_bond_site_symmetry_2
Na0 O11 2.297700 1_455
Na0 O1 2.308783 1_555
Na0 O0 2.309723 1_545
Na0 O8 2.325188 1_555
Na0 O3 2.359053 1_545
Na0 O5 2.371454 1_556
Na1 O4 2.305908 1_555
Na1 O8 2.305908 1_555
Na1 O1 2.307754 1_555
Na1 O7 2.307754 1_555
Na1 O2 2.426226 1_555
Na1 O6 2.426226 1_555
Na2 O11 2.253159 1_555
Na2 O6 2.265713 1_555
Na2 O8 2.316189 1_555
Na2 O0 2.316590 1_645
Na2 O10 2.394487 1_556
Na2 O3 2.406674 1_545
Na3 O9 2.253159 1_555
Na3 O2 2.265713 1_555
Na3 O4 2.316189 1_555
Na3 O10 2.316590 1_465
Na3 O0 2.394487 1_554
Na3 O5 2.406674 1_565
Na4 O9 2.297700 1_655
Na4 O7 2.308783 1_555
Na4 O10 2.309723 1_565
Na4 O4 2.325188 1_555
Na4 O5 2.359053 1_565
Na4 O3 2.371454 1_554
Ni0 O7 1.890940 1_555
Ni0 O8 1.894655 1_555
Ni0 O3 1.899949 1_555
Ni0 O4 1.908919 1_556
Ni0 O11 2.081587 1_555
Ni0 O0 2.133476 1_555
Ni1 O11 1.876818 1_455
Ni1 O9 1.878877 1_556
Ni1 O2 1.887116 1_555
Ni1 O0 1.905614 1_555
Ni1 O8 2.110251 1_555
Ni1 O3 2.133749 1_455
Ni2 O0 1.887106 1_545
Ni2 O5 1.888122 1_555
Ni2 O2 1.907886 1_545
Ni2 O1 1.921835 1_555
Ni2 O7 1.979333 1_545
Ni2 O6 1.997682 1_455
Ni3 O1 1.890940 1_555
Ni3 O4 1.894655 1_555
Ni3 O5 1.899949 1_555
Ni3 O8 1.908919 1_554
Ni3 O9 2.081587 1_555
Ni3 O10 2.133476 1_555
Ni4 O10 1.887106 1_565
Ni4 O3 1.888122 1_555
Ni4 O6 1.907886 1_565
Ni4 O7 1.921835 1_555
Ni4 O1 1.979333 1_565
Ni4 O2 1.997682 1_655
Ni5 O9 1.876818 1_655
Ni5 O11 1.878877 1_554
Ni5 O6 1.887116 1_555
Ni5 O10 1.905614 1_555
Ni5 O4 2.110251 1_555
Ni5 O5 2.133749 1_655
