# generated using pymatgen
data_Li3Mn2F7
_symmetry_space_group_name_H-M   'P 1'
_cell_length_a   10.87448300
_cell_length_b   7.59856100
_cell_length_c   9.12962701
_cell_angle_alpha   56.30191355
_cell_angle_beta   90.00000000
_cell_angle_gamma   90.00000000
_symmetry_Int_Tables_number   1
_chemical_formula_structural   Li3Mn2F7
_chemical_formula_sum   'Li12 Mn8 F28'
_cell_volume   627.62763653
_cell_formula_units_Z   4
loop_
 _symmetry_equiv_pos_site_id
 _symmetry_equiv_pos_as_xyz
  1  'x, y, z'
loop_
 _atom_site_type_symbol
 _atom_site_label
 _atom_site_symmetry_multiplicity
 _atom_site_fract_x
 _atom_site_fract_y
 _atom_site_fract_z
 _atom_site_occupancy
  Li  Li0  1  0.58450700  0.74871000  0.70962500  1
  Li  Li1  1  0.20676400  0.35407600  0.02825400  1
  Li  Li2  1  0.90377000  0.11015200  0.19521500  1
  Li  Li3  1  0.08450700  0.25129000  0.79037500  1
  Li  Li4  1  0.29323600  0.35407600  0.52825400  1
  Li  Li5  1  0.40377000  0.88984800  0.30478500  1
  Li  Li6  1  0.59623000  0.11015200  0.69521500  1
  Li  Li7  1  0.70676400  0.64592400  0.47174600  1
  Li  Li8  1  0.91549300  0.74871000  0.20962500  1
  Li  Li9  1  0.09623000  0.88984800  0.80478500  1
  Li  Li10  1  0.79323600  0.64592400  0.97174600  1
  Li  Li11  1  0.41549300  0.25129000  0.29037500  1
  Mn  Mn0  1  0.27872400  0.70775500  0.64489700  1
  Mn  Mn1  1  0.91640400  0.76812600  0.61553100  1
  Mn  Mn2  1  0.41640400  0.23187400  0.88446900  1
  Mn  Mn3  1  0.77872400  0.29224500  0.85510300  1
  Mn  Mn4  1  0.22127600  0.70775500  0.14489700  1
  Mn  Mn5  1  0.58359600  0.76812600  0.11553100  1
  Mn  Mn6  1  0.08359600  0.23187400  0.38446900  1
  Mn  Mn7  1  0.72127600  0.29224500  0.35510300  1
  F  F0  1  0.45461700  0.56131100  0.75468800  1
  F  F1  1  0.36398500  0.19800400  0.11710200  1
  F  F2  1  0.72996100  0.61711100  0.69869800  1
  F  F3  1  0.78084300  0.33869600  0.08503300  1
  F  F4  1  0.89375200  0.12870400  0.42845900  1
  F  F5  1  0.07135000  0.20826400  0.17142700  1
  F  F6  1  0.37406900  0.97127300  0.46982700  1
  F  F7  1  0.22996100  0.38288900  0.80130200  1
  F  F8  1  0.95461700  0.43868900  0.74531200  1
  F  F9  1  0.13601500  0.19800400  0.61710200  1
  F  F10  1  0.87406900  0.02872700  0.03017300  1
  F  F11  1  0.71915700  0.33869600  0.58503300  1
  F  F12  1  0.57135000  0.79173600  0.32857300  1
  F  F13  1  0.60624800  0.12870400  0.92845900  1
  F  F14  1  0.39375200  0.87129600  0.07154100  1
  F  F15  1  0.42865000  0.20826400  0.67142700  1
  F  F16  1  0.28084300  0.66130400  0.41496700  1
  F  F17  1  0.12593100  0.97127300  0.96982700  1
  F  F18  1  0.86398400  0.80199600  0.38289800  1
  F  F19  1  0.04538300  0.56131100  0.25468800  1
  F  F20  1  0.77003900  0.61711100  0.19869800  1
  F  F21  1  0.62593100  0.02872700  0.53017300  1
  F  F22  1  0.92865000  0.79173600  0.82857300  1
  F  F23  1  0.10624800  0.87129600  0.57154100  1
  F  F24  1  0.21915700  0.66130400  0.91496700  1
  F  F25  1  0.27003900  0.38288900  0.30130200  1
  F  F26  1  0.63601500  0.80199600  0.88289800  1
  F  F27  1  0.54538300  0.43868900  0.24531200  1
loop_
_geom_bond_atom_site_label_1
_geom_bond_atom_site_label_2
_geom_bond_distance
_geom_bond_site_symmetry_2
F0 Li0 1.882017 1_555
F0 Mn2 2.133460 1_555
F0 Mn0 2.159603 1_555
F1 Li11 1.921166 1_555
F1 Li1 1.979903 1_555
F1 Li5 2.038125 1_545
F1 Mn2 2.072533 1_554
F2 Li0 1.903277 1_555
F2 Li7 1.975178 1_555
F2 Mn3 2.121892 1_555
F2 Mn1 2.244349 1_555
F3 Li10 1.964312 1_554
F3 Li2 1.968811 1_555
F3 Mn3 2.313829 1_554
F3 Mn7 2.378626 1_555
F4 Mn7 2.141754 1_555
F4 Mn6 2.165289 1_655
F4 Li2 2.213438 1_555
F4 Mn1 2.300447 1_545
F5 Li1 1.870173 1_555
F5 Li2 1.935003 1_455
F5 Mn6 2.054291 1_555
F6 Li11 1.883128 1_565
F6 Li5 1.947293 1_555
F6 Mn0 2.021830 1_555
F7 Li3 1.903277 1_555
F7 Li1 1.975178 1_556
F7 Mn0 2.121892 1_555
F7 Mn2 2.244349 1_555
F8 Li3 1.882017 1_655
F8 Mn1 2.133460 1_555
F8 Mn3 2.159603 1_555
F9 Li3 1.921166 1_555
F9 Li4 1.979903 1_555
F9 Li9 2.038125 1_545
F9 Mn6 2.072533 1_555
F10 Li8 1.883128 1_545
F10 Li2 1.947293 1_555
F10 Mn3 2.021830 1_554
F11 Li7 1.964312 1_555
F11 Li6 1.968811 1_555
F11 Mn7 2.313829 1_555
F11 Mn3 2.378626 1_555
F12 Li7 1.870173 1_555
F12 Li5 1.935003 1_555
F12 Mn5 2.054291 1_555
F13 Mn3 2.141754 1_555
F13 Mn2 2.165289 1_555
F13 Li6 2.213438 1_555
F13 Mn5 2.300447 1_546
F14 Mn4 2.141754 1_555
F14 Mn5 2.165289 1_555
F14 Li5 2.213438 1_555
F14 Mn2 2.300447 1_564
F15 Li4 1.870173 1_555
F15 Li6 1.935003 1_555
F15 Mn2 2.054291 1_555
F16 Li4 1.964312 1_555
F16 Li5 1.968811 1_555
F16 Mn0 2.313829 1_555
F16 Mn4 2.378626 1_555
F17 Li3 1.883128 1_565
F17 Li9 1.947293 1_555
F17 Mn4 2.021830 1_556
F18 Li8 1.921169 1_555
F18 Li7 1.979894 1_555
F18 Li2 2.038127 1_565
F18 Mn1 2.072536 1_555
F19 Li8 1.882017 1_455
F19 Mn6 2.133460 1_555
F19 Mn4 2.159603 1_555
F20 Li8 1.903277 1_555
F20 Li10 1.975178 1_554
F20 Mn7 2.121892 1_555
F20 Mn5 2.244349 1_555
F21 Li0 1.883128 1_545
F21 Li6 1.947293 1_555
F21 Mn7 2.021830 1_555
F22 Li10 1.870173 1_555
F22 Li9 1.935003 1_655
F22 Mn1 2.054291 1_555
F23 Mn0 2.141754 1_555
F23 Mn1 2.165289 1_455
F23 Li9 2.213438 1_555
F23 Mn6 2.300447 1_565
F24 Li1 1.964312 1_556
F24 Li9 1.968811 1_555
F24 Mn4 2.313829 1_556
F24 Mn0 2.378626 1_555
F25 Li11 1.903277 1_555
F25 Li4 1.975178 1_555
F25 Mn4 2.121892 1_555
F25 Mn6 2.244349 1_555
F26 Li0 1.921166 1_555
F26 Li10 1.979903 1_555
F26 Li6 2.038125 1_565
F26 Mn5 2.072533 1_556
F27 Li11 1.882017 1_555
F27 Mn5 2.133460 1_555
F27 Mn7 2.159603 1_555
