# generated using pymatgen
data_Na3MnPCO7
_symmetry_space_group_name_H-M   'P 1'
_cell_length_a   6.74144800
_cell_length_b   9.09063025
_cell_length_c   10.63816584
_cell_angle_alpha   89.90305207
_cell_angle_beta   90.00031473
_cell_angle_gamma   90.00004360
_symmetry_Int_Tables_number   1
_chemical_formula_structural   Na3MnPCO7
_chemical_formula_sum   'Na12 Mn4 P4 C4 O28'
_cell_volume   651.94854017
_cell_formula_units_Z   4
loop_
 _symmetry_equiv_pos_site_id
 _symmetry_equiv_pos_as_xyz
  1  'x, y, z'
loop_
 _atom_site_type_symbol
 _atom_site_label
 _atom_site_symmetry_multiplicity
 _atom_site_fract_x
 _atom_site_fract_y
 _atom_site_fract_z
 _atom_site_occupancy
  Na  Na0  1  0.48511300  0.00233800  0.50185800  1
  Na  Na1  1  0.48503600  0.00213900  0.00181300  1
  Na  Na2  1  0.98511200  0.99765600  0.99817300  1
  Na  Na3  1  0.98505900  0.99785400  0.49819000  1
  Na  Na4  1  0.21969200  0.16619700  0.22118500  1
  Na  Na5  1  0.21966000  0.16625900  0.72117600  1
  Na  Na6  1  0.71967500  0.83380700  0.27883200  1
  Na  Na7  1  0.71967800  0.83373700  0.77883700  1
  Na  Na8  1  0.49060300  0.49311000  0.24631200  1
  Na  Na9  1  0.49058100  0.49306500  0.74628100  1
  Na  Na10  1  0.99061200  0.50690200  0.25367100  1
  Na  Na11  1  0.99058400  0.50691200  0.75372400  1
  Mn  Mn0  1  0.73805800  0.29436400  0.51046300  1
  Mn  Mn1  1  0.23819000  0.70576700  0.98942300  1
  Mn  Mn2  1  0.73819600  0.29390100  0.01054300  1
  Mn  Mn3  1  0.23820800  0.70604300  0.48942000  1
  P  P0  1  0.23766800  0.34292100  0.49171700  1
  P  P1  1  0.23765600  0.34274500  0.99172100  1
  P  P2  1  0.73766900  0.65706700  0.00829500  1
  P  P3  1  0.73765500  0.65726800  0.50830300  1
  C  C0  1  0.73831700  0.15003000  0.24932000  1
  C  C1  1  0.73833400  0.14994500  0.74928300  1
  C  C2  1  0.23831600  0.84996200  0.25068000  1
  C  C3  1  0.23831900  0.85006000  0.75070900  1
  O  O0  1  0.73834800  0.05119300  0.16086800  1
  O  O1  1  0.73838400  0.05109800  0.66085100  1
  O  O2  1  0.23836000  0.94880300  0.33913000  1
  O  O3  1  0.23837300  0.94888700  0.83916300  1
  O  O4  1  0.73513300  0.10741700  0.36733900  1
  O  O5  1  0.73511600  0.10728200  0.86730000  1
  O  O6  1  0.23512400  0.89257400  0.13266000  1
  O  O7  1  0.23509800  0.89273200  0.63270200  1
  O  O8  1  0.05310100  0.24928700  0.03241700  1
  O  O9  1  0.05312100  0.24949200  0.53244900  1
  O  O10  1  0.55309000  0.75070100  0.46760500  1
  O  O11  1  0.55310000  0.75048900  0.96755200  1
  O  O12  1  0.42227000  0.25278700  0.03749000  1
  O  O13  1  0.42234200  0.25302400  0.53752700  1
  O  O14  1  0.92226600  0.74719900  0.46251600  1
  O  O15  1  0.92231500  0.74696900  0.96246200  1
  O  O16  1  0.74253500  0.28862800  0.22177400  1
  O  O17  1  0.74257200  0.28854800  0.72175200  1
  O  O18  1  0.24253400  0.71136900  0.27823400  1
  O  O19  1  0.24256000  0.71145500  0.77823000  1
  O  O20  1  0.24000500  0.36633400  0.34832200  1
  O  O21  1  0.23997000  0.36634500  0.84834300  1
  O  O22  1  0.73999600  0.63367800  0.15169200  1
  O  O23  1  0.73997900  0.63364200  0.65167500  1
  O  O24  1  0.23368100  0.49273700  0.06313500  1
  O  O25  1  0.23369800  0.49297700  0.56301900  1
  O  O26  1  0.73366100  0.50729300  0.43686300  1
  O  O27  1  0.73367600  0.50701100  0.93700000  1
loop_
_geom_bond_atom_site_label_1
_geom_bond_atom_site_label_2
_geom_bond_distance
_geom_bond_site_symmetry_2
Na0 O13 2.349328 1_555
Na0 O10 2.361873 1_545
Na0 O7 2.401333 1_545
Na0 O4 2.407620 1_555
Na0 O1 2.444393 1_555
Na0 O2 2.450226 1_545
Na1 O12 2.349000 1_555
Na1 O11 2.362114 1_544
Na1 O6 2.400710 1_545
Na1 O5 2.408095 1_554
Na1 O0 2.445532 1_555
Na1 O3 2.448714 1_544
Na2 O15 2.349440 1_555
Na2 O8 2.361819 1_666
Na2 O5 2.401488 1_565
Na2 O6 2.407381 1_656
Na2 O3 2.444499 1_655
Na2 O0 2.450045 1_566
Na3 O14 2.349088 1_555
Na3 O9 2.362001 1_665
Na3 O4 2.400784 1_565
Na3 O7 2.407810 1_655
Na3 O2 2.445525 1_655
Na3 O1 2.448851 1_565
Na4 O20 2.272984 1_555
Na4 O2 2.342503 1_545
Na4 O8 2.420600 1_555
Na4 O12 2.509642 1_555
Na4 O6 2.663235 1_545
Na5 O21 2.272802 1_555
Na5 O3 2.342590 1_545
Na5 O9 2.420480 1_555
Na5 O13 2.510140 1_555
Na5 O7 2.662228 1_545
Na6 O22 2.272949 1_555
Na6 O0 2.342552 1_565
Na6 O10 2.420680 1_555
Na6 O14 2.509639 1_555
Na6 O4 2.663063 1_565
Na7 O23 2.272833 1_555
Na7 O1 2.342498 1_565
Na7 O11 2.420548 1_555
Na7 O15 2.509774 1_555
Na7 O5 2.662339 1_565
Na8 O20 2.314236 1_555
Na8 O22 2.338471 1_555
Na8 O16 2.531740 1_555
Na8 O24 2.607147 1_555
Na8 O26 2.609894 1_555
Na8 O18 2.617451 1_555
Na9 O21 2.314306 1_555
Na9 O23 2.338476 1_555
Na9 O17 2.532231 1_555
Na9 O25 2.607643 1_555
Na9 O27 2.611331 1_555
Na9 O19 2.618185 1_555
Na10 O22 2.314163 1_555
Na10 O20 2.338606 1_655
Na10 O18 2.531619 1_655
Na10 O26 2.607411 1_555
Na10 O24 2.609823 1_655
Na10 O16 2.617550 1_555
Na11 O23 2.314249 1_555
Na11 O21 2.338421 1_655
Na11 O19 2.532307 1_655
Na11 O27 2.607881 1_555
Na11 O25 2.611305 1_655
Na11 O17 2.617995 1_555
Mn0 O26 2.086999 1_555
Mn0 O9 2.175331 1_655
Mn0 O13 2.180316 1_555
Mn0 O17 2.248465 1_555
Mn0 O4 2.283762 1_555
Mn1 O24 2.088306 1_556
Mn1 O11 2.173940 1_555
Mn1 O15 2.181000 1_455
Mn1 O19 2.247407 1_555
Mn1 O6 2.283626 1_556
Mn2 O27 2.088310 1_554
Mn2 O8 2.173726 1_655
Mn2 O12 2.181182 1_555
Mn2 O16 2.247731 1_555
Mn2 O5 2.282397 1_554
Mn3 O25 2.088161 1_555
Mn3 O10 2.173584 1_555
Mn3 O14 2.181290 1_455
Mn3 O18 2.247261 1_555
Mn3 O7 2.283150 1_555
C0 O16 1.293402 1_555
C0 O0 1.302139 1_555
C0 O4 1.313458 1_555
C1 O17 1.293413 1_555
C1 O1 1.302048 1_555
C1 O5 1.313575 1_555
C2 O18 1.293376 1_555
C2 O2 1.302149 1_555
C2 O6 1.313466 1_555
C3 O19 1.293407 1_555
C3 O3 1.302091 1_555
C3 O7 1.313497 1_555
O8 P1 1.567147 1_554
O9 P0 1.567067 1_555
O10 P3 1.567080 1_555
O11 P2 1.567180 1_556
O12 P1 1.566339 1_554
O13 P0 1.566506 1_555
O14 P3 1.566257 1_555
O15 P2 1.566459 1_556
O20 P0 1.539960 1_555
O21 P1 1.540013 1_555
O22 P2 1.539951 1_555
O23 P3 1.539983 1_555
O24 P1 1.562236 1_554
O25 P0 1.562163 1_555
O26 P3 1.562238 1_555
O27 P2 1.562129 1_556
