# generated using pymatgen
data_NaAlSi3O8
_symmetry_space_group_name_H-M   'P 1'
_cell_length_a   7.70567798
_cell_length_b   7.42091797
_cell_length_c   7.17091870
_cell_angle_alpha   79.51866834
_cell_angle_beta   107.49887046
_cell_angle_gamma   64.70417508
_symmetry_Int_Tables_number   1
_chemical_formula_structural   NaAlSi3O8
_chemical_formula_sum   'Na2 Al2 Si6 O16'
_cell_volume   329.87744423
_cell_formula_units_Z   2
loop_
 _symmetry_equiv_pos_site_id
 _symmetry_equiv_pos_as_xyz
  1  'x, y, z'
loop_
 _atom_site_type_symbol
 _atom_site_label
 _atom_site_symmetry_multiplicity
 _atom_site_fract_x
 _atom_site_fract_y
 _atom_site_fract_z
 _atom_site_occupancy
  Na  Na0  1  0.74992231  0.27434050  0.85464655  1
  Na  Na1  1  0.25007769  0.72565950  0.14535345  1
  Al  Al0  1  0.82476710  0.84209883  0.79257238  1
  Al  Al1  1  0.17523290  0.15790117  0.20742762  1
  Si  Si0  1  0.17441733  0.18135631  0.76302356  1
  Si  Si1  1  0.82558267  0.81864369  0.23697644  1
  Si  Si2  1  0.20230122  0.57850861  0.68848255  1
  Si  Si3  1  0.79769878  0.42149139  0.31151745  1
  Si  Si4  1  0.44106268  0.79488388  0.64078335  1
  Si  Si5  1  0.55893732  0.20511612  0.35921665  1
  O  O0  1  0.86668559  0.87748858  0.03385427  1
  O  O1  1  0.13331441  0.12251142  0.96614573  1
  O  O2  1  0.41780060  0.58722524  0.72240862  1
  O  O3  1  0.58219940  0.41277476  0.27759138  1
  O  O4  1  0.08184170  0.70519445  0.81080112  1
  O  O5  1  0.91815830  0.29480555  0.18919888  1
  O  O6  1  0.32836314  0.96638337  0.74002630  1
  O  O7  1  0.67163686  0.03361663  0.25997370  1
  O  O8  1  0.69040438  0.70806411  0.73228156  1
  O  O9  1  0.30959562  0.29193589  0.26771844  1
  O  O10  1  0.28359221  0.32640448  0.77623250  1
  O  O11  1  0.71640779  0.67359552  0.22376750  1
  O  O12  1  0.68045467  0.10331222  0.61090491  1
  O  O13  1  0.31954533  0.89668778  0.38909509  1
  O  O14  1  0.94534043  0.31827081  0.56184516  1
  O  O15  1  0.05465957  0.68172919  0.43815484  1
loop_
_geom_bond_atom_site_label_1
_geom_bond_atom_site_label_2
_geom_bond_distance
_geom_bond_site_symmetry_2
Na0 O2 2.345500 1_555
Na0 O12 2.403623 1_555
Na0 O5 2.426845 1_556
Na0 O1 2.458404 1_655
Na0 O0 2.607168 1_546
Na1 O3 2.345500 1_555
Na1 O13 2.403623 1_555
Na1 O4 2.426845 1_554
Na1 O0 2.458404 1_455
Na1 O1 2.607168 1_564
Al0 O8 1.736540 1_555
Al0 O4 1.746261 1_655
Al0 O12 1.749045 1_565
Al0 O0 1.751761 1_556
Al1 O9 1.736540 1_555
Al1 O5 1.746261 1_455
Al1 O13 1.749045 1_545
Al1 O1 1.751761 1_554
O0 Si1 1.605249 1_555
O1 Si0 1.605249 1_555
O2 Si2 1.635675 1_555
O2 Si4 1.649380 1_555
O3 Si3 1.635675 1_555
O3 Si5 1.649380 1_555
O4 Si2 1.599593 1_555
O5 Si3 1.599593 1_555
O6 Si0 1.604834 1_565
O6 Si4 1.623894 1_555
O7 Si1 1.604834 1_545
O7 Si5 1.623894 1_555
O8 Si4 1.602302 1_555
O9 Si5 1.602302 1_555
O10 Si2 1.619121 1_555
O10 Si0 1.624298 1_555
O11 Si3 1.619121 1_555
O11 Si1 1.624298 1_555
O12 Si5 1.608734 1_555
O13 Si4 1.608734 1_555
O14 Si3 1.621797 1_555
O14 Si0 1.622352 1_655
O15 Si2 1.621797 1_555
O15 Si1 1.622352 1_455
