# generated using pymatgen
data_CoOF
_symmetry_space_group_name_H-M   'P 1'
_cell_length_a   2.99359500
_cell_length_b   4.64884900
_cell_length_c   13.87583083
_cell_angle_alpha   84.71632054
_cell_angle_beta   90.00000000
_cell_angle_gamma   90.00000000
_symmetry_Int_Tables_number   1
_chemical_formula_structural   CoOF
_chemical_formula_sum   'Co6 O6 F6'
_cell_volume   192.28624525
_cell_formula_units_Z   6
loop_
 _symmetry_equiv_pos_site_id
 _symmetry_equiv_pos_as_xyz
  1  'x, y, z'
loop_
 _atom_site_type_symbol
 _atom_site_label
 _atom_site_symmetry_multiplicity
 _atom_site_fract_x
 _atom_site_fract_y
 _atom_site_fract_z
 _atom_site_occupancy
  Co  Co0  1  0.00000000  0.94318900  0.00078500  1
  Co  Co1  1  0.00000000  0.99017400  0.33357700  1
  Co  Co2  1  0.00000000  0.03269000  0.66659700  1
  Co  Co3  1  0.50000000  0.47131300  0.16820600  1
  Co  Co4  1  0.50000000  0.50707200  0.49911100  1
  Co  Co5  1  0.50000000  0.55807500  0.83307500  1
  O  O0  1  0.50000000  0.78739400  0.93498100  1
  O  O1  1  0.00000000  0.73060400  0.76665400  1
  O  O2  1  0.00000000  0.66080800  0.10315900  1
  O  O3  1  0.00000000  0.68966500  0.43575500  1
  O  O4  1  0.00000000  0.33017700  0.56507100  1
  O  O5  1  0.00000000  0.28430900  0.23073000  1
  F  F0  1  0.50000000  0.78828400  0.26875300  1
  F  F1  1  0.50000000  0.83713900  0.60145800  1
  F  F2  1  0.00000000  0.29761100  0.89813800  1
  F  F3  1  0.50000000  0.16514000  0.06138600  1
  F  F4  1  0.50000000  0.19122700  0.39819600  1
  F  F5  1  0.50000000  0.23512900  0.73436900  1
loop_
_geom_bond_atom_site_label_1
_geom_bond_atom_site_label_2
_geom_bond_distance
_geom_bond_site_symmetry_2
Co0 O2 1.843298 1_555
Co0 O0 1.928857 1_454
Co0 O0 1.928857 1_554
Co0 F3 2.042533 1_465
Co0 F3 2.042533 1_565
Co0 F2 2.076347 1_564
Co1 O5 1.883332 1_565
Co1 O3 1.896587 1_555
Co1 F4 2.017998 1_565
Co1 F4 2.017998 1_465
Co1 F0 2.021349 1_455
Co1 F0 2.021349 1_555
Co2 O4 1.881061 1_555
Co2 O1 1.881673 1_545
Co2 F1 2.008764 1_545
Co2 F1 2.008764 1_445
Co2 F5 2.042896 1_455
Co2 F5 2.042896 1_555
Co3 O5 1.899987 1_555
Co3 O5 1.899987 1_655
Co3 O2 1.919547 1_555
Co3 O2 1.919547 1_655
Co3 F0 2.120494 1_555
Co3 F3 2.147429 1_555
Co4 O3 1.896406 1_555
Co4 O3 1.896406 1_655
Co4 O4 1.901509 1_555
Co4 O4 1.901509 1_655
Co4 F4 2.120237 1_555
Co4 F1 2.184638 1_555
Co5 O0 1.847598 1_555
Co5 O1 1.896574 1_655
Co5 O1 1.896574 1_555
Co5 F2 2.078533 1_555
Co5 F2 2.078533 1_655
Co5 F5 2.123340 1_555
