# generated using pymatgen
data_LiSi6Bi9O26
_symmetry_space_group_name_H-M   'P 1'
_cell_length_a   9.70809708
_cell_length_b   9.70809708
_cell_length_c   7.08245100
_cell_angle_alpha   90.00000000
_cell_angle_beta   90.00000000
_cell_angle_gamma   120.00000733
_symmetry_Int_Tables_number   1
_chemical_formula_structural   LiSi6Bi9O26
_chemical_formula_sum   'Li1 Si6 Bi9 O26'
_cell_volume   578.07261879
_cell_formula_units_Z   1
loop_
 _symmetry_equiv_pos_site_id
 _symmetry_equiv_pos_as_xyz
  1  'x, y, z'
loop_
 _atom_site_type_symbol
 _atom_site_label
 _atom_site_symmetry_multiplicity
 _atom_site_fract_x
 _atom_site_fract_y
 _atom_site_fract_z
 _atom_site_occupancy
  Li  Li0  1  0.33333300  0.66666700  0.51887900  1
  Si  Si0  1  0.03029900  0.62252300  0.25238600  1
  Si  Si1  1  0.59222400  0.96970100  0.25238600  1
  Si  Si2  1  0.37747700  0.40777600  0.25238600  1
  Si  Si3  1  0.62376300  0.60191200  0.74832300  1
  Si  Si4  1  0.39808800  0.02185100  0.74832300  1
  Si  Si5  1  0.97814900  0.37623700  0.74832300  1
  Bi  Bi0  1  0.98824300  0.76026200  0.73330600  1
  Bi  Bi1  1  0.33333300  0.66666700  0.97738100  1
  Bi  Bi2  1  0.23973800  0.22798100  0.73330600  1
  Bi  Bi3  1  0.22450200  0.98147600  0.23666300  1
  Bi  Bi4  1  0.77201900  0.01175700  0.73330600  1
  Bi  Bi5  1  0.75697400  0.77549800  0.23666300  1
  Bi  Bi6  1  0.66666700  0.33333300  0.00169000  1
  Bi  Bi7  1  0.66666700  0.33333300  0.48900700  1
  Bi  Bi8  1  0.01852400  0.24302600  0.23666300  1
  O  O0  1  0.06589900  0.75437000  0.42179800  1
  O  O1  1  0.09828700  0.74409800  0.06681500  1
  O  O2  1  0.12775700  0.52698600  0.26521900  1
  O  O3  1  0.32400800  0.83059300  0.74172600  1
  O  O4  1  0.16940700  0.49341400  0.74172600  1
  O  O5  1  0.39922900  0.87224300  0.26521900  1
  O  O6  1  0.00000000  0.00000000  0.18785800  1
  O  O7  1  0.00000000  0.00000000  0.69182300  1
  O  O8  1  0.25590200  0.35418900  0.06681500  1
  O  O9  1  0.24563000  0.31152800  0.42179800  1
  O  O10  1  0.50658600  0.67599200  0.74172600  1
  O  O11  1  0.47301400  0.60077100  0.26521900  1
  O  O12  1  0.64581100  0.90171300  0.06681500  1
  O  O13  1  0.68847200  0.93410100  0.42179800  1
  O  O14  1  0.32908100  0.08148400  0.92665800  1
  O  O15  1  0.35345600  0.10045000  0.56606900  1
  O  O16  1  0.52785100  0.40466400  0.75950900  1
  O  O17  1  0.50293000  0.33899500  0.24437000  1
  O  O18  1  0.75240300  0.67091900  0.92665800  1
  O  O19  1  0.74699400  0.64654400  0.56606900  1
  O  O20  1  0.59533600  0.12318700  0.75950900  1
  O  O21  1  0.83606500  0.49707000  0.24437000  1
  O  O22  1  0.66100500  0.16393500  0.24437000  1
  O  O23  1  0.87681300  0.47214900  0.75950900  1
  O  O24  1  0.89955000  0.25300600  0.56606900  1
  O  O25  1  0.91851600  0.24759700  0.92665800  1
loop_
_geom_bond_atom_site_label_1
_geom_bond_atom_site_label_2
_geom_bond_distance
_geom_bond_site_symmetry_2
Li0 O3 2.275058 1_555
Li0 O4 2.275065 1_555
Li0 O10 2.275072 1_555
Li0 O5 2.518547 1_555
Li0 O2 2.518548 1_555
Li0 O11 2.518553 1_555
Bi0 O7 2.291395 1_665
Bi0 O0 2.341419 1_655
Bi0 O19 2.349761 1_555
Bi0 O18 2.425653 1_555
Bi0 O23 2.449958 1_555
Bi0 O1 2.629240 1_656
Bi1 O3 2.338901 1_555
Bi1 O4 2.338908 1_555
Bi1 O10 2.338915 1_555
Bi1 O5 2.696558 1_556
Bi1 O2 2.696559 1_556
Bi1 O11 2.696564 1_556
Bi1 O1 2.808629 1_556
Bi1 O12 2.808635 1_556
Bi1 O8 2.808638 1_556
Bi2 O7 2.291395 1_555
Bi2 O9 2.341416 1_555
Bi2 O15 2.349761 1_555
Bi2 O14 2.425654 1_555
Bi2 O16 2.449958 1_555
Bi2 O8 2.629240 1_556
Bi3 O6 2.300854 1_565
Bi3 O1 2.331395 1_555
Bi3 O0 2.357179 1_555
Bi3 O14 2.410044 1_564
Bi3 O5 2.416933 1_555
Bi3 O15 2.626450 1_565
Bi4 O7 2.291395 1_655
Bi4 O13 2.341417 1_545
Bi4 O24 2.349761 1_555
Bi4 O25 2.425653 1_555
Bi4 O20 2.449958 1_555
Bi4 O12 2.629240 1_546
Bi5 O6 2.300853 1_665
Bi5 O12 2.331395 1_555
Bi5 O13 2.357173 1_555
Bi5 O18 2.410044 1_554
Bi5 O11 2.416932 1_555
Bi5 O19 2.626450 1_555
Bi6 O22 2.360356 1_555
Bi6 O21 2.360359 1_555
Bi6 O17 2.360363 1_555
Bi6 O20 2.484128 1_554
Bi6 O23 2.484130 1_554
Bi6 O16 2.484135 1_554
Bi7 O22 2.370468 1_555
Bi7 O21 2.370471 1_555
Bi7 O17 2.370474 1_555
Bi7 O20 2.626636 1_555
Bi7 O23 2.626637 1_555
Bi7 O16 2.626643 1_555
Bi7 O24 2.789358 1_555
Bi7 O15 2.789364 1_555
Bi7 O19 2.789367 1_555
Bi8 O6 2.300854 1_555
Bi8 O8 2.331395 1_555
Bi8 O9 2.357181 1_555
Bi8 O25 2.410044 1_454
Bi8 O2 2.416933 1_555
Bi8 O24 2.626450 1_455
O0 Si0 1.659842 1_555
O1 Si0 1.666442 1_555
O2 Si0 1.625168 1_555
O3 Si4 1.622218 1_565
O4 Si5 1.622217 1_455
O5 Si1 1.625168 1_555
O8 Si2 1.666442 1_555
O9 Si2 1.659844 1_555
O10 Si3 1.622209 1_555
O11 Si2 1.625168 1_555
O12 Si1 1.666442 1_555
O13 Si1 1.659848 1_555
O14 Si4 1.663455 1_555
O15 Si4 1.663365 1_555
O16 Si3 1.660454 1_555
O17 Si2 1.656995 1_555
O18 Si3 1.663455 1_555
O19 Si3 1.663364 1_555
O20 Si4 1.660454 1_555
O21 Si0 1.656995 1_655
O22 Si1 1.656995 1_545
O23 Si5 1.660455 1_555
O24 Si5 1.663364 1_555
O25 Si5 1.663455 1_555
