# generated using pymatgen
data_Nb2SbO6
_symmetry_space_group_name_H-M   'P 1'
_cell_length_a   8.94890130
_cell_length_b   8.94890130
_cell_length_c   5.62876271
_cell_angle_alpha   88.82542395
_cell_angle_beta   88.82542395
_cell_angle_gamma   32.72754172
_symmetry_Int_Tables_number   1
_chemical_formula_structural   Nb2SbO6
_chemical_formula_sum   'Nb4 Sb2 O12'
_cell_volume   243.64934367
_cell_formula_units_Z   2
loop_
 _symmetry_equiv_pos_site_id
 _symmetry_equiv_pos_as_xyz
  1  'x, y, z'
loop_
 _atom_site_type_symbol
 _atom_site_label
 _atom_site_symmetry_multiplicity
 _atom_site_fract_x
 _atom_site_fract_y
 _atom_site_fract_z
 _atom_site_occupancy
  Nb  Nb0  1  0.91779100  0.42829400  0.82860300  1
  Nb  Nb1  1  0.42829400  0.91779100  0.32860300  1
  Nb  Nb2  1  0.57170600  0.08220900  0.67139700  1
  Nb  Nb3  1  0.08220900  0.57170600  0.17139700  1
  Sb  Sb0  1  0.19335100  0.80664900  0.75000000  1
  Sb  Sb1  1  0.80664900  0.19335100  0.25000000  1
  O  O0  1  0.84455800  0.71586700  0.84894000  1
  O  O1  1  0.71586700  0.84455800  0.34894000  1
  O  O2  1  0.68067300  0.59610200  0.57103400  1
  O  O3  1  0.59610200  0.68067300  0.07103400  1
  O  O4  1  0.98623700  0.14733500  0.91938200  1
  O  O5  1  0.14733500  0.98623700  0.41938200  1
  O  O6  1  0.85266500  0.01376300  0.58061800  1
  O  O7  1  0.01376300  0.85266500  0.08061800  1
  O  O8  1  0.40389800  0.31932700  0.92896600  1
  O  O9  1  0.31932700  0.40389800  0.42896600  1
  O  O10  1  0.28413300  0.15544200  0.65106000  1
  O  O11  1  0.15544200  0.28413300  0.15106000  1
loop_
_geom_bond_atom_site_label_1
_geom_bond_atom_site_label_2
_geom_bond_distance
_geom_bond_site_symmetry_2
Nb0 O2 1.880211 1_555
Nb0 O10 2.050828 1_655
Nb0 O0 2.058328 1_555
Nb0 O3 2.067944 1_556
Nb0 O4 2.080119 1_555
Nb0 O11 2.219833 1_656
Nb1 O3 1.880211 1_555
Nb1 O11 2.050828 1_565
Nb1 O1 2.058328 1_555
Nb1 O2 2.067944 1_555
Nb1 O5 2.080119 1_555
Nb1 O10 2.219833 1_565
Nb2 O8 1.880211 1_555
Nb2 O0 2.050828 1_545
Nb2 O10 2.058328 1_555
Nb2 O9 2.067944 1_555
Nb2 O6 2.080119 1_555
Nb2 O1 2.219833 1_545
Nb3 O9 1.880211 1_555
Nb3 O1 2.050828 1_455
Nb3 O11 2.058328 1_555
Nb3 O8 2.067944 1_554
Nb3 O7 2.080119 1_555
Nb3 O0 2.219833 1_454
O4 Sb0 2.044163 1_645
O4 Sb1 2.238510 1_556
O5 Sb1 2.044163 1_465
O5 Sb0 2.238510 1_555
O6 Sb0 2.044163 1_645
O6 Sb1 2.238510 1_555
O7 Sb1 2.044163 1_465
O7 Sb0 2.238510 1_554
