# generated using pymatgen
data_Li3Cr3(PO4)4
_symmetry_space_group_name_H-M   'P 1'
_cell_length_a   8.20593700
_cell_length_b   9.08073324
_cell_length_c   13.12398939
_cell_angle_alpha   86.26038137
_cell_angle_beta   89.93810268
_cell_angle_gamma   89.90591123
_symmetry_Int_Tables_number   1
_chemical_formula_structural   Li3Cr3(PO4)4
_chemical_formula_sum   'Li9 Cr9 P12 O48'
_cell_volume   975.86214299
_cell_formula_units_Z   3
loop_
 _symmetry_equiv_pos_site_id
 _symmetry_equiv_pos_as_xyz
  1  'x, y, z'
loop_
 _atom_site_type_symbol
 _atom_site_label
 _atom_site_symmetry_multiplicity
 _atom_site_fract_x
 _atom_site_fract_y
 _atom_site_fract_z
 _atom_site_occupancy
  Li  Li0  1  0.47571800  0.34083000  0.16659100  1
  Li  Li1  1  0.52043000  0.98931300  0.49982700  1
  Li  Li2  1  0.14647900  0.43858100  0.17120600  1
  Li  Li3  1  0.01019400  0.81794500  0.16341000  1
  Li  Li4  1  0.99827500  0.51531900  0.51055900  1
  Li  Li5  1  0.02562500  0.17779300  0.83456000  1
  Li  Li6  1  0.35468500  0.27596100  0.84129300  1
  Li  Li7  1  0.85552500  0.89282900  0.49448800  1
  Li  Li8  1  0.49115900  0.64868000  0.82866500  1
  Cr  Cr0  1  0.85474200  0.22813700  0.16881300  1
  Cr  Cr1  1  0.14605100  0.10586300  0.50010100  1
  Cr  Cr2  1  0.64265200  0.72595900  0.16690700  1
  Cr  Cr3  1  0.64690800  0.39390100  0.50607400  1
  Cr  Cr4  1  0.64312300  0.06339100  0.83305400  1
  Cr  Cr5  1  0.34895800  0.94174700  0.16107800  1
  Cr  Cr6  1  0.35394100  0.60809400  0.50297400  1
  Cr  Cr7  1  0.85613400  0.55750000  0.83121900  1
  Cr  Cr8  1  0.15020500  0.77308200  0.83204600  1
  P  P0  1  0.19077400  0.14491500  0.05225800  1
  P  P1  1  0.69977400  0.02475000  0.27904600  1
  P  P2  1  0.29344500  0.63686600  0.05497100  1
  P  P3  1  0.29934700  0.30836000  0.38818900  1
  P  P4  1  0.79276700  0.52147900  0.27868500  1
  P  P5  1  0.80425900  0.18922200  0.61259100  1
  P  P6  1  0.20647600  0.81270700  0.38950900  1
  P  P7  1  0.20627500  0.46943000  0.72201200  1
  P  P8  1  0.70657100  0.69698000  0.61200300  1
  P  P9  1  0.70651200  0.35424300  0.94387100  1
  P  P10  1  0.30340800  0.97676700  0.72157800  1
  P  P11  1  0.79397400  0.85836300  0.94357100  1
  O  O0  1  0.86932800  0.02036300  0.22156500  1
  O  O1  1  0.36206900  0.14609300  0.11073900  1
  O  O2  1  0.07100200  0.24662400  0.10600700  1
  O  O3  1  0.71895800  0.31439500  0.05837100  1
  O  O4  1  0.64948100  0.18872000  0.25162200  1
  O  O5  1  0.36479600  0.48400000  0.07156000  1
  O  O6  1  0.34947800  0.14434100  0.41563500  1
  O  O7  1  0.29705400  0.35600900  0.27707600  1
  O  O8  1  0.91095100  0.41534500  0.22874100  1
  O  O9  1  0.28516400  0.01696500  0.60741300  1
  O  O10  1  0.92911000  0.08655400  0.56639700  1
  O  O11  1  0.62132600  0.52285300  0.22308800  1
  O  O12  1  0.12962100  0.65169300  0.10727800  1
  O  O13  1  0.63553600  0.18574200  0.55412300  1
  O  O14  1  0.12866000  0.31185400  0.44430200  1
  O  O15  1  0.41963500  0.75201500  0.10609600  1
  O  O16  1  0.78459300  0.81161500  0.05736600  1
  O  O17  1  0.41786200  0.41280700  0.44801900  1
  O  O18  1  0.77975900  0.48140800  0.39324100  1
  O  O19  1  0.42882800  0.08058000  0.76637200  1
  O  O20  1  0.84349400  0.68565900  0.25338600  1
  O  O21  1  0.78604300  0.14780400  0.72672300  1
  O  O22  1  0.84598400  0.35654800  0.58989100  1
  O  O23  1  0.84536300  0.02154400  0.92133500  1
  O  O24  1  0.14824500  0.97691000  0.07916700  1
  O  O25  1  0.15471200  0.64914400  0.41398300  1
  O  O26  1  0.21895300  0.85156100  0.27459400  1
  O  O27  1  0.13509200  0.31625900  0.73574700  1
  O  O28  1  0.57950900  0.92063300  0.22014500  1
  O  O29  1  0.20720000  0.52467300  0.60637600  1
  O  O30  1  0.57920800  0.58331500  0.56130400  1
  O  O31  1  0.20526300  0.18595800  0.94033000  1
  O  O32  1  0.58643100  0.24794300  0.89515900  1
  O  O33  1  0.86909000  0.68210600  0.55852800  1
  O  O34  1  0.37686800  0.81207400  0.44556300  1
  O  O35  1  0.87553100  0.35254500  0.88600100  1
  O  O36  1  0.37040200  0.48263700  0.77331300  1
  O  O37  1  0.08801900  0.92030500  0.43851500  1
  O  O38  1  0.70437400  0.97713800  0.39007900  1
  O  O39  1  0.08151800  0.58377000  0.77475700  1
  O  O40  1  0.71038500  0.64253800  0.72761400  1
  O  O41  1  0.63637200  0.85080300  0.59744200  1
  O  O42  1  0.65745800  0.51881900  0.92001200  1
  O  O43  1  0.34594500  0.80971300  0.74428100  1
  O  O44  1  0.29205100  0.69173100  0.93961600  1
  O  O45  1  0.91726600  0.75316600  0.89106200  1
  O  O46  1  0.62566000  0.85442800  0.88768600  1
  O  O47  1  0.13596700  0.98129600  0.78123200  1
loop_
_geom_bond_atom_site_label_1
_geom_bond_atom_site_label_2
_geom_bond_distance
_geom_bond_site_symmetry_2
Li0 O5 1.965008 1_555
Li0 O7 2.071664 1_555
Li0 O1 2.170272 1_555
Li0 O11 2.208573 1_555
Li0 O4 2.232106 1_555
Li0 O3 2.468938 1_555
Li1 O41 1.979117 1_555
Li1 O38 2.093010 1_555
Li1 O34 2.154743 1_555
Li1 O13 2.180457 1_565
Li1 O6 2.228129 1_565
Li1 O9 2.413001 1_565
Li2 O7 1.970851 1_555
Li2 O12 2.062928 1_555
Li2 O8 2.080269 1_455
Li2 O2 2.086496 1_555
Li2 O5 2.239818 1_555
Li3 O12 1.980134 1_555
Li3 O24 2.093779 1_555
Li3 O20 2.127324 1_455
Li3 O26 2.285211 1_555
Li3 O16 2.320287 1_455
Li3 O0 2.339112 1_465
Li4 O33 1.982832 1_555
Li4 O22 2.128775 1_555
Li4 O25 2.128814 1_655
Li4 O29 2.132334 1_655
Li4 O14 2.348535 1_655
Li4 O18 2.397994 1_555
Li5 O27 1.964212 1_555
Li5 O31 2.030654 1_555
Li5 O35 2.149994 1_455
Li5 O47 2.156332 1_545
Li5 O23 2.300143 1_455
Li5 O21 2.449546 1_455
Li6 O31 1.929265 1_555
Li6 O36 2.029038 1_555
Li6 O32 2.039309 1_555
Li6 O19 2.169675 1_555
Li6 O27 2.288413 1_555
Li7 O38 1.966186 1_555
Li7 O33 2.042067 1_555
Li7 O37 2.053368 1_655
Li7 O10 2.138034 1_565
Li7 O41 2.266080 1_555
Li8 O36 1.983034 1_555
Li8 O42 2.122235 1_555
Li8 O43 2.137897 1_555
Li8 O40 2.236582 1_555
Li8 O44 2.238226 1_555
Li8 O46 2.346543 1_555
Cr0 O3 1.951527 1_555
Cr0 O2 1.958730 1_655
Cr0 O0 1.970397 1_555
Cr0 O8 1.974599 1_555
Cr0 O4 2.023256 1_555
Cr1 O9 1.946904 1_555
Cr1 O14 1.968821 1_555
Cr1 O37 1.974944 1_545
Cr1 O10 1.983600 1_455
Cr1 O6 2.021117 1_555
Cr2 O11 1.949176 1_555
Cr2 O16 1.970253 1_555
Cr2 O15 2.004783 1_555
Cr2 O28 2.009735 1_555
Cr2 O20 2.021420 1_555
Cr3 O13 1.955586 1_555
Cr3 O18 1.964328 1_555
Cr3 O22 1.986741 1_555
Cr3 O30 1.987737 1_555
Cr3 O17 2.031654 1_555
Cr4 O21 1.941721 1_555
Cr4 O32 1.965727 1_555
Cr4 O19 1.966499 1_555
Cr4 O46 1.989587 1_545
Cr4 O23 2.045867 1_555
Cr5 O1 1.931816 1_565
Cr5 O26 1.966854 1_555
Cr5 O24 1.981827 1_555
Cr5 O15 1.995855 1_555
Cr5 O28 2.049271 1_555
Cr6 O29 1.931517 1_555
Cr6 O34 1.962869 1_555
Cr6 O30 2.008215 1_555
Cr6 O17 2.025595 1_555
Cr6 O25 2.030046 1_555
Cr7 O40 1.933667 1_555
Cr7 O35 1.957246 1_555
Cr7 O39 2.000507 1_655
Cr7 O42 2.020812 1_555
Cr7 O45 2.052136 1_555
Cr8 O44 1.938629 1_555
Cr8 O47 1.966782 1_555
Cr8 O43 1.991257 1_555
Cr8 O39 2.002739 1_555
Cr8 O45 2.065436 1_455
O0 P1 1.583667 1_555
O1 P0 1.602636 1_555
O2 P0 1.548256 1_555
O3 P9 1.526022 1_554
O4 P1 1.563740 1_555
O5 P2 1.508415 1_555
O6 P3 1.563857 1_555
O7 P3 1.493914 1_555
O8 P4 1.541749 1_555
O9 P10 1.526278 1_545
O10 P5 1.534800 1_555
O11 P4 1.585152 1_555
O12 P2 1.518574 1_555
O13 P5 1.585032 1_555
O14 P3 1.582977 1_555
O15 P2 1.646937 1_555
O16 P11 1.527635 1_554
O17 P3 1.601173 1_555
O18 P4 1.527261 1_555
O19 P10 1.539575 1_545
O20 P4 1.563135 1_555
O21 P5 1.527619 1_555
O22 P5 1.567524 1_555
O23 P11 1.550518 1_545
O24 P0 1.582781 1_565
O25 P6 1.558582 1_555
O26 P6 1.529653 1_555
O27 P7 1.509319 1_555
O28 P1 1.601699 1_565
O29 P7 1.567008 1_555
O30 P8 1.641649 1_555
O31 P0 1.496391 1_556
O32 P9 1.548037 1_555
O33 P8 1.516268 1_555
O34 P6 1.580474 1_555
O35 P9 1.581105 1_555
O36 P7 1.514799 1_555
O37 P6 1.546187 1_555
O38 P1 1.493203 1_565
O39 P7 1.641346 1_555
O40 P8 1.565158 1_555
O41 P8 1.510711 1_555
O42 P9 1.559095 1_555
O43 P10 1.565679 1_555
O44 P2 1.562666 1_556
O45 P11 1.578674 1_555
O46 P11 1.566082 1_555
O47 P10 1.582471 1_555
