# generated using pymatgen
data_LiNiPO4
_symmetry_space_group_name_H-M   'P 1'
_cell_length_a   10.06334100
_cell_length_b   5.94769700
_cell_length_c   10.02602963
_cell_angle_alpha   85.83136780
_cell_angle_beta   90.00000000
_cell_angle_gamma   90.00000000
_symmetry_Int_Tables_number   1
_chemical_formula_structural   LiNiPO4
_chemical_formula_sum   'Li8 Ni8 P8 O32'
_cell_volume   598.50740317
_cell_formula_units_Z   8
loop_
 _symmetry_equiv_pos_site_id
 _symmetry_equiv_pos_as_xyz
  1  'x, y, z'
loop_
 _atom_site_type_symbol
 _atom_site_label
 _atom_site_symmetry_multiplicity
 _atom_site_fract_x
 _atom_site_fract_y
 _atom_site_fract_z
 _atom_site_occupancy
  Li  Li0  1  0.90557600  0.86182400  0.46445700  1
  Li  Li1  1  0.59442400  0.86182400  0.96445700  1
  Li  Li2  1  0.43431400  0.63600200  0.73146300  1
  Li  Li3  1  0.06568600  0.63600200  0.23146300  1
  Li  Li4  1  0.93431400  0.36399800  0.76853700  1
  Li  Li5  1  0.56568600  0.36399800  0.26853700  1
  Li  Li6  1  0.40557600  0.13817600  0.03554300  1
  Li  Li7  1  0.09442400  0.13817600  0.53554300  1
  Ni  Ni0  1  0.16847100  0.88292500  0.86789800  1
  Ni  Ni1  1  0.33152900  0.88292500  0.36789800  1
  Ni  Ni2  1  0.70866100  0.61869000  0.63124400  1
  Ni  Ni3  1  0.79133900  0.61869000  0.13124400  1
  Ni  Ni4  1  0.20866100  0.38131000  0.86875600  1
  Ni  Ni5  1  0.29133900  0.38131000  0.36875600  1
  Ni  Ni6  1  0.66847100  0.11707500  0.63210200  1
  Ni  Ni7  1  0.83152900  0.11707500  0.13210200  1
  P  P0  1  0.89135000  0.85734600  0.85089800  1
  P  P1  1  0.60865000  0.85734600  0.35089800  1
  P  P2  1  0.14394800  0.62840700  0.60423100  1
  P  P3  1  0.35605200  0.62840700  0.10423100  1
  P  P4  1  0.64394800  0.37159300  0.89576900  1
  P  P5  1  0.85605200  0.37159300  0.39576900  1
  P  P6  1  0.39135000  0.14265400  0.64910200  1
  P  P7  1  0.10865000  0.14265400  0.14910200  1
  O  O0  1  0.80581500  0.87539100  0.98337600  1
  O  O1  1  0.48717800  0.93950500  0.66592200  1
  O  O2  1  0.69418500  0.87539100  0.48337600  1
  O  O3  1  0.01282200  0.93950500  0.16592200  1
  O  O4  1  0.79079500  0.86342400  0.72952900  1
  O  O5  1  0.05776300  0.83509400  0.58296200  1
  O  O6  1  0.70920500  0.86342400  0.22952900  1
  O  O7  1  0.44223700  0.83509400  0.08296200  1
  O  O8  1  0.23334600  0.65156200  0.73380100  1
  O  O9  1  0.97423800  0.64118500  0.86196700  1
  O  O10  1  0.26665400  0.65156200  0.23380100  1
  O  O11  1  0.52576200  0.64118500  0.36196700  1
  O  O12  1  0.57053500  0.59512200  0.87245800  1
  O  O13  1  0.25629300  0.62136100  0.98378500  1
  O  O14  1  0.92946500  0.59512200  0.37245800  1
  O  O15  1  0.24370700  0.62136100  0.48378500  1
  O  O16  1  0.75629300  0.37863900  0.51621500  1
  O  O17  1  0.07053500  0.40487800  0.62754200  1
  O  O18  1  0.74370700  0.37863900  0.01621500  1
  O  O19  1  0.42946500  0.40487800  0.12754200  1
  O  O20  1  0.47423800  0.35881500  0.63803300  1
  O  O21  1  0.73334600  0.34843800  0.76619900  1
  O  O22  1  0.02576200  0.35881500  0.13803300  1
  O  O23  1  0.76665400  0.34843800  0.26619900  1
  O  O24  1  0.55776300  0.16490600  0.91703800  1
  O  O25  1  0.29079500  0.13657600  0.77047100  1
  O  O26  1  0.94223700  0.16490600  0.41703800  1
  O  O27  1  0.20920500  0.13657600  0.27047100  1
  O  O28  1  0.98717800  0.06049500  0.83407800  1
  O  O29  1  0.30581500  0.12460900  0.51662400  1
  O  O30  1  0.51282200  0.06049500  0.33407800  1
  O  O31  1  0.19418500  0.12460900  0.01662400  1
loop_
_geom_bond_atom_site_label_1
_geom_bond_atom_site_label_2
_geom_bond_distance
_geom_bond_site_symmetry_2
Li0 O26 1.867365 1_565
Li0 O14 1.907232 1_555
Li0 O5 1.937782 1_655
Li0 O2 2.137784 1_555
Li1 O24 1.867365 1_565
Li1 O12 1.907232 1_555
Li1 O7 1.937782 1_556
Li1 O0 2.137784 1_555
Li2 O1 1.949591 1_555
Li2 O12 1.971463 1_555
Li2 O20 1.995336 1_555
Li2 O8 2.024739 1_555
Li3 O3 1.949591 1_555
Li3 O14 1.971463 1_455
Li3 O22 1.995336 1_555
Li3 O10 2.024739 1_555
Li4 O28 1.949591 1_555
Li4 O17 1.971463 1_655
Li4 O9 1.995336 1_555
Li4 O21 2.024739 1_555
Li5 O30 1.949591 1_555
Li5 O19 1.971463 1_555
Li5 O11 1.995336 1_555
Li5 O23 2.024739 1_555
Li6 O7 1.867365 1_545
Li6 O19 1.907232 1_555
Li6 O24 1.937782 1_554
Li6 O31 2.137784 1_555
Li7 O5 1.867365 1_545
Li7 O17 1.907232 1_555
Li7 O26 1.937782 1_455
Li7 O29 2.137784 1_555
Ni0 O13 2.070864 1_555
Ni0 O8 2.096750 1_555
Ni0 O28 2.122925 1_465
Ni0 O25 2.128668 1_565
Ni0 O31 2.160638 1_566
Ni0 O9 2.429777 1_455
Ni1 O15 2.070864 1_555
Ni1 O10 2.096750 1_555
Ni1 O30 2.122925 1_565
Ni1 O27 2.128668 1_565
Ni1 O29 2.160638 1_565
Ni1 O11 2.429777 1_555
Ni2 O16 1.959002 1_555
Ni2 O4 1.995374 1_555
Ni2 O21 2.039597 1_555
Ni2 O2 2.054530 1_555
Ni3 O18 1.959002 1_555
Ni3 O6 1.995374 1_555
Ni3 O23 2.039597 1_555
Ni3 O0 2.054530 1_554
Ni4 O13 1.959002 1_555
Ni4 O25 1.995374 1_555
Ni4 O8 2.039597 1_555
Ni4 O31 2.054530 1_556
Ni5 O15 1.959002 1_555
Ni5 O27 1.995374 1_555
Ni5 O10 2.039597 1_555
Ni5 O29 2.054530 1_555
Ni6 O16 2.070864 1_555
Ni6 O21 2.096750 1_555
Ni6 O1 2.122925 1_545
Ni6 O4 2.128668 1_545
Ni6 O2 2.160638 1_545
Ni6 O20 2.429777 1_555
Ni7 O18 2.070864 1_555
Ni7 O23 2.096750 1_555
Ni7 O3 2.122925 1_645
Ni7 O6 2.128668 1_545
Ni7 O0 2.160638 1_544
Ni7 O22 2.429777 1_655
O0 P0 1.592908 1_555
O1 P6 1.545542 1_565
O2 P1 1.592908 1_555
O3 P7 1.545542 1_565
O4 P0 1.581017 1_555
O5 P2 1.506915 1_555
O6 P1 1.581017 1_555
O7 P3 1.506915 1_555
O8 P2 1.594341 1_555
O9 P0 1.529793 1_555
O10 P3 1.594341 1_555
O11 P1 1.529793 1_555
O12 P4 1.524064 1_555
O13 P3 1.573287 1_556
O14 P5 1.524064 1_555
O15 P2 1.573287 1_555
O16 P5 1.573287 1_555
O17 P2 1.524064 1_555
O18 P4 1.573287 1_554
O19 P3 1.524064 1_555
O20 P6 1.529793 1_555
O21 P4 1.594341 1_555
O22 P7 1.529793 1_555
O23 P5 1.594341 1_555
O24 P4 1.506915 1_555
O25 P6 1.581017 1_555
O26 P5 1.506915 1_555
O27 P7 1.581017 1_555
O28 P0 1.545542 1_545
O29 P6 1.592908 1_555
O30 P1 1.545542 1_545
O31 P7 1.592908 1_555
