# generated using pymatgen
data_CrP6(WO8)3
_symmetry_space_group_name_H-M   'P 1'
_cell_length_a   8.90255418
_cell_length_b   8.90255418
_cell_length_c   8.90255369
_cell_angle_alpha   58.91162971
_cell_angle_beta   58.91162971
_cell_angle_gamma   58.91163342
_symmetry_Int_Tables_number   1
_chemical_formula_structural   CrP6(WO8)3
_chemical_formula_sum   'Cr1 P6 W3 O24'
_cell_volume   486.52503124
_cell_formula_units_Z   1
loop_
 _symmetry_equiv_pos_site_id
 _symmetry_equiv_pos_as_xyz
  1  'x, y, z'
loop_
 _atom_site_type_symbol
 _atom_site_label
 _atom_site_symmetry_multiplicity
 _atom_site_fract_x
 _atom_site_fract_y
 _atom_site_fract_z
 _atom_site_occupancy
  Cr  Cr0  1  0.14272700  0.14272700  0.14272700  1
  P  P0  1  0.53050300  0.96577400  0.24899900  1
  P  P1  1  0.24899900  0.53050300  0.96577400  1
  P  P2  1  0.96577400  0.24899900  0.53050300  1
  P  P3  1  0.03708200  0.75671400  0.45755400  1
  P  P4  1  0.75671400  0.45755400  0.03708200  1
  P  P5  1  0.45755400  0.03708200  0.75671400  1
  W  W0  1  0.85769100  0.85769100  0.85769100  1
  W  W1  1  0.64283900  0.64283900  0.64283900  1
  W  W2  1  0.35810900  0.35810900  0.35810900  1
  O  O0  1  0.49483400  0.86817500  0.71635100  1
  O  O1  1  0.86817500  0.71635100  0.49483400  1
  O  O2  1  0.71335400  0.93776900  0.07974200  1
  O  O3  1  0.71635100  0.49483400  0.86817500  1
  O  O4  1  0.56580000  0.78764700  0.41951900  1
  O  O5  1  0.36438100  0.98992900  0.22405800  1
  O  O6  1  0.07974200  0.71335400  0.93776900  1
  O  O7  1  0.41951900  0.56580000  0.78764700  1
  O  O8  1  0.78764700  0.41951900  0.56580000  1
  O  O9  1  0.00808100  0.77886700  0.63420200  1
  O  O10  1  0.05914000  0.92260700  0.28465300  1
  O  O11  1  0.77886700  0.63420200  0.00808100  1
  O  O12  1  0.22405800  0.36438100  0.98992900  1
  O  O13  1  0.93776900  0.07974200  0.71335400  1
  O  O14  1  0.98992900  0.22405800  0.36438100  1
  O  O15  1  0.21166900  0.57845600  0.43988100  1
  O  O16  1  0.57845600  0.43988100  0.21166900  1
  O  O17  1  0.92260700  0.28465300  0.05914000  1
  O  O18  1  0.63420200  0.00808100  0.77886700  1
  O  O19  1  0.43988100  0.21166900  0.57845600  1
  O  O20  1  0.27983300  0.50945100  0.13360600  1
  O  O21  1  0.28465300  0.05914000  0.92260700  1
  O  O22  1  0.13360600  0.27983300  0.50945100  1
  O  O23  1  0.50945100  0.13360600  0.27983300  1
loop_
_geom_bond_atom_site_label_1
_geom_bond_atom_site_label_2
_geom_bond_distance
_geom_bond_site_symmetry_2
Cr0 O14 1.988668 1_455
Cr0 O12 1.988668 1_554
Cr0 O5 1.988668 1_545
Cr0 O21 1.992055 1_554
Cr0 O10 1.992055 1_545
Cr0 O17 1.992055 1_455
O0 P5 1.555589 1_565
O0 W1 1.980983 1_555
O1 P3 1.555589 1_655
O1 W1 1.980983 1_555
O2 P0 1.555073 1_555
O2 W0 1.988287 1_554
O3 P4 1.555589 1_556
O3 W1 1.980983 1_555
O4 P0 1.552388 1_555
O4 W1 1.983212 1_555
O5 P0 1.498031 1_555
O6 P1 1.555073 1_555
O6 W0 1.988287 1_455
O7 P1 1.552388 1_555
O7 W1 1.983212 1_555
O8 P2 1.552388 1_555
O8 W1 1.983212 1_555
O9 P3 1.557911 1_555
O9 W0 1.991029 1_455
O10 P3 1.492887 1_555
O11 P4 1.557911 1_555
O11 W0 1.991029 1_554
O12 P1 1.498031 1_555
O13 P2 1.555073 1_555
O13 W0 1.988287 1_545
O14 P2 1.498031 1_555
O15 P3 1.554664 1_555
O15 W2 1.982733 1_555
O16 P4 1.554664 1_555
O16 W2 1.982733 1_555
O17 P4 1.492887 1_555
O18 P5 1.557911 1_555
O18 W0 1.991029 1_545
O19 P5 1.554664 1_555
O19 W2 1.982733 1_555
O20 P1 1.556970 1_554
O20 W2 1.995817 1_555
O21 P5 1.492887 1_555
O22 P2 1.556970 1_455
O22 W2 1.995818 1_555
O23 P0 1.556970 1_545
O23 W2 1.995818 1_555
