# generated using pymatgen
data_Tm3TaO7
_symmetry_space_group_name_H-M   'P 1'
_cell_length_a   7.38095400
_cell_length_b   7.48660500
_cell_length_c   10.45799900
_cell_angle_alpha   90.00000000
_cell_angle_beta   90.00000000
_cell_angle_gamma   90.00000000
_symmetry_Int_Tables_number   1
_chemical_formula_structural   Tm3TaO7
_chemical_formula_sum   'Tm12 Ta4 O28'
_cell_volume   577.89111145
_cell_formula_units_Z   4
loop_
 _symmetry_equiv_pos_site_id
 _symmetry_equiv_pos_as_xyz
  1  'x, y, z'
loop_
 _atom_site_type_symbol
 _atom_site_label
 _atom_site_symmetry_multiplicity
 _atom_site_fract_x
 _atom_site_fract_y
 _atom_site_fract_z
 _atom_site_occupancy
  Tm  Tm0  1  0.01490000  0.79714900  0.25000000  1
  Tm  Tm1  1  0.25244200  0.96991900  0.51975500  1
  Tm  Tm2  1  0.25244200  0.96991900  0.98024500  1
  Tm  Tm3  1  0.24755800  0.46991900  0.01975500  1
  Tm  Tm4  1  0.24755800  0.46991900  0.48024500  1
  Tm  Tm5  1  0.48510000  0.29714900  0.75000000  1
  Tm  Tm6  1  0.51490000  0.70285100  0.25000000  1
  Tm  Tm7  1  0.75244200  0.53008100  0.51975500  1
  Tm  Tm8  1  0.75244200  0.53008100  0.98024500  1
  Tm  Tm9  1  0.74755800  0.03008100  0.01975500  1
  Tm  Tm10  1  0.74755800  0.03008100  0.48024500  1
  Tm  Tm11  1  0.98510000  0.20285100  0.75000000  1
  Ta  Ta0  1  0.99829800  0.74857200  0.75000000  1
  Ta  Ta1  1  0.50170200  0.24857200  0.25000000  1
  Ta  Ta2  1  0.49829800  0.75142800  0.75000000  1
  Ta  Ta3  1  0.00170200  0.25142800  0.25000000  1
  O  O0  1  0.03755100  0.04484300  0.12371000  1
  O  O1  1  0.03755100  0.04484300  0.37629000  1
  O  O2  1  0.04003900  0.58320700  0.61056600  1
  O  O3  1  0.04003900  0.58320700  0.88943400  1
  O  O4  1  0.24931800  0.33982300  0.25000000  1
  O  O5  1  0.25630100  0.73250600  0.11580600  1
  O  O6  1  0.25630100  0.73250600  0.38419400  1
  O  O7  1  0.24369900  0.23250600  0.61580600  1
  O  O8  1  0.24369900  0.23250600  0.88419400  1
  O  O9  1  0.25068200  0.83982300  0.75000000  1
  O  O10  1  0.45996100  0.08320700  0.11056600  1
  O  O11  1  0.45996100  0.08320700  0.38943400  1
  O  O12  1  0.46244900  0.54484300  0.62371000  1
  O  O13  1  0.46244900  0.54484300  0.87629000  1
  O  O14  1  0.53755100  0.45515700  0.12371000  1
  O  O15  1  0.53755100  0.45515700  0.37629000  1
  O  O16  1  0.54003900  0.91679300  0.61056600  1
  O  O17  1  0.54003900  0.91679300  0.88943400  1
  O  O18  1  0.74931800  0.16017700  0.25000000  1
  O  O19  1  0.75630100  0.76749400  0.11580600  1
  O  O20  1  0.75630100  0.76749400  0.38419400  1
  O  O21  1  0.74369900  0.26749400  0.61580600  1
  O  O22  1  0.74369900  0.26749400  0.88419400  1
  O  O23  1  0.75068200  0.66017700  0.75000000  1
  O  O24  1  0.95996100  0.41679300  0.11056600  1
  O  O25  1  0.95996100  0.41679300  0.38943400  1
  O  O26  1  0.96244900  0.95515700  0.62371000  1
  O  O27  1  0.96244900  0.95515700  0.87629000  1
loop_
_geom_bond_atom_site_label_1
_geom_bond_atom_site_label_2
_geom_bond_distance
_geom_bond_site_symmetry_2
O0 Ta3 2.050952 1_555
O0 Tm2 2.254201 1_544
O0 Tm0 2.282774 1_545
O0 Tm9 2.403238 1_455
O1 Ta3 2.050952 1_555
O1 Tm1 2.254201 1_545
O1 Tm0 2.282774 1_545
O1 Tm10 2.403238 1_455
O2 Ta0 1.937516 1_455
O2 Tm4 2.218761 1_555
O2 Tm7 2.359269 1_455
O3 Ta0 1.937516 1_455
O3 Tm3 2.218761 1_556
O3 Tm8 2.359269 1_455
O4 Ta3 1.943766 1_555
O4 Ta1 1.984152 1_555
O4 Tm4 2.597459 1_555
O4 Tm3 2.597459 1_555
O5 Tm3 2.208595 1_555
O5 Tm2 2.273739 1_554
O5 Tm0 2.319149 1_555
O5 Tm6 2.379493 1_555
O6 Tm4 2.208595 1_555
O6 Tm1 2.273739 1_555
O6 Tm0 2.319149 1_555
O6 Tm6 2.379493 1_555
O7 Tm1 2.208595 1_545
O7 Tm4 2.273739 1_555
O7 Tm5 2.319149 1_555
O7 Tm11 2.379493 1_455
O8 Tm2 2.208595 1_545
O8 Tm3 2.273739 1_556
O8 Tm5 2.319149 1_555
O8 Tm11 2.379493 1_455
O9 Ta2 1.943766 1_555
O9 Ta0 1.984152 1_455
O9 Tm2 2.597459 1_555
O9 Tm1 2.597459 1_555
O10 Ta1 1.937516 1_555
O10 Tm2 2.218761 1_544
O10 Tm9 2.359269 1_555
O11 Ta1 1.937516 1_555
O11 Tm1 2.218761 1_545
O11 Tm10 2.359269 1_555
O12 Ta2 2.050952 1_555
O12 Tm4 2.254201 1_555
O12 Tm5 2.282774 1_555
O12 Tm7 2.403238 1_555
O13 Ta2 2.050952 1_555
O13 Tm3 2.254201 1_556
O13 Tm5 2.282774 1_555
O13 Tm8 2.403238 1_555
O14 Ta1 2.050952 1_555
O14 Tm8 2.254201 1_554
O14 Tm6 2.282774 1_555
O14 Tm3 2.403238 1_555
O15 Ta1 2.050952 1_555
O15 Tm7 2.254201 1_555
O15 Tm6 2.282774 1_555
O15 Tm4 2.403238 1_555
O16 Ta2 1.937516 1_555
O16 Tm10 2.218761 1_565
O16 Tm1 2.359269 1_555
O17 Ta2 1.937516 1_555
O17 Tm9 2.218761 1_566
O17 Tm2 2.359269 1_555
O18 Ta1 1.943766 1_555
O18 Ta3 1.984152 1_655
O18 Tm10 2.597459 1_555
O18 Tm9 2.597459 1_555
O19 Tm9 2.208595 1_565
O19 Tm8 2.273739 1_554
O19 Tm6 2.319149 1_555
O19 Tm0 2.379493 1_655
O20 Tm10 2.208595 1_565
O20 Tm7 2.273739 1_555
O20 Tm6 2.319149 1_555
O20 Tm0 2.379493 1_655
O21 Tm7 2.208595 1_555
O21 Tm10 2.273739 1_555
O21 Tm11 2.319149 1_555
O21 Tm5 2.379493 1_555
O22 Tm8 2.208595 1_555
O22 Tm9 2.273739 1_556
O22 Tm11 2.319149 1_555
O22 Tm5 2.379493 1_555
O23 Ta0 1.943766 1_555
O23 Ta2 1.984152 1_555
O23 Tm8 2.597459 1_555
O23 Tm7 2.597459 1_555
O24 Ta3 1.937516 1_655
O24 Tm8 2.218761 1_554
O24 Tm3 2.359269 1_655
O25 Ta3 1.937516 1_655
O25 Tm7 2.218761 1_555
O25 Tm4 2.359269 1_655
O26 Ta0 2.050952 1_555
O26 Tm10 2.254201 1_565
O26 Tm11 2.282774 1_565
O26 Tm1 2.403238 1_655
O27 Ta0 2.050952 1_555
O27 Tm9 2.254201 1_566
O27 Tm11 2.282774 1_565
O27 Tm2 2.403238 1_655
