# generated using pymatgen
data_Li4Nb2V3Cu3O16
_symmetry_space_group_name_H-M   'P 1'
_cell_length_a   6.06580624
_cell_length_b   5.87845531
_cell_length_c   9.84113686
_cell_angle_alpha   89.96598407
_cell_angle_beta   88.56158831
_cell_angle_gamma   119.00641702
_symmetry_Int_Tables_number   1
_chemical_formula_structural   Li4Nb2V3Cu3O16
_chemical_formula_sum   'Li4 Nb2 V3 Cu3 O16'
_cell_volume   306.76523704
_cell_formula_units_Z   1
loop_
 _symmetry_equiv_pos_site_id
 _symmetry_equiv_pos_as_xyz
  1  'x, y, z'
loop_
 _atom_site_type_symbol
 _atom_site_label
 _atom_site_symmetry_multiplicity
 _atom_site_fract_x
 _atom_site_fract_y
 _atom_site_fract_z
 _atom_site_occupancy
  Li  Li0  1  0.32989900  0.66458800  0.90762400  1
  Li  Li1  1  0.98146200  0.99065000  0.99572600  1
  Li  Li2  1  0.00401600  0.00185900  0.48301200  1
  Li  Li3  1  0.70938800  0.35529800  0.40339800  1
  Nb  Nb0  1  0.31523100  0.65795300  0.49999200  1
  Nb  Nb1  1  0.65123900  0.32532200  0.99817200  1
  V  V0  1  0.64644500  0.82320700  0.23858400  1
  V  V1  1  0.80714200  0.64907100  0.71863800  1
  V  V2  1  0.80721300  0.15827200  0.71845700  1
  Cu  Cu0  1  0.16573300  0.82574900  0.20421000  1
  Cu  Cu1  1  0.16555700  0.34010700  0.20433200  1
  Cu  Cu2  1  0.32638000  0.16343400  0.72259900  1
  O  O0  1  0.16409000  0.83400200  0.59252200  1
  O  O1  1  0.07631700  0.53891800  0.35006500  1
  O  O2  1  0.36720900  0.68356400  0.11923300  1
  O  O3  1  0.98461200  0.99227700  0.28781900  1
  O  O4  1  0.96328700  0.98181900  0.80646400  1
  O  O5  1  0.16371600  0.33019200  0.59254200  1
  O  O6  1  0.53873200  0.98691900  0.35196000  1
  O  O7  1  0.53762300  0.55143400  0.35204900  1
  O  O8  1  0.31540200  0.15700300  0.07573400  1
  O  O9  1  0.66985500  0.83470900  0.59757400  1
  O  O10  1  0.52496700  0.49533000  0.83536600  1
  O  O11  1  0.52448900  0.02912200  0.83525700  1
  O  O12  1  0.72446900  0.36217200  0.60110500  1
  O  O13  1  0.79217400  0.64949300  0.08913700  1
  O  O14  1  0.95024400  0.47497400  0.83723900  1
  O  O15  1  0.79311000  0.14285900  0.08902900  1
loop_
_geom_bond_atom_site_label_1
_geom_bond_atom_site_label_2
_geom_bond_distance
_geom_bond_site_symmetry_2
Li0 O11 1.998847 1_565
Li0 O10 1.999017 1_555
Li0 O2 2.097572 1_556
Li0 O14 2.148764 1_455
Li1 O4 1.867840 1_555
Li1 O8 1.959409 1_666
Li1 O15 1.971985 1_566
Li1 O13 1.974079 1_556
Li2 O3 1.926659 1_445
Li2 O0 2.014535 1_545
Li2 O5 2.016717 1_555
Li2 O9 2.073045 1_445
Li3 O12 1.949627 1_555
Li3 O7 1.964947 1_555
Li3 O6 1.967441 1_545
Li3 O1 2.001291 1_655
Nb0 O0 1.902646 1_555
Nb0 O5 1.903961 1_555
Nb0 O1 1.972793 1_555
Nb0 O9 2.136881 1_555
Nb0 O7 2.247943 1_555
Nb0 O6 2.248289 1_555
Nb1 O15 1.903467 1_556
Nb1 O13 1.903719 1_556
Nb1 O8 1.917746 1_556
Nb1 O14 2.208730 1_555
Nb1 O10 2.225880 1_555
Nb1 O11 2.227165 1_555
Cu0 O2 1.957469 1_555
Cu0 O3 1.959830 1_455
Cu0 O1 2.066065 1_555
Cu0 O8 2.107033 1_565
Cu0 O13 2.311658 1_455
Cu0 O6 2.493755 1_555
Cu1 O2 1.955860 1_555
Cu1 O3 1.958770 1_445
Cu1 O1 2.071787 1_555
Cu1 O8 2.116370 1_555
Cu1 O15 2.307761 1_455
Cu1 O7 2.489544 1_555
Cu2 O10 2.068710 1_555
Cu2 O11 2.069450 1_555
Cu2 O4 2.073417 1_445
Cu2 O5 2.138367 1_555
Cu2 O0 2.139009 1_545
Cu2 O12 2.396418 1_555
O0 V1 2.234041 1_455
O2 V0 1.917012 1_555
O3 V0 1.871769 1_555
O4 V2 1.927373 1_565
O4 V1 1.927846 1_555
O5 V2 2.231066 1_455
O6 V0 1.781130 1_555
O7 V0 1.781308 1_555
O9 V1 2.057520 1_555
O9 V2 2.059788 1_565
O10 V1 1.861685 1_555
O11 V2 1.864395 1_555
O12 V2 1.906104 1_555
O12 V1 1.909165 1_555
O13 V0 2.190700 1_555
O14 V2 2.017969 1_555
O14 V1 2.018450 1_555
O15 V0 2.190490 1_545
