# generated using pymatgen
data_Fe5(O4F)2
_symmetry_space_group_name_H-M   'P 1'
_cell_length_a   4.66042000
_cell_length_b   5.54888100
_cell_length_c   12.93551283
_cell_angle_alpha   78.23086893
_cell_angle_beta   90.00000000
_cell_angle_gamma   90.00000000
_symmetry_Int_Tables_number   1
_chemical_formula_structural   Fe5(O4F)2
_chemical_formula_sum   'Fe10 O16 F4'
_cell_volume   327.48151835
_cell_formula_units_Z   2
loop_
 _symmetry_equiv_pos_site_id
 _symmetry_equiv_pos_as_xyz
  1  'x, y, z'
loop_
 _atom_site_type_symbol
 _atom_site_label
 _atom_site_symmetry_multiplicity
 _atom_site_fract_x
 _atom_site_fract_y
 _atom_site_fract_z
 _atom_site_occupancy
  Fe  Fe0  1  0.00235600  0.15958500  0.40247800  1
  Fe  Fe1  1  0.97280200  0.75510300  0.99376600  1
  Fe  Fe2  1  0.97706800  0.96504400  0.19600400  1
  Fe  Fe3  1  0.01411600  0.56177400  0.79555200  1
  Fe  Fe4  1  0.02782300  0.35849500  0.59841000  1
  Fe  Fe5  1  0.47280200  0.24489700  0.00623400  1
  Fe  Fe6  1  0.50235600  0.84041500  0.59752200  1
  Fe  Fe7  1  0.51411600  0.43822600  0.20444800  1
  Fe  Fe8  1  0.47706800  0.03495600  0.80399600  1
  Fe  Fe9  1  0.52782300  0.64150500  0.40159000  1
  O  O0  1  0.29704100  0.19874900  0.14514600  1
  O  O1  1  0.31931100  0.59773700  0.53076100  1
  O  O2  1  0.31041200  0.79515200  0.73286700  1
  O  O3  1  0.31908900  0.39782700  0.34078800  1
  O  O4  1  0.29203200  0.99499600  0.94176300  1
  O  O5  1  0.18329400  0.49667000  0.93597600  1
  O  O6  1  0.19658300  0.29511600  0.73766900  1
  O  O7  1  0.19941800  0.09386000  0.54203000  1
  O  O8  1  0.79203200  0.00500400  0.05823700  1
  O  O9  1  0.81908900  0.60217300  0.65921200  1
  O  O10  1  0.81041200  0.20484800  0.26713300  1
  O  O11  1  0.81931100  0.40226300  0.46923900  1
  O  O12  1  0.79704100  0.80125100  0.85485400  1
  O  O13  1  0.69658300  0.70488400  0.26233100  1
  O  O14  1  0.69941800  0.90614000  0.45797000  1
  O  O15  1  0.68329400  0.50333000  0.06402400  1
  F  F0  1  0.19860100  0.89181200  0.33849600  1
  F  F1  1  0.19005600  0.69527500  0.14008200  1
  F  F2  1  0.69005600  0.30472500  0.85991800  1
  F  F3  1  0.69860100  0.10818800  0.66150400  1
loop_
_geom_bond_atom_site_label_1
_geom_bond_atom_site_label_2
_geom_bond_distance
_geom_bond_site_symmetry_2
Fe0 O10 1.936248 1_455
Fe0 O11 1.939383 1_455
Fe0 O7 1.991619 1_555
Fe0 O14 2.018530 1_445
Fe0 O3 2.032970 1_555
Fe1 O12 1.943622 1_555
Fe1 O8 1.949321 1_566
Fe1 O5 2.003708 1_655
Fe1 O4 2.018053 1_655
Fe1 O15 2.019951 1_556
Fe2 O10 1.928695 1_565
Fe2 O8 1.951267 1_565
Fe2 O0 1.997541 1_665
Fe2 O13 2.005878 1_555
Fe3 O5 1.945242 1_555
Fe3 O12 1.947696 1_455
Fe3 O2 1.952669 1_555
Fe3 O9 1.955881 1_455
Fe3 O6 1.981181 1_555
Fe4 O11 1.905159 1_455
Fe4 O6 1.931013 1_555
Fe4 O7 1.940249 1_555
Fe4 O9 1.956276 1_455
Fe4 O1 1.974738 1_555
Fe5 O0 1.943622 1_555
Fe5 O4 1.949321 1_544
Fe5 O15 2.003708 1_555
Fe5 O8 2.018053 1_555
Fe5 O5 2.019951 1_554
Fe6 O2 1.936248 1_555
Fe6 O1 1.939383 1_555
Fe6 O14 1.991619 1_555
Fe6 O7 2.018530 1_565
Fe6 O9 2.032970 1_555
Fe7 O15 1.945242 1_555
Fe7 O0 1.947696 1_555
Fe7 O10 1.952669 1_555
Fe7 O3 1.955881 1_555
Fe7 O13 1.981181 1_555
Fe8 O2 1.928695 1_545
Fe8 O4 1.951267 1_545
Fe8 O12 1.997541 1_545
Fe8 O6 2.005878 1_555
Fe9 O1 1.905159 1_555
Fe9 O13 1.931013 1_555
Fe9 O14 1.940249 1_555
Fe9 O3 1.956276 1_555
Fe9 O11 1.974738 1_555
F0 Fe0 2.056898 1_565
F0 Fe2 2.079163 1_455
F0 Fe9 2.118231 1_555
F1 Fe2 2.047205 1_455
F1 Fe1 2.112166 1_454
F1 Fe7 2.126988 1_555
F2 Fe8 2.047205 1_555
F2 Fe5 2.112166 1_556
F2 Fe3 2.126988 1_655
F3 Fe6 2.056898 1_545
F3 Fe8 2.079163 1_555
F3 Fe4 2.118231 1_655
