# generated using pymatgen
data_Na3SiSnCO7
_symmetry_space_group_name_H-M   'P 1'
_cell_length_a   6.91975800
_cell_length_b   5.22338900
_cell_length_c   9.33967545
_cell_angle_alpha   89.26548872
_cell_angle_beta   90.00000000
_cell_angle_gamma   90.00000000
_symmetry_Int_Tables_number   1
_chemical_formula_structural   Na3SiSnCO7
_chemical_formula_sum   'Na6 Si2 Sn2 C2 O14'
_cell_volume   337.55098035
_cell_formula_units_Z   2
loop_
 _symmetry_equiv_pos_site_id
 _symmetry_equiv_pos_as_xyz
  1  'x, y, z'
loop_
 _atom_site_type_symbol
 _atom_site_label
 _atom_site_symmetry_multiplicity
 _atom_site_fract_x
 _atom_site_fract_y
 _atom_site_fract_z
 _atom_site_occupancy
  Na  Na0  1  0.25000000  0.76238600  0.91445900  1
  Na  Na1  1  0.00741800  0.25055200  0.74368600  1
  Na  Na2  1  0.49258200  0.25055200  0.74368600  1
  Na  Na3  1  0.50741800  0.74944800  0.25631400  1
  Na  Na4  1  0.99258200  0.74944800  0.25631400  1
  Na  Na5  1  0.75000000  0.23761400  0.08554100  1
  Si  Si0  1  0.25000000  0.70571500  0.58983100  1
  Si  Si1  1  0.75000000  0.29428500  0.41016900  1
  Sn  Sn0  1  0.75000000  0.77750200  0.63429300  1
  Sn  Sn1  1  0.25000000  0.22249800  0.36570700  1
  C  C0  1  0.75000000  0.73332800  0.94533600  1
  C  C1  1  0.25000000  0.26667200  0.05466400  1
  O  O0  1  0.25000000  0.28161200  0.91652500  1
  O  O1  1  0.75000000  0.95680900  0.88025300  1
  O  O2  1  0.75000000  0.52446100  0.86984300  1
  O  O3  1  0.06227700  0.79794200  0.68603700  1
  O  O4  1  0.43772300  0.79794200  0.68603700  1
  O  O5  1  0.25000000  0.38843700  0.58055000  1
  O  O6  1  0.75000000  0.17841200  0.57649600  1
  O  O7  1  0.25000000  0.82158800  0.42350400  1
  O  O8  1  0.75000000  0.61156300  0.41945000  1
  O  O9  1  0.56227700  0.20205800  0.31396300  1
  O  O10  1  0.93772300  0.20205800  0.31396300  1
  O  O11  1  0.25000000  0.47553900  0.13015700  1
  O  O12  1  0.25000000  0.04319100  0.11974700  1
  O  O13  1  0.75000000  0.71838800  0.08347500  1
loop_
_geom_bond_atom_site_label_1
_geom_bond_atom_site_label_2
_geom_bond_distance
_geom_bond_site_symmetry_2
Na0 O12 2.428909 1_566
Na0 O11 2.495188 1_556
Na0 O4 2.502613 1_555
Na0 O3 2.502613 1_555
Na0 O0 2.511096 1_555
Na0 O0 2.712435 1_565
Na1 O0 2.335936 1_555
Na1 O5 2.372718 1_555
Na1 O6 2.401725 1_455
Na1 O3 2.460870 1_545
Na1 O2 2.579041 1_455
Na1 O1 2.665297 1_445
Na1 O3 2.927411 1_555
Na2 O0 2.335936 1_555
Na2 O5 2.372718 1_555
Na2 O6 2.401725 1_555
Na2 O4 2.460870 1_545
Na2 O2 2.579041 1_555
Na2 O1 2.665297 1_545
Na2 O4 2.927411 1_555
Na3 O13 2.335936 1_555
Na3 O8 2.372718 1_555
Na3 O7 2.401725 1_555
Na3 O9 2.460870 1_565
Na3 O11 2.579041 1_555
Na3 O12 2.665297 1_565
Na3 O9 2.927411 1_555
Na4 O13 2.335936 1_555
Na4 O8 2.372718 1_555
Na4 O7 2.401725 1_655
Na4 O10 2.460870 1_565
Na4 O11 2.579041 1_655
Na4 O12 2.665297 1_665
Na4 O10 2.927411 1_555
Na5 O1 2.428909 1_544
Na5 O2 2.495188 1_554
Na5 O10 2.502613 1_555
Na5 O9 2.502613 1_555
Na5 O13 2.511096 1_555
Na5 O13 2.712435 1_545
C0 O13 1.291532 1_556
C0 O2 1.306571 1_555
C0 O1 1.309179 1_555
C1 O0 1.291532 1_554
C1 O11 1.306571 1_555
C1 O12 1.309179 1_555
O1 Sn0 2.491873 1_555
O2 Sn0 2.551911 1_555
O3 Si0 1.654668 1_555
O3 Sn0 2.217134 1_455
O4 Si0 1.654668 1_555
O4 Sn0 2.217134 1_555
O5 Si0 1.660641 1_555
O5 Sn1 2.195944 1_555
O6 Si1 1.659939 1_555
O6 Sn0 2.155852 1_545
O7 Si0 1.659939 1_555
O7 Sn1 2.155852 1_565
O8 Si1 1.660641 1_555
O8 Sn0 2.195944 1_555
O9 Si1 1.654668 1_555
O9 Sn1 2.217134 1_555
O10 Si1 1.654668 1_555
O10 Sn1 2.217134 1_655
O11 Sn1 2.551911 1_555
O12 Sn1 2.491873 1_555
