# generated using pymatgen
data_Na2CoPCO7
_symmetry_space_group_name_H-M   'P 1'
_cell_length_a   6.44163700
_cell_length_b   5.26713800
_cell_length_c   8.96685538
_cell_angle_alpha   88.39170477
_cell_angle_beta   90.00000000
_cell_angle_gamma   90.00000000
_symmetry_Int_Tables_number   1
_chemical_formula_structural   Na2CoPCO7
_chemical_formula_sum   'Na4 Co2 P2 C2 O14'
_cell_volume   304.11650562
_cell_formula_units_Z   2
loop_
 _symmetry_equiv_pos_site_id
 _symmetry_equiv_pos_as_xyz
  1  'x, y, z'
loop_
 _atom_site_type_symbol
 _atom_site_label
 _atom_site_symmetry_multiplicity
 _atom_site_fract_x
 _atom_site_fract_y
 _atom_site_fract_z
 _atom_site_occupancy
  Na  Na0  1  0.49690200  0.23750900  0.23448500  1
  Na  Na1  1  0.00309800  0.23750900  0.23448500  1
  Na  Na2  1  0.50309800  0.76249100  0.76551500  1
  Na  Na3  1  0.99690200  0.76249100  0.76551500  1
  Co  Co0  1  0.75000000  0.78371600  0.34862700  1
  Co  Co1  1  0.25000000  0.21628400  0.65137300  1
  P  P0  1  0.25000000  0.71197900  0.42661400  1
  P  P1  1  0.75000000  0.28802100  0.57338600  1
  C  C0  1  0.75000000  0.72232700  0.07459600  1
  C  C1  1  0.25000000  0.27767300  0.92540400  1
  O  O0  1  0.25000000  0.31230100  0.06326600  1
  O  O1  1  0.75000000  0.94650700  0.13425900  1
  O  O2  1  0.75000000  0.53358400  0.17427700  1
  O  O3  1  0.05525900  0.79614800  0.33502800  1
  O  O4  1  0.44474100  0.79614800  0.33502800  1
  O  O5  1  0.75000000  0.15698900  0.42164100  1
  O  O6  1  0.25000000  0.41674000  0.44880800  1
  O  O7  1  0.75000000  0.58326000  0.55119200  1
  O  O8  1  0.25000000  0.84301100  0.57835900  1
  O  O9  1  0.55525900  0.20385200  0.66497200  1
  O  O10  1  0.94474100  0.20385200  0.66497200  1
  O  O11  1  0.25000000  0.46641600  0.82572300  1
  O  O12  1  0.25000000  0.05349300  0.86574100  1
  O  O13  1  0.75000000  0.68769900  0.93673400  1
loop_
_geom_bond_atom_site_label_1
_geom_bond_atom_site_label_2
_geom_bond_distance
_geom_bond_site_symmetry_2
Na0 O0 2.237837 1_555
Na0 O2 2.309597 1_555
Na0 O5 2.369465 1_555
Na0 O1 2.427429 1_545
Na0 O4 2.492454 1_545
Na0 O6 2.686244 1_555
Na1 O0 2.237837 1_555
Na1 O2 2.309597 1_455
Na1 O5 2.369465 1_455
Na1 O1 2.427429 1_445
Na1 O3 2.492454 1_545
Na1 O6 2.686244 1_555
Na2 O13 2.237837 1_555
Na2 O11 2.309597 1_555
Na2 O8 2.369465 1_555
Na2 O12 2.427429 1_565
Na2 O9 2.492454 1_565
Na2 O7 2.686244 1_555
Na3 O13 2.237837 1_555
Na3 O11 2.309597 1_655
Na3 O8 2.369465 1_655
Na3 O12 2.427429 1_665
Na3 O10 2.492454 1_565
Na3 O7 2.686244 1_555
Co0 O3 1.971119 1_655
Co0 O4 1.971119 1_555
Co0 O2 2.072559 1_555
Co0 O7 2.075170 1_555
Co0 O1 2.082683 1_555
Co0 O5 2.089585 1_565
Co1 O9 1.971119 1_555
Co1 O10 1.971119 1_455
Co1 O11 2.072559 1_555
Co1 O6 2.075170 1_555
Co1 O12 2.082683 1_555
Co1 O8 2.089585 1_545
C0 O13 1.254625 1_554
C0 O1 1.309936 1_555
C0 O2 1.318086 1_555
C1 O0 1.254625 1_556
C1 O12 1.309936 1_555
C1 O11 1.318086 1_555
O3 P0 1.556979 1_555
O4 P0 1.556979 1_555
O5 P1 1.542880 1_555
O6 P0 1.562197 1_555
O7 P1 1.562197 1_555
O8 P0 1.542880 1_555
O9 P1 1.556979 1_555
O10 P1 1.556979 1_555
