# generated using pymatgen
data_Fe5O3F7
_symmetry_space_group_name_H-M   'P 1'
_cell_length_a   4.79232500
_cell_length_b   4.79612658
_cell_length_c   15.63097497
_cell_angle_alpha   89.50352567
_cell_angle_beta   89.97932642
_cell_angle_gamma   88.54820670
_symmetry_Int_Tables_number   1
_chemical_formula_structural   Fe5O3F7
_chemical_formula_sum   'Fe10 O6 F14'
_cell_volume   359.14285039
_cell_formula_units_Z   2
loop_
 _symmetry_equiv_pos_site_id
 _symmetry_equiv_pos_as_xyz
  1  'x, y, z'
loop_
 _atom_site_type_symbol
 _atom_site_label
 _atom_site_symmetry_multiplicity
 _atom_site_fract_x
 _atom_site_fract_y
 _atom_site_fract_z
 _atom_site_occupancy
  Fe  Fe0  1  0.99893800  0.00283100  0.99878100  1
  Fe  Fe1  1  0.00165700  0.00374600  0.80238100  1
  Fe  Fe2  1  0.95043300  0.96659000  0.60553800  1
  Fe  Fe3  1  0.03124600  0.03837700  0.39489300  1
  Fe  Fe4  1  0.97470500  0.02084100  0.19918200  1
  Fe  Fe5  1  0.46739900  0.53044400  0.90012600  1
  Fe  Fe6  1  0.49370200  0.50314900  0.49976200  1
  Fe  Fe7  1  0.53928400  0.47493100  0.69429700  1
  Fe  Fe8  1  0.51958000  0.46811400  0.30584100  1
  Fe  Fe9  1  0.52029000  0.48250400  0.10026000  1
  O  O0  1  0.80566600  0.18125300  0.69598200  1
  O  O1  1  0.80908900  0.20428000  0.29512800  1
  O  O2  1  0.81923300  0.17766000  0.09964100  1
  O  O3  1  0.32240900  0.32661400  0.40446300  1
  O  O4  1  0.68700000  0.67901300  0.59512500  1
  O  O5  1  0.17564600  0.82477700  0.90517900  1
  F  F0  1  0.77788100  0.22112600  0.90644300  1
  F  F1  1  0.79894400  0.19459500  0.50589300  1
  F  F2  1  0.28473400  0.30806700  0.00038800  1
  F  F3  1  0.30844700  0.32140700  0.78969100  1
  F  F4  1  0.30048600  0.29101300  0.59562300  1
  F  F5  1  0.30822000  0.29736900  0.20514000  1
  F  F6  1  0.69243100  0.71067900  0.00287200  1
  F  F7  1  0.68276600  0.69104900  0.79222400  1
  F  F8  1  0.70826400  0.70469600  0.40431900  1
  F  F9  1  0.70598200  0.69714200  0.20968300  1
  F  F10  1  0.19020600  0.80614500  0.50521300  1
  F  F11  1  0.20602200  0.77908300  0.68894400  1
  F  F12  1  0.19997400  0.79910800  0.10470400  1
  F  F13  1  0.21936200  0.79339800  0.29228200  1
loop_
_geom_bond_atom_site_label_1
_geom_bond_atom_site_label_2
_geom_bond_distance
_geom_bond_site_symmetry_2
Fe0 O5 1.889750 1_645
Fe0 O2 1.978781 1_556
Fe1 O5 1.988651 1_545
Fe1 O0 2.075819 1_455
Fe2 O0 1.878361 1_565
Fe2 O4 1.901291 1_555
Fe3 O3 1.995479 1_555
Fe3 O1 2.033513 1_455
Fe4 O2 1.869192 1_555
Fe4 O1 1.907824 1_555
Fe5 O5 1.963607 1_555
Fe6 O3 1.915112 1_555
Fe6 O4 1.963127 1_555
Fe7 O0 1.876849 1_555
Fe7 O4 1.967279 1_555
Fe8 O1 1.862448 1_555
Fe8 O3 1.934718 1_555
Fe9 O2 2.020959 1_555
F0 Fe0 2.054349 1_555
F0 Fe5 2.076116 1_555
F0 Fe1 2.203249 1_655
F1 Fe2 2.019880 1_545
F1 Fe6 2.055960 1_555
F1 Fe3 2.188596 1_655
F2 Fe0 2.030252 1_454
F2 Fe5 2.092195 1_554
F2 Fe9 2.117321 1_555
F3 Fe7 2.002595 1_555
F3 Fe1 2.151785 1_555
F3 Fe5 2.152866 1_555
F4 Fe6 2.039137 1_555
F4 Fe7 2.131349 1_555
F4 Fe2 2.321036 1_445
F5 Fe8 2.059070 1_555
F5 Fe4 2.105210 1_455
F5 Fe9 2.127947 1_555
F6 Fe9 2.052180 1_555
F6 Fe0 2.056144 1_564
F6 Fe5 2.135905 1_554
F7 Fe7 1.988618 1_555
F7 Fe5 2.125973 1_555
F7 Fe1 2.174933 1_665
F8 Fe6 2.059523 1_555
F8 Fe8 2.134915 1_555
F8 Fe3 2.258312 1_665
F9 Fe4 2.047533 1_565
F9 Fe8 2.069746 1_555
F9 Fe9 2.203430 1_555
F10 Fe6 2.032106 1_555
F10 Fe2 2.084827 1_455
F10 Fe3 2.172362 1_565
F11 Fe2 1.983367 1_455
F11 Fe7 2.136729 1_555
F11 Fe1 2.289673 1_565
F12 Fe4 2.108360 1_465
F12 Fe0 2.132974 1_464
F12 Fe9 2.133220 1_555
F13 Fe8 2.104655 1_555
F13 Fe4 2.142730 1_465
F13 Fe3 2.178004 1_565
