# generated using pymatgen
data_FeOF
_symmetry_space_group_name_H-M   'P 1'
_cell_length_a   14.37287467
_cell_length_b   14.43294695
_cell_length_c   3.12946800
_cell_angle_alpha   90.00000000
_cell_angle_beta   90.00000000
_cell_angle_gamma   90.31756855
_symmetry_Int_Tables_number   1
_chemical_formula_structural   FeOF
_chemical_formula_sum   'Fe18 O18 F18'
_cell_volume   649.17606332
_cell_formula_units_Z   18
loop_
 _symmetry_equiv_pos_site_id
 _symmetry_equiv_pos_as_xyz
  1  'x, y, z'
loop_
 _atom_site_type_symbol
 _atom_site_label
 _atom_site_symmetry_multiplicity
 _atom_site_fract_x
 _atom_site_fract_y
 _atom_site_fract_z
 _atom_site_occupancy
  Fe  Fe0  1  0.01373500  0.00004800  0.00000000  1
  Fe  Fe1  1  0.99934800  0.33610900  0.00000000  1
  Fe  Fe2  1  0.01428800  0.66291800  0.00000000  1
  Fe  Fe3  1  0.14571900  0.17299200  0.50000000  1
  Fe  Fe4  1  0.14984300  0.49383500  0.50000000  1
  Fe  Fe5  1  0.15289200  0.83139000  0.50000000  1
  Fe  Fe6  1  0.33677900  0.00546400  0.00000000  1
  Fe  Fe7  1  0.34583000  0.33152700  0.00000000  1
  Fe  Fe8  1  0.34440300  0.66131100  0.00000000  1
  Fe  Fe9  1  0.48733300  0.49669200  0.50000000  1
  Fe  Fe10  1  0.48393000  0.16571600  0.50000000  1
  Fe  Fe11  1  0.49661500  0.81580000  0.50000000  1
  Fe  Fe12  1  0.67707300  0.99506000  0.00000000  1
  Fe  Fe13  1  0.68280000  0.33224700  0.00000000  1
  Fe  Fe14  1  0.66635100  0.67758000  0.00000000  1
  Fe  Fe15  1  0.84008600  0.18731700  0.50000000  1
  Fe  Fe16  1  0.83572900  0.48382000  0.50000000  1
  Fe  Fe17  1  0.82208600  0.82985600  0.50000000  1
  O  O0  1  0.06200000  0.27419700  0.50000000  1
  O  O1  1  0.06439800  0.60148000  0.50000000  1
  O  O2  1  0.06696200  0.93754800  0.50000000  1
  O  O3  1  0.09812800  0.10737400  0.00000000  1
  O  O4  1  0.10141700  0.43392200  0.00000000  1
  O  O5  1  0.10251000  0.76939300  0.00000000  1
  O  O6  1  0.39768300  0.26765500  0.50000000  1
  O  O7  1  0.39881400  0.60168100  0.50000000  1
  O  O8  1  0.43658800  0.10030100  0.00000000  1
  O  O9  1  0.43455800  0.43555300  0.00000000  1
  O  O10  1  0.43253800  0.76897700  0.00000000  1
  O  O11  1  0.60270700  0.73030200  0.50000000  1
  O  O12  1  0.73080700  0.26731900  0.50000000  1
  O  O13  1  0.73180400  0.93687400  0.50000000  1
  O  O14  1  0.76948800  0.43503800  0.00000000  1
  O  O15  1  0.77128000  0.76714200  0.00000000  1
  O  O16  1  0.90067200  0.23350000  0.00000000  1
  O  O17  1  0.93674900  0.39877700  0.50000000  1
  F  F0  1  0.23004000  0.23542500  0.00000000  1
  F  F1  1  0.23166100  0.56447800  0.00000000  1
  F  F2  1  0.23568500  0.89976700  0.00000000  1
  F  F3  1  0.26501500  0.06710500  0.50000000  1
  F  F4  1  0.26758500  0.73116400  0.50000000  1
  F  F5  1  0.26863700  0.39750000  0.50000000  1
  F  F6  1  0.39916400  0.93249700  0.50000000  1
  F  F7  1  0.56395800  0.23075300  0.00000000  1
  F  F8  1  0.56809700  0.56238700  0.00000000  1
  F  F9  1  0.56288200  0.90129300  0.00000000  1
  F  F10  1  0.60551000  0.06632500  0.50000000  1
  F  F11  1  0.60082900  0.39828300  0.50000000  1
  F  F12  1  0.73180100  0.60136000  0.50000000  1
  F  F13  1  0.76960600  0.10227500  0.00000000  1
  F  F14  1  0.89779400  0.56779400  0.00000000  1
  F  F15  1  0.89887400  0.89881900  0.00000000  1
  F  F16  1  0.93274200  0.06238500  0.50000000  1
  F  F17  1  0.93618000  0.73367600  0.50000000  1
loop_
_geom_bond_atom_site_label_1
_geom_bond_atom_site_label_2
_geom_bond_distance
_geom_bond_site_symmetry_2
Fe0 O3 1.962132 1_555
Fe0 O2 1.963420 1_545
Fe0 O2 1.963420 1_544
Fe1 O0 2.016597 1_655
Fe1 O0 2.016597 1_654
Fe1 O17 2.021142 1_555
Fe1 O17 2.021142 1_554
Fe1 O4 2.030317 1_655
Fe1 O16 2.044844 1_555
Fe2 O1 1.939198 1_554
Fe2 O1 1.939198 1_555
Fe2 O5 1.986914 1_555
Fe3 O0 1.897624 1_555
Fe3 O3 1.950902 1_555
Fe3 O3 1.950902 1_556
Fe4 O4 1.916744 1_555
Fe4 O4 1.916744 1_556
Fe4 O1 1.985733 1_555
Fe5 O5 1.940682 1_556
Fe5 O5 1.940682 1_555
Fe5 O2 1.973298 1_555
Fe6 O8 1.977295 1_555
Fe7 O9 1.964513 1_555
Fe7 O6 1.965012 1_554
Fe7 O6 1.965012 1_555
Fe8 O7 1.951445 1_554
Fe8 O7 1.951445 1_555
Fe8 O10 1.999391 1_555
Fe9 O9 1.948075 1_556
Fe9 O9 1.948075 1_555
Fe9 O7 1.983982 1_555
Fe10 O6 1.929128 1_555
Fe10 O8 1.948244 1_555
Fe10 O8 1.948244 1_556
Fe11 O10 1.935556 1_556
Fe11 O10 1.935556 1_555
Fe11 O11 1.966912 1_555
Fe12 O13 1.944165 1_555
Fe12 O13 1.944165 1_554
Fe13 O14 1.932076 1_555
Fe13 O12 1.951876 1_554
Fe13 O12 1.951876 1_555
Fe14 O11 1.967712 1_555
Fe14 O11 1.967712 1_554
Fe14 O15 1.980853 1_555
Fe15 O16 1.909068 1_556
Fe15 O16 1.909068 1_555
Fe15 O12 1.954560 1_555
Fe16 O17 1.906429 1_555
Fe16 O14 1.960387 1_555
Fe16 O14 1.960387 1_556
Fe17 O15 1.947714 1_555
Fe17 O15 1.947714 1_556
Fe17 O13 2.022809 1_555
F0 Fe7 2.160545 1_555
F0 Fe3 2.171875 1_554
F0 Fe3 2.171875 1_555
F1 Fe8 2.133992 1_555
F1 Fe4 2.203983 1_555
F1 Fe4 2.203983 1_554
F2 Fe6 2.100923 1_565
F2 Fe5 2.196667 1_554
F2 Fe5 2.196667 1_555
F3 Fe6 2.077008 1_555
F3 Fe6 2.077008 1_556
F3 Fe3 2.303166 1_555
F4 Fe8 2.167071 1_555
F4 Fe8 2.167071 1_556
F4 Fe5 2.199183 1_555
F5 Fe7 2.144229 1_555
F5 Fe7 2.144229 1_556
F5 Fe4 2.207889 1_555
F6 Fe6 2.090915 1_565
F6 Fe6 2.090915 1_566
F6 Fe11 2.196538 1_555
F7 Fe10 2.154198 1_554
F7 Fe10 2.154198 1_555
F7 Fe13 2.244032 1_555
F8 Fe9 2.163956 1_554
F8 Fe9 2.163956 1_555
F8 Fe14 2.175411 1_555
F9 Fe12 2.121462 1_555
F9 Fe11 2.205690 1_555
F9 Fe11 2.205690 1_554
F10 Fe12 2.139161 1_546
F10 Fe12 2.139161 1_545
F10 Fe10 2.266978 1_555
F11 Fe9 2.168882 1_555
F11 Fe13 2.181121 1_555
F11 Fe13 2.181121 1_556
F12 Fe14 2.134236 1_555
F12 Fe14 2.134236 1_556
F12 Fe16 2.266561 1_555
F13 Fe12 2.034829 1_545
F13 Fe15 2.228745 1_554
F13 Fe15 2.228745 1_555
F14 Fe2 2.159372 1_655
F14 Fe16 2.168200 1_555
F14 Fe16 2.168200 1_554
F15 Fe17 2.155224 1_555
F15 Fe17 2.155224 1_554
F15 Fe0 2.198475 1_665
F16 Fe0 2.150490 1_655
F16 Fe0 2.150490 1_656
F16 Fe15 2.247540 1_555
F17 Fe17 2.154382 1_555
F17 Fe2 2.182741 1_656
F17 Fe2 2.182741 1_655
