# generated using pymatgen
data_ReSi
_symmetry_space_group_name_H-M   'P 1'
_cell_length_a   4.77397327
_cell_length_b   4.77397327
_cell_length_c   4.77397327
_cell_angle_alpha   90.00000000
_cell_angle_beta   90.00000000
_cell_angle_gamma   90.00000000
_symmetry_Int_Tables_number   1
_chemical_formula_structural   ReSi
_chemical_formula_sum   'Re4 Si4'
_cell_volume   108.80276922
_cell_formula_units_Z   4
loop_
 _symmetry_equiv_pos_site_id
 _symmetry_equiv_pos_as_xyz
  1  'x, y, z'
loop_
 _atom_site_type_symbol
 _atom_site_label
 _atom_site_symmetry_multiplicity
 _atom_site_fract_x
 _atom_site_fract_y
 _atom_site_fract_z
 _atom_site_occupancy
  Re  Re0  1  0.86571101  0.63428899  0.36571101  1
  Re  Re1  1  0.63428899  0.36571101  0.86571101  1
  Re  Re2  1  0.36571101  0.86571101  0.63428899  1
  Re  Re3  1  0.13428899  0.13428899  0.13428899  1
  Si  Si0  1  0.15543566  0.34456434  0.65543566  1
  Si  Si1  1  0.34456434  0.65543566  0.15543566  1
  Si  Si2  1  0.65543566  0.15543566  0.34456434  1
  Si  Si3  1  0.84456434  0.84456434  0.84456434  1
loop_
_geom_bond_atom_site_label_1
_geom_bond_atom_site_label_2
_geom_bond_distance
_geom_bond_site_symmetry_2
Re0 Si0 2.395665 1_655
Re0 Si3 2.498770 1_555
Re0 Si2 2.498770 1_555
Re0 Si1 2.498770 1_655
Re0 Si2 2.684726 1_565
Re0 Si1 2.684726 1_555
Re0 Si3 2.684726 1_554
Re0 Re2 2.926139 1_555
Re0 Re3 2.926139 1_665
Re0 Re1 2.926139 1_555
Re0 Re1 2.926139 1_554
Re0 Re2 2.926139 1_655
Re0 Re3 2.926139 1_655
Re1 Si1 2.395665 1_556
Re1 Si3 2.498770 1_555
Re1 Si2 2.498770 1_556
Re1 Si0 2.498770 1_555
Re1 Si0 2.684726 1_655
Re1 Si2 2.684726 1_555
Re1 Si3 2.684726 1_545
Re1 Re2 2.926139 1_555
Re1 Re3 2.926139 1_656
Re1 Re2 2.926139 1_545
Re1 Re3 2.926139 1_556
Re2 Si2 2.395665 1_565
Re2 Si3 2.498770 1_555
Re2 Si1 2.498770 1_555
Re2 Si0 2.498770 1_565
Re2 Si1 2.684726 1_556
Re2 Si0 2.684726 1_555
Re2 Si3 2.684726 1_455
Re2 Re3 2.926139 1_566
Re2 Re3 2.926139 1_565
Re3 Si3 2.395665 1_444
Re3 Si2 2.498770 1_455
Re3 Si0 2.498770 1_554
Re3 Si1 2.498770 1_545
Re3 Si0 2.684726 1_555
Re3 Si1 2.684726 1_555
Re3 Si2 2.684726 1_555
