# generated using pymatgen
data_SmCuO3
_symmetry_space_group_name_H-M   'P 1'
_cell_length_a   5.28006365
_cell_length_b   6.29098458
_cell_length_c   7.09825327
_cell_angle_alpha   90.00000000
_cell_angle_beta   90.00000000
_cell_angle_gamma   90.00000000
_symmetry_Int_Tables_number   1
_chemical_formula_structural   SmCuO3
_chemical_formula_sum   'Sm4 Cu4 O12'
_cell_volume   235.78125215
_cell_formula_units_Z   4
loop_
 _symmetry_equiv_pos_site_id
 _symmetry_equiv_pos_as_xyz
  1  'x, y, z'
loop_
 _atom_site_type_symbol
 _atom_site_label
 _atom_site_symmetry_multiplicity
 _atom_site_fract_x
 _atom_site_fract_y
 _atom_site_fract_z
 _atom_site_occupancy
  Sm  Sm0  1  0.97420856  0.10196952  0.25000000  1
  Sm  Sm1  1  0.47420856  0.39803048  0.75000000  1
  Sm  Sm2  1  0.52579144  0.60196952  0.25000000  1
  Sm  Sm3  1  0.02579144  0.89803048  0.75000000  1
  Cu  Cu0  1  0.50000000  0.00000000  0.00000000  1
  Cu  Cu1  1  0.50000000  0.00000000  0.50000000  1
  Cu  Cu2  1  -0.00000000  0.50000000  0.00000000  1
  Cu  Cu3  1  -0.00000000  0.50000000  0.50000000  1
  O  O0  1  0.60778140  0.03430199  0.75000000  1
  O  O1  1  0.21354764  0.15870916  0.54625903  1
  O  O2  1  0.21354764  0.15870916  0.95374097  1
  O  O3  1  0.71354764  0.34129084  0.45374097  1
  O  O4  1  0.71354764  0.34129084  0.04625903  1
  O  O5  1  0.10778140  0.46569801  0.25000000  1
  O  O6  1  0.89221860  0.53430199  0.75000000  1
  O  O7  1  0.28645236  0.65870916  0.95374097  1
  O  O8  1  0.28645236  0.65870916  0.54625903  1
  O  O9  1  0.78645236  0.84129084  0.04625903  1
  O  O10  1  0.78645236  0.84129084  0.45374097  1
  O  O11  1  0.39221860  0.96569801  0.25000000  1
loop_
_geom_bond_atom_site_label_1
_geom_bond_atom_site_label_2
_geom_bond_distance
_geom_bond_site_symmetry_2
Cu0 O2 1.841823 1_554
Cu0 O9 1.841823 1_545
Cu0 O11 1.876035 1_545
Cu0 O0 1.876035 1_554
Cu0 O4 2.447248 1_555
Cu0 O7 2.447248 1_544
Cu1 O10 1.841823 1_545
Cu1 O1 1.841823 1_555
Cu1 O0 1.876035 1_555
Cu1 O11 1.876035 1_545
Cu1 O3 2.447248 1_555
Cu1 O8 2.447248 1_545
Cu2 O4 1.841823 1_455
Cu2 O7 1.841823 1_554
Cu2 O5 1.876035 1_555
Cu2 O6 1.876035 1_454
Cu2 O2 2.447248 1_554
Cu2 O9 2.447248 1_455
Cu3 O3 1.841823 1_455
Cu3 O8 1.841823 1_555
Cu3 O5 1.876035 1_555
Cu3 O6 1.876035 1_455
Cu3 O1 2.447248 1_555
Cu3 O10 2.447248 1_455
O0 Sm3 2.367765 1_645
O0 Sm1 2.394435 1_555
O1 Sm3 2.400764 1_545
O1 Sm0 2.479253 1_455
O1 Sm1 2.500492 1_555
O2 Sm3 2.400764 1_545
O2 Sm0 2.479253 1_456
O2 Sm1 2.500492 1_555
O3 Sm2 2.400764 1_555
O3 Sm1 2.479253 1_555
O3 Sm0 2.500492 1_555
O4 Sm2 2.400764 1_555
O4 Sm1 2.479253 1_554
O4 Sm0 2.500492 1_555
O5 Sm2 2.367765 1_555
O5 Sm0 2.394435 1_455
O6 Sm1 2.367765 1_555
O6 Sm3 2.394435 1_655
O7 Sm1 2.400764 1_555
O7 Sm2 2.479253 1_556
O7 Sm3 2.500492 1_555
O8 Sm1 2.400764 1_555
O8 Sm2 2.479253 1_555
O8 Sm3 2.500492 1_555
O9 Sm0 2.400764 1_565
O9 Sm3 2.479253 1_654
O9 Sm2 2.500492 1_555
O10 Sm0 2.400764 1_565
O10 Sm3 2.479253 1_655
O10 Sm2 2.500492 1_555
O11 Sm0 2.367765 1_465
O11 Sm2 2.394435 1_555
