# generated using pymatgen
data_Fe4Sn(CO)16
_symmetry_space_group_name_H-M   'P 1'
_cell_length_a   19.34370600
_cell_length_b   10.99276700
_cell_length_c   16.07763355
_cell_angle_alpha   47.93678256
_cell_angle_beta   90.00000000
_cell_angle_gamma   90.00000000
_symmetry_Int_Tables_number   1
_chemical_formula_structural   Fe4Sn(CO)16
_chemical_formula_sum   'Fe16 Sn4 C64 O64'
_cell_volume   2538.10950234
_cell_formula_units_Z   4
loop_
 _symmetry_equiv_pos_site_id
 _symmetry_equiv_pos_as_xyz
  1  'x, y, z'
loop_
 _atom_site_type_symbol
 _atom_site_label
 _atom_site_symmetry_multiplicity
 _atom_site_fract_x
 _atom_site_fract_y
 _atom_site_fract_z
 _atom_site_occupancy
  Fe  Fe0  1  0.84688300  0.91081300  0.63832000  1
  Fe  Fe1  1  0.60276200  0.23250800  0.23259100  1
  Fe  Fe2  1  0.34688300  0.08918700  0.86168000  1
  Fe  Fe3  1  0.15311700  0.08918700  0.36168000  1
  Fe  Fe4  1  0.02241800  0.05535700  0.77023000  1
  Fe  Fe5  1  0.97758200  0.94464300  0.22977000  1
  Fe  Fe6  1  0.16314700  0.30496500  0.11711600  1
  Fe  Fe7  1  0.83685300  0.69503500  0.88288400  1
  Fe  Fe8  1  0.89723800  0.23250800  0.73259100  1
  Fe  Fe9  1  0.39723800  0.76749200  0.76740900  1
  Fe  Fe10  1  0.33685300  0.30496500  0.61711600  1
  Fe  Fe11  1  0.52241800  0.94464300  0.72977000  1
  Fe  Fe12  1  0.65311700  0.91081300  0.13832000  1
  Fe  Fe13  1  0.47758200  0.05535700  0.27023000  1
  Fe  Fe14  1  0.10276200  0.76749200  0.26740900  1
  Fe  Fe15  1  0.66314700  0.69503500  0.38288400  1
  Sn  Sn0  1  0.10058400  0.02107600  0.24870200  1
  Sn  Sn1  1  0.89941600  0.97892400  0.75129800  1
  Sn  Sn2  1  0.39941600  0.02107600  0.74870200  1
  Sn  Sn3  1  0.60058400  0.97892400  0.25129800  1
  C  C0  1  0.03264000  0.16254400  0.62362800  1
  C  C1  1  0.93658600  0.86162400  0.64005800  1
  C  C2  1  0.23529300  0.19070100  0.12804700  1
  C  C3  1  0.94014800  0.37529400  0.73577400  1
  C  C4  1  0.76470700  0.80929900  0.87195300  1
  C  C5  1  0.30953300  0.70805400  0.79977400  1
  C  C6  1  0.14085900  0.37298300  0.98381100  1
  C  C7  1  0.41929400  0.18888600  0.26542700  1
  C  C8  1  0.08394800  0.39229600  0.11737200  1
  C  C9  1  0.12518400  0.91321400  0.12024600  1
  C  C10  1  0.49767600  0.92953400  0.41689000  1
  C  C11  1  0.42875100  0.89039600  0.30452100  1
  C  C12  1  0.35204100  0.91534500  0.00749400  1
  C  C13  1  0.99767600  0.07046600  0.08311000  1
  C  C14  1  0.37481600  0.91321400  0.62024600  1
  C  C15  1  0.19046700  0.70805400  0.29977400  1
  C  C16  1  0.56341400  0.86162400  0.14005800  1
  C  C17  1  0.73185900  0.99903300  0.13797400  1
  C  C18  1  0.58456500  0.35443200  0.08531900  1
  C  C19  1  0.46736000  0.16254400  0.12362800  1
  C  C20  1  0.07124900  0.89039600  0.80452100  1
  C  C21  1  0.80915400  0.75332500  0.64620100  1
  C  C22  1  0.64795900  0.08465500  0.99250600  1
  C  C23  1  0.08070600  0.18888600  0.76542700  1
  C  C24  1  0.69084600  0.75332500  0.14620100  1
  C  C25  1  0.69046700  0.29194600  0.20022600  1
  C  C26  1  0.53264000  0.83745600  0.87637200  1
  C  C27  1  0.62518400  0.08678600  0.37975400  1
  C  C28  1  0.28320300  0.45895800  0.59420200  1
  C  C29  1  0.91929400  0.81111400  0.23457300  1
  C  C30  1  0.00232400  0.92953400  0.91689000  1
  C  C31  1  0.76814100  0.99903300  0.63797400  1
  C  C32  1  0.30915400  0.24667500  0.85379900  1
  C  C33  1  0.91605200  0.60770400  0.88262800  1
  C  C34  1  0.08456500  0.64556800  0.41468100  1
  C  C35  1  0.23185900  0.00096700  0.36202600  1
  C  C36  1  0.43658600  0.13837600  0.85994200  1
  C  C37  1  0.14795900  0.91534500  0.50749400  1
  C  C38  1  0.78320300  0.54104200  0.90579800  1
  C  C39  1  0.19084600  0.24667500  0.35379900  1
  C  C40  1  0.96736000  0.83745600  0.37637200  1
  C  C41  1  0.44014800  0.62470600  0.76422600  1
  C  C42  1  0.05985200  0.62470600  0.26422600  1
  C  C43  1  0.50232400  0.07046600  0.58311000  1
  C  C44  1  0.35914100  0.37298300  0.48381100  1
  C  C45  1  0.55985200  0.37529400  0.23577400  1
  C  C46  1  0.41543500  0.64556800  0.91468100  1
  C  C47  1  0.26470700  0.19070100  0.62804700  1
  C  C48  1  0.21679700  0.45895800  0.09420200  1
  C  C49  1  0.87481600  0.08678600  0.87975400  1
  C  C50  1  0.41605200  0.39229600  0.61737200  1
  C  C51  1  0.85914100  0.62701700  0.01618900  1
  C  C52  1  0.06341400  0.13837600  0.35994200  1
  C  C53  1  0.58394800  0.60770400  0.38262800  1
  C  C54  1  0.91543500  0.35443200  0.58531900  1
  C  C55  1  0.26814100  0.00096700  0.86202600  1
  C  C56  1  0.80953300  0.29194600  0.70022600  1
  C  C57  1  0.64085900  0.62701700  0.51618900  1
  C  C58  1  0.58070600  0.81111400  0.73457300  1
  C  C59  1  0.71679700  0.54104200  0.40579800  1
  C  C60  1  0.73529300  0.80929900  0.37195300  1
  C  C61  1  0.85204100  0.08465500  0.49250600  1
  C  C62  1  0.57124900  0.10960400  0.69547900  1
  C  C63  1  0.92875100  0.10960400  0.19547900  1
  O  O0  1  0.42351300  0.55839100  0.01083800  1
  O  O1  1  0.57648700  0.44160900  0.98916200  1
  O  O2  1  0.87269900  0.57991100  0.10384700  1
  O  O3  1  0.12036600  0.27036500  0.76272600  1
  O  O4  1  0.25261000  0.66454800  0.82342100  1
  O  O5  1  0.28623300  0.34694900  0.85091900  1
  O  O6  1  0.45432900  0.22242700  0.03260900  1
  O  O7  1  0.53524400  0.47122700  0.23573300  1
  O  O8  1  0.95432900  0.77757300  0.46739100  1
  O  O9  1  0.96475600  0.47122700  0.73573300  1
  O  O10  1  0.24739000  0.66454800  0.32342100  1
  O  O11  1  0.24881300  0.55857800  0.57946200  1
  O  O12  1  0.03524400  0.52877300  0.26426700  1
  O  O13  1  0.25118700  0.55857800  0.07946200  1
  O  O14  1  0.21712700  0.12595900  0.62802900  1
  O  O15  1  0.46475600  0.52877300  0.76426700  1
  O  O16  1  0.64684000  0.19855300  0.89752700  1
  O  O17  1  0.50624300  0.83585200  0.13426300  1
  O  O18  1  0.53309300  0.54381000  0.39145800  1
  O  O19  1  0.75118700  0.44142200  0.42053800  1
  O  O20  1  0.35316000  0.80144700  0.10247300  1
  O  O21  1  0.00624300  0.16414800  0.36573700  1
  O  O22  1  0.28287300  0.12595900  0.12802900  1
  O  O23  1  0.96690700  0.54381000  0.89145800  1
  O  O24  1  0.14684000  0.80144700  0.60247300  1
  O  O25  1  0.64539600  0.00284800  0.47119500  1
  O  O26  1  0.04567100  0.22242700  0.53260900  1
  O  O27  1  0.12730100  0.42008900  0.89615300  1
  O  O28  1  0.21709600  0.93532200  0.87382900  1
  O  O29  1  0.89687600  0.21931000  0.17031300  1
  O  O30  1  0.50584600  0.84208400  0.51304600  1
  O  O31  1  0.00584600  0.15791600  0.98695400  1
  O  O32  1  0.37963400  0.27036500  0.26272600  1
  O  O33  1  0.71709600  0.06467800  0.62617100  1
  O  O34  1  0.35460400  0.99715200  0.52880500  1
  O  O35  1  0.78623300  0.65305100  0.64908100  1
  O  O36  1  0.87963400  0.72963500  0.23727400  1
  O  O37  1  0.21376700  0.34694900  0.35091900  1
  O  O38  1  0.03309300  0.45619000  0.10854200  1
  O  O39  1  0.54567100  0.77757300  0.96739100  1
  O  O40  1  0.60312400  0.21931000  0.67031300  1
  O  O41  1  0.99415400  0.84208400  0.01304600  1
  O  O42  1  0.62730100  0.57991100  0.60384700  1
  O  O43  1  0.85316000  0.19855300  0.39752700  1
  O  O44  1  0.46690700  0.45619000  0.60854200  1
  O  O45  1  0.28290400  0.93532200  0.37382900  1
  O  O46  1  0.74739000  0.33545200  0.17657900  1
  O  O47  1  0.49415400  0.15791600  0.48695400  1
  O  O48  1  0.78290400  0.06467800  0.12617100  1
  O  O49  1  0.10312400  0.78069000  0.82968700  1
  O  O50  1  0.49375700  0.16414800  0.86573700  1
  O  O51  1  0.78287300  0.87404100  0.37197100  1
  O  O52  1  0.85460400  0.00284800  0.97119500  1
  O  O53  1  0.62036600  0.72963500  0.73727400  1
  O  O54  1  0.75261000  0.33545200  0.67657900  1
  O  O55  1  0.92351300  0.44160900  0.48916200  1
  O  O56  1  0.39687600  0.78069000  0.32968700  1
  O  O57  1  0.07648700  0.55839100  0.51083800  1
  O  O58  1  0.74881300  0.44142200  0.92053800  1
  O  O59  1  0.99375700  0.83585200  0.63426300  1
  O  O60  1  0.71376700  0.65305100  0.14908100  1
  O  O61  1  0.14539600  0.99715200  0.02880500  1
  O  O62  1  0.37269900  0.42008900  0.39615300  1
  O  O63  1  0.71712700  0.87404100  0.87197100  1
loop_
_geom_bond_atom_site_label_1
_geom_bond_atom_site_label_2
_geom_bond_distance
_geom_bond_site_symmetry_2
Fe0 Sn1 2.591307 1_555
Fe1 Sn3 2.596056 1_545
Fe2 Sn2 2.591307 1_555
Fe3 Sn0 2.591307 1_555
Fe4 Sn1 2.608143 1_445
Fe5 Sn0 2.608143 1_665
Fe6 Sn0 2.613996 1_555
Fe7 Sn1 2.613996 1_555
Fe8 Sn1 2.596056 1_545
Fe9 Sn2 2.596056 1_565
Fe10 Sn2 2.613996 1_555
Fe11 Sn2 2.608143 1_565
Fe12 Sn3 2.591307 1_555
Fe13 Sn3 2.608143 1_545
Fe14 Sn0 2.596056 1_565
Fe15 Sn3 2.613996 1_555
C0 O26 1.160856 1_555
C0 Fe4 1.806032 1_555
C1 O59 1.160742 1_555
C1 Fe0 1.812125 1_555
C2 O22 1.163560 1_555
C2 Fe6 1.805673 1_555
C3 O9 1.156620 1_555
C3 Fe8 1.806349 1_555
C4 O63 1.163560 1_555
C4 Fe7 1.805673 1_555
C5 O4 1.158475 1_555
C5 Fe9 1.766458 1_555
C6 O27 1.159871 1_555
C6 Fe6 1.786385 1_556
C7 O32 1.157827 1_555
C7 Fe13 1.811063 1_555
C8 O38 1.160857 1_555
C8 Fe6 1.809409 1_555
C9 O61 1.161034 1_555
C9 Fe14 1.809390 1_555
C10 O30 1.160947 1_555
C10 Fe13 1.803928 1_565
C11 O56 1.159504 1_555
C11 Fe13 1.773399 1_565
C12 O20 1.156785 1_555
C12 Fe2 1.776237 1_564
C13 O31 1.160947 1_654
C13 Fe5 1.803928 1_545
C14 O34 1.161034 1_555
C14 Fe9 1.809390 1_555
C15 O10 1.158475 1_555
C15 Fe14 1.766458 1_555
C16 O17 1.160742 1_555
C16 Fe12 1.812125 1_555
C17 O48 1.161129 1_565
C17 Fe12 1.803691 1_555
C18 O1 1.160915 1_554
C18 Fe1 1.809556 1_555
C19 O6 1.160856 1_555
C19 Fe13 1.806032 1_555
C20 O49 1.159504 1_555
C20 Fe4 1.773399 1_565
C21 O35 1.159905 1_555
C21 Fe0 1.803309 1_555
C22 O16 1.156785 1_555
C22 Fe12 1.776237 1_546
C23 O3 1.157827 1_555
C23 Fe4 1.811063 1_555
C24 O60 1.159905 1_555
C24 Fe12 1.803309 1_555
C25 O46 1.158475 1_555
C25 Fe1 1.766458 1_555
C26 O39 1.160856 1_555
C26 Fe11 1.806032 1_555
C27 O25 1.161034 1_555
C27 Fe1 1.809390 1_555
C28 O11 1.161982 1_555
C28 Fe10 1.800756 1_555
C29 O36 1.157827 1_555
C29 Fe5 1.811063 1_555
C30 O41 1.160947 1_456
C30 Fe4 1.803928 1_565
C31 O33 1.161129 1_565
C31 Fe0 1.803691 1_555
C32 O5 1.159905 1_555
C32 Fe2 1.803309 1_555
C33 O23 1.160857 1_555
C33 Fe7 1.809409 1_555
C34 O57 1.160915 1_555
C34 Fe14 1.809556 1_555
C35 O45 1.161129 1_545
C35 Fe3 1.803691 1_555
C36 O50 1.160742 1_555
C36 Fe2 1.812125 1_555
C37 O24 1.156785 1_555
C37 Fe3 1.776237 1_565
C38 O58 1.161982 1_555
C38 Fe7 1.800756 1_555
C39 O37 1.159905 1_555
C39 Fe3 1.803309 1_555
C40 O8 1.160856 1_555
C40 Fe5 1.806032 1_555
C41 O15 1.156620 1_555
C41 Fe9 1.806349 1_555
C42 O12 1.156620 1_555
C42 Fe14 1.806349 1_555
C43 O47 1.160947 1_555
C43 Fe11 1.803928 1_545
C44 O62 1.159871 1_555
C44 Fe10 1.786385 1_555
C45 O7 1.156620 1_555
C45 Fe1 1.806349 1_555
C46 O0 1.160915 1_556
C46 Fe9 1.809556 1_555
C47 O14 1.163560 1_555
C47 Fe10 1.805673 1_555
C48 O13 1.161982 1_555
C48 Fe6 1.800756 1_555
C49 O52 1.161034 1_555
C49 Fe8 1.809390 1_555
C50 O44 1.160857 1_555
C50 Fe10 1.809409 1_555
C51 O2 1.159871 1_555
C51 Fe7 1.786385 1_554
C52 O21 1.160742 1_555
C52 Fe3 1.812125 1_555
C53 O18 1.160857 1_555
C53 Fe15 1.809409 1_555
C54 O55 1.160915 1_555
C54 Fe8 1.809556 1_555
C55 O28 1.161129 1_545
C55 Fe2 1.803691 1_555
C56 O54 1.158475 1_555
C56 Fe8 1.766458 1_555
C57 O42 1.159871 1_555
C57 Fe15 1.786385 1_555
C58 O53 1.157827 1_555
C58 Fe11 1.811063 1_555
C59 O19 1.161982 1_555
C59 Fe15 1.800756 1_555
C60 O51 1.163560 1_555
C60 Fe15 1.805673 1_555
C61 O43 1.156785 1_555
C61 Fe0 1.776237 1_545
C62 O40 1.159504 1_555
C62 Fe11 1.773399 1_545
C63 O29 1.159504 1_555
C63 Fe5 1.773399 1_545
