# generated using pymatgen
data_Li3Co(NiO3)2
_symmetry_space_group_name_H-M   'P 1'
_cell_length_a   6.61529570
_cell_length_b   6.61529570
_cell_length_c   5.76674771
_cell_angle_alpha   77.17765694
_cell_angle_beta   77.17765694
_cell_angle_gamma   24.83530131
_symmetry_Int_Tables_number   1
_chemical_formula_structural   Li3Co(NiO3)2
_chemical_formula_sum   'Li3 Co1 Ni2 O6'
_cell_volume   103.22312773
_cell_formula_units_Z   1
loop_
 _symmetry_equiv_pos_site_id
 _symmetry_equiv_pos_as_xyz
  1  'x, y, z'
loop_
 _atom_site_type_symbol
 _atom_site_label
 _atom_site_symmetry_multiplicity
 _atom_site_fract_x
 _atom_site_fract_y
 _atom_site_fract_z
 _atom_site_occupancy
  Li  Li0  1  0.00000000  0.00000000  0.00000000  1
  Li  Li1  1  0.33618300  0.33618300  0.32644700  1
  Li  Li2  1  0.66381700  0.66381700  0.67355300  1
  Co  Co0  1  0.00000000  0.00000000  0.50000000  1
  Ni  Ni0  1  0.33594700  0.33594700  0.83361800  1
  Ni  Ni1  1  0.66405300  0.66405300  0.16638200  1
  O  O0  1  0.84631100  0.84631100  0.59660700  1
  O  O1  1  0.15368900  0.15368900  0.40339300  1
  O  O2  1  0.50108400  0.50108400  0.72431700  1
  O  O3  1  0.16864900  0.16864900  0.93451700  1
  O  O4  1  0.49891600  0.49891600  0.27568300  1
  O  O5  1  0.83135100  0.83135100  0.06548300  1
loop_
_geom_bond_atom_site_label_1
_geom_bond_atom_site_label_2
_geom_bond_distance
_geom_bond_site_symmetry_2
Li0 O3 2.125370 1_554
Li0 O5 2.125370 1_445
Li0 O4 2.130988 1_455
Li0 O4 2.130988 1_545
Li0 O2 2.130988 1_454
Li0 O2 2.130988 1_544
Li1 O4 2.056022 1_555
Li1 O5 2.082055 1_545
Li1 O5 2.082055 1_455
Li1 O0 2.135548 1_455
Li1 O0 2.135548 1_545
Li1 O1 2.298175 1_555
Li2 O2 2.056022 1_555
Li2 O3 2.082055 1_655
Li2 O3 2.082055 1_565
Li2 O1 2.135548 1_565
Li2 O1 2.135548 1_655
Li2 O0 2.298175 1_555
Co0 O2 1.924932 1_545
Co0 O2 1.924932 1_455
Co0 O4 1.924932 1_545
Co0 O4 1.924932 1_455
Co0 O1 1.936767 1_555
Co0 O0 1.936767 1_445
Ni0 O5 1.943934 1_456
Ni0 O5 1.943934 1_546
Ni0 O0 1.956126 1_545
Ni0 O0 1.956126 1_455
Ni0 O2 2.083007 1_555
Ni0 O3 2.107066 1_555
Ni1 O3 1.943934 1_564
Ni1 O3 1.943934 1_654
Ni1 O1 1.956126 1_565
Ni1 O1 1.956126 1_655
Ni1 O4 2.083007 1_555
Ni1 O5 2.107066 1_555
