# generated using pymatgen
data_V4(OF3)3
_symmetry_space_group_name_H-M   'P 1'
_cell_length_a   5.06953791
_cell_length_b   5.28181066
_cell_length_c   17.12300303
_cell_angle_alpha   89.30478043
_cell_angle_beta   98.58890358
_cell_angle_gamma   118.77763131
_symmetry_Int_Tables_number   1
_chemical_formula_structural   V4(OF3)3
_chemical_formula_sum   'V8 O6 F18'
_cell_volume   396.41258937
_cell_formula_units_Z   2
loop_
 _symmetry_equiv_pos_site_id
 _symmetry_equiv_pos_as_xyz
  1  'x, y, z'
loop_
 _atom_site_type_symbol
 _atom_site_label
 _atom_site_symmetry_multiplicity
 _atom_site_fract_x
 _atom_site_fract_y
 _atom_site_fract_z
 _atom_site_occupancy
  V  V0  1  0.24948615  0.62347498  0.87467170  1
  V  V1  1  0.21747341  0.12229163  0.37082327  1
  V  V2  1  0.54346482  0.26135294  0.74855742  1
  V  V3  1  0.52158401  0.75950967  0.25065088  1
  V  V4  1  0.74907287  0.89142443  0.62574739  1
  V  V5  1  0.73231229  0.39251388  0.12805568  1
  V  V6  1  0.96136886  0.98415850  0.99937471  1
  V  V7  1  0.00015728  0.49048550  0.49160117  1
  O  O0  1  0.07744492  0.34485809  0.41807292  1
  O  O1  1  0.59895052  0.78943627  0.95820889  1
  O  O2  1  0.61520091  0.08206902  0.66806926  1
  O  O3  1  0.59837450  0.58500088  0.16806477  1
  O  O4  1  0.90318681  0.46134699  0.79377620  1
  O  O5  1  0.90901650  0.97409479  0.29281210  1
  F  F0  1  0.10294717  0.85803504  0.91552340  1
  F  F1  1  0.03149876  0.32596847  0.94170929  1
  F  F2  1  0.01016901  0.81945113  0.43831264  1
  F  F3  1  0.47703744  0.92939550  0.81237087  1
  F  F4  1  0.09770959  0.01609717  0.70862976  1
  F  F5  1  0.08509714  0.52766116  0.21213432  1
  F  F6  1  0.39286418  0.39100163  0.83277108  1
  F  F7  1  0.39979427  0.89555643  0.33818503  1
  F  F8  1  0.42839265  0.73547873  0.53508210  1
  F  F9  1  0.51842706  0.54566491  0.68185577  1
  F  F10  1  0.47946588  0.43333443  0.31266375  1
  F  F11  1  0.56348096  0.28341082  0.45914154  1
  F  F12  1  0.41882950  0.21352804  0.03835760  1
  F  F13  1  0.91096385  0.65894008  0.58122123  1
  F  F14  1  0.51030005  0.05337827  0.18652633  1
  F  F15  1  0.98635060  0.68909789  0.06381827  1
  F  F16  1  0.99365968  0.20042982  0.56329221  1
  F  F17  1  0.91592137  0.16155588  0.08991145  1
loop_
_geom_bond_atom_site_label_1
_geom_bond_atom_site_label_2
_geom_bond_distance
_geom_bond_site_symmetry_2
O0 V7 1.670720 1_555
O0 V1 1.881098 1_555
O1 V6 1.655802 1_555
O1 V0 1.931678 1_555
O2 V4 1.679964 1_545
O2 V2 1.855084 1_555
O3 V5 1.668687 1_555
O3 V3 1.882127 1_555
O4 V2 1.668628 1_555
O4 V0 1.894476 1_655
O5 V1 1.750785 1_665
O5 V3 1.765349 1_555
F0 V0 1.907472 1_555
F0 V6 1.952374 1_455
F1 V0 1.916051 1_555
F1 V6 1.950474 1_445
F2 V1 1.922978 1_565
F2 V7 1.935105 1_555
F3 V0 1.900179 1_555
F3 V2 1.968872 1_565
F4 V4 1.929877 1_445
F4 V2 1.998400 1_555
F5 V3 1.950819 1_555
F5 V5 1.951279 1_455
F6 V0 1.893999 1_555
F6 V2 1.996829 1_555
F7 V1 1.958847 1_565
F7 V3 1.968199 1_555
F8 V4 1.928576 1_555
F8 V7 1.943612 1_555
F9 V2 1.916827 1_555
F9 V4 1.965284 1_555
F10 V1 1.925953 1_555
F10 V3 1.951995 1_555
F11 V7 1.929212 1_655
F11 V1 1.972232 1_555
F12 V5 1.907341 1_555
F12 V6 2.035603 1_444
F13 V4 1.985604 1_555
F13 V7 1.994678 1_655
F14 V3 1.908783 1_545
F14 V5 1.956953 1_555
F15 V5 1.939389 1_555
F15 V6 1.941396 1_554
F16 V4 1.936522 1_545
F16 V7 1.942405 1_655
F17 V6 1.919403 1_544
F17 V5 2.018736 1_555
