# generated using pymatgen
data_Li7Fe7SiO16
_symmetry_space_group_name_H-M   'P 1'
_cell_length_a   5.12764100
_cell_length_b   5.61312452
_cell_length_c   12.91143469
_cell_angle_alpha   89.89963609
_cell_angle_beta   89.83687361
_cell_angle_gamma   89.59747546
_symmetry_Int_Tables_number   1
_chemical_formula_structural   Li7Fe7SiO16
_chemical_formula_sum   'Li7 Fe7 Si1 O16'
_cell_volume   371.60680797
_cell_formula_units_Z   1
loop_
 _symmetry_equiv_pos_site_id
 _symmetry_equiv_pos_as_xyz
  1  'x, y, z'
loop_
 _atom_site_type_symbol
 _atom_site_label
 _atom_site_symmetry_multiplicity
 _atom_site_fract_x
 _atom_site_fract_y
 _atom_site_fract_z
 _atom_site_occupancy
  Li  Li0  1  0.00823400  0.07910300  0.43784700  1
  Li  Li1  1  0.50593400  0.42104800  0.68913600  1
  Li  Li2  1  0.50624600  0.42274600  0.18592500  1
  Li  Li3  1  0.00587700  0.57653600  0.30957700  1
  Li  Li4  1  0.99331400  0.55486100  0.81642400  1
  Li  Li5  1  0.50918800  0.91869700  0.56452300  1
  Li  Li6  1  0.51590700  0.92374900  0.05995500  1
  Fe  Fe0  1  0.99748300  0.09006000  0.69004400  1
  Fe  Fe1  1  0.00351600  0.09073000  0.18375600  1
  Fe  Fe2  1  0.50365900  0.41126500  0.43708400  1
  Fe  Fe3  1  0.00095700  0.58494600  0.56410300  1
  Fe  Fe4  1  0.98334800  0.57636900  0.05874400  1
  Fe  Fe5  1  0.52047400  0.90500200  0.81524800  1
  Fe  Fe6  1  0.50935500  0.91198800  0.31072800  1
  Si  Si0  1  0.99473700  0.08772200  0.93860400  1
  O  O0  1  0.68170300  0.04521200  0.93471900  1
  O  O1  1  0.61248900  0.08332500  0.43212200  1
  O  O2  1  0.63095000  0.08462500  0.69265000  1
  O  O3  1  0.63334400  0.08214000  0.19165100  1
  O  O4  1  0.12785500  0.42471800  0.44271000  1
  O  O5  1  0.07264000  0.36743600  0.94337600  1
  O  O6  1  0.11431500  0.40882600  0.68332700  1
  O  O7  1  0.11840600  0.40703100  0.18012600  1
  O  O8  1  0.61427800  0.58669800  0.31858100  1
  O  O9  1  0.62990400  0.60857600  0.79785700  1
  O  O10  1  0.62897200  0.57546800  0.55569900  1
  O  O11  1  0.64254300  0.61046200  0.07830400  1
  O  O12  1  0.12586000  0.96046100  0.83086100  1
  O  O13  1  0.13171300  0.92192400  0.30087500  1
  O  O14  1  0.11492500  0.91057300  0.57389200  1
  O  O15  1  0.11047700  0.93713000  0.04360400  1
loop_
_geom_bond_atom_site_label_1
_geom_bond_atom_site_label_2
_geom_bond_distance
_geom_bond_site_symmetry_2
Li0 O1 2.030765 1_455
Li0 O4 2.039867 1_555
Li0 O14 2.066873 1_545
Li0 O13 2.073193 1_545
Li1 O9 1.871428 1_555
Li1 O2 1.990437 1_555
Li1 O6 2.011352 1_555
Li1 O10 2.028264 1_555
Li2 O11 1.878610 1_555
Li2 O7 1.992904 1_555
Li2 O3 2.016852 1_555
Li2 O8 2.026199 1_555
Li3 O7 2.006026 1_555
Li3 O8 2.011426 1_455
Li3 O4 2.016345 1_555
Li3 O13 2.050352 1_555
Li4 O9 1.901359 1_555
Li4 O5 1.987646 1_655
Li4 O6 2.000439 1_655
Li4 O12 2.388285 1_655
Li5 O2 2.003358 1_565
Li5 O1 2.013212 1_565
Li5 O10 2.021315 1_555
Li5 O14 2.025740 1_555
Li6 O11 1.885082 1_555
Li6 O0 1.949011 1_564
Li6 O3 2.015692 1_565
Li6 O15 2.091001 1_555
Fe0 O2 1.880116 1_555
Fe0 O6 1.892651 1_655
Fe0 O14 1.902199 1_645
Fe0 O12 2.064857 1_645
Fe1 O7 1.875014 1_555
Fe1 O13 1.899599 1_545
Fe1 O3 1.901500 1_455
Fe1 O15 2.076498 1_545
Fe2 O10 1.904398 1_555
Fe2 O8 1.905277 1_555
Fe2 O1 1.920864 1_555
Fe2 O4 1.929103 1_555
Fe3 O10 1.911917 1_455
Fe3 O6 1.917409 1_555
Fe3 O4 1.918280 1_555
Fe3 O14 1.927309 1_555
Fe4 O11 1.774037 1_555
Fe4 O5 1.948978 1_654
Fe4 O7 1.957282 1_655
Fe4 O15 2.140139 1_655
Fe5 O9 1.766700 1_555
Fe5 O0 1.924308 1_565
Fe5 O2 1.959697 1_565
Fe5 O12 2.054482 1_555
Fe6 O8 1.902493 1_555
Fe6 O3 1.917806 1_565
Fe6 O1 1.917915 1_565
Fe6 O13 1.941352 1_555
O0 Si0 1.625350 1_555
O5 Si0 1.624122 1_455
O12 Si0 1.699688 1_465
O15 Si0 1.702401 1_464
