# generated using pymatgen
data_Li2Cr3SnO8
_symmetry_space_group_name_H-M   'P 1'
_cell_length_a   8.50841100
_cell_length_b   8.50841100
_cell_length_c   8.61057200
_cell_angle_alpha   90.00000000
_cell_angle_beta   90.00000000
_cell_angle_gamma   90.00000000
_symmetry_Int_Tables_number   1
_chemical_formula_structural   Li2Cr3SnO8
_chemical_formula_sum   'Li8 Cr12 Sn4 O32'
_cell_volume   623.34563601
_cell_formula_units_Z   4
loop_
 _symmetry_equiv_pos_site_id
 _symmetry_equiv_pos_as_xyz
  1  'x, y, z'
loop_
 _atom_site_type_symbol
 _atom_site_label
 _atom_site_symmetry_multiplicity
 _atom_site_fract_x
 _atom_site_fract_y
 _atom_site_fract_z
 _atom_site_occupancy
  Li  Li0  1  0.74977300  0.00121900  0.62626100  1
  Li  Li1  1  0.99878100  0.25022700  0.87373900  1
  Li  Li2  1  0.00121900  0.74977300  0.37373900  1
  Li  Li3  1  0.25022700  0.99878100  0.12626100  1
  Li  Li4  1  0.24977300  0.49878100  0.62373900  1
  Li  Li5  1  0.49878100  0.24977300  0.37626100  1
  Li  Li6  1  0.50121900  0.75022700  0.87626100  1
  Li  Li7  1  0.75022700  0.50121900  0.12373900  1
  Cr  Cr0  1  0.86553300  0.13446700  0.25000000  1
  Cr  Cr1  1  0.87280500  0.38001800  0.49329000  1
  Cr  Cr2  1  0.88001800  0.62719500  0.74329000  1
  Cr  Cr3  1  0.11998200  0.37280500  0.24329000  1
  Cr  Cr4  1  0.12719500  0.61998200  0.99329000  1
  Cr  Cr5  1  0.13446700  0.86553300  0.75000000  1
  Cr  Cr6  1  0.36553300  0.36553300  0.00000000  1
  Cr  Cr7  1  0.37280500  0.11998200  0.75671000  1
  Cr  Cr8  1  0.38001800  0.87280500  0.50671000  1
  Cr  Cr9  1  0.61998200  0.12719500  0.00671000  1
  Cr  Cr10  1  0.62719500  0.88001800  0.25671000  1
  Cr  Cr11  1  0.63446700  0.63446700  0.50000000  1
  Sn  Sn0  1  0.87598800  0.87598800  0.00000000  1
  Sn  Sn1  1  0.12401200  0.12401200  0.50000000  1
  Sn  Sn2  1  0.37598800  0.62401200  0.25000000  1
  Sn  Sn3  1  0.62401200  0.37598800  0.75000000  1
  O  O0  1  0.85759200  0.12319000  0.01739300  1
  O  O1  1  0.86596300  0.90090200  0.24457800  1
  O  O2  1  0.85631500  0.61887400  0.50933800  1
  O  O3  1  0.87681000  0.14240800  0.48260700  1
  O  O4  1  0.86854300  0.39016900  0.73006000  1
  O  O5  1  0.88112600  0.35631500  0.25933800  1
  O  O6  1  0.89016900  0.63145700  0.98006000  1
  O  O7  1  0.90090200  0.86596300  0.75542200  1
  O  O8  1  0.09909800  0.13403700  0.25542200  1
  O  O9  1  0.10983100  0.36854300  0.48006000  1
  O  O10  1  0.11887400  0.64368500  0.75933800  1
  O  O11  1  0.13145700  0.60983100  0.23006000  1
  O  O12  1  0.12319000  0.85759200  0.98260700  1
  O  O13  1  0.14368500  0.38112600  0.00933800  1
  O  O14  1  0.13403700  0.09909800  0.74457800  1
  O  O15  1  0.14240800  0.87681000  0.51739300  1
  O  O16  1  0.35759200  0.37681000  0.23260700  1
  O  O17  1  0.36596300  0.59909800  0.00542200  1
  O  O18  1  0.35631500  0.88112600  0.74066200  1
  O  O19  1  0.37681000  0.35759200  0.76739300  1
  O  O20  1  0.36854300  0.10983100  0.51994000  1
  O  O21  1  0.38112600  0.14368500  0.99066200  1
  O  O22  1  0.39016900  0.86854300  0.26994000  1
  O  O23  1  0.40090200  0.63403700  0.49457800  1
  O  O24  1  0.59909800  0.36596300  0.99457800  1
  O  O25  1  0.60983100  0.13145700  0.76994000  1
  O  O26  1  0.61887400  0.85631500  0.49066200  1
  O  O27  1  0.63145700  0.89016900  0.01994000  1
  O  O28  1  0.62319000  0.64240800  0.26739300  1
  O  O29  1  0.64368500  0.11887400  0.24066200  1
  O  O30  1  0.63403700  0.40090200  0.50542200  1
  O  O31  1  0.64240800  0.62319000  0.73260700  1
loop_
_geom_bond_atom_site_label_1
_geom_bond_atom_site_label_2
_geom_bond_distance
_geom_bond_site_symmetry_2
Li0 O26 2.030696 1_545
Li0 O3 2.035054 1_555
Li0 O25 2.043579 1_555
Li0 O7 2.052975 1_545
Li1 O13 2.030696 1_656
Li1 O0 2.035054 1_556
Li1 O4 2.043579 1_555
Li1 O14 2.052975 1_655
Li2 O2 2.030696 1_455
Li2 O15 2.035054 1_555
Li2 O11 2.043579 1_555
Li2 O1 2.052975 1_455
Li3 O21 2.030696 1_564
Li3 O12 2.035054 1_554
Li3 O22 2.043579 1_555
Li3 O8 2.052975 1_565
Li4 O10 2.030696 1_555
Li4 O19 2.035054 1_555
Li4 O9 2.043579 1_555
Li4 O23 2.052975 1_555
Li5 O29 2.030696 1_555
Li5 O16 2.035054 1_555
Li5 O20 2.043579 1_555
Li5 O30 2.052975 1_555
Li6 O18 2.030696 1_555
Li6 O31 2.035054 1_555
Li6 O27 2.043579 1_556
Li6 O17 2.052975 1_556
Li7 O5 2.030696 1_555
Li7 O28 2.035054 1_555
Li7 O6 2.043579 1_554
Li7 O24 2.052975 1_554
Cr0 O5 1.893938 1_555
Cr0 O29 1.893938 1_555
Cr0 O8 1.987819 1_655
Cr0 O1 1.987819 1_545
Cr0 O3 2.006314 1_555
Cr0 O0 2.006314 1_555
Cr1 O9 2.022288 1_655
Cr1 O3 2.024062 1_555
Cr1 O5 2.025768 1_555
Cr1 O4 2.040876 1_555
Cr1 O2 2.041804 1_555
Cr1 O30 2.041966 1_555
Cr2 O4 2.022288 1_555
Cr2 O31 2.024062 1_555
Cr2 O2 2.025768 1_555
Cr2 O6 2.040876 1_555
Cr2 O10 2.041804 1_655
Cr2 O7 2.041966 1_555
Cr3 O11 2.022288 1_555
Cr3 O16 2.024062 1_555
Cr3 O13 2.025768 1_555
Cr3 O9 2.040876 1_555
Cr3 O5 2.041804 1_455
Cr3 O8 2.041966 1_555
Cr4 O6 2.022288 1_455
Cr4 O12 2.024062 1_555
Cr4 O10 2.025768 1_555
Cr4 O11 2.040876 1_556
Cr4 O13 2.041804 1_556
Cr4 O17 2.041966 1_556
Cr5 O18 1.893938 1_555
Cr5 O10 1.893938 1_555
Cr5 O14 1.987819 1_565
Cr5 O7 1.987819 1_455
Cr5 O12 2.006314 1_555
Cr5 O15 2.006314 1_555
Cr6 O13 1.893938 1_555
Cr6 O21 1.893938 1_554
Cr6 O17 1.987819 1_555
Cr6 O24 1.987819 1_554
Cr6 O19 2.006314 1_554
Cr6 O16 2.006314 1_555
Cr7 O25 2.022288 1_555
Cr7 O19 2.024062 1_555
Cr7 O21 2.025768 1_555
Cr7 O20 2.040876 1_555
Cr7 O18 2.041804 1_545
Cr7 O14 2.041966 1_555
Cr8 O20 2.022288 1_565
Cr8 O15 2.024062 1_555
Cr8 O18 2.025768 1_555
Cr8 O22 2.040876 1_555
Cr8 O26 2.041804 1_555
Cr8 O23 2.041966 1_555
Cr9 O27 2.022288 1_545
Cr9 O0 2.024062 1_555
Cr9 O29 2.025768 1_555
Cr9 O25 2.040876 1_554
Cr9 O21 2.041804 1_554
Cr9 O24 2.041966 1_554
Cr10 O22 2.022288 1_555
Cr10 O28 2.024062 1_555
Cr10 O26 2.025768 1_555
Cr10 O27 2.040876 1_555
Cr10 O29 2.041804 1_565
Cr10 O1 2.041966 1_555
Cr11 O26 1.893938 1_555
Cr11 O2 1.893938 1_555
Cr11 O23 1.987819 1_555
Cr11 O30 1.987819 1_555
Cr11 O31 2.006314 1_555
Cr11 O28 2.006314 1_555
O0 Sn0 2.114423 1_545
O1 Sn0 2.118316 1_555
O3 Sn1 2.114423 1_655
O4 Sn3 2.091126 1_555
O6 Sn0 2.091126 1_556
O7 Sn0 2.118316 1_556
O8 Sn1 2.118316 1_555
O9 Sn1 2.091126 1_555
O11 Sn2 2.091126 1_555
O12 Sn0 2.114423 1_456
O14 Sn1 2.118316 1_555
O15 Sn1 2.114423 1_565
O16 Sn2 2.114423 1_555
O17 Sn2 2.118316 1_555
O19 Sn3 2.114423 1_555
O20 Sn1 2.091126 1_555
O22 Sn2 2.091126 1_555
O23 Sn2 2.118316 1_555
O24 Sn3 2.118316 1_555
O25 Sn3 2.091126 1_555
O27 Sn0 2.091126 1_555
O28 Sn2 2.114423 1_555
O30 Sn3 2.118316 1_555
O31 Sn3 2.114423 1_555
