# generated using pymatgen
data_Ti3Mn2Cr3O16
_symmetry_space_group_name_H-M   'P 1'
_cell_length_a   5.86487900
_cell_length_b   5.89154631
_cell_length_c   8.94640815
_cell_angle_alpha   90.30129473
_cell_angle_beta   90.61931749
_cell_angle_gamma   119.77577211
_symmetry_Int_Tables_number   1
_chemical_formula_structural   Ti3Mn2Cr3O16
_chemical_formula_sum   'Ti3 Mn2 Cr3 O16'
_cell_volume   268.27896038
_cell_formula_units_Z   1
loop_
 _symmetry_equiv_pos_site_id
 _symmetry_equiv_pos_as_xyz
  1  'x, y, z'
loop_
 _atom_site_type_symbol
 _atom_site_label
 _atom_site_symmetry_multiplicity
 _atom_site_fract_x
 _atom_site_fract_y
 _atom_site_fract_z
 _atom_site_occupancy
  Ti  Ti0  1  0.67584300  0.82565900  0.70484900  1
  Ti  Ti1  1  0.82957700  0.16488100  0.21055600  1
  Ti  Ti2  1  0.83001000  0.66526000  0.21193400  1
  Mn  Mn0  1  0.66369400  0.33375700  0.48306400  1
  Mn  Mn1  1  0.33386000  0.66402700  0.98178400  1
  Cr  Cr0  1  0.33161200  0.16512500  0.20012100  1
  Cr  Cr1  1  0.16535400  0.33118800  0.69975800  1
  Cr  Cr2  1  0.18139000  0.83540900  0.71635200  1
  O  O0  1  0.82607300  0.17406400  0.60808200  1
  O  O1  1  0.94906400  0.47386900  0.34700100  1
  O  O2  1  0.67404700  0.33657600  0.09600500  1
  O  O3  1  0.00047400  0.00076900  0.31328800  1
  O  O4  1  0.00597600  0.99791500  0.81138600  1
  O  O5  1  0.82565200  0.65804100  0.60201400  1
  O  O6  1  0.52059500  0.05155500  0.34140200  1
  O  O7  1  0.51939900  0.47003000  0.34080500  1
  O  O8  1  0.65383400  0.82610400  0.10493700  1
  O  O9  1  0.33885100  0.17864900  0.60584100  1
  O  O10  1  0.47343300  0.52527600  0.83901300  1
  O  O11  1  0.46995800  0.95233200  0.84542100  1
  O  O12  1  0.32626100  0.67328500  0.59847000  1
  O  O13  1  0.17777000  0.34305800  0.10641500  1
  O  O14  1  0.05028300  0.52100100  0.83988900  1
  O  O15  1  0.17699200  0.83197300  0.10733400  1
loop_
_geom_bond_atom_site_label_1
_geom_bond_atom_site_label_2
_geom_bond_distance
_geom_bond_site_symmetry_2
Mn0 O7 1.908621 1_555
Mn0 O6 1.908871 1_555
Mn0 O1 1.909641 1_555
Mn0 O5 1.959384 1_555
Mn0 O0 1.980158 1_555
Mn0 O9 1.999466 1_555
Mn1 O14 1.907560 1_555
Mn1 O10 1.909452 1_555
Mn1 O11 1.925302 1_555
Mn1 O8 1.952391 1_556
Mn1 O13 1.995504 1_556
Mn1 O15 2.000468 1_556
Cr0 O13 1.883649 1_555
Cr0 O15 1.887510 1_545
Cr0 O3 1.979744 1_555
Cr0 O2 1.989179 1_555
Cr0 O6 1.997233 1_555
Cr0 O7 2.001315 1_555
Cr1 O9 1.862200 1_555
Cr1 O0 1.901660 1_455
Cr1 O12 1.980519 1_555
Cr1 O4 1.986023 1_545
Cr1 O10 2.002154 1_555
Cr1 O14 2.007700 1_555
Cr2 O11 1.861076 1_555
Cr2 O12 1.887137 1_555
Cr2 O4 1.920032 1_555
Cr2 O14 1.967025 1_555
Cr2 O9 2.026230 1_565
Cr2 O5 2.066022 1_455
O0 Ti0 1.994498 1_545
O1 Ti1 1.996543 1_555
O1 Ti2 1.999302 1_555
O2 Ti1 1.952604 1_555
O2 Ti2 1.965027 1_555
O3 Ti2 1.930727 1_445
O3 Ti1 1.932896 1_455
O4 Ti0 1.919771 1_455
O5 Ti0 1.860985 1_555
O6 Ti1 1.988046 1_555
O7 Ti2 1.987221 1_555
O8 Ti2 1.960240 1_555
O8 Ti1 1.963358 1_565
O10 Ti0 1.987051 1_555
O11 Ti0 2.124755 1_555
O12 Ti0 2.008972 1_555
O13 Ti1 2.015561 1_455
O15 Ti2 2.011790 1_455
