# generated using pymatgen
data_Li3Mn2Fe(BO3)3
_symmetry_space_group_name_H-M   'P 1'
_cell_length_a   3.17140800
_cell_length_b   8.27475800
_cell_length_c   14.30438183
_cell_angle_alpha   89.96394676
_cell_angle_beta   90.00000000
_cell_angle_gamma   90.00000000
_symmetry_Int_Tables_number   1
_chemical_formula_structural   Li3Mn2Fe(BO3)3
_chemical_formula_sum   'Li6 Mn4 Fe2 B6 O18'
_cell_volume   375.38457868
_cell_formula_units_Z   2
loop_
 _symmetry_equiv_pos_site_id
 _symmetry_equiv_pos_as_xyz
  1  'x, y, z'
loop_
 _atom_site_type_symbol
 _atom_site_label
 _atom_site_symmetry_multiplicity
 _atom_site_fract_x
 _atom_site_fract_y
 _atom_site_fract_z
 _atom_site_occupancy
  Li  Li0  1  0.50000000  0.70774600  0.99011300  1
  Li  Li1  1  0.50000000  0.66071100  0.35884200  1
  Li  Li2  1  0.50000000  0.63515000  0.65038800  1
  Li  Li3  1  0.50000000  0.20691200  0.49193200  1
  Li  Li4  1  0.50000000  0.15770800  0.85672300  1
  Li  Li5  1  0.50000000  0.13283100  0.15078600  1
  Mn  Mn0  1  0.00000000  0.80842900  0.17987400  1
  Mn  Mn1  1  0.00000000  0.36568900  0.00547000  1
  Mn  Mn2  1  0.00000000  0.32593400  0.31461700  1
  Mn  Mn3  1  0.00000000  0.30798600  0.67995400  1
  Fe  Fe0  1  0.00000000  0.86235300  0.50434100  1
  Fe  Fe1  1  0.00000000  0.82430600  0.81619100  1
  B  B0  1  0.50000000  0.99733800  0.66623800  1
  B  B1  1  0.00000000  0.00073100  0.99880000  1
  B  B2  1  0.50000000  0.99904000  0.33451900  1
  B  B3  1  0.50000000  0.50004000  0.16670400  1
  B  B4  1  0.00000000  0.50129800  0.50089100  1
  B  B5  1  0.50000000  0.50207200  0.83333400  1
  O  O0  1  0.50000000  0.98766100  0.43145900  1
  O  O1  1  0.50000000  0.98022100  0.76317700  1
  O  O2  1  0.50000000  0.86211900  0.60852100  1
  O  O3  1  0.50000000  0.85985300  0.28014500  1
  O  O4  1  0.00000000  0.84717500  0.95823800  1
  O  O5  1  0.50000000  0.65223200  0.12494100  1
  O  O6  1  0.50000000  0.65312000  0.79047900  1
  O  O7  1  0.00000000  0.63899800  0.44418100  1
  O  O8  1  0.00000000  0.51847600  0.59754300  1
  O  O9  1  0.50000000  0.49079900  0.93022500  1
  O  O10  1  0.50000000  0.48644500  0.26382100  1
  O  O11  1  0.50000000  0.36156100  0.11160500  1
  O  O12  1  0.50000000  0.36206400  0.77980600  1
  O  O13  1  0.00000000  0.34780700  0.46075600  1
  O  O14  1  0.50000000  0.15149500  0.62636300  1
  O  O15  1  0.50000000  0.14955500  0.29130600  1
  O  O16  1  0.00000000  0.13703300  0.94185700  1
  O  O17  1  0.00000000  0.01711100  0.09586000  1
loop_
_geom_bond_atom_site_label_1
_geom_bond_atom_site_label_2
_geom_bond_distance
_geom_bond_site_symmetry_2
Li0 O5 1.982302 1_556
Li0 O9 1.989595 1_555
Li0 O4 2.013158 1_555
Li0 O4 2.013158 1_655
Li1 O10 1.982253 1_555
Li1 O3 1.995071 1_555
Li1 O7 2.009135 1_655
Li1 O7 2.009135 1_555
Li2 O2 1.970927 1_555
Li2 O8 2.004713 1_555
Li2 O8 2.004713 1_655
Li2 O6 2.009518 1_555
Li3 O14 1.976592 1_555
Li3 O0 2.010410 1_545
Li3 O13 2.017904 1_555
Li3 O13 2.017904 1_655
Li4 O1 1.987461 1_545
Li4 O16 2.006608 1_555
Li4 O16 2.006608 1_655
Li4 O12 2.016849 1_555
Li5 O11 1.973585 1_555
Li5 O17 2.012365 1_555
Li5 O17 2.012365 1_655
Li5 O15 2.014897 1_555
Mn0 O17 2.103200 1_565
Mn0 O3 2.180264 1_455
Mn0 O3 2.180264 1_555
Mn0 O5 2.191740 1_555
Mn0 O5 2.191740 1_455
Mn1 O16 2.100025 1_554
Mn1 O9 2.177912 1_454
Mn1 O9 2.177912 1_554
Mn1 O11 2.195558 1_455
Mn1 O11 2.195558 1_555
Mn2 O13 2.098362 1_555
Mn2 O15 2.180913 1_455
Mn2 O15 2.180913 1_555
Mn2 O10 2.192096 1_555
Mn2 O10 2.192096 1_455
Mn3 O8 2.102566 1_555
Mn3 O12 2.180735 1_555
Mn3 O12 2.180735 1_455
Mn3 O14 2.186365 1_555
Mn3 O14 2.186365 1_455
Fe0 O7 2.039222 1_555
Fe0 O0 2.162202 1_555
Fe0 O0 2.162202 1_455
Fe0 O2 2.176062 1_455
Fe0 O2 2.176062 1_555
Fe1 O4 2.040806 1_555
Fe1 O6 2.157990 1_455
Fe1 O6 2.157990 1_555
Fe1 O1 2.180093 1_455
Fe1 O1 2.180093 1_555
B0 O2 1.390948 1_555
B0 O1 1.393779 1_555
B0 O14 1.397001 1_565
B1 O16 1.390824 1_555
B1 O17 1.395069 1_556
B1 O4 1.397175 1_545
B2 O0 1.389801 1_555
B2 O15 1.390083 1_565
B2 O3 1.390173 1_555
B3 O11 1.391176 1_555
B3 O5 1.393521 1_555
B3 O10 1.393676 1_555
B4 O8 1.389924 1_555
B4 O13 1.394156 1_555
B4 O7 1.398283 1_555
B5 O9 1.389043 1_555
B5 O12 1.389096 1_555
B5 O6 1.391775 1_555
