# generated using pymatgen
data_NaAl3P2(HO3)4
_symmetry_space_group_name_H-M   'P 1'
_cell_length_a   10.25542500
_cell_length_b   7.17158300
_cell_length_c   12.57173920
_cell_angle_alpha   63.53334399
_cell_angle_beta   90.00000000
_cell_angle_gamma   90.00000000
_symmetry_Int_Tables_number   1
_chemical_formula_structural   NaAl3P2(HO3)4
_chemical_formula_sum   'Na4 Al12 P8 H16 O48'
_cell_volume   827.71563675
_cell_formula_units_Z   4
loop_
 _symmetry_equiv_pos_site_id
 _symmetry_equiv_pos_as_xyz
  1  'x, y, z'
loop_
 _atom_site_type_symbol
 _atom_site_label
 _atom_site_symmetry_multiplicity
 _atom_site_fract_x
 _atom_site_fract_y
 _atom_site_fract_z
 _atom_site_occupancy
  Na  Na0  1  0.42424700  0.26573400  0.19596900  1
  Na  Na1  1  0.07575300  0.26573400  0.69596900  1
  Na  Na2  1  0.57575300  0.73426600  0.80403100  1
  Na  Na3  1  0.92424700  0.73426600  0.30403100  1
  Al  Al0  1  0.28027200  0.48306900  0.45600500  1
  Al  Al1  1  0.21972800  0.48306900  0.95600500  1
  Al  Al2  1  0.71972800  0.51693100  0.54399500  1
  Al  Al3  1  0.78027200  0.51693100  0.04399500  1
  Al  Al4  1  0.43386500  0.75319200  0.23702200  1
  Al  Al5  1  0.06613500  0.75319200  0.73702200  1
  Al  Al6  1  0.56613500  0.24680800  0.76297800  1
  Al  Al7  1  0.93386500  0.24680800  0.26297800  1
  Al  Al8  1  0.24696500  0.02807900  0.04137900  1
  Al  Al9  1  0.25303500  0.02807900  0.54137900  1
  Al  Al10  1  0.75303500  0.97192100  0.95862100  1
  Al  Al11  1  0.74696500  0.97192100  0.45862100  1
  P  P0  1  0.18849000  0.94589400  0.31933500  1
  P  P1  1  0.31151000  0.94589400  0.81933500  1
  P  P2  1  0.81151000  0.05410600  0.68066500  1
  P  P3  1  0.68849000  0.05410600  0.18066500  1
  P  P4  1  0.17133700  0.56068000  0.18829400  1
  P  P5  1  0.32866300  0.56068000  0.68829400  1
  P  P6  1  0.82866300  0.43932000  0.81170600  1
  P  P7  1  0.67133700  0.43932000  0.31170600  1
  H  H0  1  0.49036100  0.69971000  0.43465700  1
  H  H1  1  0.00963900  0.69971000  0.93465700  1
  H  H2  1  0.50963900  0.30029000  0.56534300  1
  H  H3  1  0.99036100  0.30029000  0.06534300  1
  H  H4  1  0.40335700  0.77915200  0.03203500  1
  H  H5  1  0.09664300  0.77915200  0.53203500  1
  H  H6  1  0.59664300  0.22084800  0.96796500  1
  H  H7  1  0.90335700  0.22084800  0.46796500  1
  H  H8  1  0.09567500  0.31473900  0.42684100  1
  H  H9  1  0.40432500  0.31473900  0.92684100  1
  H  H10  1  0.90432500  0.68526100  0.57315900  1
  H  H11  1  0.59567500  0.68526100  0.07315900  1
  H  H12  1  0.45338700  0.21618800  0.45108100  1
  H  H13  1  0.04661300  0.21618800  0.95108100  1
  H  H14  1  0.54661300  0.78381200  0.54891900  1
  H  H15  1  0.95338700  0.78381200  0.04891900  1
  O  O0  1  0.42167700  0.65235100  0.39668600  1
  O  O1  1  0.07832300  0.65235100  0.89668600  1
  O  O2  1  0.57832300  0.34764900  0.60331400  1
  O  O3  1  0.92167700  0.34764900  0.10331400  1
  O  O4  1  0.39423300  0.85610600  0.07915200  1
  O  O5  1  0.10576700  0.85610600  0.57915200  1
  O  O6  1  0.60576700  0.14389400  0.92084800  1
  O  O7  1  0.89423300  0.14389400  0.42084800  1
  O  O8  1  0.14973900  0.28168100  0.49748300  1
  O  O9  1  0.35026100  0.28168100  0.99748300  1
  O  O10  1  0.85026100  0.71831900  0.50251700  1
  O  O11  1  0.64973900  0.71831900  0.00251700  1
  O  O12  1  0.11398600  0.22778100  0.00321000  1
  O  O13  1  0.38601400  0.22778100  0.50321000  1
  O  O14  1  0.88601400  0.77221900  0.99679000  1
  O  O15  1  0.61398600  0.77221900  0.49679000  1
  O  O16  1  0.26129800  0.04924900  0.38616800  1
  O  O17  1  0.23870200  0.04924900  0.88616800  1
  O  O18  1  0.73870200  0.95075100  0.61383200  1
  O  O19  1  0.76129800  0.95075100  0.11383200  1
  O  O20  1  0.27953500  0.97028900  0.21279600  1
  O  O21  1  0.22046500  0.97028900  0.71279600  1
  O  O22  1  0.72046500  0.02971100  0.78720400  1
  O  O23  1  0.77953500  0.02971100  0.28720400  1
  O  O24  1  0.28443700  0.54403700  0.27680400  1
  O  O25  1  0.21556300  0.54403700  0.77680400  1
  O  O26  1  0.71556300  0.45596300  0.72319600  1
  O  O27  1  0.78443700  0.45596300  0.22319600  1
  O  O28  1  0.21906400  0.45552900  0.11229500  1
  O  O29  1  0.28093600  0.45552900  0.61229500  1
  O  O30  1  0.78093600  0.54447100  0.88770500  1
  O  O31  1  0.71906400  0.54447100  0.38770500  1
  O  O32  1  0.16020700  0.71120100  0.40244300  1
  O  O33  1  0.33979300  0.71120100  0.90244300  1
  O  O34  1  0.83979300  0.28879900  0.59755700  1
  O  O35  1  0.66020700  0.28879900  0.09755700  1
  O  O36  1  0.13061400  0.78991300  0.10999900  1
  O  O37  1  0.36938600  0.78991300  0.60999900  1
  O  O38  1  0.86938600  0.21008700  0.89000100  1
  O  O39  1  0.63061400  0.21008700  0.39000100  1
  O  O40  1  0.05410300  0.04428500  0.27308700  1
  O  O41  1  0.44589700  0.04428500  0.77308700  1
  O  O42  1  0.94589700  0.95571500  0.72691300  1
  O  O43  1  0.55410300  0.95571500  0.22691300  1
  O  O44  1  0.05155700  0.44536100  0.26627200  1
  O  O45  1  0.44844300  0.44536100  0.76627200  1
  O  O46  1  0.94844300  0.55463900  0.73372800  1
  O  O47  1  0.55155700  0.55463900  0.23372800  1
loop_
_geom_bond_atom_site_label_1
_geom_bond_atom_site_label_2
_geom_bond_distance
_geom_bond_site_symmetry_2
Na0 O43 2.469225 1_545
Na0 O28 2.472003 1_555
Na0 O20 2.517355 1_545
Na0 O9 2.561448 1_554
Na0 O47 2.664478 1_555
Na0 O35 2.689127 1_555
Na0 O16 2.758896 1_555
Na1 O42 2.469225 1_445
Na1 O29 2.472003 1_555
Na1 O21 2.517355 1_545
Na1 O8 2.561448 1_555
Na1 O46 2.664478 1_455
Na1 O34 2.689127 1_455
Na1 O17 2.758896 1_555
Na2 O41 2.469225 1_565
Na2 O30 2.472003 1_555
Na2 O22 2.517355 1_565
Na2 O11 2.561448 1_556
Na2 O45 2.664478 1_555
Na2 O33 2.689127 1_555
Na2 O18 2.758896 1_555
Na3 O40 2.469225 1_665
Na3 O31 2.472003 1_555
Na3 O23 2.517355 1_565
Na3 O10 2.561448 1_555
Na3 O44 2.664478 1_655
Na3 O32 2.689127 1_655
Na3 O19 2.758896 1_555
Al0 O0 1.823727 1_555
Al0 O8 1.865094 1_555
Al0 O29 1.885135 1_555
Al0 O32 1.914237 1_555
Al0 O13 1.977780 1_555
Al0 O24 2.095328 1_555
Al1 O1 1.823727 1_555
Al1 O9 1.865094 1_555
Al1 O28 1.885135 1_556
Al1 O33 1.914237 1_555
Al1 O12 1.977780 1_556
Al1 O25 2.095328 1_555
Al2 O2 1.823727 1_555
Al2 O10 1.865094 1_555
Al2 O31 1.885135 1_555
Al2 O34 1.914237 1_555
Al2 O15 1.977780 1_555
Al2 O26 2.095328 1_555
Al3 O3 1.823727 1_555
Al3 O11 1.865094 1_555
Al3 O30 1.885135 1_554
Al3 O35 1.914237 1_555
Al3 O14 1.977780 1_554
Al3 O27 2.095328 1_555
Al4 O0 1.809360 1_555
Al4 O4 1.828465 1_555
Al4 O43 1.865914 1_555
Al4 O47 1.881139 1_555
Al4 O24 2.044448 1_555
Al4 O20 2.144557 1_555
Al5 O1 1.809360 1_555
Al5 O5 1.828465 1_555
Al5 O42 1.865914 1_455
Al5 O46 1.881139 1_455
Al5 O25 2.044448 1_555
Al5 O21 2.144557 1_555
Al6 O2 1.809360 1_555
Al6 O6 1.828465 1_555
Al6 O41 1.865914 1_555
Al6 O45 1.881139 1_555
Al6 O26 2.044448 1_555
Al6 O22 2.144557 1_555
Al7 O3 1.809360 1_555
Al7 O7 1.828465 1_555
Al7 O40 1.865914 1_655
Al7 O44 1.881139 1_655
Al7 O27 2.044448 1_555
Al7 O23 2.144557 1_555
Al8 O4 1.872307 1_545
Al8 O12 1.878472 1_555
Al8 O17 1.890406 1_554
Al8 O36 1.942157 1_545
Al8 O9 1.959566 1_554
Al8 O20 2.032561 1_545
Al9 O5 1.872307 1_545
Al9 O13 1.878472 1_555
Al9 O16 1.890406 1_555
Al9 O37 1.942157 1_545
Al9 O8 1.959566 1_555
Al9 O21 2.032561 1_545
Al10 O6 1.872307 1_565
Al10 O14 1.878472 1_555
Al10 O19 1.890406 1_556
Al10 O38 1.942157 1_565
Al10 O11 1.959566 1_556
Al10 O22 2.032561 1_565
Al11 O7 1.872307 1_565
Al11 O15 1.878472 1_555
Al11 O18 1.890406 1_555
Al11 O39 1.942157 1_565
Al11 O10 1.959566 1_555
Al11 O23 2.032561 1_565
H0 O0 0.991918 1_555
H1 O1 0.991918 1_555
H2 O2 0.991918 1_555
H3 O3 0.991918 1_555
H4 O4 0.977541 1_555
H5 O5 0.977541 1_555
H6 O6 0.977541 1_555
H7 O7 0.977541 1_555
H8 O8 0.982169 1_555
H9 O9 0.982169 1_555
H10 O10 0.982169 1_555
H11 O11 0.982169 1_555
H12 O13 0.981000 1_555
H13 O12 0.981000 1_556
H14 O15 0.981000 1_555
H15 O14 0.981000 1_554
O16 P0 1.538829 1_545
O17 P1 1.538829 1_545
O18 P2 1.538829 1_565
O19 P3 1.538829 1_565
O20 P0 1.577177 1_555
O21 P1 1.577177 1_555
O22 P2 1.577177 1_555
O23 P3 1.577177 1_555
O24 P4 1.574599 1_555
O25 P5 1.574599 1_555
O26 P6 1.574599 1_555
O27 P7 1.574599 1_555
O28 P4 1.537309 1_555
O29 P5 1.537309 1_555
O30 P6 1.537309 1_555
O31 P7 1.537309 1_555
O32 P0 1.562425 1_555
O33 P1 1.562425 1_555
O34 P2 1.562425 1_555
O35 P3 1.562425 1_555
O36 P4 1.550333 1_555
O37 P5 1.550333 1_555
O38 P6 1.550333 1_555
O39 P7 1.550333 1_555
O40 P0 1.539377 1_545
O41 P1 1.539377 1_545
O42 P2 1.539377 1_565
O43 P3 1.539377 1_565
O44 P4 1.559257 1_555
O45 P5 1.559257 1_555
O46 P6 1.559257 1_555
O47 P7 1.559257 1_555
