# generated using pymatgen
data_Mn7Fe3O20
_symmetry_space_group_name_H-M   'P 1'
_cell_length_a   5.88468063
_cell_length_b   5.88468063
_cell_length_c   24.37743183
_cell_angle_alpha   83.23401190
_cell_angle_beta   83.23401190
_cell_angle_gamma   59.33374312
_symmetry_Int_Tables_number   1
_chemical_formula_structural   Mn7Fe3O20
_chemical_formula_sum   'Mn14 Fe6 O40'
_cell_volume   719.41612024
_cell_formula_units_Z   2
loop_
 _symmetry_equiv_pos_site_id
 _symmetry_equiv_pos_as_xyz
  1  'x, y, z'
loop_
 _atom_site_type_symbol
 _atom_site_label
 _atom_site_symmetry_multiplicity
 _atom_site_fract_x
 _atom_site_fract_y
 _atom_site_fract_z
 _atom_site_occupancy
  Mn  Mn0  1  0.30063600  0.30063600  0.09967800  1
  Mn  Mn1  1  0.29798600  0.80334100  0.09987400  1
  Mn  Mn2  1  0.70201400  0.19665900  0.90012600  1
  Mn  Mn3  1  0.19665900  0.70201400  0.90012600  1
  Mn  Mn4  1  0.80334100  0.29798600  0.09987400  1
  Mn  Mn5  1  0.69936400  0.69936400  0.90032200  1
  Mn  Mn6  1  0.10022500  0.60354500  0.69977400  1
  Mn  Mn7  1  0.39645500  0.89977500  0.30022600  1
  Mn  Mn8  1  0.60354500  0.10022500  0.69977400  1
  Mn  Mn9  1  0.00000000  0.50000000  0.50000000  1
  Mn  Mn10  1  0.89977500  0.39645500  0.30022600  1
  Mn  Mn11  1  0.50000000  0.00000000  0.50000000  1
  Mn  Mn12  1  0.70308500  0.70308500  0.39997900  1
  Mn  Mn13  1  0.29691500  0.29691500  0.60002100  1
  Fe  Fe0  1  0.90205700  0.90205700  0.80011600  1
  Fe  Fe1  1  0.09794300  0.09794300  0.19988400  1
  Fe  Fe2  1  0.50000000  0.50000000  0.00000000  1
  Fe  Fe3  1  0.10210900  0.10210900  0.70019400  1
  Fe  Fe4  1  0.50000000  0.50000000  0.50000000  1
  Fe  Fe5  1  0.89789100  0.89789100  0.29980600  1
  O  O0  1  0.41133800  0.97334900  0.14516900  1
  O  O1  1  0.97334900  0.41133800  0.14516900  1
  O  O2  1  0.85499600  0.85499600  0.94067800  1
  O  O3  1  0.45329400  0.45329400  0.14041600  1
  O  O4  1  0.62830000  0.18949200  0.05433300  1
  O  O5  1  0.18949200  0.62830000  0.05433300  1
  O  O6  1  0.58866200  0.02665100  0.85483100  1
  O  O7  1  0.63062300  0.63062300  0.05459700  1
  O  O8  1  0.36937700  0.36937700  0.94540300  1
  O  O9  1  0.97041800  0.97041800  0.14489400  1
  O  O10  1  0.81050800  0.37170000  0.94566700  1
  O  O11  1  0.37170000  0.81050800  0.94566700  1
  O  O12  1  0.76364200  0.21974900  0.74636600  1
  O  O13  1  0.94538800  0.94538800  0.65911200  1
  O  O14  1  0.14500400  0.14500400  0.05932200  1
  O  O15  1  0.54670600  0.54670600  0.85958400  1
  O  O16  1  0.02665100  0.58866200  0.85483100  1
  O  O17  1  0.02958200  0.02958200  0.85510600  1
  O  O18  1  0.42976700  0.42976700  0.65301900  1
  O  O19  1  0.99046800  0.43741800  0.65254900  1
  O  O20  1  0.21974900  0.76364200  0.74636600  1
  O  O21  1  0.17395000  0.17395100  0.54689000  1
  O  O22  1  0.77227000  0.77227000  0.74559900  1
  O  O23  1  0.16529000  0.61345200  0.54783000  1
  O  O24  1  0.83471000  0.38654800  0.45217000  1
  O  O25  1  0.25899900  0.25899900  0.74118500  1
  O  O26  1  0.43741800  0.99046800  0.65254900  1
  O  O27  1  0.65863300  0.65863300  0.54088200  1
  O  O28  1  0.05461200  0.05461200  0.34088800  1
  O  O29  1  0.22773000  0.22773000  0.25440100  1
  O  O30  1  0.82605000  0.82605000  0.45311000  1
  O  O31  1  0.38654800  0.83471000  0.45217000  1
  O  O32  1  0.61345200  0.16529000  0.54783000  1
  O  O33  1  0.57023300  0.57023300  0.34698100  1
  O  O34  1  0.00953200  0.56258200  0.34745100  1
  O  O35  1  0.56258200  0.00953200  0.34745100  1
  O  O36  1  0.34136700  0.34136700  0.45911800  1
  O  O37  1  0.74100100  0.74100100  0.25881500  1
  O  O38  1  0.23635800  0.78025100  0.25363400  1
  O  O39  1  0.78025100  0.23635800  0.25363400  1
loop_
_geom_bond_atom_site_label_1
_geom_bond_atom_site_label_2
_geom_bond_distance
_geom_bond_site_symmetry_2
Mn0 O5 1.936313 1_555
Mn0 O4 1.936313 1_555
Mn0 O1 1.936663 1_455
Mn0 O0 1.936663 1_545
Mn0 O3 1.960590 1_555
Mn0 O14 1.981303 1_555
Mn1 O9 1.925974 1_455
Mn1 O14 1.930058 1_565
Mn1 O0 1.944120 1_555
Mn1 O5 1.951522 1_555
Mn1 O7 1.951593 1_555
Mn1 O3 1.966722 1_555
Mn2 O17 1.925974 1_655
Mn2 O2 1.930058 1_545
Mn2 O6 1.944120 1_555
Mn2 O10 1.951522 1_555
Mn2 O8 1.951593 1_555
Mn2 O15 1.966722 1_555
Mn3 O17 1.925974 1_565
Mn3 O2 1.930058 1_455
Mn3 O16 1.944120 1_555
Mn3 O11 1.951522 1_555
Mn3 O8 1.951593 1_555
Mn3 O15 1.966722 1_555
Mn4 O9 1.925974 1_545
Mn4 O14 1.930058 1_655
Mn4 O1 1.944120 1_555
Mn4 O4 1.951522 1_555
Mn4 O7 1.951593 1_555
Mn4 O3 1.966722 1_555
Mn5 O11 1.936313 1_555
Mn5 O10 1.936313 1_555
Mn5 O16 1.936663 1_655
Mn5 O6 1.936663 1_565
Mn5 O15 1.960590 1_555
Mn5 O2 1.981303 1_555
Mn6 O13 1.932019 1_455
Mn6 O22 1.938297 1_455
Mn6 O19 1.944911 1_455
Mn6 O20 1.946447 1_555
Mn6 O25 1.952056 1_555
Mn6 O18 1.958677 1_555
Mn7 O28 1.932019 1_565
Mn7 O29 1.938297 1_565
Mn7 O35 1.944911 1_565
Mn7 O38 1.946447 1_555
Mn7 O37 1.952056 1_555
Mn7 O33 1.958677 1_555
Mn8 O13 1.932019 1_545
Mn8 O22 1.938297 1_545
Mn8 O26 1.944911 1_545
Mn8 O12 1.946447 1_555
Mn8 O25 1.952056 1_555
Mn8 O18 1.958677 1_555
Mn9 O27 1.932523 1_455
Mn9 O36 1.932523 1_555
Mn9 O21 1.947116 1_555
Mn9 O30 1.947119 1_455
Mn9 O24 1.965808 1_455
Mn9 O23 1.965808 1_555
Mn10 O28 1.932019 1_655
Mn10 O29 1.938297 1_655
Mn10 O34 1.944911 1_655
Mn10 O39 1.946447 1_555
Mn10 O37 1.952056 1_555
Mn10 O33 1.958677 1_555
Mn11 O27 1.932523 1_545
Mn11 O36 1.932523 1_555
Mn11 O30 1.947119 1_545
Mn11 O21 1.947120 1_555
Mn11 O31 1.965808 1_545
Mn11 O32 1.965808 1_555
Mn12 O30 1.923682 1_555
Mn12 O34 1.939005 1_655
Mn12 O35 1.939005 1_565
Mn12 O31 1.972411 1_555
Mn12 O24 1.972411 1_555
Mn12 O33 1.997749 1_555
Mn13 O21 1.923678 1_555
Mn13 O19 1.939005 1_455
Mn13 O26 1.939005 1_545
Mn13 O23 1.972411 1_555
Mn13 O32 1.972411 1_555
Mn13 O18 1.997749 1_555
Fe0 O17 1.992952 1_665
Fe0 O6 1.997325 1_565
Fe0 O16 1.997325 1_655
Fe0 O20 1.999085 1_655
Fe0 O12 1.999085 1_565
Fe0 O22 2.001552 1_555
Fe1 O9 1.992952 1_445
Fe1 O0 1.997325 1_545
Fe1 O1 1.997325 1_455
Fe1 O39 1.999085 1_455
Fe1 O38 1.999085 1_545
Fe1 O29 2.001552 1_555
Fe2 O4 1.980211 1_555
Fe2 O5 1.980211 1_555
Fe2 O10 1.980211 1_554
Fe2 O11 1.980211 1_554
Fe2 O7 2.009466 1_555
Fe2 O8 2.009466 1_554
Fe3 O20 1.990501 1_545
Fe3 O12 1.990501 1_455
Fe3 O19 1.997876 1_455
Fe3 O26 1.997876 1_545
Fe3 O13 2.001733 1_445
Fe3 O25 2.001885 1_555
Fe4 O32 1.996415 1_555
Fe4 O31 1.996415 1_555
Fe4 O24 1.996415 1_555
Fe4 O23 1.996415 1_555
Fe4 O27 2.015792 1_555
Fe4 O36 2.015792 1_555
Fe5 O38 1.990501 1_655
Fe5 O39 1.990501 1_565
Fe5 O34 1.997876 1_655
Fe5 O35 1.997876 1_565
Fe5 O28 2.001733 1_665
Fe5 O37 2.001885 1_555
