# generated using pymatgen
data_LuTa7O19
_symmetry_space_group_name_H-M   'P 1'
_cell_length_a   6.24806164
_cell_length_b   6.24806164
_cell_length_c   20.03968800
_cell_angle_alpha   90.00000000
_cell_angle_beta   90.00000000
_cell_angle_gamma   119.99999618
_symmetry_Int_Tables_number   1
_chemical_formula_structural   LuTa7O19
_chemical_formula_sum   'Lu2 Ta14 O38'
_cell_volume   677.50454782
_cell_formula_units_Z   2
loop_
 _symmetry_equiv_pos_site_id
 _symmetry_equiv_pos_as_xyz
  1  'x, y, z'
loop_
 _atom_site_type_symbol
 _atom_site_label
 _atom_site_symmetry_multiplicity
 _atom_site_fract_x
 _atom_site_fract_y
 _atom_site_fract_z
 _atom_site_occupancy
  Lu  Lu0  1  0.66666700  0.33333300  0.00000000  1
  Lu  Lu1  1  0.66666700  0.33333300  0.50000000  1
  Ta  Ta0  1  0.69373300  0.02753600  0.34483400  1
  Ta  Ta1  1  0.69373300  0.02753600  0.15516600  1
  Ta  Ta2  1  0.97246400  0.30626700  0.84483400  1
  Ta  Ta3  1  0.97246400  0.30626700  0.65516600  1
  Ta  Ta4  1  0.69373300  0.66619700  0.84483400  1
  Ta  Ta5  1  0.69373300  0.66619700  0.65516600  1
  Ta  Ta6  1  0.00000000  0.00000000  0.50000000  1
  Ta  Ta7  1  0.00000000  0.00000000  0.00000000  1
  Ta  Ta8  1  0.97246400  0.66619700  0.15516600  1
  Ta  Ta9  1  0.97246400  0.66619700  0.34483400  1
  Ta  Ta10  1  0.33380300  0.30626700  0.15516600  1
  Ta  Ta11  1  0.33380300  0.30626700  0.34483400  1
  Ta  Ta12  1  0.33380300  0.02753600  0.84483400  1
  Ta  Ta13  1  0.33380300  0.02753600  0.65516600  1
  O  O0  1  0.33286700  0.41891000  0.65305500  1
  O  O1  1  0.33286700  0.41891000  0.84694500  1
  O  O2  1  0.37634500  0.29321000  0.25000000  1
  O  O3  1  0.58109000  0.66713300  0.34694500  1
  O  O4  1  0.58109000  0.66713300  0.15305500  1
  O  O5  1  0.37634500  0.08313500  0.75000000  1
  O  O6  1  0.33286700  0.91395700  0.15305500  1
  O  O7  1  0.33286700  0.91395700  0.34694500  1
  O  O8  1  0.70679000  0.62365500  0.75000000  1
  O  O9  1  0.66666700  0.33333300  0.13051400  1
  O  O10  1  0.66666700  0.33333300  0.86948600  1
  O  O11  1  0.66666700  0.33333300  0.63051400  1
  O  O12  1  0.66666700  0.33333300  0.36948600  1
  O  O13  1  0.91686500  0.62365500  0.25000000  1
  O  O14  1  0.58109000  0.91395700  0.65305500  1
  O  O15  1  0.58109000  0.91395700  0.84694500  1
  O  O16  1  0.70679000  0.08313500  0.25000000  1
  O  O17  1  0.75990300  0.05318800  0.05487900  1
  O  O18  1  0.75990300  0.05318800  0.44512100  1
  O  O19  1  0.08604300  0.66713300  0.65305500  1
  O  O20  1  0.08604300  0.66713300  0.84694500  1
  O  O21  1  0.91686500  0.29321000  0.75000000  1
  O  O22  1  0.94681200  0.24009700  0.94512100  1
  O  O23  1  0.94681200  0.24009700  0.55487900  1
  O  O24  1  0.08604300  0.41891000  0.34694500  1
  O  O25  1  0.08604300  0.41891000  0.15305500  1
  O  O26  1  0.75990300  0.70671500  0.55487900  1
  O  O27  1  0.75990300  0.70671500  0.94512100  1
  O  O28  1  0.00000000  0.00000000  0.33413900  1
  O  O29  1  0.00000000  0.00000000  0.83413900  1
  O  O30  1  0.00000000  0.00000000  0.66586100  1
  O  O31  1  0.00000000  0.00000000  0.16586100  1
  O  O32  1  0.94681200  0.70671500  0.05487900  1
  O  O33  1  0.94681200  0.70671500  0.44512100  1
  O  O34  1  0.29328500  0.24009700  0.05487900  1
  O  O35  1  0.29328500  0.24009700  0.44512100  1
  O  O36  1  0.29328500  0.05318800  0.94512100  1
  O  O37  1  0.29328500  0.05318800  0.55487900  1
loop_
_geom_bond_atom_site_label_1
_geom_bond_atom_site_label_2
_geom_bond_distance
_geom_bond_site_symmetry_2
Lu0 O17 2.373238 1_555
Lu0 O22 2.373238 1_554
Lu0 O32 2.373242 1_555
Lu0 O36 2.373242 1_554
Lu0 O27 2.373244 1_554
Lu0 O34 2.373244 1_555
Lu0 O9 2.615460 1_555
Lu0 O10 2.615460 1_554
Lu1 O18 2.373238 1_555
Lu1 O23 2.373238 1_555
Lu1 O33 2.373242 1_555
Lu1 O37 2.373242 1_555
Lu1 O26 2.373244 1_555
Lu1 O35 2.373244 1_555
Lu1 O12 2.615460 1_555
Lu1 O11 2.615460 1_555
O0 Ta3 1.995742 1_455
O0 Ta5 1.997265 1_555
O0 Ta13 2.448624 1_555
O1 Ta2 1.995742 1_455
O1 Ta4 1.997265 1_555
O1 Ta12 2.448624 1_555
O2 Ta11 1.926312 1_555
O2 Ta10 1.926312 1_555
O3 Ta0 1.995742 1_565
O3 Ta11 1.997265 1_555
O3 Ta9 2.448624 1_555
O4 Ta1 1.995742 1_565
O4 Ta10 1.997265 1_555
O4 Ta8 2.448624 1_555
O5 Ta12 1.926312 1_555
O5 Ta13 1.926312 1_555
O6 Ta8 1.995742 1_455
O6 Ta1 1.997265 1_565
O6 Ta10 2.448624 1_565
O7 Ta9 1.995742 1_455
O7 Ta0 1.997265 1_565
O7 Ta11 2.448624 1_565
O8 Ta4 1.926312 1_555
O8 Ta5 1.926312 1_555
O9 Ta1 2.060655 1_555
O9 Ta8 2.060659 1_555
O9 Ta10 2.060661 1_555
O10 Ta2 2.060655 1_555
O10 Ta12 2.060659 1_555
O10 Ta4 2.060661 1_555
O11 Ta3 2.060655 1_555
O11 Ta13 2.060659 1_555
O11 Ta5 2.060661 1_555
O12 Ta0 2.060655 1_555
O12 Ta9 2.060659 1_555
O12 Ta11 2.060661 1_555
O13 Ta9 1.926312 1_555
O13 Ta8 1.926312 1_555
O14 Ta5 1.995742 1_555
O14 Ta13 1.997265 1_565
O14 Ta3 2.448624 1_565
O15 Ta4 1.995742 1_555
O15 Ta12 1.997265 1_565
O15 Ta2 2.448624 1_565
O16 Ta0 1.926312 1_555
O16 Ta1 1.926312 1_555
O17 Ta7 2.017141 1_655
O17 Ta1 2.041893 1_555
O18 Ta6 2.017141 1_655
O18 Ta0 2.041893 1_555
O19 Ta13 1.995742 1_565
O19 Ta3 1.997265 1_455
O19 Ta5 2.448624 1_455
O20 Ta12 1.995742 1_565
O20 Ta2 1.997265 1_455
O20 Ta4 2.448624 1_455
O21 Ta2 1.926312 1_555
O21 Ta3 1.926312 1_555
O22 Ta7 2.017141 1_656
O22 Ta2 2.041893 1_555
O23 Ta6 2.017141 1_655
O23 Ta3 2.041893 1_555
O24 Ta11 1.995742 1_555
O24 Ta9 1.997265 1_455
O24 Ta0 2.448624 1_455
O25 Ta10 1.995742 1_555
O25 Ta8 1.997265 1_455
O25 Ta1 2.448624 1_455
O26 Ta6 2.017141 1_665
O26 Ta5 2.041893 1_555
O27 Ta7 2.017141 1_666
O27 Ta4 2.041893 1_555
O28 Ta0 2.016564 1_455
O28 Ta9 2.016564 1_445
O28 Ta11 2.016564 1_555
O29 Ta2 2.016564 1_455
O29 Ta12 2.016564 1_555
O29 Ta4 2.016564 1_445
O30 Ta3 2.016564 1_455
O30 Ta13 2.016564 1_555
O30 Ta5 2.016564 1_445
O31 Ta1 2.016564 1_455
O31 Ta8 2.016564 1_445
O31 Ta10 2.016564 1_555
O32 Ta7 2.017141 1_665
O32 Ta8 2.041893 1_555
O33 Ta6 2.017141 1_665
O33 Ta9 2.041893 1_555
O34 Ta7 2.017141 1_555
O34 Ta10 2.041893 1_555
O35 Ta6 2.017141 1_555
O35 Ta11 2.041893 1_555
O36 Ta7 2.017141 1_556
O36 Ta12 2.041893 1_555
O37 Ta6 2.017141 1_555
O37 Ta13 2.041893 1_555
