# generated using pymatgen
data_Fe10O11F9
_symmetry_space_group_name_H-M   'P 1'
_cell_length_a   4.74427092
_cell_length_b   4.74339880
_cell_length_c   15.38824639
_cell_angle_alpha   90.05863556
_cell_angle_beta   89.98501257
_cell_angle_gamma   90.71818410
_symmetry_Int_Tables_number   1
_chemical_formula_structural   Fe10O11F9
_chemical_formula_sum   'Fe10 O11 F9'
_cell_volume   346.26922295
_cell_formula_units_Z   1
loop_
 _symmetry_equiv_pos_site_id
 _symmetry_equiv_pos_as_xyz
  1  'x, y, z'
loop_
 _atom_site_type_symbol
 _atom_site_label
 _atom_site_symmetry_multiplicity
 _atom_site_fract_x
 _atom_site_fract_y
 _atom_site_fract_z
 _atom_site_occupancy
  Fe  Fe0  1  0.98922200  0.98602200  0.00048100  1
  Fe  Fe1  1  0.03220900  0.02743200  0.19902800  1
  Fe  Fe2  1  0.98887500  0.94578500  0.39864600  1
  Fe  Fe3  1  0.04830000  0.00165100  0.60005900  1
  Fe  Fe4  1  0.04147400  0.00011000  0.80137500  1
  Fe  Fe5  1  0.52391400  0.45525000  0.09429700  1
  Fe  Fe6  1  0.48205900  0.51812800  0.50005500  1
  Fe  Fe7  1  0.47548700  0.52716400  0.29670700  1
  Fe  Fe8  1  0.45972800  0.49707800  0.70295500  1
  Fe  Fe9  1  0.46537700  0.51364800  0.90741600  1
  O  O0  1  0.18500000  0.81175600  0.29661000  1
  O  O1  1  0.18839600  0.80322700  0.49895000  1
  O  O2  1  0.20286400  0.81799700  0.70102700  1
  O  O3  1  0.18435700  0.81264500  0.90229900  1
  O  O4  1  0.29748800  0.28965400  0.00129100  1
  O  O5  1  0.32463800  0.31199600  0.19795700  1
  O  O6  1  0.31373900  0.31751000  0.59916300  1
  O  O7  1  0.30269100  0.31728900  0.80334000  1
  O  O8  1  0.69144700  0.68473000  0.00158900  1
  O  O9  1  0.67332100  0.68098000  0.39816300  1
  O  O10  1  0.82311000  0.17732800  0.10161000  1
  F  F0  1  0.20917500  0.79273100  0.10231800  1
  F  F1  1  0.28690500  0.29772600  0.39832200  1
  F  F2  1  0.70898000  0.69847100  0.19917700  1
  F  F3  1  0.70147500  0.70754700  0.60086700  1
  F  F4  1  0.69603200  0.70809900  0.79992500  1
  F  F5  1  0.80021100  0.19443700  0.49863700  1
  F  F6  1  0.79985900  0.19778900  0.30057000  1
  F  F7  1  0.79605300  0.19784000  0.89745200  1
  F  F8  1  0.80761200  0.20797800  0.69971200  1
loop_
_geom_bond_atom_site_label_1
_geom_bond_atom_site_label_2
_geom_bond_distance
_geom_bond_site_symmetry_2
Fe0 O3 1.957516 1_654
Fe0 O10 1.969941 1_565
Fe0 O8 1.996991 1_555
Fe0 O4 2.039739 1_665
Fe1 O5 1.923563 1_555
Fe1 O10 1.938446 1_455
Fe1 O0 1.961941 1_545
Fe2 O0 1.935811 1_655
Fe2 O1 1.937685 1_655
Fe2 O9 1.942127 1_555
Fe3 O2 1.931331 1_545
Fe3 O1 1.939218 1_545
Fe3 O6 1.945131 1_555
Fe4 O3 1.918505 1_545
Fe4 O2 1.931372 1_545
Fe4 O7 1.937386 1_555
Fe5 O4 1.948496 1_555
Fe5 O10 1.952626 1_555
Fe5 O8 1.957736 1_555
Fe5 O5 1.971133 1_555
Fe6 O1 1.953830 1_555
Fe6 O6 1.962769 1_555
Fe6 O9 1.965371 1_555
Fe7 O0 1.941201 1_555
Fe7 O9 1.957541 1_555
Fe7 O5 1.960127 1_555
Fe8 O7 1.911744 1_555
Fe8 O6 1.933698 1_555
Fe8 O2 1.962090 1_555
Fe9 O4 1.957404 1_556
Fe9 O3 1.960324 1_555
Fe9 O8 1.971175 1_556
Fe9 O7 2.001940 1_555
F0 Fe1 2.044113 1_565
F0 Fe0 2.100741 1_455
F0 Fe5 2.206107 1_555
F1 Fe6 2.091437 1_555
F1 Fe7 2.099599 1_555
F1 Fe2 2.174158 1_445
F2 Fe7 2.029510 1_555
F2 Fe5 2.162908 1_555
F2 Fe1 2.174036 1_665
F3 Fe6 2.066891 1_555
F3 Fe3 2.143887 1_665
F3 Fe8 2.180265 1_555
F4 Fe8 2.110711 1_555
F4 Fe4 2.132607 1_665
F4 Fe9 2.182001 1_555
F5 Fe2 2.140527 1_545
F5 Fe3 2.165235 1_655
F5 Fe6 2.166613 1_555
F6 Fe1 2.080512 1_655
F6 Fe2 2.131205 1_545
F6 Fe7 2.207543 1_555
F7 Fe0 2.095252 1_546
F7 Fe4 2.108281 1_655
F7 Fe9 2.187927 1_555
F8 Fe3 2.153451 1_655
F8 Fe8 2.159528 1_555
F8 Fe4 2.163812 1_655
