# generated using pymatgen
data_Li2FeSiCO7
_symmetry_space_group_name_H-M   'P 1'
_cell_length_a   5.15164644
_cell_length_b   17.11623239
_cell_length_c   6.29722700
_cell_angle_alpha   90.00078451
_cell_angle_beta   90.00223647
_cell_angle_gamma   86.82938331
_symmetry_Int_Tables_number   1
_chemical_formula_structural   Li2FeSiCO7
_chemical_formula_sum   'Li8 Fe4 Si4 C4 O28'
_cell_volume   554.41921244
_cell_formula_units_Z   4
loop_
 _symmetry_equiv_pos_site_id
 _symmetry_equiv_pos_as_xyz
  1  'x, y, z'
loop_
 _atom_site_type_symbol
 _atom_site_label
 _atom_site_symmetry_multiplicity
 _atom_site_fract_x
 _atom_site_fract_y
 _atom_site_fract_z
 _atom_site_occupancy
  Li  Li0  1  0.21217100  0.11333200  0.50890800  1
  Li  Li1  1  0.21237000  0.61311300  0.50942500  1
  Li  Li2  1  0.21217500  0.11333800  0.99111000  1
  Li  Li3  1  0.21238200  0.61311700  0.99059200  1
  Li  Li4  1  0.78771600  0.38671500  0.49105400  1
  Li  Li5  1  0.78760600  0.88692000  0.49042100  1
  Li  Li6  1  0.78771300  0.38671000  0.00893200  1
  Li  Li7  1  0.78759300  0.88691600  0.00956400  1
  Fe  Fe0  1  0.79515300  0.67388500  0.75000200  1
  Fe  Fe1  1  0.20465400  0.32605200  0.25000300  1
  Fe  Fe2  1  0.79517800  0.17393800  0.75000400  1
  Fe  Fe3  1  0.20495900  0.82608300  0.24999400  1
  Si  Si0  1  0.71406100  0.21589400  0.24999500  1
  Si  Si1  1  0.71406900  0.71593600  0.24999800  1
  Si  Si2  1  0.28581000  0.28411900  0.75000200  1
  Si  Si3  1  0.28600600  0.78404400  0.75000200  1
  C  C0  1  0.73141100  0.02635000  0.74999700  1
  C  C1  1  0.73124500  0.52647000  0.75000100  1
  C  C2  1  0.26856700  0.47362800  0.25000400  1
  C  C3  1  0.26887000  0.97351900  0.25000000  1
  O  O0  1  0.29146800  0.04705000  0.25000100  1
  O  O1  1  0.29161700  0.54718000  0.25000300  1
  O  O2  1  0.70849200  0.45295100  0.75000200  1
  O  O3  1  0.70845800  0.95282100  0.74999800  1
  O  O4  1  0.95983500  0.05634700  0.75000200  1
  O  O5  1  0.95967600  0.55654600  0.75000400  1
  O  O6  1  0.04010500  0.44365400  0.24999600  1
  O  O7  1  0.04051400  0.94343200  0.24999600  1
  O  O8  1  0.53429300  0.07748200  0.74999100  1
  O  O9  1  0.53411600  0.57763900  0.74999600  1
  O  O10  1  0.46570100  0.42248200  0.25001100  1
  O  O11  1  0.46599700  0.92240100  0.25000300  1
  O  O12  1  0.16822900  0.19724000  0.74999100  1
  O  O13  1  0.16825500  0.69724000  0.75000100  1
  O  O14  1  0.83165100  0.30276800  0.25000900  1
  O  O15  1  0.83180200  0.80274300  0.24999800  1
  O  O16  1  0.39350400  0.22815600  0.24998100  1
  O  O17  1  0.39349900  0.72817900  0.24998800  1
  O  O18  1  0.60640700  0.27183200  0.75001600  1
  O  O19  1  0.60657600  0.77179200  0.75001200  1
  O  O20  1  0.81784700  0.16149300  0.05006100  1
  O  O21  1  0.81797500  0.66152400  0.05010100  1
  O  O22  1  0.81783600  0.16149300  0.44993600  1
  O  O23  1  0.81796300  0.66152500  0.44990200  1
  O  O24  1  0.18205900  0.33851600  0.55007100  1
  O  O25  1  0.18219000  0.83845900  0.55009500  1
  O  O26  1  0.18205100  0.33851600  0.94992800  1
  O  O27  1  0.18217800  0.83846000  0.94989900  1
loop_
_geom_bond_atom_site_label_1
_geom_bond_atom_site_label_2
_geom_bond_distance
_geom_bond_site_symmetry_2
Li0 O0 2.015166 1_555
Li0 O12 2.093485 1_555
Li0 O22 2.181520 1_455
Li0 O4 2.255362 1_455
Li0 O8 2.307013 1_555
Li1 O1 2.014461 1_555
Li1 O13 2.093787 1_555
Li1 O23 2.183856 1_455
Li1 O5 2.250973 1_455
Li1 O9 2.302078 1_555
Li2 O0 2.015137 1_556
Li2 O12 2.093597 1_555
Li2 O20 2.181454 1_456
Li2 O4 2.255395 1_455
Li2 O8 2.307245 1_555
Li3 O1 2.014431 1_556
Li3 O13 2.093829 1_555
Li3 O21 2.183836 1_456
Li3 O5 2.250994 1_455
Li3 O9 2.302227 1_555
Li4 O2 2.014876 1_555
Li4 O14 2.093763 1_555
Li4 O24 2.181818 1_655
Li4 O6 2.255008 1_655
Li4 O10 2.306138 1_555
Li5 O3 2.014864 1_555
Li5 O15 2.093703 1_555
Li5 O25 2.185124 1_655
Li5 O7 2.250550 1_655
Li5 O11 2.300973 1_555
Li6 O2 2.014828 1_554
Li6 O14 2.093868 1_555
Li6 O26 2.181776 1_654
Li6 O6 2.254996 1_655
Li6 O10 2.306370 1_555
Li7 O3 2.014833 1_554
Li7 O15 2.093727 1_555
Li7 O27 2.185114 1_654
Li7 O7 2.250566 1_655
Li7 O11 2.301102 1_555
Fe0 O19 1.889971 1_555
Fe0 O21 1.904505 1_556
Fe0 O23 1.904510 1_555
Fe0 O13 1.984748 1_655
Fe0 O5 2.136291 1_555
Fe0 O9 2.183412 1_555
Fe1 O16 1.890464 1_555
Fe1 O24 1.904441 1_555
Fe1 O26 1.904484 1_554
Fe1 O14 1.983938 1_455
Fe1 O6 2.140472 1_555
Fe1 O10 2.185930 1_555
Fe2 O18 1.890245 1_555
Fe2 O20 1.904355 1_556
Fe2 O22 1.904423 1_555
Fe2 O12 1.984259 1_655
Fe2 O4 2.140490 1_555
Fe2 O8 2.185734 1_555
Fe3 O17 1.889838 1_555
Fe3 O27 1.904498 1_554
Fe3 O25 1.904534 1_555
Fe3 O15 1.984960 1_455
Fe3 O7 2.136310 1_555
Fe3 O11 2.184388 1_555
C0 O3 1.270577 1_545
C0 O8 1.303398 1_555
C0 O4 1.309662 1_555
C1 O2 1.270255 1_555
C1 O9 1.303838 1_555
C1 O5 1.310293 1_555
C2 O1 1.271043 1_555
C2 O10 1.303609 1_555
C2 O6 1.309668 1_555
C3 O0 1.270342 1_565
C3 O11 1.303282 1_555
C3 O7 1.310021 1_555
O12 Si2 1.636413 1_555
O13 Si3 1.635589 1_555
O14 Si0 1.636353 1_555
O15 Si1 1.635598 1_555
O16 Si0 1.653124 1_555
O17 Si1 1.653167 1_555
O18 Si2 1.653359 1_555
O19 Si3 1.653178 1_555
O20 Si0 1.637986 1_555
O21 Si1 1.638093 1_555
O22 Si0 1.637990 1_555
O23 Si1 1.638086 1_555
O24 Si2 1.637868 1_555
O25 Si3 1.638020 1_555
O26 Si2 1.637868 1_555
O27 Si3 1.638012 1_555
