# generated using pymatgen
data_Li2CoBO4
_symmetry_space_group_name_H-M   'P 1'
_cell_length_a   5.00254900
_cell_length_b   5.79388100
_cell_length_c   10.34494700
_cell_angle_alpha   90.00000000
_cell_angle_beta   90.00000000
_cell_angle_gamma   90.00000000
_symmetry_Int_Tables_number   1
_chemical_formula_structural   Li2CoBO4
_chemical_formula_sum   'Li8 Co4 B4 O16'
_cell_volume   299.83973976
_cell_formula_units_Z   4
loop_
 _symmetry_equiv_pos_site_id
 _symmetry_equiv_pos_as_xyz
  1  'x, y, z'
loop_
 _atom_site_type_symbol
 _atom_site_label
 _atom_site_symmetry_multiplicity
 _atom_site_fract_x
 _atom_site_fract_y
 _atom_site_fract_z
 _atom_site_occupancy
  Li  Li0  1  0.17591300  0.50349500  0.66655000  1
  Li  Li1  1  0.32408700  0.50349500  0.16655000  1
  Li  Li2  1  0.17591300  0.99650500  0.66655000  1
  Li  Li3  1  0.32408700  0.99650500  0.16655000  1
  Li  Li4  1  0.67591300  0.00349500  0.83345000  1
  Li  Li5  1  0.82408700  0.00349500  0.33345000  1
  Li  Li6  1  0.82408700  0.49650500  0.33345000  1
  Li  Li7  1  0.67591300  0.49650500  0.83345000  1
  Co  Co0  1  0.68111400  0.75000000  0.58226900  1
  Co  Co1  1  0.81888600  0.75000000  0.08226900  1
  Co  Co2  1  0.18111400  0.25000000  0.91773100  1
  Co  Co3  1  0.31888600  0.25000000  0.41773100  1
  B  B0  1  0.16501000  0.75000000  0.91538600  1
  B  B1  1  0.33499000  0.75000000  0.41538600  1
  B  B2  1  0.66501000  0.25000000  0.58461400  1
  B  B3  1  0.83499000  0.25000000  0.08461400  1
  O  O0  1  0.28196200  0.53774100  0.85392700  1
  O  O1  1  0.21803800  0.53774100  0.35392700  1
  O  O2  1  0.86934900  0.75000000  0.90037800  1
  O  O3  1  0.29798700  0.75000000  0.55800100  1
  O  O4  1  0.20201300  0.75000000  0.05800100  1
  O  O5  1  0.63065100  0.75000000  0.40037800  1
  O  O6  1  0.28196200  0.96225900  0.85392700  1
  O  O7  1  0.21803800  0.96225900  0.35392700  1
  O  O8  1  0.71803800  0.03774100  0.14607300  1
  O  O9  1  0.78196200  0.03774100  0.64607300  1
  O  O10  1  0.79798700  0.25000000  0.94199900  1
  O  O11  1  0.36934900  0.25000000  0.59962200  1
  O  O12  1  0.70201300  0.25000000  0.44199900  1
  O  O13  1  0.13065100  0.25000000  0.09962200  1
  O  O14  1  0.78196200  0.46225900  0.64607300  1
  O  O15  1  0.71803800  0.46225900  0.14607300  1
loop_
_geom_bond_atom_site_label_1
_geom_bond_atom_site_label_2
_geom_bond_distance
_geom_bond_site_symmetry_2
Li0 O11 1.890212 1_555
Li0 O3 1.916697 1_555
Li0 O14 1.996458 1_455
Li0 O0 2.019463 1_555
Li1 O13 1.890212 1_555
Li1 O4 1.916697 1_555
Li1 O15 1.996458 1_555
Li1 O1 2.019463 1_555
Li2 O11 1.890212 1_565
Li2 O3 1.916697 1_555
Li2 O9 1.996458 1_465
Li2 O6 2.019463 1_555
Li3 O13 1.890212 1_565
Li3 O4 1.916697 1_555
Li3 O8 1.996458 1_565
Li3 O7 2.019463 1_555
Li4 O2 1.890212 1_545
Li4 O10 1.916697 1_555
Li4 O6 1.996458 1_545
Li4 O9 2.019463 1_555
Li5 O5 1.890212 1_545
Li5 O12 1.916697 1_555
Li5 O7 1.996458 1_645
Li5 O8 2.019463 1_555
Li6 O5 1.890212 1_555
Li6 O12 1.916697 1_555
Li6 O1 1.996458 1_655
Li6 O15 2.019463 1_555
Li7 O2 1.890212 1_555
Li7 O10 1.916697 1_555
Li7 O0 1.996458 1_555
Li7 O14 2.019463 1_555
Co0 O9 1.862667 1_565
Co0 O14 1.862667 1_555
Co0 O5 1.898511 1_555
Co0 O3 1.932984 1_555
Co1 O15 1.862667 1_555
Co1 O8 1.862667 1_565
Co1 O2 1.898511 1_554
Co1 O4 1.932984 1_655
Co2 O0 1.862667 1_555
Co2 O6 1.862667 1_545
Co2 O13 1.898511 1_556
Co2 O10 1.932984 1_455
Co3 O7 1.862667 1_545
Co3 O1 1.862667 1_555
Co3 O11 1.898511 1_555
Co3 O12 1.932984 1_555
B0 O4 1.486912 1_556
B0 O2 1.487185 1_455
B0 O0 1.502977 1_555
B0 O6 1.502977 1_555
B1 O3 1.486912 1_555
B1 O5 1.487185 1_555
B1 O7 1.502977 1_555
B1 O1 1.502977 1_555
B2 O12 1.486912 1_555
B2 O11 1.487185 1_555
B2 O14 1.502977 1_555
B2 O9 1.502977 1_555
B3 O10 1.486912 1_554
B3 O13 1.487185 1_655
B3 O15 1.502977 1_555
B3 O8 1.502977 1_555
