# generated using pymatgen
data_Na3Zn4P4H4NO16
_symmetry_space_group_name_H-M   'P 1'
_cell_length_a   8.32308800
_cell_length_b   10.49097300
_cell_length_c   17.58682600
_cell_angle_alpha   90.00000000
_cell_angle_beta   90.00000000
_cell_angle_gamma   90.00000000
_symmetry_Int_Tables_number   1
_chemical_formula_structural   Na3Zn4P4H4NO16
_chemical_formula_sum   'Na12 Zn16 P16 H16 N4 O64'
_cell_volume   1535.63401213
_cell_formula_units_Z   4
loop_
 _symmetry_equiv_pos_site_id
 _symmetry_equiv_pos_as_xyz
  1  'x, y, z'
loop_
 _atom_site_type_symbol
 _atom_site_label
 _atom_site_symmetry_multiplicity
 _atom_site_fract_x
 _atom_site_fract_y
 _atom_site_fract_z
 _atom_site_occupancy
  Na  Na0  1  0.00000000  0.02764800  0.25000000  1
  Na  Na1  1  0.00000000  0.97235200  0.75000000  1
  Na  Na2  1  0.01235900  0.68385700  0.49617200  1
  Na  Na3  1  0.01235900  0.31614300  0.99617200  1
  Na  Na4  1  0.48764100  0.18385700  0.49617200  1
  Na  Na5  1  0.48764100  0.81614300  0.99617200  1
  Na  Na6  1  0.50000000  0.52764800  0.25000000  1
  Na  Na7  1  0.50000000  0.47235200  0.75000000  1
  Na  Na8  1  0.51235900  0.18385700  0.00382800  1
  Na  Na9  1  0.51235900  0.81614300  0.50382800  1
  Na  Na10  1  0.98764100  0.31614300  0.50382800  1
  Na  Na11  1  0.98764100  0.68385700  0.00382800  1
  Zn  Zn0  1  0.17340600  0.05064100  0.42566100  1
  Zn  Zn1  1  0.17340600  0.94935900  0.92566100  1
  Zn  Zn2  1  0.19629400  0.32025000  0.16239500  1
  Zn  Zn3  1  0.19629400  0.67975000  0.66239500  1
  Zn  Zn4  1  0.30370600  0.82025000  0.16239500  1
  Zn  Zn5  1  0.30370600  0.17975000  0.66239500  1
  Zn  Zn6  1  0.32659400  0.55064100  0.42566100  1
  Zn  Zn7  1  0.32659400  0.44935900  0.92566100  1
  Zn  Zn8  1  0.67340600  0.55064100  0.07433900  1
  Zn  Zn9  1  0.67340600  0.44935900  0.57433900  1
  Zn  Zn10  1  0.69629400  0.17975000  0.83760500  1
  Zn  Zn11  1  0.69629400  0.82025000  0.33760500  1
  Zn  Zn12  1  0.80370600  0.32025000  0.33760500  1
  Zn  Zn13  1  0.80370600  0.67975000  0.83760500  1
  Zn  Zn14  1  0.82659400  0.05064100  0.07433900  1
  Zn  Zn15  1  0.82659400  0.94935900  0.57433900  1
  P  P0  1  0.20505500  0.31389000  0.34277800  1
  P  P1  1  0.20505500  0.68611000  0.84277800  1
  P  P2  1  0.21117400  0.06894600  0.08004100  1
  P  P3  1  0.21117400  0.93105400  0.58004100  1
  P  P4  1  0.28882600  0.56894600  0.08004100  1
  P  P5  1  0.28882600  0.43105400  0.58004100  1
  P  P6  1  0.29494500  0.18611000  0.84277800  1
  P  P7  1  0.29494500  0.81389000  0.34277800  1
  P  P8  1  0.70505500  0.18611000  0.65722200  1
  P  P9  1  0.70505500  0.81389000  0.15722200  1
  P  P10  1  0.71117400  0.43105400  0.91995900  1
  P  P11  1  0.71117400  0.56894600  0.41995900  1
  P  P12  1  0.78882600  0.06894600  0.41995900  1
  P  P13  1  0.78882600  0.93105400  0.91995900  1
  P  P14  1  0.79494500  0.31389000  0.15722200  1
  P  P15  1  0.79494500  0.68611000  0.65722200  1
  H  H0  1  0.02433800  0.52558600  0.29636600  1
  H  H1  1  0.02433800  0.47441400  0.79636600  1
  H  H2  1  0.10050300  0.63958800  0.23958200  1
  H  H3  1  0.10050300  0.36041200  0.73958200  1
  H  H4  1  0.39949700  0.13958800  0.23958200  1
  H  H5  1  0.39949700  0.86041200  0.73958200  1
  H  H6  1  0.47566200  0.02558600  0.29636600  1
  H  H7  1  0.47566200  0.97441400  0.79636600  1
  H  H8  1  0.52433800  0.02558600  0.20363400  1
  H  H9  1  0.52433800  0.97441400  0.70363400  1
  H  H10  1  0.60050300  0.13958800  0.26041800  1
  H  H11  1  0.60050300  0.86041200  0.76041800  1
  H  H12  1  0.89949700  0.63958800  0.26041800  1
  H  H13  1  0.89949700  0.36041200  0.76041800  1
  H  H14  1  0.97566200  0.47441400  0.70363400  1
  H  H15  1  0.97566200  0.52558600  0.20363400  1
  N  N0  1  0.00000000  0.58309400  0.25000000  1
  N  N1  1  0.00000000  0.41690600  0.75000000  1
  N  N2  1  0.50000000  0.08309400  0.25000000  1
  N  N3  1  0.50000000  0.91690600  0.75000000  1
  O  O0  1  0.03134700  0.36080200  0.36180600  1
  O  O1  1  0.03134700  0.63919800  0.86180600  1
  O  O2  1  0.04367900  0.10974000  0.05050300  1
  O  O3  1  0.04367900  0.89026000  0.55050300  1
  O  O4  1  0.18652900  0.06519200  0.83834100  1
  O  O5  1  0.18652900  0.93480800  0.33834100  1
  O  O6  1  0.19176600  0.69235900  0.09864500  1
  O  O7  1  0.19176600  0.30764100  0.59864500  1
  O  O8  1  0.19482000  0.01420800  0.65289000  1
  O  O9  1  0.19482000  0.98579200  0.15289000  1
  O  O10  1  0.19646100  0.49571200  0.01637000  1
  O  O11  1  0.19646100  0.50428800  0.51637000  1
  O  O12  1  0.20863600  0.24296400  0.26466700  1
  O  O13  1  0.20863600  0.75703600  0.76466700  1
  O  O14  1  0.23122500  0.72244100  0.40502200  1
  O  O15  1  0.23122500  0.27755900  0.90502200  1
  O  O16  1  0.26877500  0.22244100  0.40502200  1
  O  O17  1  0.26877500  0.77755900  0.90502200  1
  O  O18  1  0.29136400  0.25703600  0.76466700  1
  O  O19  1  0.29136400  0.74296400  0.26466700  1
  O  O20  1  0.30353900  0.00428800  0.51637000  1
  O  O21  1  0.30353900  0.99571200  0.01637000  1
  O  O22  1  0.30518000  0.48579200  0.15289000  1
  O  O23  1  0.30518000  0.51420800  0.65289000  1
  O  O24  1  0.30823400  0.19235900  0.09864500  1
  O  O25  1  0.30823400  0.80764100  0.59864500  1
  O  O26  1  0.31347100  0.43480800  0.33834100  1
  O  O27  1  0.31347100  0.56519200  0.83834100  1
  O  O28  1  0.45632100  0.60974000  0.05050300  1
  O  O29  1  0.45632100  0.39026000  0.55050300  1
  O  O30  1  0.46865300  0.13919800  0.86180600  1
  O  O31  1  0.46865300  0.86080200  0.36180600  1
  O  O32  1  0.53134700  0.13919800  0.63819400  1
  O  O33  1  0.53134700  0.86080200  0.13819400  1
  O  O34  1  0.54367900  0.39026000  0.94949700  1
  O  O35  1  0.54367900  0.60974000  0.44949700  1
  O  O36  1  0.68652900  0.43480800  0.16165900  1
  O  O37  1  0.68652900  0.56519200  0.66165900  1
  O  O38  1  0.69176600  0.19235900  0.40135500  1
  O  O39  1  0.69176600  0.80764100  0.90135500  1
  O  O40  1  0.69482000  0.48579200  0.34711000  1
  O  O41  1  0.69482000  0.51420800  0.84711000  1
  O  O42  1  0.69646100  0.00428800  0.98363000  1
  O  O43  1  0.69646100  0.99571200  0.48363000  1
  O  O44  1  0.70863600  0.25703600  0.73533300  1
  O  O45  1  0.70863600  0.74296400  0.23533300  1
  O  O46  1  0.73122500  0.22244100  0.09497800  1
  O  O47  1  0.73122500  0.77755900  0.59497800  1
  O  O48  1  0.76877500  0.27755900  0.59497800  1
  O  O49  1  0.76877500  0.72244100  0.09497800  1
  O  O50  1  0.79136400  0.24296400  0.23533300  1
  O  O51  1  0.79136400  0.75703600  0.73533300  1
  O  O52  1  0.80353900  0.49571200  0.48363000  1
  O  O53  1  0.80353900  0.50428800  0.98363000  1
  O  O54  1  0.80518000  0.01420800  0.84711000  1
  O  O55  1  0.80518000  0.98579200  0.34711000  1
  O  O56  1  0.80823400  0.69235900  0.40135500  1
  O  O57  1  0.80823400  0.30764100  0.90135500  1
  O  O58  1  0.81347100  0.06519200  0.66165900  1
  O  O59  1  0.81347100  0.93480800  0.16165900  1
  O  O60  1  0.95632100  0.10974000  0.44949700  1
  O  O61  1  0.95632100  0.89026000  0.94949700  1
  O  O62  1  0.96865300  0.63919800  0.63819400  1
  O  O63  1  0.96865300  0.36080200  0.13819400  1
loop_
_geom_bond_atom_site_label_1
_geom_bond_atom_site_label_2
_geom_bond_distance
_geom_bond_site_symmetry_2
Na0 O55 2.395593 1_445
Na0 O9 2.395593 1_545
Na0 O59 2.402640 1_445
Na0 O5 2.402640 1_545
Na0 O12 2.860851 1_555
Na0 O50 2.860851 1_455
Na1 O54 2.395593 1_465
Na1 O8 2.395593 1_565
Na1 O58 2.402640 1_465
Na1 O4 2.402640 1_565
Na1 O51 2.860851 1_455
Na1 O13 2.860851 1_555
Na2 O3 2.381128 1_555
Na2 O56 2.382235 1_455
Na2 O11 2.454184 1_555
Na2 O14 2.460073 1_555
Na2 O62 2.567182 1_455
Na2 O52 2.639199 1_455
Na3 O2 2.381128 1_556
Na3 O57 2.382235 1_455
Na3 O10 2.454184 1_556
Na3 O15 2.460073 1_555
Na3 O63 2.567182 1_456
Na3 O53 2.639199 1_455
Na4 O29 2.381128 1_555
Na4 O38 2.382235 1_555
Na4 O20 2.454184 1_555
Na4 O16 2.460073 1_555
Na4 O32 2.567182 1_555
Na4 O43 2.639199 1_545
Na5 O28 2.381128 1_556
Na5 O39 2.382235 1_555
Na5 O21 2.454184 1_556
Na5 O17 2.460073 1_555
Na5 O33 2.567182 1_556
Na5 O42 2.639199 1_565
Na6 O40 2.395593 1_555
Na6 O22 2.395593 1_555
Na6 O26 2.402640 1_555
Na6 O36 2.402640 1_555
Na6 O19 2.860851 1_555
Na6 O45 2.860851 1_555
Na7 O41 2.395593 1_555
Na7 O23 2.395593 1_555
Na7 O27 2.402640 1_555
Na7 O37 2.402640 1_555
Na7 O18 2.860851 1_555
Na7 O44 2.860851 1_555
Na8 O34 2.381128 1_554
Na8 O24 2.382235 1_555
Na8 O42 2.454184 1_554
Na8 O46 2.460073 1_555
Na8 O30 2.567182 1_554
Na8 O21 2.639199 1_545
Na9 O35 2.381128 1_555
Na9 O25 2.382235 1_555
Na9 O43 2.454184 1_555
Na9 O47 2.460073 1_555
Na9 O31 2.567182 1_555
Na9 O20 2.639199 1_565
Na10 O60 2.381128 1_555
Na10 O7 2.382235 1_655
Na10 O52 2.454184 1_555
Na10 O48 2.460073 1_555
Na10 O0 2.567182 1_655
Na10 O11 2.639199 1_655
Na11 O61 2.381128 1_554
Na11 O6 2.382235 1_655
Na11 O53 2.454184 1_554
Na11 O49 2.460073 1_555
Na11 O1 2.567182 1_654
Na11 O10 2.639199 1_655
H0 N0 1.034384 1_555
H1 N1 1.034384 1_555
H2 N0 1.041422 1_555
H3 N1 1.041422 1_555
H4 N2 1.041422 1_555
H5 N3 1.041422 1_555
H6 N2 1.034384 1_555
H7 N3 1.034384 1_555
H8 N2 1.034384 1_555
H9 N3 1.034384 1_555
H10 N2 1.041422 1_555
H11 N3 1.041422 1_555
H12 N0 1.041422 1_655
H13 N1 1.041422 1_655
H14 N1 1.034384 1_655
H15 N0 1.034384 1_655
O0 P0 1.563490 1_555
O0 Zn12 1.987949 1_455
O1 P1 1.563490 1_555
O1 Zn13 1.987949 1_455
O2 P2 1.548051 1_555
O2 Zn14 1.955691 1_455
O3 P3 1.548051 1_555
O3 Zn15 1.955691 1_455
O4 P6 1.558701 1_555
O4 Zn1 1.961367 1_545
O5 P7 1.558701 1_555
O5 Zn0 1.961367 1_565
O6 P4 1.560756 1_555
O6 Zn4 1.981212 1_555
O7 P5 1.560756 1_555
O7 Zn5 1.981212 1_555
O8 P3 1.555950 1_545
O8 Zn5 1.966057 1_555
O9 P2 1.555950 1_565
O9 Zn4 1.966057 1_555
O10 P4 1.560500 1_555
O10 Zn7 1.988600 1_554
O11 P5 1.560500 1_555
O11 Zn6 1.988600 1_555
O12 P0 1.562583 1_555
O12 Zn2 1.975617 1_555
O13 P1 1.562583 1_555
O13 Zn3 1.975617 1_555
O14 P7 1.549196 1_555
O14 Zn6 2.002567 1_555
O15 P6 1.549196 1_555
O15 Zn7 2.002567 1_555
O16 P0 1.549196 1_555
O16 Zn0 2.002567 1_555
O17 P1 1.549196 1_555
O17 Zn1 2.002567 1_555
O18 P6 1.562583 1_555
O18 Zn5 1.975617 1_555
O19 P7 1.562583 1_555
O19 Zn4 1.975617 1_555
O20 P3 1.560500 1_545
O20 Zn0 1.988600 1_555
O21 P2 1.560500 1_565
O21 Zn1 1.988600 1_554
O22 P4 1.555950 1_555
O22 Zn2 1.966057 1_555
O23 P5 1.555950 1_555
O23 Zn3 1.966057 1_555
O24 P2 1.560756 1_555
O24 Zn2 1.981212 1_555
O25 P3 1.560756 1_555
O25 Zn3 1.981212 1_555
O26 P0 1.558701 1_555
O26 Zn6 1.961367 1_555
O27 P1 1.558701 1_555
O27 Zn7 1.961367 1_555
O28 P4 1.548051 1_555
O28 Zn8 1.955691 1_555
O29 P5 1.548051 1_555
O29 Zn9 1.955691 1_555
O30 P6 1.563490 1_555
O30 Zn10 1.987949 1_555
O31 P7 1.563490 1_555
O31 Zn11 1.987949 1_555
O32 P8 1.563490 1_555
O32 Zn5 1.987949 1_555
O33 P9 1.563490 1_555
O33 Zn4 1.987949 1_555
O34 P10 1.548051 1_555
O34 Zn7 1.955691 1_555
O35 P11 1.548051 1_555
O35 Zn6 1.955691 1_555
O36 P14 1.558701 1_555
O36 Zn8 1.961367 1_555
O37 P15 1.558701 1_555
O37 Zn9 1.961367 1_555
O38 P12 1.560756 1_555
O38 Zn12 1.981212 1_555
O39 P13 1.560756 1_555
O39 Zn13 1.981212 1_555
O40 P11 1.555950 1_555
O40 Zn12 1.966057 1_555
O41 P10 1.555950 1_555
O41 Zn13 1.966057 1_555
O42 P13 1.560500 1_545
O42 Zn14 1.988600 1_556
O43 P12 1.560500 1_565
O43 Zn15 1.988600 1_555
O44 P8 1.562583 1_555
O44 Zn10 1.975617 1_555
O45 P9 1.562583 1_555
O45 Zn11 1.975617 1_555
O46 P14 1.549196 1_555
O46 Zn14 2.002567 1_555
O47 P15 1.549196 1_555
O47 Zn15 2.002567 1_555
O48 P8 1.549196 1_555
O48 Zn9 2.002567 1_555
O49 P9 1.549196 1_555
O49 Zn8 2.002567 1_555
O50 P14 1.562583 1_555
O50 Zn12 1.975617 1_555
O51 P15 1.562583 1_555
O51 Zn13 1.975617 1_555
O52 P11 1.560500 1_555
O52 Zn9 1.988600 1_555
O53 P10 1.560500 1_555
O53 Zn8 1.988600 1_556
O54 P13 1.555950 1_545
O54 Zn10 1.966057 1_555
O55 P12 1.555950 1_565
O55 Zn11 1.966057 1_555
O56 P11 1.560756 1_555
O56 Zn11 1.981212 1_555
O57 P10 1.560756 1_555
O57 Zn10 1.981212 1_555
O58 P8 1.558701 1_555
O58 Zn15 1.961367 1_545
O59 P9 1.558701 1_555
O59 Zn14 1.961367 1_565
O60 P12 1.548051 1_555
O60 Zn0 1.955691 1_655
O61 P13 1.548051 1_555
O61 Zn1 1.955691 1_655
O62 P15 1.563490 1_555
O62 Zn3 1.987949 1_655
O63 P14 1.563490 1_555
O63 Zn2 1.987949 1_655
