# generated using pymatgen
data_NbNi3(PO4)4
_symmetry_space_group_name_H-M   'P 1'
_cell_length_a   5.89609100
_cell_length_b   4.91155800
_cell_length_c   10.00583728
_cell_angle_alpha   89.25172583
_cell_angle_beta   90.00000000
_cell_angle_gamma   90.00000000
_symmetry_Int_Tables_number   1
_chemical_formula_structural   NbNi3(PO4)4
_chemical_formula_sum   'Nb1 Ni3 P4 O16'
_cell_volume   289.73426082
_cell_formula_units_Z   1
loop_
 _symmetry_equiv_pos_site_id
 _symmetry_equiv_pos_as_xyz
  1  'x, y, z'
loop_
 _atom_site_type_symbol
 _atom_site_label
 _atom_site_symmetry_multiplicity
 _atom_site_fract_x
 _atom_site_fract_y
 _atom_site_fract_z
 _atom_site_occupancy
  Nb  Nb0  1  0.50000000  0.97315100  0.72371600  1
  Ni  Ni0  1  0.00000000  0.03107700  0.26942200  1
  Ni  Ni1  1  0.00000000  0.45803000  0.77775900  1
  Ni  Ni2  1  0.50000000  0.54274700  0.23060300  1
  P  P0  1  0.50000000  0.08389600  0.39264500  1
  P  P1  1  0.50000000  0.39569300  0.91244700  1
  P  P2  1  0.00000000  0.59374300  0.09782100  1
  P  P3  1  0.00000000  0.93040600  0.59063500  1
  O  O0  1  0.50000000  0.14813300  0.55279700  1
  O  O1  1  0.29387900  0.23479400  0.33079400  1
  O  O2  1  0.70612100  0.23479400  0.33079400  1
  O  O3  1  0.00000000  0.23290700  0.61519200  1
  O  O4  1  0.00000000  0.28236200  0.11226900  1
  O  O5  1  0.30123400  0.25004900  0.83138900  1
  O  O6  1  0.69876600  0.25004900  0.83138900  1
  O  O7  1  0.50000000  0.33708800  0.05766000  1
  O  O8  1  0.00000000  0.65667100  0.94664800  1
  O  O9  1  0.79534200  0.73642700  0.16871700  1
  O  O10  1  0.20465800  0.73642700  0.16871700  1
  O  O11  1  0.50000000  0.70085700  0.87251600  1
  O  O12  1  0.50000000  0.77812600  0.39019200  1
  O  O13  1  0.79356800  0.78804700  0.67350500  1
  O  O14  1  0.20643200  0.78804700  0.67350500  1
  O  O15  1  0.00000000  0.83647800  0.44887100  1
loop_
_geom_bond_atom_site_label_1
_geom_bond_atom_site_label_2
_geom_bond_distance
_geom_bond_site_symmetry_2
Nb0 O0 1.903938 1_565
Nb0 O11 1.988298 1_555
Nb0 O14 2.021613 1_555
Nb0 O13 2.021613 1_555
Nb0 O6 2.102860 1_565
Nb0 O5 2.102860 1_565
Ni0 O4 1.986241 1_555
Ni0 O15 2.023031 1_545
Ni0 O2 2.096820 1_455
Ni0 O1 2.096820 1_555
Ni0 O9 2.145662 1_445
Ni0 O10 2.145662 1_545
Ni1 O8 1.962297 1_555
Ni1 O3 1.978749 1_555
Ni1 O5 2.114631 1_555
Ni1 O6 2.114631 1_455
Ni1 O14 2.269965 1_555
Ni1 O13 2.269965 1_455
Ni2 O12 1.983575 1_555
Ni2 O7 2.015041 1_555
Ni2 O10 2.074924 1_555
Ni2 O9 2.074924 1_555
Ni2 O1 2.174882 1_555
Ni2 O2 2.174882 1_555
O0 P0 1.637257 1_555
O1 P0 1.548318 1_555
O2 P0 1.548318 1_555
O3 P3 1.509095 1_545
O4 P2 1.534302 1_555
O5 P1 1.599412 1_555
O6 P1 1.599412 1_555
O7 P1 1.477523 1_554
O8 P2 1.539907 1_556
O9 P2 1.569522 1_655
O10 P2 1.569522 1_555
O11 P1 1.546120 1_555
O12 P0 1.502328 1_565
O13 P3 1.625646 1_655
O14 P3 1.625646 1_555
O15 P3 1.497321 1_555
