# generated using pymatgen
data_Li9Ti5(SiO8)2
_symmetry_space_group_name_H-M   'P 1'
_cell_length_a   5.00222800
_cell_length_b   5.17681174
_cell_length_c   11.20385037
_cell_angle_alpha   80.06313507
_cell_angle_beta   85.72887956
_cell_angle_gamma   80.47730211
_symmetry_Int_Tables_number   1
_chemical_formula_structural   Li9Ti5(SiO8)2
_chemical_formula_sum   'Li9 Ti5 Si2 O16'
_cell_volume   281.52480573
_cell_formula_units_Z   1
loop_
 _symmetry_equiv_pos_site_id
 _symmetry_equiv_pos_as_xyz
  1  'x, y, z'
loop_
 _atom_site_type_symbol
 _atom_site_label
 _atom_site_symmetry_multiplicity
 _atom_site_fract_x
 _atom_site_fract_y
 _atom_site_fract_z
 _atom_site_occupancy
  Li  Li0  1  0.74802300  0.92850600  0.55820100  1
  Li  Li1  1  0.24842300  0.81673800  0.68008400  1
  Li  Li2  1  0.75181600  0.67612600  0.80965600  1
  Li  Li3  1  0.25325800  0.56260400  0.94004100  1
  Li  Li4  1  0.74674200  0.43739600  0.05995900  1
  Li  Li5  1  0.24818400  0.32387400  0.19034400  1
  Li  Li6  1  0.75157700  0.18326200  0.31991600  1
  Li  Li7  1  0.25197700  0.07149400  0.44179900  1
  Li  Li8  1  0.50000000  0.50000000  0.50000000  1
  Ti  Ti0  1  0.50022200  0.24955300  0.74693400  1
  Ti  Ti1  1  0.00218700  0.11481900  0.88295600  1
  Ti  Ti2  1  0.50000000  0.00000000  0.00000000  1
  Ti  Ti3  1  0.99781300  0.88518100  0.11704400  1
  Ti  Ti4  1  0.49977800  0.75044700  0.25306600  1
  Si  Si0  1  0.99882600  0.38122900  0.61747400  1
  Si  Si1  1  0.00117400  0.61877100  0.38252600  1
  O  O0  1  0.66503900  0.55664500  0.65407100  1
  O  O1  1  0.33453400  0.18314300  0.60024200  1
  O  O2  1  0.37957100  0.91159500  0.84023000  1
  O  O3  1  0.88138600  0.07938800  0.70491500  1
  O  O4  1  0.11922500  0.45338000  0.75865600  1
  O  O5  1  0.87154000  0.77272700  0.96562700  1
  O  O6  1  0.62100400  0.33749000  0.90221900  1
  O  O7  1  0.12846000  0.22727300  0.03437300  1
  O  O8  1  0.37899600  0.66251000  0.09778100  1
  O  O9  1  0.88077500  0.54662000  0.24134400  1
  O  O10  1  0.62042900  0.08840500  0.15977000  1
  O  O11  1  0.33496100  0.44335500  0.34592900  1
  O  O12  1  0.66546600  0.81685700  0.39975800  1
  O  O13  1  0.11861400  0.92061200  0.29508500  1
  O  O14  1  0.10196500  0.67801800  0.52620100  1
  O  O15  1  0.89803500  0.32198200  0.47379900  1
loop_
_geom_bond_atom_site_label_1
_geom_bond_atom_site_label_2
_geom_bond_distance
_geom_bond_site_symmetry_2
Li0 O12 2.048933 1_555
Li0 O14 2.061787 1_655
Li0 O0 2.125142 1_555
Li0 O3 2.129777 1_565
Li0 O15 2.311222 1_565
Li0 O1 2.324801 1_565
Li1 O1 2.052066 1_565
Li1 O2 2.115859 1_555
Li1 O4 2.115873 1_555
Li1 O3 2.127329 1_465
Li1 O14 2.194177 1_555
Li1 O0 2.314624 1_555
Li2 O0 2.045296 1_555
Li2 O5 2.054021 1_555
Li2 O6 2.056186 1_555
Li2 O2 2.090113 1_555
Li2 O4 2.098492 1_655
Li2 O3 2.375757 1_565
Li3 O7 2.036495 1_556
Li3 O5 2.061607 1_455
Li3 O6 2.065576 1_555
Li3 O8 2.091671 1_556
Li3 O2 2.118718 1_555
Li3 O4 2.371514 1_555
Li4 O5 2.036495 1_554
Li4 O7 2.061607 1_655
Li4 O8 2.065576 1_555
Li4 O6 2.091671 1_554
Li4 O10 2.118718 1_555
Li4 O9 2.371514 1_555
Li5 O11 2.045296 1_555
Li5 O7 2.054021 1_555
Li5 O8 2.056186 1_555
Li5 O10 2.090113 1_555
Li5 O9 2.098492 1_455
Li5 O13 2.375757 1_545
Li6 O12 2.052066 1_545
Li6 O10 2.115859 1_555
Li6 O9 2.115873 1_555
Li6 O13 2.127329 1_645
Li6 O15 2.194177 1_555
Li6 O11 2.314624 1_555
Li7 O1 2.048933 1_555
Li7 O15 2.061787 1_455
Li7 O11 2.125142 1_555
Li7 O13 2.129777 1_545
Li7 O14 2.311222 1_545
Li7 O12 2.324801 1_545
Li8 O0 2.052885 1_555
Li8 O11 2.052885 1_555
Li8 O14 2.073395 1_555
Li8 O15 2.073395 1_555
Li8 O12 2.076537 1_555
Li8 O1 2.076537 1_555
O0 Si0 1.818085 1_555
O0 Ti0 2.006138 1_555
O1 Si0 1.832783 1_455
O1 Ti0 1.999610 1_555
O2 Ti0 2.035191 1_565
O2 Ti1 2.069223 1_565
O2 Ti2 2.076336 1_566
O3 Si0 1.853697 1_555
O3 Ti0 2.021560 1_555
O3 Ti1 2.172622 1_655
O4 Si0 1.850541 1_455
O4 Ti0 2.026820 1_555
O4 Ti1 2.174790 1_555
O5 Ti1 2.036645 1_665
O5 Ti3 2.058630 1_556
O5 Ti2 2.076766 1_566
O6 Ti0 2.029792 1_555
O6 Ti2 2.051717 1_556
O6 Ti1 2.075671 1_655
O7 Ti3 2.036645 1_445
O7 Ti1 2.058630 1_554
O7 Ti2 2.076766 1_555
O8 Ti4 2.029792 1_555
O8 Ti2 2.051717 1_565
O8 Ti3 2.075671 1_455
O9 Si1 1.850541 1_655
O9 Ti4 2.026820 1_555
O9 Ti3 2.174790 1_555
O10 Ti4 2.035191 1_545
O10 Ti3 2.069223 1_545
O10 Ti2 2.076336 1_555
O11 Si1 1.818085 1_555
O11 Ti4 2.006138 1_555
O12 Si1 1.832783 1_655
O12 Ti4 1.999610 1_555
O13 Si1 1.853697 1_555
O13 Ti4 2.021560 1_555
O13 Ti3 2.172622 1_455
O14 Si1 1.811599 1_555
O14 Si0 1.820424 1_455
O15 Si0 1.811599 1_555
O15 Si1 1.820424 1_655
