# generated using pymatgen
data_Li4Cr2Ni5O12
_symmetry_space_group_name_H-M   'P 1'
_cell_length_a   8.87491600
_cell_length_b   4.98599800
_cell_length_c   9.74950889
_cell_angle_alpha   79.19886203
_cell_angle_beta   90.00000000
_cell_angle_gamma   90.00000000
_symmetry_Int_Tables_number   1
_chemical_formula_structural   Li4Cr2Ni5O12
_chemical_formula_sum   'Li8 Cr4 Ni10 O24'
_cell_volume   423.77560511
_cell_formula_units_Z   2
loop_
 _symmetry_equiv_pos_site_id
 _symmetry_equiv_pos_as_xyz
  1  'x, y, z'
loop_
 _atom_site_type_symbol
 _atom_site_label
 _atom_site_symmetry_multiplicity
 _atom_site_fract_x
 _atom_site_fract_y
 _atom_site_fract_z
 _atom_site_occupancy
  Li  Li0  1  0.91962300  0.00266500  0.74318200  1
  Li  Li1  1  0.92627400  0.49541200  0.25361400  1
  Li  Li2  1  0.58062500  0.75977100  0.50177200  1
  Li  Li3  1  0.57758700  0.49539000  0.25380600  1
  Li  Li4  1  0.41962300  0.99733500  0.25681800  1
  Li  Li5  1  0.42627400  0.50458800  0.74638600  1
  Li  Li6  1  0.08062500  0.24022900  0.49822800  1
  Li  Li7  1  0.07758700  0.50461000  0.74619400  1
  Cr  Cr0  1  0.74241700  0.25657900  0.50053800  1
  Cr  Cr1  1  0.75081900  0.75099700  0.99640300  1
  Cr  Cr2  1  0.25081900  0.24900300  0.00359700  1
  Cr  Cr3  1  0.24241700  0.74342100  0.49946200  1
  Ni  Ni0  1  0.91845600  0.24894500  0.00309700  1
  Ni  Ni1  1  0.91827600  0.75310500  0.49871400  1
  Ni  Ni2  1  0.75045000  0.99205100  0.25385900  1
  Ni  Ni3  1  0.74500300  0.50710000  0.74609100  1
  Ni  Ni4  1  0.58290000  0.24501800  0.99949400  1
  Ni  Ni5  1  0.41827600  0.24689500  0.50128600  1
  Ni  Ni6  1  0.41845600  0.75105500  0.99690300  1
  Ni  Ni7  1  0.25045000  0.00794900  0.74614100  1
  Ni  Ni8  1  0.24500300  0.49290000  0.25390900  1
  Ni  Ni9  1  0.08290000  0.75498200  0.00050600  1
  O  O0  1  0.89767500  0.11078400  0.38838500  1
  O  O1  1  0.90348500  0.86364800  0.11548700  1
  O  O2  1  0.76650700  0.88253100  0.60952700  1
  O  O3  1  0.75479400  0.13126200  0.88619200  1
  O  O4  1  0.91006300  0.63187300  0.88081400  1
  O  O5  1  0.90239100  0.39562200  0.61675400  1
  O  O6  1  0.59185600  0.12838800  0.38066700  1
  O  O7  1  0.75976600  0.60102700  0.37888200  1
  O  O8  1  0.75080700  0.37227700  0.11704000  1
  O  O9  1  0.58977900  0.88028700  0.11586700  1
  O  O10  1  0.58981900  0.60597400  0.88658400  1
  O  O11  1  0.59076000  0.36616900  0.60929200  1
  O  O12  1  0.40348500  0.13635200  0.88451300  1
  O  O13  1  0.39767500  0.88921600  0.61161500  1
  O  O14  1  0.26650700  0.11746900  0.39047300  1
  O  O15  1  0.40239100  0.60437800  0.38324600  1
  O  O16  1  0.25479400  0.86873800  0.11380800  1
  O  O17  1  0.41006300  0.36812700  0.11918600  1
  O  O18  1  0.25976600  0.39897300  0.62111800  1
  O  O19  1  0.08977900  0.11971300  0.88413300  1
  O  O20  1  0.09185600  0.87161200  0.61933300  1
  O  O21  1  0.25080700  0.62772300  0.88296000  1
  O  O22  1  0.09076000  0.63383100  0.39070800  1
  O  O23  1  0.08981900  0.39402600  0.11341600  1
loop_
_geom_bond_atom_site_label_1
_geom_bond_atom_site_label_2
_geom_bond_distance
_geom_bond_site_symmetry_2
Li0 O2 2.048391 1_545
Li0 O4 2.072654 1_545
Li0 O5 2.115738 1_555
Li0 O20 2.125356 1_645
Li0 O19 2.193188 1_655
Li0 O3 2.197750 1_555
Li1 O7 2.047842 1_555
Li1 O1 2.073332 1_555
Li1 O23 2.118850 1_655
Li1 O0 2.127024 1_555
Li1 O22 2.177055 1_655
Li1 O8 2.209377 1_555
Li2 O6 1.992145 1_565
Li2 O11 2.046291 1_555
Li2 O2 2.107319 1_555
Li2 O13 2.111579 1_555
Li2 O15 2.184797 1_555
Li2 O7 2.223744 1_555
Li3 O6 2.011455 1_555
Li3 O9 2.129767 1_555
Li3 O15 2.135994 1_555
Li3 O7 2.149249 1_555
Li3 O17 2.155883 1_555
Li3 O8 2.196558 1_555
Li4 O14 2.048391 1_565
Li4 O17 2.072654 1_565
Li4 O15 2.115738 1_555
Li4 O6 2.125356 1_565
Li4 O9 2.193188 1_555
Li4 O16 2.197750 1_555
Li5 O18 2.047842 1_555
Li5 O12 2.073332 1_555
Li5 O10 2.118850 1_555
Li5 O13 2.127024 1_555
Li5 O11 2.177055 1_555
Li5 O21 2.209377 1_555
Li6 O20 1.992145 1_545
Li6 O22 2.046291 1_555
Li6 O14 2.107319 1_555
Li6 O0 2.111579 1_455
Li6 O5 2.184797 1_455
Li6 O18 2.223744 1_555
Li7 O20 2.011455 1_555
Li7 O19 2.129767 1_555
Li7 O5 2.135994 1_455
Li7 O18 2.149249 1_555
Li7 O4 2.155883 1_455
Li7 O21 2.196558 1_555
Cr0 O11 1.857824 1_555
Cr0 O7 1.901725 1_555
Cr0 O6 1.959538 1_555
Cr0 O2 1.977444 1_545
Cr0 O0 1.980041 1_555
Cr0 O5 2.018548 1_555
Cr1 O1 1.934836 1_556
Cr1 O4 1.967483 1_555
Cr1 O3 1.996760 1_565
Cr1 O10 2.000256 1_555
Cr1 O9 2.023905 1_556
Cr1 O8 2.028939 1_556
Cr2 O12 1.934836 1_554
Cr2 O17 1.967483 1_555
Cr2 O16 1.996760 1_545
Cr2 O23 2.000256 1_555
Cr2 O19 2.023905 1_554
Cr2 O21 2.028939 1_554
Cr3 O22 1.857824 1_555
Cr3 O18 1.901725 1_555
Cr3 O20 1.959538 1_555
Cr3 O14 1.977444 1_565
Cr3 O13 1.980041 1_555
Cr3 O15 2.018548 1_555
Ni0 O3 2.000935 1_554
Ni0 O8 2.020399 1_555
Ni0 O1 2.029762 1_545
Ni0 O4 2.054043 1_554
Ni0 O23 2.069934 1_655
Ni0 O19 2.086235 1_654
Ni1 O0 1.911006 1_565
Ni1 O2 1.912900 1_555
Ni1 O5 1.937127 1_555
Ni1 O22 2.010097 1_655
Ni1 O7 2.061772 1_555
Ni1 O20 2.089414 1_655
Ni2 O0 2.017153 1_565
Ni2 O6 2.070421 1_565
Ni2 O1 2.097185 1_555
Ni2 O7 2.098333 1_555
Ni2 O8 2.103714 1_565
Ni2 O9 2.105899 1_555
Ni3 O5 2.027993 1_555
Ni3 O10 2.066182 1_555
Ni3 O2 2.092610 1_555
Ni3 O3 2.103694 1_555
Ni3 O11 2.120780 1_555
Ni3 O4 2.136457 1_555
Ni4 O10 1.926665 1_555
Ni4 O9 1.955707 1_546
Ni4 O3 2.025844 1_555
Ni4 O8 2.051604 1_556
Ni4 O12 2.076838 1_555
Ni4 O17 2.088033 1_556
Ni5 O13 1.911006 1_545
Ni5 O14 1.912900 1_555
Ni5 O15 1.937127 1_555
Ni5 O11 2.010097 1_555
Ni5 O18 2.061772 1_555
Ni5 O6 2.089414 1_555
Ni6 O16 2.000935 1_556
Ni6 O21 2.020399 1_555
Ni6 O12 2.029762 1_565
Ni6 O17 2.054043 1_556
Ni6 O10 2.069934 1_555
Ni6 O9 2.086235 1_556
Ni7 O13 2.017153 1_545
Ni7 O20 2.070421 1_545
Ni7 O12 2.097185 1_555
Ni7 O18 2.098333 1_555
Ni7 O21 2.103714 1_545
Ni7 O19 2.105899 1_555
Ni8 O15 2.027993 1_555
Ni8 O23 2.066182 1_555
Ni8 O14 2.092610 1_555
Ni8 O16 2.103694 1_555
Ni8 O22 2.120780 1_555
Ni8 O17 2.136457 1_555
Ni9 O23 1.926665 1_555
Ni9 O19 1.955707 1_564
Ni9 O16 2.025844 1_555
Ni9 O21 2.051604 1_554
Ni9 O1 2.076838 1_455
Ni9 O4 2.088033 1_454
