# generated using pymatgen
data_Gd2TiO5
_symmetry_space_group_name_H-M   'P 1'
_cell_length_a   3.67862700
_cell_length_b   7.55168100
_cell_length_c   15.73896700
_cell_angle_alpha   90.00000000
_cell_angle_beta   90.00000000
_cell_angle_gamma   90.00000000
_symmetry_Int_Tables_number   1
_chemical_formula_structural   Gd2TiO5
_chemical_formula_sum   'Gd8 Ti4 O20'
_cell_volume   437.22563282
_cell_formula_units_Z   4
loop_
 _symmetry_equiv_pos_site_id
 _symmetry_equiv_pos_as_xyz
  1  'x, y, z'
loop_
 _atom_site_type_symbol
 _atom_site_label
 _atom_site_symmetry_multiplicity
 _atom_site_fract_x
 _atom_site_fract_y
 _atom_site_fract_z
 _atom_site_occupancy
  Gd  Gd0  1  0.75000000  0.61077500  0.08166900  1
  Gd  Gd1  1  0.75000000  0.65439400  0.73888600  1
  Gd  Gd2  1  0.25000000  0.84560600  0.23888600  1
  Gd  Gd3  1  0.25000000  0.88922500  0.58166900  1
  Gd  Gd4  1  0.75000000  0.11077500  0.41833100  1
  Gd  Gd5  1  0.75000000  0.15439400  0.76111400  1
  Gd  Gd6  1  0.25000000  0.34560600  0.26111400  1
  Gd  Gd7  1  0.25000000  0.38922500  0.91833100  1
  Ti  Ti0  1  0.75000000  0.61570000  0.42322400  1
  Ti  Ti1  1  0.25000000  0.88430000  0.92322400  1
  Ti  Ti2  1  0.75000000  0.11570000  0.07677600  1
  Ti  Ti3  1  0.25000000  0.38430000  0.57677600  1
  O  O0  1  0.25000000  0.57699900  0.17305300  1
  O  O1  1  0.25000000  0.57725400  0.45296900  1
  O  O2  1  0.25000000  0.61447800  0.64834000  1
  O  O3  1  0.25000000  0.66006100  0.99316400  1
  O  O4  1  0.75000000  0.74660800  0.32459000  1
  O  O5  1  0.25000000  0.75339200  0.82459000  1
  O  O6  1  0.75000000  0.83993900  0.49316400  1
  O  O7  1  0.75000000  0.88552200  0.14834000  1
  O  O8  1  0.75000000  0.92274600  0.95296900  1
  O  O9  1  0.75000000  0.92300100  0.67305300  1
  O  O10  1  0.25000000  0.07699900  0.32694700  1
  O  O11  1  0.25000000  0.07725400  0.04703100  1
  O  O12  1  0.25000000  0.11447800  0.85166000  1
  O  O13  1  0.25000000  0.16006100  0.50683600  1
  O  O14  1  0.75000000  0.24660800  0.17541000  1
  O  O15  1  0.25000000  0.25339200  0.67541000  1
  O  O16  1  0.75000000  0.33993900  0.00683600  1
  O  O17  1  0.75000000  0.38552200  0.35166000  1
  O  O18  1  0.75000000  0.42274600  0.54703100  1
  O  O19  1  0.75000000  0.42300100  0.82694700  1
loop_
_geom_bond_atom_site_label_1
_geom_bond_atom_site_label_2
_geom_bond_distance
_geom_bond_site_symmetry_2
Gd0 O7 2.325059 1_555
Gd0 O3 2.337089 1_554
Gd0 O3 2.337089 1_654
Gd0 O0 2.348789 1_555
Gd0 O0 2.348789 1_655
Gd0 O16 2.360152 1_555
Gd1 O19 2.230335 1_555
Gd1 O9 2.277749 1_555
Gd1 O2 2.346241 1_655
Gd1 O2 2.346241 1_555
Gd1 O5 2.400311 1_555
Gd1 O5 2.400311 1_655
Gd2 O10 2.230335 1_565
Gd2 O0 2.277749 1_555
Gd2 O7 2.346241 1_455
Gd2 O7 2.346241 1_555
Gd2 O4 2.400311 1_555
Gd2 O4 2.400311 1_455
Gd3 O2 2.325059 1_555
Gd3 O6 2.337089 1_555
Gd3 O6 2.337089 1_455
Gd3 O9 2.348789 1_455
Gd3 O9 2.348789 1_555
Gd3 O13 2.360152 1_565
Gd4 O17 2.325059 1_555
Gd4 O13 2.337089 1_655
Gd4 O13 2.337089 1_555
Gd4 O10 2.348789 1_655
Gd4 O10 2.348789 1_555
Gd4 O6 2.360152 1_545
Gd5 O9 2.230335 1_545
Gd5 O19 2.277749 1_555
Gd5 O12 2.346241 1_555
Gd5 O12 2.346241 1_655
Gd5 O15 2.400311 1_555
Gd5 O15 2.400311 1_655
Gd6 O0 2.230335 1_555
Gd6 O10 2.277749 1_555
Gd6 O17 2.346241 1_555
Gd6 O17 2.346241 1_455
Gd6 O14 2.400311 1_455
Gd6 O14 2.400311 1_555
Gd7 O12 2.325059 1_555
Gd7 O16 2.337089 1_556
Gd7 O16 2.337089 1_456
Gd7 O19 2.348789 1_455
Gd7 O19 2.348789 1_555
Gd7 O3 2.360152 1_555
O1 Ti0 1.920036 1_455
O1 Ti0 1.920036 1_555
O1 Ti3 2.433154 1_555
O2 Ti3 2.071255 1_555
O3 Ti1 2.019719 1_555
O4 Ti0 1.840440 1_555
O5 Ti1 1.840440 1_555
O6 Ti0 2.019719 1_555
O7 Ti2 2.071255 1_565
O8 Ti1 1.920036 1_555
O8 Ti1 1.920036 1_655
O8 Ti2 2.433154 1_566
O11 Ti2 1.920036 1_455
O11 Ti2 1.920036 1_555
O11 Ti1 2.433154 1_544
O12 Ti1 2.071255 1_545
O13 Ti3 2.019719 1_555
O14 Ti2 1.840440 1_555
O15 Ti3 1.840440 1_555
O16 Ti2 2.019719 1_555
O17 Ti0 2.071255 1_555
O18 Ti3 1.920036 1_555
O18 Ti3 1.920036 1_655
O18 Ti0 2.433154 1_555
