# generated using pymatgen
data_Li5V3Cr2O10
_symmetry_space_group_name_H-M   'P 1'
_cell_length_a   5.14327386
_cell_length_b   7.86587822
_cell_length_c   10.34401734
_cell_angle_alpha   108.09965006
_cell_angle_beta   99.57209535
_cell_angle_gamma   71.52264927
_symmetry_Int_Tables_number   1
_chemical_formula_structural   Li5V3Cr2O10
_chemical_formula_sum   'Li10 V6 Cr4 O20'
_cell_volume   376.19895517
_cell_formula_units_Z   2
loop_
 _symmetry_equiv_pos_site_id
 _symmetry_equiv_pos_as_xyz
  1  'x, y, z'
loop_
 _atom_site_type_symbol
 _atom_site_label
 _atom_site_symmetry_multiplicity
 _atom_site_fract_x
 _atom_site_fract_y
 _atom_site_fract_z
 _atom_site_occupancy
  Li  Li0  1  0.00016400  0.50008800  0.25005400  1
  Li  Li1  1  0.99984300  0.49991700  0.74994600  1
  Li  Li2  1  0.49542100  0.41725500  0.10750000  1
  Li  Li3  1  0.49552100  0.41738500  0.60747000  1
  Li  Li4  1  0.50448500  0.58261600  0.39252900  1
  Li  Li5  1  0.50458600  0.58274400  0.89249900  1
  Li  Li6  1  0.51880700  0.76941400  0.19078000  1
  Li  Li7  1  0.51922700  0.76934800  0.69069900  1
  Li  Li8  1  0.48077800  0.23065100  0.30930000  1
  Li  Li9  1  0.48120000  0.23058600  0.80922000  1
  V  V0  1  0.50000300  0.00000000  0.50000000  1
  V  V1  1  0.00211300  0.89028700  0.34326300  1
  V  V2  1  0.99788600  0.10971600  0.65673800  1
  V  V3  1  0.50000500  0.00000300  0.99999900  1
  V  V4  1  0.00234800  0.88996200  0.84336000  1
  V  V5  1  0.99766200  0.11004300  0.15664000  1
  Cr  Cr0  1  0.00729200  0.69151900  0.04685900  1
  Cr  Cr1  1  0.99265000  0.30848100  0.95315000  1
  Cr  Cr2  1  0.00732200  0.69155000  0.54706200  1
  Cr  Cr3  1  0.99262900  0.30845500  0.45295300  1
  O  O0  1  0.23696700  0.86101900  0.02720200  1
  O  O1  1  0.23657300  0.86106600  0.52685100  1
  O  O2  1  0.76343200  0.13892700  0.47314300  1
  O  O3  1  0.76304200  0.13898100  0.97279800  1
  O  O4  1  0.76434200  0.94193100  0.16305300  1
  O  O5  1  0.76434400  0.94183800  0.66325100  1
  O  O6  1  0.23566700  0.05815900  0.33674500  1
  O  O7  1  0.23566500  0.05806900  0.83694600  1
  O  O8  1  0.77092100  0.54564300  0.06689400  1
  O  O9  1  0.77095800  0.54546100  0.56687700  1
  O  O10  1  0.22904600  0.45453600  0.43312400  1
  O  O11  1  0.22908200  0.45435900  0.93310600  1
  O  O12  1  0.24746800  0.23488200  0.11748100  1
  O  O13  1  0.24796400  0.23460400  0.61746500  1
  O  O14  1  0.75203800  0.76538800  0.38253000  1
  O  O15  1  0.75254100  0.76512000  0.88251800  1
  O  O16  1  0.22799500  0.66708000  0.22409900  1
  O  O17  1  0.22822300  0.66722000  0.72392200  1
  O  O18  1  0.77178400  0.33277800  0.27607700  1
  O  O19  1  0.77200400  0.33292100  0.77589900  1
loop_
_geom_bond_atom_site_label_1
_geom_bond_atom_site_label_2
_geom_bond_distance
_geom_bond_site_symmetry_2
Li0 O16 2.114228 1_555
Li0 O18 2.118791 1_455
Li0 O10 2.124393 1_555
Li0 O8 2.125847 1_455
Li0 O12 2.229551 1_555
Li0 O14 2.231141 1_455
Li1 O19 2.114278 1_555
Li1 O17 2.118749 1_655
Li1 O9 2.124372 1_555
Li1 O11 2.125846 1_655
Li1 O15 2.229529 1_555
Li1 O13 2.231210 1_655
Li2 O11 2.113701 1_554
Li2 O8 2.138373 1_555
Li2 O16 2.138681 1_555
Li2 O18 2.190799 1_555
Li2 O12 2.233898 1_555
Li2 O3 2.336729 1_554
Li3 O10 2.113706 1_555
Li3 O9 2.136215 1_555
Li3 O17 2.137844 1_555
Li3 O19 2.189826 1_555
Li3 O13 2.235044 1_555
Li3 O2 2.336571 1_555
Li4 O9 2.113724 1_555
Li4 O10 2.136256 1_555
Li4 O18 2.137859 1_555
Li4 O16 2.189849 1_555
Li4 O14 2.234983 1_555
Li4 O1 2.336516 1_555
Li5 O8 2.113695 1_556
Li5 O11 2.138378 1_555
Li5 O19 2.138658 1_555
Li5 O17 2.190796 1_555
Li5 O15 2.233926 1_555
Li5 O0 2.336734 1_556
Li6 O16 2.027534 1_555
Li6 O8 2.031299 1_555
Li6 O14 2.144237 1_555
Li6 O0 2.182493 1_555
Li6 O4 2.228682 1_555
Li6 O6 2.462300 1_565
Li7 O17 2.026895 1_555
Li7 O9 2.030495 1_555
Li7 O15 2.145205 1_555
Li7 O1 2.186760 1_555
Li7 O5 2.225639 1_555
Li7 O7 2.464310 1_565
Li8 O18 2.026899 1_555
Li8 O10 2.030500 1_555
Li8 O12 2.145199 1_555
Li8 O2 2.186737 1_555
Li8 O6 2.225615 1_555
Li8 O4 2.464310 1_545
Li9 O19 2.027512 1_555
Li9 O11 2.031316 1_555
Li9 O13 2.144283 1_555
Li9 O3 2.182497 1_555
Li9 O7 2.228678 1_555
Li9 O5 2.462339 1_545
Cr0 O11 1.974707 1_554
Cr0 O8 1.988294 1_455
Cr0 O16 2.018732 1_555
Cr0 O15 2.081265 1_454
Cr0 O4 2.086662 1_455
Cr0 O0 2.112108 1_555
Cr1 O8 1.974560 1_556
Cr1 O11 1.988597 1_655
Cr1 O19 2.018718 1_555
Cr1 O12 2.081317 1_656
Cr1 O7 2.086834 1_655
Cr1 O3 2.111805 1_555
Cr2 O10 1.974681 1_555
Cr2 O9 1.988735 1_455
Cr2 O17 2.015634 1_555
Cr2 O14 2.084574 1_455
Cr2 O5 2.086139 1_455
Cr2 O1 2.112739 1_555
Cr3 O9 1.974484 1_555
Cr3 O10 1.988962 1_655
Cr3 O18 2.015652 1_555
Cr3 O13 2.084550 1_655
Cr3 O6 2.086372 1_655
Cr3 O2 2.112519 1_555
O0 V3 2.088022 1_564
O0 V4 2.110922 1_554
O0 V5 2.129502 1_465
O1 V0 2.087933 1_565
O1 V1 2.108852 1_555
O1 V2 2.128715 1_465
O2 V0 2.087912 1_555
O2 V2 2.108885 1_555
O2 V1 2.128628 1_645
O3 V3 2.087973 1_555
O3 V5 2.110916 1_556
O3 V4 2.129483 1_645
O4 V3 2.055290 1_564
O4 V5 2.068791 1_565
O4 V1 2.129053 1_655
O5 V0 2.057078 1_565
O5 V2 2.068497 1_565
O5 V4 2.129131 1_655
O6 V0 2.057092 1_555
O6 V1 2.068523 1_545
O6 V5 2.129116 1_455
O7 V3 2.055276 1_555
O7 V4 2.068750 1_545
O7 V2 2.129058 1_455
O12 V5 1.999760 1_455
O12 V3 2.045990 1_554
O13 V2 2.001760 1_455
O13 V0 2.043652 1_555
O14 V1 2.001784 1_655
O14 V0 2.043697 1_565
O15 V4 1.999777 1_655
O15 V3 2.045999 1_565
O16 V1 1.946875 1_555
O17 V4 1.946262 1_555
O18 V5 1.946235 1_555
O19 V2 1.946853 1_555
