# generated using pymatgen
data_Li3Co2CuO6
_symmetry_space_group_name_H-M   'P 1'
_cell_length_a   6.59726691
_cell_length_b   6.59726691
_cell_length_c   5.91997959
_cell_angle_alpha   76.74348605
_cell_angle_beta   76.74348605
_cell_angle_gamma   25.70028245
_symmetry_Int_Tables_number   1
_chemical_formula_structural   Li3Co2CuO6
_chemical_formula_sum   'Li3 Co2 Cu1 O6'
_cell_volume   108.60344924
_cell_formula_units_Z   1
loop_
 _symmetry_equiv_pos_site_id
 _symmetry_equiv_pos_as_xyz
  1  'x, y, z'
loop_
 _atom_site_type_symbol
 _atom_site_label
 _atom_site_symmetry_multiplicity
 _atom_site_fract_x
 _atom_site_fract_y
 _atom_site_fract_z
 _atom_site_occupancy
  Li  Li0  1  0.16246300  0.16246300  0.16488100  1
  Li  Li1  1  0.50000000  0.50000000  0.50000000  1
  Li  Li2  1  0.83753700  0.83753700  0.83511800  1
  Co  Co0  1  0.16431500  0.16431500  0.66535600  1
  Co  Co1  1  0.83568500  0.83568500  0.33464400  1
  Cu  Cu0  1  0.50000000  0.50000000  0.00000000  1
  O  O0  1  0.66200400  0.66200400  0.90400100  1
  O  O1  1  0.99380300  0.99380300  0.23786800  1
  O  O2  1  0.32642900  0.32642900  0.56991900  1
  O  O3  1  0.00619700  0.00619700  0.76213200  1
  O  O4  1  0.33799600  0.33799600  0.09599900  1
  O  O5  1  0.67357100  0.67357100  0.43008100  1
loop_
_geom_bond_atom_site_label_1
_geom_bond_atom_site_label_2
_geom_bond_distance
_geom_bond_site_symmetry_2
Li0 O1 2.110240 1_445
Li0 O0 2.131271 1_544
Li0 O0 2.131271 1_454
Li0 O5 2.177978 1_455
Li0 O5 2.177978 1_545
Li0 O4 2.198186 1_555
Li1 O3 2.150694 1_655
Li1 O1 2.150694 1_455
Li1 O3 2.150694 1_565
Li1 O1 2.150694 1_545
Li1 O2 2.173042 1_555
Li1 O5 2.173042 1_555
Li2 O3 2.110240 1_665
Li2 O4 2.131275 1_656
Li2 O4 2.131275 1_566
Li2 O2 2.177973 1_565
Li2 O2 2.177973 1_655
Li2 O0 2.198185 1_555
Co0 O3 1.979238 1_555
Co0 O5 2.007218 1_545
Co0 O5 2.007218 1_455
Co0 O2 2.028311 1_555
Co0 O0 2.032206 1_455
Co0 O0 2.032206 1_545
Co1 O1 1.979238 1_555
Co1 O2 2.007218 1_655
Co1 O2 2.007218 1_565
Co1 O5 2.028311 1_555
Co1 O4 2.032206 1_655
Co1 O4 2.032206 1_565
Cu0 O3 2.022203 1_654
Cu0 O3 2.022203 1_564
Cu0 O1 2.022203 1_455
Cu0 O1 2.022203 1_545
Cu0 O4 2.027075 1_555
Cu0 O0 2.027075 1_554
