# generated using pymatgen
data_Li3Cu(NiO2)4
_symmetry_space_group_name_H-M   'P 1'
_cell_length_a   5.83353092
_cell_length_b   5.83353144
_cell_length_c   5.84899619
_cell_angle_alpha   90.44834903
_cell_angle_beta   60.41127228
_cell_angle_gamma   60.19337406
_symmetry_Int_Tables_number   1
_chemical_formula_structural   Li3Cu(NiO2)4
_chemical_formula_sum   'Li3 Cu1 Ni4 O8'
_cell_volume   141.47452799
_cell_formula_units_Z   1
loop_
 _symmetry_equiv_pos_site_id
 _symmetry_equiv_pos_as_xyz
  1  'x, y, z'
loop_
 _atom_site_type_symbol
 _atom_site_label
 _atom_site_symmetry_multiplicity
 _atom_site_fract_x
 _atom_site_fract_y
 _atom_site_fract_z
 _atom_site_occupancy
  Li  Li0  1  0.00000000  0.00000000  0.50000000  1
  Li  Li1  1  0.50000000  0.00000000  0.50000000  1
  Li  Li2  1  0.50000000  0.50000000  0.50000000  1
  Cu  Cu0  1  0.50000000  0.50000000  0.00000000  1
  Ni  Ni0  1  0.00000000  0.50000000  0.50000000  1
  Ni  Ni1  1  0.00000000  0.00000000  0.00000000  1
  Ni  Ni2  1  0.50000000  0.00000000  0.00000000  1
  Ni  Ni3  1  0.00000000  0.50000000  0.00000000  1
  O  O0  1  0.46687500  0.25430000  0.78742600  1
  O  O1  1  0.98545600  0.27086000  0.77146100  1
  O  O2  1  0.49939900  0.75691700  0.77146100  1
  O  O3  1  0.00462600  0.74953600  0.74491000  1
  O  O4  1  0.99537400  0.25046400  0.25509000  1
  O  O5  1  0.50060100  0.24308300  0.22853900  1
  O  O6  1  0.01454400  0.72914000  0.22853900  1
  O  O7  1  0.53312500  0.74570000  0.21257400  1
loop_
_geom_bond_atom_site_label_1
_geom_bond_atom_site_label_2
_geom_bond_distance
_geom_bond_site_symmetry_2
Li0 O4 2.054078 1_455
Li0 O3 2.054078 1_545
Li0 O1 2.172390 1_455
Li0 O6 2.172390 1_545
Li0 O7 2.215894 1_545
Li0 O0 2.215894 1_455
Li1 O7 2.102253 1_545
Li1 O0 2.102253 1_555
Li1 O6 2.136946 1_645
Li1 O1 2.136946 1_455
Li1 O5 2.136946 1_555
Li1 O2 2.136946 1_545
Li2 O4 2.054078 1_555
Li2 O3 2.054078 1_555
Li2 O2 2.172390 1_555
Li2 O5 2.172390 1_555
Li2 O0 2.215898 1_555
Li2 O7 2.215898 1_555
Cu0 O6 2.015887 1_555
Cu0 O1 2.015887 1_554
Cu0 O5 2.015887 1_555
Cu0 O2 2.015887 1_554
Cu0 O0 2.030347 1_554
Cu0 O7 2.030347 1_555
Ni0 O3 2.053365 1_555
Ni0 O4 2.053365 1_455
Ni0 O2 2.080362 1_455
Ni0 O5 2.080362 1_555
Ni0 O1 2.080363 1_455
Ni0 O6 2.080363 1_555
Ni1 O4 2.061203 1_455
Ni1 O3 2.061203 1_544
Ni1 O2 2.074230 1_544
Ni1 O5 2.074230 1_455
Ni1 O6 2.074230 1_545
Ni1 O1 2.074230 1_454
Ni2 O7 1.940379 1_545
Ni2 O0 1.940379 1_554
Ni2 O5 1.943596 1_555
Ni2 O2 1.943596 1_544
Ni2 O4 2.092637 1_455
Ni2 O3 2.092637 1_644
Ni3 O0 1.940383 1_554
Ni3 O7 1.940383 1_455
Ni3 O6 1.943596 1_555
Ni3 O1 1.943596 1_454
Ni3 O4 2.092637 1_455
Ni3 O3 2.092637 1_554
