# generated using pymatgen
data_BaTl2O4
_symmetry_space_group_name_H-M   'P 1'
_cell_length_a   6.15141622
_cell_length_b   6.15141622
_cell_length_c   22.13782036
_cell_angle_alpha   89.82886055
_cell_angle_beta   89.82886055
_cell_angle_gamma   61.24399040
_symmetry_Int_Tables_number   1
_chemical_formula_structural   BaTl2O4
_chemical_formula_sum   'Ba6 Tl12 O24'
_cell_volume   734.38151539
_cell_formula_units_Z   6
loop_
 _symmetry_equiv_pos_site_id
 _symmetry_equiv_pos_as_xyz
  1  'x, y, z'
loop_
 _atom_site_type_symbol
 _atom_site_label
 _atom_site_symmetry_multiplicity
 _atom_site_fract_x
 _atom_site_fract_y
 _atom_site_fract_z
 _atom_site_occupancy
  Ba  Ba0  1  0.54570100  0.78463700  0.14402900  1
  Ba  Ba1  1  0.78463700  0.54570100  0.64402900  1
  Ba  Ba2  1  0.88834300  0.11165700  0.25000000  1
  Ba  Ba3  1  0.11165700  0.88834300  0.75000000  1
  Ba  Ba4  1  0.45429900  0.21536300  0.85597100  1
  Ba  Ba5  1  0.21536300  0.45429900  0.35597100  1
  Tl  Tl0  1  0.54371800  0.78933600  0.30537000  1
  Tl  Tl1  1  0.78933600  0.54371800  0.80537000  1
  Tl  Tl2  1  0.53521300  0.78818300  0.44621900  1
  Tl  Tl3  1  0.78818300  0.53521300  0.94621900  1
  Tl  Tl4  1  0.87100500  0.13035100  0.43102200  1
  Tl  Tl5  1  0.13035100  0.87100500  0.93102200  1
  Tl  Tl6  1  0.86964900  0.12899500  0.06897800  1
  Tl  Tl7  1  0.12899500  0.86964900  0.56897800  1
  Tl  Tl8  1  0.21181700  0.46478700  0.05378100  1
  Tl  Tl9  1  0.46478700  0.21181700  0.55378100  1
  Tl  Tl10  1  0.21066400  0.45628200  0.19463000  1
  Tl  Tl11  1  0.45628200  0.21066400  0.69463000  1
  O  O0  1  0.80034700  0.90684300  0.50219500  1
  O  O1  1  0.90684300  0.80034700  0.00219500  1
  O  O2  1  0.62444600  0.01965600  0.37575400  1
  O  O3  1  0.01965600  0.62444600  0.87575400  1
  O  O4  1  0.68464100  0.89194400  0.75572300  1
  O  O5  1  0.89194400  0.68464100  0.25572300  1
  O  O6  1  0.77985700  0.47191200  0.38135400  1
  O  O7  1  0.47191200  0.77985700  0.88135400  1
  O  O8  1  0.21470900  0.88321700  0.37208200  1
  O  O9  1  0.88321700  0.21470900  0.87208200  1
  O  O10  1  0.46987600  0.53012400  0.25000000  1
  O  O11  1  0.50000000  0.50000000  0.00000000  1
  O  O12  1  0.50000000  0.50000000  0.50000000  1
  O  O13  1  0.53012400  0.46987600  0.75000000  1
  O  O14  1  0.11678300  0.78529100  0.12791800  1
  O  O15  1  0.78529100  0.11678300  0.62791800  1
  O  O16  1  0.52808800  0.22014300  0.11864600  1
  O  O17  1  0.22014300  0.52808800  0.61864600  1
  O  O18  1  0.31535900  0.10805600  0.24427700  1
  O  O19  1  0.10805600  0.31535900  0.74427700  1
  O  O20  1  0.98034400  0.37555400  0.12424600  1
  O  O21  1  0.37555400  0.98034400  0.62424600  1
  O  O22  1  0.19965300  0.09315700  0.49780500  1
  O  O23  1  0.09315700  0.19965300  0.99780500  1
loop_
_geom_bond_atom_site_label_1
_geom_bond_atom_site_label_2
_geom_bond_distance
_geom_bond_site_symmetry_2
Ba0 O14 2.661590 1_555
Ba0 O20 2.683063 1_555
Ba0 O16 2.686359 1_565
Ba0 O18 2.861154 1_565
Ba0 O10 2.974292 1_555
Ba0 O5 3.129002 1_555
Ba1 O15 2.661590 1_555
Ba1 O21 2.683063 1_555
Ba1 O17 2.686359 1_655
Ba1 O19 2.861154 1_655
Ba1 O13 2.974292 1_555
Ba1 O4 3.129002 1_555
Ba2 O5 2.618858 1_545
Ba2 O18 2.618858 1_655
Ba2 O10 2.622414 1_555
Ba3 O4 2.618858 1_455
Ba3 O19 2.618858 1_565
Ba3 O13 2.622414 1_555
Ba4 O9 2.661590 1_555
Ba4 O3 2.683063 1_555
Ba4 O7 2.686359 1_545
Ba4 O4 2.861154 1_545
Ba4 O13 2.974292 1_555
Ba4 O19 3.129002 1_555
Ba5 O8 2.661590 1_555
Ba5 O2 2.683063 1_555
Ba5 O6 2.686359 1_455
Ba5 O5 2.861154 1_455
Ba5 O10 2.974292 1_555
Ba5 O18 3.129002 1_555
O0 Tl4 2.262687 1_565
O0 Tl9 2.314571 1_565
O0 Tl2 2.427196 1_555
O0 Tl7 2.428161 1_655
O1 Tl5 2.262687 1_654
O1 Tl8 2.314571 1_655
O1 Tl3 2.427196 1_554
O1 Tl6 2.428161 1_565
O2 Tl4 2.295808 1_555
O2 Tl0 2.318726 1_545
O2 Tl2 2.344312 1_545
O3 Tl5 2.295808 1_555
O3 Tl1 2.318726 1_455
O3 Tl3 2.344312 1_455
O4 Tl1 2.207729 1_555
O4 Tl11 2.234265 1_565
O5 Tl0 2.207729 1_555
O5 Tl10 2.234265 1_655
O6 Tl4 2.189593 1_555
O6 Tl2 2.301853 1_555
O6 Tl0 2.453198 1_555
O7 Tl5 2.189593 1_555
O7 Tl3 2.301853 1_555
O7 Tl1 2.453198 1_555
O8 Tl4 2.320893 1_465
O8 Tl0 2.339519 1_555
O8 Tl2 2.413932 1_555
O9 Tl5 2.320893 1_645
O9 Tl1 2.339519 1_555
O9 Tl3 2.413932 1_555
O10 Tl10 2.227828 1_555
O10 Tl0 2.227828 1_555
O11 Tl8 2.227629 1_555
O11 Tl3 2.227629 1_554
O11 Tl6 2.778053 1_555
O11 Tl5 2.778053 1_554
O12 Tl2 2.227629 1_555
O12 Tl9 2.227629 1_555
O12 Tl7 2.778053 1_555
O12 Tl4 2.778053 1_555
O13 Tl11 2.227828 1_555
O13 Tl1 2.227828 1_555
O14 Tl6 2.320893 1_465
O14 Tl10 2.339519 1_555
O14 Tl8 2.413932 1_555
O15 Tl7 2.320893 1_645
O15 Tl11 2.339519 1_555
O15 Tl9 2.413932 1_555
O16 Tl6 2.189593 1_555
O16 Tl8 2.301853 1_555
O16 Tl10 2.453198 1_555
O17 Tl7 2.189593 1_555
O17 Tl9 2.301853 1_555
O17 Tl11 2.453198 1_555
O18 Tl10 2.207729 1_555
O18 Tl0 2.234265 1_545
O19 Tl11 2.207729 1_555
O19 Tl1 2.234265 1_455
O20 Tl6 2.295808 1_555
O20 Tl10 2.318726 1_655
O20 Tl8 2.344312 1_655
O21 Tl7 2.295808 1_555
O21 Tl11 2.318726 1_565
O21 Tl9 2.344312 1_565
O22 Tl7 2.262687 1_545
O22 Tl2 2.314571 1_545
O22 Tl9 2.427196 1_555
O22 Tl4 2.428161 1_455
O23 Tl6 2.262687 1_456
O23 Tl3 2.314571 1_455
O23 Tl8 2.427196 1_556
O23 Tl5 2.428161 1_545
