# generated using pymatgen
data_YSeO3
_symmetry_space_group_name_H-M   'P 1'
_cell_length_a   12.23956373
_cell_length_b   5.93853708
_cell_length_c   8.89516006
_cell_angle_alpha   73.87316778
_cell_angle_beta   90.00000000
_cell_angle_gamma   90.00000000
_symmetry_Int_Tables_number   1
_chemical_formula_structural   YSeO3
_chemical_formula_sum   'Y8 Se8 O24'
_cell_volume   621.10352510
_cell_formula_units_Z   8
loop_
 _symmetry_equiv_pos_site_id
 _symmetry_equiv_pos_as_xyz
  1  'x, y, z'
loop_
 _atom_site_type_symbol
 _atom_site_label
 _atom_site_symmetry_multiplicity
 _atom_site_fract_x
 _atom_site_fract_y
 _atom_site_fract_z
 _atom_site_occupancy
  Y  Y0  1  0.56187495  0.76058081  0.91596807  1
  Y  Y1  1  0.93812505  0.76058081  0.41596807  1
  Y  Y2  1  0.24270709  0.63566159  0.84223635  1
  Y  Y3  1  0.25729291  0.63566159  0.34223635  1
  Y  Y4  1  0.74270709  0.36433841  0.65776365  1
  Y  Y5  1  0.75729291  0.36433841  0.15776365  1
  Y  Y6  1  0.06187495  0.23941919  0.58403193  1
  Y  Y7  1  0.43812505  0.23941919  0.08403193  1
  Se  Se0  1  0.84212425  0.95700884  0.01692016  1
  Se  Se1  1  0.65787575  0.95700884  0.51692016  1
  Se  Se2  1  0.98527456  0.63194776  0.82049827  1
  Se  Se3  1  0.51472544  0.63194776  0.32049827  1
  Se  Se4  1  0.48527456  0.36805224  0.67950173  1
  Se  Se5  1  0.01472544  0.36805224  0.17950173  1
  Se  Se6  1  0.34212425  0.04299116  0.48307984  1
  Se  Se7  1  0.15787575  0.04299116  0.98307984  1
  O  O0  1  0.17833669  0.01958169  0.79755711  1
  O  O1  1  0.32166331  0.01958169  0.29755711  1
  O  O2  1  0.98418305  0.86540673  0.64574591  1
  O  O3  1  0.27530974  0.78527253  0.57528628  1
  O  O4  1  0.75312157  0.75200137  0.50726933  1
  O  O5  1  0.51581695  0.86540673  0.14574591  1
  O  O6  1  0.40469535  0.59397832  0.91865753  1
  O  O7  1  0.22469026  0.78527253  0.07528628  1
  O  O8  1  0.74687843  0.75200137  0.00726933  1
  O  O9  1  0.58892840  0.55467461  0.72199418  1
  O  O10  1  0.09530465  0.59397832  0.41865753  1
  O  O11  1  0.08892840  0.44532539  0.77800582  1
  O  O12  1  0.91107160  0.55467461  0.22199418  1
  O  O13  1  0.90469535  0.40602168  0.58134247  1
  O  O14  1  0.41107160  0.44532539  0.27800582  1
  O  O15  1  0.25312157  0.24799863  0.99273067  1
  O  O16  1  0.77530974  0.21472747  0.92471372  1
  O  O17  1  0.59530465  0.40602168  0.08134247  1
  O  O18  1  0.48418305  0.13459327  0.85425409  1
  O  O19  1  0.24687843  0.24799863  0.49273067  1
  O  O20  1  0.72469026  0.21472747  0.42471372  1
  O  O21  1  0.01581695  0.13459327  0.35425409  1
  O  O22  1  0.67833669  0.98041831  0.70244289  1
  O  O23  1  0.82166331  0.98041831  0.20244289  1
loop_
_geom_bond_atom_site_label_1
_geom_bond_atom_site_label_2
_geom_bond_distance
_geom_bond_site_symmetry_2
O0 Se7 1.712550 1_555
O0 Y2 2.339522 1_545
O0 Y6 2.442589 1_555
O1 Se6 1.712550 1_555
O1 Y3 2.339522 1_545
O1 Y7 2.442589 1_555
O2 Se2 1.772397 1_555
O2 Y6 2.336980 1_665
O2 Y1 2.364258 1_555
O3 Se6 1.728143 1_565
O3 Y2 2.327048 1_555
O3 Y3 2.481650 1_555
O4 Se1 1.704879 1_555
O4 Y4 2.322960 1_555
O4 Y1 2.401357 1_555
O5 Se3 1.772397 1_555
O5 Y7 2.336980 1_565
O5 Y0 2.364258 1_554
O6 Y2 2.088267 1_555
O6 Y0 2.160401 1_555
O6 Y7 2.245902 1_556
O7 Se7 1.728143 1_564
O7 Y3 2.327048 1_555
O7 Y2 2.481650 1_554
O8 Se0 1.704879 1_555
O8 Y5 2.322960 1_555
O8 Y0 2.401357 1_554
O9 Se4 1.792587 1_555
O9 Y4 2.346365 1_555
O9 Y0 2.398752 1_555
O10 Y3 2.088267 1_555
O10 Y1 2.160401 1_455
O10 Y6 2.245902 1_555
O11 Se2 1.792587 1_455
O11 Y2 2.346365 1_555
O11 Y6 2.398752 1_555
O12 Se5 1.792587 1_655
O12 Y5 2.346365 1_555
O12 Y1 2.398752 1_555
O13 Y4 2.088267 1_555
O13 Y6 2.160401 1_655
O13 Y1 2.245902 1_555
O14 Se3 1.792587 1_555
O14 Y3 2.346365 1_555
O14 Y7 2.398752 1_555
O15 Se7 1.704879 1_555
O15 Y2 2.322960 1_555
O15 Y7 2.401357 1_556
O16 Se0 1.728143 1_546
O16 Y4 2.327048 1_555
O16 Y5 2.481650 1_556
O17 Y5 2.088267 1_555
O17 Y7 2.160401 1_555
O17 Y0 2.245902 1_554
O18 Se4 1.772397 1_555
O18 Y0 2.336980 1_545
O18 Y7 2.364258 1_556
O19 Se6 1.704879 1_555
O19 Y3 2.322960 1_555
O19 Y6 2.401357 1_555
O20 Se1 1.728143 1_545
O20 Y5 2.327048 1_555
O20 Y4 2.481650 1_555
O21 Se5 1.772397 1_555
O21 Y1 2.336980 1_445
O21 Y6 2.364258 1_555
O22 Se1 1.712550 1_555
O22 Y4 2.339522 1_565
O22 Y0 2.442589 1_555
O23 Se0 1.712550 1_555
O23 Y5 2.339522 1_565
O23 Y1 2.442589 1_555
