# generated using pymatgen
data_Li3V(BO3)2
_symmetry_space_group_name_H-M   'P 1'
_cell_length_a   6.50210100
_cell_length_b   8.22294800
_cell_length_c   9.52735930
_cell_angle_alpha   64.34361290
_cell_angle_beta   90.00000000
_cell_angle_gamma   90.00000000
_symmetry_Int_Tables_number   1
_chemical_formula_structural   Li3V(BO3)2
_chemical_formula_sum   'Li12 V4 B8 O24'
_cell_volume   459.17121669
_cell_formula_units_Z   4
loop_
 _symmetry_equiv_pos_site_id
 _symmetry_equiv_pos_as_xyz
  1  'x, y, z'
loop_
 _atom_site_type_symbol
 _atom_site_label
 _atom_site_symmetry_multiplicity
 _atom_site_fract_x
 _atom_site_fract_y
 _atom_site_fract_z
 _atom_site_occupancy
  Li  Li0  1  0.25490300  0.41038100  0.98162400  1
  Li  Li1  1  0.95155500  0.27877900  0.17146600  1
  Li  Li2  1  0.75490300  0.58961900  0.51837600  1
  Li  Li3  1  0.72205200  0.16419900  0.03466900  1
  Li  Li4  1  0.54844500  0.27877900  0.67146600  1
  Li  Li5  1  0.22205200  0.83580100  0.46533100  1
  Li  Li6  1  0.77794800  0.16419900  0.53466900  1
  Li  Li7  1  0.45155500  0.72122100  0.32853400  1
  Li  Li8  1  0.27794800  0.83580100  0.96533100  1
  Li  Li9  1  0.24509700  0.41038100  0.48162400  1
  Li  Li10  1  0.04844500  0.72122100  0.82853400  1
  Li  Li11  1  0.74509700  0.58961900  0.01837600  1
  V  V0  1  0.46094300  0.18314900  0.31454400  1
  V  V1  1  0.03905700  0.18314900  0.81454400  1
  V  V2  1  0.96094300  0.81685100  0.18545600  1
  V  V3  1  0.53905700  0.81685100  0.68545600  1
  B  B0  1  0.34551500  0.54179500  0.68894600  1
  B  B1  1  0.84551500  0.45820500  0.81105400  1
  B  B2  1  0.83248600  0.93303300  0.38148900  1
  B  B3  1  0.33248600  0.06696700  0.11851100  1
  B  B4  1  0.66751400  0.93303300  0.88148900  1
  B  B5  1  0.16751400  0.06696700  0.61851100  1
  B  B6  1  0.15448500  0.54179500  0.18894600  1
  B  B7  1  0.65448500  0.45820500  0.31105400  1
  O  O0  1  0.78684700  0.62616400  0.79172900  1
  O  O1  1  0.30368200  0.62146000  0.78817100  1
  O  O2  1  0.46407100  0.65718800  0.56090800  1
  O  O3  1  0.96407100  0.34281200  0.93909200  1
  O  O4  1  0.80368200  0.37854000  0.71182900  1
  O  O5  1  0.69471600  0.98406900  0.46608700  1
  O  O6  1  0.44943700  0.22113800  0.06337200  1
  O  O7  1  0.28684700  0.37383600  0.70827100  1
  O  O8  1  0.85711600  0.03560700  0.22360500  1
  O  O9  1  0.35711600  0.96439300  0.27639500  1
  O  O10  1  0.94943700  0.77886200  0.43662800  1
  O  O11  1  0.19471600  0.01593100  0.03391300  1
  O  O12  1  0.80528400  0.98406900  0.96608700  1
  O  O13  1  0.05056300  0.22113800  0.56337200  1
  O  O14  1  0.64288400  0.03560700  0.72360500  1
  O  O15  1  0.14288400  0.96439300  0.77639500  1
  O  O16  1  0.71315300  0.62616400  0.29172900  1
  O  O17  1  0.55056300  0.77886200  0.93662800  1
  O  O18  1  0.30528400  0.01593100  0.53391300  1
  O  O19  1  0.19631800  0.62146000  0.28817100  1
  O  O20  1  0.03592900  0.65718800  0.06090800  1
  O  O21  1  0.53592900  0.34281200  0.43909200  1
  O  O22  1  0.69631800  0.37854000  0.21182900  1
  O  O23  1  0.21315300  0.37383600  0.20827100  1
loop_
_geom_bond_atom_site_label_1
_geom_bond_atom_site_label_2
_geom_bond_distance
_geom_bond_site_symmetry_2
Li0 O6 1.891708 1_556
Li0 O1 1.933913 1_555
Li0 O3 2.060055 1_455
Li0 O23 2.065155 1_556
Li1 O8 1.939599 1_555
Li1 O22 1.961680 1_555
Li1 O23 1.965824 1_655
Li1 O3 2.043483 1_554
Li2 O10 1.891708 1_555
Li2 O4 1.933913 1_555
Li2 O2 2.060055 1_555
Li2 O16 2.065155 1_555
Li3 O8 1.865831 1_555
Li3 O6 1.883316 1_555
Li3 O12 1.936970 1_544
Li3 O3 2.074736 1_554
Li4 O14 1.939599 1_555
Li4 O4 1.961680 1_555
Li4 O7 1.965824 1_555
Li4 O21 2.043483 1_555
Li5 O9 1.865831 1_555
Li5 O10 1.883316 1_455
Li5 O18 1.936970 1_565
Li5 O2 2.074736 1_555
Li6 O14 1.865831 1_555
Li6 O13 1.883316 1_655
Li6 O5 1.936970 1_545
Li6 O21 2.074736 1_555
Li7 O9 1.939599 1_555
Li7 O19 1.961680 1_555
Li7 O16 1.965824 1_555
Li7 O2 2.043483 1_555
Li8 O15 1.865831 1_555
Li8 O17 1.883316 1_555
Li8 O11 1.936970 1_566
Li8 O20 2.074736 1_556
Li9 O13 1.891708 1_555
Li9 O19 1.933913 1_555
Li9 O21 2.060055 1_555
Li9 O7 2.065155 1_555
Li10 O15 1.939599 1_555
Li10 O1 1.961680 1_555
Li10 O0 1.965824 1_455
Li10 O20 2.043483 1_556
Li11 O17 1.891708 1_554
Li11 O22 1.933913 1_555
Li11 O20 2.060055 1_655
Li11 O0 2.065155 1_554
B0 O7 1.366274 1_555
B0 O1 1.390350 1_555
B0 O2 1.407241 1_555
B1 O0 1.366274 1_555
B1 O4 1.390350 1_555
B1 O3 1.407241 1_555
B2 O10 1.372837 1_555
B2 O8 1.378795 1_565
B2 O5 1.386038 1_555
B3 O6 1.372837 1_555
B3 O9 1.378795 1_545
B3 O11 1.386038 1_555
B4 O17 1.372837 1_555
B4 O14 1.378795 1_565
B4 O12 1.386038 1_555
B5 O13 1.372837 1_555
B5 O15 1.378795 1_545
B5 O18 1.386038 1_555
B6 O23 1.366274 1_555
B6 O19 1.390350 1_555
B6 O20 1.407241 1_555
B7 O16 1.366274 1_555
B7 O22 1.390350 1_555
B7 O21 1.407241 1_555
O0 V3 2.169066 1_555
O1 V3 2.125982 1_555
O2 V3 2.172221 1_555
O3 V1 2.172221 1_655
O4 V1 2.125982 1_655
O5 V3 2.189663 1_555
O5 V0 2.242357 1_565
O6 V0 2.276474 1_555
O7 V1 2.169066 1_555
O8 V2 2.095175 1_545
O9 V0 2.095175 1_565
O10 V2 2.276474 1_555
O11 V1 2.189663 1_554
O11 V2 2.242357 1_445
O12 V2 2.189663 1_556
O12 V1 2.242357 1_665
O13 V1 2.276474 1_555
O14 V3 2.095175 1_545
O15 V1 2.095175 1_565
O16 V2 2.169066 1_555
O17 V3 2.276474 1_555
O18 V0 2.189663 1_555
O18 V3 2.242357 1_545
O19 V2 2.125982 1_455
O20 V2 2.172221 1_455
O21 V0 2.172221 1_555
O22 V0 2.125982 1_555
O23 V0 2.169066 1_555
