# generated using pymatgen
data_CaH2(SO4)2
_symmetry_space_group_name_H-M   'P 1'
_cell_length_a   6.99836900
_cell_length_b   12.80576700
_cell_length_c   14.24909800
_cell_angle_alpha   90.00000000
_cell_angle_beta   90.00000000
_cell_angle_gamma   90.00000000
_symmetry_Int_Tables_number   1
_chemical_formula_structural   CaH2(SO4)2
_chemical_formula_sum   'Ca8 H16 S16 O64'
_cell_volume   1276.99679304
_cell_formula_units_Z   8
loop_
 _symmetry_equiv_pos_site_id
 _symmetry_equiv_pos_as_xyz
  1  'x, y, z'
loop_
 _atom_site_type_symbol
 _atom_site_label
 _atom_site_symmetry_multiplicity
 _atom_site_fract_x
 _atom_site_fract_y
 _atom_site_fract_z
 _atom_site_occupancy
  Ca  Ca0  1  0.65174300  0.43659600  0.31220800  1
  Ca  Ca1  1  0.84825700  0.93659600  0.68779200  1
  Ca  Ca2  1  0.15174300  0.56340400  0.18779200  1
  Ca  Ca3  1  0.34825700  0.06340400  0.81220800  1
  Ca  Ca4  1  0.34825700  0.56340400  0.68779200  1
  Ca  Ca5  1  0.15174300  0.06340400  0.31220800  1
  Ca  Ca6  1  0.84825700  0.43659600  0.81220800  1
  Ca  Ca7  1  0.65174300  0.93659600  0.18779200  1
  H  H0  1  0.67122300  0.17232100  0.47657700  1
  H  H1  1  0.82877700  0.67232100  0.52342300  1
  H  H2  1  0.17122300  0.82767900  0.02342300  1
  H  H3  1  0.32877700  0.32767900  0.97657700  1
  H  H4  1  0.32877700  0.82767900  0.52342300  1
  H  H5  1  0.17122300  0.32767900  0.47657700  1
  H  H6  1  0.82877700  0.17232100  0.97657700  1
  H  H7  1  0.67122300  0.67232100  0.02342300  1
  H  H8  1  0.58140100  0.32244100  0.11867400  1
  H  H9  1  0.91859900  0.82244100  0.88132600  1
  H  H10  1  0.08140100  0.67755900  0.38132600  1
  H  H11  1  0.41859900  0.17755900  0.61867400  1
  H  H12  1  0.41859900  0.67755900  0.88132600  1
  H  H13  1  0.08140100  0.17755900  0.11867400  1
  H  H14  1  0.91859900  0.32244100  0.61867400  1
  H  H15  1  0.58140100  0.82244100  0.38132600  1
  S  S0  1  0.66216400  0.14001400  0.32606800  1
  S  S1  1  0.83783600  0.64001400  0.67393200  1
  S  S2  1  0.16216400  0.85998600  0.17393200  1
  S  S3  1  0.33783600  0.35998600  0.82606800  1
  S  S4  1  0.33783600  0.85998600  0.67393200  1
  S  S5  1  0.16216400  0.35998600  0.32606800  1
  S  S6  1  0.83783600  0.14001400  0.82606800  1
  S  S7  1  0.66216400  0.64001400  0.17393200  1
  S  S8  1  0.86457600  0.35644300  0.06534100  1
  S  S9  1  0.63542400  0.85644300  0.93465900  1
  S  S10  1  0.36457600  0.64355700  0.43465900  1
  S  S11  1  0.13542400  0.14355700  0.56534100  1
  S  S12  1  0.13542400  0.64355700  0.93465900  1
  S  S13  1  0.36457600  0.14355700  0.06534100  1
  S  S14  1  0.63542400  0.35644300  0.56534100  1
  S  S15  1  0.86457600  0.85644300  0.43465900  1
  O  O0  1  0.62900400  0.25018300  0.30888600  1
  O  O1  1  0.87099600  0.75018300  0.69111400  1
  O  O2  1  0.12900400  0.74981700  0.19111400  1
  O  O3  1  0.37099600  0.24981700  0.80888600  1
  O  O4  1  0.37099600  0.74981700  0.69111400  1
  O  O5  1  0.12900400  0.24981700  0.30888600  1
  O  O6  1  0.87099600  0.25018300  0.80888600  1
  O  O7  1  0.62900400  0.75018300  0.19111400  1
  O  O8  1  0.98882500  0.42399700  0.31562800  1
  O  O9  1  0.51117500  0.92399700  0.68437200  1
  O  O10  1  0.48882500  0.57600300  0.18437200  1
  O  O11  1  0.01117500  0.07600300  0.81562800  1
  O  O12  1  0.01117500  0.57600300  0.68437200  1
  O  O13  1  0.48882500  0.07600300  0.31562800  1
  O  O14  1  0.51117500  0.42399700  0.81562800  1
  O  O15  1  0.98882500  0.92399700  0.18437200  1
  O  O16  1  0.81503500  0.09257400  0.26811300  1
  O  O17  1  0.68496500  0.59257400  0.73188700  1
  O  O18  1  0.31503500  0.90742600  0.23188700  1
  O  O19  1  0.18496500  0.40742600  0.76811300  1
  O  O20  1  0.18496500  0.90742600  0.73188700  1
  O  O21  1  0.31503500  0.40742600  0.26811300  1
  O  O22  1  0.68496500  0.09257400  0.76811300  1
  O  O23  1  0.81503500  0.59257400  0.23188700  1
  O  O24  1  0.73979900  0.12672300  0.42860300  1
  O  O25  1  0.76020100  0.62672300  0.57139700  1
  O  O26  1  0.23979900  0.87327700  0.07139700  1
  O  O27  1  0.26020100  0.37327700  0.92860300  1
  O  O28  1  0.26020100  0.87327700  0.57139700  1
  O  O29  1  0.23979900  0.37327700  0.42860300  1
  O  O30  1  0.76020100  0.12672300  0.92860300  1
  O  O31  1  0.73979900  0.62672300  0.07139700  1
  O  O32  1  0.69300700  0.36743000  0.13946800  1
  O  O33  1  0.80699300  0.86743000  0.86053200  1
  O  O34  1  0.19300700  0.63257000  0.36053200  1
  O  O35  1  0.30699300  0.13257000  0.63946800  1
  O  O36  1  0.30699300  0.63257000  0.86053200  1
  O  O37  1  0.19300700  0.13257000  0.13946800  1
  O  O38  1  0.80699300  0.36743000  0.63946800  1
  O  O39  1  0.69300700  0.86743000  0.36053200  1
  O  O40  1  0.51557900  0.08121100  0.10637600  1
  O  O41  1  0.98442100  0.58121100  0.89362400  1
  O  O42  1  0.01557900  0.91878900  0.39362400  1
  O  O43  1  0.48442100  0.41878900  0.60637600  1
  O  O44  1  0.48442100  0.91878900  0.89362400  1
  O  O45  1  0.01557900  0.41878900  0.10637600  1
  O  O46  1  0.98442100  0.08121100  0.60637600  1
  O  O47  1  0.51557900  0.58121100  0.39362400  1
  O  O48  1  0.70867200  0.39192600  0.47523900  1
  O  O49  1  0.79132800  0.89192600  0.52476100  1
  O  O50  1  0.20867200  0.60807400  0.02476100  1
  O  O51  1  0.29132800  0.10807400  0.97523900  1
  O  O52  1  0.29132800  0.60807400  0.52476100  1
  O  O53  1  0.20867200  0.10807400  0.47523900  1
  O  O54  1  0.79132800  0.39192600  0.97523900  1
  O  O55  1  0.70867200  0.89192600  0.02476100  1
  O  O56  1  0.91424600  0.24356900  0.06160000  1
  O  O57  1  0.58575400  0.74356900  0.93840000  1
  O  O58  1  0.41424600  0.75643100  0.43840000  1
  O  O59  1  0.08575400  0.25643100  0.56160000  1
  O  O60  1  0.08575400  0.75643100  0.93840000  1
  O  O61  1  0.41424600  0.25643100  0.06160000  1
  O  O62  1  0.58575400  0.24356900  0.56160000  1
  O  O63  1  0.91424600  0.74356900  0.43840000  1
loop_
_geom_bond_atom_site_label_1
_geom_bond_atom_site_label_2
_geom_bond_distance
_geom_bond_site_symmetry_2
Ca0 O8 2.365037 1_555
Ca0 O47 2.384002 1_555
Ca0 O0 2.392928 1_555
Ca0 O48 2.425384 1_555
Ca0 O21 2.467178 1_555
Ca0 O23 2.570117 1_555
Ca0 O32 2.631794 1_555
Ca0 O10 2.793741 1_555
Ca1 O9 2.365037 1_555
Ca1 O46 2.384002 1_565
Ca1 O1 2.392928 1_555
Ca1 O49 2.425384 1_555
Ca1 O20 2.467178 1_655
Ca1 O22 2.570117 1_565
Ca1 O33 2.631794 1_555
Ca1 O11 2.793741 1_665
Ca2 O10 2.365037 1_555
Ca2 O45 2.384002 1_555
Ca2 O2 2.392928 1_555
Ca2 O50 2.425384 1_555
Ca2 O23 2.467178 1_455
Ca2 O21 2.570117 1_555
Ca2 O34 2.631794 1_555
Ca2 O8 2.793741 1_455
Ca3 O11 2.365037 1_555
Ca3 O44 2.384002 1_545
Ca3 O3 2.392928 1_555
Ca3 O51 2.425384 1_555
Ca3 O22 2.467178 1_555
Ca3 O20 2.570117 1_545
Ca3 O35 2.631794 1_555
Ca3 O9 2.793741 1_545
Ca4 O12 2.365037 1_555
Ca4 O43 2.384002 1_555
Ca4 O4 2.392928 1_555
Ca4 O52 2.425384 1_555
Ca4 O17 2.467178 1_555
Ca4 O19 2.570117 1_555
Ca4 O36 2.631794 1_555
Ca4 O14 2.793741 1_555
Ca5 O13 2.365037 1_555
Ca5 O42 2.384002 1_545
Ca5 O5 2.392928 1_555
Ca5 O53 2.425384 1_555
Ca5 O16 2.467178 1_455
Ca5 O18 2.570117 1_545
Ca5 O37 2.631794 1_555
Ca5 O15 2.793741 1_445
Ca6 O14 2.365037 1_555
Ca6 O41 2.384002 1_555
Ca6 O6 2.392928 1_555
Ca6 O54 2.425384 1_555
Ca6 O19 2.467178 1_655
Ca6 O17 2.570117 1_555
Ca6 O38 2.631794 1_555
Ca6 O12 2.793741 1_655
Ca7 O15 2.365037 1_555
Ca7 O40 2.384002 1_565
Ca7 O7 2.392928 1_555
Ca7 O55 2.425384 1_555
Ca7 O18 2.467178 1_555
Ca7 O16 2.570117 1_565
Ca7 O39 2.631794 1_555
Ca7 O13 2.793741 1_565
H0 O24 1.019104 1_555
H0 O62 1.630324 1_555
H1 O25 1.019104 1_555
H1 O63 1.630324 1_555
H2 O26 1.019104 1_555
H2 O60 1.630324 1_554
H3 O27 1.019104 1_555
H3 O61 1.630324 1_556
H4 O28 1.019104 1_555
H4 O58 1.630324 1_555
H5 O29 1.019104 1_555
H5 O59 1.630324 1_555
H6 O30 1.019104 1_555
H6 O56 1.630324 1_556
H7 O31 1.019104 1_555
H7 O57 1.630324 1_554
H8 O32 1.014770 1_555
H8 O61 1.656620 1_555
H9 O33 1.014770 1_555
H9 O60 1.656620 1_655
H10 O34 1.014770 1_555
H10 O63 1.656620 1_455
H11 O35 1.014770 1_555
H11 O62 1.656620 1_555
H12 O36 1.014770 1_555
H12 O57 1.656620 1_555
H13 O37 1.014770 1_555
H13 O56 1.656620 1_455
H14 O38 1.014770 1_555
H14 O59 1.656620 1_655
H15 O39 1.014770 1_555
H15 O58 1.656620 1_555
O0 S0 1.450568 1_555
O1 S1 1.450568 1_555
O2 S2 1.450568 1_555
O3 S3 1.450568 1_555
O4 S4 1.450568 1_555
O5 S5 1.450568 1_555
O6 S6 1.450568 1_555
O7 S7 1.450568 1_555
O8 S5 1.471612 1_655
O9 S4 1.471612 1_555
O10 S7 1.471612 1_555
O11 S6 1.471612 1_455
O12 S1 1.471612 1_455
O13 S0 1.471612 1_555
O14 S3 1.471612 1_555
O15 S2 1.471612 1_655
O16 S0 1.481753 1_555
O17 S1 1.481753 1_555
O18 S2 1.481753 1_555
O19 S3 1.481753 1_555
O20 S4 1.481753 1_555
O21 S5 1.481753 1_555
O22 S6 1.481753 1_555
O23 S7 1.481753 1_555
O24 S0 1.568048 1_555
O25 S1 1.568048 1_555
O26 S2 1.568048 1_555
O27 S3 1.568048 1_555
O28 S4 1.568048 1_555
O29 S5 1.568048 1_555
O30 S6 1.568048 1_555
O31 S7 1.568048 1_555
O32 S8 1.605345 1_555
O33 S9 1.605345 1_555
O34 S10 1.605345 1_555
O35 S11 1.605345 1_555
O36 S12 1.605345 1_555
O37 S13 1.605345 1_555
O38 S14 1.605345 1_555
O39 S15 1.605345 1_555
O40 S13 1.447786 1_555
O41 S12 1.447786 1_655
O42 S15 1.447786 1_455
O43 S14 1.447786 1_555
O44 S9 1.447786 1_555
O45 S8 1.447786 1_455
O46 S11 1.447786 1_655
O47 S10 1.447786 1_555
O48 S14 1.455188 1_555
O49 S15 1.455188 1_555
O50 S12 1.455188 1_554
O51 S13 1.455188 1_556
O52 S10 1.455188 1_555
O53 S11 1.455188 1_555
O54 S8 1.455188 1_556
O55 S9 1.455188 1_554
O56 S8 1.487604 1_555
O57 S9 1.487604 1_555
O58 S10 1.487604 1_555
O59 S11 1.487604 1_555
O60 S12 1.487604 1_555
O61 S13 1.487604 1_555
O62 S14 1.487604 1_555
O63 S15 1.487604 1_555
