# generated using pymatgen
data_LiNi9O10
_symmetry_space_group_name_H-M   'P 1'
_cell_length_a   5.92045739
_cell_length_b   5.13022835
_cell_length_c   6.64479678
_cell_angle_alpha   97.57266902
_cell_angle_beta   77.12847249
_cell_angle_gamma   73.21164061
_symmetry_Int_Tables_number   1
_chemical_formula_structural   LiNi9O10
_chemical_formula_sum   'Li1 Ni9 O10'
_cell_volume   184.16106676
_cell_formula_units_Z   1
loop_
 _symmetry_equiv_pos_site_id
 _symmetry_equiv_pos_as_xyz
  1  'x, y, z'
loop_
 _atom_site_type_symbol
 _atom_site_label
 _atom_site_symmetry_multiplicity
 _atom_site_fract_x
 _atom_site_fract_y
 _atom_site_fract_z
 _atom_site_occupancy
  Li  Li0  1  0.10000000  0.20000000  0.40000000  1
  Ni  Ni0  1  0.70330400  0.39917700  0.79649200  1
  Ni  Ni1  1  0.19881100  0.39978000  0.79706700  1
  Ni  Ni2  1  0.90280900  0.79852600  0.59704000  1
  Ni  Ni3  1  0.39778900  0.80356300  0.59937000  1
  Ni  Ni4  1  0.60000000  0.20000000  0.40000000  1
  Ni  Ni5  1  0.80221100  0.59643700  0.20063000  1
  Ni  Ni6  1  0.00118900  0.00022000  0.00293300  1
  Ni  Ni7  1  0.29719100  0.60147400  0.20296000  1
  Ni  Ni8  1  0.49669600  0.00082300  0.00350800  1
  O  O0  1  0.35067100  0.69897500  0.90197000  1
  O  O1  1  0.84932900  0.70102500  0.89803000  1
  O  O2  1  0.54901000  0.09682900  0.69923500  1
  O  O3  1  0.05191800  0.09340100  0.70702700  1
  O  O4  1  0.73839700  0.50763800  0.50423500  1
  O  O5  1  0.25524300  0.50702500  0.50354500  1
  O  O6  1  0.94475700  0.89297500  0.29645500  1
  O  O7  1  0.46160300  0.89236200  0.29576500  1
  O  O8  1  0.65099000  0.30317100  0.10076500  1
  O  O9  1  0.14808200  0.30659900  0.09297300  1
loop_
_geom_bond_atom_site_label_1
_geom_bond_atom_site_label_2
_geom_bond_distance
_geom_bond_site_symmetry_2
Li0 O5 2.152099 1_555
Li0 O6 2.152099 1_445
Li0 O7 2.157143 1_545
Li0 O4 2.157143 1_455
Li0 O3 2.160439 1_555
Li0 O9 2.160439 1_555
Ni0 O4 2.072661 1_555
Ni0 O1 2.087708 1_555
Ni0 O3 2.100317 1_655
Ni0 O0 2.103448 1_555
Ni0 O2 2.115515 1_555
Ni0 O8 2.120829 1_556
Ni1 O9 2.062130 1_556
Ni1 O5 2.077756 1_555
Ni1 O3 2.087688 1_555
Ni1 O1 2.093016 1_455
Ni1 O2 2.099666 1_555
Ni1 O0 2.108246 1_555
Ni2 O5 2.085946 1_655
Ni2 O3 2.090325 1_665
Ni2 O6 2.095082 1_555
Ni2 O4 2.102101 1_555
Ni2 O1 2.103225 1_555
Ni2 O2 2.105064 1_565
Ni3 O5 2.039072 1_555
Ni3 O4 2.044873 1_555
Ni3 O3 2.055223 1_565
Ni3 O2 2.070063 1_565
Ni3 O7 2.102909 1_555
Ni3 O0 2.128288 1_555
Ni4 O6 2.086142 1_545
Ni4 O5 2.086142 1_555
Ni4 O4 2.086564 1_555
Ni4 O7 2.086564 1_545
Ni4 O8 2.104067 1_555
Ni4 O2 2.104067 1_555
Ni5 O6 2.039072 1_555
Ni5 O7 2.044873 1_555
Ni5 O9 2.055223 1_655
Ni5 O8 2.070063 1_555
Ni5 O4 2.102909 1_555
Ni5 O1 2.128288 1_554
Ni6 O3 2.062130 1_554
Ni6 O6 2.077756 1_445
Ni6 O9 2.087688 1_555
Ni6 O0 2.093016 1_544
Ni6 O8 2.099666 1_455
Ni6 O1 2.108246 1_444
Ni7 O6 2.085946 1_455
Ni7 O9 2.090325 1_555
Ni7 O5 2.095082 1_555
Ni7 O7 2.102101 1_555
Ni7 O0 2.103225 1_554
Ni7 O8 2.105064 1_555
Ni8 O7 2.072661 1_545
Ni8 O0 2.087708 1_544
Ni8 O9 2.100317 1_555
Ni8 O1 2.103448 1_544
Ni8 O8 2.115515 1_555
Ni8 O2 2.120829 1_554
