# generated using pymatgen
data_Co3(O2F)2
_symmetry_space_group_name_H-M   'P 1'
_cell_length_a   4.61867300
_cell_length_b   5.49562884
_cell_length_c   7.44831559
_cell_angle_alpha   84.55207960
_cell_angle_beta   86.23893101
_cell_angle_gamma   83.78229101
_symmetry_Int_Tables_number   1
_chemical_formula_structural   Co3(O2F)2
_chemical_formula_sum   'Co6 O8 F4'
_cell_volume   186.80340432
_cell_formula_units_Z   2
loop_
 _symmetry_equiv_pos_site_id
 _symmetry_equiv_pos_as_xyz
  1  'x, y, z'
loop_
 _atom_site_type_symbol
 _atom_site_label
 _atom_site_symmetry_multiplicity
 _atom_site_fract_x
 _atom_site_fract_y
 _atom_site_fract_z
 _atom_site_occupancy
  Co  Co0  1  0.52842100  0.51633200  0.00981300  1
  Co  Co1  1  0.54532500  0.20148900  0.34882800  1
  Co  Co2  1  0.49382900  0.82730500  0.66257900  1
  Co  Co3  1  0.99299400  0.32932600  0.66045600  1
  Co  Co4  1  0.98228800  0.66251800  0.32773300  1
  Co  Co5  1  0.98653200  0.98023400  0.00076300  1
  O  O0  1  0.81740800  0.38916500  0.43210200  1
  O  O1  1  0.80570500  0.69532300  0.11433900  1
  O  O2  1  0.68773200  0.52942400  0.76894500  1
  O  O3  1  0.69555700  0.20748000  0.10248200  1
  O  O4  1  0.69964800  0.87800100  0.43319400  1
  O  O5  1  0.31254600  0.13621600  0.56183700  1
  O  O6  1  0.30578800  0.46664600  0.23251000  1
  O  O7  1  0.30295800  0.78809400  0.90031200  1
  F  F0  1  0.79693800  0.02329000  0.76697700  1
  F  F1  1  0.17959100  0.94427200  0.23603000  1
  F  F2  1  0.17884600  0.28348300  0.89126200  1
  F  F3  1  0.18789400  0.64140200  0.54983900  1
loop_
_geom_bond_atom_site_label_1
_geom_bond_atom_site_label_2
_geom_bond_distance
_geom_bond_site_symmetry_2
Co0 O3 1.875338 1_555
Co0 O7 1.877067 1_554
Co0 O2 1.891828 1_554
Co0 O6 1.906383 1_555
Co0 O1 1.939843 1_555
Co0 F2 2.423466 1_554
Co1 O0 1.879409 1_555
Co1 O5 1.885058 1_555
Co1 O6 1.906528 1_555
Co1 O4 1.906707 1_545
Co1 O3 1.917215 1_555
Co2 O2 1.907580 1_555
Co2 O4 1.911615 1_555
Co2 O5 1.918014 1_565
Co2 O7 1.929488 1_555
Co2 F0 2.086398 1_565
Co2 F3 2.092078 1_555
Co3 O5 1.873670 1_655
Co3 O2 1.879754 1_555
Co3 O0 1.917213 1_555
Co3 F2 1.954527 1_655
Co3 F0 2.064066 1_555
Co3 F3 2.097467 1_655
Co4 O1 1.818722 1_555
Co4 O0 1.841025 1_555
Co4 O4 1.852229 1_555
Co4 O6 1.884613 1_655
Co4 F1 1.928139 1_655
Co4 F3 1.948793 1_655
Co5 O7 1.866266 1_654
Co5 O3 1.903235 1_565
Co5 O1 1.950344 1_555
Co5 F0 1.982898 1_564
Co5 F1 2.001477 1_655
Co5 F2 2.049157 1_664
