# generated using pymatgen
data_Li3CuF6
_symmetry_space_group_name_H-M   'P 1'
_cell_length_a   5.81915162
_cell_length_b   5.81915190
_cell_length_c   5.81915203
_cell_angle_alpha   91.11994296
_cell_angle_beta   91.11995122
_cell_angle_gamma   91.11994570
_symmetry_Int_Tables_number   1
_chemical_formula_structural   Li3CuF6
_chemical_formula_sum   'Li6 Cu2 F12'
_cell_volume   196.93677124
_cell_formula_units_Z   2
loop_
 _symmetry_equiv_pos_site_id
 _symmetry_equiv_pos_as_xyz
  1  'x, y, z'
loop_
 _atom_site_type_symbol
 _atom_site_label
 _atom_site_symmetry_multiplicity
 _atom_site_fract_x
 _atom_site_fract_y
 _atom_site_fract_z
 _atom_site_occupancy
  Li  Li0  1  0.24904672  0.06641145  0.55624488  1
  Li  Li1  1  0.55624488  0.24904672  0.06641145  1
  Li  Li2  1  0.93358855  0.44375512  0.75095328  1
  Li  Li3  1  0.06641145  0.55624488  0.24904672  1
  Li  Li4  1  0.44375512  0.75095328  0.93358855  1
  Li  Li5  1  0.75095328  0.93358855  0.44375512  1
  Cu  Cu0  1  0.00000000  0.00000000  0.00000000  1
  Cu  Cu1  1  0.50000000  0.50000000  0.50000000  1
  F  F0  1  0.91876483  0.07535754  0.69587150  1
  F  F1  1  0.30412850  0.08123517  0.92464246  1
  F  F2  1  0.54859634  0.19496480  0.40207933  1
  F  F3  1  0.92464246  0.30412850  0.08123517  1
  F  F4  1  0.19496480  0.40207933  0.54859634  1
  F  F5  1  0.59792067  0.45140366  0.80503520  1
  F  F6  1  0.40207933  0.54859634  0.19496480  1
  F  F7  1  0.80503520  0.59792067  0.45140366  1
  F  F8  1  0.07535754  0.69587150  0.91876483  1
  F  F9  1  0.45140366  0.80503520  0.59792067  1
  F  F10  1  0.69587150  0.91876483  0.07535754  1
  F  F11  1  0.08123517  0.92464246  0.30412850  1
loop_
_geom_bond_atom_site_label_1
_geom_bond_atom_site_label_2
_geom_bond_distance
_geom_bond_site_symmetry_2
Cu0 F1 1.885095 1_554
Cu0 F10 1.885095 1_445
Cu0 F11 1.885095 1_545
Cu0 F0 1.885095 1_454
Cu0 F3 1.885095 1_455
Cu0 F8 1.885095 1_544
Cu1 F7 1.881975 1_555
Cu1 F4 1.881975 1_555
Cu1 F5 1.881975 1_555
Cu1 F6 1.881975 1_555
Cu1 F9 1.881975 1_555
Cu1 F2 1.881975 1_555
F0 Li5 1.910958 1_545
F0 Li0 2.102407 1_655
F0 Li2 2.161185 1_555
F1 Li1 1.910958 1_556
F1 Li4 2.102407 1_545
F1 Li0 2.161186 1_555
F2 Li5 1.957576 1_545
F2 Li1 1.985773 1_555
F2 Li0 2.106964 1_555
F3 Li3 1.910958 1_655
F3 Li2 2.102407 1_554
F3 Li1 2.161185 1_555
F4 Li2 1.957576 1_455
F4 Li0 1.985773 1_555
F4 Li3 2.106964 1_555
F5 Li1 1.957576 1_556
F5 Li2 1.985773 1_555
F5 Li4 2.106964 1_555
F6 Li4 1.957576 1_554
F6 Li3 1.985773 1_555
F6 Li1 2.106964 1_555
F7 Li3 1.957576 1_655
F7 Li5 1.985773 1_555
F7 Li2 2.106964 1_555
F8 Li2 1.910958 1_455
F8 Li3 2.102407 1_556
F8 Li4 2.161185 1_555
F9 Li0 1.957576 1_565
F9 Li4 1.985773 1_555
F9 Li5 2.106964 1_555
F10 Li4 1.910958 1_554
F10 Li1 2.102407 1_565
F10 Li5 2.161186 1_555
F11 Li0 1.910958 1_565
F11 Li5 2.102407 1_455
F11 Li3 2.161185 1_555
