# generated using pymatgen
data_S5N3
_symmetry_space_group_name_H-M   'P 1'
_cell_length_a   7.24790500
_cell_length_b   8.27680700
_cell_length_c   13.87375100
_cell_angle_alpha   90.00000000
_cell_angle_beta   90.00000000
_cell_angle_gamma   90.00000000
_symmetry_Int_Tables_number   1
_chemical_formula_structural   S5N3
_chemical_formula_sum   'S20 N12'
_cell_volume   832.27953600
_cell_formula_units_Z   4
loop_
 _symmetry_equiv_pos_site_id
 _symmetry_equiv_pos_as_xyz
  1  'x, y, z'
loop_
 _atom_site_type_symbol
 _atom_site_label
 _atom_site_symmetry_multiplicity
 _atom_site_fract_x
 _atom_site_fract_y
 _atom_site_fract_z
 _atom_site_occupancy
  S  S0  1  0.84885100  0.55181800  0.12772600  1
  S  S1  1  0.65114900  0.05181800  0.37227400  1
  S  S2  1  0.15114900  0.44818200  0.62772600  1
  S  S3  1  0.34885100  0.94818200  0.87227400  1
  S  S4  1  0.15114900  0.44818200  0.87227400  1
  S  S5  1  0.34885100  0.94818200  0.62772600  1
  S  S6  1  0.84885100  0.55181800  0.37227400  1
  S  S7  1  0.65114900  0.05181800  0.12772600  1
  S  S8  1  0.73922100  0.66384000  0.25000000  1
  S  S9  1  0.76077900  0.16384000  0.25000000  1
  S  S10  1  0.26077900  0.33616000  0.75000000  1
  S  S11  1  0.23922100  0.83616000  0.75000000  1
  S  S12  1  0.20930500  0.73082700  0.13855700  1
  S  S13  1  0.29069500  0.23082700  0.36144300  1
  S  S14  1  0.79069500  0.26917300  0.63855700  1
  S  S15  1  0.70930500  0.76917300  0.86144300  1
  S  S16  1  0.79069500  0.26917300  0.86144300  1
  S  S17  1  0.70930500  0.76917300  0.63855700  1
  S  S18  1  0.20930500  0.73082700  0.36144300  1
  S  S19  1  0.29069500  0.23082700  0.13855700  1
  N  N0  1  0.23647400  0.76626500  0.25000000  1
  N  N1  1  0.26352600  0.26626500  0.25000000  1
  N  N2  1  0.76352600  0.23373500  0.75000000  1
  N  N3  1  0.73647400  0.73373500  0.75000000  1
  N  N4  1  0.03863800  0.63750100  0.09382500  1
  N  N5  1  0.46136200  0.13750100  0.40617500  1
  N  N6  1  0.96136200  0.36249900  0.59382500  1
  N  N7  1  0.53863800  0.86249900  0.90617500  1
  N  N8  1  0.96136200  0.36249900  0.90617500  1
  N  N9  1  0.53863800  0.86249900  0.59382500  1
  N  N10  1  0.03863800  0.63750100  0.40617500  1
  N  N11  1  0.46136200  0.13750100  0.09382500  1
loop_
_geom_bond_atom_site_label_1
_geom_bond_atom_site_label_2
_geom_bond_distance
_geom_bond_site_symmetry_2
S0 S8 2.090170 1_555
S1 S9 2.090170 1_555
S6 S8 2.090170 1_555
S7 S9 2.090170 1_555
S10 S4 2.090170 1_555
S10 S2 2.090170 1_555
S11 S3 2.090170 1_555
S11 S5 2.090170 1_555
N0 S12 1.585981 1_555
N0 S18 1.585981 1_555
N1 S19 1.585981 1_555
N1 S13 1.585981 1_555
N2 S14 1.585981 1_555
N2 S16 1.585981 1_555
N3 S15 1.585981 1_555
N3 S17 1.585981 1_555
N4 S12 1.584906 1_555
N4 S0 1.617502 1_455
N5 S13 1.584906 1_555
N5 S1 1.617502 1_555
N6 S14 1.584906 1_555
N6 S2 1.617502 1_655
N7 S15 1.584906 1_555
N7 S3 1.617502 1_555
N8 S16 1.584906 1_555
N8 S4 1.617502 1_655
N9 S17 1.584906 1_555
N9 S5 1.617502 1_555
N10 S18 1.584906 1_555
N10 S6 1.617502 1_455
N11 S19 1.584906 1_555
N11 S7 1.617502 1_555
