# generated using pymatgen
data_Li2MnV4FeO12
_symmetry_space_group_name_H-M   'P 1'
_cell_length_a   6.99287548
_cell_length_b   6.99287548
_cell_length_c   5.82796424
_cell_angle_alpha   74.53045529
_cell_angle_beta   74.53045529
_cell_angle_gamma   83.17459747
_symmetry_Int_Tables_number   1
_chemical_formula_structural   Li2MnV4FeO12
_chemical_formula_sum   'Li2 Mn1 V4 Fe1 O12'
_cell_volume   264.36500358
_cell_formula_units_Z   1
loop_
 _symmetry_equiv_pos_site_id
 _symmetry_equiv_pos_as_xyz
  1  'x, y, z'
loop_
 _atom_site_type_symbol
 _atom_site_label
 _atom_site_symmetry_multiplicity
 _atom_site_fract_x
 _atom_site_fract_y
 _atom_site_fract_z
 _atom_site_occupancy
  Li  Li0  1  0.75663100  0.24336900  0.00000000  1
  Li  Li1  1  0.24541100  0.75458900  0.50000000  1
  Mn  Mn0  1  0.08801700  0.91198300  0.00000000  1
  V  V0  1  0.80963200  0.60539500  0.51885900  1
  V  V1  1  0.60963700  0.79469900  0.02242800  1
  V  V2  1  0.39460500  0.19036800  0.48114100  1
  V  V3  1  0.20530100  0.39036300  0.97757200  1
  Fe  Fe0  1  0.91488200  0.08511800  0.50000000  1
  O  O0  1  0.98131500  0.79994600  0.40164500  1
  O  O1  1  0.89111300  0.35856300  0.59177300  1
  O  O2  1  0.78717400  0.97595400  0.90754200  1
  O  O3  1  0.63469600  0.64915800  0.31071700  1
  O  O4  1  0.64143700  0.10888700  0.40822700  1
  O  O5  1  0.63847100  0.64422000  0.81528100  1
  O  O6  1  0.35084200  0.36530400  0.68928300  1
  O  O7  1  0.37307000  0.90211400  0.07506300  1
  O  O8  1  0.35578000  0.36152900  0.18471900  1
  O  O9  1  0.20005400  0.01868500  0.59835500  1
  O  O10  1  0.09788600  0.62693000  0.92493700  1
  O  O11  1  0.02404600  0.21282600  0.09245800  1
loop_
_geom_bond_atom_site_label_1
_geom_bond_atom_site_label_2
_geom_bond_distance
_geom_bond_site_symmetry_2
Li0 O11 2.052819 1_655
Li0 O2 2.052819 1_544
Li0 O1 2.271061 1_554
Li0 O4 2.271061 1_555
Li1 O9 2.041642 1_565
Li1 O0 2.041642 1_455
Li1 O10 2.381379 1_555
Li1 O7 2.381379 1_555
Mn0 O7 2.141476 1_555
Mn0 O10 2.141476 1_554
Mn0 O9 2.208779 1_564
Mn0 O0 2.208779 1_455
Mn0 O11 2.273478 1_565
Mn0 O2 2.273478 1_454
Fe0 O1 2.095872 1_555
Fe0 O4 2.095872 1_555
Fe0 O9 2.183720 1_655
Fe0 O0 2.183720 1_545
Fe0 O11 2.254967 1_655
Fe0 O2 2.254967 1_545
O0 V0 1.792715 1_555
O1 V0 1.728773 1_555
O2 V1 1.753290 1_556
O3 V1 1.758372 1_555
O3 V0 1.888437 1_555
O4 V2 1.728773 1_555
O5 V1 1.761472 1_556
O5 V0 1.886962 1_555
O6 V3 1.758372 1_555
O6 V2 1.888437 1_555
O7 V1 1.718087 1_555
O8 V3 1.761472 1_554
O8 V2 1.886962 1_555
O9 V2 1.792715 1_555
O10 V3 1.718087 1_555
O11 V3 1.753290 1_554
