# generated using pymatgen
data_NaCo2P3O10
_symmetry_space_group_name_H-M   'P 1'
_cell_length_a   8.63821800
_cell_length_b   4.73018800
_cell_length_c   9.11612046
_cell_angle_alpha   82.34067248
_cell_angle_beta   90.00000000
_cell_angle_gamma   90.00000000
_symmetry_Int_Tables_number   1
_chemical_formula_structural   NaCo2P3O10
_chemical_formula_sum   'Na2 Co4 P6 O20'
_cell_volume   369.16496669
_cell_formula_units_Z   2
loop_
 _symmetry_equiv_pos_site_id
 _symmetry_equiv_pos_as_xyz
  1  'x, y, z'
loop_
 _atom_site_type_symbol
 _atom_site_label
 _atom_site_symmetry_multiplicity
 _atom_site_fract_x
 _atom_site_fract_y
 _atom_site_fract_z
 _atom_site_occupancy
  Na  Na0  1  0.00000000  0.00000000  0.00000000  1
  Na  Na1  1  0.50000000  0.00000000  0.00000000  1
  Co  Co0  1  0.92924500  0.95455400  0.34130000  1
  Co  Co1  1  0.57075500  0.95455400  0.34130000  1
  Co  Co2  1  0.42924500  0.04544600  0.65870000  1
  Co  Co3  1  0.07075500  0.04544600  0.65870000  1
  P  P0  1  0.75000000  0.66591000  0.81707900  1
  P  P1  1  0.25000000  0.61005100  0.46033000  1
  P  P2  1  0.25000000  0.47311700  0.84902300  1
  P  P3  1  0.75000000  0.52688300  0.15097700  1
  P  P4  1  0.75000000  0.38994900  0.53967000  1
  P  P5  1  0.25000000  0.33409000  0.18292100  1
  O  O0  1  0.89906900  0.83351100  0.80076600  1
  O  O1  1  0.60093100  0.83351100  0.80076600  1
  O  O2  1  0.25000000  0.78036200  0.76591000  1
  O  O3  1  0.39918600  0.77633600  0.48480000  1
  O  O4  1  0.10081400  0.77633600  0.48480000  1
  O  O5  1  0.75000000  0.69094700  0.45297500  1
  O  O6  1  0.89805500  0.68949400  0.17379700  1
  O  O7  1  0.60194500  0.68949400  0.17379700  1
  O  O8  1  0.75000000  0.46305100  0.97578800  1
  O  O9  1  0.25000000  0.58005000  0.28614900  1
  O  O10  1  0.75000000  0.41995000  0.71385100  1
  O  O11  1  0.25000000  0.53694900  0.02421200  1
  O  O12  1  0.39805500  0.31050600  0.82620300  1
  O  O13  1  0.10194500  0.31050600  0.82620300  1
  O  O14  1  0.25000000  0.30905300  0.54702500  1
  O  O15  1  0.89918600  0.22366400  0.51520000  1
  O  O16  1  0.60081400  0.22366400  0.51520000  1
  O  O17  1  0.75000000  0.21963800  0.23409000  1
  O  O18  1  0.39906900  0.16648900  0.19923400  1
  O  O19  1  0.10093100  0.16648900  0.19923400  1
loop_
_geom_bond_atom_site_label_1
_geom_bond_atom_site_label_2
_geom_bond_distance
_geom_bond_site_symmetry_2
Na0 O13 2.196043 1_554
Na0 O6 2.196043 1_445
Na0 O0 2.249522 1_444
Na0 O19 2.249522 1_555
Na1 O12 2.196043 1_554
Na1 O7 2.196043 1_545
Na1 O18 2.249522 1_555
Na1 O1 2.249522 1_544
Co0 O4 2.079533 1_655
Co0 O6 2.118151 1_555
Co0 O19 2.129703 1_665
Co0 O17 2.144339 1_565
Co0 O5 2.156439 1_555
Co0 O15 2.176897 1_565
Co1 O3 2.079533 1_555
Co1 O7 2.118151 1_555
Co1 O18 2.129703 1_565
Co1 O17 2.144339 1_565
Co1 O5 2.156439 1_555
Co1 O16 2.176897 1_565
Co2 O16 2.079533 1_555
Co2 O12 2.118151 1_555
Co2 O1 2.129703 1_545
Co2 O2 2.144339 1_545
Co2 O14 2.156439 1_555
Co2 O3 2.176897 1_545
Co3 O15 2.079533 1_455
Co3 O13 2.118151 1_555
Co3 O0 2.129703 1_445
Co3 O2 2.144339 1_545
Co3 O14 2.156439 1_555
Co3 O4 2.176897 1_545
O0 P0 1.509086 1_555
O1 P0 1.509086 1_555
O2 P2 1.546833 1_555
O3 P1 1.541414 1_555
O4 P1 1.541414 1_555
O5 P4 1.533558 1_555
O6 P3 1.520932 1_555
O7 P3 1.520932 1_555
O8 P0 1.626021 1_555
O8 P3 1.664408 1_556
O9 P5 1.590907 1_555
O9 P1 1.612913 1_555
O10 P0 1.590907 1_555
O10 P4 1.612913 1_555
O11 P5 1.626021 1_555
O11 P2 1.664408 1_554
O12 P2 1.520932 1_555
O13 P2 1.520932 1_555
O14 P1 1.533558 1_555
O15 P4 1.541414 1_555
O16 P4 1.541414 1_555
O17 P3 1.546833 1_555
O18 P5 1.509086 1_555
O19 P5 1.509086 1_555
