# generated using pymatgen
data_Li14Mn2O9
_symmetry_space_group_name_H-M   'P 1'
_cell_length_a   5.91665600
_cell_length_b   10.05730122
_cell_length_c   10.05726502
_cell_angle_alpha   72.07194261
_cell_angle_beta   107.10602419
_cell_angle_gamma   72.89378300
_symmetry_Int_Tables_number   1
_chemical_formula_structural   Li14Mn2O9
_chemical_formula_sum   'Li28 Mn4 O18'
_cell_volume   493.12094834
_cell_formula_units_Z   2
loop_
 _symmetry_equiv_pos_site_id
 _symmetry_equiv_pos_as_xyz
  1  'x, y, z'
loop_
 _atom_site_type_symbol
 _atom_site_label
 _atom_site_symmetry_multiplicity
 _atom_site_fract_x
 _atom_site_fract_y
 _atom_site_fract_z
 _atom_site_occupancy
  Li  Li0  1  0.99999100  0.13015600  0.13015000  1
  Li  Li1  1  0.99999100  0.63015600  0.63015000  1
  Li  Li2  1  0.99999500  0.36984700  0.36984800  1
  Li  Li3  1  0.99999500  0.86984700  0.86984800  1
  Li  Li4  1  0.35939100  0.80503500  0.09942900  1
  Li  Li5  1  0.35939100  0.30503500  0.59942900  1
  Li  Li6  1  0.93499700  0.63193400  0.27253700  1
  Li  Li7  1  0.93499700  0.13193400  0.77253700  1
  Li  Li8  1  0.70559800  0.91972500  0.98474000  1
  Li  Li9  1  0.70559800  0.41972500  0.48474000  1
  Li  Li10  1  0.29438600  0.08026500  0.01526300  1
  Li  Li11  1  0.29438600  0.58026500  0.51526300  1
  Li  Li12  1  0.06501200  0.36806800  0.72747200  1
  Li  Li13  1  0.06501200  0.86806800  0.22747200  1
  Li  Li14  1  0.64058800  0.19496800  0.90056300  1
  Li  Li15  1  0.64058800  0.69496800  0.40056300  1
  Li  Li16  1  0.37318600  0.76159300  0.82363800  1
  Li  Li17  1  0.37318600  0.26159300  0.32363800  1
  Li  Li18  1  0.68883500  0.47921900  0.10601700  1
  Li  Li19  1  0.68883500  0.97921900  0.60601700  1
  Li  Li20  1  0.06203300  0.36296100  0.05180500  1
  Li  Li21  1  0.06203300  0.86296100  0.55180500  1
  Li  Li22  1  0.93794700  0.63704000  0.94819400  1
  Li  Li23  1  0.93794700  0.13704000  0.44819400  1
  Li  Li24  1  0.31114300  0.52078200  0.89398300  1
  Li  Li25  1  0.31114300  0.02078200  0.39398300  1
  Li  Li26  1  0.62679100  0.23840400  0.17636000  1
  Li  Li27  1  0.62679100  0.73840400  0.67636000  1
  Mn  Mn0  1  0.66664700  0.95944200  0.29276000  1
  Mn  Mn1  1  0.33333100  0.04056600  0.70724000  1
  Mn  Mn2  1  0.66664700  0.45944200  0.79276000  1
  Mn  Mn3  1  0.33333100  0.54056600  0.20724000  1
  O  O0  1  0.00001000  0.49999800  0.50000400  1
  O  O1  1  0.00001000  0.99999800  0.00000400  1
  O  O2  1  0.66665900  0.33562800  0.66897000  1
  O  O3  1  0.66665900  0.83562800  0.16897000  1
  O  O4  1  0.33332600  0.66436800  0.33103400  1
  O  O5  1  0.33332600  0.16436800  0.83103400  1
  O  O6  1  0.33087200  0.66025600  0.68118000  1
  O  O7  1  0.33087200  0.16025600  0.18118000  1
  O  O8  1  0.69003000  0.33616200  0.00527400  1
  O  O9  1  0.69003000  0.83616200  0.50527400  1
  O  O10  1  0.02092100  0.48425600  0.17430500  1
  O  O11  1  0.02092100  0.98425600  0.67430500  1
  O  O12  1  0.97905700  0.51574600  0.82569200  1
  O  O13  1  0.97905700  0.01574600  0.32569200  1
  O  O14  1  0.30994400  0.66383700  0.99472300  1
  O  O15  1  0.30994400  0.16383700  0.49472300  1
  O  O16  1  0.66911100  0.33974400  0.31881900  1
  O  O17  1  0.66911100  0.83974400  0.81881900  1
loop_
_geom_bond_atom_site_label_1
_geom_bond_atom_site_label_2
_geom_bond_distance
_geom_bond_site_symmetry_2
Li0 O7 2.010197 1_655
Li0 O13 2.010206 1_555
Li0 O8 2.010231 1_555
Li0 O1 2.117000 1_645
Li1 O6 2.010197 1_655
Li1 O12 2.010206 1_555
Li1 O9 2.010231 1_555
Li1 O0 2.117000 1_655
Li2 O10 2.010187 1_655
Li2 O15 2.010224 1_655
Li2 O16 2.010229 1_555
Li2 O0 2.117025 1_655
Li3 O11 2.010187 1_655
Li3 O14 2.010224 1_655
Li3 O17 2.010229 1_555
Li3 O1 2.117025 1_656
Li4 O3 1.898023 1_555
Li4 O14 2.048154 1_554
Li4 O1 2.110749 1_555
Li4 O4 2.400386 1_555
Li5 O2 1.898023 1_555
Li5 O15 2.048154 1_555
Li5 O0 2.110749 1_555
Li5 O5 2.400386 1_555
Li6 O3 1.898018 1_555
Li6 O10 2.048185 1_655
Li6 O0 2.110791 1_655
Li6 O4 2.400344 1_655
Li7 O2 1.898018 1_555
Li7 O11 2.048185 1_645
Li7 O1 2.110791 1_646
Li7 O5 2.400344 1_655
Li8 O3 1.898014 1_556
Li8 O17 2.048137 1_555
Li8 O1 2.110922 1_656
Li8 O5 2.400444 1_565
Li9 O2 1.898014 1_555
Li9 O16 2.048137 1_555
Li9 O0 2.110922 1_655
Li9 O4 2.400444 1_555
Li10 O5 1.898020 1_554
Li10 O7 2.048168 1_555
Li10 O1 2.110690 1_545
Li10 O3 2.400413 1_545
Li11 O4 1.898020 1_555
Li11 O6 2.048168 1_555
Li11 O0 2.110690 1_555
Li11 O2 2.400413 1_555
Li12 O5 1.898009 1_555
Li12 O12 2.048123 1_455
Li12 O0 2.110806 1_555
Li12 O2 2.400509 1_455
Li13 O4 1.898009 1_555
Li13 O13 2.048123 1_465
Li13 O1 2.110806 1_555
Li13 O3 2.400509 1_455
Li14 O5 1.898014 1_555
Li14 O8 2.048146 1_556
Li14 O1 2.110910 1_646
Li14 O2 2.400285 1_555
Li15 O4 1.898014 1_555
Li15 O9 2.048146 1_555
Li15 O0 2.110910 1_655
Li15 O3 2.400285 1_555
Li16 O14 1.902879 1_555
Li16 O6 1.998050 1_555
Li16 O17 2.126449 1_555
Li16 O11 2.226359 1_555
Li17 O15 1.902879 1_555
Li17 O7 1.998050 1_555
Li17 O16 2.126449 1_555
Li17 O10 2.226359 1_555
Li18 O10 1.902884 1_655
Li18 O8 1.998090 1_555
Li18 O14 2.126406 1_554
Li18 O16 2.226377 1_555
Li19 O11 1.902884 1_655
Li19 O9 1.998090 1_555
Li19 O15 2.126406 1_565
Li19 O17 2.226377 1_555
Li20 O7 1.902885 1_555
Li20 O10 1.998047 1_555
Li20 O12 2.126441 1_454
Li20 O8 2.226389 1_455
Li21 O6 1.902885 1_555
Li21 O11 1.998047 1_555
Li21 O13 2.126441 1_465
Li21 O9 2.226389 1_455
Li22 O17 1.902873 1_555
Li22 O12 1.998055 1_555
Li22 O10 2.126425 1_656
Li22 O14 2.226346 1_655
Li23 O16 1.902873 1_555
Li23 O13 1.998055 1_555
Li23 O11 2.126425 1_645
Li23 O15 2.226346 1_655
Li24 O12 1.902881 1_455
Li24 O14 1.998049 1_555
Li24 O8 2.126401 1_556
Li24 O6 2.226397 1_555
Li25 O13 1.902881 1_455
Li25 O15 1.998049 1_555
Li25 O9 2.126401 1_545
Li25 O7 2.226397 1_555
Li26 O8 1.902882 1_555
Li26 O16 1.998084 1_555
Li26 O7 2.126399 1_555
Li26 O13 2.226334 1_555
Li27 O9 1.902882 1_555
Li27 O17 1.998084 1_555
Li27 O6 2.126399 1_555
Li27 O12 2.226334 1_555
Mn0 O3 2.013714 1_555
Mn0 O7 2.053743 1_565
Mn0 O13 2.053800 1_565
Mn0 O9 2.053823 1_555
Mn1 O5 2.013649 1_555
Mn1 O17 2.053801 1_545
Mn1 O15 2.053815 1_555
Mn1 O11 2.053835 1_545
Mn2 O2 2.013714 1_555
Mn2 O6 2.053743 1_555
Mn2 O12 2.053800 1_555
Mn2 O8 2.053823 1_556
Mn3 O4 2.013649 1_555
Mn3 O16 2.053801 1_555
Mn3 O14 2.053815 1_554
Mn3 O10 2.053835 1_555
