# generated using pymatgen
data_Ba3SiO
_symmetry_space_group_name_H-M   'P 1'
_cell_length_a   7.57657891
_cell_length_b   7.69821590
_cell_length_c   10.80878583
_cell_angle_alpha   90.00000000
_cell_angle_beta   90.00000000
_cell_angle_gamma   90.00000000
_symmetry_Int_Tables_number   1
_chemical_formula_structural   Ba3SiO
_chemical_formula_sum   'Ba12 Si4 O4'
_cell_volume   630.43475806
_cell_formula_units_Z   4
loop_
 _symmetry_equiv_pos_site_id
 _symmetry_equiv_pos_as_xyz
  1  'x, y, z'
loop_
 _atom_site_type_symbol
 _atom_site_label
 _atom_site_symmetry_multiplicity
 _atom_site_fract_x
 _atom_site_fract_y
 _atom_site_fract_z
 _atom_site_occupancy
  Ba  Ba0  1  0.07612160  0.48218751  0.25000000  1
  Ba  Ba1  1  0.21006211  0.21040748  0.53983043  1
  Ba  Ba2  1  0.21006211  0.21040748  0.96016957  1
  Ba  Ba3  1  0.28993789  0.71040748  0.53983043  1
  Ba  Ba4  1  0.28993789  0.71040748  0.96016957  1
  Ba  Ba5  1  0.42387840  0.98218751  0.25000000  1
  Ba  Ba6  1  0.57612160  0.01781249  0.75000000  1
  Ba  Ba7  1  0.71006111  0.28959252  0.03983043  1
  Ba  Ba8  1  0.71006111  0.28959252  0.46016957  1
  Ba  Ba9  1  0.78993889  0.78959252  0.03983043  1
  Ba  Ba10  1  0.78993889  0.78959252  0.46016957  1
  Ba  Ba11  1  0.92387840  0.51781249  0.75000000  1
  Si  Si0  1  0.01137434  0.96248382  0.75000000  1
  Si  Si1  1  0.48862566  0.46248382  0.75000000  1
  Si  Si2  1  0.51137434  0.53751618  0.25000000  1
  Si  Si3  1  0.98862566  0.03751618  0.25000000  1
  O  O0  1  -0.00000000  0.50000000  0.00000000  1
  O  O1  1  -0.00000000  0.50000000  0.50000000  1
  O  O2  1  0.50000000  -0.00000000  0.00000000  1
  O  O3  1  0.50000000  -0.00000000  0.50000000  1
loop_
_geom_bond_atom_site_label_1
_geom_bond_atom_site_label_2
_geom_bond_distance
_geom_bond_site_symmetry_2
Ba0 O1 2.766460 1_555
Ba0 O0 2.766460 1_555
Ba0 Si2 3.325120 1_555
Ba0 Si3 3.486774 1_455
Ba1 O3 2.763084 1_555
Ba1 O1 2.772790 1_555
Ba1 Si0 3.327057 1_545
Ba1 Si1 3.657959 1_555
Ba1 Si3 3.794750 1_455
Ba2 O2 2.763084 1_556
Ba2 O0 2.772790 1_556
Ba2 Si0 3.327057 1_545
Ba2 Si1 3.657959 1_555
Ba2 Si3 3.794750 1_456
Ba3 O1 2.763084 1_555
Ba3 O3 2.772790 1_565
Ba3 Si1 3.327057 1_555
Ba3 Si0 3.657959 1_555
Ba3 Si2 3.794750 1_555
Ba4 O0 2.763084 1_556
Ba4 O2 2.772790 1_566
Ba4 Si1 3.327057 1_555
Ba4 Si0 3.657959 1_555
Ba4 Si2 3.794750 1_556
Ba5 O3 2.766460 1_565
Ba5 O2 2.766460 1_565
Ba5 Si3 3.325120 1_465
Ba5 Si2 3.486774 1_555
Ba6 O3 2.766460 1_555
Ba6 O2 2.766460 1_556
Ba6 Si0 3.325120 1_645
Ba6 Si1 3.486774 1_555
Ba7 O0 2.763090 1_655
Ba7 O2 2.772786 1_555
Ba7 Si2 3.327054 1_555
Ba7 Si3 3.657964 1_555
Ba7 Si1 3.794746 1_554
Ba8 O1 2.763090 1_655
Ba8 O3 2.772786 1_555
Ba8 Si2 3.327054 1_555
Ba8 Si3 3.657964 1_555
Ba8 Si1 3.794746 1_555
Ba9 O2 2.763090 1_565
Ba9 O0 2.772786 1_655
Ba9 Si3 3.327054 1_565
Ba9 Si2 3.657964 1_555
Ba9 Si0 3.794746 1_654
Ba10 O3 2.763090 1_565
Ba10 O1 2.772786 1_655
Ba10 Si3 3.327054 1_565
Ba10 Si2 3.657964 1_555
Ba10 Si0 3.794746 1_655
Ba11 O0 2.766460 1_656
Ba11 O1 2.766460 1_655
Ba11 Si1 3.325120 1_555
Ba11 Si0 3.486774 1_655
