# generated using pymatgen
data_Cs2H6CO6
_symmetry_space_group_name_H-M   'P 1'
_cell_length_a   6.81865900
_cell_length_b   6.65296700
_cell_length_c   8.95288122
_cell_angle_alpha   89.35788517
_cell_angle_beta   90.00000000
_cell_angle_gamma   90.00000000
_symmetry_Int_Tables_number   1
_chemical_formula_structural   Cs2H6CO6
_chemical_formula_sum   'Cs4 H12 C2 O12'
_cell_volume   406.11580398
_cell_formula_units_Z   2
loop_
 _symmetry_equiv_pos_site_id
 _symmetry_equiv_pos_as_xyz
  1  'x, y, z'
loop_
 _atom_site_type_symbol
 _atom_site_label
 _atom_site_symmetry_multiplicity
 _atom_site_fract_x
 _atom_site_fract_y
 _atom_site_fract_z
 _atom_site_occupancy
  Cs  Cs0  1  0.15368700  0.75458200  0.57432500  1
  Cs  Cs1  1  0.84631300  0.75458200  0.07432500  1
  Cs  Cs2  1  0.15368700  0.24541800  0.92567500  1
  Cs  Cs3  1  0.84631300  0.24541800  0.42567500  1
  H  H0  1  0.72342900  0.88063700  0.74562100  1
  H  H1  1  0.27657100  0.88063700  0.24562100  1
  H  H2  1  0.39603100  0.72290800  0.85625800  1
  H  H3  1  0.60396900  0.72290800  0.35625800  1
  H  H4  1  0.65769600  0.72944100  0.52852500  1
  H  H5  1  0.34230400  0.72944100  0.02852500  1
  H  H6  1  0.65769600  0.27055900  0.97147500  1
  H  H7  1  0.34230400  0.27055900  0.47147500  1
  H  H8  1  0.39603100  0.27709200  0.64374200  1
  H  H9  1  0.60396900  0.27709200  0.14374200  1
  H  H10  1  0.72342900  0.11936300  0.75437900  1
  H  H11  1  0.27657100  0.11936300  0.25437900  1
  C  C0  1  0.67099500  0.50000000  0.75000000  1
  C  C1  1  0.32900500  0.50000000  0.25000000  1
  O  O0  1  0.81200500  0.00000000  0.75000000  1
  O  O1  1  0.18799500  0.00000000  0.25000000  1
  O  O2  1  0.28978700  0.76037300  0.92731700  1
  O  O3  1  0.71021300  0.76037300  0.42731700  1
  O  O4  1  0.57209500  0.66659900  0.72198200  1
  O  O5  1  0.42790500  0.66659900  0.22198200  1
  O  O6  1  0.85890100  0.50000000  0.75000000  1
  O  O7  1  0.14109900  0.50000000  0.25000000  1
  O  O8  1  0.57209500  0.33340100  0.77801800  1
  O  O9  1  0.42790500  0.33340100  0.27801800  1
  O  O10  1  0.28978700  0.23962700  0.57268300  1
  O  O11  1  0.71021300  0.23962700  0.07268300  1
loop_
_geom_bond_atom_site_label_1
_geom_bond_atom_site_label_2
_geom_bond_distance
_geom_bond_site_symmetry_2
Cs0 H2 3.022293 1_555
Cs0 O6 3.053354 1_455
Cs0 H1 3.163927 1_555
Cs0 O4 3.195678 1_555
Cs0 O0 3.259628 1_465
Cs0 O3 3.297961 1_455
Cs0 O10 3.357652 1_565
Cs0 O7 3.378971 1_555
Cs1 H3 3.022293 1_555
Cs1 O7 3.053354 1_655
Cs1 H0 3.163927 1_554
Cs1 O5 3.195678 1_555
Cs1 O1 3.259628 1_665
Cs1 O2 3.297961 1_654
Cs1 O11 3.357652 1_565
Cs1 O6 3.378971 1_554
Cs2 H8 3.022293 1_555
Cs2 O6 3.053354 1_455
Cs2 H11 3.163927 1_556
Cs2 O8 3.195678 1_555
Cs2 O0 3.259628 1_455
Cs2 O11 3.297961 1_456
Cs2 O2 3.357652 1_545
Cs2 O7 3.378971 1_556
Cs3 H9 3.022293 1_555
Cs3 O7 3.053354 1_655
Cs3 H10 3.163927 1_555
Cs3 O9 3.195678 1_555
Cs3 O1 3.259628 1_655
Cs3 O10 3.297961 1_655
Cs3 O3 3.357652 1_545
Cs3 O6 3.378971 1_555
H0 O0 0.998818 1_565
H1 O1 0.998818 1_565
H2 O2 0.997610 1_555
H3 O3 0.997610 1_555
H4 O3 0.993693 1_555
H5 O2 0.993693 1_554
H6 O11 0.993693 1_556
H7 O10 0.993693 1_555
H8 O10 0.997610 1_555
H9 O11 0.997610 1_555
H10 O0 0.998818 1_555
H11 O1 0.998818 1_555
C0 O6 1.281267 1_555
C0 O8 1.319075 1_555
C0 O4 1.319075 1_555
C1 O7 1.281267 1_555
C1 O9 1.319075 1_555
C1 O5 1.319075 1_555
