# generated using pymatgen
data_Ba5Bi3O11
_symmetry_space_group_name_H-M   'P 1'
_cell_length_a   6.28351456
_cell_length_b   6.28351456
_cell_length_c   9.23510400
_cell_angle_alpha   90.00000000
_cell_angle_beta   90.00000000
_cell_angle_gamma   90.03880228
_symmetry_Int_Tables_number   1
_chemical_formula_structural   Ba5Bi3O11
_chemical_formula_sum   'Ba5 Bi3 O11'
_cell_volume   364.62542002
_cell_formula_units_Z   1
loop_
 _symmetry_equiv_pos_site_id
 _symmetry_equiv_pos_as_xyz
  1  'x, y, z'
loop_
 _atom_site_type_symbol
 _atom_site_label
 _atom_site_symmetry_multiplicity
 _atom_site_fract_x
 _atom_site_fract_y
 _atom_site_fract_z
 _atom_site_occupancy
  Ba  Ba0  1  0.98853800  0.54303500  0.77189000  1
  Ba  Ba1  1  0.98853800  0.54303500  0.22811000  1
  Ba  Ba2  1  0.98149000  0.01851000  0.50000000  1
  Ba  Ba3  1  0.45696500  0.01146200  0.77189000  1
  Ba  Ba4  1  0.45696500  0.01146200  0.22811000  1
  Bi  Bi0  1  0.98230100  0.01769900  0.00000000  1
  Bi  Bi1  1  0.49009500  0.50990500  0.00000000  1
  Bi  Bi2  1  0.49559300  0.50440700  0.50000000  1
  O  O0  1  0.23141500  0.76858500  0.00000000  1
  O  O1  1  0.24326200  0.24426100  0.00000000  1
  O  O2  1  0.75573900  0.75673800  0.00000000  1
  O  O3  1  0.98900500  0.01099500  0.76787900  1
  O  O4  1  0.25939100  0.74060900  0.50000000  1
  O  O5  1  0.49177300  0.50822700  0.74969200  1
  O  O6  1  0.74288600  0.25711400  0.00000000  1
  O  O7  1  0.82930500  0.60573800  0.50000000  1
  O  O8  1  0.39426200  0.17069500  0.50000000  1
  O  O9  1  0.49177300  0.50822700  0.25030800  1
  O  O10  1  0.98900500  0.01099500  0.23212100  1
loop_
_geom_bond_atom_site_label_1
_geom_bond_atom_site_label_2
_geom_bond_distance
_geom_bond_site_symmetry_2
Ba0 O7 2.731599 1_555
Ba0 O2 2.895411 1_556
Ba0 O3 2.940666 1_565
Ba0 O0 2.961849 1_656
Ba0 O5 3.135644 1_555
Ba0 O6 3.169289 1_556
Ba0 O5 3.176409 1_655
Ba0 O1 3.244713 1_656
Ba0 O4 3.277138 1_655
Ba0 O3 3.343290 1_555
Ba1 O7 2.731599 1_555
Ba1 O2 2.895411 1_555
Ba1 O10 2.940666 1_565
Ba1 O0 2.961849 1_655
Ba1 O9 3.135644 1_555
Ba1 O6 3.169289 1_555
Ba1 O9 3.176409 1_655
Ba1 O1 3.244713 1_655
Ba1 O4 3.277138 1_655
Ba1 O10 3.343290 1_555
Ba2 O4 2.470329 1_645
Ba2 O10 2.474792 1_555
Ba2 O3 2.474792 1_555
Ba2 O8 2.763717 1_655
Ba2 O7 2.763717 1_545
Ba3 O8 2.731599 1_555
Ba3 O1 2.895411 1_556
Ba3 O3 2.940666 1_455
Ba3 O0 2.961849 1_546
Ba3 O5 3.135644 1_555
Ba3 O6 3.169289 1_556
Ba3 O5 3.176409 1_545
Ba3 O2 3.244713 1_546
Ba3 O4 3.277138 1_545
Ba3 O3 3.343290 1_555
Ba4 O8 2.731599 1_555
Ba4 O1 2.895411 1_555
Ba4 O10 2.940666 1_455
Ba4 O0 2.961849 1_545
Ba4 O9 3.135644 1_555
Ba4 O6 3.169289 1_555
Ba4 O9 3.176409 1_545
Ba4 O2 3.244713 1_545
Ba4 O4 3.277138 1_545
Ba4 O10 3.343290 1_555
Bi0 O6 2.128217 1_555
Bi0 O10 2.144490 1_555
Bi0 O3 2.144490 1_554
Bi0 O1 2.170778 1_655
Bi0 O2 2.170778 1_545
Bi0 O0 2.214434 1_645
Bi1 O6 2.247120 1_555
Bi1 O2 2.277758 1_555
Bi1 O1 2.277758 1_555
Bi1 O0 2.299469 1_555
Bi1 O9 2.311669 1_555
Bi1 O5 2.311669 1_554
Bi2 O4 2.099656 1_555
Bi2 O8 2.191009 1_555
Bi2 O7 2.191009 1_555
Bi2 O5 2.306182 1_555
Bi2 O9 2.306182 1_555
