# generated using pymatgen
data_MnP2O7
_symmetry_space_group_name_H-M   'P 1'
_cell_length_a   6.46418850
_cell_length_b   4.81540819
_cell_length_c   14.98241674
_cell_angle_alpha   89.65010094
_cell_angle_beta   90.00000000
_cell_angle_gamma   90.00000000
_symmetry_Int_Tables_number   1
_chemical_formula_structural   MnP2O7
_chemical_formula_sum   'Mn4 P8 O28'
_cell_volume   466.35957055
_cell_formula_units_Z   4
loop_
 _symmetry_equiv_pos_site_id
 _symmetry_equiv_pos_as_xyz
  1  'x, y, z'
loop_
 _atom_site_type_symbol
 _atom_site_label
 _atom_site_symmetry_multiplicity
 _atom_site_fract_x
 _atom_site_fract_y
 _atom_site_fract_z
 _atom_site_occupancy
  Mn  Mn0  1  0.58154472  0.74986049  0.63498123  1
  Mn  Mn1  1  0.91845528  0.74986049  0.13498123  1
  Mn  Mn2  1  0.08154472  0.25013951  0.86501877  1
  Mn  Mn3  1  0.41845528  0.25013951  0.36501877  1
  P  P0  1  0.80402516  0.74438772  0.92689712  1
  P  P1  1  0.69597484  0.74438772  0.42689712  1
  P  P2  1  0.39675447  0.73715906  0.83363574  1
  P  P3  1  0.10324553  0.73715906  0.33363574  1
  P  P4  1  0.89675447  0.26284094  0.66636426  1
  P  P5  1  0.60324553  0.26284094  0.16636426  1
  P  P6  1  0.30402516  0.25561228  0.57310288  1
  P  P7  1  0.19597484  0.25561228  0.07310288  1
  O  O0  1  0.24390248  0.93437074  0.87499127  1
  O  O1  1  0.35199215  0.94987648  0.58712890  1
  O  O2  1  0.25609752  0.93437074  0.37499127  1
  O  O3  1  0.14800785  0.94987648  0.08712890  1
  O  O4  1  0.50389702  0.85307556  0.75165888  1
  O  O5  1  0.99610298  0.85307556  0.25165888  1
  O  O6  1  0.56486644  0.70264512  0.91018107  1
  O  O7  1  0.93513356  0.70264512  0.41018107  1
  O  O8  1  0.67027602  0.64294273  0.52180570  1
  O  O9  1  0.82972398  0.64294273  0.02180570  1
  O  O10  1  0.80550333  0.54817602  0.68280173  1
  O  O11  1  0.69449667  0.54817602  0.18280173  1
  O  O12  1  0.91441687  0.56191394  0.85965009  1
  O  O13  1  0.58558313  0.56191394  0.35965009  1
  O  O14  1  0.41441687  0.43808606  0.64034991  1
  O  O15  1  0.08558313  0.43808606  0.14034991  1
  O  O16  1  0.30550333  0.45182398  0.81719827  1
  O  O17  1  0.19449667  0.45182398  0.31719827  1
  O  O18  1  0.17027602  0.35705727  0.97819430  1
  O  O19  1  0.32972398  0.35705727  0.47819430  1
  O  O20  1  0.06486644  0.29735488  0.58981893  1
  O  O21  1  0.43513356  0.29735488  0.08981893  1
  O  O22  1  0.00389702  0.14692444  0.74834112  1
  O  O23  1  0.49610298  0.14692444  0.24834112  1
  O  O24  1  0.85199215  0.05012352  0.91287110  1
  O  O25  1  0.74390248  0.06562926  0.62500873  1
  O  O26  1  0.64800785  0.05012352  0.41287110  1
  O  O27  1  0.75609752  0.06562926  0.12500873  1
loop_
_geom_bond_atom_site_label_1
_geom_bond_atom_site_label_2
_geom_bond_distance
_geom_bond_site_symmetry_2
Mn0 O14 1.850975 1_555
Mn0 O25 1.852866 1_565
Mn0 O8 1.865457 1_555
Mn0 O10 1.882527 1_555
Mn0 O4 1.888247 1_555
Mn0 O1 1.906600 1_555
Mn1 O15 1.850975 1_655
Mn1 O27 1.852866 1_565
Mn1 O9 1.865457 1_555
Mn1 O11 1.882527 1_555
Mn1 O5 1.888247 1_555
Mn1 O3 1.906600 1_655
Mn2 O12 1.850975 1_455
Mn2 O0 1.852866 1_545
Mn2 O18 1.865457 1_555
Mn2 O16 1.882527 1_555
Mn2 O22 1.888247 1_555
Mn2 O24 1.906600 1_455
Mn3 O13 1.850975 1_555
Mn3 O2 1.852866 1_545
Mn3 O19 1.865457 1_555
Mn3 O17 1.882527 1_555
Mn3 O23 1.888247 1_555
Mn3 O26 1.906600 1_555
O0 P2 1.506391 1_555
O1 P6 1.517901 1_565
O2 P3 1.506391 1_555
O3 P7 1.517901 1_565
O4 P2 1.513731 1_555
O5 P3 1.513731 1_655
O6 P0 1.579163 1_555
O6 P2 1.587909 1_555
O7 P1 1.579163 1_555
O7 P3 1.587909 1_655
O8 P1 1.509872 1_555
O9 P0 1.509872 1_554
O10 P4 1.516777 1_555
O11 P5 1.516777 1_555
O12 P0 1.518953 1_555
O13 P1 1.518953 1_555
O14 P6 1.518953 1_555
O15 P7 1.518953 1_555
O16 P2 1.516777 1_555
O17 P3 1.516777 1_555
O18 P7 1.509872 1_556
O19 P6 1.509872 1_555
O20 P6 1.579163 1_555
O20 P4 1.587909 1_455
O21 P7 1.579163 1_555
O21 P5 1.587909 1_555
O22 P4 1.513731 1_455
O23 P5 1.513731 1_555
O24 P0 1.517901 1_545
O25 P4 1.506391 1_555
O26 P1 1.517901 1_545
O27 P5 1.506391 1_555
