# generated using pymatgen
data_Fe10O9F11
_symmetry_space_group_name_H-M   'P 1'
_cell_length_a   15.42073100
_cell_length_b   4.76085500
_cell_length_c   4.77491683
_cell_angle_alpha   87.00896180
_cell_angle_beta   90.00000000
_cell_angle_gamma   90.00000000
_symmetry_Int_Tables_number   1
_chemical_formula_structural   Fe10O9F11
_chemical_formula_sum   'Fe10 O9 F11'
_cell_volume   350.07708825
_cell_formula_units_Z   1
loop_
 _symmetry_equiv_pos_site_id
 _symmetry_equiv_pos_as_xyz
  1  'x, y, z'
loop_
 _atom_site_type_symbol
 _atom_site_label
 _atom_site_symmetry_multiplicity
 _atom_site_fract_x
 _atom_site_fract_y
 _atom_site_fract_z
 _atom_site_occupancy
  Fe  Fe0  1  0.40336000  0.00602400  0.99408100  1
  Fe  Fe1  1  0.59664000  0.00602400  0.99408100  1
  Fe  Fe2  1  0.80291000  0.96770600  0.01176400  1
  Fe  Fe3  1  0.00000000  0.95824200  0.98979100  1
  Fe  Fe4  1  0.19709000  0.96770600  0.01176400  1
  Fe  Fe5  1  0.50000000  0.50213800  0.49817500  1
  Fe  Fe6  1  0.89669000  0.54867500  0.50640300  1
  Fe  Fe7  1  0.68854100  0.50787300  0.48433200  1
  Fe  Fe8  1  0.10331000  0.54867500  0.50640300  1
  Fe  Fe9  1  0.31145900  0.50787300  0.48433200  1
  O  O0  1  0.89855400  0.80657600  0.81083400  1
  O  O1  1  0.10144600  0.80657600  0.81083400  1
  O  O2  1  0.40250500  0.70468600  0.29318200  1
  O  O3  1  0.59749500  0.70468600  0.29318200  1
  O  O4  1  0.79655500  0.68895800  0.31280600  1
  O  O5  1  0.00000000  0.69262800  0.31366700  1
  O  O6  1  0.20344500  0.68895800  0.31280600  1
  O  O7  1  0.39995900  0.30374300  0.69351700  1
  O  O8  1  0.60004100  0.30374300  0.69351700  1
  F  F0  1  0.50000000  0.80219300  0.79341600  1
  F  F1  1  0.70342200  0.80368800  0.80416300  1
  F  F2  1  0.29657800  0.80368800  0.80416300  1
  F  F3  1  0.79844200  0.29521500  0.70649600  1
  F  F4  1  0.00000000  0.30370700  0.70253800  1
  F  F5  1  0.20155800  0.29521500  0.70649600  1
  F  F6  1  0.50000000  0.20652200  0.19688100  1
  F  F7  1  0.90005300  0.19158600  0.19421800  1
  F  F8  1  0.70490400  0.19255600  0.19097100  1
  F  F9  1  0.29509600  0.19255600  0.19097100  1
  F  F10  1  0.09994700  0.19158600  0.19421800  1
loop_
_geom_bond_atom_site_label_1
_geom_bond_atom_site_label_2
_geom_bond_distance
_geom_bond_site_symmetry_2
Fe0 O7 1.964481 1_555
Fe0 O2 1.970840 1_546
Fe1 O8 1.964481 1_555
Fe1 O3 1.970840 1_546
Fe2 O4 1.907335 1_555
Fe2 O0 1.939356 1_554
Fe3 O1 1.939896 1_555
Fe3 O0 1.939896 1_455
Fe3 O5 1.945920 1_556
Fe4 O6 1.907335 1_555
Fe4 O1 1.939356 1_554
Fe5 O3 2.012416 1_555
Fe5 O2 2.012416 1_555
Fe5 O8 2.012497 1_555
Fe5 O7 2.012497 1_555
Fe6 O4 1.902778 1_555
Fe6 O5 1.946493 1_655
Fe6 O0 1.951333 1_555
Fe7 O3 1.895518 1_555
Fe7 O8 1.924407 1_555
Fe7 O4 2.028489 1_555
Fe8 O6 1.902778 1_555
Fe8 O5 1.946493 1_555
Fe8 O1 1.951333 1_555
Fe9 O2 1.895518 1_555
Fe9 O7 1.924407 1_555
Fe9 O6 2.028489 1_555
F0 Fe0 2.043935 1_565
F0 Fe1 2.043935 1_565
F0 Fe5 2.058696 1_555
F1 Fe2 2.006705 1_556
F1 Fe1 2.133761 1_565
F1 Fe7 2.143070 1_555
F2 Fe4 2.006705 1_556
F2 Fe0 2.133761 1_565
F2 Fe9 2.143070 1_555
F3 Fe2 2.079284 1_546
F3 Fe6 2.131669 1_555
F3 Fe7 2.215955 1_555
F4 Fe3 2.085894 1_545
F4 Fe6 2.158998 1_455
F4 Fe8 2.158998 1_555
F5 Fe4 2.079284 1_546
F5 Fe8 2.131669 1_555
F5 Fe9 2.215955 1_555
F6 Fe0 2.041126 1_554
F6 Fe1 2.041126 1_554
F6 Fe5 2.064403 1_555
F7 Fe2 2.058157 1_545
F7 Fe3 2.162310 1_644
F7 Fe6 2.319350 1_555
F8 Fe2 2.063453 1_545
F8 Fe7 2.121043 1_555
F8 Fe1 2.132341 1_554
F9 Fe4 2.063453 1_545
F9 Fe9 2.121043 1_555
F9 Fe0 2.132341 1_554
F10 Fe4 2.058157 1_545
F10 Fe3 2.162310 1_544
F10 Fe8 2.319350 1_555
