# generated using pymatgen
data_Li4(FeO2)5
_symmetry_space_group_name_H-M   'P 1'
_cell_length_a   5.16540700
_cell_length_b   5.17194203
_cell_length_c   7.90698121
_cell_angle_alpha   70.95280309
_cell_angle_beta   71.37796607
_cell_angle_gamma   79.36971147
_symmetry_Int_Tables_number   1
_chemical_formula_structural   Li4(FeO2)5
_chemical_formula_sum   'Li4 Fe5 O10'
_cell_volume   188.45656233
_cell_formula_units_Z   1
loop_
 _symmetry_equiv_pos_site_id
 _symmetry_equiv_pos_as_xyz
  1  'x, y, z'
loop_
 _atom_site_type_symbol
 _atom_site_label
 _atom_site_symmetry_multiplicity
 _atom_site_fract_x
 _atom_site_fract_y
 _atom_site_fract_z
 _atom_site_occupancy
  Li  Li0  1  0.22126700  0.50191400  0.57581400  1
  Li  Li1  1  0.50650600  0.01691600  0.49201500  1
  Li  Li2  1  0.61139500  0.50566400  0.77696600  1
  Li  Li3  1  0.78381800  0.50540500  0.40397300  1
  Fe  Fe0  1  0.10597800  0.98219500  0.31074600  1
  Fe  Fe1  1  0.00130600  0.49556000  0.00729800  1
  Fe  Fe2  1  0.68426600  0.00933700  0.11260300  1
  Fe  Fe3  1  0.30259100  0.99520000  0.89308700  1
  Fe  Fe4  1  0.89499500  0.99929900  0.68975500  1
  O  O0  1  0.03675000  0.76360700  0.13921500  1
  O  O1  1  0.11021200  0.21611800  0.47922200  1
  O  O2  1  0.33736400  0.22446700  0.05000000  1
  O  O3  1  0.22439700  0.75055600  0.76900900  1
  O  O4  1  0.45590700  0.78692900  0.34090300  1
  O  O5  1  0.55253700  0.22568700  0.66424000  1
  O  O6  1  0.78602500  0.24486900  0.23498500  1
  O  O7  1  0.67713300  0.77997800  0.92765500  1
  O  O8  1  0.86714600  0.76375500  0.54551600  1
  O  O9  1  0.95059600  0.24274700  0.86192300  1
loop_
_geom_bond_atom_site_label_1
_geom_bond_atom_site_label_2
_geom_bond_distance
_geom_bond_site_symmetry_2
Li0 O8 2.095570 1_455
Li0 O1 2.103972 1_555
Li0 O4 2.127506 1_555
Li0 O5 2.160570 1_555
Li0 O3 2.300673 1_555
Li0 O9 2.358278 1_455
Li1 O4 2.037790 1_545
Li1 O5 2.082801 1_555
Li1 O1 2.132626 1_555
Li1 O8 2.146022 1_545
Li1 O6 2.189770 1_555
Li1 O3 2.356097 1_545
Li2 O5 2.039988 1_555
Li2 O8 2.094822 1_555
Li2 O9 2.155610 1_555
Li2 O3 2.167570 1_555
Li2 O7 2.255488 1_555
Li2 O2 2.353301 1_556
Li3 O4 2.096016 1_555
Li3 O1 2.136345 1_655
Li3 O8 2.172339 1_555
Li3 O6 2.181967 1_555
Li3 O5 2.208960 1_555
Li3 O0 2.223737 1_655
Fe0 O4 1.946413 1_555
Fe0 O8 1.981677 1_455
Fe0 O6 2.051484 1_465
Fe0 O1 2.078236 1_565
Fe0 O2 2.131168 1_565
Fe0 O0 2.169140 1_555
Fe1 O6 1.971961 1_455
Fe1 O3 2.041922 1_554
Fe1 O0 2.050076 1_555
Fe1 O2 2.064092 1_555
Fe1 O9 2.097425 1_454
Fe1 O7 2.127054 1_454
Fe2 O4 1.938704 1_545
Fe2 O6 2.006747 1_555
Fe2 O2 2.040904 1_555
Fe2 O0 2.047172 1_645
Fe2 O9 2.141995 1_554
Fe2 O7 2.174819 1_544
Fe3 O3 1.994605 1_555
Fe3 O5 2.007506 1_565
Fe3 O2 2.039305 1_566
Fe3 O9 2.055993 1_465
Fe3 O7 2.097920 1_555
Fe3 O0 2.118108 1_556
Fe4 O1 1.823219 1_665
Fe4 O7 1.953935 1_555
Fe4 O5 1.962231 1_565
Fe4 O8 1.970216 1_555
Fe4 O3 2.071233 1_655
Fe4 O9 2.241181 1_565
