# generated using pymatgen
data_Li4Mn2TeWO12
_symmetry_space_group_name_H-M   'P 1'
_cell_length_a   5.32417188
_cell_length_b   10.64946777
_cell_length_c   9.35588624
_cell_angle_alpha   28.50450229
_cell_angle_beta   51.72611864
_cell_angle_gamma   57.02694422
_symmetry_Int_Tables_number   1
_chemical_formula_structural   Li4Mn2TeWO12
_chemical_formula_sum   'Li4 Mn2 Te1 W1 O12'
_cell_volume   198.74345561
_cell_formula_units_Z   1
loop_
 _symmetry_equiv_pos_site_id
 _symmetry_equiv_pos_as_xyz
  1  'x, y, z'
loop_
 _atom_site_type_symbol
 _atom_site_label
 _atom_site_symmetry_multiplicity
 _atom_site_fract_x
 _atom_site_fract_y
 _atom_site_fract_z
 _atom_site_occupancy
  Li  Li0  1  0.29059300  0.00590100  0.27885100  1
  Li  Li1  1  0.28106700  0.49440300  0.29287400  1
  Li  Li2  1  0.78248300  0.99826200  0.78909000  1
  Li  Li3  1  0.78835800  0.50124900  0.78279900  1
  Mn  Mn0  1  0.50049100  0.00068600  0.50099900  1
  Mn  Mn1  1  0.50285000  0.49912900  0.50147600  1
  Te  Te0  1  0.00046800  0.50135700  0.99932800  1
  W  W0  1  0.00188700  0.99893600  0.00221500  1
  O  O0  1  0.37712500  0.30302000  0.11985600  1
  O  O1  1  0.24088000  0.11493500  0.63073400  1
  O  O2  1  0.13258900  0.31551100  0.73404000  1
  O  O3  1  0.87278400  0.19870300  0.22660200  1
  O  O4  1  0.36703200  0.80277400  0.13287800  1
  O  O5  1  0.72947300  0.37076200  0.37832500  1
  O  O6  1  0.23147800  0.62800100  0.62060100  1
  O  O7  1  0.63129300  0.18706500  0.86211100  1
  O  O8  1  0.12011900  0.82311700  0.73279900  1
  O  O9  1  0.86366900  0.69194300  0.24456300  1
  O  O10  1  0.73582900  0.88361700  0.36592700  1
  O  O11  1  0.62073300  0.68062800  0.87513500  1
loop_
_geom_bond_atom_site_label_1
_geom_bond_atom_site_label_2
_geom_bond_distance
_geom_bond_site_symmetry_2
Li0 O3 2.003646 1_455
Li0 O6 2.008671 1_545
Li0 O7 2.010298 1_554
Li0 O0 2.214087 1_555
Li0 O10 2.268597 1_545
Li0 O8 2.295248 1_545
Li1 O11 2.000867 1_554
Li1 O1 2.005160 1_555
Li1 O9 2.013182 1_455
Li1 O2 2.251100 1_555
Li1 O5 2.272713 1_555
Li1 O4 2.319966 1_555
Li2 O8 1.972765 1_655
Li2 O5 1.978909 1_565
Li2 O4 2.000486 1_556
Li2 O7 2.264653 1_565
Li2 O1 2.298081 1_665
Li2 O9 2.302726 1_556
Li3 O0 1.992978 1_556
Li3 O10 2.017377 1_555
Li3 O2 2.020831 1_655
Li3 O3 2.246441 1_556
Li3 O6 2.263165 1_655
Li3 O11 2.298171 1_555
Mn0 O1 1.884339 1_555
Mn0 O3 1.922858 1_555
Mn0 O11 1.926603 1_545
Mn0 O10 1.956619 1_545
Mn0 O8 1.974894 1_545
Mn0 O0 1.983557 1_555
Mn1 O7 1.890351 1_555
Mn1 O9 1.892891 1_555
Mn1 O6 1.936049 1_555
Mn1 O4 1.953649 1_555
Mn1 O2 1.961732 1_555
Mn1 O5 1.975558 1_555
O0 Te0 1.938878 1_554
O1 W0 1.977583 1_546
O2 W0 1.915543 1_546
O3 Te0 1.980099 1_654
O4 W0 1.916546 1_555
O5 Te0 1.941121 1_654
O6 Te0 1.973421 1_555
O7 W0 1.977583 1_646
O8 Te0 1.938005 1_555
O9 W0 1.973388 1_655
O10 W0 1.916077 1_655
O11 Te0 1.972952 1_655
