# generated using pymatgen
data_Nb3O2F5
_symmetry_space_group_name_H-M   'P 1'
_cell_length_a   6.06923900
_cell_length_b   8.15371400
_cell_length_c   13.41134200
_cell_angle_alpha   90.00000000
_cell_angle_beta   90.00000000
_cell_angle_gamma   90.00000000
_symmetry_Int_Tables_number   1
_chemical_formula_structural   Nb3O2F5
_chemical_formula_sum   'Nb12 O8 F20'
_cell_volume   663.68492238
_cell_formula_units_Z   4
loop_
 _symmetry_equiv_pos_site_id
 _symmetry_equiv_pos_as_xyz
  1  'x, y, z'
loop_
 _atom_site_type_symbol
 _atom_site_label
 _atom_site_symmetry_multiplicity
 _atom_site_fract_x
 _atom_site_fract_y
 _atom_site_fract_z
 _atom_site_occupancy
  Nb  Nb0  1  0.00000000  0.01980500  0.12851700  1
  Nb  Nb1  1  0.21966200  0.23790200  0.23767200  1
  Nb  Nb2  1  0.78033800  0.23790200  0.23767200  1
  Nb  Nb3  1  0.28033800  0.26209800  0.73767200  1
  Nb  Nb4  1  0.71966200  0.26209800  0.73767200  1
  Nb  Nb5  1  0.50000000  0.48019500  0.62851700  1
  Nb  Nb6  1  0.50000000  0.51980500  0.37148300  1
  Nb  Nb7  1  0.28033800  0.73790200  0.26232800  1
  Nb  Nb8  1  0.71966200  0.73790200  0.26232800  1
  Nb  Nb9  1  0.21966200  0.76209800  0.76232800  1
  Nb  Nb10  1  0.78033800  0.76209800  0.76232800  1
  Nb  Nb11  1  0.00000000  0.98019500  0.87148300  1
  O  O0  1  0.24386900  0.01111300  0.76906800  1
  O  O1  1  0.75613100  0.01111300  0.76906800  1
  O  O2  1  0.25613100  0.48888700  0.26906800  1
  O  O3  1  0.74386900  0.48888700  0.26906800  1
  O  O4  1  0.25613100  0.51111300  0.73093200  1
  O  O5  1  0.74386900  0.51111300  0.73093200  1
  O  O6  1  0.24386900  0.98888700  0.23093200  1
  O  O7  1  0.75613100  0.98888700  0.23093200  1
  F  F0  1  0.20776600  0.00000000  0.00000000  1
  F  F1  1  0.79223400  0.00000000  0.00000000  1
  F  F2  1  0.50000000  0.20390800  0.61271000  1
  F  F3  1  0.50000000  0.24132400  0.34932900  1
  F  F4  1  0.00000000  0.21186600  0.35684400  1
  F  F5  1  0.00000000  0.23056500  0.64333400  1
  F  F6  1  0.50000000  0.26943500  0.14333400  1
  F  F7  1  0.50000000  0.28813400  0.85684400  1
  F  F8  1  0.00000000  0.25867600  0.84932900  1
  F  F9  1  0.00000000  0.29609200  0.11271000  1
  F  F10  1  0.29223400  0.50000000  0.50000000  1
  F  F11  1  0.70776600  0.50000000  0.50000000  1
  F  F12  1  0.00000000  0.70390800  0.88729000  1
  F  F13  1  0.00000000  0.74132400  0.15067100  1
  F  F14  1  0.50000000  0.71186600  0.14315600  1
  F  F15  1  0.50000000  0.73056500  0.85666600  1
  F  F16  1  0.00000000  0.76943500  0.35666600  1
  F  F17  1  0.00000000  0.78813400  0.64315600  1
  F  F18  1  0.50000000  0.75867600  0.65067100  1
  F  F19  1  0.50000000  0.79609200  0.38729000  1
loop_
_geom_bond_atom_site_label_1
_geom_bond_atom_site_label_2
_geom_bond_distance
_geom_bond_site_symmetry_2
Nb0 O6 2.034898 1_545
Nb0 O7 2.034898 1_445
Nb1 O6 2.037711 1_545
Nb1 O2 2.101019 1_555
Nb2 O7 2.037711 1_545
Nb2 O3 2.101019 1_555
Nb3 O4 2.037711 1_555
Nb3 O0 2.101019 1_555
Nb4 O5 2.037711 1_555
Nb4 O1 2.101019 1_555
Nb5 O5 2.034898 1_555
Nb5 O4 2.034898 1_555
Nb6 O2 2.034898 1_555
Nb6 O3 2.034898 1_555
Nb7 O2 2.037711 1_555
Nb7 O6 2.101019 1_555
Nb8 O3 2.037711 1_555
Nb8 O7 2.101019 1_555
Nb9 O0 2.037711 1_565
Nb9 O4 2.101019 1_555
Nb10 O1 2.037711 1_565
Nb10 O5 2.101019 1_555
Nb11 O1 2.034898 1_465
Nb11 O0 2.034898 1_565
F0 Nb0 2.141705 1_555
F0 Nb11 2.141705 1_544
F1 Nb0 2.141705 1_655
F1 Nb11 2.141705 1_644
F2 Nb4 2.193435 1_555
F2 Nb3 2.193435 1_555
F2 Nb5 2.262718 1_555
F3 Nb2 2.266735 1_555
F3 Nb1 2.266735 1_555
F3 Nb6 2.290011 1_555
F4 Nb2 2.092095 1_455
F4 Nb1 2.092095 1_555
F5 Nb3 2.135820 1_555
F5 Nb4 2.135820 1_455
F6 Nb1 2.135820 1_555
F6 Nb2 2.135820 1_555
F7 Nb4 2.092095 1_555
F7 Nb3 2.092095 1_555
F8 Nb3 2.266735 1_555
F8 Nb4 2.266735 1_455
F8 Nb11 2.290011 1_545
F9 Nb1 2.193435 1_555
F9 Nb2 2.193435 1_455
F9 Nb0 2.262718 1_555
F10 Nb5 2.141705 1_555
F10 Nb6 2.141705 1_555
F11 Nb5 2.141705 1_555
F11 Nb6 2.141705 1_555
F12 Nb9 2.193435 1_555
F12 Nb10 2.193435 1_455
F12 Nb11 2.262718 1_555
F13 Nb7 2.266735 1_555
F13 Nb8 2.266735 1_455
F13 Nb0 2.290011 1_565
F14 Nb8 2.092095 1_555
F14 Nb7 2.092095 1_555
F15 Nb9 2.135820 1_555
F15 Nb10 2.135820 1_555
F16 Nb7 2.135820 1_555
F16 Nb8 2.135820 1_455
F17 Nb9 2.092095 1_555
F17 Nb10 2.092095 1_455
F18 Nb9 2.266735 1_555
F18 Nb10 2.266735 1_555
F18 Nb5 2.290011 1_555
F19 Nb8 2.193435 1_555
F19 Nb7 2.193435 1_555
F19 Nb6 2.262718 1_555
