# generated using pymatgen
data_Pr3Si2S8Br
_symmetry_space_group_name_H-M   'P 1'
_cell_length_a   8.85155028
_cell_length_b   8.85155028
_cell_length_c   11.00527378
_cell_angle_alpha   83.18494078
_cell_angle_beta   83.18494078
_cell_angle_gamma   52.34195839
_symmetry_Int_Tables_number   1
_chemical_formula_structural   Pr3Si2S8Br
_chemical_formula_sum   'Pr6 Si4 S16 Br2'
_cell_volume   676.63520095
_cell_formula_units_Z   2
loop_
 _symmetry_equiv_pos_site_id
 _symmetry_equiv_pos_as_xyz
  1  'x, y, z'
loop_
 _atom_site_type_symbol
 _atom_site_label
 _atom_site_symmetry_multiplicity
 _atom_site_fract_x
 _atom_site_fract_y
 _atom_site_fract_z
 _atom_site_occupancy
  Pr  Pr0  1  0.07425100  0.31415500  0.31319200  1
  Pr  Pr1  1  0.68238900  0.93112300  0.18317400  1
  Pr  Pr2  1  0.39260900  0.60422700  0.24791600  1
  Pr  Pr3  1  0.32350700  0.07469400  0.81583400  1
  Pr  Pr4  1  0.93180600  0.68059500  0.68195500  1
  Pr  Pr5  1  0.60568500  0.38819500  0.74998500  1
  Si  Si0  1  0.37902300  0.29889900  0.53089100  1
  Si  Si1  1  0.63199100  0.69026900  0.46813100  1
  Si  Si2  1  0.30597500  0.37158400  0.02603000  1
  Si  Si3  1  0.69363800  0.62365500  0.96633300  1
  S  S0  1  0.41000500  0.71787900  0.95520700  1
  S  S1  1  0.85943500  0.70723000  0.41774000  1
  S  S2  1  0.59954700  0.10282600  0.64548200  1
  S  S3  1  0.74146000  0.56059100  0.16054200  1
  S  S4  1  0.39403500  0.89113600  0.35672600  1
  S  S5  1  0.27091500  0.59332900  0.54614100  1
  S  S6  1  0.25895700  0.45015000  0.84017200  1
  S  S7  1  0.72022900  0.41276500  0.44840000  1
  S  S8  1  0.89506300  0.39176600  0.85713500  1
  S  S9  1  0.59052400  0.27486000  0.05158400  1
  S  S10  1  0.44432200  0.25282300  0.34105000  1
  S  S11  1  0.29375200  0.14016900  0.08779900  1
  S  S12  1  0.10746400  0.60707300  0.14337400  1
  S  S13  1  0.55385100  0.74842900  0.65957400  1
  S  S14  1  0.13905700  0.28999700  0.58628400  1
  S  S15  1  0.70520800  0.86072300  0.91394700  1
  Br  Br0  1  0.98882400  0.00661900  0.25121800  1
  Br  Br1  1  0.99911200  0.00070700  0.75248400  1
loop_
_geom_bond_atom_site_label_1
_geom_bond_atom_site_label_2
_geom_bond_distance
_geom_bond_site_symmetry_2
Pr0 S11 2.899365 1_555
Pr0 S7 2.941974 1_455
Pr0 S3 2.951454 1_455
Pr0 S10 3.024047 1_555
Pr0 S4 3.034403 1_545
Pr0 S1 3.064659 1_455
Pr0 S14 3.084523 1_555
Pr0 S12 3.154784 1_555
Pr1 S9 2.868198 1_565
Pr1 S10 2.922517 1_565
Pr1 S11 2.996276 1_565
Pr1 S1 2.999741 1_555
Pr1 S3 3.026540 1_555
Pr1 S12 3.048955 1_655
Pr1 S15 3.057835 1_554
Pr1 S4 3.174021 1_555
Pr2 S12 2.880863 1_555
Pr2 S3 2.921455 1_555
Pr2 S10 2.924055 1_555
Pr2 S4 2.940773 1_555
Pr2 S9 3.254714 1_555
Pr2 S0 3.273414 1_554
Pr2 S7 3.282659 1_555
Pr2 S5 3.339797 1_555
Pr3 S13 2.933666 1_545
Pr3 S14 2.951931 1_555
Pr3 S15 2.954613 1_545
Pr3 S0 3.014693 1_545
Pr3 S2 3.015356 1_555
Pr3 S6 3.049213 1_555
Pr3 S8 3.058425 1_455
Pr3 S11 3.066215 1_556
Pr4 S5 2.866481 1_655
Pr4 S6 2.952025 1_655
Pr4 S15 2.987778 1_555
Pr4 S1 3.002639 1_555
Pr4 S14 3.013820 1_655
Pr4 S2 3.045029 1_565
Pr4 S13 3.052779 1_555
Pr4 S8 3.171140 1_555
Pr5 S6 2.838099 1_555
Pr5 S2 2.928837 1_555
Pr5 S8 2.962629 1_555
Pr5 S13 2.989256 1_555
Pr5 S0 3.328158 1_555
Pr5 S5 3.338698 1_555
Pr5 S9 3.363017 1_556
Pr5 S7 3.375008 1_555
S0 Si3 2.122229 1_555
S1 Si1 2.113710 1_555
S2 Si0 2.082795 1_555
S3 Si3 2.168358 1_554
S4 Si1 2.149520 1_555
S5 Si0 2.180450 1_555
S6 Si2 2.085992 1_556
S7 Si1 2.105448 1_555
S8 Si3 2.107458 1_555
S9 Si2 2.152211 1_555
S10 Si0 2.119666 1_555
S11 Si2 2.143023 1_555
S12 Si2 2.173727 1_555
S13 Si1 2.158439 1_555
S14 Si0 2.185249 1_555
S15 Si3 2.169721 1_555
Br0 Pr2 3.147518 1_645
Br0 Pr1 3.343682 1_545
Br0 Pr0 3.394901 1_655
Br1 Pr5 3.049228 1_555
Br1 Pr4 3.417665 1_545
Br1 Pr3 3.470030 1_655
