# generated using pymatgen
data_Li6NiOF6
_symmetry_space_group_name_H-M   'P 1'
_cell_length_a   7.17308732
_cell_length_b   7.17366877
_cell_length_c   10.65597807
_cell_angle_alpha   102.73672116
_cell_angle_beta   90.66144402
_cell_angle_gamma   67.69781487
_symmetry_Int_Tables_number   1
_chemical_formula_structural   Li6NiOF6
_chemical_formula_sum   'Li24 Ni4 O4 F24'
_cell_volume   493.24482737
_cell_formula_units_Z   4
loop_
 _symmetry_equiv_pos_site_id
 _symmetry_equiv_pos_as_xyz
  1  'x, y, z'
loop_
 _atom_site_type_symbol
 _atom_site_label
 _atom_site_symmetry_multiplicity
 _atom_site_fract_x
 _atom_site_fract_y
 _atom_site_fract_z
 _atom_site_occupancy
  Li  Li0  1  0.85825100  0.42531600  0.13407900  1
  Li  Li1  1  0.10825400  0.67530100  0.13405500  1
  Li  Li2  1  0.35825200  0.92531500  0.13407900  1
  Li  Li3  1  0.60824500  0.17531100  0.13405500  1
  Li  Li4  1  0.14175700  0.57469300  0.86594400  1
  Li  Li5  1  0.39176200  0.82468600  0.86592300  1
  Li  Li6  1  0.64174500  0.07470200  0.86594300  1
  Li  Li7  1  0.89175400  0.32469400  0.86592300  1
  Li  Li8  1  0.96285800  0.11176300  0.29778100  1
  Li  Li9  1  0.21289500  0.36178900  0.29777900  1
  Li  Li10  1  0.46285600  0.61175900  0.29777900  1
  Li  Li11  1  0.71289600  0.86179000  0.29778000  1
  Li  Li12  1  0.03711700  0.88820800  0.70220900  1
  Li  Li13  1  0.28714500  0.13824500  0.70221100  1
  Li  Li14  1  0.53711400  0.38820700  0.70221300  1
  Li  Li15  1  0.78714300  0.63824600  0.70221100  1
  Li  Li16  1  0.82178200  0.53499500  0.42641000  1
  Li  Li17  1  0.07177700  0.78499400  0.42640700  1
  Li  Li18  1  0.32178400  0.03499300  0.42640900  1
  Li  Li19  1  0.57177600  0.28499400  0.42640700  1
  Li  Li20  1  0.17822400  0.46501100  0.57358900  1
  Li  Li21  1  0.42823000  0.71500600  0.57358400  1
  Li  Li22  1  0.67822300  0.96501300  0.57358800  1
  Li  Li23  1  0.92822700  0.21500800  0.57358500  1
  Ni  Ni0  1  0.50024900  0.50022700  0.00005200  1
  Ni  Ni1  1  0.74970800  0.74981000  0.00001200  1
  Ni  Ni2  1  0.00006900  0.00019100  0.00002700  1
  Ni  Ni3  1  0.24981200  0.24967100  0.00001800  1
  O  O0  1  0.99998600  0.49997700  0.99999500  1
  O  O1  1  0.25002000  0.75002400  0.99999200  1
  O  O2  1  0.49998000  0.99997800  0.99999300  1
  O  O3  1  0.75002700  0.25002200  0.99999500  1
  F  F0  1  0.10642900  0.18082900  0.14878700  1
  F  F1  1  0.35640400  0.43084600  0.14878300  1
  F  F2  1  0.60642400  0.68083600  0.14878800  1
  F  F3  1  0.85639200  0.93083600  0.14878400  1
  F  F4  1  0.89357100  0.81916000  0.85118700  1
  F  F5  1  0.14360500  0.06916900  0.85122000  1
  F  F6  1  0.39359000  0.31916700  0.85118800  1
  F  F7  1  0.64361600  0.56916300  0.85121900  1
  F  F8  1  0.96355100  0.60977100  0.29245400  1
  F  F9  1  0.21351400  0.85984000  0.29249700  1
  F  F10  1  0.46355200  0.10976800  0.29245500  1
  F  F11  1  0.71350900  0.35984300  0.29249600  1
  F  F12  1  0.03644100  0.39022500  0.70754700  1
  F  F13  1  0.28651200  0.64017500  0.70750600  1
  F  F14  1  0.53644400  0.89022300  0.70755000  1
  F  F15  1  0.78650700  0.14017900  0.70750600  1
  F  F16  1  0.07127200  0.28630300  0.42998500  1
  F  F17  1  0.32124900  0.53633200  0.42999300  1
  F  F18  1  0.57127300  0.78630000  0.42998200  1
  F  F19  1  0.82124900  0.03633300  0.42999200  1
  F  F20  1  0.92873300  0.71370200  0.57001000  1
  F  F21  1  0.17875600  0.96367800  0.57001400  1
  F  F22  1  0.42873500  0.21370000  0.57000900  1
  F  F23  1  0.67875500  0.46368000  0.57001700  1
loop_
_geom_bond_atom_site_label_1
_geom_bond_atom_site_label_2
_geom_bond_distance
_geom_bond_site_symmetry_2
Li0 O0 2.036224 1_554
Li0 O3 2.036780 1_554
Li1 O1 2.036458 1_554
Li1 O0 2.036959 1_454
Li2 O2 2.036219 1_554
Li2 O1 2.036819 1_554
Li3 O3 2.036451 1_554
Li3 O2 2.036997 1_544
Li4 O0 2.036352 1_455
Li4 O1 2.036896 1_555
Li5 O1 2.036137 1_555
Li5 O2 2.036661 1_555
Li6 O2 2.036352 1_545
Li6 O3 2.036954 1_555
Li7 O3 2.036139 1_555
Li7 O0 2.036695 1_555
Ni0 O3 1.997623 1_554
Ni0 O1 1.998028 1_554
Ni1 O2 1.997427 1_554
Ni1 O0 1.998214 1_554
Ni2 O3 1.997360 1_454
Ni2 O1 1.998205 1_544
Ni3 O2 1.997199 1_544
Ni3 O0 1.998379 1_454
F0 Li2 2.003529 1_545
F0 Li0 2.003691 1_455
F0 Ni3 2.140833 1_555
F0 Ni2 2.142600 1_555
F0 Li8 2.144447 1_455
F0 Li9 2.145861 1_555
F1 Li1 2.003507 1_555
F1 Li3 2.003660 1_555
F1 Li9 2.144171 1_555
F1 Ni0 2.144654 1_555
F1 Li10 2.145634 1_555
F1 Ni3 2.145818 1_555
F2 Li0 2.003567 1_555
F2 Li2 2.003638 1_555
F2 Ni1 2.141029 1_555
F2 Ni0 2.141561 1_555
F2 Li10 2.144455 1_555
F2 Li11 2.145861 1_555
F3 Li3 2.003578 1_565
F3 Li1 2.003743 1_655
F3 Ni2 2.144071 1_665
F3 Li11 2.144072 1_555
F3 Ni1 2.145626 1_555
F3 Li8 2.145756 1_565
F4 Li6 2.003595 1_565
F4 Li4 2.003779 1_655
F4 Li12 2.144134 1_655
F4 Ni2 2.145312 1_666
F4 Ni1 2.145397 1_556
F4 Li15 2.145410 1_555
F5 Li5 2.003577 1_545
F5 Li7 2.003690 1_455
F5 Ni3 2.141649 1_556
F5 Ni2 2.142351 1_556
F5 Li13 2.144488 1_555
F5 Li12 2.146078 1_545
F6 Li4 2.003559 1_555
F6 Li6 2.003642 1_555
F6 Li14 2.143984 1_555
F6 Li13 2.145520 1_555
F6 Ni3 2.145692 1_556
F6 Ni0 2.146253 1_556
F7 Li7 2.003449 1_555
F7 Li5 2.003693 1_555
F7 Ni0 2.141699 1_556
F7 Ni1 2.141741 1_556
F7 Li15 2.144455 1_555
F7 Li14 2.146083 1_555
F8 Li9 1.998522 1_655
F8 Li11 1.998605 1_555
F8 Li17 2.035696 1_655
F8 Li16 2.035830 1_555
F8 Li1 2.215404 1_655
F8 Li0 2.216760 1_555
F9 Li8 1.998298 1_465
F9 Li10 1.998811 1_555
F9 Li18 2.035338 1_565
F9 Li17 2.035620 1_555
F9 Li2 2.215489 1_555
F9 Li1 2.217383 1_555
F10 Li11 1.998506 1_545
F10 Li9 1.998625 1_555
F10 Li19 2.035694 1_555
F10 Li18 2.035805 1_555
F10 Li3 2.215425 1_555
F10 Li2 2.216758 1_545
F11 Li10 1.998260 1_555
F11 Li8 1.998842 1_555
F11 Li16 2.035358 1_555
F11 Li19 2.035624 1_555
F11 Li0 2.215488 1_555
F11 Li3 2.217364 1_555
F12 Li15 1.998519 1_455
F12 Li13 1.998628 1_555
F12 Li23 2.035671 1_455
F12 Li20 2.035951 1_555
F12 Li7 2.215144 1_455
F12 Li4 2.217022 1_555
F13 Li14 1.998246 1_555
F13 Li12 1.998865 1_555
F13 Li20 2.035494 1_555
F13 Li21 2.035570 1_555
F13 Li4 2.215758 1_555
F13 Li5 2.217064 1_555
F14 Li13 1.998534 1_565
F14 Li15 1.998591 1_555
F14 Li21 2.035695 1_555
F14 Li22 2.035983 1_555
F14 Li5 2.215122 1_555
F14 Li6 2.216980 1_565
F15 Li12 1.998283 1_645
F15 Li14 1.998828 1_555
F15 Li22 2.035491 1_545
F15 Li23 2.035562 1_555
F15 Li6 2.215758 1_555
F15 Li7 2.217068 1_555
F16 Li16 1.998027 1_455
F16 Li18 1.998280 1_555
F16 Li8 2.023131 1_455
F16 Li9 2.024069 1_555
F16 Li20 2.104292 1_555
F16 Li23 2.106075 1_455
F17 Li17 1.997859 1_555
F17 Li19 1.998434 1_555
F17 Li9 2.022941 1_555
F17 Li10 2.023805 1_555
F17 Li21 2.104189 1_555
F17 Li20 2.106067 1_555
F18 Li18 1.998022 1_565
F18 Li16 1.998255 1_555
F18 Li10 2.023143 1_555
F18 Li11 2.024054 1_555
F18 Li22 2.104317 1_555
F18 Li21 2.106079 1_555
F19 Li19 1.997857 1_555
F19 Li17 1.998443 1_645
F19 Li11 2.022924 1_545
F19 Li8 2.023803 1_555
F19 Li23 2.104193 1_555
F19 Li22 2.106067 1_545
F20 Li20 1.998035 1_655
F20 Li22 1.998272 1_555
F20 Li12 2.022821 1_655
F20 Li15 2.023752 1_555
F20 Li16 2.104258 1_555
F20 Li17 2.106084 1_655
F21 Li21 1.997872 1_555
F21 Li23 1.998437 1_465
F21 Li13 2.023099 1_565
F21 Li12 2.023980 1_555
F21 Li17 2.104323 1_555
F21 Li18 2.106130 1_565
F22 Li22 1.998007 1_545
F22 Li20 1.998273 1_555
F22 Li14 2.022833 1_555
F22 Li13 2.023756 1_555
F22 Li18 2.104258 1_555
F22 Li19 2.106071 1_555
F23 Li23 1.997860 1_555
F23 Li21 1.998412 1_555
F23 Li15 2.023072 1_555
F23 Li14 2.024010 1_555
F23 Li19 2.104350 1_555
F23 Li16 2.106142 1_555
