# generated using pymatgen
data_Li5Fe8(BO3)8
_symmetry_space_group_name_H-M   'P 1'
_cell_length_a   5.27166700
_cell_length_b   9.04378802
_cell_length_c   11.42009248
_cell_angle_alpha   113.07253968
_cell_angle_beta   102.26797147
_cell_angle_gamma   89.82328080
_symmetry_Int_Tables_number   1
_chemical_formula_structural   Li5Fe8(BO3)8
_chemical_formula_sum   'Li5 Fe8 B8 O24'
_cell_volume   487.52108323
_cell_formula_units_Z   1
loop_
 _symmetry_equiv_pos_site_id
 _symmetry_equiv_pos_as_xyz
  1  'x, y, z'
loop_
 _atom_site_type_symbol
 _atom_site_label
 _atom_site_symmetry_multiplicity
 _atom_site_fract_x
 _atom_site_fract_y
 _atom_site_fract_z
 _atom_site_occupancy
  Li  Li0  1  0.16785500  0.84801300  0.66258000  1
  Li  Li1  1  0.35445200  0.70187100  0.39995000  1
  Li  Li2  1  0.60695400  0.94584200  0.90519400  1
  Li  Li3  1  0.92021400  0.56924800  0.15907200  1
  Li  Li4  1  0.42724100  0.07397200  0.16346200  1
  Fe  Fe0  1  0.40440400  0.72735800  0.12952900  1
  Fe  Fe1  1  0.08808400  0.76825700  0.87808300  1
  Fe  Fe2  1  0.84281800  0.86683700  0.38853300  1
  Fe  Fe3  1  0.65563200  0.63501000  0.62290300  1
  Fe  Fe4  1  0.35351800  0.34567300  0.38111900  1
  Fe  Fe5  1  0.14578100  0.16995100  0.63429900  1
  Fe  Fe6  1  0.90989500  0.22620000  0.13388100  1
  Fe  Fe7  1  0.60284000  0.27319000  0.87314700  1
  B  B0  1  0.64889500  0.97709100  0.63602800  1
  B  B1  1  0.88716300  0.88919100  0.12403300  1
  B  B2  1  0.14344900  0.49403800  0.62815100  1
  B  B3  1  0.40810600  0.39513200  0.12553300  1
  B  B4  1  0.85805400  0.52491400  0.37464500  1
  B  B5  1  0.59954000  0.60676200  0.88011600  1
  B  B6  1  0.34099600  0.01283400  0.37316500  1
  B  B7  1  0.11056000  0.10766300  0.87996300  1
  O  O0  1  0.13295000  0.86924700  0.09533200  1
  O  O1  1  0.44024700  0.85585200  0.32707700  1
  O  O2  1  0.22807900  0.96635700  0.86752100  1
  O  O3  1  0.51023800  0.83436600  0.61958700  1
  O  O4  1  0.88645900  0.96702600  0.60219400  1
  O  O5  1  0.78596700  0.78082000  0.16518600  1
  O  O6  1  0.28468700  0.53607600  0.14308500  1
  O  O7  1  0.03597100  0.64736400  0.66344900  1
  O  O8  1  0.68767700  0.71045900  0.82759700  1
  O  O9  1  0.63055100  0.54657900  0.42431500  1
  O  O10  1  0.97778000  0.65371900  0.36414600  1
  O  O11  1  0.39204200  0.65494000  0.94013700  1
  O  O12  1  0.64155800  0.37813800  0.08291900  1
  O  O13  1  0.37210300  0.48454500  0.58368100  1
  O  O14  1  0.30793300  0.27766400  0.15659900  1
  O  O15  1  0.95993200  0.37846700  0.33326100  1
  O  O16  1  0.71919900  0.47379800  0.87749100  1
  O  O17  1  0.23101000  0.22477500  0.85651600  1
  O  O18  1  0.14431800  0.03159800  0.43660600  1
  O  O19  1  0.45235000  0.12709600  0.34548400  1
  O  O20  1  0.02176700  0.37267600  0.63845300  1
  O  O21  1  0.74363000  0.00863700  0.10421900  1
  O  O22  1  0.54019800  0.12222200  0.68392700  1
  O  O23  1  0.86744900  0.12836100  0.91379100  1
loop_
_geom_bond_atom_site_label_1
_geom_bond_atom_site_label_2
_geom_bond_distance
_geom_bond_site_symmetry_2
Li0 O7 1.949659 1_555
Li0 O3 1.960051 1_555
Li0 O4 1.992934 1_455
Li0 O2 2.108780 1_555
Li1 O10 1.954615 1_455
Li1 O1 1.977017 1_555
Li1 O9 2.071207 1_555
Li1 O3 2.275225 1_555
Li2 O2 1.975814 1_555
Li2 O8 2.043054 1_555
Li2 O21 2.074254 1_566
Li2 O23 2.109453 1_565
Li3 O6 1.979299 1_655
Li3 O5 2.018614 1_555
Li3 O12 2.048435 1_555
Li3 O10 2.111302 1_555
Li4 O19 1.915741 1_555
Li4 O21 1.936205 1_555
Li4 O14 1.969847 1_555
Li4 O0 2.194513 1_545
Fe0 O6 1.916515 1_555
Fe0 O11 1.985271 1_554
Fe0 O5 1.987262 1_555
Fe0 O0 1.997729 1_555
Fe0 O1 2.059391 1_555
Fe1 O2 1.996072 1_555
Fe1 O11 2.048549 1_555
Fe1 O8 2.077157 1_455
Fe1 O7 2.212268 1_555
Fe1 O0 2.240847 1_556
Fe2 O10 1.988373 1_555
Fe2 O18 2.012590 1_665
Fe2 O1 2.078447 1_555
Fe2 O4 2.203978 1_555
Fe2 O5 2.306977 1_555
Fe3 O13 1.880605 1_555
Fe3 O7 1.952764 1_655
Fe3 O3 1.967773 1_555
Fe3 O9 2.062048 1_555
Fe3 O8 2.131035 1_555
Fe4 O19 1.948817 1_555
Fe4 O15 2.081593 1_455
Fe4 O13 2.136700 1_555
Fe4 O9 2.164531 1_555
Fe4 O14 2.348050 1_555
Fe5 O20 1.930967 1_555
Fe5 O18 2.107433 1_555
Fe5 O22 2.125129 1_555
Fe5 O4 2.155542 1_445
Fe5 O17 2.327753 1_555
Fe6 O21 2.028909 1_555
Fe6 O14 2.089720 1_655
Fe6 O15 2.107075 1_555
Fe6 O12 2.119634 1_555
Fe6 O23 2.273652 1_554
Fe7 O16 1.895691 1_555
Fe7 O17 1.962635 1_555
Fe7 O22 2.007427 1_555
Fe7 O23 2.016667 1_555
Fe7 O12 2.166272 1_556
B0 O4 1.379620 1_555
B0 O22 1.384246 1_565
B0 O3 1.411803 1_555
B1 O21 1.380016 1_565
B1 O5 1.391699 1_555
B1 O0 1.396969 1_655
B2 O20 1.329515 1_555
B2 O13 1.394123 1_555
B2 O7 1.435413 1_555
B3 O14 1.382687 1_555
B3 O6 1.392233 1_555
B3 O12 1.403482 1_555
B4 O15 1.370694 1_555
B4 O10 1.384145 1_555
B4 O9 1.413881 1_555
B5 O16 1.349042 1_555
B5 O11 1.392056 1_555
B5 O8 1.420239 1_555
B6 O18 1.360322 1_555
B6 O19 1.360515 1_555
B6 O1 1.446766 1_545
B7 O17 1.376716 1_555
B7 O2 1.388284 1_545
B7 O23 1.406779 1_455
