# generated using pymatgen
data_AlVO3
_symmetry_space_group_name_H-M   'P 1'
_cell_length_a   5.05776900
_cell_length_b   5.23369100
_cell_length_c   6.97899200
_cell_angle_alpha   90.00048714
_cell_angle_beta   89.99993318
_cell_angle_gamma   89.99945443
_symmetry_Int_Tables_number   1
_chemical_formula_structural   AlVO3
_chemical_formula_sum   'Al4 V4 O12'
_cell_volume   184.73950209
_cell_formula_units_Z   4
loop_
 _symmetry_equiv_pos_site_id
 _symmetry_equiv_pos_as_xyz
  1  'x, y, z'
loop_
 _atom_site_type_symbol
 _atom_site_label
 _atom_site_symmetry_multiplicity
 _atom_site_fract_x
 _atom_site_fract_y
 _atom_site_fract_z
 _atom_site_occupancy
  Al  Al0  1  0.99999900  0.50000000  0.00000000  1
  Al  Al1  1  0.99999800  0.50000100  0.50000000  1
  Al  Al2  1  0.50000200  0.00000000  0.99999900  1
  Al  Al3  1  0.50000100  0.99999800  0.50000100  1
  V  V0  1  0.99161000  0.94193800  0.75000600  1
  V  V1  1  0.50839800  0.44194200  0.74999400  1
  V  V2  1  0.49159800  0.55805600  0.25000000  1
  V  V3  1  0.00839400  0.05806200  0.25000100  1
  O  O0  1  0.11193200  0.43681300  0.25000200  1
  O  O1  1  0.16833900  0.17449700  0.55389700  1
  O  O2  1  0.16834000  0.17449600  0.94610000  1
  O  O3  1  0.33166000  0.67449500  0.94609900  1
  O  O4  1  0.33165700  0.67449800  0.55389800  1
  O  O5  1  0.38806300  0.93680900  0.25000300  1
  O  O6  1  0.61194200  0.06318700  0.74999600  1
  O  O7  1  0.66833800  0.32550300  0.44610300  1
  O  O8  1  0.66833800  0.32550600  0.05389900  1
  O  O9  1  0.83166500  0.82550700  0.05390000  1
  O  O10  1  0.83166200  0.82550400  0.44610400  1
  O  O11  1  0.88806300  0.56318900  0.74999800  1
loop_
_geom_bond_atom_site_label_1
_geom_bond_atom_site_label_2
_geom_bond_distance
_geom_bond_site_symmetry_2
Al0 O0 1.863886 1_655
Al0 O11 1.863892 1_554
Al0 O9 1.941288 1_555
Al0 O2 1.941290 1_654
Al0 O8 1.946648 1_555
Al0 O3 1.946653 1_654
Al1 O0 1.863856 1_655
Al1 O11 1.863857 1_555
Al1 O10 1.941275 1_555
Al1 O1 1.941292 1_655
Al1 O4 1.946643 1_655
Al1 O7 1.946649 1_555
Al2 O6 1.863904 1_555
Al2 O5 1.863913 1_546
Al2 O8 1.941302 1_556
Al2 O3 1.941311 1_545
Al2 O9 1.946643 1_546
Al2 O2 1.946643 1_555
Al3 O6 1.863851 1_565
Al3 O5 1.863866 1_555
Al3 O4 1.941294 1_555
Al3 O7 1.941303 1_565
Al3 O10 1.946628 1_555
Al3 O1 1.946643 1_565
O0 V2 2.022396 1_555
O0 V3 2.050275 1_555
O1 V0 2.038048 1_445
O1 V3 2.350304 1_555
O1 V1 2.605839 1_555
O2 V0 2.037965 1_445
O2 V3 2.350344 1_556
O2 V1 2.605882 1_555
O3 V1 2.038007 1_555
O3 V2 2.350334 1_556
O3 V0 2.605783 1_455
O4 V1 2.037996 1_555
O4 V2 2.350314 1_555
O4 V0 2.605805 1_455
O5 V3 2.022415 1_565
O5 V2 2.050272 1_555
O6 V0 2.022404 1_545
O6 V1 2.050294 1_555
O7 V2 2.038017 1_555
O7 V1 2.350264 1_555
O7 V3 2.605816 1_655
O8 V2 2.037983 1_555
O8 V1 2.350359 1_554
O8 V3 2.605839 1_655
O9 V3 2.037986 1_665
O9 V0 2.350294 1_554
O9 V2 2.605904 1_555
O10 V3 2.038024 1_665
O10 V0 2.350346 1_555
O10 V2 2.605889 1_555
O11 V1 2.022398 1_555
O11 V0 2.050277 1_555
