# generated using pymatgen
data_Li11V6O5F19
_symmetry_space_group_name_H-M   'P 1'
_cell_length_a   5.25983900
_cell_length_b   5.44687546
_cell_length_c   16.08301332
_cell_angle_alpha   98.73137142
_cell_angle_beta   90.04695735
_cell_angle_gamma   90.79737780
_symmetry_Int_Tables_number   1
_chemical_formula_structural   Li11V6O5F19
_chemical_formula_sum   'Li11 V6 O5 F19'
_cell_volume   455.38726656
_cell_formula_units_Z   1
loop_
 _symmetry_equiv_pos_site_id
 _symmetry_equiv_pos_as_xyz
  1  'x, y, z'
loop_
 _atom_site_type_symbol
 _atom_site_label
 _atom_site_symmetry_multiplicity
 _atom_site_fract_x
 _atom_site_fract_y
 _atom_site_fract_z
 _atom_site_occupancy
  Li  Li0  1  0.44704000  0.49315500  0.21443600  1
  Li  Li1  1  0.96226400  0.82240700  0.76912600  1
  Li  Li2  1  0.50427500  0.66927200  0.43496900  1
  Li  Li3  1  0.96408700  0.49934100  0.10041700  1
  Li  Li4  1  0.47049600  0.98243100  0.89743800  1
  Li  Li5  1  0.03926100  0.99790200  0.21518100  1
  Li  Li6  1  0.99489900  0.14111400  0.43527100  1
  Li  Li7  1  0.51376200  0.33393400  0.76955200  1
  Li  Li8  1  0.51466000  0.98534600  0.10445600  1
  Li  Li9  1  0.47718800  0.27313400  0.55227000  1
  Li  Li10  1  0.01637100  0.48581600  0.89387800  1
  V  V0  1  0.02321900  0.64930300  0.33773700  1
  V  V1  1  0.47595200  0.81120400  0.66763600  1
  V  V2  1  0.50960200  0.46203200  0.99700400  1
  V  V3  1  0.01028100  0.01849600  0.99934500  1
  V  V4  1  0.47801000  0.15382500  0.33698100  1
  V  V5  1  0.01153700  0.34044100  0.66665100  1
  O  O0  1  0.20067900  0.37553700  0.36639000  1
  O  O1  1  0.32822400  0.17451000  0.02608300  1
  O  O2  1  0.30962900  0.87269900  0.36542600  1
  O  O3  1  0.82587500  0.30672600  0.97101000  1
  O  O4  1  0.31236100  0.52874800  0.69886100  1
  F  F0  1  0.68965600  0.44833600  0.29935500  1
  F  F1  1  0.11265800  0.87332500  0.87936400  1
  F  F2  1  0.40274800  0.74254300  0.55146200  1
  F  F3  1  0.11026400  0.61696500  0.20823300  1
  F  F4  1  0.61194100  0.94412300  0.78332200  1
  F  F5  1  0.60900100  0.60346000  0.11775800  1
  F  F6  1  0.85532900  0.77644800  0.44451400  1
  F  F7  1  0.17176900  0.03509400  0.70620700  1
  F  F8  1  0.18812200  0.68778500  0.02813900  1
  F  F9  1  0.66705800  0.14505400  0.64494500  1
  F  F10  1  0.81380700  0.95822700  0.30173800  1
  F  F11  1  0.11993900  0.23094800  0.55222000  1
  F  F12  1  0.36938700  0.38471700  0.87868600  1
  F  F13  1  0.87400700  0.08505800  0.11710400  1
  F  F14  1  0.37452600  0.11859700  0.20956500  1
  F  F15  1  0.86721100  0.44453500  0.78313100  1
  F  F16  1  0.64099300  0.26704200  0.45248400  1
  F  F17  1  0.68435400  0.79415900  0.96667400  1
  F  F18  1  0.81654200  0.64235600  0.64553500  1
loop_
_geom_bond_atom_site_label_1
_geom_bond_atom_site_label_2
_geom_bond_distance
_geom_bond_site_symmetry_2
Li2 O2 1.983140 1_555
Li2 O0 2.390929 1_555
Li3 O3 2.296559 1_554
Li4 O1 2.302712 1_566
Li6 O0 2.102888 1_655
Li6 O2 2.389895 1_645
Li7 O4 1.984029 1_555
Li8 O1 2.008094 1_565
Li10 O3 1.958730 1_455
O0 V0 1.885170 1_555
O0 V4 1.920079 1_555
O1 V3 1.884693 1_554
O1 V2 1.939858 1_554
O2 V4 1.874574 1_565
O2 V0 1.931776 1_555
O3 V2 1.894913 1_555
O3 V3 1.967763 1_655
O4 V1 1.886271 1_555
O4 V5 1.901627 1_555
F0 Li0 1.913218 1_555
F0 V0 2.096937 1_655
F0 V4 2.103551 1_555
F0 Li2 2.528903 1_555
F1 Li1 1.920512 1_455
F1 Li4 1.973769 1_555
F1 V3 2.046728 1_565
F1 Li10 2.210458 1_555
F2 V1 1.887276 1_555
F2 Li2 1.932674 1_555
F3 Li3 1.911864 1_455
F3 Li0 1.912050 1_555
F3 Li5 2.099639 1_555
F3 V0 2.114518 1_555
F4 Li4 1.963610 1_555
F4 Li1 1.968686 1_555
F4 V1 2.017916 1_555
F4 Li7 2.235400 1_565
F5 Li0 1.943162 1_555
F5 Li3 1.967234 1_555
F5 V2 2.042398 1_554
F5 Li8 2.186874 1_555
F6 Li2 1.927745 1_555
F6 V0 1.966462 1_655
F6 Li6 2.134388 1_565
F7 Li1 1.975501 1_445
F7 V5 2.059270 1_555
F7 V1 2.063519 1_545
F7 Li7 2.516997 1_555
F8 Li3 2.030832 1_455
F8 V2 2.119989 1_554
F8 V3 2.152613 1_564
F8 Li10 2.436581 1_554
F8 Li8 2.529520 1_555
F9 Li9 2.009548 1_555
F9 V5 2.090451 1_655
F9 V1 2.145112 1_545
F9 Li7 2.263756 1_555
F10 Li5 1.864883 1_655
F10 V4 2.108701 1_565
F10 V0 2.173971 1_655
F10 Li6 2.415074 1_565
F11 Li9 1.889877 1_555
F11 V5 1.935405 1_555
F11 Li6 1.979731 1_455
F12 Li7 1.895931 1_555
F12 Li10 1.949109 1_555
F12 V2 2.021902 1_555
F12 Li4 2.325501 1_545
F13 Li5 1.924989 1_645
F13 Li8 1.961152 1_545
F13 V3 2.008268 1_654
F13 Li3 2.354324 1_555
F14 Li5 1.880449 1_545
F14 Li8 1.890024 1_545
F14 Li0 2.060019 1_555
F14 V4 2.099603 1_555
F15 Li10 1.926078 1_655
F15 Li7 1.948084 1_555
F15 V5 2.024605 1_655
F15 Li1 2.156216 1_555
F16 Li9 1.818214 1_555
F16 Li6 1.997746 1_555
F16 V4 2.049606 1_555
F16 Li2 2.372214 1_555
F17 Li4 1.983336 1_555
F17 V3 2.110311 1_665
F17 V2 2.139594 1_555
F17 Li8 2.473876 1_556
F18 V5 2.021773 1_655
F18 V1 2.032024 1_555
F18 Li1 2.210213 1_555
