# generated using pymatgen
data_VBO4
_symmetry_space_group_name_H-M   'P 1'
_cell_length_a   4.83705147
_cell_length_b   4.97784645
_cell_length_c   4.83705147
_cell_angle_alpha   60.93131538
_cell_angle_beta   90.00000000
_cell_angle_gamma   119.06867168
_symmetry_Int_Tables_number   1
_chemical_formula_structural   VBO4
_chemical_formula_sum   'V1 B1 O4'
_cell_volume   84.61988904
_cell_formula_units_Z   1
loop_
 _symmetry_equiv_pos_site_id
 _symmetry_equiv_pos_as_xyz
  1  'x, y, z'
loop_
 _atom_site_type_symbol
 _atom_site_label
 _atom_site_symmetry_multiplicity
 _atom_site_fract_x
 _atom_site_fract_y
 _atom_site_fract_z
 _atom_site_occupancy
  V  V0  1  -0.00000000  -0.00000000  0.00000000  1
  B  B0  1  0.75000000  0.50000000  0.75000000  1
  O  O0  1  0.40782383  0.26907057  0.96565473  1
  O  O1  1  0.76527370  0.73092943  0.40782383  1
  O  O2  1  0.86124674  0.26907057  0.76527370  1
  O  O3  1  0.96565473  0.73092943  0.86124674  1
loop_
_geom_bond_atom_site_label_1
_geom_bond_atom_site_label_2
_geom_bond_distance
_geom_bond_site_symmetry_2
B0 O3 1.461158 1_555
B0 O0 1.461159 1_555
B0 O2 1.461160 1_555
B0 O1 1.461160 1_555
O0 V0 1.711525 1_556
O1 V0 1.711527 1_665
O2 V0 1.711526 1_656
O3 V0 1.711525 1_666
