# generated using pymatgen
data_ZrNF5
_symmetry_space_group_name_H-M   'P 1'
_cell_length_a   8.51733200
_cell_length_b   8.09152400
_cell_length_c   8.52662757
_cell_angle_alpha   59.50545582
_cell_angle_beta   90.00000000
_cell_angle_gamma   90.00000000
_symmetry_Int_Tables_number   1
_chemical_formula_structural   ZrNF5
_chemical_formula_sum   'Zr4 N4 F20'
_cell_volume   506.35597857
_cell_formula_units_Z   4
loop_
 _symmetry_equiv_pos_site_id
 _symmetry_equiv_pos_as_xyz
  1  'x, y, z'
loop_
 _atom_site_type_symbol
 _atom_site_label
 _atom_site_symmetry_multiplicity
 _atom_site_fract_x
 _atom_site_fract_y
 _atom_site_fract_z
 _atom_site_occupancy
  Zr  Zr0  1  0.76026600  0.49939300  0.74642300  1
  Zr  Zr1  1  0.26026600  0.50060700  0.75357700  1
  Zr  Zr2  1  0.23973400  0.50060700  0.25357700  1
  Zr  Zr3  1  0.73973400  0.49939300  0.24642300  1
  N  N0  1  0.50896200  0.01332200  0.24069100  1
  N  N1  1  0.00896200  0.98667800  0.25930900  1
  N  N2  1  0.49103800  0.98667800  0.75930900  1
  N  N3  1  0.99103800  0.01332200  0.74069100  1
  F  F0  1  0.73612300  0.77407200  0.64573500  1
  F  F1  1  0.23612300  0.22592800  0.85426500  1
  F  F2  1  0.26387700  0.22592800  0.35426500  1
  F  F3  1  0.76387700  0.77407200  0.14573500  1
  F  F4  1  0.73523900  0.22484800  0.91000100  1
  F  F5  1  0.23523900  0.77515200  0.58999900  1
  F  F6  1  0.26476100  0.77515200  0.08999900  1
  F  F7  1  0.76476100  0.22484800  0.41000100  1
  F  F8  1  0.74769800  0.49942600  0.00469300  1
  F  F9  1  0.24769800  0.50057400  0.49530700  1
  F  F10  1  0.25230200  0.50057400  0.99530700  1
  F  F11  1  0.75230200  0.49942600  0.50469300  1
  F  F12  1  0.49609200  0.49876300  0.24910400  1
  F  F13  1  0.99609200  0.50123700  0.25089600  1
  F  F14  1  0.50390800  0.50123700  0.75089600  1
  F  F15  1  0.00390800  0.49876300  0.74910400  1
  F  F16  1  0.50006800  0.82101700  0.34564000  1
  F  F17  1  0.00006800  0.17898300  0.15436000  1
  F  F18  1  0.49993200  0.17898300  0.65436000  1
  F  F19  1  0.99993200  0.82101700  0.84564000  1
loop_
_geom_bond_atom_site_label_1
_geom_bond_atom_site_label_2
_geom_bond_distance
_geom_bond_site_symmetry_2
F0 Zr0 1.944887 1_555
F1 Zr1 1.944887 1_555
F2 Zr2 1.944887 1_555
F3 Zr3 1.944887 1_555
F4 Zr0 1.944520 1_555
F5 Zr1 1.944520 1_555
F6 Zr2 1.944520 1_555
F7 Zr3 1.944520 1_555
F8 Zr3 2.062122 1_555
F8 Zr0 2.204908 1_554
F9 Zr2 2.062122 1_555
F9 Zr1 2.204908 1_555
F10 Zr1 2.062122 1_555
F10 Zr2 2.204908 1_556
F11 Zr0 2.062122 1_555
F11 Zr3 2.204908 1_555
F12 Zr3 2.075283 1_555
F12 Zr2 2.184002 1_555
F13 Zr2 2.075283 1_655
F13 Zr3 2.184002 1_555
F14 Zr1 2.075283 1_555
F14 Zr0 2.184002 1_555
F15 Zr0 2.075283 1_455
F15 Zr1 2.184002 1_555
F16 N0 1.347060 1_565
F17 N1 1.347060 1_545
F18 N2 1.347060 1_545
F19 N3 1.347060 1_565
