# generated using pymatgen
data_LiFeSiO4
_symmetry_space_group_name_H-M   'P 1'
_cell_length_a   5.08246100
_cell_length_b   6.77752000
_cell_length_c   10.38572400
_cell_angle_alpha   90.00000000
_cell_angle_beta   90.00000000
_cell_angle_gamma   90.00000000
_symmetry_Int_Tables_number   1
_chemical_formula_structural   LiFeSiO4
_chemical_formula_sum   'Li4 Fe4 Si4 O16'
_cell_volume   357.75164523
_cell_formula_units_Z   4
loop_
 _symmetry_equiv_pos_site_id
 _symmetry_equiv_pos_as_xyz
  1  'x, y, z'
loop_
 _atom_site_type_symbol
 _atom_site_label
 _atom_site_symmetry_multiplicity
 _atom_site_fract_x
 _atom_site_fract_y
 _atom_site_fract_z
 _atom_site_occupancy
  Li  Li0  1  0.24543800  0.00694100  0.15001800  1
  Li  Li1  1  0.74543800  0.50694100  0.34998200  1
  Li  Li2  1  0.24543800  0.49305900  0.65001800  1
  Li  Li3  1  0.74543800  0.99305900  0.84998200  1
  Fe  Fe0  1  0.24717700  0.50834000  0.16899100  1
  Fe  Fe1  1  0.74717700  0.00834000  0.33100900  1
  Fe  Fe2  1  0.24717700  0.99166000  0.66899100  1
  Fe  Fe3  1  0.74717700  0.49166000  0.83100900  1
  Si  Si0  1  0.74926900  0.26560700  0.09319600  1
  Si  Si1  1  0.24926900  0.76560700  0.40680400  1
  Si  Si2  1  0.74926900  0.23439300  0.59319600  1
  Si  Si3  1  0.24926900  0.73439300  0.90680400  1
  O  O0  1  0.18886500  0.73467500  0.06222600  1
  O  O1  1  0.06921300  0.27335100  0.12072400  1
  O  O2  1  0.63173700  0.06295900  0.15949400  1
  O  O3  1  0.61415400  0.45513000  0.16803200  1
  O  O4  1  0.11415400  0.95513000  0.33196800  1
  O  O5  1  0.13173700  0.56295900  0.34050600  1
  O  O6  1  0.56921300  0.77335100  0.37927600  1
  O  O7  1  0.68886500  0.23467500  0.43777400  1
  O  O8  1  0.18886500  0.76532500  0.56222600  1
  O  O9  1  0.06921300  0.22664900  0.62072400  1
  O  O10  1  0.63173700  0.43704100  0.65949400  1
  O  O11  1  0.61415400  0.04487000  0.66803200  1
  O  O12  1  0.11415400  0.54487000  0.83196800  1
  O  O13  1  0.13173700  0.93704100  0.84050600  1
  O  O14  1  0.56921300  0.72664900  0.87927600  1
  O  O15  1  0.68886500  0.26532500  0.93777400  1
loop_
_geom_bond_atom_site_label_1
_geom_bond_atom_site_label_2
_geom_bond_distance
_geom_bond_site_symmetry_2
Li0 O2 2.002142 1_555
Li0 O4 2.034557 1_545
Li0 O1 2.038370 1_555
Li0 O0 2.078247 1_545
Li1 O5 2.002142 1_655
Li1 O3 2.034557 1_555
Li1 O6 2.038370 1_555
Li1 O7 2.078247 1_555
Li2 O10 2.002142 1_555
Li2 O12 2.034557 1_555
Li2 O9 2.038370 1_555
Li2 O8 2.078247 1_555
Li3 O13 2.002142 1_655
Li3 O11 2.034557 1_565
Li3 O14 2.038370 1_555
Li3 O15 2.078247 1_565
Fe0 O1 1.898924 1_555
Fe0 O3 1.899717 1_555
Fe0 O5 1.911630 1_555
Fe0 O0 1.915846 1_555
Fe1 O6 1.898924 1_545
Fe1 O4 1.899717 1_645
Fe1 O2 1.911630 1_555
Fe1 O7 1.915846 1_555
Fe2 O9 1.898924 1_565
Fe2 O11 1.899717 1_565
Fe2 O13 1.911630 1_555
Fe2 O8 1.915846 1_555
Fe3 O14 1.898924 1_555
Fe3 O12 1.899717 1_655
Fe3 O10 1.911630 1_555
Fe3 O15 1.915846 1_555
O0 Si3 1.643106 1_554
O1 Si0 1.651879 1_455
O2 Si0 1.648424 1_555
O3 Si0 1.650936 1_555
O4 Si1 1.650936 1_555
O5 Si1 1.648424 1_555
O6 Si1 1.651879 1_555
O7 Si2 1.643106 1_555
O8 Si1 1.643106 1_555
O9 Si2 1.651879 1_455
O10 Si2 1.648424 1_555
O11 Si2 1.650936 1_555
O12 Si3 1.650936 1_555
O13 Si3 1.648424 1_555
O14 Si3 1.651879 1_555
O15 Si0 1.643106 1_556
