# generated using pymatgen
data_Li6MnV3(PO4)6
_symmetry_space_group_name_H-M   'P 1'
_cell_length_a   8.66773000
_cell_length_b   8.67896786
_cell_length_c   8.71689285
_cell_angle_alpha   90.34722398
_cell_angle_beta   118.85155674
_cell_angle_gamma   119.08897627
_symmetry_Int_Tables_number   1
_chemical_formula_structural   Li6MnV3(PO4)6
_chemical_formula_sum   'Li6 Mn1 V3 P6 O24'
_cell_volume   476.44958939
_cell_formula_units_Z   1
loop_
 _symmetry_equiv_pos_site_id
 _symmetry_equiv_pos_as_xyz
  1  'x, y, z'
loop_
 _atom_site_type_symbol
 _atom_site_label
 _atom_site_symmetry_multiplicity
 _atom_site_fract_x
 _atom_site_fract_y
 _atom_site_fract_z
 _atom_site_occupancy
  Li  Li0  1  0.37110700  0.11005600  0.70982900  1
  Li  Li1  1  0.61732600  0.65450500  0.67923200  1
  Li  Li2  1  0.36936200  0.26478000  0.21285600  1
  Li  Li3  1  0.01489900  0.63507700  0.74724600  1
  Li  Li4  1  0.01552100  0.37427000  0.24834300  1
  Li  Li5  1  0.61684400  0.96199500  0.17758500  1
  Mn  Mn0  1  0.78977400  0.14673900  0.85654600  1
  V  V0  1  0.78977400  0.64284100  0.35812600  1
  V  V1  1  0.20453400  0.35817100  0.64045100  1
  V  V2  1  0.20438300  0.84715000  0.13895800  1
  P  P0  1  0.72159600  0.47000700  0.95411700  1
  P  P1  1  0.71803500  0.24763200  0.45514000  1
  P  P2  1  0.00333300  0.04816200  0.25535800  1
  P  P3  1  0.27456800  0.74965600  0.53791600  1
  P  P4  1  0.00089600  0.95565900  0.75397000  1
  P  P5  1  0.27817400  0.52762700  0.04194600  1
  O  O0  1  0.68063900  0.27187200  0.91745600  1
  O  O1  1  0.90407800  0.61800900  0.93879400  1
  O  O2  1  0.76401500  0.24736600  0.64738500  1
  O  O3  1  0.90767100  0.28726500  0.44447900  1
  O  O4  1  0.51768700  0.44847900  0.79355400  1
  O  O5  1  0.83259300  0.07491700  0.10244900  1
  O  O6  1  0.52173700  0.06626600  0.29537100  1
  O  O7  1  0.86946000  0.98941800  0.80607200  1
  O  O8  1  0.12535600  0.11044000  0.69485200  1
  O  O9  1  0.67351800  0.40152500  0.41645000  1
  O  O10  1  0.83146100  0.76131000  0.60104000  1
  O  O11  1  0.21641600  0.47891200  0.84217200  1
  O  O12  1  0.76636700  0.51757300  0.14516800  1
  O  O13  1  0.17557500  0.23244500  0.41903500  1
  O  O14  1  0.32985900  0.60275600  0.58345900  1
  O  O15  1  0.87815600  0.88660600  0.30850400  1
  O  O16  1  0.12824100  0.01691200  0.19300600  1
  O  O17  1  0.45603200  0.94240000  0.68010400  1
  O  O18  1  0.17260300  0.93958700  0.91765600  1
  O  O19  1  0.47233400  0.52591000  0.18425500  1
  O  O20  1  0.07905400  0.69815300  0.54545300  1
  O  O21  1  0.21818200  0.74129600  0.34053900  1
  O  O22  1  0.09542700  0.38656800  0.05939500  1
  O  O23  1  0.33141300  0.72868800  0.08464900  1
loop_
_geom_bond_atom_site_label_1
_geom_bond_atom_site_label_2
_geom_bond_distance
_geom_bond_site_symmetry_2
Li0 O17 1.986761 1_545
Li0 O0 2.016287 1_555
Li0 O8 2.071937 1_555
Li0 O4 2.494884 1_555
Li1 O14 2.001743 1_555
Li1 O4 2.070478 1_555
Li1 O10 2.079534 1_555
Li1 O7 2.428974 1_555
Li1 O1 2.596951 1_555
Li2 O9 1.981218 1_555
Li2 O19 2.061514 1_555
Li2 O16 2.073787 1_555
Li3 O20 2.088704 1_555
Li3 O10 2.260012 1_455
Li3 O1 2.268269 1_455
Li3 O18 2.353677 1_555
Li3 O11 2.548183 1_555
Li3 O23 2.617910 1_556
Li3 O9 2.653647 1_455
Li4 O22 2.057911 1_555
Li4 O5 2.211292 1_455
Li4 O3 2.288857 1_455
Li4 O13 2.311721 1_555
Li5 O23 2.012976 1_555
Li5 O6 2.020808 1_565
Li5 O5 2.072277 1_565
Li5 O15 2.411652 1_555
Mn0 O7 1.933362 1_545
Mn0 O0 1.957757 1_555
Mn0 O2 1.988161 1_555
Mn0 O22 2.133181 1_656
Mn0 O17 2.136279 1_545
Mn0 O5 2.143434 1_556
O0 P0 1.573364 1_555
O1 P0 1.549211 1_555
O1 V2 2.077560 1_656
O2 P1 1.524293 1_555
O3 P1 1.557820 1_555
O3 V1 2.030602 1_655
O4 P0 1.551135 1_555
O4 V1 2.045903 1_555
O5 P2 1.566809 1_655
O6 P1 1.547476 1_555
O6 V2 2.074776 1_545
O7 P4 1.553158 1_655
O8 P4 1.539390 1_545
O8 V1 2.051897 1_555
O9 P1 1.558052 1_555
O9 V0 2.028681 1_555
O10 P4 1.566435 1_655
O10 V0 2.131979 1_555
O11 P5 1.539218 1_556
O11 V1 1.974481 1_555
O12 P0 1.518773 1_554
O12 V0 2.016611 1_555
O13 P2 1.554819 1_555
O13 V1 2.054119 1_555
O14 P3 1.558648 1_555
O14 V1 2.055323 1_555
O15 P2 1.539991 1_665
O15 V0 2.001212 1_555
O16 P2 1.546858 1_555
O16 V2 2.016301 1_545
O17 P3 1.530876 1_555
O18 P4 1.557313 1_555
O18 V2 2.039999 1_556
O19 P5 1.543091 1_555
O19 V0 2.034542 1_555
O20 P3 1.564372 1_555
O20 V0 2.013112 1_455
O21 P3 1.535182 1_555
O21 V2 1.967108 1_555
O22 P5 1.542786 1_555
O23 P5 1.562024 1_555
O23 V2 2.022711 1_555
