# generated using pymatgen
data_Sr16V12O39
_symmetry_space_group_name_H-M   'P 1'
_cell_length_a   7.85984800
_cell_length_b   8.78278495
_cell_length_c   14.42090690
_cell_angle_alpha   79.46602032
_cell_angle_beta   82.13324729
_cell_angle_gamma   63.48039999
_symmetry_Int_Tables_number   1
_chemical_formula_structural   Sr16V12O39
_chemical_formula_sum   'Sr16 V12 O39'
_cell_volume   874.01003084
_cell_formula_units_Z   1
loop_
 _symmetry_equiv_pos_site_id
 _symmetry_equiv_pos_as_xyz
  1  'x, y, z'
loop_
 _atom_site_type_symbol
 _atom_site_label
 _atom_site_symmetry_multiplicity
 _atom_site_fract_x
 _atom_site_fract_y
 _atom_site_fract_z
 _atom_site_occupancy
  Sr  Sr0  1  0.92468000  0.84743700  0.59832300  1
  Sr  Sr1  1  0.88889100  0.77808700  0.86358300  1
  Sr  Sr2  1  0.40142800  0.77809800  0.86299100  1
  Sr  Sr3  1  0.42876500  0.84854700  0.59457700  1
  Sr  Sr4  1  0.85307000  0.70959200  0.13406300  1
  Sr  Sr5  1  0.82061800  0.64616800  0.40438000  1
  Sr  Sr6  1  0.33025200  0.64721000  0.40455400  1
  Sr  Sr7  1  0.37027800  0.71004700  0.13376400  1
  Sr  Sr8  1  0.67330600  0.35250100  0.59544100  1
  Sr  Sr9  1  0.63304200  0.29003000  0.86326100  1
  Sr  Sr10  1  0.14464700  0.29049500  0.86339000  1
  Sr  Sr11  1  0.17513000  0.35536800  0.59538700  1
  Sr  Sr12  1  0.59589800  0.22342000  0.13392600  1
  Sr  Sr13  1  0.56767100  0.15123400  0.40549600  1
  Sr  Sr14  1  0.11367100  0.22304500  0.13391000  1
  Sr  Sr15  1  0.07881100  0.15038400  0.40537700  1
  V  V0  1  0.96352600  0.92678200  0.29263900  1
  V  V1  1  0.46517100  0.93084600  0.27687000  1
  V  V2  1  0.78655700  0.56644800  0.71802700  1
  V  V3  1  0.28395800  0.57391500  0.71793100  1
  V  V4  1  0.71560500  0.42848500  0.27916300  1
  V  V5  1  0.25001400  0.49969000  0.00066800  1
  V  V6  1  0.74968700  0.50017900  0.00056400  1
  V  V7  1  0.21425000  0.43138100  0.27938500  1
  V  V8  1  0.53424200  0.07011900  0.72043400  1
  V  V9  1  0.03563000  0.07077200  0.71759400  1
  V  V10  1  0.00165900  0.00311900  0.98735700  1
  V  V11  1  0.49993600  0.00007000  0.00006300  1
  O  O0  1  0.94684400  0.89448300  0.42355900  1
  O  O1  1  0.66277300  0.81115900  0.72586500  1
  O  O2  1  0.48337600  0.96664700  0.13346300  1
  O  O3  1  0.19816600  0.93318200  0.26694500  1
  O  O4  1  0.73517900  0.93310100  0.26719500  1
  O  O5  1  0.16520800  0.80913000  0.72149900  1
  O  O6  1  0.44766100  0.89513100  0.41887500  1
  O  O7  1  0.77027000  0.52302700  0.86841900  1
  O  O8  1  0.62718200  0.74785300  0.99803000  1
  O  O9  1  0.80107100  0.60762600  0.57833700  1
  O  O10  1  0.53448700  0.56892600  0.72425100  1
  O  O11  1  0.26137700  0.54344600  0.86880800  1
  O  O12  1  0.03457300  0.56877700  0.72433400  1
  O  O13  1  0.09114300  0.68273400  0.27222800  1
  O  O14  1  0.11525500  0.76259100  0.01426200  1
  O  O15  1  0.59121900  0.67858700  0.27575700  1
  O  O16  1  0.30543400  0.60130000  0.57835500  1
  O  O17  1  0.90493500  0.32989500  0.72177000  1
  O  O18  1  0.96692900  0.42975500  0.27658000  1
  O  O19  1  0.49989800  0.49948000  0.00214200  1
  O  O20  1  0.99923100  0.49927700  0.00326600  1
  O  O21  1  0.69803300  0.39394600  0.41798200  1
  O  O22  1  0.73299400  0.46663100  0.13693900  1
  O  O23  1  0.23288200  0.46524900  0.13661000  1
  O  O24  1  0.46447000  0.43178500  0.27645500  1
  O  O25  1  0.40560800  0.32599400  0.72616300  1
  O  O26  1  0.19777300  0.39651800  0.41818600  1
  O  O27  1  0.88131600  0.23071300  0.01376800  1
  O  O28  1  0.77531000  0.06912000  0.72347700  1
  O  O29  1  0.84175200  0.18198100  0.27191700  1
  O  O30  1  0.05288700  0.10645400  0.57882900  1
  O  O31  1  0.51679700  0.03350700  0.86610900  1
  O  O32  1  0.01793700  0.03478100  0.85909800  1
  O  O33  1  0.37341900  0.25328100  0.99796400  1
  O  O34  1  0.55136400  0.10564000  0.58076100  1
  O  O35  1  0.33985500  0.18245300  0.27581300  1
  O  O36  1  0.29371600  0.06938400  0.72366500  1
  O  O37  1  0.75364600  0.99883300  0.00543800  1
  O  O38  1  0.24489800  0.99867400  0.00566400  1
loop_
_geom_bond_atom_site_label_1
_geom_bond_atom_site_label_2
_geom_bond_distance
_geom_bond_site_symmetry_2
O0 V0 1.852506 1_555
O0 Sr0 2.473075 1_555
O0 Sr15 2.826280 1_665
O0 Sr6 2.831978 1_655
O0 Sr13 2.833906 1_565
O0 Sr5 2.836366 1_555
O1 V2 1.941650 1_555
O1 V8 2.025895 1_565
O1 Sr0 2.656515 1_555
O1 Sr3 2.694784 1_555
O1 Sr2 2.724878 1_555
O1 Sr1 2.735243 1_555
O2 V11 1.887596 1_565
O2 V1 2.029193 1_555
O2 Sr7 2.766513 1_555
O2 Sr12 2.767000 1_565
O2 Sr14 2.769758 1_565
O2 Sr4 2.771620 1_555
O3 V0 1.854603 1_455
O3 V1 2.113719 1_555
O3 Sr14 2.766931 1_565
O3 Sr7 2.767097 1_555
O3 Sr6 2.781573 1_555
O3 Sr15 2.790357 1_565
O4 V0 1.855478 1_555
O4 V1 2.116401 1_555
O4 Sr4 2.768527 1_555
O4 Sr12 2.772178 1_565
O4 Sr5 2.782990 1_555
O4 Sr13 2.794155 1_565
O5 V3 1.856168 1_555
O5 V9 2.049245 1_565
O5 Sr0 2.641071 1_455
O5 Sr3 2.670575 1_555
O5 Sr2 2.840187 1_555
O5 Sr1 2.845310 1_455
O6 V1 2.009357 1_555
O6 Sr3 2.486305 1_555
O6 Sr6 2.765222 1_555
O6 Sr15 2.767580 1_565
O6 Sr13 2.769924 1_565
O6 Sr5 2.773685 1_555
O7 V6 1.871556 1_556
O7 V2 2.128532 1_555
O7 Sr9 2.721240 1_555
O7 Sr10 2.732023 1_655
O7 Sr2 2.761802 1_555
O7 Sr1 2.771739 1_555
O8 V6 1.941753 1_556
O8 V11 1.986300 1_566
O8 Sr1 2.696045 1_555
O8 Sr4 2.700568 1_556
O8 Sr7 2.701503 1_556
O8 Sr2 2.710566 1_555
O9 V2 1.977220 1_555
O9 Sr5 2.462072 1_555
O9 Sr3 2.749433 1_555
O9 Sr0 2.754822 1_555
O9 Sr11 2.791910 1_655
O9 Sr8 2.798137 1_555
O10 V2 1.961464 1_555
O10 V3 1.964250 1_555
O10 Sr8 2.671749 1_555
O10 Sr3 2.672540 1_555
O10 Sr2 2.743571 1_555
O10 Sr9 2.748433 1_555
O11 V5 1.867749 1_556
O11 V3 2.135640 1_555
O11 Sr2 2.720926 1_555
O11 Sr1 2.727576 1_455
O11 Sr10 2.772497 1_555
O11 Sr9 2.772853 1_555
O12 V3 1.969920 1_555
O12 V2 1.973208 1_455
O12 Sr0 2.637009 1_455
O12 Sr11 2.656002 1_555
O12 Sr10 2.745531 1_555
O12 Sr1 2.750201 1_455
O13 V7 1.963880 1_555
O13 V0 1.979125 1_455
O13 Sr6 2.740656 1_555
O13 Sr5 2.744612 1_455
O13 Sr7 2.820240 1_555
O13 Sr4 2.825170 1_455
O14 V10 1.876484 1_564
O14 V5 2.101540 1_555
O14 Sr7 2.651294 1_555
O14 Sr4 2.652551 1_455
O14 Sr1 2.939314 1_454
O14 Sr2 2.942508 1_554
O15 V4 1.959386 1_555
O15 V1 1.984667 1_555
O15 Sr6 2.647219 1_555
O15 Sr5 2.652635 1_555
O15 Sr7 2.760973 1_555
O15 Sr4 2.762445 1_555
O16 V3 1.975853 1_555
O16 Sr6 2.459554 1_555
O16 Sr11 2.736304 1_555
O16 Sr8 2.748064 1_555
O16 Sr3 2.799548 1_555
O16 Sr0 2.815433 1_455
O17 V2 1.852436 1_555
O17 V9 2.045410 1_655
O17 Sr11 2.664115 1_655
O17 Sr8 2.669388 1_555
O17 Sr10 2.837818 1_655
O17 Sr9 2.840105 1_555
O18 V7 1.956306 1_655
O18 V4 1.975595 1_555
O18 Sr5 2.660923 1_555
O18 Sr15 2.664111 1_655
O18 Sr14 2.775888 1_655
O18 Sr4 2.785275 1_555
O19 V6 1.963059 1_555
O19 V5 1.966247 1_555
O19 Sr7 2.670677 1_555
O19 Sr12 2.670888 1_555
O19 Sr9 2.746730 1_554
O19 Sr2 2.748133 1_554
O20 V6 1.963547 1_555
O20 V5 1.967952 1_655
O20 Sr4 2.659943 1_555
O20 Sr14 2.662394 1_655
O20 Sr1 2.753950 1_554
O20 Sr10 2.754511 1_654
O21 V4 1.964273 1_555
O21 Sr8 2.511133 1_555
O21 Sr5 2.751246 1_555
O21 Sr6 2.755934 1_555
O21 Sr13 2.787061 1_555
O21 Sr15 2.800405 1_655
O22 V6 1.929705 1_555
O22 V4 2.012569 1_555
O22 Sr4 2.683508 1_555
O22 Sr7 2.693952 1_555
O22 Sr14 2.795242 1_655
O22 Sr12 2.797860 1_555
O23 V5 1.923568 1_555
O23 V7 2.020299 1_555
O23 Sr14 2.687885 1_555
O23 Sr12 2.691045 1_555
O23 Sr4 2.792622 1_455
O23 Sr7 2.796325 1_555
O24 V7 1.962932 1_555
O24 V4 1.966768 1_555
O24 Sr6 2.658437 1_555
O24 Sr13 2.672839 1_555
O24 Sr7 2.778058 1_555
O24 Sr12 2.783288 1_555
O25 V3 1.935691 1_555
O25 V8 2.023704 1_555
O25 Sr8 2.688159 1_555
O25 Sr11 2.691612 1_555
O25 Sr9 2.727453 1_555
O25 Sr10 2.730354 1_555
O26 V7 1.964034 1_555
O26 Sr11 2.507512 1_555
O26 Sr13 2.744528 1_555
O26 Sr15 2.753147 1_555
O26 Sr6 2.793515 1_555
O26 Sr5 2.798640 1_455
O27 V10 1.877953 1_654
O27 V6 2.100077 1_555
O27 Sr14 2.656166 1_655
O27 Sr12 2.657609 1_555
O27 Sr10 2.930487 1_654
O27 Sr9 2.937398 1_554
O28 V8 1.897336 1_555
O28 V9 2.042640 1_655
O28 Sr0 2.662726 1_545
O28 Sr8 2.681321 1_555
O28 Sr9 2.820259 1_555
O28 Sr1 2.824968 1_545
O29 V4 1.954128 1_555
O29 V0 1.986639 1_545
O29 Sr15 2.752717 1_655
O29 Sr13 2.760025 1_555
O29 Sr14 2.814295 1_655
O29 Sr12 2.825991 1_555
O30 V9 1.963527 1_555
O30 Sr15 2.454562 1_555
O30 Sr8 2.804363 1_455
O30 Sr11 2.808715 1_555
O30 Sr3 2.816051 1_545
O30 Sr0 2.829368 1_445
O31 V11 1.895434 1_556
O31 V8 2.061297 1_555
O31 Sr9 2.776069 1_555
O31 Sr2 2.778622 1_545
O31 Sr1 2.780094 1_545
O31 Sr10 2.784807 1_555
O32 V10 1.814853 1_555
O32 V9 2.002273 1_555
O32 Sr1 2.843664 1_445
O32 Sr2 2.846515 1_545
O32 Sr10 2.846890 1_555
O32 Sr9 2.850329 1_455
O33 V5 1.942130 1_556
O33 V11 1.986016 1_556
O33 Sr14 2.698176 1_556
O33 Sr10 2.702732 1_555
O33 Sr12 2.704047 1_556
O33 Sr9 2.704717 1_555
O34 V8 1.976365 1_555
O34 Sr13 2.480328 1_555
O34 Sr8 2.782674 1_555
O34 Sr3 2.791550 1_545
O34 Sr11 2.793959 1_555
O34 Sr0 2.804941 1_545
O35 V7 1.963905 1_555
O35 V1 1.975281 1_545
O35 Sr15 2.656002 1_555
O35 Sr13 2.658875 1_555
O35 Sr12 2.759778 1_555
O35 Sr14 2.763752 1_555
O36 V8 1.887557 1_555
O36 V9 2.036869 1_555
O36 Sr11 2.698536 1_555
O36 Sr3 2.700891 1_545
O36 Sr2 2.819685 1_545
O36 Sr10 2.820762 1_555
O37 V10 1.947345 1_664
O37 V11 2.001326 1_565
O37 Sr12 2.717502 1_565
O37 Sr4 2.721349 1_555
O37 Sr1 2.843951 1_554
O37 Sr9 2.844830 1_564
O38 V10 1.947827 1_564
O38 V11 2.000550 1_565
O38 Sr14 2.713448 1_565
O38 Sr7 2.713848 1_555
O38 Sr10 2.848818 1_564
O38 Sr2 2.852352 1_554
