# generated using pymatgen
data_Li2MnFeO4
_symmetry_space_group_name_H-M   'P 1'
_cell_length_a   5.22875839
_cell_length_b   5.22875839
_cell_length_c   5.22875839
_cell_angle_alpha   133.21610306
_cell_angle_beta   133.21610306
_cell_angle_gamma   68.31497442
_symmetry_Int_Tables_number   1
_chemical_formula_structural   Li2MnFeO4
_chemical_formula_sum   'Li2 Mn1 Fe1 O4'
_cell_volume   74.58384331
_cell_formula_units_Z   1
loop_
 _symmetry_equiv_pos_site_id
 _symmetry_equiv_pos_as_xyz
  1  'x, y, z'
loop_
 _atom_site_type_symbol
 _atom_site_label
 _atom_site_symmetry_multiplicity
 _atom_site_fract_x
 _atom_site_fract_y
 _atom_site_fract_z
 _atom_site_occupancy
  Li  Li0  1  0.25000000  0.75000000  0.50000000  1
  Li  Li1  1  0.50000000  0.50000000  0.00000000  1
  Mn  Mn0  1  0.00000000  0.00000000  0.00000000  1
  Fe  Fe0  1  0.75000000  0.25000000  0.50000000  1
  O  O0  1  0.51680200  0.01680200  0.50000000  1
  O  O1  1  0.23197100  0.23197100  0.00000000  1
  O  O2  1  0.98319800  0.48319800  0.50000000  1
  O  O3  1  0.76802900  0.76802900  0.00000000  1
loop_
_geom_bond_atom_site_label_1
_geom_bond_atom_site_label_2
_geom_bond_distance
_geom_bond_site_symmetry_2
Li0 O3 2.081770 1_455
Li0 O3 2.081770 1_556
Li0 O1 2.081770 1_555
Li0 O1 2.081770 1_566
Li0 O0 2.308789 1_565
Li0 O2 2.308789 1_455
Li1 O0 2.081002 1_565
Li1 O0 2.081002 1_554
Li1 O2 2.081002 1_454
Li1 O2 2.081002 1_555
Li1 O3 2.319407 1_555
Li1 O1 2.319407 1_555
Mn0 O1 2.007377 1_555
Mn0 O3 2.007377 1_445
Mn0 O0 2.081002 1_555
Mn0 O0 2.081002 1_454
Mn0 O2 2.081002 1_455
Mn0 O2 2.081002 1_444
Fe0 O2 2.017995 1_555
Fe0 O0 2.017995 1_555
Fe0 O3 2.081770 1_545
Fe0 O3 2.081770 1_556
Fe0 O1 2.081770 1_555
Fe0 O1 2.081770 1_656
