# generated using pymatgen
data_Li4Y3CrO8
_symmetry_space_group_name_H-M   'P 1'
_cell_length_a   5.87990064
_cell_length_b   5.87989001
_cell_length_c   24.74103200
_cell_angle_alpha   89.99954457
_cell_angle_beta   89.99960566
_cell_angle_gamma   63.31440844
_symmetry_Int_Tables_number   1
_chemical_formula_structural   Li4Y3CrO8
_chemical_formula_sum   'Li16 Y12 Cr4 O32'
_cell_volume   764.26496520
_cell_formula_units_Z   4
loop_
 _symmetry_equiv_pos_site_id
 _symmetry_equiv_pos_as_xyz
  1  'x, y, z'
loop_
 _atom_site_type_symbol
 _atom_site_label
 _atom_site_symmetry_multiplicity
 _atom_site_fract_x
 _atom_site_fract_y
 _atom_site_fract_z
 _atom_site_occupancy
  Li  Li0  1  0.00003600  0.99996200  0.12500000  1
  Li  Li1  1  0.00003600  0.99996200  0.37500000  1
  Li  Li2  1  0.00003700  0.99996100  0.62499900  1
  Li  Li3  1  0.00003600  0.99996200  0.87499900  1
  Li  Li4  1  0.50002700  0.49997300  0.00000000  1
  Li  Li5  1  0.50002700  0.49997400  0.25000600  1
  Li  Li6  1  0.50002700  0.49997500  0.49999600  1
  Li  Li7  1  0.50002700  0.49997400  0.75000200  1
  Li  Li8  1  0.49999900  0.99996800  0.18673800  1
  Li  Li9  1  0.49999800  0.99996800  0.43672500  1
  Li  Li10  1  0.49999900  0.99996900  0.68672500  1
  Li  Li11  1  0.49999800  0.99996900  0.93672500  1
  Li  Li12  1  0.00003700  0.50000600  0.06327700  1
  Li  Li13  1  0.00003700  0.50000600  0.31327700  1
  Li  Li14  1  0.00003600  0.50000700  0.56326300  1
  Li  Li15  1  0.00003600  0.50000600  0.81327700  1
  Y  Y0  1  0.50000800  0.49999500  0.12500100  1
  Y  Y1  1  0.50000400  0.49999700  0.37500000  1
  Y  Y2  1  0.50000700  0.49999700  0.62499800  1
  Y  Y3  1  0.50000800  0.49999400  0.87500000  1
  Y  Y4  1  0.00000100  0.49999400  0.18955900  1
  Y  Y5  1  0.00000000  0.49999300  0.43955200  1
  Y  Y6  1  0.99999700  0.49999500  0.68955700  1
  Y  Y7  1  0.99999900  0.49999000  0.93955200  1
  Y  Y8  1  0.50000400  0.00000300  0.06044200  1
  Y  Y9  1  0.50000200  0.00000300  0.31044700  1
  Y  Y10  1  0.50000500  0.00000300  0.56044100  1
  Y  Y11  1  0.50000300  0.00000300  0.81044800  1
  Cr  Cr0  1  0.00001700  0.99998500  0.75000000  1
  Cr  Cr1  1  0.00000900  0.99997600  0.99999600  1
  Cr  Cr2  1  0.00001000  0.99998700  0.25000600  1
  Cr  Cr3  1  0.00000500  0.99999200  0.50000000  1
  O  O0  1  0.72506400  0.72520400  0.12502000  1
  O  O1  1  0.72501500  0.72518400  0.37502000  1
  O  O2  1  0.72503000  0.72523700  0.62501900  1
  O  O3  1  0.72504300  0.72522000  0.87502000  1
  O  O4  1  0.27476500  0.27497700  0.12498000  1
  O  O5  1  0.27481100  0.27499700  0.37498000  1
  O  O6  1  0.27479600  0.27494300  0.62498000  1
  O  O7  1  0.27478100  0.27496000  0.87498000  1
  O  O8  1  0.20672100  0.20660300  0.24999900  1
  O  O9  1  0.20667400  0.20665400  0.49998400  1
  O  O10  1  0.20670800  0.20664500  0.74999800  1
  O  O11  1  0.20671300  0.20663800  0.99998400  1
  O  O12  1  0.79334900  0.79329600  0.99999900  1
  O  O13  1  0.79334100  0.79333000  0.25001500  1
  O  O14  1  0.79338800  0.79328000  0.50000000  1
  O  O15  1  0.79335200  0.79329300  0.75001400  1
  O  O16  1  0.77224400  0.25672700  0.19085600  1
  O  O17  1  0.77218600  0.25684100  0.44084200  1
  O  O18  1  0.77219500  0.25675700  0.69084400  1
  O  O19  1  0.77219800  0.25677100  0.94083900  1
  O  O20  1  0.22775200  0.74326700  0.19085400  1
  O  O21  1  0.22780700  0.74315100  0.44084100  1
  O  O22  1  0.22779600  0.74323700  0.69084300  1
  O  O23  1  0.22779600  0.74321900  0.94083700  1
  O  O24  1  0.25675800  0.77220400  0.05915700  1
  O  O25  1  0.25684000  0.77219000  0.30916100  1
  O  O26  1  0.25673100  0.77224800  0.55914700  1
  O  O27  1  0.25677500  0.77220400  0.80916300  1
  O  O28  1  0.74324400  0.22779900  0.05915400  1
  O  O29  1  0.74316200  0.22781200  0.30915800  1
  O  O30  1  0.74327100  0.22775800  0.55914400  1
  O  O31  1  0.74322600  0.22780100  0.80916100  1
loop_
_geom_bond_atom_site_label_1
_geom_bond_atom_site_label_2
_geom_bond_distance
_geom_bond_site_symmetry_2
Li0 O24 2.215863 1_555
Li0 O20 2.215921 1_555
Li0 O28 2.216224 1_465
Li0 O16 2.216264 1_465
Li1 O25 2.216012 1_555
Li1 O21 2.216061 1_555
Li1 O29 2.216372 1_465
Li1 O17 2.216386 1_465
Li2 O26 2.215880 1_555
Li2 O22 2.215885 1_555
Li2 O18 2.216226 1_465
Li2 O30 2.216255 1_465
Li3 O27 2.215776 1_555
Li3 O23 2.215823 1_555
Li3 O31 2.216125 1_465
Li3 O19 2.216160 1_465
Li4 O28 2.166233 1_555
Li4 O19 2.166316 1_554
Li4 O24 2.166536 1_555
Li4 O23 2.166590 1_554
Li5 O29 2.166010 1_555
Li5 O25 2.166305 1_555
Li5 O16 2.166339 1_555
Li5 O20 2.166611 1_555
Li6 O17 2.166037 1_555
Li6 O21 2.166293 1_555
Li6 O30 2.166297 1_555
Li6 O26 2.166597 1_555
Li7 O31 2.166279 1_555
Li7 O18 2.166287 1_555
Li7 O22 2.166556 1_555
Li7 O27 2.166567 1_555
Li8 O0 2.184652 1_555
Li8 O4 2.186283 1_565
Li8 O8 2.240024 1_565
Li8 O13 2.240505 1_555
Li8 O20 2.649769 1_555
Li8 O16 2.650049 1_565
Li9 O1 2.184405 1_555
Li9 O5 2.186038 1_565
Li9 O9 2.240191 1_565
Li9 O14 2.240677 1_555
Li9 O21 2.650060 1_555
Li9 O17 2.650324 1_565
Li10 O2 2.184301 1_555
Li10 O6 2.185913 1_565
Li10 O10 2.240319 1_565
Li10 O15 2.240791 1_555
Li10 O22 2.649702 1_555
Li10 O18 2.649946 1_565
Li11 O3 2.184353 1_555
Li11 O7 2.185982 1_565
Li11 O11 2.240050 1_565
Li11 O12 2.240522 1_555
Li11 O23 2.649780 1_555
Li11 O19 2.650031 1_565
Li12 O4 2.184234 1_555
Li12 O0 2.185870 1_455
Li12 O12 2.240413 1_454
Li12 O11 2.240907 1_554
Li12 O24 2.649624 1_555
Li12 O28 2.650030 1_455
Li13 O5 2.184328 1_555
Li13 O1 2.185973 1_455
Li13 O13 2.240251 1_455
Li13 O8 2.240765 1_555
Li13 O25 2.649955 1_555
Li13 O29 2.650366 1_455
Li14 O6 2.184620 1_555
Li14 O2 2.186237 1_455
Li14 O14 2.240055 1_455
Li14 O9 2.240575 1_555
Li14 O26 2.649709 1_555
Li14 O30 2.650100 1_455
Li15 O7 2.184308 1_555
Li15 O3 2.185951 1_455
Li15 O15 2.240140 1_455
Li15 O10 2.240639 1_555
Li15 O27 2.649707 1_555
Li15 O31 2.650097 1_455
Cr0 O10 2.068816 1_565
Cr0 O15 2.068846 1_455
Cr0 O22 2.097359 1_555
Cr0 O18 2.097479 1_465
Cr0 O27 2.097490 1_555
Cr0 O31 2.097605 1_465
Cr1 O12 2.068761 1_455
Cr1 O11 2.068891 1_565
Cr1 O24 2.097416 1_556
Cr1 O23 2.097431 1_555
Cr1 O28 2.097500 1_466
Cr1 O19 2.097534 1_465
Cr2 O13 2.068691 1_455
Cr2 O8 2.068696 1_565
Cr2 O20 2.097133 1_555
Cr2 O16 2.097190 1_465
Cr2 O25 2.097565 1_555
Cr2 O29 2.097611 1_465
Cr3 O14 2.068706 1_455
Cr3 O9 2.068716 1_565
Cr3 O26 2.097064 1_555
Cr3 O30 2.097074 1_465
Cr3 O21 2.097673 1_555
Cr3 O17 2.097704 1_465
O0 Y4 2.234684 1_655
O0 Y8 2.234763 1_565
O0 Y0 2.253570 1_555
O1 Y9 2.234654 1_565
O1 Y5 2.234660 1_655
O1 Y1 2.253235 1_555
O2 Y10 2.234619 1_565
O2 Y6 2.234797 1_555
O2 Y2 2.253560 1_555
O3 Y11 2.234582 1_565
O3 Y7 2.234643 1_555
O3 Y3 2.253550 1_555
O4 Y4 2.234622 1_555
O4 Y8 2.234813 1_555
O4 Y0 2.253550 1_555
O5 Y5 2.234591 1_555
O5 Y9 2.234703 1_555
O5 Y1 2.253210 1_555
O6 Y10 2.234692 1_555
O6 Y6 2.234736 1_455
O6 Y2 2.253570 1_555
O7 Y7 2.234567 1_455
O7 Y11 2.234635 1_555
O7 Y3 2.253550 1_555
O8 Y9 2.191932 1_555
O8 Y4 2.192281 1_555
O9 Y5 2.191927 1_555
O9 Y10 2.192303 1_555
O10 Y11 2.192060 1_555
O10 Y6 2.192157 1_455
O11 Y7 2.192015 1_455
O11 Y8 2.192174 1_556
O12 Y7 2.192055 1_555
O12 Y8 2.192174 1_566
O13 Y9 2.191929 1_565
O13 Y4 2.192313 1_655
O14 Y5 2.191967 1_655
O14 Y10 2.192279 1_565
O15 Y11 2.192038 1_565
O15 Y6 2.192192 1_555
O16 Y0 2.281768 1_555
O16 Y4 2.358173 1_655
O17 Y1 2.281199 1_555
O17 Y5 2.357869 1_655
O18 Y2 2.281439 1_555
O18 Y6 2.358245 1_555
O19 Y3 2.281289 1_555
O19 Y7 2.358144 1_555
O20 Y0 2.281790 1_555
O20 Y4 2.358173 1_555
O21 Y1 2.281216 1_555
O21 Y5 2.357865 1_555
O22 Y2 2.281478 1_555
O22 Y6 2.358250 1_455
O23 Y3 2.281312 1_555
O23 Y7 2.358174 1_455
O24 Y0 2.281471 1_555
O24 Y8 2.358270 1_565
O25 Y1 2.281186 1_555
O25 Y9 2.357914 1_565
O26 Y2 2.281746 1_555
O26 Y10 2.358198 1_565
O27 Y3 2.281319 1_555
O27 Y11 2.358179 1_565
O28 Y0 2.281471 1_555
O28 Y8 2.358226 1_555
O29 Y1 2.281212 1_555
O29 Y9 2.357885 1_555
O30 Y2 2.281752 1_555
O30 Y10 2.358158 1_555
O31 Y3 2.281289 1_555
O31 Y11 2.358149 1_555
