# generated using pymatgen
data_NaTaO3
_symmetry_space_group_name_H-M   'P 1'
_cell_length_a   7.42291708
_cell_length_b   7.42291708
_cell_length_c   7.42291708
_cell_angle_alpha   60.00000000
_cell_angle_beta   60.00000000
_cell_angle_gamma   60.00000000
_symmetry_Int_Tables_number   1
_chemical_formula_structural   NaTaO3
_chemical_formula_sum   'Na4 Ta4 O12'
_cell_volume   289.20701886
_cell_formula_units_Z   4
loop_
 _symmetry_equiv_pos_site_id
 _symmetry_equiv_pos_as_xyz
  1  'x, y, z'
loop_
 _atom_site_type_symbol
 _atom_site_label
 _atom_site_symmetry_multiplicity
 _atom_site_fract_x
 _atom_site_fract_y
 _atom_site_fract_z
 _atom_site_occupancy
  Na  Na0  1  0.12500000  0.62500000  0.62500000  1
  Na  Na1  1  0.62500000  0.62500000  0.62500000  1
  Na  Na2  1  0.62500000  0.62500000  0.12500000  1
  Na  Na3  1  0.62500000  0.12500000  0.62500000  1
  Ta  Ta0  1  0.12500000  0.12500000  0.12500000  1
  Ta  Ta1  1  0.62500000  0.12500000  0.12500000  1
  Ta  Ta2  1  0.12500000  0.12500000  0.62500000  1
  Ta  Ta3  1  0.12500000  0.62500000  0.12500000  1
  O  O0  1  0.80511000  0.19489000  0.19489000  1
  O  O1  1  0.44489000  0.05511000  0.44489000  1
  O  O2  1  0.44489000  0.44489000  0.05511000  1
  O  O3  1  0.05511000  0.05511000  0.44489000  1
  O  O4  1  0.05511000  0.44489000  0.05511000  1
  O  O5  1  0.19489000  0.80511000  0.80511000  1
  O  O6  1  0.05511000  0.44489000  0.44489000  1
  O  O7  1  0.19489000  0.80511000  0.19489000  1
  O  O8  1  0.80511000  0.80511000  0.19489000  1
  O  O9  1  0.19489000  0.19489000  0.80511000  1
  O  O10  1  0.80511000  0.19489000  0.80511000  1
  O  O11  1  0.44489000  0.05511000  0.05511000  1
loop_
_geom_bond_atom_site_label_1
_geom_bond_atom_site_label_2
_geom_bond_distance
_geom_bond_site_symmetry_2
Na0 O5 2.649256 1_555
Na0 O3 2.649256 1_565
Na0 O9 2.649256 1_555
Na0 O6 2.649256 1_555
Na0 O7 2.649256 1_555
Na0 O4 2.649256 1_556
Na1 O6 2.649256 1_655
Na1 O5 2.649256 1_555
Na1 O1 2.649256 1_565
Na1 O2 2.649256 1_556
Na1 O10 2.649256 1_555
Na1 O8 2.649256 1_555
Na2 O7 2.649256 1_555
Na2 O4 2.649256 1_655
Na2 O2 2.649256 1_555
Na2 O11 2.649256 1_565
Na2 O0 2.649256 1_555
Na2 O8 2.649256 1_555
Na3 O10 2.649256 1_555
Na3 O11 2.649256 1_556
Na3 O0 2.649256 1_555
Na3 O9 2.649256 1_555
Na3 O3 2.649256 1_655
Na3 O1 2.649256 1_555
O0 Ta0 1.995498 1_655
O0 Ta1 1.995498 1_555
O1 Ta1 1.995498 1_555
O1 Ta2 1.995498 1_555
O2 Ta1 1.995498 1_555
O2 Ta3 1.995498 1_555
O3 Ta0 1.995498 1_555
O3 Ta2 1.995498 1_555
O4 Ta0 1.995498 1_555
O4 Ta3 1.995498 1_555
O5 Ta3 1.995498 1_556
O5 Ta2 1.995498 1_565
O6 Ta2 1.995498 1_555
O6 Ta3 1.995498 1_555
O7 Ta3 1.995498 1_555
O7 Ta0 1.995498 1_565
O8 Ta1 1.995498 1_565
O8 Ta3 1.995498 1_655
O9 Ta2 1.995498 1_555
O9 Ta0 1.995498 1_556
O10 Ta2 1.995498 1_655
O10 Ta1 1.995498 1_556
O11 Ta0 1.995498 1_555
O11 Ta1 1.995498 1_555
