# generated using pymatgen
data_Ni2P2O7
_symmetry_space_group_name_H-M   'P 1'
_cell_length_a   8.24997937
_cell_length_b   6.92382828
_cell_length_c   8.94344041
_cell_angle_alpha   66.27021871
_cell_angle_beta   90.00000000
_cell_angle_gamma   90.00000000
_symmetry_Int_Tables_number   1
_chemical_formula_structural   Ni2P2O7
_chemical_formula_sum   'Ni8 P8 O28'
_cell_volume   467.67061064
_cell_formula_units_Z   4
loop_
 _symmetry_equiv_pos_site_id
 _symmetry_equiv_pos_as_xyz
  1  'x, y, z'
loop_
 _atom_site_type_symbol
 _atom_site_label
 _atom_site_symmetry_multiplicity
 _atom_site_fract_x
 _atom_site_fract_y
 _atom_site_fract_z
 _atom_site_occupancy
  Ni  Ni0  1  0.44140443  0.30546771  0.82227464  1
  Ni  Ni1  1  0.55859557  0.69453229  0.17772536  1
  Ni  Ni2  1  0.94140443  0.69453229  0.67772536  1
  Ni  Ni3  1  0.05859557  0.30546771  0.32227464  1
  Ni  Ni4  1  0.57431110  0.76913891  0.60901297  1
  Ni  Ni5  1  0.42568890  0.23086109  0.39098703  1
  Ni  Ni6  1  0.07431110  0.23086109  0.89098703  1
  Ni  Ni7  1  0.92568890  0.76913891  0.10901297  1
  P  P0  1  0.77044739  0.05999705  0.75692978  1
  P  P1  1  0.22955261  0.94000295  0.24307022  1
  P  P2  1  0.27044739  0.94000295  0.74307022  1
  P  P3  1  0.72955261  0.05999705  0.25692978  1
  P  P4  1  0.22520952  0.52942897  0.53407121  1
  P  P5  1  0.77479048  0.47057103  0.46592879  1
  P  P6  1  0.72520952  0.47057103  0.96592879  1
  P  P7  1  0.27479048  0.52942897  0.03407121  1
  O  O0  1  0.16782145  0.74961258  0.40384004  1
  O  O1  1  0.83217855  0.25038742  0.59615996  1
  O  O2  1  0.66782145  0.25038742  0.09615996  1
  O  O3  1  0.33217855  0.74961258  0.90384004  1
  O  O4  1  0.76420160  0.62219110  0.55078845  1
  O  O5  1  0.23579840  0.37780890  0.44921155  1
  O  O6  1  0.26420160  0.37780890  0.94921155  1
  O  O7  1  0.73579840  0.62219110  0.05078845  1
  O  O8  1  0.26146115  0.12194703  0.79795334  1
  O  O9  1  0.73853885  0.87805297  0.20204666  1
  O  O10  1  0.76146115  0.87805297  0.70204666  1
  O  O11  1  0.23853885  0.12194703  0.29795334  1
  O  O12  1  0.38871161  0.55205256  0.60462453  1
  O  O13  1  0.61128839  0.44794744  0.39537547  1
  O  O14  1  0.88871161  0.44794744  0.89537547  1
  O  O15  1  0.11128839  0.55205256  0.10462453  1
  O  O16  1  0.90636208  0.02302189  0.88071420  1
  O  O17  1  0.09363792  0.97697811  0.11928580  1
  O  O18  1  0.40636208  0.97697811  0.61928580  1
  O  O19  1  0.59363792  0.02302189  0.38071420  1
  O  O20  1  0.08794186  0.47563326  0.65817775  1
  O  O21  1  0.91205814  0.52436674  0.34182225  1
  O  O22  1  0.58794186  0.52436674  0.84182225  1
  O  O23  1  0.41205814  0.47563326  0.15817775  1
  O  O24  1  0.61196290  0.11656642  0.80911140  1
  O  O25  1  0.38803710  0.88343358  0.19088860  1
  O  O26  1  0.11196290  0.88343358  0.69088860  1
  O  O27  1  0.88803710  0.11656642  0.30911140  1
loop_
_geom_bond_atom_site_label_1
_geom_bond_atom_site_label_2
_geom_bond_distance
_geom_bond_site_symmetry_2
Ni0 O24 1.956625 1_555
Ni0 O22 2.000609 1_555
Ni0 O8 2.021925 1_555
Ni0 O6 2.033357 1_555
Ni0 O12 2.053806 1_555
Ni1 O25 1.956625 1_555
Ni1 O23 2.000609 1_555
Ni1 O9 2.021925 1_555
Ni1 O7 2.033357 1_555
Ni1 O13 2.053806 1_555
Ni2 O26 1.956625 1_655
Ni2 O20 2.000609 1_655
Ni2 O10 2.021925 1_555
Ni2 O4 2.033357 1_555
Ni2 O14 2.053806 1_555
Ni3 O27 1.956625 1_455
Ni3 O21 2.000609 1_455
Ni3 O11 2.021925 1_555
Ni3 O5 2.033357 1_555
Ni3 O15 2.053806 1_555
Ni4 O18 2.026207 1_555
Ni4 O10 2.037117 1_555
Ni4 O4 2.046209 1_555
Ni4 O22 2.092847 1_555
Ni4 O19 2.096566 1_565
Ni4 O12 2.157031 1_555
Ni5 O19 2.026207 1_555
Ni5 O11 2.037117 1_555
Ni5 O5 2.046209 1_555
Ni5 O23 2.092847 1_555
Ni5 O18 2.096566 1_545
Ni5 O13 2.157031 1_555
Ni6 O16 2.026207 1_455
Ni6 O8 2.037117 1_555
Ni6 O6 2.046209 1_555
Ni6 O20 2.092847 1_555
Ni6 O17 2.096566 1_546
Ni6 O14 2.157031 1_455
Ni7 O17 2.026207 1_655
Ni7 O9 2.037117 1_555
Ni7 O7 2.046209 1_555
Ni7 O21 2.092847 1_555
Ni7 O16 2.096566 1_564
Ni7 O15 2.157031 1_655
O0 P4 1.573452 1_555
O0 P1 1.593412 1_555
O1 P5 1.573452 1_555
O1 P0 1.593412 1_555
O2 P6 1.573452 1_554
O2 P3 1.593412 1_555
O3 P7 1.573452 1_556
O3 P2 1.593412 1_555
O4 P5 1.525425 1_555
O5 P4 1.525425 1_555
O6 P7 1.525425 1_556
O7 P6 1.525425 1_554
O8 P2 1.526782 1_545
O9 P3 1.526782 1_565
O10 P0 1.526782 1_565
O11 P1 1.526782 1_545
O12 P4 1.523724 1_555
O13 P5 1.523724 1_555
O14 P6 1.523724 1_555
O15 P7 1.523724 1_555
O16 P0 1.523257 1_555
O17 P1 1.523257 1_555
O18 P2 1.523257 1_555
O19 P3 1.523257 1_555
O20 P4 1.523291 1_555
O21 P5 1.523291 1_555
O22 P6 1.523291 1_555
O23 P7 1.523291 1_555
O24 P0 1.492602 1_555
O25 P1 1.492602 1_555
O26 P2 1.492602 1_555
O27 P3 1.492602 1_555
