# generated using pymatgen
data_Ca2Y3Si3O13
_symmetry_space_group_name_H-M   'P 1'
_cell_length_a   6.91378200
_cell_length_b   9.46857500
_cell_length_c   9.46917283
_cell_angle_alpha   60.05729931
_cell_angle_beta   90.00000000
_cell_angle_gamma   90.00000000
_symmetry_Int_Tables_number   1
_chemical_formula_structural   Ca2Y3Si3O13
_chemical_formula_sum   'Ca4 Y6 Si6 O26'
_cell_volume   537.14736071
_cell_formula_units_Z   2
loop_
 _symmetry_equiv_pos_site_id
 _symmetry_equiv_pos_as_xyz
  1  'x, y, z'
loop_
 _atom_site_type_symbol
 _atom_site_label
 _atom_site_symmetry_multiplicity
 _atom_site_fract_x
 _atom_site_fract_y
 _atom_site_fract_z
 _atom_site_occupancy
  Ca  Ca0  1  0.98279100  0.33092400  0.33587300  1
  Ca  Ca1  1  0.48279100  0.66907600  0.66412700  1
  Ca  Ca2  1  0.48734200  0.33115600  0.33402900  1
  Ca  Ca3  1  0.98734200  0.66884400  0.66597100  1
  Y  Y0  1  0.23271500  0.99340200  0.76157200  1
  Y  Y1  1  0.73271500  0.00659800  0.23842800  1
  Y  Y2  1  0.23336300  0.75754700  0.24648400  1
  Y  Y3  1  0.73336300  0.24245300  0.75351600  1
  Y  Y4  1  0.73349700  0.75404200  0.00558900  1
  Y  Y5  1  0.23349700  0.24595800  0.99441100  1
  Si  Si0  1  0.23430500  0.60765300  0.02340000  1
  Si  Si1  1  0.73430500  0.39234700  0.97660000  1
  Si  Si2  1  0.23401500  0.36722200  0.61038200  1
  Si  Si3  1  0.73401500  0.63277800  0.38961800  1
  Si  Si4  1  0.73340700  0.97740700  0.63185600  1
  Si  Si5  1  0.23340700  0.02259300  0.36814400  1
  O  O0  1  0.73304800  0.52477300  0.29909800  1
  O  O1  1  0.23304800  0.47522700  0.70090200  1
  O  O2  1  0.23637100  0.11413500  0.47646500  1
  O  O3  1  0.73637100  0.88586500  0.52353500  1
  O  O4  1  0.23689600  0.40794500  0.11688100  1
  O  O5  1  0.73689600  0.59205500  0.88311900  1
  O  O6  1  0.23374700  0.69929200  0.82494800  1
  O  O7  1  0.73374700  0.30070800  0.17505200  1
  O  O8  1  0.23743800  0.47387400  0.41052800  1
  O  O9  1  0.73743800  0.52612600  0.58947200  1
  O  O10  1  0.73270000  0.17628300  0.52614400  1
  O  O11  1  0.23270000  0.82371700  0.47385600  1
  O  O12  1  0.04760300  0.66693300  0.08959400  1
  O  O13  1  0.54760300  0.33306700  0.91040600  1
  O  O14  1  0.41903700  0.67174900  0.08715100  1
  O  O15  1  0.91903700  0.32825100  0.91284900  1
  O  O16  1  0.04707200  0.24223200  0.66808600  1
  O  O17  1  0.54707200  0.75776800  0.33191400  1
  O  O18  1  0.41818700  0.23903100  0.67538100  1
  O  O19  1  0.91818700  0.76096900  0.32461900  1
  O  O20  1  0.54682000  0.90972700  0.75706700  1
  O  O21  1  0.04682000  0.09027300  0.24293300  1
  O  O22  1  0.91889800  0.91239000  0.75863800  1
  O  O23  1  0.41889800  0.08761000  0.24136200  1
  O  O24  1  0.23004900  0.99948900  0.00193500  1
  O  O25  1  0.73004900  0.00051100  0.99806500  1
loop_
_geom_bond_atom_site_label_1
_geom_bond_atom_site_label_2
_geom_bond_distance
_geom_bond_site_symmetry_2
Ca0 O10 2.397140 1_555
Ca0 O7 2.408434 1_555
Ca0 O0 2.415275 1_555
Ca0 O2 2.516259 1_655
Ca0 O8 2.527171 1_655
Ca0 O4 2.531549 1_655
Ca0 O16 2.856833 1_655
Ca0 O21 2.857352 1_655
Ca0 O12 2.890458 1_655
Ca1 O11 2.397140 1_555
Ca1 O6 2.408434 1_555
Ca1 O1 2.415275 1_555
Ca1 O3 2.516259 1_555
Ca1 O9 2.527171 1_555
Ca1 O5 2.531549 1_555
Ca1 O17 2.856833 1_555
Ca1 O20 2.857352 1_555
Ca1 O13 2.890458 1_555
Ca2 O10 2.382087 1_555
Ca2 O7 2.384273 1_555
Ca2 O0 2.398073 1_555
Ca2 O4 2.502480 1_555
Ca2 O2 2.507133 1_555
Ca2 O8 2.512619 1_555
Ca2 O23 2.886465 1_555
Ca2 O14 2.926127 1_555
Ca2 O18 2.936452 1_555
Ca3 O11 2.382087 1_655
Ca3 O6 2.384273 1_655
Ca3 O1 2.398073 1_655
Ca3 O5 2.502480 1_555
Ca3 O3 2.507133 1_555
Ca3 O9 2.512619 1_555
Ca3 O22 2.886465 1_555
Ca3 O15 2.926127 1_555
Ca3 O19 2.936452 1_555
O0 Si3 1.629607 1_555
O0 Y4 2.532603 1_555
O1 Si2 1.629607 1_555
O1 Y5 2.532603 1_555
O2 Si5 1.640522 1_555
O2 Y0 2.348426 1_545
O3 Si4 1.640522 1_555
O3 Y1 2.348426 1_565
O4 Si0 1.639703 1_555
O4 Y5 2.339565 1_554
O5 Si1 1.639703 1_555
O5 Y4 2.339565 1_556
O6 Si0 1.629873 1_556
O6 Y0 2.539095 1_555
O7 Si1 1.629873 1_554
O7 Y1 2.539095 1_555
O8 Si2 1.641326 1_555
O8 Y2 2.337336 1_555
O9 Si3 1.641326 1_555
O9 Y3 2.337336 1_555
O10 Si4 1.632880 1_545
O10 Y3 2.524815 1_555
O11 Si5 1.632880 1_565
O11 Y2 2.524815 1_555
O12 Si0 1.650865 1_555
O12 Y4 2.318232 1_455
O12 Y2 2.421790 1_555
O13 Si1 1.650865 1_555
O13 Y5 2.318232 1_555
O13 Y3 2.421790 1_555
O14 Si0 1.652182 1_555
O14 Y4 2.308599 1_555
O14 Y2 2.409932 1_555
O15 Si1 1.652182 1_555
O15 Y5 2.308599 1_655
O15 Y3 2.409932 1_555
O16 Si2 1.650500 1_555
O16 Y3 2.315230 1_455
O16 Y0 2.428989 1_545
O17 Si3 1.650500 1_555
O17 Y2 2.315230 1_555
O17 Y1 2.428989 1_565
O18 Si2 1.651570 1_555
O18 Y3 2.306662 1_555
O18 Y0 2.413439 1_545
O19 Si3 1.651570 1_555
O19 Y2 2.306662 1_655
O19 Y1 2.413439 1_565
O20 Si4 1.649877 1_555
O20 Y0 2.319343 1_555
O20 Y4 2.431824 1_556
O21 Si5 1.649877 1_555
O21 Y1 2.319343 1_455
O21 Y5 2.431824 1_554
O22 Si4 1.651399 1_555
O22 Y0 2.306052 1_655
O22 Y4 2.420596 1_556
O23 Si5 1.651399 1_555
O23 Y1 2.306052 1_555
O23 Y5 2.420596 1_554
O24 Y5 2.299102 1_564
O24 Y0 2.305421 1_554
O24 Y2 2.305470 1_555
O25 Y4 2.299102 1_546
O25 Y1 2.305421 1_556
O25 Y3 2.305470 1_555
