# generated using pymatgen
data_KAl(SO4)2
_symmetry_space_group_name_H-M   'P 1'
_cell_length_a   4.96785513
_cell_length_b   4.96785513
_cell_length_c   7.49508153
_cell_angle_alpha   90.00000000
_cell_angle_beta   90.00000000
_cell_angle_gamma   120.00000977
_symmetry_Int_Tables_number   1
_chemical_formula_structural   KAl(SO4)2
_chemical_formula_sum   'K1 Al1 S2 O8'
_cell_volume   160.19346538
_cell_formula_units_Z   1
loop_
 _symmetry_equiv_pos_site_id
 _symmetry_equiv_pos_as_xyz
  1  'x, y, z'
loop_
 _atom_site_type_symbol
 _atom_site_label
 _atom_site_symmetry_multiplicity
 _atom_site_fract_x
 _atom_site_fract_y
 _atom_site_fract_z
 _atom_site_occupancy
  K  K0  1  0.00000000  0.00000000  0.00000000  1
  Al  Al0  1  0.00000000  0.00000000  0.50000000  1
  S  S0  1  0.66666700  0.33333300  0.71731813  1
  S  S1  1  0.33333300  0.66666700  0.28268187  1
  O  O0  1  0.34535835  0.17267868  0.65051756  1
  O  O1  1  0.82732132  0.17267868  0.65051756  1
  O  O2  1  0.82732132  0.65464165  0.65051756  1
  O  O3  1  0.17267868  0.82732132  0.34948244  1
  O  O4  1  0.33333300  0.66666700  0.09074636  1
  O  O5  1  0.66666700  0.33333300  0.90925364  1
  O  O6  1  0.17267868  0.34535835  0.34948244  1
  O  O7  1  0.65464165  0.82732132  0.34948244  1
loop_
_geom_bond_atom_site_label_1
_geom_bond_atom_site_label_2
_geom_bond_distance
_geom_bond_site_symmetry_2
K0 O4 2.947731 1_545
K0 O5 2.947731 1_454
K0 O4 2.947735 1_445
K0 O5 2.947735 1_554
K0 O4 2.947735 1_555
K0 O5 2.947735 1_444
K0 O1 3.011467 1_454
K0 O3 3.011467 1_545
K0 O0 3.011469 1_554
K0 O6 3.011469 1_555
K0 O2 3.011469 1_444
K0 O7 3.011469 1_445
Al0 O3 1.865579 1_545
Al0 O1 1.865579 1_455
Al0 O6 1.865582 1_555
Al0 O7 1.865582 1_445
Al0 O0 1.865582 1_555
Al0 O2 1.865582 1_445
O0 S0 1.470239 1_555
O1 S0 1.470239 1_555
O2 S0 1.470239 1_555
O3 S1 1.470239 1_555
O4 S1 1.438572 1_555
O5 S0 1.438572 1_555
O6 S1 1.470239 1_555
O7 S1 1.470239 1_555
