# generated using pymatgen
data_LiFePO4
_symmetry_space_group_name_H-M   'P 1'
_cell_length_a   5.05822604
_cell_length_b   8.24699336
_cell_length_c   9.06029745
_cell_angle_alpha   89.96633369
_cell_angle_beta   90.01279964
_cell_angle_gamma   89.99466227
_symmetry_Int_Tables_number   1
_chemical_formula_structural   LiFePO4
_chemical_formula_sum   'Li4 Fe4 P4 O16'
_cell_volume   377.95165024
_cell_formula_units_Z   4
loop_
 _symmetry_equiv_pos_site_id
 _symmetry_equiv_pos_as_xyz
  1  'x, y, z'
loop_
 _atom_site_type_symbol
 _atom_site_label
 _atom_site_symmetry_multiplicity
 _atom_site_fract_x
 _atom_site_fract_y
 _atom_site_fract_z
 _atom_site_occupancy
  Li  Li0  1  0.90985500  0.05754200  0.60194400  1
  Li  Li1  1  0.41023400  0.44271000  0.10230600  1
  Li  Li2  1  0.91016600  0.55713700  0.89791300  1
  Li  Li3  1  0.40988100  0.94259900  0.39812200  1
  Fe  Fe0  1  0.51345600  0.34129900  0.53063000  1
  Fe  Fe1  1  0.01348300  0.65879600  0.46932800  1
  Fe  Fe2  1  0.01311800  0.15880300  0.03051700  1
  Fe  Fe3  1  0.51324700  0.84108500  0.96932300  1
  P  P0  1  0.56597600  0.23079600  0.86255200  1
  P  P1  1  0.06636500  0.26943200  0.36224400  1
  P  P2  1  0.56650900  0.73061000  0.63772600  1
  P  P3  1  0.06614700  0.76919700  0.13742300  1
  O  O0  1  0.67148500  0.07180900  0.93970600  1
  O  O1  1  0.17249200  0.42831200  0.43917000  1
  O  O2  1  0.67257700  0.57177800  0.56072300  1
  O  O3  1  0.17143300  0.92808200  0.06012900  1
  O  O4  1  0.19564900  0.12974400  0.45304900  1
  O  O5  1  0.69552300  0.37029200  0.95338500  1
  O  O6  1  0.19554700  0.62957200  0.04678700  1
  O  O7  1  0.69571800  0.87033300  0.54704300  1
  O  O8  1  0.26342400  0.24320800  0.86640600  1
  O  O9  1  0.76375200  0.25729300  0.36631800  1
  O  O10  1  0.26384000  0.74273400  0.63364100  1
  O  O11  1  0.76342100  0.75674800  0.13358400  1
  O  O12  1  0.67108700  0.22435600  0.70113900  1
  O  O13  1  0.17115300  0.27590700  0.20074600  1
  O  O14  1  0.67133500  0.72399500  0.79924500  1
  O  O15  1  0.17112600  0.77583200  0.29889800  1
loop_
_geom_bond_atom_site_label_1
_geom_bond_atom_site_label_2
_geom_bond_distance
_geom_bond_site_symmetry_2
Li0 O7 1.950713 1_545
Li0 O12 2.039751 1_555
Li0 O4 2.065025 1_655
Li1 O6 1.950808 1_555
Li1 O13 2.037066 1_555
Li1 O5 2.064286 1_554
Li2 O5 1.950748 1_555
Li2 O14 2.037137 1_555
Li2 O6 2.064030 1_656
Li3 O4 1.950586 1_565
Li3 O15 2.039481 1_555
Li3 O7 2.064983 1_555
Fe0 O12 1.987465 1_555
Fe0 O1 2.043169 1_555
Fe0 O9 2.073891 1_555
Fe0 O2 2.082267 1_555
Fe0 O4 2.474606 1_555
Fe1 O15 1.987654 1_555
Fe1 O2 2.043123 1_455
Fe1 O10 2.073571 1_555
Fe1 O1 2.082073 1_555
Fe1 O7 2.474702 1_455
Fe2 O13 1.987913 1_555
Fe2 O0 2.044052 1_454
Fe2 O8 2.073211 1_554
Fe2 O3 2.081525 1_545
Fe2 O5 2.471581 1_454
Fe3 O14 1.987108 1_555
Fe3 O3 2.045014 1_556
Fe3 O11 2.073105 1_556
Fe3 O0 2.081586 1_565
Fe3 O6 2.473331 1_556
O0 P0 1.578371 1_555
O1 P1 1.578549 1_555
O2 P2 1.578450 1_555
O3 P3 1.578042 1_555
O4 P1 1.558890 1_555
O5 P0 1.559218 1_555
O6 P3 1.558813 1_555
O7 P2 1.558606 1_555
O8 P0 1.534193 1_555
O9 P1 1.534415 1_655
O10 P2 1.534657 1_555
O11 P3 1.535092 1_655
O12 P0 1.557142 1_555
O13 P1 1.557263 1_555
O14 P2 1.557321 1_555
O15 P3 1.557279 1_555
