# generated using pymatgen
data_Li4Ti2Co3Ni3O16
_symmetry_space_group_name_H-M   'P 1'
_cell_length_a   5.84097333
_cell_length_b   5.84097333
_cell_length_c   9.40156967
_cell_angle_alpha   87.71904150
_cell_angle_beta   87.71904150
_cell_angle_gamma   58.26004763
_symmetry_Int_Tables_number   1
_chemical_formula_structural   Li4Ti2Co3Ni3O16
_chemical_formula_sum   'Li4 Ti2 Co3 Ni3 O16'
_cell_volume   272.49938864
_cell_formula_units_Z   1
loop_
 _symmetry_equiv_pos_site_id
 _symmetry_equiv_pos_as_xyz
  1  'x, y, z'
loop_
 _atom_site_type_symbol
 _atom_site_label
 _atom_site_symmetry_multiplicity
 _atom_site_fract_x
 _atom_site_fract_y
 _atom_site_fract_z
 _atom_site_occupancy
  Li  Li0  1  0.65803900  0.65803900  0.10304300  1
  Li  Li1  1  0.99969800  0.99969800  0.00539500  1
  Li  Li2  1  0.00453000  0.00453000  0.50347800  1
  Li  Li3  1  0.33246500  0.33246500  0.60616400  1
  Ti  Ti0  1  0.66966600  0.66966600  0.50452400  1
  Ti  Ti1  1  0.33072400  0.33072400  0.00429000  1
  Co  Co0  1  0.34281100  0.83355600  0.78393900  1
  Co  Co1  1  0.83355600  0.34281100  0.78393900  1
  Co  Co2  1  0.17137100  0.17137100  0.28365200  1
  Ni  Ni0  1  0.83229300  0.83229300  0.78860100  1
  Ni  Ni1  1  0.16808100  0.66284700  0.28612000  1
  Ni  Ni2  1  0.66284700  0.16808100  0.28612000  1
  O  O0  1  0.34032300  0.84682100  0.40158300  1
  O  O1  1  0.51894900  0.51894900  0.66670300  1
  O  O2  1  0.65367300  0.65367300  0.88989200  1
  O  O3  1  0.01152500  0.01152500  0.69466900  1
  O  O4  1  0.00748100  0.00748100  0.19553100  1
  O  O5  1  0.84682100  0.34032300  0.40158300  1
  O  O6  1  0.50179000  0.95960800  0.65898300  1
  O  O7  1  0.95960800  0.50179000  0.65898300  1
  O  O8  1  0.16537800  0.16537800  0.89583600  1
  O  O9  1  0.84060900  0.84060900  0.40851200  1
  O  O10  1  0.03071800  0.46908600  0.15836200  1
  O  O11  1  0.46908600  0.03071800  0.15836200  1
  O  O12  1  0.32839400  0.32839400  0.38571600  1
  O  O13  1  0.18123500  0.66837400  0.90844700  1
  O  O14  1  0.47555100  0.47555100  0.16104800  1
  O  O15  1  0.66837400  0.18123500  0.90844700  1
loop_
_geom_bond_atom_site_label_1
_geom_bond_atom_site_label_2
_geom_bond_distance
_geom_bond_site_symmetry_2
Li0 O14 1.916392 1_555
Li0 O10 1.934885 1_655
Li0 O11 1.934885 1_565
Li0 O2 2.006478 1_554
Li1 O4 1.792952 1_665
Li1 O15 1.898624 1_564
Li1 O13 1.898624 1_654
Li1 O8 1.939228 1_664
Li2 O3 1.802159 1_555
Li2 O5 1.906028 1_455
Li2 O0 1.906028 1_545
Li2 O9 1.931632 1_445
Li3 O7 1.911691 1_455
Li3 O6 1.911691 1_545
Li3 O1 2.010939 1_555
Li3 O12 2.074865 1_555
Co0 O6 1.829790 1_555
Co0 O2 1.856488 1_555
Co0 O3 1.863546 1_565
Co0 O1 1.931830 1_555
Co0 O8 1.974692 1_565
Co0 O13 1.992988 1_555
Co1 O7 1.829790 1_555
Co1 O2 1.856488 1_555
Co1 O3 1.863546 1_655
Co1 O1 1.931830 1_555
Co1 O8 1.974692 1_655
Co1 O15 1.992988 1_555
Co2 O10 1.870095 1_555
Co2 O11 1.870095 1_555
Co2 O4 1.899879 1_555
Co2 O12 1.904811 1_555
Co2 O5 1.936056 1_455
Co2 O0 1.936056 1_545
Ni0 O3 1.994433 1_665
Ni0 O2 2.017660 1_555
Ni0 O6 2.090313 1_555
Ni0 O7 2.090313 1_555
Ni0 O13 2.093828 1_655
Ni0 O15 2.093828 1_565
Ni1 O12 1.889296 1_555
Ni1 O4 1.896800 1_565
Ni1 O14 1.916244 1_555
Ni1 O9 1.972592 1_455
Ni1 O10 2.123111 1_555
Ni1 O0 2.159287 1_555
Ni2 O12 1.889296 1_555
Ni2 O4 1.896800 1_655
Ni2 O14 1.916244 1_555
Ni2 O9 1.972592 1_545
Ni2 O11 2.123111 1_555
Ni2 O5 2.159287 1_555
O0 Ti0 1.918880 1_555
O1 Ti0 2.115774 1_555
O5 Ti0 1.918880 1_555
O6 Ti0 2.067262 1_555
O7 Ti0 2.067262 1_555
O8 Ti1 2.010785 1_556
O9 Ti0 1.927209 1_555
O10 Ti1 2.055025 1_555
O11 Ti1 2.055025 1_555
O13 Ti1 1.890314 1_556
O14 Ti1 2.134145 1_555
O15 Ti1 1.890314 1_556
