# generated using pymatgen
data_Li2Cr3FeO8
_symmetry_space_group_name_H-M   'P 1'
_cell_length_a   5.91876222
_cell_length_b   5.91876222
_cell_length_c   5.91876233
_cell_angle_alpha   60.22436753
_cell_angle_beta   60.22436753
_cell_angle_gamma   60.22437603
_symmetry_Int_Tables_number   1
_chemical_formula_structural   Li2Cr3FeO8
_chemical_formula_sum   'Li2 Cr3 Fe1 O8'
_cell_volume   147.35953085
_cell_formula_units_Z   1
loop_
 _symmetry_equiv_pos_site_id
 _symmetry_equiv_pos_as_xyz
  1  'x, y, z'
loop_
 _atom_site_type_symbol
 _atom_site_label
 _atom_site_symmetry_multiplicity
 _atom_site_fract_x
 _atom_site_fract_y
 _atom_site_fract_z
 _atom_site_occupancy
  Li  Li0  1  0.87531400  0.87531400  0.87531400  1
  Li  Li1  1  0.12468600  0.12468600  0.12468600  1
  Cr  Cr0  1  0.00000000  0.50000000  0.50000000  1
  Cr  Cr1  1  0.50000000  0.00000000  0.50000000  1
  Cr  Cr2  1  0.50000000  0.50000000  0.00000000  1
  Fe  Fe0  1  0.50000000  0.50000000  0.50000000  1
  O  O0  1  0.73256900  0.73256900  0.73256900  1
  O  O1  1  0.73854800  0.73854800  0.28687000  1
  O  O2  1  0.73854800  0.28687000  0.73854800  1
  O  O3  1  0.28687000  0.73854800  0.73854800  1
  O  O4  1  0.71313000  0.26145200  0.26145200  1
  O  O5  1  0.26145200  0.71313000  0.26145200  1
  O  O6  1  0.26145200  0.26145200  0.71313000  1
  O  O7  1  0.26743100  0.26743100  0.26743100  1
loop_
_geom_bond_atom_site_label_1
_geom_bond_atom_site_label_2
_geom_bond_distance
_geom_bond_site_symmetry_2
Li0 O1 1.994516 1_556
Li0 O3 1.994516 1_655
Li0 O2 1.994516 1_565
Li0 O0 2.065993 1_555
Li1 O6 1.994516 1_554
Li1 O4 1.994516 1_455
Li1 O5 1.994516 1_545
Li1 O7 2.065993 1_555
Cr0 O0 1.961866 1_455
Cr0 O7 1.961866 1_555
Cr0 O5 1.994805 1_555
Cr0 O2 1.994805 1_455
Cr0 O1 1.994805 1_455
Cr0 O6 1.994805 1_555
Cr1 O7 1.961866 1_555
Cr1 O0 1.961866 1_545
Cr1 O3 1.994805 1_545
Cr1 O4 1.994805 1_555
Cr1 O1 1.994805 1_545
Cr1 O6 1.994805 1_555
Cr2 O7 1.961866 1_555
Cr2 O0 1.961866 1_554
Cr2 O2 1.994805 1_554
Cr2 O3 1.994805 1_554
Cr2 O5 1.994805 1_555
Cr2 O4 1.994805 1_555
Fe0 O6 2.005058 1_555
Fe0 O1 2.005058 1_555
Fe0 O3 2.005058 1_555
Fe0 O4 2.005058 1_555
Fe0 O5 2.005058 1_555
Fe0 O2 2.005058 1_555
