# generated using pymatgen
data_K4Li3(FeO4)2
_symmetry_space_group_name_H-M   'P 1'
_cell_length_a   5.57799000
_cell_length_b   8.78759583
_cell_length_c   10.77936165
_cell_angle_alpha   87.60953790
_cell_angle_beta   80.15897987
_cell_angle_gamma   86.94595292
_symmetry_Int_Tables_number   1
_chemical_formula_structural   K4Li3(FeO4)2
_chemical_formula_sum   'K8 Li6 Fe4 O16'
_cell_volume   519.57378723
_cell_formula_units_Z   2
loop_
 _symmetry_equiv_pos_site_id
 _symmetry_equiv_pos_as_xyz
  1  'x, y, z'
loop_
 _atom_site_type_symbol
 _atom_site_label
 _atom_site_symmetry_multiplicity
 _atom_site_fract_x
 _atom_site_fract_y
 _atom_site_fract_z
 _atom_site_occupancy
  K  K0  1  0.18591700  0.96338100  0.15644500  1
  K  K1  1  0.15617400  0.21989700  0.61852700  1
  K  K2  1  0.40744800  0.52110200  0.33230100  1
  K  K3  1  0.30576900  0.77097900  0.86875400  1
  K  K4  1  0.67201200  0.24963100  0.11767700  1
  K  K5  1  0.63107600  0.46920900  0.65792700  1
  K  K6  1  0.90114800  0.70797700  0.38252400  1
  K  K7  1  0.76919400  0.04100000  0.85636000  1
  Li  Li0  1  0.10016000  0.24223700  0.30448200  1
  Li  Li1  1  0.26743800  0.51641600  0.07142400  1
  Li  Li2  1  0.59914200  0.97775000  0.29938000  1
  Li  Li3  1  0.72144200  0.50543800  0.92498100  1
  Li  Li4  1  0.80843800  0.97429600  0.55325400  1
  Li  Li5  1  0.89761700  0.74415800  0.70991100  1
  Fe  Fe0  1  0.20418700  0.28608300  0.94267100  1
  Fe  Fe1  1  0.32816900  0.79569800  0.56171000  1
  Fe  Fe2  1  0.67612100  0.21330200  0.43464600  1
  Fe  Fe3  1  0.77403800  0.72709300  0.06535400  1
  O  O0  1  0.16088300  0.29259500  0.11094300  1
  O  O1  1  0.05001700  0.68491200  0.12797100  1
  O  O2  1  0.09181200  0.91809500  0.63984800  1
  O  O3  1  0.17452500  0.62567500  0.59961900  1
  O  O4  1  0.41959900  0.21043000  0.35020900  1
  O  O5  1  0.41791700  0.81627600  0.39879400  1
  O  O6  1  0.29862900  0.09658900  0.92075200  1
  O  O7  1  0.38783600  0.44312900  0.89159600  1
  O  O8  1  0.60272900  0.55647900  0.09983700  1
  O  O9  1  0.69108100  0.91946200  0.11747500  1
  O  O10  1  0.66964500  0.17771900  0.59964600  1
  O  O11  1  0.61466600  0.78931700  0.61471300  1
  O  O12  1  0.82225100  0.39287300  0.40344100  1
  O  O13  1  0.86764000  0.04814100  0.37069100  1
  O  O14  1  0.94478600  0.33018500  0.87340800  1
  O  O15  1  0.79354900  0.72769100  0.88958700  1
loop_
_geom_bond_atom_site_label_1
_geom_bond_atom_site_label_2
_geom_bond_distance
_geom_bond_site_symmetry_2
K0 O1 2.645158 1_555
K0 O6 2.739453 1_564
K0 O13 2.764271 1_465
K0 O9 2.785397 1_555
K0 O9 2.909887 1_455
K0 O0 2.914021 1_565
K1 O2 2.690320 1_545
K1 O10 2.801086 1_455
K1 O10 2.841829 1_555
K1 O14 2.978436 1_455
K1 O4 3.014248 1_555
K2 O8 2.569112 1_555
K2 O5 2.725957 1_555
K2 O4 2.726881 1_555
K2 O12 2.732748 1_555
K2 O3 3.106375 1_555
K3 O15 2.772996 1_555
K3 O15 2.871906 1_455
K3 O7 2.899869 1_555
K3 O6 2.935467 1_565
K3 O11 2.978846 1_555
K3 O1 2.998462 1_556
K3 O2 3.124119 1_555
K4 O4 2.675273 1_555
K4 O8 2.707087 1_555
K4 O0 2.761095 1_655
K4 O0 2.868830 1_555
K4 O14 2.887730 1_554
K4 O9 2.897750 1_545
K5 O10 2.651705 1_555
K5 O7 2.656040 1_555
K5 O11 2.831263 1_555
K5 O12 2.861748 1_555
K5 O3 2.978734 1_555
K6 O1 2.740312 1_655
K6 O5 2.789435 1_555
K6 O12 2.820596 1_555
K6 O11 2.826503 1_555
K6 O13 2.983869 1_565
K6 O3 3.047255 1_655
K6 O5 3.118414 1_655
K7 O6 2.622766 1_555
K7 O15 2.760715 1_545
K7 O14 2.795836 1_555
K7 O2 2.901606 1_645
K7 O9 2.938095 1_546
K7 O10 3.096139 1_555
K7 O6 3.213159 1_655
Li0 O4 1.931748 1_555
Li0 O0 2.088135 1_555
Li0 O12 2.151061 1_455
Li0 O13 2.217771 1_455
Li1 O1 1.914681 1_555
Li1 O8 1.997634 1_555
Li1 O7 2.058238 1_554
Li1 O0 2.090778 1_555
Li2 O13 1.936094 1_565
Li2 O5 1.959440 1_555
Li2 O9 2.020453 1_555
Li2 O4 2.274127 1_565
Li3 O8 1.950513 1_556
Li3 O14 1.965475 1_555
Li3 O15 2.022599 1_555
Li3 O7 2.060582 1_555
Li4 O10 1.959519 1_565
Li4 O2 1.999096 1_655
Li4 O13 2.024103 1_565
Li4 O11 2.025358 1_555
Li5 O15 1.926222 1_555
Li5 O2 1.969898 1_655
Li5 O11 2.038249 1_555
Li5 O3 2.046321 1_655
Fe0 O6 1.732922 1_555
Fe0 O14 1.756883 1_455
Fe0 O7 1.775252 1_555
Fe0 O0 1.791408 1_556
Fe1 O5 1.746410 1_555
Fe1 O3 1.760565 1_555
Fe1 O2 1.774641 1_555
Fe1 O11 1.784183 1_555
Fe2 O10 1.787548 1_555
Fe2 O12 1.807397 1_555
Fe2 O4 1.824120 1_555
Fe2 O13 1.841055 1_555
Fe3 O1 1.798963 1_655
Fe3 O8 1.812147 1_555
Fe3 O9 1.815060 1_555
Fe3 O15 1.878920 1_554
