# generated using pymatgen
data_Ba8Fe8O21
_symmetry_space_group_name_H-M   'P 1'
_cell_length_a   5.74417766
_cell_length_b   5.81629992
_cell_length_c   19.09490824
_cell_angle_alpha   99.30332724
_cell_angle_beta   98.08166520
_cell_angle_gamma   60.02877386
_symmetry_Int_Tables_number   1
_chemical_formula_structural   Ba8Fe8O21
_chemical_formula_sum   'Ba8 Fe8 O21'
_cell_volume   544.04175503
_cell_formula_units_Z   1
loop_
 _symmetry_equiv_pos_site_id
 _symmetry_equiv_pos_as_xyz
  1  'x, y, z'
loop_
 _atom_site_type_symbol
 _atom_site_label
 _atom_site_symmetry_multiplicity
 _atom_site_fract_x
 _atom_site_fract_y
 _atom_site_fract_z
 _atom_site_occupancy
  Ba  Ba0  1  0.75179600  0.75081100  0.25198600  1
  Ba  Ba1  1  0.37500000  0.37500000  0.12500000  1
  Ba  Ba2  1  0.99820400  0.99918900  0.99801400  1
  Ba  Ba3  1  0.87500000  0.87500000  0.62500000  1
  Ba  Ba4  1  0.49568400  0.50673800  0.49679100  1
  Ba  Ba5  1  0.12321400  0.12661200  0.37135600  1
  Ba  Ba6  1  0.62678600  0.62338800  0.87864400  1
  Ba  Ba7  1  0.25431600  0.24326200  0.75320900  1
  Fe  Fe0  1  0.66334900  0.65967600  0.05582700  1
  Fe  Fe1  1  0.78463300  0.86327500  0.42937000  1
  Fe  Fe2  1  0.08665100  0.09032400  0.19417300  1
  Fe  Fe3  1  0.43965400  0.45260700  0.31127000  1
  Fe  Fe4  1  0.96536700  0.88672500  0.82063000  1
  Fe  Fe5  1  0.20396200  0.16018000  0.56861200  1
  Fe  Fe6  1  0.54603800  0.58982000  0.68138800  1
  Fe  Fe7  1  0.31034600  0.29739300  0.93873000  1
  O  O0  1  0.49449700  0.48080600  0.99807600  1
  O  O1  1  0.37500000  0.87500000  0.12500000  1
  O  O2  1  0.99042800  0.51747000  0.00762000  1
  O  O3  1  0.87500000  0.37500000  0.12500000  1
  O  O4  1  0.24576400  0.75845600  0.24842300  1
  O  O5  1  0.50423600  0.99154400  0.00157700  1
  O  O6  1  0.11535800  0.62796800  0.38355100  1
  O  O7  1  0.75957200  0.23253000  0.24238000  1
  O  O8  1  0.62891700  0.63074700  0.37577900  1
  O  O9  1  0.25550300  0.26919400  0.25192400  1
  O  O10  1  0.37500000  0.87500000  0.62500000  1
  O  O11  1  0.61811600  0.14900100  0.37230000  1
  O  O12  1  0.87500000  0.37500000  0.62500000  1
  O  O13  1  0.37500000  0.37500000  0.62500000  1
  O  O14  1  0.75627500  0.73037800  0.74938400  1
  O  O15  1  0.99372500  0.01962200  0.50061600  1
  O  O16  1  0.50029100  0.00542700  0.49947800  1
  O  O17  1  0.24970900  0.74457300  0.75052200  1
  O  O18  1  0.13188400  0.60099900  0.87770000  1
  O  O19  1  0.12108300  0.11925300  0.87422100  1
  O  O20  1  0.63464200  0.12203200  0.86644900  1
loop_
_geom_bond_atom_site_label_1
_geom_bond_atom_site_label_2
_geom_bond_distance
_geom_bond_site_symmetry_2
Ba0 O8 2.840565 1_555
Ba0 O9 2.849642 1_655
Ba0 O7 2.859957 1_565
Ba0 O11 2.868847 1_565
Ba0 O4 2.870364 1_655
Ba0 O4 2.876103 1_555
Ba0 O3 2.895089 1_555
Ba0 O1 2.935054 1_555
Ba0 O9 2.937690 1_565
Ba0 O6 2.966044 1_655
Ba0 O7 2.968453 1_555
Ba1 O7 2.823063 1_555
Ba1 O2 2.823063 1_455
Ba1 O0 2.845304 1_554
Ba1 O9 2.845304 1_555
Ba1 O4 2.866672 1_555
Ba1 O5 2.866672 1_545
Ba1 O3 2.872089 1_455
Ba1 O3 2.872089 1_555
Ba1 O1 2.908150 1_545
Ba1 O1 2.908150 1_555
Ba2 O19 2.840565 1_665
Ba2 O0 2.849642 1_565
Ba2 O2 2.859957 1_556
Ba2 O18 2.868847 1_655
Ba2 O5 2.870364 1_556
Ba2 O5 2.876103 1_656
Ba2 O3 2.895089 1_566
Ba2 O1 2.935054 1_656
Ba2 O0 2.937690 1_655
Ba2 O20 2.966044 1_565
Ba2 O2 2.968453 1_566
Ba3 O10 2.872089 1_655
Ba3 O10 2.872089 1_555
Ba3 O13 2.891545 1_655
Ba3 O13 2.891545 1_565
Ba3 O12 2.908150 1_555
Ba3 O12 2.908150 1_565
Ba3 O17 2.908443 1_655
Ba3 O16 2.908443 1_565
Ba3 O14 2.913467 1_555
Ba3 O15 2.913467 1_565
Ba4 O6 2.751572 1_555
Ba4 O11 2.807769 1_555
Ba4 O8 2.834246 1_555
Ba4 O15 2.850730 1_555
Ba4 O10 2.891366 1_555
Ba4 O16 2.905954 1_565
Ba4 O16 2.911352 1_555
Ba4 O15 2.934756 1_465
Ba4 O13 2.945411 1_555
Ba4 O12 2.960839 1_555
Ba5 O4 2.815027 1_545
Ba5 O11 2.841074 1_455
Ba5 O9 2.862590 1_555
Ba5 O6 2.865565 1_555
Ba5 O8 2.887186 1_455
Ba5 O8 2.898706 1_545
Ba5 O11 2.907495 1_555
Ba5 O15 2.916811 1_455
Ba5 O7 2.926847 1_455
Ba5 O16 2.952260 1_555
Ba5 O6 2.969826 1_545
Ba6 O5 2.815027 1_556
Ba6 O18 2.841074 1_655
Ba6 O0 2.862590 1_555
Ba6 O20 2.865565 1_555
Ba6 O19 2.887186 1_655
Ba6 O19 2.898706 1_565
Ba6 O18 2.907495 1_555
Ba6 O14 2.916811 1_555
Ba6 O2 2.926847 1_556
Ba6 O17 2.952260 1_555
Ba6 O20 2.969826 1_565
Ba7 O20 2.751572 1_555
Ba7 O18 2.807769 1_555
Ba7 O19 2.834246 1_555
Ba7 O14 2.850730 1_455
Ba7 O10 2.891366 1_545
Ba7 O17 2.905954 1_545
Ba7 O17 2.911352 1_555
Ba7 O14 2.934756 1_545
Ba7 O13 2.945411 1_555
Ba7 O12 2.960839 1_455
Fe0 O0 1.890943 1_554
Fe0 O2 1.936185 1_555
Fe0 O1 2.016004 1_555
Fe0 O3 2.051490 1_555
Fe0 O5 2.062015 1_555
Fe1 O11 1.889052 1_565
Fe1 O6 1.931327 1_655
Fe1 O16 2.012736 1_565
Fe1 O8 2.044552 1_555
Fe1 O15 2.086171 1_565
Fe2 O9 1.890943 1_555
Fe2 O7 1.936185 1_455
Fe2 O1 2.016004 1_545
Fe2 O3 2.051490 1_455
Fe2 O4 2.062015 1_545
Fe3 O9 1.985115 1_555
Fe3 O11 2.011971 1_555
Fe3 O8 2.027075 1_555
Fe3 O4 2.044501 1_555
Fe3 O7 2.128602 1_555
Fe3 O6 2.187406 1_555
Fe4 O18 1.889052 1_655
Fe4 O20 1.931327 1_565
Fe4 O17 2.012736 1_655
Fe4 O19 2.044552 1_665
Fe4 O14 2.086171 1_555
Fe5 O10 1.878203 1_545
Fe5 O15 2.003718 1_455
Fe5 O12 2.017245 1_455
Fe5 O16 2.041340 1_555
Fe5 O13 2.044459 1_555
Fe6 O10 1.878203 1_555
Fe6 O14 2.003718 1_555
Fe6 O12 2.017245 1_555
Fe6 O17 2.041340 1_555
Fe6 O13 2.044459 1_555
Fe7 O0 1.985115 1_555
Fe7 O18 2.011971 1_555
Fe7 O19 2.027075 1_555
Fe7 O5 2.044501 1_546
Fe7 O2 2.128602 1_456
Fe7 O20 2.187406 1_555
