# generated using pymatgen
data_Co3OF5
_symmetry_space_group_name_H-M   'P 1'
_cell_length_a   4.74367200
_cell_length_b   5.69800700
_cell_length_c   7.91161374
_cell_angle_alpha   87.17441591
_cell_angle_beta   90.00000000
_cell_angle_gamma   90.00000000
_symmetry_Int_Tables_number   1
_chemical_formula_structural   Co3OF5
_chemical_formula_sum   'Co6 O2 F10'
_cell_volume   213.58678627
_cell_formula_units_Z   2
loop_
 _symmetry_equiv_pos_site_id
 _symmetry_equiv_pos_as_xyz
  1  'x, y, z'
loop_
 _atom_site_type_symbol
 _atom_site_label
 _atom_site_symmetry_multiplicity
 _atom_site_fract_x
 _atom_site_fract_y
 _atom_site_fract_z
 _atom_site_occupancy
  Co  Co0  1  0.51472000  0.74533600  0.98640600  1
  Co  Co1  1  0.51615800  0.07266400  0.67063800  1
  Co  Co2  1  0.47046500  0.40337100  0.32950800  1
  Co  Co3  1  0.01615800  0.92733600  0.32936200  1
  Co  Co4  1  0.97046500  0.59662900  0.67049200  1
  Co  Co5  1  0.01472000  0.25466400  0.01359400  1
  O  O0  1  0.19901200  0.21757200  0.23871400  1
  O  O1  1  0.69901200  0.78242800  0.76128600  1
  F  F0  1  0.19748400  0.87555200  0.56223200  1
  F  F1  1  0.19573900  0.54706800  0.89618900  1
  F  F2  1  0.30807800  0.71201600  0.22551600  1
  F  F3  1  0.29897500  0.04580200  0.89695500  1
  F  F4  1  0.29937000  0.38483400  0.57509800  1
  F  F5  1  0.69748400  0.12444800  0.43776800  1
  F  F6  1  0.69573900  0.45293200  0.10381100  1
  F  F7  1  0.80807800  0.28798400  0.77448400  1
  F  F8  1  0.79897500  0.95419800  0.10304500  1
  F  F9  1  0.79937000  0.61516600  0.42490200  1
loop_
_geom_bond_atom_site_label_1
_geom_bond_atom_site_label_2
_geom_bond_distance
_geom_bond_site_symmetry_2
Co0 O1 1.985951 1_555
Co0 F1 2.038345 1_555
Co0 F8 2.048020 1_556
Co0 F6 2.055120 1_556
Co0 F3 2.088043 1_565
Co0 F2 2.130777 1_556
Co1 O1 1.970972 1_545
Co1 F5 2.041490 1_555
Co1 F7 2.048721 1_555
Co1 F3 2.064902 1_555
Co1 F0 2.092178 1_545
Co1 F4 2.158768 1_555
Co2 O0 1.835732 1_555
Co2 F2 2.054391 1_555
Co2 F5 2.070028 1_555
Co2 F6 2.088172 1_555
Co2 F4 2.103556 1_555
Co2 F9 2.133089 1_555
Co3 O0 1.970972 1_565
Co3 F0 2.041490 1_555
Co3 F2 2.048721 1_555
Co3 F8 2.064902 1_455
Co3 F5 2.092178 1_465
Co3 F9 2.158768 1_455
Co4 O1 1.835732 1_555
Co4 F7 2.054391 1_555
Co4 F0 2.070028 1_655
Co4 F1 2.088172 1_655
Co4 F9 2.103556 1_555
Co4 F4 2.133089 1_655
Co5 O0 1.985951 1_555
Co5 F6 2.038345 1_455
Co5 F3 2.048020 1_554
Co5 F1 2.055120 1_554
Co5 F8 2.088043 1_445
Co5 F7 2.130777 1_454
