# generated using pymatgen
data_Li3CrSiCO7
_symmetry_space_group_name_H-M   'P 1'
_cell_length_a   5.05174557
_cell_length_b   8.30590824
_cell_length_c   12.95647102
_cell_angle_alpha   89.99627991
_cell_angle_beta   90.00449490
_cell_angle_gamma   85.24665065
_symmetry_Int_Tables_number   1
_chemical_formula_structural   Li3CrSiCO7
_chemical_formula_sum   'Li12 Cr4 Si4 C4 O28'
_cell_volume   541.77512762
_cell_formula_units_Z   4
loop_
 _symmetry_equiv_pos_site_id
 _symmetry_equiv_pos_as_xyz
  1  'x, y, z'
loop_
 _atom_site_type_symbol
 _atom_site_label
 _atom_site_symmetry_multiplicity
 _atom_site_fract_x
 _atom_site_fract_y
 _atom_site_fract_z
 _atom_site_occupancy
  Li  Li0  1  0.77050700  0.10858100  0.12503400  1
  Li  Li1  1  0.77048700  0.10859500  0.62498900  1
  Li  Li2  1  0.22946500  0.89143100  0.37496400  1
  Li  Li3  1  0.22955200  0.89139300  0.87501000  1
  Li  Li4  1  0.23594900  0.29322200  0.01750500  1
  Li  Li5  1  0.23592500  0.29323700  0.51746500  1
  Li  Li6  1  0.23596900  0.29319100  0.23255800  1
  Li  Li7  1  0.23594200  0.29324100  0.73251700  1
  Li  Li8  1  0.76404400  0.70680500  0.26744300  1
  Li  Li9  1  0.76405700  0.70675700  0.76748300  1
  Li  Li10  1  0.76405600  0.70677600  0.48249500  1
  Li  Li11  1  0.76410000  0.70676200  0.98253000  1
  Cr  Cr0  1  0.80246300  0.32074600  0.87498300  1
  Cr  Cr1  1  0.19754300  0.67926100  0.62499100  1
  Cr  Cr2  1  0.80240300  0.32076200  0.37500900  1
  Cr  Cr3  1  0.19754100  0.67925700  0.12502600  1
  Si  Si0  1  0.71611500  0.42215300  0.12500500  1
  Si  Si1  1  0.71608200  0.42217700  0.62499700  1
  Si  Si2  1  0.28387800  0.57783700  0.37499100  1
  Si  Si3  1  0.28391100  0.57782800  0.87500600  1
  C  C0  1  0.70260200  0.03060100  0.37495900  1
  C  C1  1  0.70264200  0.03058900  0.87501600  1
  C  C2  1  0.29740200  0.96940100  0.12503800  1
  C  C3  1  0.29736600  0.96940400  0.62498700  1
  O  O0  1  0.35759700  0.11652900  0.12505400  1
  O  O1  1  0.35757900  0.11654200  0.62497200  1
  O  O2  1  0.64240000  0.88346700  0.37494700  1
  O  O3  1  0.64243100  0.88345400  0.87502600  1
  O  O4  1  0.94729800  0.07084800  0.37496700  1
  O  O5  1  0.94734800  0.07082500  0.87500900  1
  O  O6  1  0.05270000  0.92916000  0.12503700  1
  O  O7  1  0.05265800  0.92917000  0.62498900  1
  O  O8  1  0.51930200  0.15080800  0.37496600  1
  O  O9  1  0.51934700  0.15080100  0.87500500  1
  O  O10  1  0.48068700  0.84918600  0.12503700  1
  O  O11  1  0.48066300  0.84919600  0.62499300  1
  O  O12  1  0.38747300  0.45548600  0.12504700  1
  O  O13  1  0.38745500  0.45549200  0.62502600  1
  O  O14  1  0.61251500  0.54452600  0.37495700  1
  O  O15  1  0.61255200  0.54450600  0.87497000  1
  O  O16  1  0.16067400  0.40207100  0.37500600  1
  O  O17  1  0.16072500  0.40205100  0.87500800  1
  O  O18  1  0.83929700  0.59793400  0.12499900  1
  O  O19  1  0.83928500  0.59794400  0.62498500  1
  O  O20  1  0.82000800  0.30475400  0.02812800  1
  O  O21  1  0.81997400  0.30475500  0.52812600  1
  O  O22  1  0.82007200  0.30470700  0.22186700  1
  O  O23  1  0.82005900  0.30471400  0.72184600  1
  O  O24  1  0.17992000  0.69530200  0.27814800  1
  O  O25  1  0.17995100  0.69527900  0.77813900  1
  O  O26  1  0.17998900  0.69525200  0.47185900  1
  O  O27  1  0.18003800  0.69523600  0.97188700  1
loop_
_geom_bond_atom_site_label_1
_geom_bond_atom_site_label_2
_geom_bond_distance
_geom_bond_site_symmetry_2
Li0 O6 1.975097 1_645
Li0 O0 2.081486 1_555
Li0 O22 2.087636 1_555
Li0 O20 2.088350 1_555
Li1 O7 1.975047 1_645
Li1 O1 2.081476 1_555
Li1 O23 2.087783 1_555
Li1 O21 2.087916 1_555
Li2 O4 1.974987 1_465
Li2 O2 2.081605 1_555
Li2 O24 2.087505 1_555
Li2 O26 2.088280 1_555
Li3 O5 1.975197 1_465
Li3 O3 2.081333 1_555
Li3 O25 2.087887 1_555
Li3 O27 2.088031 1_555
Li4 O17 2.076752 1_554
Li4 O0 2.079263 1_555
Li4 O20 2.099993 1_455
Li4 O12 2.124825 1_555
Li4 O9 2.564723 1_554
Li5 O16 2.076352 1_555
Li5 O1 2.078917 1_555
Li5 O21 2.100080 1_455
Li5 O13 2.124949 1_555
Li5 O8 2.564686 1_555
Li6 O16 2.076576 1_555
Li6 O0 2.078866 1_555
Li6 O22 2.099811 1_455
Li6 O12 2.124655 1_555
Li6 O8 2.563291 1_555
Li7 O17 2.076769 1_555
Li7 O1 2.079442 1_555
Li7 O23 2.099737 1_455
Li7 O13 2.124261 1_555
Li7 O9 2.564423 1_555
Li8 O18 2.076468 1_555
Li8 O2 2.078885 1_555
Li8 O24 2.099722 1_655
Li8 O14 2.124644 1_555
Li8 O10 2.563329 1_555
Li9 O19 2.076868 1_555
Li9 O3 2.079400 1_555
Li9 O25 2.099778 1_655
Li9 O15 2.124210 1_555
Li9 O11 2.564409 1_555
Li10 O19 2.076686 1_555
Li10 O2 2.079253 1_555
Li10 O26 2.099966 1_655
Li10 O14 2.124749 1_555
Li10 O11 2.564688 1_555
Li11 O18 2.076406 1_556
Li11 O3 2.078892 1_555
Li11 O27 2.099996 1_655
Li11 O15 2.124984 1_555
Li11 O10 2.564838 1_556
Cr0 O17 1.983471 1_655
Cr0 O23 1.990087 1_555
Cr0 O20 1.990128 1_556
Cr0 O15 2.019663 1_555
Cr0 O9 2.091079 1_555
Cr0 O5 2.143114 1_555
Cr1 O19 1.983494 1_455
Cr1 O26 1.989961 1_555
Cr1 O25 1.990221 1_555
Cr1 O13 2.019731 1_555
Cr1 O11 2.091033 1_555
Cr1 O7 2.143020 1_555
Cr2 O16 1.983528 1_655
Cr2 O21 1.989779 1_555
Cr2 O22 1.990178 1_555
Cr2 O14 2.019646 1_555
Cr2 O8 2.091078 1_555
Cr2 O4 2.143073 1_555
Cr3 O18 1.983448 1_455
Cr3 O24 1.989905 1_555
Cr3 O27 1.990036 1_554
Cr3 O12 2.019786 1_555
Cr3 O10 2.091094 1_555
Cr3 O6 2.142915 1_555
C0 O2 1.283578 1_545
C0 O8 1.304255 1_555
C0 O4 1.307012 1_555
C1 O3 1.283600 1_545
C1 O9 1.304268 1_555
C1 O5 1.307030 1_555
C2 O0 1.283518 1_565
C2 O10 1.304253 1_555
C2 O6 1.307025 1_555
C3 O1 1.283628 1_565
C3 O11 1.304252 1_555
C3 O7 1.307035 1_555
O12 Si0 1.660358 1_555
O13 Si1 1.660271 1_555
O14 Si2 1.660318 1_555
O15 Si3 1.660346 1_555
O16 Si2 1.633788 1_555
O17 Si3 1.633831 1_555
O18 Si0 1.633853 1_555
O19 Si1 1.633793 1_555
O20 Si0 1.648399 1_555
O21 Si1 1.648447 1_555
O22 Si0 1.648400 1_555
O23 Si1 1.648379 1_555
O24 Si2 1.648303 1_555
O25 Si3 1.648477 1_555
O26 Si2 1.648380 1_555
O27 Si3 1.648454 1_555
