# generated using pymatgen
data_Ho2CuO4
_symmetry_space_group_name_H-M   'P 1'
_cell_length_a   6.52028283
_cell_length_b   6.52028283
_cell_length_c   5.47871500
_cell_angle_alpha   90.00000000
_cell_angle_beta   90.00000000
_cell_angle_gamma   130.26684853
_symmetry_Int_Tables_number   1
_chemical_formula_structural   Ho2CuO4
_chemical_formula_sum   'Ho4 Cu2 O8'
_cell_volume   177.72980737
_cell_formula_units_Z   2
loop_
 _symmetry_equiv_pos_site_id
 _symmetry_equiv_pos_as_xyz
  1  'x, y, z'
loop_
 _atom_site_type_symbol
 _atom_site_label
 _atom_site_symmetry_multiplicity
 _atom_site_fract_x
 _atom_site_fract_y
 _atom_site_fract_z
 _atom_site_occupancy
  Ho  Ho0  1  0.65495100  0.34504900  0.00000000  1
  Ho  Ho1  1  0.34504900  0.65495100  0.00000000  1
  Ho  Ho2  1  0.84504900  0.15495100  0.50000000  1
  Ho  Ho3  1  0.15495100  0.84504900  0.50000000  1
  Cu  Cu0  1  0.00000000  0.00000000  0.00000000  1
  Cu  Cu1  1  0.50000000  0.50000000  0.50000000  1
  O  O0  1  0.69497300  0.69497300  0.19542600  1
  O  O1  1  0.51073200  0.01073200  0.25000000  1
  O  O2  1  0.01073200  0.51073200  0.25000000  1
  O  O3  1  0.19497300  0.19497300  0.30457400  1
  O  O4  1  0.80502700  0.80502700  0.69542600  1
  O  O5  1  0.98926800  0.48926800  0.75000000  1
  O  O6  1  0.48926800  0.98926800  0.75000000  1
  O  O7  1  0.30502700  0.30502700  0.80457400  1
loop_
_geom_bond_atom_site_label_1
_geom_bond_atom_site_label_2
_geom_bond_distance
_geom_bond_site_symmetry_2
Ho0 O1 2.205040 1_555
Ho0 O5 2.205040 1_554
Ho0 O6 2.277041 1_544
Ho0 O2 2.277041 1_655
Ho0 O7 2.377080 1_554
Ho0 O0 2.377080 1_555
Ho1 O2 2.205040 1_555
Ho1 O6 2.205040 1_554
Ho1 O5 2.277041 1_454
Ho1 O1 2.277041 1_565
Ho1 O7 2.377080 1_554
Ho1 O0 2.377080 1_555
Ho2 O5 2.205040 1_555
Ho2 O1 2.205040 1_555
Ho2 O2 2.277041 1_655
Ho2 O6 2.277041 1_545
Ho2 O4 2.377080 1_545
Ho2 O3 2.377080 1_655
Ho3 O6 2.205040 1_555
Ho3 O2 2.205040 1_555
Ho3 O1 2.277041 1_565
Ho3 O5 2.277041 1_455
Ho3 O4 2.377080 1_455
Ho3 O3 2.377080 1_565
Cu0 O3 1.981813 1_555
Cu0 O4 1.981813 1_444
Cu0 O7 1.985989 1_554
Cu0 O0 1.985989 1_445
Cu1 O7 1.981813 1_555
Cu1 O0 1.981813 1_555
Cu1 O3 1.985989 1_555
Cu1 O4 1.985989 1_555
