# generated using pymatgen
data_LiNi2(PO4)2
_symmetry_space_group_name_H-M   'P 1'
_cell_length_a   5.05317400
_cell_length_b   8.43747300
_cell_length_c   16.60288282
_cell_angle_alpha   80.66141044
_cell_angle_beta   90.00000000
_cell_angle_gamma   90.00000000
_symmetry_Int_Tables_number   1
_chemical_formula_structural   LiNi2(PO4)2
_chemical_formula_sum   'Li4 Ni8 P8 O32'
_cell_volume   698.49903798
_cell_formula_units_Z   4
loop_
 _symmetry_equiv_pos_site_id
 _symmetry_equiv_pos_as_xyz
  1  'x, y, z'
loop_
 _atom_site_type_symbol
 _atom_site_label
 _atom_site_symmetry_multiplicity
 _atom_site_fract_x
 _atom_site_fract_y
 _atom_site_fract_z
 _atom_site_occupancy
  Li  Li0  1  0.32962900  0.00842300  0.25186200  1
  Li  Li1  1  0.67037100  0.00842300  0.75186200  1
  Li  Li2  1  0.83294100  0.61145200  0.49436900  1
  Li  Li3  1  0.16705900  0.61145200  0.99436900  1
  Ni  Ni0  1  0.33129100  0.36445200  0.12458200  1
  Ni  Ni1  1  0.66870900  0.36445200  0.62458200  1
  Ni  Ni2  1  0.19090000  0.47106600  0.36414100  1
  Ni  Ni3  1  0.80910000  0.47106600  0.86414100  1
  Ni  Ni4  1  0.69220500  0.87534100  0.11840200  1
  Ni  Ni5  1  0.30779500  0.87534100  0.61840200  1
  Ni  Ni6  1  0.82356100  0.97329600  0.37337000  1
  Ni  Ni7  1  0.17643900  0.97329600  0.87337000  1
  P  P0  1  0.81984000  0.18060700  0.18819900  1
  P  P1  1  0.18016000  0.18060700  0.68819900  1
  P  P2  1  0.69380900  0.29336700  0.43302600  1
  P  P3  1  0.30619100  0.29336700  0.93302600  1
  P  P4  1  0.19316300  0.68589200  0.18228900  1
  P  P5  1  0.80683700  0.68589200  0.68228900  1
  P  P6  1  0.31795200  0.78946700  0.43265300  1
  P  P7  1  0.68204800  0.78946700  0.93265300  1
  O  O0  1  0.74986300  0.09162000  0.11411400  1
  O  O1  1  0.70583500  0.07228500  0.26522600  1
  O  O2  1  0.77522700  0.11665200  0.45144500  1
  O  O3  1  0.12448600  0.19345000  0.19702200  1
  O  O4  1  0.25013700  0.09162000  0.61411400  1
  O  O5  1  0.29416500  0.07228500  0.76522600  1
  O  O6  1  0.27115800  0.38101900  0.00685800  1
  O  O7  1  0.39802900  0.29764700  0.40325000  1
  O  O8  1  0.22477300  0.11665200  0.95144500  1
  O  O9  1  0.68994600  0.34636500  0.16847500  1
  O  O10  1  0.87551400  0.19345000  0.69702200  1
  O  O11  1  0.85265500  0.39058000  0.36000300  1
  O  O12  1  0.72884200  0.38101900  0.50685800  1
  O  O13  1  0.60197100  0.29764700  0.90325000  1
  O  O14  1  0.31005400  0.34636500  0.66847500  1
  O  O15  1  0.24496500  0.59746800  0.10956100  1
  O  O16  1  0.27968900  0.57811800  0.26181000  1
  O  O17  1  0.14734500  0.39058000  0.86000300  1
  O  O18  1  0.18333800  0.62001100  0.43740100  1
  O  O19  1  0.89687900  0.73236000  0.18917300  1
  O  O20  1  0.75503500  0.59746800  0.60956100  1
  O  O21  1  0.72031100  0.57811800  0.76181000  1
  O  O22  1  0.76389900  0.84602800  0.01276600  1
  O  O23  1  0.62048300  0.77469000  0.42357400  1
  O  O24  1  0.81666200  0.62001100  0.93740100  1
  O  O25  1  0.35605900  0.84657700  0.16999100  1
  O  O26  1  0.10312100  0.73236000  0.68917300  1
  O  O27  1  0.19699300  0.90761700  0.36012800  1
  O  O28  1  0.23610100  0.84602800  0.51276600  1
  O  O29  1  0.37951700  0.77469000  0.92357400  1
  O  O30  1  0.64394100  0.84657700  0.66999100  1
  O  O31  1  0.80300700  0.90761700  0.86012800  1
loop_
_geom_bond_atom_site_label_1
_geom_bond_atom_site_label_2
_geom_bond_distance
_geom_bond_site_symmetry_2
Li0 O3 1.969648 1_555
Li0 O27 1.976758 1_545
Li0 O1 1.998075 1_555
Li0 O25 2.081517 1_545
Li1 O10 1.969648 1_555
Li1 O31 1.976758 1_545
Li1 O5 1.998075 1_555
Li1 O30 2.081517 1_545
Li2 O20 1.937368 1_555
Li2 O23 1.976301 1_555
Li2 O12 1.992250 1_555
Li2 O18 2.003181 1_655
Li3 O15 1.937368 1_556
Li3 O29 1.976301 1_555
Li3 O6 1.992250 1_556
Li3 O24 2.003181 1_455
Ni0 O9 1.950095 1_555
Ni0 O6 1.960485 1_555
Ni0 O15 1.989667 1_555
Ni0 O3 2.014240 1_555
Ni1 O14 1.950095 1_555
Ni1 O12 1.960485 1_555
Ni1 O20 1.989667 1_555
Ni1 O10 2.014240 1_555
Ni2 O7 1.830240 1_555
Ni2 O11 1.844570 1_455
Ni2 O16 1.845450 1_555
Ni2 O18 1.885825 1_555
Ni3 O13 1.830240 1_555
Ni3 O17 1.844570 1_655
Ni3 O21 1.845450 1_555
Ni3 O24 1.885825 1_555
Ni4 O0 1.837897 1_565
Ni4 O22 1.846410 1_555
Ni4 O19 1.856252 1_555
Ni4 O25 1.900087 1_555
Ni5 O4 1.837897 1_565
Ni5 O28 1.846410 1_555
Ni5 O26 1.856252 1_555
Ni5 O30 1.900087 1_555
Ni6 O2 1.926618 1_565
Ni6 O1 1.946439 1_565
Ni6 O27 1.988921 1_655
Ni6 O23 2.025491 1_555
Ni7 O8 1.926618 1_565
Ni7 O5 1.946439 1_565
Ni7 O31 1.988921 1_455
Ni7 O29 2.025491 1_555
O0 P0 1.581600 1_555
O1 P0 1.556722 1_555
O2 P2 1.529042 1_555
O3 P0 1.551836 1_455
O4 P1 1.581600 1_555
O5 P1 1.556722 1_555
O6 P3 1.541152 1_554
O7 P2 1.572839 1_555
O8 P3 1.529042 1_555
O9 P0 1.531488 1_555
O10 P1 1.551836 1_655
O11 P2 1.569787 1_555
O12 P2 1.541152 1_555
O13 P3 1.572839 1_555
O14 P1 1.531488 1_555
O15 P4 1.541285 1_555
O16 P4 1.539991 1_555
O17 P3 1.569787 1_555
O18 P6 1.573727 1_555
O19 P4 1.556554 1_655
O20 P5 1.541285 1_555
O21 P5 1.539991 1_555
O22 P7 1.540783 1_554
O23 P6 1.543184 1_555
O24 P7 1.573727 1_555
O25 P4 1.570840 1_555
O26 P5 1.556554 1_455
O27 P6 1.558118 1_555
O28 P6 1.540783 1_555
O29 P7 1.543184 1_555
O30 P5 1.570840 1_555
O31 P7 1.558118 1_555
