# generated using pymatgen
data_LiVF5
_symmetry_space_group_name_H-M   'P 1'
_cell_length_a   5.72976500
_cell_length_b   7.70916800
_cell_length_c   16.81361500
_cell_angle_alpha   90.00000000
_cell_angle_beta   90.00000000
_cell_angle_gamma   90.00000000
_symmetry_Int_Tables_number   1
_chemical_formula_structural   LiVF5
_chemical_formula_sum   'Li8 V8 F40'
_cell_volume   742.68631054
_cell_formula_units_Z   8
loop_
 _symmetry_equiv_pos_site_id
 _symmetry_equiv_pos_as_xyz
  1  'x, y, z'
loop_
 _atom_site_type_symbol
 _atom_site_label
 _atom_site_symmetry_multiplicity
 _atom_site_fract_x
 _atom_site_fract_y
 _atom_site_fract_z
 _atom_site_occupancy
  Li  Li0  1  0.25000000  0.81558400  0.41626900  1
  Li  Li1  1  0.25000000  0.31558400  0.08373100  1
  Li  Li2  1  0.25000000  0.27995500  0.56936400  1
  Li  Li3  1  0.25000000  0.77995500  0.93063600  1
  Li  Li4  1  0.75000000  0.72004500  0.43063600  1
  Li  Li5  1  0.75000000  0.22004500  0.06936400  1
  Li  Li6  1  0.75000000  0.68441600  0.91626900  1
  Li  Li7  1  0.75000000  0.18441600  0.58373100  1
  V  V0  1  0.25000000  0.94242800  0.14218700  1
  V  V1  1  0.25000000  0.44242800  0.35781300  1
  V  V2  1  0.25000000  0.88788000  0.62388600  1
  V  V3  1  0.25000000  0.38788000  0.87611400  1
  V  V4  1  0.75000000  0.61212000  0.12388600  1
  V  V5  1  0.75000000  0.55757200  0.64218700  1
  V  V6  1  0.75000000  0.05757200  0.85781300  1
  V  V7  1  0.75000000  0.11212000  0.37611400  1
  F  F0  1  0.49893800  0.72904800  0.66022100  1
  F  F1  1  0.49893800  0.22904800  0.83977900  1
  F  F2  1  0.47262400  0.61637900  0.38152000  1
  F  F3  1  0.47262400  0.11637900  0.11848000  1
  F  F4  1  0.47122800  0.04719100  0.58389300  1
  F  F5  1  0.47122800  0.54719100  0.91610700  1
  F  F6  1  0.25000000  0.47750800  0.25380500  1
  F  F7  1  0.25000000  0.98248400  0.71965400  1
  F  F8  1  0.25000000  0.97750800  0.24619500  1
  F  F9  1  0.25000000  0.86679800  0.03814800  1
  F  F10  1  0.25000000  0.36679800  0.46185200  1
  F  F11  1  0.25000000  0.48248400  0.78034600  1
  F  F12  1  0.25000000  0.76334200  0.53045600  1
  F  F13  1  0.25000000  0.26334200  0.96954400  1
  F  F14  1  0.02877200  0.54719100  0.91610700  1
  F  F15  1  0.02877200  0.04719100  0.58389300  1
  F  F16  1  0.02737600  0.61637900  0.38152000  1
  F  F17  1  0.02737600  0.11637900  0.11848000  1
  F  F18  1  0.00106200  0.72904800  0.66022100  1
  F  F19  1  0.00106200  0.22904800  0.83977900  1
  F  F20  1  0.99893800  0.77095200  0.16022100  1
  F  F21  1  0.99893800  0.27095200  0.33977900  1
  F  F22  1  0.97262400  0.88362100  0.88152000  1
  F  F23  1  0.97262400  0.38362100  0.61848000  1
  F  F24  1  0.97122800  0.95280900  0.41610700  1
  F  F25  1  0.97122800  0.45280900  0.08389300  1
  F  F26  1  0.75000000  0.52249200  0.74619500  1
  F  F27  1  0.75000000  0.51751600  0.21965400  1
  F  F28  1  0.75000000  0.63320200  0.53814800  1
  F  F29  1  0.75000000  0.01751600  0.28034600  1
  F  F30  1  0.75000000  0.23665800  0.46954400  1
  F  F31  1  0.75000000  0.73665800  0.03045600  1
  F  F32  1  0.75000000  0.13320200  0.96185200  1
  F  F33  1  0.75000000  0.02249200  0.75380500  1
  F  F34  1  0.52877200  0.45280900  0.08389300  1
  F  F35  1  0.52877200  0.95280900  0.41610700  1
  F  F36  1  0.52737600  0.88362100  0.88152000  1
  F  F37  1  0.52737600  0.38362100  0.61848000  1
  F  F38  1  0.50106200  0.77095200  0.16022100  1
  F  F39  1  0.50106200  0.27095200  0.33977900  1
loop_
_geom_bond_atom_site_label_1
_geom_bond_atom_site_label_2
_geom_bond_distance
_geom_bond_site_symmetry_2
F0 V2 1.976620 1_555
F0 V5 1.977073 1_555
F1 V3 1.976620 1_555
F1 V6 1.977073 1_555
F2 V1 1.893231 1_555
F2 Li4 1.961258 1_555
F2 Li0 2.080110 1_555
F3 V0 1.893231 1_545
F3 Li5 1.961258 1_555
F3 Li1 2.080110 1_555
F4 V2 1.888728 1_545
F4 Li7 1.915855 1_555
F4 Li2 2.210515 1_555
F5 V3 1.888728 1_555
F5 Li6 1.915855 1_555
F5 Li3 2.210515 1_555
F6 V1 1.769538 1_555
F7 V2 1.767673 1_555
F8 V0 1.769538 1_555
F9 V0 1.843880 1_555
F9 Li3 1.927659 1_554
F10 V1 1.843880 1_555
F10 Li2 1.927659 1_555
F11 V3 1.767673 1_555
F12 V2 1.841053 1_555
F12 Li0 1.961684 1_555
F13 V3 1.841053 1_555
F13 Li1 1.961684 1_556
F14 V3 1.888728 1_555
F14 Li6 1.915855 1_455
F14 Li3 2.210515 1_555
F15 V2 1.888728 1_545
F15 Li7 1.915855 1_455
F15 Li2 2.210515 1_555
F16 V1 1.893231 1_555
F16 Li4 1.961258 1_455
F16 Li0 2.080110 1_555
F17 V0 1.893231 1_545
F17 Li5 1.961258 1_455
F17 Li1 2.080110 1_555
F18 V2 1.976620 1_555
F18 V5 1.977073 1_455
F19 V3 1.976620 1_555
F19 V6 1.977073 1_455
F20 V4 1.976620 1_555
F20 V0 1.977073 1_655
F21 V7 1.976620 1_555
F21 V1 1.977073 1_655
F22 V6 1.893231 1_565
F22 Li3 1.961258 1_655
F22 Li6 2.080110 1_555
F23 V5 1.893231 1_555
F23 Li2 1.961258 1_655
F23 Li7 2.080110 1_555
F24 V7 1.888728 1_565
F24 Li0 1.915855 1_655
F24 Li4 2.210515 1_555
F25 V4 1.888728 1_555
F25 Li1 1.915855 1_655
F25 Li5 2.210515 1_555
F26 V5 1.769538 1_555
F27 V4 1.767673 1_555
F28 V5 1.843880 1_555
F28 Li4 1.927659 1_555
F29 V7 1.767673 1_555
F30 V7 1.841053 1_555
F30 Li7 1.961684 1_555
F31 V4 1.841053 1_555
F31 Li6 1.961684 1_554
F32 V6 1.843880 1_555
F32 Li5 1.927659 1_556
F33 V6 1.769538 1_555
F34 V4 1.888728 1_555
F34 Li1 1.915855 1_555
F34 Li5 2.210515 1_555
F35 V7 1.888728 1_565
F35 Li0 1.915855 1_555
F35 Li4 2.210515 1_555
F36 V6 1.893231 1_565
F36 Li3 1.961258 1_555
F36 Li6 2.080110 1_555
F37 V5 1.893231 1_555
F37 Li2 1.961258 1_555
F37 Li7 2.080110 1_555
F38 V4 1.976620 1_555
F38 V0 1.977073 1_555
F39 V7 1.976620 1_555
F39 V1 1.977073 1_555
