# generated using pymatgen
data_Sr3(AlSi)2
_symmetry_space_group_name_H-M   'P 1'
_cell_length_a   4.20638298
_cell_length_b   4.84993781
_cell_length_c   10.11497915
_cell_angle_alpha   103.86521901
_cell_angle_beta   102.01204098
_cell_angle_gamma   89.99897007
_symmetry_Int_Tables_number   1
_chemical_formula_structural   Sr3(AlSi)2
_chemical_formula_sum   'Sr3 Al2 Si2'
_cell_volume   195.68302900
_cell_formula_units_Z   1
loop_
 _symmetry_equiv_pos_site_id
 _symmetry_equiv_pos_as_xyz
  1  'x, y, z'
loop_
 _atom_site_type_symbol
 _atom_site_label
 _atom_site_symmetry_multiplicity
 _atom_site_fract_x
 _atom_site_fract_y
 _atom_site_fract_z
 _atom_site_occupancy
  Sr  Sr0  1  0.50000000  0.00000000  0.00000000  1
  Sr  Sr1  1  0.81503936  0.81491987  0.62986115  1
  Sr  Sr2  1  0.18496064  0.18508013  0.37013885  1
  Al  Al0  1  0.06678975  0.56677508  0.13382300  1
  Al  Al1  1  0.93321025  0.43322492  0.86617700  1
  Si  Si0  1  0.63870090  0.63874340  0.27744302  1
  Si  Si1  1  0.36129910  0.36125660  0.72255698  1
loop_
_geom_bond_atom_site_label_1
_geom_bond_atom_site_label_2
_geom_bond_distance
_geom_bond_site_symmetry_2
Al0 Si0 2.514067 1_455
Al0 Si0 2.514331 1_555
Al0 Al1 2.567255 1_454
Al0 Sr2 3.318718 1_555
Al0 Sr2 3.320128 1_565
Al0 Sr0 3.456306 1_455
Al0 Sr0 3.456981 1_465
Al0 Sr0 3.457180 1_555
Al0 Sr0 3.457961 1_565
Al1 Si1 2.514067 1_655
Al1 Si1 2.514331 1_555
Al1 Sr1 3.318718 1_555
Al1 Sr1 3.320128 1_545
Al1 Sr0 3.456306 1_666
Al1 Sr0 3.456981 1_656
Al1 Sr0 3.457180 1_566
Al1 Sr0 3.457961 1_556
Si0 Sr2 3.330430 1_655
Si0 Sr2 3.330550 1_665
Si0 Sr2 3.331172 1_555
Si0 Sr2 3.331182 1_565
Si0 Sr1 3.380387 1_555
Si0 Sr0 3.600091 1_565
Si0 Sr0 3.600633 1_555
Si1 Sr1 3.330430 1_455
Si1 Sr1 3.330550 1_445
Si1 Sr1 3.331172 1_555
Si1 Sr1 3.331182 1_545
Si1 Sr2 3.380387 1_555
Si1 Sr0 3.600091 1_556
Si1 Sr0 3.600633 1_566
