# generated using pymatgen
data_Li4TiFe4(Co2O9)2
_symmetry_space_group_name_H-M   'P 1'
_cell_length_a   2.89410100
_cell_length_b   8.81679200
_cell_length_c   25.05148800
_cell_angle_alpha   90.00000000
_cell_angle_beta   90.00000000
_cell_angle_gamma   90.00000000
_symmetry_Int_Tables_number   1
_chemical_formula_structural   Li4TiFe4(Co2O9)2
_chemical_formula_sum   'Li8 Ti2 Fe8 Co8 O36'
_cell_volume   639.23096676
_cell_formula_units_Z   2
loop_
 _symmetry_equiv_pos_site_id
 _symmetry_equiv_pos_as_xyz
  1  'x, y, z'
loop_
 _atom_site_type_symbol
 _atom_site_label
 _atom_site_symmetry_multiplicity
 _atom_site_fract_x
 _atom_site_fract_y
 _atom_site_fract_z
 _atom_site_occupancy
  Li  Li0  1  0.50000000  0.92452700  0.99633600  1
  Li  Li1  1  0.50000000  0.95070700  0.20352300  1
  Li  Li2  1  0.50000000  0.04929300  0.70352300  1
  Li  Li3  1  0.50000000  0.07547300  0.49633600  1
  Li  Li4  1  0.50000000  0.45420900  0.52773900  1
  Li  Li5  1  0.50000000  0.44273600  0.29555600  1
  Li  Li6  1  0.50000000  0.55726400  0.79555600  1
  Li  Li7  1  0.50000000  0.54579100  0.02773900  1
  Ti  Ti0  1  0.50000000  0.24716400  0.39654900  1
  Ti  Ti1  1  0.50000000  0.75283600  0.89654900  1
  Fe  Fe0  1  0.50000000  0.77024700  0.30153700  1
  Fe  Fe1  1  0.00000000  0.89891200  0.58826800  1
  Fe  Fe2  1  0.00000000  0.10108800  0.08826800  1
  Fe  Fe3  1  0.50000000  0.22975300  0.80153700  1
  Fe  Fe4  1  0.50000000  0.26591100  0.19484900  1
  Fe  Fe5  1  0.00000000  0.39271600  0.91219200  1
  Fe  Fe6  1  0.00000000  0.60728400  0.41219200  1
  Fe  Fe7  1  0.50000000  0.73408900  0.69484900  1
  Co  Co0  1  0.50000000  0.75202100  0.50056200  1
  Co  Co1  1  0.50000000  0.75364300  0.10682700  1
  Co  Co2  1  0.00000000  0.89886200  0.80561900  1
  Co  Co3  1  0.00000000  0.10113800  0.30561900  1
  Co  Co4  1  0.50000000  0.24635700  0.60682700  1
  Co  Co5  1  0.50000000  0.24797900  0.00056200  1
  Co  Co6  1  0.00000000  0.39353900  0.69043000  1
  Co  Co7  1  0.00000000  0.60646100  0.19043000  1
  O  O0  1  0.50000000  0.75371500  0.42725700  1
  O  O1  1  0.50000000  0.74982000  0.57511300  1
  O  O2  1  0.00000000  0.81446700  0.94084800  1
  O  O3  1  0.00000000  0.79594000  0.15670400  1
  O  O4  1  0.00000000  0.86576100  0.66612600  1
  O  O5  1  0.50000000  0.84388000  0.76183400  1
  O  O6  1  0.00000000  0.89374400  0.50587000  1
  O  O7  1  0.00000000  0.90832200  0.27463000  1
  O  O8  1  0.50000000  0.94932300  0.85129800  1
  O  O9  1  0.50000000  0.94905200  0.08319900  1
  O  O10  1  0.50000000  0.05094800  0.58319900  1
  O  O11  1  0.50000000  0.05067700  0.35129800  1
  O  O12  1  0.00000000  0.09167800  0.77463000  1
  O  O13  1  0.00000000  0.10625600  0.00587000  1
  O  O14  1  0.50000000  0.15612000  0.26183400  1
  O  O15  1  0.00000000  0.13423900  0.16612600  1
  O  O16  1  0.00000000  0.20406000  0.65670400  1
  O  O17  1  0.00000000  0.18553300  0.44084800  1
  O  O18  1  0.50000000  0.25018000  0.07511300  1
  O  O19  1  0.50000000  0.24628500  0.92725700  1
  O  O20  1  0.00000000  0.30240100  0.56217400  1
  O  O21  1  0.00000000  0.29237300  0.33910300  1
  O  O22  1  0.00000000  0.35100600  0.83362900  1
  O  O23  1  0.50000000  0.34697400  0.73597200  1
  O  O24  1  0.00000000  0.39354100  0.99616400  1
  O  O25  1  0.00000000  0.40787700  0.21524100  1
  O  O26  1  0.50000000  0.43191100  0.64301900  1
  O  O27  1  0.50000000  0.45295400  0.41175500  1
  O  O28  1  0.50000000  0.54704600  0.91175500  1
  O  O29  1  0.50000000  0.56808900  0.14301900  1
  O  O30  1  0.00000000  0.59212300  0.71524100  1
  O  O31  1  0.00000000  0.60645900  0.49616400  1
  O  O32  1  0.50000000  0.65302600  0.23597200  1
  O  O33  1  0.00000000  0.64899400  0.33362900  1
  O  O34  1  0.00000000  0.70762700  0.83910300  1
  O  O35  1  0.00000000  0.69759900  0.06217400  1
loop_
_geom_bond_atom_site_label_1
_geom_bond_atom_site_label_2
_geom_bond_distance
_geom_bond_site_symmetry_2
Li0 O13 2.172155 1_566
Li0 O13 2.172155 1_666
Li0 O9 2.186764 1_556
Li0 O2 2.228866 1_655
Li0 O2 2.228866 1_555
Li1 O3 2.309028 1_655
Li1 O3 2.309028 1_555
Li1 O7 2.325245 1_655
Li1 O7 2.325245 1_555
Li1 O14 2.326778 1_565
Li1 O15 2.364339 1_565
Li1 O15 2.364339 1_665
Li2 O16 2.309028 1_555
Li2 O16 2.309028 1_655
Li2 O12 2.325245 1_655
Li2 O12 2.325245 1_555
Li2 O5 2.326778 1_545
Li2 O4 2.364339 1_645
Li2 O4 2.364339 1_545
Li3 O6 2.172155 1_545
Li3 O6 2.172155 1_645
Li3 O10 2.186764 1_555
Li3 O17 2.228866 1_655
Li3 O17 2.228866 1_555
Li4 O31 2.126396 1_655
Li4 O31 2.126396 1_555
Li4 O20 2.151648 1_655
Li4 O20 2.151648 1_555
Li5 O21 2.245348 1_555
Li5 O21 2.245348 1_655
Li5 O32 2.380269 1_555
Li5 O25 2.497319 1_555
Li5 O25 2.497319 1_655
Li5 O33 2.512116 1_555
Li5 O33 2.512116 1_655
Li6 O34 2.245348 1_555
Li6 O34 2.245348 1_655
Li6 O23 2.380269 1_555
Li6 O30 2.497319 1_555
Li6 O30 2.497319 1_655
Li6 O22 2.512116 1_655
Li6 O22 2.512116 1_555
Li7 O24 2.126396 1_654
Li7 O24 2.126396 1_554
Li7 O35 2.151648 1_655
Li7 O35 2.151648 1_555
Fe0 O32 1.940608 1_555
Fe0 O33 1.970581 1_555
Fe0 O33 1.970581 1_655
Fe0 O7 2.007566 1_655
Fe0 O7 2.007566 1_555
Fe1 O4 1.972237 1_555
Fe1 O10 1.976598 1_565
Fe1 O10 1.976598 1_465
Fe1 O1 1.982550 1_455
Fe1 O1 1.982550 1_555
Fe1 O6 2.064695 1_555
Fe2 O15 1.972237 1_555
Fe2 O9 1.976598 1_545
Fe2 O9 1.976598 1_445
Fe2 O18 1.982550 1_555
Fe2 O18 1.982550 1_455
Fe2 O13 2.064695 1_555
Fe3 O23 1.940608 1_555
Fe3 O22 1.970581 1_555
Fe3 O22 1.970581 1_655
Fe3 O12 2.007566 1_655
Fe3 O12 2.007566 1_555
Fe4 O14 1.937257 1_555
Fe4 O25 1.980312 1_555
Fe4 O25 1.980312 1_655
Fe4 O15 1.989839 1_655
Fe4 O15 1.989839 1_555
Fe5 O19 1.975652 1_455
Fe5 O19 1.975652 1_555
Fe5 O28 1.986345 1_555
Fe5 O28 1.986345 1_455
Fe5 O22 2.002183 1_555
Fe5 O24 2.103636 1_555
Fe6 O0 1.975652 1_455
Fe6 O0 1.975652 1_555
Fe6 O27 1.986345 1_555
Fe6 O27 1.986345 1_455
Fe6 O33 2.002183 1_555
Fe6 O31 2.103636 1_555
Fe7 O5 1.937257 1_555
Fe7 O30 1.980312 1_555
Fe7 O30 1.980312 1_655
Fe7 O4 1.989839 1_555
Fe7 O4 1.989839 1_655
Co0 O0 1.836460 1_555
Co0 O1 1.867714 1_555
Co0 O6 1.916505 1_555
Co0 O6 1.916505 1_655
Co0 O31 1.937313 1_655
Co0 O31 1.937313 1_555
Co1 O9 1.821725 1_555
Co1 O29 1.870429 1_555
Co1 O35 1.894581 1_555
Co1 O35 1.894581 1_655
Co1 O3 1.947886 1_655
Co1 O3 1.947886 1_555
Co2 O12 1.868886 1_565
Co2 O5 1.879387 1_555
Co2 O5 1.879387 1_455
Co2 O34 1.883212 1_555
Co2 O8 1.897730 1_455
Co2 O8 1.897730 1_555
Co3 O7 1.868886 1_545
Co3 O14 1.879387 1_555
Co3 O14 1.879387 1_455
Co3 O21 1.883212 1_555
Co3 O11 1.897730 1_455
Co3 O11 1.897730 1_555
Co4 O10 1.821725 1_555
Co4 O26 1.870429 1_555
Co4 O20 1.894581 1_555
Co4 O20 1.894581 1_655
Co4 O16 1.947886 1_655
Co4 O16 1.947886 1_555
Co5 O19 1.836460 1_554
Co5 O18 1.867714 1_555
Co5 O13 1.916505 1_655
Co5 O13 1.916505 1_555
Co5 O24 1.937313 1_654
Co5 O24 1.937313 1_554
Co6 O30 1.857925 1_555
Co6 O16 1.872092 1_555
Co6 O23 1.887896 1_455
Co6 O23 1.887896 1_555
Co6 O26 1.902389 1_455
Co6 O26 1.902389 1_555
Co7 O25 1.857925 1_555
Co7 O3 1.872092 1_555
Co7 O32 1.887896 1_455
Co7 O32 1.887896 1_555
Co7 O29 1.902389 1_455
Co7 O29 1.902389 1_555
O2 Ti1 1.902836 1_555
O2 Ti1 1.902836 1_455
O8 Ti1 2.070318 1_555
O11 Ti0 2.070318 1_555
O17 Ti0 1.902836 1_455
O17 Ti0 1.902836 1_555
O21 Ti0 2.079391 1_455
O21 Ti0 2.079391 1_555
O27 Ti0 1.853965 1_555
O28 Ti1 1.853965 1_555
O34 Ti1 2.079391 1_555
O34 Ti1 2.079391 1_455
