# generated using pymatgen
data_Li2Mn3(BO3)3
_symmetry_space_group_name_H-M   'P 1'
_cell_length_a   5.86184200
_cell_length_b   8.28736548
_cell_length_c   9.06725735
_cell_angle_alpha   112.66098169
_cell_angle_beta   102.25647561
_cell_angle_gamma   102.10976030
_symmetry_Int_Tables_number   1
_chemical_formula_structural   Li2Mn3(BO3)3
_chemical_formula_sum   'Li4 Mn6 B6 O18'
_cell_volume   375.87415968
_cell_formula_units_Z   2
loop_
 _symmetry_equiv_pos_site_id
 _symmetry_equiv_pos_as_xyz
  1  'x, y, z'
loop_
 _atom_site_type_symbol
 _atom_site_label
 _atom_site_symmetry_multiplicity
 _atom_site_fract_x
 _atom_site_fract_y
 _atom_site_fract_z
 _atom_site_occupancy
  Li  Li0  1  0.04398500  0.38719200  0.22417500  1
  Li  Li1  1  0.40234000  0.71929800  0.88636600  1
  Li  Li2  1  0.91964000  0.61290200  0.77108400  1
  Li  Li3  1  0.72308400  0.05967100  0.55891900  1
  Mn  Mn0  1  0.23747600  0.99120300  0.78914600  1
  Mn  Mn1  1  0.12186500  0.37018800  0.88729400  1
  Mn  Mn2  1  0.43904800  0.69065900  0.54239400  1
  Mn  Mn3  1  0.53779100  0.29583900  0.44084000  1
  Mn  Mn4  1  0.88265000  0.64243900  0.13297100  1
  Mn  Mn5  1  0.76933800  0.02066800  0.19695300  1
  B  B0  1  0.10323200  0.36570700  0.54364800  1
  B  B1  1  0.21751900  0.95397600  0.10633100  1
  B  B2  1  0.44378300  0.70491600  0.22540300  1
  B  B3  1  0.56688800  0.31268700  0.78831200  1
  B  B4  1  0.78583000  0.03376700  0.88145900  1
  B  B5  1  0.89201400  0.63026300  0.46033200  1
  O  O0  1  0.15513100  0.85172900  0.93626400  1
  O  O1  1  0.13051100  0.75605900  0.55748300  1
  O  O2  1  0.05365300  0.92920100  0.19475300  1
  O  O3  1  0.17239000  0.47760500  0.71424100  1
  O  O4  1  0.24122000  0.41359000  0.44755600  1
  O  O5  1  0.22117500  0.56177700  0.14518600  1
  O  O6  1  0.56884600  0.88312300  0.80132600  1
  O  O7  1  0.42202200  0.26734300  0.87819400  1
  O  O8  1  0.54027700  0.80527400  0.39718900  1
  O  O9  1  0.50470900  0.20671700  0.61845900  1
  O  O10  1  0.57175900  0.74967500  0.12298800  1
  O  O11  1  0.45558100  0.07881400  0.20266900  1
  O  O12  1  0.78440700  0.46470500  0.87625800  1
  O  O13  1  0.73291500  0.59860500  0.55282000  1
  O  O14  1  0.82183400  0.52916000  0.29214100  1
  O  O15  1  0.91429000  0.08347900  0.78438100  1
  O  O16  1  0.88906700  0.21433300  0.45624100  1
  O  O17  1  0.87027300  0.13695100  0.05471800  1
loop_
_geom_bond_atom_site_label_1
_geom_bond_atom_site_label_2
_geom_bond_distance
_geom_bond_site_symmetry_2
Li0 O17 1.921689 1_455
Li0 O14 1.970950 1_455
Li0 O4 2.011272 1_555
Li0 O5 2.041803 1_555
Li1 O3 1.957013 1_555
Li1 O6 1.990155 1_555
Li1 O0 2.017952 1_555
Li1 O10 2.055995 1_556
Li2 O0 1.938501 1_655
Li2 O12 1.964989 1_555
Li2 O13 1.993474 1_555
Li2 O3 2.072161 1_655
Li3 O8 1.935514 1_545
Li3 O9 1.963689 1_555
Li3 O15 2.024348 1_555
Li3 O16 2.058438 1_555
Mn0 O7 2.055709 1_565
Mn0 O1 2.092112 1_555
Mn0 O0 2.139128 1_555
Mn0 O15 2.185000 1_465
Mn0 O6 2.302752 1_555
Mn1 O7 2.113206 1_555
Mn1 O5 2.121603 1_556
Mn1 O3 2.122577 1_555
Mn1 O15 2.143217 1_455
Mn1 O12 2.272226 1_455
Mn2 O1 2.010645 1_555
Mn2 O8 2.011634 1_555
Mn2 O13 2.023882 1_555
Mn2 O4 2.072332 1_555
Mn2 O6 2.117069 1_555
Mn3 O9 2.041070 1_555
Mn3 O11 2.081425 1_555
Mn3 O4 2.165443 1_555
Mn3 O13 2.230385 1_555
Mn3 O16 2.291271 1_555
Mn4 O14 2.052651 1_555
Mn4 O12 2.086240 1_554
Mn4 O2 2.168552 1_655
Mn4 O10 2.188739 1_555
Mn4 O5 2.217474 1_655
Mn5 O2 1.971065 1_645
Mn5 O17 1.996108 1_555
Mn5 O11 2.002649 1_555
Mn5 O10 2.062317 1_545
Mn5 O16 2.124878 1_555
B0 O3 1.373920 1_555
B0 O16 1.388732 1_455
B0 O4 1.414866 1_555
B1 O0 1.361375 1_554
B1 O11 1.400389 1_565
B1 O2 1.406660 1_555
B2 O8 1.366814 1_555
B2 O5 1.386247 1_555
B2 O10 1.416736 1_555
B3 O9 1.364250 1_555
B3 O7 1.386526 1_555
B3 O12 1.403228 1_555
B4 O17 1.378889 1_556
B4 O15 1.393648 1_555
B4 O6 1.395254 1_545
B5 O14 1.342162 1_555
B5 O1 1.405449 1_655
B5 O13 1.428569 1_555
