# generated using pymatgen
data_Na6Cu2As(CO4)4
_symmetry_space_group_name_H-M   'P 1'
_cell_length_a   9.85479165
_cell_length_b   9.85479165
_cell_length_c   9.85479165
_cell_angle_alpha   60.00000000
_cell_angle_beta   60.00000000
_cell_angle_gamma   60.00000000
_symmetry_Int_Tables_number   1
_chemical_formula_structural   Na6Cu2As(CO4)4
_chemical_formula_sum   'Na12 Cu4 As2 C8 O32'
_cell_volume   676.74856290
_cell_formula_units_Z   2
loop_
 _symmetry_equiv_pos_site_id
 _symmetry_equiv_pos_as_xyz
  1  'x, y, z'
loop_
 _atom_site_type_symbol
 _atom_site_label
 _atom_site_symmetry_multiplicity
 _atom_site_fract_x
 _atom_site_fract_y
 _atom_site_fract_z
 _atom_site_occupancy
  Na  Na0  1  0.28810500  0.71189500  0.28810500  1
  Na  Na1  1  0.53810500  0.96189500  0.53810500  1
  Na  Na2  1  0.96189500  0.96189500  0.53810500  1
  Na  Na3  1  0.71189500  0.71189500  0.28810500  1
  Na  Na4  1  0.28810500  0.71189500  0.71189500  1
  Na  Na5  1  0.53810500  0.96189500  0.96189500  1
  Na  Na6  1  0.53810500  0.53810500  0.96189500  1
  Na  Na7  1  0.96189500  0.53810500  0.53810500  1
  Na  Na8  1  0.71189500  0.28810500  0.28810500  1
  Na  Na9  1  0.28810500  0.28810500  0.71189500  1
  Na  Na10  1  0.96189500  0.53810500  0.96189500  1
  Na  Na11  1  0.71189500  0.28810500  0.71189500  1
  Cu  Cu0  1  0.12500000  0.62500000  0.12500000  1
  Cu  Cu1  1  0.12500000  0.12500000  0.62500000  1
  Cu  Cu2  1  0.62500000  0.12500000  0.12500000  1
  Cu  Cu3  1  0.12500000  0.12500000  0.12500000  1
  As  As0  1  0.75000000  0.75000000  0.75000000  1
  As  As1  1  0.50000000  0.50000000  0.50000000  1
  C  C0  1  0.27555300  0.90814900  0.90814900  1
  C  C1  1  0.90814900  0.90814900  0.27555300  1
  C  C2  1  0.90814900  0.27555300  0.90814900  1
  C  C3  1  0.34185100  0.34185100  0.34185100  1
  C  C4  1  0.34185100  0.97444700  0.34185100  1
  C  C5  1  0.90814900  0.90814900  0.90814900  1
  C  C6  1  0.34185100  0.34185100  0.97444700  1
  C  C7  1  0.97444700  0.34185100  0.34185100  1
  O  O0  1  0.27834000  0.76559600  0.93117900  1
  O  O1  1  0.67902800  0.67902800  0.67902800  1
  O  O2  1  0.02488600  0.76559600  0.27834000  1
  O  O3  1  0.76559600  0.93117900  0.27834000  1
  O  O4  1  0.96291700  0.67902800  0.67902800  1
  O  O5  1  0.67902800  0.67902800  0.96291700  1
  O  O6  1  0.27834000  0.02488600  0.76559600  1
  O  O7  1  0.27834000  0.93117900  0.02488600  1
  O  O8  1  0.67902800  0.96291700  0.67902800  1
  O  O9  1  0.48440400  0.22511400  0.31882100  1
  O  O10  1  0.93117900  0.27834000  0.76559600  1
  O  O11  1  0.93117900  0.02488600  0.27834000  1
  O  O12  1  0.76559600  0.27834000  0.02488600  1
  O  O13  1  0.22511400  0.31882100  0.48440400  1
  O  O14  1  0.93117900  0.76559600  0.02488600  1
  O  O15  1  0.22511400  0.97166000  0.31882100  1
  O  O16  1  0.02488600  0.27834000  0.93117900  1
  O  O17  1  0.31882100  0.48440400  0.22511400  1
  O  O18  1  0.02488600  0.93117900  0.76559600  1
  O  O19  1  0.48440400  0.97166000  0.22511400  1
  O  O20  1  0.31882100  0.22511400  0.97166000  1
  O  O21  1  0.76559600  0.02488600  0.93117900  1
  O  O22  1  0.31882100  0.97166000  0.48440400  1
  O  O23  1  0.57097200  0.28708300  0.57097200  1
  O  O24  1  0.97166000  0.31882100  0.22511400  1
  O  O25  1  0.97166000  0.22511400  0.48440400  1
  O  O26  1  0.57097200  0.57097200  0.28708300  1
  O  O27  1  0.28708300  0.57097200  0.57097200  1
  O  O28  1  0.48440400  0.31882100  0.97166000  1
  O  O29  1  0.22511400  0.48440400  0.97166000  1
  O  O30  1  0.57097200  0.57097200  0.57097200  1
  O  O31  1  0.97166000  0.48440400  0.31882100  1
loop_
_geom_bond_atom_site_label_1
_geom_bond_atom_site_label_2
_geom_bond_distance
_geom_bond_site_symmetry_2
Na0 O27 2.411235 1_555
Na0 O26 2.411235 1_555
Na0 O2 2.417423 1_555
Na0 O7 2.417426 1_555
Na0 O15 2.455217 1_555
Na0 O17 2.455227 1_555
Na1 O1 2.411238 1_555
Na1 O8 2.411244 1_555
Na1 O9 2.417428 1_565
Na1 O22 2.417433 1_555
Na1 O3 2.455220 1_555
Na1 O6 2.455222 1_565
Na2 O8 2.411235 1_555
Na2 O4 2.411235 1_555
Na2 O25 2.417423 1_565
Na2 O15 2.417426 1_655
Na2 O11 2.455217 1_565
Na2 O18 2.455227 1_655
Na3 O30 2.411238 1_555
Na3 O26 2.411244 1_555
Na3 O14 2.417428 1_555
Na3 O3 2.417433 1_555
Na3 O31 2.455220 1_555
Na3 O19 2.455222 1_555
Na4 O30 2.411238 1_555
Na4 O27 2.411244 1_555
Na4 O18 2.417428 1_555
Na4 O0 2.417433 1_555
Na4 O22 2.455220 1_555
Na4 O29 2.455222 1_555
Na5 O5 2.411235 1_555
Na5 O8 2.411235 1_555
Na5 O19 2.417423 1_556
Na5 O20 2.417426 1_565
Na5 O7 2.455217 1_556
Na5 O21 2.455227 1_565
Na6 O1 2.411238 1_555
Na6 O5 2.411244 1_555
Na6 O17 2.417428 1_556
Na6 O28 2.417433 1_555
Na6 O0 2.455220 1_555
Na6 O12 2.455222 1_556
Na7 O1 2.411238 1_555
Na7 O4 2.411244 1_555
Na7 O13 2.417428 1_655
Na7 O31 2.417433 1_555
Na7 O10 2.455220 1_555
Na7 O2 2.455222 1_655
Na8 O23 2.411235 1_555
Na8 O26 2.411235 1_555
Na8 O12 2.417423 1_555
Na8 O11 2.417426 1_555
Na8 O24 2.455217 1_555
Na8 O9 2.455227 1_555
Na9 O23 2.411235 1_555
Na9 O27 2.411235 1_555
Na9 O6 2.417423 1_555
Na9 O16 2.417426 1_555
Na9 O20 2.455217 1_555
Na9 O13 2.455227 1_555
Na10 O5 2.411235 1_555
Na10 O4 2.411235 1_555
Na10 O29 2.417423 1_655
Na10 O24 2.417426 1_556
Na10 O16 2.455217 1_655
Na10 O14 2.455227 1_556
Na11 O30 2.411238 1_555
Na11 O23 2.411244 1_555
Na11 O21 2.417428 1_555
Na11 O10 2.417433 1_555
Na11 O28 2.455220 1_555
Na11 O25 2.455222 1_555
Cu0 O14 2.100591 1_455
Cu0 O17 2.100591 1_555
Cu0 O31 2.100597 1_455
Cu0 O0 2.100597 1_554
Cu0 O29 2.100599 1_554
Cu0 O2 2.100599 1_555
Cu1 O13 2.100591 1_555
Cu1 O18 2.100591 1_545
Cu1 O22 2.100597 1_545
Cu1 O10 2.100597 1_455
Cu1 O25 2.100599 1_455
Cu1 O6 2.100599 1_555
Cu2 O9 2.100591 1_555
Cu2 O21 2.100591 1_554
Cu2 O28 2.100597 1_554
Cu2 O3 2.100597 1_545
Cu2 O19 2.100599 1_545
Cu2 O12 2.100599 1_555
Cu3 O7 2.100591 1_545
Cu3 O16 2.100591 1_554
Cu3 O24 2.100591 1_455
Cu3 O15 2.100591 1_545
Cu3 O20 2.100591 1_554
Cu3 O11 2.100591 1_455
As0 O1 1.713208 1_555
As0 O4 1.713216 1_555
As0 O8 1.713216 1_555
As0 O5 1.713216 1_555
As1 O30 1.713208 1_555
As1 O23 1.713216 1_555
As1 O27 1.713216 1_555
As1 O26 1.713216 1_555
C0 O0 1.294073 1_555
C0 O6 1.294077 1_565
C0 O7 1.294083 1_556
C1 O3 1.294073 1_555
C1 O2 1.294077 1_655
C1 O11 1.294083 1_565
C2 O10 1.294073 1_555
C2 O12 1.294077 1_556
C2 O16 1.294083 1_655
C3 O9 1.294078 1_555
C3 O17 1.294078 1_555
C3 O13 1.294078 1_555
C4 O22 1.294073 1_555
C4 O19 1.294077 1_555
C4 O15 1.294083 1_555
C5 O18 1.294078 1_655
C5 O14 1.294078 1_556
C5 O21 1.294078 1_565
C6 O28 1.294073 1_555
C6 O29 1.294077 1_555
C6 O20 1.294083 1_555
C7 O31 1.294073 1_555
C7 O25 1.294077 1_555
C7 O24 1.294083 1_555
