# generated using pymatgen
data_Mn15O32
_symmetry_space_group_name_H-M   'P 1'
_cell_length_a   5.81715150
_cell_length_b   5.81380592
_cell_length_c   19.32567101
_cell_angle_alpha   98.21571000
_cell_angle_beta   98.66508529
_cell_angle_gamma   59.97872278
_symmetry_Int_Tables_number   1
_chemical_formula_structural   Mn15O32
_chemical_formula_sum   'Mn15 O32'
_cell_volume   557.70154899
_cell_formula_units_Z   1
loop_
 _symmetry_equiv_pos_site_id
 _symmetry_equiv_pos_as_xyz
  1  'x, y, z'
loop_
 _atom_site_type_symbol
 _atom_site_label
 _atom_site_symmetry_multiplicity
 _atom_site_fract_x
 _atom_site_fract_y
 _atom_site_fract_z
 _atom_site_occupancy
  Mn  Mn0  1  0.12827200  0.61982900  0.87545500  1
  Mn  Mn1  1  0.37500000  0.87500000  0.62500000  1
  Mn  Mn2  1  0.12273100  0.62917100  0.37475400  1
  Mn  Mn3  1  0.62746800  0.61983200  0.87546800  1
  Mn  Mn4  1  0.75165400  0.74692900  0.75018600  1
  Mn  Mn5  1  0.87500000  0.87500000  0.62500000  1
  Mn  Mn6  1  0.24615200  0.25690700  0.24927900  1
  Mn  Mn7  1  0.12253200  0.13016800  0.37453200  1
  Mn  Mn8  1  0.37500000  0.37500000  0.12500000  1
  Mn  Mn9  1  0.50384800  0.49309300  0.00072100  1
  Mn  Mn10  1  0.62726900  0.12082900  0.87524600  1
  Mn  Mn11  1  0.87500000  0.37500000  0.62500000  1
  Mn  Mn12  1  0.62172800  0.13017100  0.37454500  1
  Mn  Mn13  1  0.87500000  0.37500000  0.12500000  1
  Mn  Mn14  1  0.99834600  0.00307100  0.49981400  1
  O  O0  1  0.16850200  0.72930600  0.56634900  1
  O  O1  1  0.02245400  0.57919400  0.68393500  1
  O  O2  1  0.26944000  0.83484400  0.43374600  1
  O  O3  1  0.48056000  0.91515600  0.81625400  1
  O  O4  1  0.33396800  0.76601300  0.93382900  1
  O  O5  1  0.07629800  0.53049200  0.18298200  1
  O  O6  1  0.22309500  0.63645300  0.05867700  1
  O  O7  1  0.69023400  0.69307600  0.57356700  1
  O  O8  1  0.81249000  0.80192100  0.92671000  1
  O  O9  1  0.92063200  0.91518400  0.81625500  1
  O  O10  1  0.33483500  0.32284100  0.93348800  1
  O  O11  1  0.44261700  0.43865700  0.82378800  1
  O  O12  1  0.58229900  0.57917000  0.68392900  1
  O  O13  1  0.05045200  0.11388900  0.19133300  1
  O  O14  1  0.16770200  0.17083000  0.56607100  1
  O  O15  1  0.82936800  0.83481600  0.43374500  1
  O  O16  1  0.30738300  0.31134300  0.42621200  1
  O  O17  1  0.41516500  0.42715900  0.31651200  1
  O  O18  1  0.18328200  0.20831800  0.07508000  1
  O  O19  1  0.93751000  0.94807900  0.32329000  1
  O  O20  1  0.05976600  0.05692400  0.67643300  1
  O  O21  1  0.56671800  0.54168200  0.17492000  1
  O  O22  1  0.69954800  0.63611100  0.05866700  1
  O  O23  1  0.92131900  0.47413300  0.81670700  1
  O  O24  1  0.77584200  0.32287900  0.93350500  1
  O  O25  1  0.52690500  0.11354700  0.19132300  1
  O  O26  1  0.41603200  0.98398700  0.31617100  1
  O  O27  1  0.67370200  0.21950800  0.06701800  1
  O  O28  1  0.72754600  0.17080600  0.56606500  1
  O  O29  1  0.58149800  0.02069400  0.68365100  1
  O  O30  1  0.97415800  0.42712100  0.31649500  1
  O  O31  1  0.82868100  0.27586700  0.43329300  1
loop_
_geom_bond_atom_site_label_1
_geom_bond_atom_site_label_2
_geom_bond_distance
_geom_bond_site_symmetry_2
Mn0 O10 1.937588 1_555
Mn0 O4 1.939990 1_555
Mn0 O11 1.942286 1_555
Mn0 O8 1.943945 1_455
Mn0 O9 1.945789 1_455
Mn0 O23 1.946669 1_455
Mn1 O20 1.943537 1_565
Mn1 O7 1.943537 1_555
Mn1 O29 1.943879 1_565
Mn1 O0 1.943879 1_555
Mn1 O14 1.944179 1_565
Mn1 O12 1.944179 1_555
Mn2 O30 1.933695 1_455
Mn2 O17 1.933919 1_555
Mn2 O16 1.942757 1_555
Mn2 O19 1.947519 1_455
Mn2 O2 1.948394 1_555
Mn2 O15 1.948443 1_455
Mn3 O24 1.937568 1_555
Mn3 O4 1.940021 1_555
Mn3 O11 1.942257 1_555
Mn3 O8 1.944004 1_555
Mn3 O3 1.945876 1_555
Mn3 O23 1.946834 1_555
Mn4 O23 1.943244 1_555
Mn4 O3 1.944265 1_555
Mn4 O9 1.944330 1_555
Mn4 O1 1.945635 1_655
Mn4 O12 1.945717 1_555
Mn4 O29 1.947135 1_565
Mn5 O20 1.943460 1_665
Mn5 O7 1.943460 1_555
Mn5 O0 1.943929 1_655
Mn5 O29 1.943929 1_565
Mn5 O1 1.944195 1_655
Mn5 O28 1.944195 1_565
Mn6 O13 1.881045 1_555
Mn6 O25 1.881153 1_555
Mn6 O5 1.943227 1_555
Mn6 O26 1.948754 1_545
Mn6 O30 1.963484 1_455
Mn6 O17 1.963644 1_555
Mn7 O30 1.937568 1_455
Mn7 O26 1.940021 1_545
Mn7 O16 1.942257 1_555
Mn7 O19 1.944004 1_445
Mn7 O2 1.945876 1_545
Mn7 O31 1.946834 1_455
Mn8 O21 1.898323 1_555
Mn8 O18 1.898323 1_555
Mn8 O25 1.898868 1_555
Mn8 O6 1.898868 1_555
Mn8 O27 1.953827 1_555
Mn8 O5 1.953827 1_555
Mn9 O22 1.881045 1_555
Mn9 O6 1.881153 1_555
Mn9 O27 1.943227 1_555
Mn9 O4 1.948754 1_554
Mn9 O24 1.963484 1_554
Mn9 O10 1.963644 1_554
Mn10 O24 1.933695 1_555
Mn10 O10 1.933919 1_555
Mn10 O11 1.942757 1_555
Mn10 O8 1.947519 1_545
Mn10 O3 1.948394 1_545
Mn10 O9 1.948443 1_545
Mn11 O20 1.943563 1_655
Mn11 O7 1.943563 1_555
Mn11 O1 1.944333 1_655
Mn11 O28 1.944333 1_555
Mn11 O12 1.944381 1_555
Mn11 O14 1.944385 1_655
Mn12 O17 1.937588 1_555
Mn12 O26 1.939990 1_545
Mn12 O16 1.942286 1_555
Mn12 O19 1.943945 1_545
Mn12 O15 1.945789 1_545
Mn12 O31 1.946669 1_555
Mn13 O21 1.897620 1_555
Mn13 O18 1.897620 1_655
Mn13 O22 1.897651 1_555
Mn13 O13 1.897651 1_655
Mn13 O5 1.954072 1_655
Mn13 O27 1.954072 1_555
Mn14 O31 1.943244 1_555
Mn14 O2 1.944265 1_645
Mn14 O15 1.944330 1_545
Mn14 O28 1.945635 1_555
Mn14 O14 1.945721 1_655
Mn14 O0 1.947135 1_645
