# generated using pymatgen
data_Li2V4O3F8
_symmetry_space_group_name_H-M   'P 1'
_cell_length_a   5.14845000
_cell_length_b   6.59510061
_cell_length_c   6.88974492
_cell_angle_alpha   107.94249104
_cell_angle_beta   105.38024861
_cell_angle_gamma   96.80875727
_symmetry_Int_Tables_number   1
_chemical_formula_structural   Li2V4O3F8
_chemical_formula_sum   'Li2 V4 O3 F8'
_cell_volume   209.41389013
_cell_formula_units_Z   1
loop_
 _symmetry_equiv_pos_site_id
 _symmetry_equiv_pos_as_xyz
  1  'x, y, z'
loop_
 _atom_site_type_symbol
 _atom_site_label
 _atom_site_symmetry_multiplicity
 _atom_site_fract_x
 _atom_site_fract_y
 _atom_site_fract_z
 _atom_site_occupancy
  Li  Li0  1  0.66967700  0.18044400  0.39789800  1
  Li  Li1  1  0.33032300  0.81955600  0.60210200  1
  V  V0  1  0.90340000  0.24512500  0.96638700  1
  V  V1  1  0.35045100  0.38012800  0.76396200  1
  V  V2  1  0.64954900  0.61987300  0.23603800  1
  V  V3  1  0.09660000  0.75487500  0.03361300  1
  O  O0  1  0.00000000  0.00000000  0.00000000  1
  O  O1  1  0.73399500  0.52487700  0.94803000  1
  O  O2  1  0.26600500  0.47512300  0.05197000  1
  F  F0  1  0.48805700  0.10908400  0.80292800  1
  F  F1  1  0.95426500  0.20654100  0.66607100  1
  F  F2  1  0.38070000  0.28522400  0.48267400  1
  F  F3  1  0.80298600  0.34918500  0.25081800  1
  F  F4  1  0.19701400  0.65081500  0.74918200  1
  F  F5  1  0.61930000  0.71477600  0.51732600  1
  F  F6  1  0.04573500  0.79345900  0.33392900  1
  F  F7  1  0.51194300  0.89091600  0.19707200  1
loop_
_geom_bond_atom_site_label_1
_geom_bond_atom_site_label_2
_geom_bond_distance
_geom_bond_site_symmetry_2
O0 V3 1.809604 1_545
O0 V0 1.809604 1_454
O1 V1 1.974244 1_555
O1 V2 2.067665 1_556
O1 V3 2.080210 1_656
O1 V0 2.155803 1_555
O2 V2 1.974245 1_555
O2 V1 2.067665 1_554
O2 V0 2.080210 1_454
O2 V3 2.155803 1_555
F0 Li1 1.904859 1_545
F0 V1 2.065051 1_555
F0 V0 2.071480 1_555
F1 Li0 1.974452 1_555
F1 V1 2.041300 1_655
F1 V0 2.096028 1_555
F2 Li0 1.867681 1_555
F2 V1 1.899398 1_555
F3 Li0 1.902371 1_555
F3 V2 2.055510 1_555
F3 V0 2.090792 1_554
F4 Li1 1.902371 1_555
F4 V1 2.055504 1_555
F4 V3 2.090792 1_556
F5 Li1 1.867681 1_555
F5 V2 1.899398 1_555
F6 Li1 1.974452 1_555
F6 V2 2.041298 1_455
F6 V3 2.096028 1_555
F7 Li0 1.904859 1_565
F7 V2 2.065045 1_555
F7 V3 2.071480 1_555
