# generated using pymatgen
data_CaZn2(H5O4)2
_symmetry_space_group_name_H-M   'P 1'
_cell_length_a   9.97550300
_cell_length_b   6.21545700
_cell_length_c   6.92500379
_cell_angle_alpha   73.55683447
_cell_angle_beta   90.00000000
_cell_angle_gamma   90.00000000
_symmetry_Int_Tables_number   1
_chemical_formula_structural   CaZn2(H5O4)2
_chemical_formula_sum   'Ca2 Zn4 H20 O16'
_cell_volume   411.80557817
_cell_formula_units_Z   2
loop_
 _symmetry_equiv_pos_site_id
 _symmetry_equiv_pos_as_xyz
  1  'x, y, z'
loop_
 _atom_site_type_symbol
 _atom_site_label
 _atom_site_symmetry_multiplicity
 _atom_site_fract_x
 _atom_site_fract_y
 _atom_site_fract_z
 _atom_site_occupancy
  Ca  Ca0  1  0.50000000  0.00000000  0.50000000  1
  Ca  Ca1  1  0.00000000  0.00000000  0.00000000  1
  Zn  Zn0  1  0.25120000  0.46729100  0.18591800  1
  Zn  Zn1  1  0.75120000  0.53270900  0.31408200  1
  Zn  Zn2  1  0.74880000  0.53270900  0.81408200  1
  Zn  Zn3  1  0.24880000  0.46729100  0.68591800  1
  H  H0  1  0.46160200  0.57378500  0.75482000  1
  H  H1  1  0.96160200  0.42621500  0.74518000  1
  H  H2  1  0.53839800  0.42621500  0.24518000  1
  H  H3  1  0.03839800  0.57378500  0.25482000  1
  H  H4  1  0.56774400  0.33929400  0.02497800  1
  H  H5  1  0.06774400  0.66070600  0.47502200  1
  H  H6  1  0.43225600  0.66070600  0.97502200  1
  H  H7  1  0.93225600  0.33929400  0.52497800  1
  H  H8  1  0.40325400  0.81838100  0.17000800  1
  H  H9  1  0.90325400  0.18161900  0.32999200  1
  H  H10  1  0.59674600  0.18161900  0.82999200  1
  H  H11  1  0.09674600  0.81838100  0.67000800  1
  H  H12  1  0.28515300  0.17930800  0.02514600  1
  H  H13  1  0.78515300  0.82069200  0.47485400  1
  H  H14  1  0.71484700  0.82069200  0.97485400  1
  H  H15  1  0.21484700  0.17930800  0.52514600  1
  H  H16  1  0.28050000  0.91389200  0.26768700  1
  H  H17  1  0.78050000  0.08610800  0.23231300  1
  H  H18  1  0.71950000  0.08610800  0.73231300  1
  H  H19  1  0.21950000  0.91389200  0.76768700  1
  O  O0  1  0.21102900  0.28893100  0.98286100  1
  O  O1  1  0.71102900  0.71106900  0.51713900  1
  O  O2  1  0.78897100  0.71106900  0.01713900  1
  O  O3  1  0.28897100  0.28893100  0.48286100  1
  O  O4  1  0.57440500  0.37599100  0.87701400  1
  O  O5  1  0.07440500  0.62400900  0.62298600  1
  O  O6  1  0.42559500  0.62400900  0.12298600  1
  O  O7  1  0.92559500  0.37599100  0.37701400  1
  O  O8  1  0.38944400  0.68593700  0.69716400  1
  O  O9  1  0.88944400  0.31406300  0.80283600  1
  O  O10  1  0.61055600  0.31406300  0.30283600  1
  O  O11  1  0.11055600  0.68593700  0.19716400  1
  O  O12  1  0.37121000  0.96205700  0.22222500  1
  O  O13  1  0.87121000  0.03794300  0.27777500  1
  O  O14  1  0.62879000  0.03794300  0.77777500  1
  O  O15  1  0.12879000  0.96205700  0.72222500  1
loop_
_geom_bond_atom_site_label_1
_geom_bond_atom_site_label_2
_geom_bond_distance
_geom_bond_site_symmetry_2
Ca0 O8 2.319936 1_545
Ca0 O10 2.319936 1_555
Ca0 O14 2.379752 1_555
Ca0 O12 2.379752 1_545
Ca0 O3 2.747724 1_555
Ca0 O1 2.747724 1_545
Ca1 O9 2.319936 1_454
Ca1 O11 2.319936 1_545
Ca1 O13 2.379752 1_455
Ca1 O15 2.379752 1_544
Ca1 O0 2.747724 1_554
Ca1 O2 2.747724 1_445
H0 O8 1.002943 1_555
H0 O4 1.704319 1_555
H1 O9 1.002943 1_555
H1 O5 1.704319 1_655
H2 O10 1.002943 1_555
H2 O6 1.704319 1_555
H3 O11 1.002943 1_555
H3 O7 1.704319 1_455
H4 O4 0.986934 1_554
H5 O5 0.986934 1_555
H6 O6 0.986934 1_556
H7 O7 0.986934 1_555
H8 O12 1.101462 1_555
H8 O6 1.355708 1_555
H9 O13 1.101462 1_555
H9 O7 1.355708 1_555
H10 O14 1.101462 1_555
H10 O4 1.355708 1_555
H11 O15 1.101462 1_555
H11 O5 1.355708 1_555
H12 O0 0.991861 1_554
H13 O1 0.991861 1_555
H14 O2 0.991861 1_556
H15 O3 0.991861 1_555
H16 O12 0.976823 1_555
H17 O13 0.976823 1_555
H18 O14 0.976823 1_555
H19 O15 0.976823 1_555
O0 Zn0 2.061403 1_556
O0 Zn3 2.075783 1_555
O1 Zn1 2.061403 1_555
O1 Zn2 2.075783 1_555
O2 Zn2 2.061403 1_554
O2 Zn1 2.075783 1_555
O3 Zn3 2.061403 1_555
O3 Zn0 2.075783 1_555
O4 Zn2 1.981136 1_555
O5 Zn3 1.981136 1_555
O6 Zn0 1.981136 1_555
O7 Zn1 1.981136 1_555
O8 Zn3 1.970080 1_555
O9 Zn2 1.970080 1_555
O10 Zn1 1.970080 1_555
O11 Zn0 1.970080 1_555
