# generated using pymatgen
data_Li4MnO2F3
_symmetry_space_group_name_H-M   'P 1'
_cell_length_a   3.94299602
_cell_length_b   5.13122073
_cell_length_c   19.69239138
_cell_angle_alpha   87.22975212
_cell_angle_beta   89.99147601
_cell_angle_gamma   67.41475593
_symmetry_Int_Tables_number   1
_chemical_formula_structural   Li4MnO2F3
_chemical_formula_sum   'Li16 Mn4 O8 F12'
_cell_volume   367.36538360
_cell_formula_units_Z   4
loop_
 _symmetry_equiv_pos_site_id
 _symmetry_equiv_pos_as_xyz
  1  'x, y, z'
loop_
 _atom_site_type_symbol
 _atom_site_label
 _atom_site_symmetry_multiplicity
 _atom_site_fract_x
 _atom_site_fract_y
 _atom_site_fract_z
 _atom_site_occupancy
  Li  Li0  1  0.39811700  0.19880100  0.10433100  1
  Li  Li1  1  0.89831300  0.19856800  0.35434700  1
  Li  Li2  1  0.39840600  0.19867200  0.60433600  1
  Li  Li3  1  0.89805100  0.19872600  0.85434300  1
  Li  Li4  1  0.69727500  0.60051900  0.04350200  1
  Li  Li5  1  0.19732200  0.60057800  0.29348400  1
  Li  Li6  1  0.69767500  0.60031100  0.54350200  1
  Li  Li7  1  0.19718800  0.60061000  0.79350500  1
  Li  Li8  1  0.80587000  0.38338600  0.19339800  1
  Li  Li9  1  0.30620000  0.38304200  0.44337400  1
  Li  Li10  1  0.80584000  0.38339800  0.69340500  1
  Li  Li11  1  0.30577400  0.38329700  0.94338200  1
  Li  Li12  1  0.11436300  0.76636500  0.15669400  1
  Li  Li13  1  0.61454100  0.76617100  0.40667500  1
  Li  Li14  1  0.11444200  0.76627600  0.65669500  1
  Li  Li15  1  0.61419100  0.76636300  0.90665600  1
  Mn  Mn0  1  0.48297600  0.02864900  0.74865500  1
  Mn  Mn1  1  0.98293300  0.02865100  0.99863800  1
  Mn  Mn2  1  0.48324000  0.02865600  0.24860400  1
  Mn  Mn3  1  0.98335900  0.02836700  0.49862600  1
  O  O0  1  0.49843500  0.99722500  0.00118100  1
  O  O1  1  0.99990300  0.99674700  0.25108000  1
  O  O2  1  0.49919500  0.99675700  0.50100000  1
  O  O3  1  0.99927400  0.99701900  0.75111100  1
  O  O4  1  0.30890800  0.37789400  0.20264800  1
  O  O5  1  0.80883100  0.37737200  0.45254900  1
  O  O6  1  0.30889300  0.37796200  0.70266500  1
  O  O7  1  0.80851300  0.37755800  0.95251800  1
  F  F0  1  0.88922800  0.21775100  0.09956300  1
  F  F1  1  0.38909100  0.21761600  0.34963200  1
  F  F2  1  0.88932400  0.21772400  0.59955300  1
  F  F3  1  0.38870100  0.21785200  0.84961500  1
  F  F4  1  0.17658000  0.64171800  0.05373900  1
  F  F5  1  0.67699000  0.64245700  0.30375700  1
  F  F6  1  0.17660900  0.64177700  0.55377000  1
  F  F7  1  0.67678800  0.64241500  0.80378600  1
  F  F8  1  0.60030500  0.79681800  0.15153300  1
  F  F9  1  0.09808700  0.79751600  0.40140500  1
  F  F10  1  0.60049600  0.79675100  0.65154100  1
  F  F11  1  0.09794400  0.79742000  0.90137700  1
loop_
_geom_bond_atom_site_label_1
_geom_bond_atom_site_label_2
_geom_bond_distance
_geom_bond_site_symmetry_2
Li0 O4 2.154109 1_555
Li0 O0 2.289312 1_545
Li1 O5 2.151423 1_555
Li1 O1 2.291945 1_545
Li2 O6 2.154738 1_555
Li2 O2 2.293385 1_545
Li3 O7 2.150993 1_555
Li3 O3 2.291067 1_545
Li4 O0 2.015738 1_555
Li4 O7 2.126943 1_554
Li5 O1 2.014019 1_455
Li5 O4 2.123703 1_555
Li6 O2 2.015919 1_555
Li6 O5 2.126357 1_555
Li7 O3 2.014981 1_455
Li7 O6 2.123679 1_555
Li8 O4 1.978763 1_555
Li8 O4 1.981119 1_655
Li8 O1 2.104309 1_545
Li9 O5 1.979044 1_555
Li9 O5 1.980583 1_455
Li9 O2 2.102349 1_545
Li10 O6 1.978610 1_555
Li10 O6 1.981303 1_655
Li10 O3 2.103504 1_545
Li11 O7 1.979266 1_555
Li11 O7 1.980228 1_455
Li11 O0 2.103186 1_546
Li12 O4 2.008000 1_555
Li12 O1 2.204131 1_455
Li13 O5 2.008753 1_555
Li13 O2 2.203606 1_555
Li14 O6 2.007462 1_555
Li14 O3 2.205565 1_455
Li15 O7 2.008684 1_555
Li15 O0 2.207735 1_556
Mn0 O6 1.844537 1_555
Mn0 O3 1.975653 1_445
Mn0 O3 1.979516 1_545
Mn1 O7 1.843999 1_555
Mn1 O0 1.976752 1_646
Mn1 O0 1.978345 1_546
Mn2 O4 1.843929 1_555
Mn2 O1 1.974874 1_445
Mn2 O1 1.980510 1_545
Mn3 O5 1.844026 1_555
Mn3 O2 1.977391 1_545
Mn3 O2 1.977700 1_645
F0 Li0 1.973274 1_655
F0 Li0 1.977827 1_555
F0 Li8 2.044976 1_555
F0 Li4 2.073160 1_555
F0 Mn1 2.222344 1_554
F0 Li12 2.363783 1_645
F1 Li1 1.974364 1_555
F1 Li1 1.976683 1_455
F1 Li9 2.042857 1_555
F1 Li5 2.074772 1_555
F1 Mn2 2.223900 1_555
F1 Li13 2.363286 1_545
F2 Li2 1.973867 1_655
F2 Li2 1.977302 1_555
F2 Li10 2.045366 1_555
F2 Li6 2.072337 1_555
F2 Mn3 2.222927 1_555
F2 Li14 2.364135 1_645
F3 Li3 1.974742 1_555
F3 Li3 1.976360 1_455
F3 Li11 2.043351 1_555
F3 Li7 2.073589 1_555
F3 Mn0 2.223192 1_555
F3 Li15 2.363453 1_545
F4 Li4 1.992024 1_455
F4 Li4 1.992776 1_555
F4 Mn1 2.080843 1_464
F4 Li12 2.141123 1_555
F4 Li0 2.275364 1_555
F5 Li5 1.990445 1_655
F5 Li5 1.995176 1_555
F5 Mn2 2.078365 1_565
F5 Li13 2.138989 1_555
F5 Li1 2.279492 1_555
F6 Li6 1.991293 1_455
F6 Li6 1.993898 1_555
F6 Mn3 2.079859 1_465
F6 Li14 2.140327 1_555
F6 Li2 2.275966 1_555
F7 Li7 1.990834 1_655
F7 Li7 1.994747 1_555
F7 Mn0 2.078300 1_565
F7 Li15 2.138439 1_555
F7 Li3 2.278387 1_555
F8 Li12 1.974444 1_655
F8 Li12 1.983544 1_555
F8 Li0 2.075079 1_565
F8 Li8 2.085044 1_555
F8 Mn2 2.253901 1_565
F8 Li4 2.365925 1_555
F9 Li13 1.976288 1_455
F9 Li13 1.982508 1_555
F9 Li1 2.069995 1_465
F9 Li9 2.090288 1_555
F9 Mn3 2.253999 1_465
F9 Li5 2.365265 1_555
F10 Li14 1.973961 1_655
F10 Li14 1.984028 1_555
F10 Li2 2.074840 1_565
F10 Li10 2.084695 1_555
F10 Mn0 2.254796 1_565
F10 Li6 2.366363 1_555
F11 Li15 1.976446 1_455
F11 Li15 1.982171 1_555
F11 Li3 2.070883 1_465
F11 Li11 2.089006 1_555
F11 Mn1 2.255642 1_465
F11 Li7 2.364111 1_555
