# generated using pymatgen
data_Na2SiSnCO7
_symmetry_space_group_name_H-M   'P 1'
_cell_length_a   6.70497200
_cell_length_b   5.35106900
_cell_length_c   9.19678025
_cell_angle_alpha   88.74439606
_cell_angle_beta   90.00000000
_cell_angle_gamma   90.00000000
_symmetry_Int_Tables_number   1
_chemical_formula_structural   Na2SiSnCO7
_chemical_formula_sum   'Na4 Si2 Sn2 C2 O14'
_cell_volume   329.88991395
_cell_formula_units_Z   2
loop_
 _symmetry_equiv_pos_site_id
 _symmetry_equiv_pos_as_xyz
  1  'x, y, z'
loop_
 _atom_site_type_symbol
 _atom_site_label
 _atom_site_symmetry_multiplicity
 _atom_site_fract_x
 _atom_site_fract_y
 _atom_site_fract_z
 _atom_site_occupancy
  Na  Na0  1  0.99269200  0.75925200  0.77583300  1
  Na  Na1  1  0.50730800  0.75925200  0.77583300  1
  Na  Na2  1  0.49269200  0.24074800  0.22416700  1
  Na  Na3  1  0.00730800  0.24074800  0.22416700  1
  Si  Si0  1  0.75000000  0.28577000  0.57420800  1
  Si  Si1  1  0.25000000  0.71423000  0.42579200  1
  Sn  Sn0  1  0.25000000  0.20857400  0.63930900  1
  Sn  Sn1  1  0.75000000  0.79142600  0.36069100  1
  C  C0  1  0.25000000  0.27365200  0.92175300  1
  C  C1  1  0.75000000  0.72634800  0.07824700  1
  O  O0  1  0.75000000  0.68589400  0.94457600  1
  O  O1  1  0.25000000  0.05046800  0.86475500  1
  O  O2  1  0.25000000  0.46039400  0.82189600  1
  O  O3  1  0.94631800  0.19654500  0.66717500  1
  O  O4  1  0.55368200  0.19654500  0.66717500  1
  O  O5  1  0.25000000  0.83674300  0.58891100  1
  O  O6  1  0.75000000  0.59617000  0.55371600  1
  O  O7  1  0.25000000  0.40383000  0.44628400  1
  O  O8  1  0.75000000  0.16325700  0.41108900  1
  O  O9  1  0.44631800  0.80345500  0.33282500  1
  O  O10  1  0.05368200  0.80345500  0.33282500  1
  O  O11  1  0.75000000  0.53960600  0.17810400  1
  O  O12  1  0.75000000  0.94953200  0.13524500  1
  O  O13  1  0.25000000  0.31410600  0.05542400  1
loop_
_geom_bond_atom_site_label_1
_geom_bond_atom_site_label_2
_geom_bond_distance
_geom_bond_site_symmetry_2
Na0 O0 2.276770 1_555
Na0 O2 2.384053 1_655
Na0 O5 2.464225 1_655
Na0 O1 2.475774 1_665
Na0 O3 2.543293 1_565
Na0 O6 2.767753 1_555
Na1 O0 2.276770 1_555
Na1 O2 2.384053 1_555
Na1 O5 2.464225 1_555
Na1 O1 2.475774 1_565
Na1 O4 2.543293 1_565
Na1 O6 2.767753 1_555
Na2 O13 2.276770 1_555
Na2 O11 2.384053 1_555
Na2 O8 2.464225 1_555
Na2 O12 2.475774 1_545
Na2 O9 2.543293 1_545
Na2 O7 2.767753 1_555
Na3 O13 2.276770 1_555
Na3 O11 2.384053 1_455
Na3 O8 2.464225 1_455
Na3 O12 2.475774 1_445
Na3 O10 2.543293 1_545
Na3 O7 2.767753 1_555
C0 O13 1.252919 1_556
C0 O1 1.314727 1_555
C0 O2 1.342278 1_555
C1 O0 1.252919 1_554
C1 O12 1.314727 1_555
C1 O11 1.342278 1_555
O1 Sn0 2.222115 1_555
O2 Sn0 2.175935 1_555
O3 Si0 1.635161 1_555
O3 Sn0 2.053077 1_655
O4 Si0 1.635161 1_555
O4 Sn0 2.053077 1_555
O5 Si1 1.650269 1_555
O5 Sn0 2.052834 1_565
O6 Si0 1.667521 1_555
O6 Sn1 2.040035 1_555
O7 Si1 1.667521 1_555
O7 Sn0 2.040035 1_555
O8 Si0 1.650269 1_555
O8 Sn1 2.052834 1_545
O9 Si1 1.635161 1_555
O9 Sn1 2.053077 1_555
O10 Si1 1.635161 1_555
O10 Sn1 2.053077 1_455
O11 Sn1 2.175935 1_555
O12 Sn1 2.222115 1_555
