# generated using pymatgen
data_LiFeF4
_symmetry_space_group_name_H-M   'P 1'
_cell_length_a   7.76896967
_cell_length_b   7.76896967
_cell_length_c   7.91747800
_cell_angle_alpha   90.00000000
_cell_angle_beta   90.00000000
_cell_angle_gamma   119.99999719
_symmetry_Int_Tables_number   1
_chemical_formula_structural   LiFeF4
_chemical_formula_sum   'Li6 Fe6 F24'
_cell_volume   413.85133569
_cell_formula_units_Z   6
loop_
 _symmetry_equiv_pos_site_id
 _symmetry_equiv_pos_as_xyz
  1  'x, y, z'
loop_
 _atom_site_type_symbol
 _atom_site_label
 _atom_site_symmetry_multiplicity
 _atom_site_fract_x
 _atom_site_fract_y
 _atom_site_fract_z
 _atom_site_occupancy
  Li  Li0  1  0.95475300  0.80094900  0.05536900  1
  Li  Li1  1  0.99630800  0.34722700  0.99958700  1
  Li  Li2  1  0.35091900  0.00369200  0.66625400  1
  Li  Li3  1  0.19905100  0.15380400  0.38870200  1
  Li  Li4  1  0.65277300  0.64908100  0.33292000  1
  Li  Li5  1  0.84619600  0.04524700  0.72203600  1
  Fe  Fe0  1  0.12951100  0.66216200  0.38139000  1
  Fe  Fe1  1  0.33783800  0.46735000  0.71472300  1
  Fe  Fe2  1  0.53265000  0.87048900  0.04805700  1
  Fe  Fe3  1  0.40739800  0.24153600  0.06438000  1
  Fe  Fe4  1  0.83413800  0.59260200  0.73104700  1
  Fe  Fe5  1  0.75846400  0.16586200  0.39771300  1
  F  F0  1  0.27430900  0.70735900  0.15792600  1
  F  F1  1  0.37744400  0.01652600  0.92545900  1
  F  F2  1  0.10045400  0.73243000  0.63166500  1
  F  F3  1  0.98347400  0.36091800  0.25879200  1
  F  F4  1  0.26757000  0.36802400  0.96499900  1
  F  F5  1  0.31121200  0.23149500  0.61609000  1
  F  F6  1  0.43305100  0.72569100  0.82459200  1
  F  F7  1  0.29264100  0.56694900  0.49125900  1
  F  F8  1  0.63197600  0.89954600  0.29833200  1
  F  F9  1  0.14549800  0.05942500  0.14974200  1
  F  F10  1  0.44759700  0.38227100  0.27181000  1
  F  F11  1  0.29280500  0.94517400  0.40521900  1
  F  F12  1  0.63908200  0.62255600  0.59212600  1
  F  F13  1  0.57410700  0.40612100  0.85059600  1
  F  F14  1  0.65236900  0.70719500  0.07188500  1
  F  F15  1  0.91392600  0.85450200  0.81640900  1
  F  F16  1  0.92028300  0.68878800  0.28275700  1
  F  F17  1  0.83201400  0.42589300  0.51726300  1
  F  F18  1  0.61772900  0.06532600  0.60514400  1
  F  F19  1  0.93467400  0.55240300  0.93847700  1
  F  F20  1  0.59387900  0.16798600  0.18392900  1
  F  F21  1  0.05482600  0.34763100  0.73855200  1
  F  F22  1  0.94057500  0.08607400  0.48307500  1
  F  F23  1  0.76850500  0.07971700  0.94942400  1
loop_
_geom_bond_atom_site_label_1
_geom_bond_atom_site_label_2
_geom_bond_distance
_geom_bond_site_symmetry_2
F0 Fe2 1.961498 1_555
F0 Fe0 2.030784 1_555
F1 Fe3 1.978125 1_556
F1 Li2 2.059998 1_555
F1 Fe2 2.247528 1_546
F2 Fe4 1.957652 1_455
F2 Li2 2.049841 1_565
F2 Fe0 2.097317 1_555
F3 Fe5 1.978125 1_555
F3 Li1 2.059998 1_554
F3 Fe0 2.247534 1_655
F4 Fe3 1.957648 1_556
F4 Li1 2.049840 1_455
F4 Fe1 2.097327 1_555
F5 Fe1 1.905546 1_555
F5 Li3 1.959306 1_555
F5 Li2 1.982683 1_555
F6 Fe1 1.961496 1_555
F6 Fe2 2.030790 1_556
F7 Fe0 1.961509 1_555
F7 Fe1 2.030777 1_555
F8 Fe5 1.957648 1_565
F8 Li4 2.049840 1_555
F8 Fe2 2.097320 1_555
F9 Fe3 1.928662 1_555
F9 Li0 1.952169 1_445
F9 Li3 1.996291 1_555
F10 Fe3 1.910168 1_555
F10 Li4 1.941004 1_555
F10 Li3 2.075622 1_555
F11 Fe0 1.920937 1_555
F11 Li3 2.086941 1_565
F11 Li2 2.115816 1_565
F12 Fe4 1.978125 1_555
F12 Li4 2.060005 1_555
F12 Fe1 2.247531 1_555
F13 Fe4 2.036953 1_555
F13 Fe3 2.126342 1_556
F13 Fe1 2.371923 1_555
F14 Fe2 1.920942 1_555
F14 Li0 2.086941 1_555
F14 Li4 2.115816 1_555
F15 Fe4 1.928664 1_555
F15 Li5 1.952164 1_565
F15 Li0 1.996293 1_556
F16 Fe0 1.905539 1_655
F16 Li0 1.959306 1_555
F16 Li4 1.982681 1_555
F17 Fe5 2.036956 1_555
F17 Fe4 2.126342 1_555
F17 Fe0 2.371919 1_655
F18 Fe5 1.910175 1_555
F18 Li2 1.941004 1_555
F18 Li5 2.075622 1_555
F19 Fe4 1.910168 1_555
F19 Li1 1.941004 1_555
F19 Li0 2.075622 1_556
F20 Fe3 2.036953 1_555
F20 Fe5 2.126342 1_555
F20 Fe2 2.371913 1_545
F21 Fe1 1.920936 1_555
F21 Li5 2.086941 1_455
F21 Li1 2.115816 1_455
F22 Fe5 1.928657 1_555
F22 Li3 1.952171 1_655
F22 Li5 1.996298 1_555
F23 Fe2 1.905544 1_546
F23 Li5 1.959306 1_555
F23 Li1 1.982681 1_555
