# generated using pymatgen
data_Li32Ti3Cr13O48
_symmetry_space_group_name_H-M   'P 1'
_cell_length_a   5.05906400
_cell_length_b   8.72076823
_cell_length_c   19.54091528
_cell_angle_alpha   98.44984094
_cell_angle_beta   95.00606031
_cell_angle_gamma   90.09194115
_symmetry_Int_Tables_number   1
_chemical_formula_structural   Li32Ti3Cr13O48
_chemical_formula_sum   'Li32 Ti3 Cr13 O48'
_cell_volume   849.42175280
_cell_formula_units_Z   1
loop_
 _symmetry_equiv_pos_site_id
 _symmetry_equiv_pos_as_xyz
  1  'x, y, z'
loop_
 _atom_site_type_symbol
 _atom_site_label
 _atom_site_symmetry_multiplicity
 _atom_site_fract_x
 _atom_site_fract_y
 _atom_site_fract_z
 _atom_site_occupancy
  Li  Li0  1  0.99093500  0.16931600  0.24914500  1
  Li  Li1  1  0.87284300  0.37499700  0.37561700  1
  Li  Li2  1  0.74717100  0.25065800  0.99981300  1
  Li  Li3  1  0.74273600  0.91909700  0.99975500  1
  Li  Li4  1  0.99461400  0.17092900  0.75024400  1
  Li  Li5  1  0.75179000  0.57891600  0.50028400  1
  Li  Li6  1  0.87591700  0.37604300  0.87530800  1
  Li  Li7  1  0.74303300  0.25297900  0.50025000  1
  Li  Li8  1  0.74639500  0.92168000  0.50041700  1
  Li  Li9  1  0.62684200  0.12607200  0.12514800  1
  Li  Li10  1  0.76071400  0.58183100  0.00010000  1
  Li  Li11  1  0.51039100  0.33339700  0.25013400  1
  Li  Li12  1  0.62584500  0.12611000  0.62516200  1
  Li  Li13  1  0.50215100  0.99919300  0.25038300  1
  Li  Li14  1  0.48530600  0.66676000  0.24967200  1
  Li  Li15  1  0.51291000  0.33194500  0.74970200  1
  Li  Li16  1  0.37465900  0.87373500  0.37476200  1
  Li  Li17  1  0.49936000  0.99949500  0.74959500  1
  Li  Li18  1  0.25001600  0.74816200  0.00067000  1
  Li  Li19  1  0.49241400  0.66803400  0.74954300  1
  Li  Li20  1  0.24326900  0.42098100  0.00090600  1
  Li  Li21  1  0.37760300  0.87452400  0.87426000  1
  Li  Li22  1  0.25328800  0.07839700  0.49933700  1
  Li  Li23  1  0.25806200  0.74663600  0.49981800  1
  Li  Li24  1  0.12782600  0.62436000  0.12490000  1
  Li  Li25  1  0.24809800  0.42202000  0.49989300  1
  Li  Li26  1  0.00859200  0.83077500  0.25019100  1
  Li  Li27  1  0.25543100  0.08009300  0.00061600  1
  Li  Li28  1  0.12765900  0.62471000  0.62415900  1
  Li  Li29  1  0.00262200  0.49983300  0.24925000  1
  Li  Li30  1  0.00506500  0.83021100  0.75118900  1
  Li  Li31  1  0.99423700  0.50085200  0.75072200  1
  Ti  Ti0  1  0.87309800  0.71083300  0.37391000  1
  Ti  Ti1  1  0.37835000  0.53904000  0.87677500  1
  Ti  Ti2  1  0.12836800  0.28927100  0.62654900  1
  Cr  Cr0  1  0.87629400  0.04717500  0.37495700  1
  Cr  Cr1  1  0.87872000  0.71180000  0.87515700  1
  Cr  Cr2  1  0.87097600  0.04684600  0.87414800  1
  Cr  Cr3  1  0.62233400  0.79735800  0.12444600  1
  Cr  Cr4  1  0.62975600  0.46201400  0.12563900  1
  Cr  Cr5  1  0.62212200  0.79692500  0.62407500  1
  Cr  Cr6  1  0.62872900  0.46158000  0.62497600  1
  Cr  Cr7  1  0.37242800  0.53815500  0.37454900  1
  Cr  Cr8  1  0.37662000  0.20287400  0.37553100  1
  Cr  Cr9  1  0.37144300  0.20263000  0.87470700  1
  Cr  Cr10  1  0.12142600  0.95303700  0.12436600  1
  Cr  Cr11  1  0.13074900  0.28848500  0.12576300  1
  Cr  Cr12  1  0.12246100  0.95244400  0.62465400  1
  O  O0  1  0.96445600  0.10190700  0.06890000  1
  O  O1  1  0.93461300  0.78745000  0.06869100  1
  O  O2  1  0.92107100  0.42477600  0.06871500  1
  O  O3  1  0.96464400  0.10332600  0.56880600  1
  O  O4  1  0.81563700  0.96132600  0.18142600  1
  O  O5  1  0.82907600  0.32133800  0.18254800  1
  O  O6  1  0.93473600  0.78749500  0.56853300  1
  O  O7  1  0.91958100  0.42859300  0.56763400  1
  O  O8  1  0.78121800  0.64373400  0.18027900  1
  O  O9  1  0.71305200  0.85984500  0.31830400  1
  O  O10  1  0.81649300  0.95970600  0.68140900  1
  O  O11  1  0.82563300  0.32157600  0.68376000  1
  O  O12  1  0.67421800  0.53339900  0.31865900  1
  O  O13  1  0.68414900  0.17492200  0.31764100  1
  O  O14  1  0.78264600  0.64203000  0.67959900  1
  O  O15  1  0.71197100  0.86053700  0.81865800  1
  O  O16  1  0.46531800  0.61029400  0.06893900  1
  O  O17  1  0.57017300  0.71341600  0.43121600  1
  O  O18  1  0.56625500  0.07550100  0.43232100  1
  O  O19  1  0.68100400  0.53715500  0.81889200  1
  O  O20  1  0.68264400  0.17481000  0.81767700  1
  O  O21  1  0.43323100  0.92515300  0.06746000  1
  O  O22  1  0.42102700  0.28699100  0.06956000  1
  O  O23  1  0.53710500  0.38906700  0.43080900  1
  O  O24  1  0.46213800  0.61073100  0.56876100  1
  O  O25  1  0.57576300  0.71727900  0.93132100  1
  O  O26  1  0.56428500  0.07519200  0.93216700  1
  O  O27  1  0.31591800  0.82677600  0.18223100  1
  O  O28  1  0.32889500  0.46542500  0.18111300  1
  O  O29  1  0.43344900  0.92485600  0.56744600  1
  O  O30  1  0.43043700  0.28704100  0.56877600  1
  O  O31  1  0.53684700  0.39031700  0.93190700  1
  O  O32  1  0.28304600  0.14349500  0.18069300  1
  O  O33  1  0.21721700  0.35762300  0.32012000  1
  O  O34  1  0.31521100  0.82512700  0.68197800  1
  O  O35  1  0.32559000  0.46725300  0.68134800  1
  O  O36  1  0.17463800  0.67826500  0.31606600  1
  O  O37  1  0.18293600  0.03953100  0.31817300  1
  O  O38  1  0.28771800  0.14022700  0.68160500  1
  O  O39  1  0.21593500  0.35334300  0.81882100  1
  O  O40  1  0.08081900  0.57165800  0.43217100  1
  O  O41  1  0.06465300  0.21216300  0.43108200  1
  O  O42  1  0.16959800  0.67859200  0.81762300  1
  O  O43  1  0.18364700  0.03732300  0.81873300  1
  O  O44  1  0.03593300  0.89695000  0.43114200  1
  O  O45  1  0.07565000  0.57145100  0.93384200  1
  O  O46  1  0.06531900  0.20974300  0.93144700  1
  O  O47  1  0.03273800  0.89207400  0.92984500  1
loop_
_geom_bond_atom_site_label_1
_geom_bond_atom_site_label_2
_geom_bond_distance
_geom_bond_site_symmetry_2
Li0 O37 2.065800 1_655
Li0 O32 2.069147 1_655
Li0 O5 2.108610 1_555
Li0 O13 2.132211 1_555
Li0 O4 2.216351 1_545
Li0 O33 2.231219 1_655
Li1 O23 2.084387 1_555
Li1 O41 2.099056 1_655
Li1 O12 2.101875 1_555
Li1 O13 2.112842 1_555
Li1 O40 2.122251 1_655
Li1 O33 2.125230 1_655
Li2 O2 2.020057 1_556
Li2 O26 2.032842 1_555
Li2 O31 2.146868 1_555
Li2 O46 2.177072 1_655
Li2 O22 2.224325 1_556
Li2 O0 2.230242 1_556
Li3 O1 2.074805 1_556
Li3 O47 2.081000 1_655
Li3 O21 2.132178 1_556
Li3 O25 2.169299 1_555
Li3 O0 2.173049 1_566
Li3 O26 2.176383 1_565
Li4 O43 2.074070 1_655
Li4 O38 2.076612 1_655
Li4 O11 2.110918 1_555
Li4 O20 2.139734 1_555
Li4 O39 2.164711 1_655
Li4 O10 2.251521 1_545
Li5 O24 2.061360 1_555
Li5 O17 2.072161 1_555
Li5 O7 2.118212 1_555
Li5 O23 2.200035 1_555
Li5 O40 2.215537 1_655
Li5 O6 2.238332 1_555
Li6 O19 2.105160 1_555
Li6 O45 2.110271 1_655
Li6 O31 2.114845 1_555
Li6 O39 2.117740 1_655
Li6 O46 2.124477 1_655
Li6 O20 2.127322 1_555
Li7 O7 2.018598 1_555
Li7 O18 2.035169 1_555
Li7 O23 2.136737 1_555
Li7 O30 2.153246 1_555
Li7 O41 2.201194 1_655
Li7 O3 2.238587 1_555
Li8 O44 2.070240 1_655
Li8 O6 2.070973 1_555
Li8 O29 2.138765 1_555
Li8 O3 2.151537 1_565
Li8 O18 2.171984 1_565
Li8 O17 2.232638 1_555
Li9 O0 2.104883 1_555
Li9 O5 2.106520 1_555
Li9 O4 2.114527 1_545
Li9 O22 2.118662 1_555
Li9 O32 2.123239 1_555
Li9 O21 2.126396 1_545
Li10 O25 2.080322 1_554
Li10 O16 2.087660 1_555
Li10 O45 2.132870 1_654
Li10 O2 2.164538 1_555
Li10 O1 2.206511 1_555
Li10 O31 2.219068 1_554
Li11 O28 2.057062 1_555
Li11 O33 2.094008 1_555
Li11 O12 2.153459 1_555
Li11 O5 2.164709 1_555
Li11 O13 2.181784 1_555
Li11 O32 2.228870 1_555
Li12 O30 2.104707 1_555
Li12 O38 2.108997 1_555
Li12 O3 2.110983 1_555
Li12 O11 2.111236 1_555
Li12 O29 2.126247 1_545
Li12 O10 2.128955 1_545
Li13 O27 2.027329 1_555
Li13 O13 2.028789 1_565
Li13 O9 2.146569 1_555
Li13 O4 2.164221 1_555
Li13 O37 2.173647 1_565
Li13 O32 2.216195 1_565
Li14 O12 2.079125 1_555
Li14 O8 2.096523 1_555
Li14 O36 2.116988 1_555
Li14 O28 2.150119 1_555
Li14 O27 2.183033 1_555
Li14 O9 2.240966 1_555
Li15 O35 2.078561 1_555
Li15 O39 2.096974 1_555
Li15 O11 2.119806 1_555
Li15 O20 2.172372 1_555
Li15 O19 2.199358 1_555
Li15 O38 2.222484 1_555
Li16 O17 2.101737 1_555
Li16 O9 2.110356 1_555
Li16 O44 2.111011 1_555
Li16 O36 2.112500 1_555
Li16 O18 2.126800 1_565
Li16 O37 2.131034 1_565
Li17 O34 2.028840 1_555
Li17 O20 2.037052 1_565
Li17 O38 2.157073 1_565
Li17 O15 2.162920 1_555
Li17 O10 2.169981 1_555
Li17 O43 2.175425 1_565
Li18 O45 2.015315 1_554
Li18 O21 2.034001 1_555
Li18 O16 2.152585 1_555
Li18 O1 2.160621 1_455
Li18 O25 2.215555 1_554
Li18 O47 2.224450 1_554
Li19 O19 2.069256 1_555
Li19 O14 2.082214 1_555
Li19 O35 2.160374 1_555
Li19 O34 2.180043 1_555
Li19 O42 2.188407 1_555
Li19 O15 2.223054 1_555
Li20 O22 2.056067 1_555
Li20 O31 2.083300 1_554
Li20 O45 2.115041 1_554
Li20 O2 2.185875 1_455
Li20 O16 2.200761 1_555
Li20 O46 2.256737 1_554
Li21 O15 2.083108 1_555
Li21 O25 2.094622 1_555
Li21 O43 2.104086 1_565
Li21 O26 2.112117 1_565
Li21 O42 2.118260 1_555
Li21 O47 2.128357 1_555
Li22 O3 2.069459 1_455
Li22 O41 2.071029 1_555
Li22 O18 2.138865 1_555
Li22 O44 2.146576 1_545
Li22 O29 2.170464 1_545
Li22 O30 2.238757 1_555
Li23 O40 2.018876 1_555
Li23 O29 2.033860 1_555
Li23 O24 2.125092 1_555
Li23 O17 2.151963 1_555
Li23 O6 2.202302 1_455
Li23 O44 2.245140 1_555
Li24 O16 2.100748 1_555
Li24 O28 2.102235 1_555
Li24 O1 2.112093 1_455
Li24 O27 2.122250 1_555
Li24 O8 2.133729 1_455
Li24 O2 2.135663 1_455
Li25 O23 2.067498 1_555
Li25 O30 2.073838 1_555
Li25 O40 2.118010 1_555
Li25 O24 2.186552 1_555
Li25 O7 2.209001 1_455
Li25 O41 2.252155 1_555
Li26 O4 2.068566 1_455
Li26 O9 2.078618 1_455
Li26 O36 2.109414 1_555
Li26 O27 2.128158 1_555
Li26 O8 2.216978 1_455
Li26 O37 2.221838 1_565
Li27 O0 2.062206 1_455
Li27 O46 2.063015 1_554
Li27 O26 2.140206 1_554
Li27 O21 2.158359 1_545
Li27 O22 2.203676 1_555
Li27 O47 2.219468 1_544
Li28 O24 2.081266 1_555
Li28 O35 2.096946 1_555
Li28 O6 2.102905 1_455
Li28 O34 2.111595 1_555
Li28 O7 2.118815 1_455
Li28 O14 2.127391 1_455
Li29 O36 2.020802 1_555
Li29 O5 2.022972 1_455
Li29 O28 2.203441 1_555
Li29 O33 2.209346 1_555
Li29 O8 2.209982 1_455
Li29 O12 2.227944 1_455
Li30 O15 2.060762 1_455
Li30 O10 2.067295 1_455
Li30 O42 2.108517 1_555
Li30 O34 2.155443 1_555
Li30 O43 2.215089 1_565
Li30 O14 2.227324 1_455
Li31 O11 2.020830 1_555
Li31 O42 2.023945 1_655
Li31 O19 2.152201 1_555
Li31 O14 2.200160 1_555
Li31 O39 2.220540 1_655
Li31 O35 2.239450 1_655
Cr0 O41 1.878974 1_655
Cr0 O13 1.902793 1_555
Cr0 O44 1.960948 1_645
Cr0 O9 1.970037 1_545
Cr0 O37 1.980225 1_655
Cr0 O18 2.001116 1_555
Cr1 O47 1.891491 1_655
Cr1 O42 1.925560 1_655
Cr1 O25 1.958130 1_555
Cr1 O19 1.959605 1_555
Cr1 O15 1.968467 1_555
Cr1 O45 2.005668 1_655
Cr2 O20 1.884849 1_555
Cr2 O46 1.890594 1_655
Cr2 O15 1.946408 1_545
Cr2 O43 1.988611 1_655
Cr2 O47 1.988936 1_645
Cr2 O26 1.994923 1_555
Cr3 O4 1.891657 1_555
Cr3 O21 1.891963 1_555
Cr3 O16 1.947873 1_555
Cr3 O8 1.977691 1_555
Cr3 O1 1.990865 1_555
Cr3 O27 1.991363 1_555
Cr4 O8 1.895945 1_555
Cr4 O2 1.922573 1_555
Cr4 O28 1.941984 1_555
Cr4 O16 1.963532 1_555
Cr4 O22 1.986693 1_555
Cr4 O5 1.991917 1_555
Cr5 O29 1.887380 1_555
Cr5 O10 1.890288 1_555
Cr5 O24 1.946093 1_555
Cr5 O14 1.985409 1_555
Cr5 O6 1.989908 1_555
Cr5 O34 1.994392 1_555
Cr6 O14 1.891938 1_555
Cr6 O7 1.922970 1_555
Cr6 O30 1.959796 1_555
Cr6 O35 1.961343 1_555
Cr6 O24 1.967408 1_555
Cr6 O11 2.004716 1_555
Cr7 O33 1.893313 1_555
Cr7 O40 1.929827 1_555
Cr7 O12 1.950240 1_555
Cr7 O23 1.963878 1_555
Cr7 O17 1.966568 1_555
Cr7 O36 2.003738 1_555
Cr8 O18 1.888290 1_555
Cr8 O37 1.892127 1_555
Cr8 O23 1.946737 1_555
Cr8 O33 1.981040 1_555
Cr8 O41 1.987305 1_555
Cr8 O13 1.996737 1_555
Cr9 O43 1.878314 1_555
Cr9 O26 1.904382 1_555
Cr9 O39 1.953001 1_555
Cr9 O46 1.977732 1_555
Cr9 O31 1.980732 1_555
Cr9 O20 2.001862 1_555
Cr10 O1 1.875250 1_455
Cr10 O27 1.906392 1_555
Cr10 O0 1.938424 1_465
Cr10 O4 1.979747 1_455
Cr10 O32 1.984961 1_565
Cr10 O21 2.002968 1_555
Cr11 O32 1.897951 1_555
Cr11 O22 1.907948 1_555
Cr11 O5 1.961154 1_455
Cr11 O28 1.967499 1_555
Cr11 O0 1.972567 1_455
Cr11 O2 1.991908 1_455
Cr12 O6 1.877252 1_455
Cr12 O34 1.901783 1_555
Cr12 O3 1.957831 1_465
Cr12 O10 1.977194 1_455
Cr12 O38 1.979108 1_565
Cr12 O29 2.002997 1_555
O3 Ti2 1.970691 1_655
O7 Ti2 2.029845 1_655
O9 Ti0 1.946735 1_555
O11 Ti2 1.970406 1_655
O12 Ti0 1.971487 1_555
O17 Ti0 1.973650 1_555
O19 Ti1 1.980126 1_555
O25 Ti1 1.967734 1_555
O30 Ti2 1.976098 1_555
O31 Ti1 1.936225 1_555
O35 Ti2 1.967594 1_555
O36 Ti0 1.973185 1_455
O38 Ti2 1.939000 1_555
O39 Ti1 1.968379 1_555
O40 Ti0 2.018648 1_455
O42 Ti1 2.033957 1_555
O44 Ti0 1.966019 1_455
O45 Ti1 1.968589 1_555
