# generated using pymatgen
data_LiMnF5
_symmetry_space_group_name_H-M   'P 1'
_cell_length_a   9.02964700
_cell_length_b   5.27488500
_cell_length_c   9.19939345
_cell_angle_alpha   58.55979019
_cell_angle_beta   90.00000000
_cell_angle_gamma   90.00000000
_symmetry_Int_Tables_number   1
_chemical_formula_structural   LiMnF5
_chemical_formula_sum   'Li4 Mn4 F20'
_cell_volume   373.84032519
_cell_formula_units_Z   4
loop_
 _symmetry_equiv_pos_site_id
 _symmetry_equiv_pos_as_xyz
  1  'x, y, z'
loop_
 _atom_site_type_symbol
 _atom_site_label
 _atom_site_symmetry_multiplicity
 _atom_site_fract_x
 _atom_site_fract_y
 _atom_site_fract_z
 _atom_site_occupancy
  Li  Li0  1  0.40052400  0.17699600  0.71072400  1
  Li  Li1  1  0.09947600  0.17699600  0.21072400  1
  Li  Li2  1  0.90052400  0.82300400  0.78927600  1
  Li  Li3  1  0.59947600  0.82300400  0.28927600  1
  Mn  Mn0  1  0.62172900  0.50010400  0.87756800  1
  Mn  Mn1  1  0.12172900  0.49989600  0.62243200  1
  Mn  Mn2  1  0.87827100  0.50010400  0.37756800  1
  Mn  Mn3  1  0.37827100  0.49989600  0.12243200  1
  F  F0  1  0.71642800  0.20939100  0.87645700  1
  F  F1  1  0.20120200  0.18787800  0.80798000  1
  F  F2  1  0.22787400  0.45531900  0.00540800  1
  F  F3  1  0.97599300  0.52777100  0.75043900  1
  F  F4  1  0.48480300  0.77336900  0.90658400  1
  F  F5  1  0.98480300  0.22663100  0.59341600  1
  F  F6  1  0.47599300  0.47222900  0.74956100  1
  F  F7  1  0.78357200  0.20939100  0.37645700  1
  F  F8  1  0.72787400  0.54468100  0.49459200  1
  F  F9  1  0.29879800  0.18787800  0.30798000  1
  F  F10  1  0.70120200  0.81212200  0.69202000  1
  F  F11  1  0.27212600  0.45531900  0.50540800  1
  F  F12  1  0.21642800  0.79060900  0.62354300  1
  F  F13  1  0.52400700  0.52777100  0.25043900  1
  F  F14  1  0.01519700  0.77336900  0.40658400  1
  F  F15  1  0.51519700  0.22663100  0.09341600  1
  F  F16  1  0.02400700  0.47222900  0.24956100  1
  F  F17  1  0.77212600  0.54468100  0.99459200  1
  F  F18  1  0.79879800  0.81212200  0.19202000  1
  F  F19  1  0.28357200  0.79060900  0.12354300  1
loop_
_geom_bond_atom_site_label_1
_geom_bond_atom_site_label_2
_geom_bond_distance
_geom_bond_site_symmetry_2
F0 Mn0 1.760455 1_555
F1 Mn1 1.790712 1_555
F1 Li0 2.024020 1_555
F2 Mn3 1.822794 1_555
F2 Li1 2.043101 1_555
F3 Mn1 1.822271 1_655
F3 Li2 1.896765 1_555
F4 Mn3 1.990213 1_556
F4 Mn0 2.019670 1_555
F4 Li0 2.087257 1_565
F5 Mn2 1.990213 1_555
F5 Mn1 2.019670 1_655
F5 Li2 2.087257 1_545
F6 Mn0 1.822271 1_555
F6 Li0 1.896765 1_555
F7 Mn2 1.760455 1_555
F8 Mn2 1.822794 1_555
F8 Li3 2.043101 1_555
F9 Mn3 1.790712 1_555
F9 Li1 2.024020 1_555
F10 Mn0 1.790712 1_555
F10 Li2 2.024020 1_555
F11 Mn1 1.822794 1_555
F11 Li0 2.043101 1_555
F12 Mn1 1.760455 1_555
F13 Mn3 1.822271 1_555
F13 Li3 1.896765 1_555
F14 Mn1 1.990213 1_555
F14 Mn2 2.019670 1_455
F14 Li1 2.087257 1_565
F15 Mn0 1.990213 1_554
F15 Mn3 2.019670 1_555
F15 Li3 2.087257 1_545
F16 Mn2 1.822271 1_455
F16 Li1 1.896765 1_555
F17 Mn0 1.822794 1_555
F17 Li2 2.043101 1_555
F18 Mn2 1.790712 1_555
F18 Li3 2.024020 1_555
F19 Mn3 1.760455 1_555
