# generated using pymatgen
data_LiNb(PO3)4
_symmetry_space_group_name_H-M   'P 1'
_cell_length_a   8.32131900
_cell_length_b   7.18096600
_cell_length_c   7.70903726
_cell_angle_alpha   86.08927565
_cell_angle_beta   90.00000000
_cell_angle_gamma   90.00000000
_symmetry_Int_Tables_number   1
_chemical_formula_structural   LiNb(PO3)4
_chemical_formula_sum   'Li2 Nb2 P8 O24'
_cell_volume   459.58174058
_cell_formula_units_Z   2
loop_
 _symmetry_equiv_pos_site_id
 _symmetry_equiv_pos_as_xyz
  1  'x, y, z'
loop_
 _atom_site_type_symbol
 _atom_site_label
 _atom_site_symmetry_multiplicity
 _atom_site_fract_x
 _atom_site_fract_y
 _atom_site_fract_z
 _atom_site_occupancy
  Li  Li0  1  0.38749800  0.65921400  0.64391300  1
  Li  Li1  1  0.88749800  0.34078600  0.35608700  1
  Nb  Nb0  1  0.78034000  0.74916900  0.22320400  1
  Nb  Nb1  1  0.28034000  0.25083100  0.77679600  1
  P  P0  1  0.87618300  0.99338900  0.58324900  1
  P  P1  1  0.17300300  0.91446600  0.10473600  1
  P  P2  1  0.01275100  0.62207100  0.59005100  1
  P  P3  1  0.39104800  0.57958900  0.09945900  1
  P  P4  1  0.89104800  0.42041100  0.90054100  1
  P  P5  1  0.51275100  0.37792900  0.40994900  1
  P  P6  1  0.67300300  0.08553400  0.89526400  1
  P  P7  1  0.37618300  0.00661100  0.41675100  1
  O  O0  1  0.78897000  0.97640400  0.77087400  1
  O  O1  1  0.20369500  0.99482800  0.92267500  1
  O  O2  1  0.76764100  0.92118700  0.44846100  1
  O  O3  1  0.00509500  0.91227900  0.17669800  1
  O  O4  1  0.01676500  0.83858200  0.62406000  1
  O  O5  1  0.44635200  0.81618600  0.44898700  1
  O  O6  1  0.23111000  0.70106000  0.11635100  1
  O  O7  1  0.54157400  0.69403900  0.09595300  1
  O  O8  1  0.96048900  0.59488700  0.40515400  1
  O  O9  1  0.86696200  0.54300000  0.04760300  1
  O  O10  1  0.87308500  0.54299500  0.71758700  1
  O  O11  1  0.17293900  0.54095200  0.64629100  1
  O  O12  1  0.67293900  0.45904800  0.35370900  1
  O  O13  1  0.37308500  0.45700500  0.28241300  1
  O  O14  1  0.36696200  0.45700000  0.95239700  1
  O  O15  1  0.46048900  0.40511300  0.59484600  1
  O  O16  1  0.04157400  0.30596100  0.90404700  1
  O  O17  1  0.73111000  0.29894000  0.88364900  1
  O  O18  1  0.94635200  0.18381400  0.55101300  1
  O  O19  1  0.51676500  0.16141800  0.37594000  1
  O  O20  1  0.50509500  0.08772100  0.82330200  1
  O  O21  1  0.26764100  0.07881300  0.55153900  1
  O  O22  1  0.70369500  0.00517200  0.07732500  1
  O  O23  1  0.28897000  0.02359600  0.22912600  1
loop_
_geom_bond_atom_site_label_1
_geom_bond_atom_site_label_2
_geom_bond_distance
_geom_bond_site_symmetry_2
Li0 O5 1.880821 1_555
Li0 O11 1.976643 1_555
Li0 O15 1.983844 1_555
Li1 O18 1.880821 1_555
Li1 O12 1.976643 1_555
Li1 O8 1.983844 1_555
Nb0 O22 2.183803 1_565
Nb0 O9 2.194845 1_555
Nb0 O2 2.201158 1_555
Nb0 O3 2.222844 1_655
Nb0 O7 2.262652 1_555
Nb0 O8 2.286951 1_555
Nb0 O12 2.421848 1_555
Nb1 O1 2.183803 1_545
Nb1 O14 2.194845 1_555
Nb1 O21 2.201158 1_555
Nb1 O20 2.222844 1_555
Nb1 O16 2.262652 1_555
Nb1 O15 2.286951 1_555
Nb1 O11 2.421848 1_555
O0 P6 1.602307 1_565
O0 P0 1.615422 1_555
O1 P1 1.502538 1_556
O2 P0 1.495928 1_555
O3 P1 1.503006 1_555
O4 P2 1.594593 1_555
O4 P0 1.629591 1_455
O5 P7 1.492053 1_565
O6 P3 1.601438 1_555
O6 P1 1.603601 1_555
O7 P3 1.497365 1_555
O8 P2 1.515549 1_655
O9 P4 1.495505 1_554
O10 P2 1.601142 1_655
O10 P4 1.617744 1_555
O11 P2 1.506541 1_555
O12 P5 1.506541 1_555
O13 P5 1.601142 1_555
O13 P3 1.617744 1_555
O14 P3 1.495505 1_556
O15 P5 1.515549 1_555
O16 P4 1.497365 1_455
O17 P4 1.601438 1_555
O17 P6 1.603601 1_555
O18 P0 1.492053 1_545
O19 P5 1.594593 1_555
O19 P7 1.629591 1_555
O20 P6 1.503006 1_555
O21 P7 1.495928 1_555
O22 P6 1.502538 1_554
O23 P1 1.602307 1_545
O23 P7 1.615422 1_555
