# generated using pymatgen
data_Fe3O5F
_symmetry_space_group_name_H-M   'P 1'
_cell_length_a   5.51490100
_cell_length_b   5.54850600
_cell_length_c   7.08063306
_cell_angle_alpha   73.44575297
_cell_angle_beta   72.93767612
_cell_angle_gamma   74.68558097
_symmetry_Int_Tables_number   1
_chemical_formula_structural   Fe3O5F
_chemical_formula_sum   'Fe6 O10 F2'
_cell_volume   194.65159405
_cell_formula_units_Z   2
loop_
 _symmetry_equiv_pos_site_id
 _symmetry_equiv_pos_as_xyz
  1  'x, y, z'
loop_
 _atom_site_type_symbol
 _atom_site_label
 _atom_site_symmetry_multiplicity
 _atom_site_fract_x
 _atom_site_fract_y
 _atom_site_fract_z
 _atom_site_occupancy
  Fe  Fe0  1  0.66391700  0.65500300  0.84049300  1
  Fe  Fe1  1  0.30494300  0.36031200  0.66689200  1
  Fe  Fe2  1  0.69505700  0.63968800  0.33310800  1
  Fe  Fe3  1  0.33608300  0.34499700  0.15950700  1
  Fe  Fe4  1  0.00000000  0.00000000  0.50000000  1
  Fe  Fe5  1  0.00000000  0.00000000  0.00000000  1
  O  O0  1  0.01107800  0.65574400  0.66457600  1
  O  O1  1  0.90684600  0.89125700  0.29693800  1
  O  O2  1  0.22467900  0.23723500  0.96242100  1
  O  O3  1  0.56247000  0.56524500  0.62701700  1
  O  O4  1  0.77532100  0.76276500  0.03757900  1
  O  O5  1  0.43753000  0.43475500  0.37298300  1
  O  O6  1  0.09315400  0.10874300  0.70306200  1
  O  O7  1  0.98892200  0.34425600  0.33542400  1
  O  O8  1  0.31132200  0.69845800  0.99425300  1
  O  O9  1  0.68867800  0.30154200  0.00574700  1
  F  F0  1  0.37485200  0.96461900  0.33142700  1
  F  F1  1  0.62514800  0.03538100  0.66857300  1
loop_
_geom_bond_atom_site_label_1
_geom_bond_atom_site_label_2
_geom_bond_distance
_geom_bond_site_symmetry_2
Fe0 O8 1.919433 1_555
Fe0 O0 1.954194 1_655
Fe0 O4 1.963420 1_556
Fe0 O9 1.969427 1_556
Fe0 O3 1.979447 1_555
Fe1 O5 1.952649 1_555
Fe1 O3 1.955636 1_555
Fe1 O2 1.960307 1_555
Fe1 O6 1.964712 1_555
Fe1 O0 1.977556 1_555
Fe2 O3 1.952649 1_555
Fe2 O5 1.955636 1_555
Fe2 O4 1.960307 1_555
Fe2 O1 1.964712 1_555
Fe2 O7 1.977556 1_555
Fe3 O9 1.919433 1_555
Fe3 O7 1.954194 1_455
Fe3 O2 1.963420 1_554
Fe3 O8 1.969427 1_554
Fe3 O5 1.979447 1_555
Fe4 O0 1.929226 1_545
Fe4 O7 1.929226 1_455
Fe4 O6 1.945971 1_555
Fe4 O1 1.945971 1_445
Fe5 O4 1.951220 1_445
Fe5 O2 1.951220 1_554
Fe5 O1 1.963545 1_445
Fe5 O6 1.963545 1_554
Fe5 O8 2.056487 1_544
Fe5 O9 2.056487 1_455
F0 Fe4 2.051342 1_565
F0 Fe3 2.105284 1_565
F0 Fe2 2.165016 1_555
F1 Fe4 2.051342 1_655
F1 Fe0 2.105284 1_545
F1 Fe1 2.165016 1_555
