# generated using pymatgen
data_Li6TiFe3(PO4)6
_symmetry_space_group_name_H-M   'P 1'
_cell_length_a   8.57726400
_cell_length_b   8.63487104
_cell_length_c   8.64040026
_cell_angle_alpha   61.62246545
_cell_angle_beta   61.75471512
_cell_angle_gamma   61.59725202
_symmetry_Int_Tables_number   1
_chemical_formula_structural   Li6TiFe3(PO4)6
_chemical_formula_sum   'Li6 Ti1 Fe3 P6 O24'
_cell_volume   469.32714510
_cell_formula_units_Z   1
loop_
 _symmetry_equiv_pos_site_id
 _symmetry_equiv_pos_as_xyz
  1  'x, y, z'
loop_
 _atom_site_type_symbol
 _atom_site_label
 _atom_site_symmetry_multiplicity
 _atom_site_fract_x
 _atom_site_fract_y
 _atom_site_fract_z
 _atom_site_occupancy
  Li  Li0  1  0.97289900  0.00011100  0.99175600  1
  Li  Li1  1  0.25327700  0.64296100  0.84664400  1
  Li  Li2  1  0.51991100  0.50298900  0.49200500  1
  Li  Li3  1  0.71808800  0.34743800  0.15224200  1
  Li  Li4  1  0.34581800  0.15469700  0.71178000  1
  Li  Li5  1  0.15463500  0.71791800  0.34596300  1
  Ti  Ti0  1  0.14888500  0.14935000  0.15040100  1
  Fe  Fe0  1  0.85364700  0.86107200  0.85251100  1
  Fe  Fe1  1  0.64594100  0.64618300  0.63567800  1
  Fe  Fe2  1  0.35166900  0.35118200  0.34961500  1
  P  P0  1  0.95001300  0.55625300  0.25251100  1
  P  P1  1  0.55446000  0.25426900  0.95036000  1
  P  P2  1  0.25207800  0.95224500  0.55296000  1
  P  P3  1  0.75610500  0.04111400  0.45455200  1
  P  P4  1  0.45212100  0.75532000  0.03575900  1
  P  P5  1  0.04373200  0.46033100  0.75701200  1
  O  O0  1  0.86891500  0.50143300  0.71692100  1
  O  O1  1  0.70607300  0.87834700  0.48336400  1
  O  O2  1  0.94165500  0.73567900  0.08223900  1
  O  O3  1  0.46162900  0.70973800  0.87774500  1
  O  O4  1  0.76034600  0.56033100  0.40882000  1
  O  O5  1  0.01048900  0.38271900  0.19375200  1
  O  O6  1  0.74100800  0.09658400  0.91829300  1
  O  O7  1  0.53461000  0.42353400  0.77137400  1
  O  O8  1  0.40734200  0.75940700  0.56082000  1
  O  O9  1  0.82168300  0.99791600  0.61064600  1
  O  O10  1  0.91492300  0.07192600  0.26001300  1
  O  O11  1  0.62101000  0.80846000  0.98247700  1
  O  O12  1  0.38277700  0.18931500  0.01551600  1
  O  O13  1  0.09581600  0.92255300  0.74362500  1
  O  O14  1  0.18887700  0.00868700  0.38487800  1
  O  O15  1  0.59537700  0.22991700  0.43847300  1
  O  O16  1  0.43841800  0.59653700  0.22485100  1
  O  O17  1  0.26236500  0.91919800  0.07074800  1
  O  O18  1  0.02503800  0.61505800  0.81209800  1
  O  O19  1  0.22918000  0.43482500  0.59497800  1
  O  O20  1  0.53788400  0.31019900  0.10211000  1
  O  O21  1  0.06778800  0.26731800  0.91826500  1
  O  O22  1  0.31332600  0.10197800  0.53096500  1
  O  O23  1  0.10019000  0.53391200  0.31628200  1
loop_
_geom_bond_atom_site_label_1
_geom_bond_atom_site_label_2
_geom_bond_distance
_geom_bond_site_symmetry_2
Li0 O6 2.041816 1_555
Li0 O2 2.140938 1_546
Li0 O13 2.170317 1_645
Li0 O10 2.446673 1_556
Li0 O21 2.508766 1_655
Li0 O17 2.572698 1_646
Li1 O13 2.106691 1_555
Li1 O8 2.161269 1_555
Li1 O18 2.247169 1_555
Li1 O7 2.274246 1_555
Li1 O3 2.276076 1_555
Li1 O2 2.508491 1_456
Li2 O4 2.060321 1_555
Li2 O8 2.205095 1_555
Li2 O7 2.223703 1_555
Li2 O15 2.343962 1_555
Li2 O16 2.384745 1_555
Li2 O19 2.480931 1_555
Li3 O20 1.979646 1_555
Li3 O15 2.102562 1_555
Li3 O10 2.222247 1_555
Li3 O16 2.392513 1_555
Li4 O22 1.983572 1_555
Li4 O19 2.050203 1_555
Li4 O21 2.287296 1_555
Li4 O15 2.379211 1_555
Li5 O23 2.003723 1_555
Li5 O16 2.079191 1_555
Li5 O17 2.246943 1_555
Li5 O19 2.414400 1_555
Fe0 O11 1.924994 1_555
Fe0 O9 1.930163 1_555
Fe0 O18 2.010978 1_655
Fe0 O6 2.025318 1_565
Fe0 O13 2.050888 1_655
Fe0 O2 2.068785 1_556
Fe1 O1 1.962189 1_555
Fe1 O0 1.968570 1_555
Fe1 O4 2.055069 1_555
Fe1 O8 2.076244 1_555
Fe1 O3 2.076321 1_555
Fe1 O7 2.127644 1_555
Fe2 O23 2.035548 1_555
Fe2 O22 2.043106 1_555
Fe2 O20 2.048999 1_555
Fe2 O15 2.174398 1_555
Fe2 O19 2.178398 1_555
Fe2 O16 2.184894 1_555
O0 P5 1.537139 1_655
O1 P3 1.536739 1_565
O2 P0 1.548382 1_555
O3 P4 1.549357 1_556
O4 P0 1.543686 1_555
O5 P0 1.583226 1_455
O5 Ti0 1.905539 1_555
O6 P1 1.535351 1_555
O7 P1 1.555889 1_555
O8 P2 1.555415 1_555
O9 P3 1.521439 1_565
O10 P3 1.582497 1_555
O10 Ti0 2.060717 1_655
O11 P4 1.523576 1_556
O12 P1 1.581423 1_554
O12 Ti0 1.888215 1_555
O13 P2 1.552951 1_555
O14 P2 1.568935 1_545
O14 Ti0 1.902582 1_555
O15 P3 1.550980 1_555
O16 P4 1.550889 1_555
O17 P4 1.578835 1_555
O17 Ti0 2.048516 1_565
O18 P5 1.538087 1_555
O19 P5 1.546211 1_555
O20 P1 1.527352 1_554
O21 P5 1.580877 1_555
O21 Ti0 2.061270 1_556
O22 P2 1.517189 1_545
O23 P0 1.527870 1_455
