# generated using pymatgen
data_Li2Fe(CO3)2
_symmetry_space_group_name_H-M   'P 1'
_cell_length_a   9.89401298
_cell_length_b   8.69059377
_cell_length_c   6.07913971
_cell_angle_alpha   82.06271196
_cell_angle_beta   60.45329460
_cell_angle_gamma   37.48399344
_symmetry_Int_Tables_number   1
_chemical_formula_structural   Li2Fe(CO3)2
_chemical_formula_sum   'Li4 Fe2 C4 O12'
_cell_volume   243.01643747
_cell_formula_units_Z   2
loop_
 _symmetry_equiv_pos_site_id
 _symmetry_equiv_pos_as_xyz
  1  'x, y, z'
loop_
 _atom_site_type_symbol
 _atom_site_label
 _atom_site_symmetry_multiplicity
 _atom_site_fract_x
 _atom_site_fract_y
 _atom_site_fract_z
 _atom_site_occupancy
  Li  Li0  1  0.79275300  0.56555300  0.12287700  1
  Li  Li1  1  0.12712300  0.73118300  0.45724700  1
  Li  Li2  1  0.68444700  0.45724700  0.73118300  1
  Li  Li3  1  0.51881700  0.12287700  0.56555300  1
  Fe  Fe0  1  0.32819300  0.17180700  0.17180700  1
  Fe  Fe1  1  0.07819300  0.92180700  0.92180700  1
  C  C0  1  0.31193300  0.98193400  0.62088300  1
  C  C1  1  0.62911700  0.16475000  0.93806700  1
  C  C2  1  0.26806600  0.93806700  0.16475000  1
  C  C3  1  0.08525000  0.62088300  0.98193400  1
  O  O0  1  0.45983100  0.72842500  0.53691800  1
  O  O1  1  0.05535600  0.19009500  0.86493500  1
  O  O2  1  0.42701700  0.01470200  0.45437500  1
  O  O3  1  0.79562500  0.14609500  0.82298300  1
  O  O4  1  0.38506500  0.36038600  0.19464400  1
  O  O5  1  0.71308200  0.97517500  0.79016900  1
  O  O6  1  0.52157500  0.79016900  0.97517500  1
  O  O7  1  0.05990500  0.19464400  0.36038600  1
  O  O8  1  0.23529800  0.82298300  0.14609500  1
  O  O9  1  0.10390500  0.45437500  0.01470200  1
  O  O10  1  0.88961400  0.86493500  0.19009500  1
  O  O11  1  0.27482500  0.53691800  0.72842500  1
loop_
_geom_bond_atom_site_label_1
_geom_bond_atom_site_label_2
_geom_bond_distance
_geom_bond_site_symmetry_2
Li0 O1 1.948473 1_654
Li0 O9 2.074020 1_655
Li0 O0 2.143907 1_555
Li0 O2 2.226075 1_565
Li0 O6 2.322785 1_554
Li1 O4 1.948473 1_555
Li1 O8 2.074026 1_555
Li1 O5 2.143904 1_455
Li1 O3 2.226080 1_465
Li1 O11 2.322786 1_555
Li2 O7 1.948473 1_655
Li2 O3 2.074022 1_555
Li2 O6 2.143911 1_555
Li2 O8 2.226077 1_556
Li2 O0 2.322790 1_555
Li3 O10 1.948473 1_545
Li3 O2 2.074029 1_555
Li3 O11 2.143903 1_555
Li3 O9 2.226077 1_556
Li3 O5 2.322792 1_545
Fe0 O7 2.150625 1_555
Fe0 O4 2.150625 1_555
Fe0 O2 2.158937 1_555
Fe0 O9 2.158940 1_555
Fe0 O6 2.204089 1_544
Fe0 O5 2.204094 1_544
Fe1 O1 2.150625 1_565
Fe1 O10 2.150625 1_456
Fe1 O3 2.158936 1_465
Fe1 O8 2.158943 1_556
Fe1 O0 2.204091 1_555
Fe1 O11 2.204096 1_555
C0 O1 1.287045 1_565
C0 O2 1.304020 1_565
C0 O0 1.308866 1_555
C1 O4 1.287045 1_556
C1 O3 1.304027 1_555
C1 O5 1.308858 1_545
C2 O7 1.287045 1_565
C2 O8 1.304018 1_555
C2 O6 1.308865 1_554
C3 O10 1.287045 1_456
C3 O9 1.304026 1_556
C3 O11 1.308862 1_555
