# generated using pymatgen
data_Li7Fe3Co(PO4)6
_symmetry_space_group_name_H-M   'P 1'
_cell_length_a   8.84354819
_cell_length_b   8.84354883
_cell_length_c   8.79351187
_cell_angle_alpha   90.00000036
_cell_angle_beta   59.81159794
_cell_angle_gamma   120.00000393
_symmetry_Int_Tables_number   1
_chemical_formula_structural   Li7Fe3Co(PO4)6
_chemical_formula_sum   'Li7 Fe3 Co1 P6 O24'
_cell_volume   484.90630391
_cell_formula_units_Z   1
loop_
 _symmetry_equiv_pos_site_id
 _symmetry_equiv_pos_as_xyz
  1  'x, y, z'
loop_
 _atom_site_type_symbol
 _atom_site_label
 _atom_site_symmetry_multiplicity
 _atom_site_fract_x
 _atom_site_fract_y
 _atom_site_fract_z
 _atom_site_occupancy
  Li  Li0  1  0.04681400  0.27664900  0.84271600  1
  Li  Li1  1  0.88063400  0.77016500  0.84271600  1
  Li  Li2  1  0.50425600  0.84564100  0.29677500  1
  Li  Li3  1  0.38711900  0.11046900  0.84271600  1
  Li  Li4  1  0.04461100  0.19896900  0.29677500  1
  Li  Li5  1  0.95928800  0.47964300  0.56106900  1
  Li  Li6  1  0.85758300  0.65861300  0.29677500  1
  Fe  Fe0  1  0.70108500  0.35054200  0.94837200  1
  Fe  Fe1  1  0.29471000  0.14735500  0.55793500  1
  Fe  Fe2  1  0.28949900  0.64474900  0.06575200  1
  Co  Co0  1  0.69575200  0.84787700  0.45637100  1
  P  P0  1  0.20553700  0.74688700  0.74885000  1
  P  P1  1  0.20518100  0.95385800  0.25354700  1
  P  P2  1  0.50426400  0.45865100  0.74885000  1
  P  P3  1  0.49512900  0.54127200  0.25354700  1
  P  P4  1  0.79250000  0.04561300  0.74885000  1
  P  P5  1  0.79259500  0.25132500  0.25354700  1
  O  O0  1  0.18908400  0.68657700  0.92324600  1
  O  O1  1  0.21329000  0.92871900  0.75010900  1
  O  O2  1  0.00072800  0.60284300  0.75735200  1
  O  O3  1  0.57424700  0.88766900  0.92324600  1
  O  O4  1  0.22902400  0.98245000  0.41528300  1
  O  O5  1  0.02962900  0.96394300  0.26842500  1
  O  O6  1  0.39017600  0.50250700  0.92324600  1
  O  O7  1  0.39654800  0.77274100  0.56892200  1
  O  O8  1  0.14597900  0.75524400  0.25148100  1
  O  O9  1  0.32117100  0.28457100  0.75010900  1
  O  O10  1  0.65833700  0.62380700  0.56892200  1
  O  O11  1  0.63980500  0.39788500  0.75735200  1
  O  O12  1  0.35778400  0.60254000  0.25148100  1
  O  O13  1  0.33814100  0.35569200  0.41528300  1
  O  O14  1  0.66588900  0.70194600  0.26842500  1
  O  O15  1  0.84476300  0.24192000  0.75735200  1
  O  O16  1  0.60226700  0.24657500  0.41528300  1
  O  O17  1  0.62498900  0.51788900  0.06510800  1
  O  O18  1  0.96532000  0.03660100  0.75010900  1
  O  O19  1  0.80727100  0.03453000  0.56892200  1
  O  O20  1  0.41700300  0.10709900  0.06510800  1
  O  O21  1  0.99327400  0.39073600  0.25148100  1
  O  O22  1  0.76763200  0.06568600  0.26842500  1
  O  O23  1  0.82779400  0.30990400  0.06510800  1
loop_
_geom_bond_atom_site_label_1
_geom_bond_atom_site_label_2
_geom_bond_distance
_geom_bond_site_symmetry_2
Li0 O9 2.097114 1_555
Li0 O23 2.103036 1_456
Li0 O15 2.156563 1_455
Li0 O18 2.179321 1_455
Li1 O18 2.097119 1_565
Li1 O17 2.103039 1_556
Li1 O2 2.156569 1_655
Li1 O1 2.179328 1_655
Li2 O7 2.035541 1_555
Li2 O22 2.039010 1_565
Li2 O12 2.047570 1_555
Li2 O14 2.275589 1_555
Li3 O1 2.097119 1_545
Li3 O20 2.103040 1_556
Li3 O11 2.156569 1_555
Li3 O9 2.179336 1_555
Li4 O19 2.035542 1_455
Li4 O5 2.039007 1_545
Li4 O21 2.047591 1_455
Li4 O22 2.275597 1_455
Li5 O15 2.130101 1_555
Li5 O2 2.130109 1_655
Li5 O11 2.130115 1_555
Li6 O10 2.035545 1_555
Li6 O14 2.039012 1_555
Li6 O8 2.047575 1_655
Li6 O5 2.275605 1_655
Fe0 O20 1.999507 1_556
Fe0 O17 1.999511 1_556
Fe0 O23 1.999519 1_556
Fe0 O15 2.105438 1_555
Fe0 O11 2.105440 1_555
Fe0 O2 2.105444 1_655
Fe1 O16 1.980767 1_555
Fe1 O4 1.980769 1_545
Fe1 O13 1.980772 1_555
Fe1 O9 2.120549 1_555
Fe1 O18 2.120551 1_455
Fe1 O1 2.120551 1_545
Fe2 O6 1.985783 1_554
Fe2 O3 1.985787 1_554
Fe2 O0 1.985794 1_554
Fe2 O12 2.094917 1_555
Fe2 O21 2.094919 1_455
Fe2 O8 2.094924 1_555
Co0 O7 2.007632 1_555
Co0 O19 2.007638 1_565
Co0 O10 2.007648 1_555
Co0 O22 2.136535 1_565
Co0 O14 2.136545 1_555
Co0 O5 2.136548 1_655
O0 P0 1.534735 1_555
O1 P0 1.575159 1_555
O2 P0 1.570174 1_555
O3 P4 1.534738 1_565
O4 P1 1.542531 1_555
O5 P1 1.539327 1_555
O6 P2 1.534735 1_555
O7 P0 1.528062 1_555
O8 P1 1.565098 1_555
O9 P2 1.575173 1_555
O10 P2 1.528058 1_555
O11 P2 1.570172 1_555
O12 P3 1.565089 1_555
O13 P3 1.542536 1_555
O14 P3 1.539332 1_555
O15 P4 1.570174 1_555
O16 P5 1.542527 1_555
O17 P3 1.559195 1_555
O18 P4 1.575159 1_555
O19 P4 1.528061 1_555
O20 P1 1.559191 1_545
O21 P5 1.565089 1_555
O22 P5 1.539345 1_555
O23 P5 1.559182 1_555
