# generated using pymatgen
data_K3MgPCO7
_symmetry_space_group_name_H-M   'P 1'
_cell_length_a   6.92906100
_cell_length_b   5.65247800
_cell_length_c   9.62412692
_cell_angle_alpha   89.68666181
_cell_angle_beta   90.00000000
_cell_angle_gamma   90.00000000
_symmetry_Int_Tables_number   1
_chemical_formula_structural   K3MgPCO7
_chemical_formula_sum   'K6 Mg2 P2 C2 O14'
_cell_volume   376.93642961
_cell_formula_units_Z   2
loop_
 _symmetry_equiv_pos_site_id
 _symmetry_equiv_pos_as_xyz
  1  'x, y, z'
loop_
 _atom_site_type_symbol
 _atom_site_label
 _atom_site_symmetry_multiplicity
 _atom_site_fract_x
 _atom_site_fract_y
 _atom_site_fract_z
 _atom_site_occupancy
  K  K0  1  0.25000000  0.76071500  0.92620100  1
  K  K1  1  0.01295100  0.25939300  0.71957300  1
  K  K2  1  0.48704900  0.25939300  0.71957300  1
  K  K3  1  0.51295100  0.74060700  0.28042700  1
  K  K4  1  0.98704900  0.74060700  0.28042700  1
  K  K5  1  0.75000000  0.23928500  0.07379900  1
  Mg  Mg0  1  0.75000000  0.77013900  0.64171400  1
  Mg  Mg1  1  0.25000000  0.22986100  0.35828600  1
  P  P0  1  0.25000000  0.72665700  0.57413900  1
  P  P1  1  0.75000000  0.27334300  0.42586100  1
  C  C0  1  0.75000000  0.74269400  0.91103000  1
  C  C1  1  0.25000000  0.25730600  0.08897000  1
  O  O0  1  0.25000000  0.26283100  0.95423000  1
  O  O1  1  0.75000000  0.94336500  0.84287100  1
  O  O2  1  0.75000000  0.54892400  0.83776200  1
  O  O3  1  0.06686700  0.75818700  0.66642100  1
  O  O4  1  0.43313300  0.75818700  0.66642100  1
  O  O5  1  0.25000000  0.47195600  0.51169400  1
  O  O6  1  0.75000000  0.08866500  0.54596300  1
  O  O7  1  0.25000000  0.91133500  0.45403700  1
  O  O8  1  0.75000000  0.52804400  0.48830600  1
  O  O9  1  0.56686700  0.24181300  0.33357900  1
  O  O10  1  0.93313300  0.24181300  0.33357900  1
  O  O11  1  0.25000000  0.45107600  0.16223800  1
  O  O12  1  0.25000000  0.05663500  0.15712900  1
  O  O13  1  0.75000000  0.73716900  0.04577000  1
loop_
_geom_bond_atom_site_label_1
_geom_bond_atom_site_label_2
_geom_bond_distance
_geom_bond_site_symmetry_2
K0 O12 2.788896 1_566
K0 O4 2.803851 1_555
K0 O3 2.803851 1_555
K0 O0 2.825708 1_555
K0 O0 2.852458 1_565
K0 O11 2.860106 1_556
K1 O6 2.657132 1_455
K1 O2 2.704115 1_455
K1 O0 2.792666 1_555
K1 O1 2.809917 1_445
K1 O5 2.849182 1_555
K1 O3 2.886972 1_555
K1 O3 2.905736 1_545
K2 O6 2.657132 1_555
K2 O2 2.704115 1_555
K2 O0 2.792666 1_555
K2 O1 2.809917 1_545
K2 O5 2.849182 1_555
K2 O4 2.886972 1_555
K2 O4 2.905736 1_545
K3 O7 2.657132 1_555
K3 O11 2.704115 1_555
K3 O13 2.792666 1_555
K3 O12 2.809917 1_565
K3 O8 2.849182 1_555
K3 O9 2.886972 1_555
K3 O9 2.905736 1_565
K4 O7 2.657132 1_655
K4 O11 2.704115 1_655
K4 O13 2.792666 1_555
K4 O12 2.809917 1_665
K4 O8 2.849182 1_555
K4 O10 2.886972 1_555
K4 O10 2.905736 1_565
K5 O1 2.788896 1_544
K5 O9 2.803851 1_555
K5 O10 2.803851 1_555
K5 O13 2.825708 1_555
K5 O13 2.852458 1_545
K5 O2 2.860106 1_554
Mg0 O6 2.018096 1_565
Mg0 O8 2.018546 1_555
Mg0 O1 2.174264 1_555
Mg0 O3 2.209423 1_655
Mg0 O4 2.209423 1_555
Mg0 O2 2.257810 1_555
Mg1 O7 2.018096 1_545
Mg1 O5 2.018546 1_555
Mg1 O12 2.174264 1_555
Mg1 O10 2.209423 1_455
Mg1 O9 2.209423 1_555
Mg1 O11 2.257810 1_555
C0 O13 1.296960 1_556
C0 O2 1.305875 1_555
C0 O1 1.307199 1_555
C1 O0 1.296960 1_554
C1 O11 1.305875 1_555
C1 O12 1.307199 1_555
O3 P0 1.559642 1_555
O4 P0 1.559642 1_555
O5 P0 1.563122 1_555
O6 P1 1.553241 1_555
O7 P0 1.553241 1_555
O8 P1 1.563122 1_555
O9 P1 1.559642 1_555
O10 P1 1.559642 1_555
