# generated using pymatgen
data_Li4Ni7O12
_symmetry_space_group_name_H-M   'P 1'
_cell_length_a   4.98630370
_cell_length_b   13.29732256
_cell_length_c   9.68066244
_cell_angle_alpha   99.38997688
_cell_angle_beta   94.63821604
_cell_angle_gamma   79.20411421
_symmetry_Int_Tables_number   1
_chemical_formula_structural   Li4Ni7O12
_chemical_formula_sum   'Li12 Ni21 O36'
_cell_volume   621.22377955
_cell_formula_units_Z   3
loop_
 _symmetry_equiv_pos_site_id
 _symmetry_equiv_pos_as_xyz
  1  'x, y, z'
loop_
 _atom_site_type_symbol
 _atom_site_label
 _atom_site_symmetry_multiplicity
 _atom_site_fract_x
 _atom_site_fract_y
 _atom_site_fract_z
 _atom_site_occupancy
  Li  Li0  1  0.78243700  0.93756700  0.00247700  1
  Li  Li1  1  0.80687200  0.64170200  0.24520400  1
  Li  Li2  1  0.72565800  0.55456700  0.49397900  1
  Li  Li3  1  0.60454600  0.78001700  0.49587900  1
  Li  Li4  1  0.44783900  0.61304900  0.00531500  1
  Li  Li5  1  0.47616400  0.30850700  0.24237900  1
  Li  Li6  1  0.14150400  0.97275500  0.25559600  1
  Li  Li7  1  0.40345000  0.21555800  0.49561500  1
  Li  Li8  1  0.05264500  0.89269200  0.49399400  1
  Li  Li9  1  0.27514700  0.44397300  0.49463900  1
  Li  Li10  1  0.23403800  0.05143600  0.00586700  1
  Li  Li11  1  0.11052800  0.28613600  0.00343200  1
  Ni  Ni0  1  0.99589700  0.50379600  0.00529400  1
  Ni  Ni1  1  0.97229100  0.80565100  0.75141400  1
  Ni  Ni2  1  0.90629500  0.41887100  0.25116700  1
  Ni  Ni3  1  0.69154700  0.86048700  0.24803300  1
  Ni  Ni4  1  0.83025100  0.32984200  0.49595600  1
  Ni  Ni5  1  0.85650100  0.02846500  0.74993000  1
  Ni  Ni6  1  0.75015500  0.25005000  0.75076800  1
  Ni  Ni7  1  0.66670100  0.16974200  0.00389000  1
  Ni  Ni8  1  0.64076600  0.47050000  0.75045500  1
  Ni  Ni9  1  0.52730900  0.69551600  0.74951000  1
  Ni  Ni10  1  0.41393800  0.91652100  0.75118800  1
  Ni  Ni11  1  0.32836100  0.83234300  0.00277000  1
  Ni  Ni12  1  0.58645300  0.08347200  0.24877000  1
  Ni  Ni13  1  0.36216200  0.52650000  0.25154300  1
  Ni  Ni14  1  0.23957100  0.75096100  0.24985200  1
  Ni  Ni15  1  0.48969800  0.00136000  0.49641700  1
  Ni  Ni16  1  0.15681300  0.66810100  0.49680000  1
  Ni  Ni17  1  0.30322900  0.13721800  0.75114700  1
  Ni  Ni18  1  0.19437800  0.36307600  0.75064200  1
  Ni  Ni19  1  0.07830600  0.58402700  0.74997300  1
  Ni  Ni20  1  0.03185400  0.19405600  0.24932600  1
  O  O0  1  0.93132100  0.76998700  0.36252900  1
  O  O1  1  0.78807200  0.98069300  0.35711400  1
  O  O2  1  0.84594600  0.67566100  0.63747900  1
  O  O3  1  0.95043500  0.45131300  0.61751600  1
  O  O4  1  0.71443300  0.90752800  0.63577200  1
  O  O5  1  0.77786100  0.58879000  0.86160000  1
  O  O6  1  0.82226500  0.27887300  0.13224100  1
  O  O7  1  0.48262400  0.94961400  0.13295600  1
  O  O8  1  0.67758800  0.51156500  0.14338000  1
  O  O9  1  0.90197600  0.37768600  0.86891600  1
  O  O10  1  0.98220300  0.15735100  0.85847200  1
  O  O11  1  0.62715000  0.82023000  0.85719200  1
  O  O12  1  0.89330800  0.08240100  0.13772700  1
  O  O13  1  0.54290100  0.74692200  0.14304300  1
  O  O14  1  0.60132000  0.43503700  0.36409300  1
  O  O15  1  0.73333200  0.21124600  0.36590500  1
  O  O16  1  0.39802400  0.87369700  0.36772600  1
  O  O17  1  0.45582700  0.64985900  0.35984300  1
  O  O18  1  0.52411100  0.34275000  0.63749900  1
  O  O19  1  0.59331300  0.12356600  0.63336000  1
  O  O20  1  0.28405300  0.79034900  0.62278500  1
  O  O21  1  0.38617800  0.57787700  0.63846500  1
  O  O22  1  0.44589500  0.25196200  0.86132300  1
  O  O23  1  0.11573000  0.92862300  0.86963000  1
  O  O24  1  0.15399000  0.61458800  0.13573300  1
  O  O25  1  0.34884700  0.17392900  0.13996000  1
  O  O26  1  0.55130900  0.04623000  0.88263000  1
  O  O27  1  0.01048800  0.84473100  0.14247400  1
  O  O28  1  0.23867400  0.70751500  0.86560100  1
  O  O29  1  0.29274600  0.48734200  0.85543300  1
  O  O30  1  0.21111300  0.41539700  0.14366100  1
  O  O31  1  0.28301400  0.10247700  0.35908200  1
  O  O32  1  0.06931700  0.54038200  0.36944200  1
  O  O33  1  0.12108400  0.31677600  0.36224600  1
  O  O34  1  0.20167800  0.01235000  0.64204300  1
  O  O35  1  0.05728000  0.24909500  0.64274700  1
loop_
_geom_bond_atom_site_label_1
_geom_bond_atom_site_label_2
_geom_bond_distance
_geom_bond_site_symmetry_2
Li0 O7 2.001423 1_555
Li0 O27 2.103456 1_655
Li0 O26 2.114004 1_564
Li0 O11 2.138342 1_554
Li0 O23 2.156775 1_654
Li0 O12 2.277720 1_565
Li1 O8 2.034772 1_555
Li1 O24 2.046228 1_655
Li1 O13 2.054087 1_555
Li1 O0 2.057996 1_555
Li1 O17 2.123936 1_555
Li1 O32 2.141938 1_655
Li2 O14 2.020553 1_555
Li2 O3 2.077038 1_555
Li2 O2 2.092733 1_555
Li2 O32 2.136413 1_655
Li2 O17 2.172029 1_555
Li2 O21 2.227732 1_555
Li3 O16 1.992086 1_555
Li3 O20 2.064512 1_555
Li3 O4 2.118468 1_555
Li3 O0 2.131146 1_555
Li3 O17 2.204273 1_555
Li3 O2 2.231953 1_555
Li4 O24 2.005191 1_555
Li4 O28 2.080971 1_554
Li4 O13 2.147260 1_555
Li4 O8 2.163703 1_555
Li4 O5 2.184623 1_554
Li4 O29 2.238046 1_554
Li5 O6 2.043544 1_555
Li5 O30 2.053156 1_555
Li5 O14 2.058195 1_555
Li5 O25 2.081660 1_555
Li5 O15 2.093402 1_555
Li5 O33 2.170508 1_555
Li6 O16 2.039664 1_555
Li6 O27 2.053463 1_555
Li6 O31 2.062704 1_565
Li6 O1 2.063806 1_455
Li6 O7 2.099686 1_555
Li6 O12 2.144265 1_465
Li7 O31 1.982433 1_555
Li7 O19 2.016179 1_555
Li7 O15 2.135627 1_555
Li7 O18 2.144444 1_555
Li7 O33 2.241417 1_555
Li7 O35 2.260318 1_555
Li8 O0 2.053195 1_455
Li8 O20 2.114385 1_555
Li8 O1 2.123795 1_455
Li8 O16 2.144891 1_555
Li8 O34 2.159772 1_565
Li8 O4 2.219928 1_455
Li9 O32 1.994661 1_555
Li9 O3 2.064082 1_455
Li9 O14 2.113628 1_555
Li9 O33 2.171107 1_555
Li9 O21 2.202539 1_555
Li9 O18 2.229175 1_555
Li10 O26 2.041591 1_554
Li10 O25 2.050631 1_555
Li10 O23 2.070422 1_544
Li10 O7 2.133422 1_545
Li10 O12 2.145387 1_455
Li10 O10 2.302134 1_454
Li11 O6 2.002854 1_455
Li11 O9 2.020680 1_454
Li11 O30 2.121368 1_555
Li11 O22 2.186060 1_554
Li11 O10 2.189169 1_454
Li11 O25 2.260629 1_555
Ni0 O24 2.013305 1_655
Ni0 O30 2.033790 1_655
Ni0 O5 2.049990 1_554
Ni0 O9 2.060630 1_554
Ni0 O29 2.113263 1_654
Ni0 O8 2.133873 1_555
Ni1 O20 2.029887 1_655
Ni1 O11 2.035479 1_555
Ni1 O23 2.047005 1_655
Ni1 O28 2.067123 1_655
Ni1 O2 2.067528 1_555
Ni1 O4 2.085948 1_555
Ni2 O8 1.899791 1_555
Ni2 O30 1.899796 1_655
Ni2 O14 1.903557 1_555
Ni2 O33 1.972768 1_655
Ni2 O32 2.078533 1_655
Ni2 O6 2.116933 1_555
Ni3 O7 1.873895 1_555
Ni3 O1 1.885979 1_555
Ni3 O16 1.904498 1_555
Ni3 O13 1.912972 1_555
Ni3 O27 1.919753 1_655
Ni3 O0 1.946302 1_555
Ni4 O15 1.960813 1_555
Ni4 O33 1.986076 1_655
Ni4 O3 1.995313 1_555
Ni4 O35 2.058173 1_655
Ni4 O18 2.097760 1_555
Ni4 O14 2.153614 1_555
Ni5 O4 2.007356 1_545
Ni5 O26 2.025919 1_555
Ni5 O10 2.035310 1_555
Ni5 O34 2.044171 1_655
Ni5 O19 2.049221 1_555
Ni5 O23 2.095958 1_645
Ni6 O10 1.906643 1_555
Ni6 O35 1.919974 1_655
Ni6 O22 1.920165 1_555
Ni6 O18 1.926889 1_555
Ni6 O19 2.111270 1_555
Ni6 O9 2.114160 1_555
Ni7 O6 1.982132 1_555
Ni7 O26 2.005526 1_554
Ni7 O12 2.016652 1_555
Ni7 O22 2.026820 1_554
Ni7 O25 2.128581 1_555
Ni7 O10 2.160830 1_554
Ni8 O5 1.957229 1_555
Ni8 O18 2.020132 1_555
Ni8 O9 2.037843 1_555
Ni8 O29 2.039527 1_555
Ni8 O3 2.042600 1_555
Ni8 O21 2.104533 1_555
Ni9 O28 1.864639 1_555
Ni9 O11 1.935441 1_555
Ni9 O2 1.948941 1_555
Ni9 O21 1.959373 1_555
Ni9 O20 2.063385 1_555
Ni9 O5 2.090780 1_555
Ni10 O11 1.888157 1_555
Ni10 O34 1.900943 1_565
Ni10 O4 1.915144 1_555
Ni10 O23 1.917682 1_555
Ni10 O20 2.091831 1_555
Ni10 O26 2.156077 1_565
Ni11 O13 2.022807 1_555
Ni11 O28 2.044821 1_554
Ni11 O23 2.057510 1_554
Ni11 O7 2.064699 1_555
Ni11 O11 2.099359 1_554
Ni11 O27 2.131814 1_555
Ni12 O31 1.877114 1_555
Ni12 O25 1.907299 1_555
Ni12 O12 1.936422 1_555
Ni12 O1 1.939351 1_545
Ni12 O7 2.072059 1_545
Ni12 O15 2.100517 1_555
Ni13 O24 1.868477 1_555
Ni13 O32 1.889118 1_555
Ni13 O30 1.904411 1_555
Ni13 O17 1.911720 1_555
Ni13 O8 1.921209 1_555
Ni13 O14 1.940962 1_555
Ni14 O13 1.887861 1_555
Ni14 O27 1.907198 1_555
Ni14 O0 1.910943 1_455
Ni14 O17 1.960164 1_555
Ni14 O24 2.061776 1_555
Ni14 O16 2.078350 1_555
Ni15 O16 2.037468 1_545
Ni15 O1 2.039112 1_545
Ni15 O19 2.041047 1_555
Ni15 O34 2.062256 1_555
Ni15 O4 2.100816 1_545
Ni15 O31 2.116643 1_555
Ni16 O32 2.025349 1_555
Ni16 O17 2.029520 1_555
Ni16 O20 2.036365 1_555
Ni16 O21 2.096985 1_555
Ni16 O2 2.122706 1_455
Ni16 O0 2.134688 1_455
Ni17 O19 1.877811 1_555
Ni17 O22 1.929911 1_555
Ni17 O10 1.931622 1_455
Ni17 O34 1.945545 1_555
Ni17 O26 2.073970 1_555
Ni17 O35 2.106217 1_555
Ni18 O9 1.888324 1_455
Ni18 O35 1.900413 1_555
Ni18 O29 1.917369 1_555
Ni18 O18 2.001032 1_555
Ni18 O3 2.054833 1_455
Ni18 O22 2.123451 1_555
Ni19 O29 1.890836 1_555
Ni19 O5 1.902638 1_455
Ni19 O2 1.926946 1_455
Ni19 O21 1.928932 1_555
Ni19 O28 2.082335 1_555
Ni19 O3 2.171630 1_455
Ni20 O6 1.852819 1_455
Ni20 O12 1.894445 1_455
Ni20 O15 1.897799 1_455
Ni20 O33 1.914968 1_555
Ni20 O25 1.926299 1_555
Ni20 O31 1.953443 1_555
