# generated using pymatgen
data_Li2CrP2O7
_symmetry_space_group_name_H-M   'P 1'
_cell_length_a   5.28479978
_cell_length_b   7.16475228
_cell_length_c   8.59133005
_cell_angle_alpha   90.00719286
_cell_angle_beta   89.97900900
_cell_angle_gamma   110.14244847
_symmetry_Int_Tables_number   1
_chemical_formula_structural   Li2CrP2O7
_chemical_formula_sum   'Li4 Cr2 P4 O14'
_cell_volume   305.40869291
_cell_formula_units_Z   2
loop_
 _symmetry_equiv_pos_site_id
 _symmetry_equiv_pos_as_xyz
  1  'x, y, z'
loop_
 _atom_site_type_symbol
 _atom_site_label
 _atom_site_symmetry_multiplicity
 _atom_site_fract_x
 _atom_site_fract_y
 _atom_site_fract_z
 _atom_site_occupancy
  Li  Li0  1  0.24419500  0.90431400  0.82918500  1
  Li  Li1  1  0.75587200  0.09572000  0.32920400  1
  Li  Li2  1  0.42565700  0.63888300  0.65184600  1
  Li  Li3  1  0.57439700  0.36106800  0.15176000  1
  Cr  Cr0  1  0.46305900  0.27107300  0.50977200  1
  Cr  Cr1  1  0.53705500  0.72887400  0.00989200  1
  P  P0  1  0.16682800  0.92651000  0.21466200  1
  P  P1  1  0.83303300  0.07344000  0.71464500  1
  P  P2  1  0.15954400  0.52178400  0.31090500  1
  P  P3  1  0.84054400  0.47827900  0.81098300  1
  O  O0  1  0.88164000  0.92824300  0.19799400  1
  O  O1  1  0.11828900  0.07187100  0.69788300  1
  O  O2  1  0.63765800  0.88722700  0.79734400  1
  O  O3  1  0.36226300  0.11279700  0.29730700  1
  O  O4  1  0.29386200  0.89699300  0.05951100  1
  O  O5  1  0.70612400  0.10299900  0.55948700  1
  O  O6  1  0.16194400  0.74748700  0.33238300  1
  O  O7  1  0.83792400  0.25248500  0.83224300  1
  O  O8  1  0.13013700  0.61568500  0.78998700  1
  O  O9  1  0.86989600  0.38432500  0.29000200  1
  O  O10  1  0.34035800  0.52059200  0.17156800  1
  O  O11  1  0.65982700  0.47930700  0.67152100  1
  O  O12  1  0.28447500  0.48170300  0.46302000  1
  O  O13  1  0.71541600  0.51834600  0.96300500  1
loop_
_geom_bond_atom_site_label_1
_geom_bond_atom_site_label_2
_geom_bond_distance
_geom_bond_site_symmetry_2
Li0 O1 1.925487 1_565
Li0 O8 1.973493 1_555
Li0 O4 1.999303 1_556
Li0 O2 2.142081 1_555
Li1 O0 1.923728 1_545
Li1 O9 1.973360 1_555
Li1 O5 1.998772 1_555
Li1 O3 2.143077 1_555
Li2 O8 1.922285 1_555
Li2 O11 1.960085 1_555
Li2 O12 1.969368 1_555
Li2 O2 2.147396 1_555
Li3 O9 1.923333 1_555
Li3 O10 1.959206 1_555
Li3 O13 1.968802 1_554
Li3 O3 2.147250 1_555
Cr0 O11 2.042153 1_555
Cr0 O12 2.076250 1_555
Cr0 O5 2.085303 1_555
Cr0 O3 2.117976 1_555
Cr0 O1 2.485181 1_555
Cr1 O10 2.041557 1_555
Cr1 O13 2.074791 1_554
Cr1 O4 2.085686 1_555
Cr1 O2 2.118679 1_554
Cr1 O0 2.485628 1_555
O0 P0 1.518303 1_655
O1 P1 1.518221 1_455
O2 P1 1.549796 1_565
O3 P0 1.550229 1_545
O4 P0 1.539238 1_555
O5 P1 1.539530 1_555
O6 P2 1.623282 1_555
O6 P0 1.626735 1_555
O7 P3 1.623373 1_555
O7 P1 1.626004 1_555
O8 P3 1.518604 1_455
O9 P2 1.518956 1_655
O10 P2 1.533292 1_555
O11 P3 1.534100 1_555
O12 P2 1.535446 1_555
O13 P3 1.534774 1_555
