# generated using pymatgen
data_Na3SiH11O9
_symmetry_space_group_name_H-M   'P 1'
_cell_length_a   10.98241700
_cell_length_b   11.89765100
_cell_length_c   13.01359600
_cell_angle_alpha   90.00000000
_cell_angle_beta   90.00000000
_cell_angle_gamma   90.00000000
_symmetry_Int_Tables_number   1
_chemical_formula_structural   Na3SiH11O9
_chemical_formula_sum   'Na24 Si8 H88 O72'
_cell_volume   1700.42106069
_cell_formula_units_Z   8
loop_
 _symmetry_equiv_pos_site_id
 _symmetry_equiv_pos_as_xyz
  1  'x, y, z'
loop_
 _atom_site_type_symbol
 _atom_site_label
 _atom_site_symmetry_multiplicity
 _atom_site_fract_x
 _atom_site_fract_y
 _atom_site_fract_z
 _atom_site_occupancy
  Na  Na0  1  0.63674900  0.82684000  0.13005500  1
  Na  Na1  1  0.86325100  0.32684000  0.86994500  1
  Na  Na2  1  0.13674900  0.17316000  0.36994500  1
  Na  Na3  1  0.36325100  0.67316000  0.63005500  1
  Na  Na4  1  0.36325100  0.17316000  0.86994500  1
  Na  Na5  1  0.13674900  0.67316000  0.13005500  1
  Na  Na6  1  0.86325100  0.82684000  0.63005500  1
  Na  Na7  1  0.63674900  0.32684000  0.36994500  1
  Na  Na8  1  0.60664000  0.68281400  0.91737100  1
  Na  Na9  1  0.89336000  0.18281400  0.08262900  1
  Na  Na10  1  0.10664000  0.31718600  0.58262900  1
  Na  Na11  1  0.39336000  0.81718600  0.41737100  1
  Na  Na12  1  0.39336000  0.31718600  0.08262900  1
  Na  Na13  1  0.10664000  0.81718600  0.91737100  1
  Na  Na14  1  0.89336000  0.68281400  0.41737100  1
  Na  Na15  1  0.60664000  0.18281400  0.58262900  1
  Na  Na16  1  0.37900700  0.84257000  0.81237000  1
  Na  Na17  1  0.12099300  0.34257000  0.18763000  1
  Na  Na18  1  0.87900700  0.15743000  0.68763000  1
  Na  Na19  1  0.62099300  0.65743000  0.31237000  1
  Na  Na20  1  0.62099300  0.15743000  0.18763000  1
  Na  Na21  1  0.87900700  0.65743000  0.81237000  1
  Na  Na22  1  0.12099300  0.84257000  0.31237000  1
  Na  Na23  1  0.37900700  0.34257000  0.68763000  1
  Si  Si0  1  0.62232900  0.97556600  0.87090100  1
  Si  Si1  1  0.87767100  0.47556600  0.12909900  1
  Si  Si2  1  0.12232900  0.02443400  0.62909900  1
  Si  Si3  1  0.37767100  0.52443400  0.37090100  1
  Si  Si4  1  0.37767100  0.02443400  0.12909900  1
  Si  Si5  1  0.12232900  0.52443400  0.87090100  1
  Si  Si6  1  0.87767100  0.97556600  0.37090100  1
  Si  Si7  1  0.62232900  0.47556600  0.62909900  1
  H  H0  1  0.50873300  0.92281400  0.27682700  1
  H  H1  1  0.99126700  0.42281400  0.72317300  1
  H  H2  1  0.00873300  0.07718600  0.22317300  1
  H  H3  1  0.49126700  0.57718600  0.77682700  1
  H  H4  1  0.49126700  0.07718600  0.72317300  1
  H  H5  1  0.00873300  0.57718600  0.27682700  1
  H  H6  1  0.99126700  0.92281400  0.77682700  1
  H  H7  1  0.50873300  0.42281400  0.22317300  1
  H  H8  1  0.63155400  0.90749100  0.34365500  1
  H  H9  1  0.86844600  0.40749100  0.65634500  1
  H  H10  1  0.13155400  0.09250900  0.15634500  1
  H  H11  1  0.36844600  0.59250900  0.84365500  1
  H  H12  1  0.36844600  0.09250900  0.65634500  1
  H  H13  1  0.13155400  0.59250900  0.34365500  1
  H  H14  1  0.86844600  0.90749100  0.84365500  1
  H  H15  1  0.63155400  0.40749100  0.15634500  1
  H  H16  1  0.65668800  0.81114700  0.74335200  1
  H  H17  1  0.84331200  0.31114700  0.25664800  1
  H  H18  1  0.15668800  0.18885300  0.75664800  1
  H  H19  1  0.34331200  0.68885300  0.24335200  1
  H  H20  1  0.34331200  0.18885300  0.25664800  1
  H  H21  1  0.15668800  0.68885300  0.74335200  1
  H  H22  1  0.84331200  0.81114700  0.24335200  1
  H  H23  1  0.65668800  0.31114700  0.75664800  1
  H  H24  1  0.64677200  0.68958400  0.68845800  1
  H  H25  1  0.85322800  0.18958400  0.31154200  1
  H  H26  1  0.14677200  0.31041600  0.81154200  1
  H  H27  1  0.35322800  0.81041600  0.18845800  1
  H  H28  1  0.35322800  0.31041600  0.31154200  1
  H  H29  1  0.14677200  0.81041600  0.68845800  1
  H  H30  1  0.85322800  0.68958400  0.18845800  1
  H  H31  1  0.64677200  0.18958400  0.81154200  1
  H  H32  1  0.69798400  0.82940800  0.46338400  1
  H  H33  1  0.80201600  0.32940800  0.53661600  1
  H  H34  1  0.19798400  0.17059200  0.03661600  1
  H  H35  1  0.30201600  0.67059200  0.96338400  1
  H  H36  1  0.30201600  0.17059200  0.53661600  1
  H  H37  1  0.19798400  0.67059200  0.46338400  1
  H  H38  1  0.80201600  0.82940800  0.96338400  1
  H  H39  1  0.69798400  0.32940800  0.03661600  1
  H  H40  1  0.65004200  0.71627600  0.52645700  1
  H  H41  1  0.84995800  0.21627600  0.47354300  1
  H  H42  1  0.15004200  0.28372400  0.97354300  1
  H  H43  1  0.34995800  0.78372400  0.02645700  1
  H  H44  1  0.34995800  0.28372400  0.47354300  1
  H  H45  1  0.15004200  0.78372400  0.52645700  1
  H  H46  1  0.84995800  0.71627600  0.02645700  1
  H  H47  1  0.65004200  0.21627600  0.97354300  1
  H  H48  1  0.81022300  0.98391600  0.16297200  1
  H  H49  1  0.68977700  0.48391600  0.83702800  1
  H  H50  1  0.31022300  0.01608400  0.33702800  1
  H  H51  1  0.18977700  0.51608400  0.66297200  1
  H  H52  1  0.18977700  0.01608400  0.83702800  1
  H  H53  1  0.31022300  0.51608400  0.16297200  1
  H  H54  1  0.68977700  0.98391600  0.66297200  1
  H  H55  1  0.81022300  0.48391600  0.33702800  1
  H  H56  1  0.76103100  0.99356200  0.04179800  1
  H  H57  1  0.73896900  0.49356200  0.95820200  1
  H  H58  1  0.26103100  0.00643800  0.45820200  1
  H  H59  1  0.23896900  0.50643800  0.54179800  1
  H  H60  1  0.23896900  0.00643800  0.95820200  1
  H  H61  1  0.26103100  0.50643800  0.04179800  1
  H  H62  1  0.73896900  0.99356200  0.54179800  1
  H  H63  1  0.76103100  0.49356200  0.45820200  1
  H  H64  1  0.36369500  0.92827200  0.60284400  1
  H  H65  1  0.13630500  0.42827200  0.39715600  1
  H  H66  1  0.86369500  0.07172800  0.89715600  1
  H  H67  1  0.63630500  0.57172800  0.10284400  1
  H  H68  1  0.63630500  0.07172800  0.39715600  1
  H  H69  1  0.86369500  0.57172800  0.60284400  1
  H  H70  1  0.13630500  0.92827200  0.10284400  1
  H  H71  1  0.36369500  0.42827200  0.89715600  1
  H  H72  1  0.49591400  0.89679400  0.64802500  1
  H  H73  1  0.00408600  0.39679400  0.35197500  1
  H  H74  1  0.99591400  0.10320600  0.85197500  1
  H  H75  1  0.50408600  0.60320600  0.14802500  1
  H  H76  1  0.50408600  0.10320600  0.35197500  1
  H  H77  1  0.99591400  0.60320600  0.64802500  1
  H  H78  1  0.00408600  0.89679400  0.14802500  1
  H  H79  1  0.49591400  0.39679400  0.85197500  1
  H  H80  1  0.49651100  0.89372600  0.00134200  1
  H  H81  1  0.00348900  0.39372600  0.99865800  1
  H  H82  1  0.99651100  0.10627400  0.49865800  1
  H  H83  1  0.50348900  0.60627400  0.50134200  1
  H  H84  1  0.50348900  0.10627400  0.99865800  1
  H  H85  1  0.99651100  0.60627400  0.00134200  1
  H  H86  1  0.00348900  0.89372600  0.50134200  1
  H  H87  1  0.49651100  0.39372600  0.49865800  1
  O  O0  1  0.54280100  0.87537700  0.93400600  1
  O  O1  1  0.95719900  0.37537700  0.06599400  1
  O  O2  1  0.04280100  0.12462300  0.56599400  1
  O  O3  1  0.45719900  0.62462300  0.43400600  1
  O  O4  1  0.45719900  0.12462300  0.06599400  1
  O  O5  1  0.04280100  0.62462300  0.93400600  1
  O  O6  1  0.95719900  0.87537700  0.43400600  1
  O  O7  1  0.54280100  0.37537700  0.56599400  1
  O  O8  1  0.76631200  0.96557000  0.90794600  1
  O  O9  1  0.73368800  0.46557000  0.09205400  1
  O  O10  1  0.26631200  0.03443000  0.59205400  1
  O  O11  1  0.23368800  0.53443000  0.40794600  1
  O  O12  1  0.23368800  0.03443000  0.09205400  1
  O  O13  1  0.26631200  0.53443000  0.90794600  1
  O  O14  1  0.73368800  0.96557000  0.40794600  1
  O  O15  1  0.76631200  0.46557000  0.59205400  1
  O  O16  1  0.56767000  0.10065100  0.89578100  1
  O  O17  1  0.93233000  0.60065100  0.10421900  1
  O  O18  1  0.06767000  0.89934900  0.60421900  1
  O  O19  1  0.43233000  0.39934900  0.39578100  1
  O  O20  1  0.43233000  0.89934900  0.10421900  1
  O  O21  1  0.06767000  0.39934900  0.89578100  1
  O  O22  1  0.93233000  0.10065100  0.39578100  1
  O  O23  1  0.56767000  0.60065100  0.60421900  1
  O  O24  1  0.59897400  0.94108700  0.74952700  1
  O  O25  1  0.90102600  0.44108700  0.25047300  1
  O  O26  1  0.09897400  0.05891300  0.75047300  1
  O  O27  1  0.40102600  0.55891300  0.24952700  1
  O  O28  1  0.40102600  0.05891300  0.25047300  1
  O  O29  1  0.09897400  0.55891300  0.74952700  1
  O  O30  1  0.90102600  0.94108700  0.24952700  1
  O  O31  1  0.59897400  0.44108700  0.75047300  1
  O  O32  1  0.56203100  0.86481300  0.30808600  1
  O  O33  1  0.93796900  0.36481300  0.69191400  1
  O  O34  1  0.06203100  0.13518700  0.19191400  1
  O  O35  1  0.43796900  0.63518700  0.80808600  1
  O  O36  1  0.43796900  0.13518700  0.69191400  1
  O  O37  1  0.06203100  0.63518700  0.30808600  1
  O  O38  1  0.93796900  0.86481300  0.80808600  1
  O  O39  1  0.56203100  0.36481300  0.19191400  1
  O  O40  1  0.69575700  0.73426600  0.73924500  1
  O  O41  1  0.80424300  0.23426600  0.26075500  1
  O  O42  1  0.19575700  0.26573400  0.76075500  1
  O  O43  1  0.30424300  0.76573400  0.23924500  1
  O  O44  1  0.30424300  0.26573400  0.26075500  1
  O  O45  1  0.19575700  0.76573400  0.73924500  1
  O  O46  1  0.80424300  0.73426600  0.23924500  1
  O  O47  1  0.69575700  0.23426600  0.76075500  1
  O  O48  1  0.71668300  0.75220400  0.48712600  1
  O  O49  1  0.78331700  0.25220400  0.51287400  1
  O  O50  1  0.21668300  0.24779600  0.01287400  1
  O  O51  1  0.28331700  0.74779600  0.98712600  1
  O  O52  1  0.28331700  0.24779600  0.51287400  1
  O  O53  1  0.21668300  0.74779600  0.48712600  1
  O  O54  1  0.78331700  0.75220400  0.98712600  1
  O  O55  1  0.71668300  0.25220400  0.01287400  1
  O  O56  1  0.74415100  0.01382800  0.11501600  1
  O  O57  1  0.75584900  0.51382800  0.88498400  1
  O  O58  1  0.24415100  0.98617200  0.38498400  1
  O  O59  1  0.25584900  0.48617200  0.61501600  1
  O  O60  1  0.25584900  0.98617200  0.88498400  1
  O  O61  1  0.24415100  0.48617200  0.11501600  1
  O  O62  1  0.75584900  0.01382800  0.61501600  1
  O  O63  1  0.74415100  0.51382800  0.38498400  1
  O  O64  1  0.42624000  0.86563100  0.60834100  1
  O  O65  1  0.07376000  0.36563100  0.39165900  1
  O  O66  1  0.92624000  0.13436900  0.89165900  1
  O  O67  1  0.57376000  0.63436900  0.10834100  1
  O  O68  1  0.57376000  0.13436900  0.39165900  1
  O  O69  1  0.92624000  0.63436900  0.60834100  1
  O  O70  1  0.07376000  0.86563100  0.10834100  1
  O  O71  1  0.42624000  0.36563100  0.89165900  1
loop_
_geom_bond_atom_site_label_1
_geom_bond_atom_site_label_2
_geom_bond_distance
_geom_bond_site_symmetry_2
Na0 O67 2.408793 1_555
Na0 O20 2.428449 1_555
Na0 O32 2.499028 1_555
Na0 O56 2.525663 1_565
Na0 O46 2.572147 1_555
Na0 O54 2.615195 1_554
Na1 O66 2.408793 1_555
Na1 O21 2.428449 1_655
Na1 O33 2.499028 1_555
Na1 O57 2.525663 1_555
Na1 O47 2.572147 1_555
Na1 O55 2.615195 1_556
Na2 O65 2.408793 1_555
Na2 O22 2.428449 1_455
Na2 O34 2.499028 1_555
Na2 O58 2.525663 1_545
Na2 O44 2.572147 1_555
Na2 O52 2.615195 1_555
Na3 O64 2.408793 1_555
Na3 O23 2.428449 1_555
Na3 O35 2.499028 1_555
Na3 O59 2.525663 1_555
Na3 O45 2.572147 1_555
Na3 O53 2.615195 1_555
Na4 O71 2.408793 1_555
Na4 O16 2.428449 1_555
Na4 O36 2.499028 1_555
Na4 O60 2.525663 1_545
Na4 O42 2.572147 1_555
Na4 O50 2.615195 1_556
Na5 O70 2.408793 1_555
Na5 O17 2.428449 1_455
Na5 O37 2.499028 1_555
Na5 O61 2.525663 1_555
Na5 O43 2.572147 1_555
Na5 O51 2.615195 1_554
Na6 O69 2.408793 1_555
Na6 O18 2.428449 1_655
Na6 O38 2.499028 1_555
Na6 O62 2.525663 1_565
Na6 O40 2.572147 1_555
Na6 O48 2.615195 1_555
Na7 O68 2.408793 1_555
Na7 O19 2.428449 1_555
Na7 O39 2.499028 1_555
Na7 O63 2.525663 1_555
Na7 O41 2.572147 1_555
Na7 O49 2.615195 1_555
Na8 O54 2.295764 1_555
Na8 O35 2.403156 1_555
Na8 O0 2.405683 1_555
Na8 O67 2.576599 1_556
Na8 O40 2.589601 1_555
Na9 O55 2.295764 1_555
Na9 O34 2.403156 1_655
Na9 O1 2.405683 1_555
Na9 O66 2.576599 1_554
Na9 O41 2.589601 1_555
Na10 O52 2.295764 1_555
Na10 O33 2.403156 1_455
Na10 O2 2.405683 1_555
Na10 O65 2.576599 1_555
Na10 O42 2.589601 1_555
Na11 O53 2.295764 1_555
Na11 O32 2.403156 1_555
Na11 O3 2.405683 1_555
Na11 O64 2.576599 1_555
Na11 O43 2.589601 1_555
Na12 O50 2.295764 1_555
Na12 O39 2.403156 1_555
Na12 O4 2.405683 1_555
Na12 O71 2.576599 1_554
Na12 O44 2.589601 1_555
Na13 O51 2.295764 1_555
Na13 O38 2.403156 1_455
Na13 O5 2.405683 1_555
Na13 O70 2.576599 1_556
Na13 O45 2.589601 1_555
Na14 O48 2.295764 1_555
Na14 O37 2.403156 1_655
Na14 O6 2.405683 1_555
Na14 O69 2.576599 1_555
Na14 O46 2.589601 1_555
Na15 O49 2.295764 1_555
Na15 O36 2.403156 1_555
Na15 O7 2.405683 1_555
Na15 O68 2.576599 1_555
Na15 O47 2.589601 1_555
Na16 O60 2.375180 1_555
Na16 O45 2.406564 1_555
Na16 O0 2.427730 1_555
Na16 O35 2.551537 1_555
Na17 O61 2.375180 1_555
Na17 O44 2.406564 1_555
Na17 O1 2.427730 1_455
Na17 O34 2.551537 1_555
Na18 O62 2.375180 1_555
Na18 O47 2.406564 1_555
Na18 O2 2.427730 1_655
Na18 O33 2.551537 1_555
Na19 O63 2.375180 1_555
Na19 O46 2.406564 1_555
Na19 O3 2.427730 1_555
Na19 O32 2.551537 1_555
Na20 O56 2.375180 1_555
Na20 O41 2.406564 1_555
Na20 O4 2.427730 1_555
Na20 O39 2.551537 1_555
Na21 O57 2.375180 1_555
Na21 O40 2.406564 1_555
Na21 O5 2.427730 1_655
Na21 O38 2.551537 1_555
Na22 O58 2.375180 1_555
Na22 O43 2.406564 1_555
Na22 O6 2.427730 1_455
Na22 O37 2.551537 1_555
Na23 O59 2.375180 1_555
Na23 O42 2.406564 1_555
Na23 O7 2.427730 1_555
Na23 O36 2.551537 1_555
H0 O32 0.992123 1_555
H1 O33 0.992123 1_555
H2 O34 0.992123 1_555
H3 O35 0.992123 1_555
H4 O36 0.992123 1_555
H5 O37 0.992123 1_555
H6 O38 0.992123 1_555
H7 O39 0.992123 1_555
H8 O32 1.027164 1_555
H8 O14 1.560655 1_555
H9 O33 1.027164 1_555
H9 O15 1.560655 1_555
H10 O34 1.027164 1_555
H10 O12 1.560655 1_555
H11 O35 1.027164 1_555
H11 O13 1.560655 1_555
H12 O36 1.027164 1_555
H12 O10 1.560655 1_555
H13 O37 1.027164 1_555
H13 O11 1.560655 1_555
H14 O38 1.027164 1_555
H14 O8 1.560655 1_555
H15 O39 1.027164 1_555
H15 O9 1.560655 1_555
H16 O40 1.011752 1_555
H16 O24 1.672802 1_555
H17 O41 1.011752 1_555
H17 O25 1.672802 1_555
H18 O42 1.011752 1_555
H18 O26 1.672802 1_555
H19 O43 1.011752 1_555
H19 O27 1.672802 1_555
H20 O44 1.011752 1_555
H20 O28 1.672802 1_555
H21 O45 1.011752 1_555
H21 O29 1.672802 1_555
H22 O46 1.011752 1_555
H22 O30 1.672802 1_555
H23 O47 1.011752 1_555
H23 O31 1.672802 1_555
H24 O40 1.004412 1_555
H25 O41 1.004412 1_555
H26 O42 1.004412 1_555
H27 O43 1.004412 1_555
H28 O44 1.004412 1_555
H29 O45 1.004412 1_555
H30 O46 1.004412 1_555
H31 O47 1.004412 1_555
H32 O48 0.990637 1_555
H33 O49 0.990637 1_555
H34 O50 0.990637 1_555
H35 O51 0.990637 1_555
H36 O52 0.990637 1_555
H37 O53 0.990637 1_555
H38 O54 0.990637 1_555
H39 O55 0.990637 1_555
H40 O48 0.990124 1_555
H41 O49 0.990124 1_555
H42 O50 0.990124 1_556
H43 O51 0.990124 1_554
H44 O52 0.990124 1_555
H45 O53 0.990124 1_555
H46 O54 0.990124 1_554
H47 O55 0.990124 1_556
H48 O56 1.021111 1_565
H48 O30 1.588362 1_555
H49 O57 1.021111 1_555
H49 O31 1.588362 1_555
H50 O58 1.021111 1_545
H50 O28 1.588362 1_555
H51 O59 1.021111 1_555
H51 O29 1.588362 1_555
H52 O60 1.021111 1_545
H52 O26 1.588362 1_555
H53 O61 1.021111 1_555
H53 O27 1.588362 1_555
H54 O62 1.021111 1_565
H54 O24 1.588362 1_555
H55 O63 1.021111 1_555
H55 O25 1.588362 1_555
H56 O56 1.000194 1_565
H57 O57 1.000194 1_555
H58 O58 1.000194 1_545
H59 O59 1.000194 1_555
H60 O60 1.000194 1_545
H61 O61 1.000194 1_555
H62 O62 1.000194 1_565
H63 O63 1.000194 1_555
H64 O64 1.016064 1_555
H64 O10 1.660962 1_565
H65 O65 1.016064 1_555
H65 O11 1.660962 1_555
H66 O66 1.016064 1_555
H66 O8 1.660962 1_545
H67 O67 1.016064 1_555
H67 O9 1.660962 1_555
H68 O68 1.016064 1_555
H68 O14 1.660962 1_545
H69 O69 1.016064 1_555
H69 O15 1.660962 1_555
H70 O70 1.016064 1_555
H70 O12 1.660962 1_565
H71 O71 1.016064 1_555
H71 O13 1.660962 1_555
H72 O64 0.994828 1_555
H73 O65 0.994828 1_555
H74 O66 0.994828 1_555
H75 O67 0.994828 1_555
H76 O68 0.994828 1_555
H77 O69 0.994828 1_555
H78 O70 0.994828 1_555
H79 O71 0.994828 1_555
H80 O0 1.036329 1_554
H80 O20 1.514494 1_555
H80 Na0 2.410608 1_555
H81 O1 1.036329 1_456
H81 O21 1.514494 1_555
H81 Na1 2.410608 1_455
H82 O2 1.036329 1_655
H82 O22 1.514494 1_555
H82 Na2 2.410608 1_655
H83 O3 1.036329 1_555
H83 O23 1.514494 1_555
H83 Na3 2.410608 1_555
H84 O4 1.036329 1_556
H84 O16 1.514494 1_555
H84 Na4 2.410608 1_555
H85 O5 1.036329 1_654
H85 O17 1.514494 1_555
H85 Na5 2.410608 1_655
H86 O6 1.036329 1_455
H86 O18 1.514494 1_555
H86 Na6 2.410608 1_455
H87 O7 1.036329 1_555
H87 O19 1.514494 1_555
H87 Na7 2.410608 1_555
O0 Si0 1.690606 1_555
O1 Si1 1.690606 1_555
O2 Si2 1.690606 1_555
O3 Si3 1.690606 1_555
O4 Si4 1.690606 1_555
O5 Si5 1.690606 1_555
O6 Si6 1.690606 1_555
O7 Si7 1.690606 1_555
O8 Si0 1.657409 1_555
O9 Si1 1.657409 1_555
O10 Si2 1.657409 1_555
O11 Si3 1.657409 1_555
O12 Si4 1.657409 1_555
O13 Si5 1.657409 1_555
O14 Si6 1.657409 1_555
O15 Si7 1.657409 1_555
O16 Si0 1.637061 1_545
O17 Si1 1.637061 1_555
O18 Si2 1.637061 1_565
O19 Si3 1.637061 1_555
O20 Si4 1.637061 1_565
O21 Si5 1.637061 1_555
O22 Si6 1.637061 1_545
O23 Si7 1.637061 1_555
O24 Si0 1.651947 1_555
O25 Si1 1.651947 1_555
O26 Si2 1.651947 1_555
O27 Si3 1.651947 1_555
O28 Si4 1.651947 1_555
O29 Si5 1.651947 1_555
O30 Si6 1.651947 1_555
O31 Si7 1.651947 1_555
