# generated using pymatgen
data_VOF
_symmetry_space_group_name_H-M   'P 1'
_cell_length_a   3.10174700
_cell_length_b   4.75047000
_cell_length_c   18.96570098
_cell_angle_alpha   87.43128086
_cell_angle_beta   90.00000000
_cell_angle_gamma   90.00000000
_symmetry_Int_Tables_number   1
_chemical_formula_structural   VOF
_chemical_formula_sum   'V8 O8 F8'
_cell_volume   279.17417771
_cell_formula_units_Z   8
loop_
 _symmetry_equiv_pos_site_id
 _symmetry_equiv_pos_as_xyz
  1  'x, y, z'
loop_
 _atom_site_type_symbol
 _atom_site_label
 _atom_site_symmetry_multiplicity
 _atom_site_fract_x
 _atom_site_fract_y
 _atom_site_fract_z
 _atom_site_occupancy
  V  V0  1  0.00000000  0.96824800  0.24995700  1
  V  V1  1  0.00000000  0.00000000  0.00000000  1
  V  V2  1  0.00000000  0.00000000  0.50000000  1
  V  V3  1  0.00000000  0.03175200  0.75004300  1
  V  V4  1  0.50000000  0.42725500  0.12486600  1
  V  V5  1  0.50000000  0.57274500  0.87513400  1
  V  V6  1  0.50000000  0.48579200  0.37510200  1
  V  V7  1  0.50000000  0.51420800  0.62489800  1
  O  O0  1  0.50000000  0.81417000  0.95193000  1
  O  O1  1  0.00000000  0.73824500  0.82419200  1
  O  O2  1  0.00000000  0.70739100  0.57469300  1
  O  O3  1  0.00000000  0.67976600  0.32514000  1
  O  O4  1  0.00000000  0.26175500  0.17580800  1
  O  O5  1  0.00000000  0.29260900  0.42530700  1
  O  O6  1  0.00000000  0.32023400  0.67486000  1
  O  O7  1  0.50000000  0.18583000  0.04807000  1
  F  F0  1  0.50000000  0.76959400  0.19963700  1
  F  F1  1  0.50000000  0.80057400  0.45103100  1
  F  F2  1  0.50000000  0.82796800  0.70137700  1
  F  F3  1  0.00000000  0.67892800  0.07926000  1
  F  F4  1  0.00000000  0.32107200  0.92074000  1
  F  F5  1  0.50000000  0.17203200  0.29862300  1
  F  F6  1  0.50000000  0.19942600  0.54896900  1
  F  F7  1  0.50000000  0.23040600  0.80036300  1
loop_
_geom_bond_atom_site_label_1
_geom_bond_atom_site_label_2
_geom_bond_distance
_geom_bond_site_symmetry_2
O0 V5 1.893787 1_555
O0 V1 2.021834 1_666
O0 V1 2.021834 1_566
O1 V3 1.935446 1_565
O1 V5 1.971975 1_555
O1 V5 1.971975 1_455
O2 V2 1.939704 1_565
O2 V7 2.018839 1_555
O2 V7 2.018839 1_455
O3 V0 1.932898 1_555
O3 V6 2.018397 1_455
O3 V6 2.018397 1_555
O4 V0 1.935446 1_545
O4 V4 1.971975 1_455
O4 V4 1.971975 1_555
O5 V2 1.939704 1_555
O5 V6 2.018839 1_555
O5 V6 2.018839 1_455
O6 V3 1.932898 1_555
O6 V7 2.018397 1_555
O6 V7 2.018397 1_455
O7 V4 1.893787 1_555
O7 V1 2.021834 1_555
O7 V1 2.021834 1_655
F0 V0 2.070579 1_655
F0 V0 2.070579 1_555
F0 V4 2.205093 1_555
F1 V2 2.060126 1_665
F1 V2 2.060126 1_565
F1 V6 2.121995 1_555
F2 V3 2.067452 1_665
F2 V3 2.067452 1_565
F2 V7 2.125861 1_555
F3 V1 2.092971 1_565
F3 V4 2.118969 1_555
F3 V4 2.118969 1_455
F4 V1 2.092971 1_556
F4 V5 2.118969 1_555
F4 V5 2.118969 1_455
F5 V0 2.067452 1_545
F5 V0 2.067452 1_645
F5 V6 2.125861 1_555
F6 V2 2.060126 1_555
F6 V2 2.060126 1_655
F6 V7 2.121995 1_555
F7 V3 2.070579 1_655
F7 V3 2.070579 1_555
F7 V5 2.205093 1_555
