# generated using pymatgen
data_Fe4OF7
_symmetry_space_group_name_H-M   'P 1'
_cell_length_a   4.85683355
_cell_length_b   4.85683355
_cell_length_c   12.71144000
_cell_angle_alpha   90.00000000
_cell_angle_beta   90.00000000
_cell_angle_gamma   90.53860868
_symmetry_Int_Tables_number   1
_chemical_formula_structural   Fe4OF7
_chemical_formula_sum   'Fe8 O2 F14'
_cell_volume   299.83477530
_cell_formula_units_Z   2
loop_
 _symmetry_equiv_pos_site_id
 _symmetry_equiv_pos_as_xyz
  1  'x, y, z'
loop_
 _atom_site_type_symbol
 _atom_site_label
 _atom_site_symmetry_multiplicity
 _atom_site_fract_x
 _atom_site_fract_y
 _atom_site_fract_z
 _atom_site_occupancy
  Fe  Fe0  1  0.97986100  0.97986100  0.75000000  1
  Fe  Fe1  1  0.00000000  0.00000000  0.00000000  1
  Fe  Fe2  1  0.02013900  0.02013900  0.25000000  1
  Fe  Fe3  1  0.00000000  0.00000000  0.50000000  1
  Fe  Fe4  1  0.50858900  0.50858900  0.86522500  1
  Fe  Fe5  1  0.49141100  0.49141100  0.36522500  1
  Fe  Fe6  1  0.50858900  0.50858900  0.63477500  1
  Fe  Fe7  1  0.49141100  0.49141100  0.13477500  1
  O  O0  1  0.30565800  0.30565800  0.25000000  1
  O  O1  1  0.69434200  0.69434200  0.75000000  1
  F  F0  1  0.79240000  0.20555600  0.87775700  1
  F  F1  1  0.79444400  0.20760000  0.12224300  1
  F  F2  1  0.79444400  0.20760000  0.37775700  1
  F  F3  1  0.79240000  0.20555600  0.62224300  1
  F  F4  1  0.28469300  0.28469300  0.75000000  1
  F  F5  1  0.30716600  0.30716600  0.99825800  1
  F  F6  1  0.30716600  0.30716600  0.50174200  1
  F  F7  1  0.69283400  0.69283400  0.00174200  1
  F  F8  1  0.71530700  0.71530700  0.25000000  1
  F  F9  1  0.69283400  0.69283400  0.49825800  1
  F  F10  1  0.20555600  0.79240000  0.87775700  1
  F  F11  1  0.20760000  0.79444400  0.12224300  1
  F  F12  1  0.20760000  0.79444400  0.37775700  1
  F  F13  1  0.20555600  0.79240000  0.62224300  1
loop_
_geom_bond_atom_site_label_1
_geom_bond_atom_site_label_2
_geom_bond_distance
_geom_bond_site_symmetry_2
Fe0 O1 1.951876 1_555
Fe2 O0 1.951876 1_555
Fe4 O1 1.938504 1_555
Fe5 O0 1.938504 1_555
Fe6 O1 1.938504 1_555
Fe7 O0 1.938504 1_555
F0 Fe4 2.032168 1_555
F0 Fe1 2.108747 1_656
F0 Fe0 2.164852 1_545
F1 Fe7 2.032168 1_555
F1 Fe1 2.108747 1_655
F1 Fe2 2.164852 1_655
F2 Fe5 2.032168 1_555
F2 Fe3 2.108747 1_655
F2 Fe2 2.164852 1_655
F3 Fe6 2.032168 1_555
F3 Fe3 2.108747 1_655
F3 Fe0 2.164852 1_545
F4 Fe0 2.083905 1_445
F4 Fe4 2.118498 1_555
F4 Fe6 2.118498 1_555
F5 Fe1 2.099977 1_556
F5 Fe7 2.144251 1_556
F5 Fe4 2.180753 1_555
F6 Fe3 2.099977 1_555
F6 Fe5 2.144251 1_555
F6 Fe6 2.180753 1_555
F7 Fe1 2.099977 1_665
F7 Fe4 2.144251 1_554
F7 Fe7 2.180753 1_555
F8 Fe2 2.083905 1_665
F8 Fe5 2.118498 1_555
F8 Fe7 2.118498 1_555
F9 Fe3 2.099977 1_665
F9 Fe6 2.144251 1_555
F9 Fe5 2.180753 1_555
F10 Fe4 2.032168 1_555
F10 Fe1 2.108747 1_566
F10 Fe0 2.164852 1_455
F11 Fe7 2.032168 1_555
F11 Fe1 2.108747 1_565
F11 Fe2 2.164852 1_565
F12 Fe5 2.032168 1_555
F12 Fe3 2.108747 1_565
F12 Fe2 2.164852 1_565
F13 Fe6 2.032168 1_555
F13 Fe3 2.108747 1_565
F13 Fe0 2.164852 1_455
