# generated using pymatgen
data_La2H22S6N6O23
_symmetry_space_group_name_H-M   'P 1'
_cell_length_a   11.37983737
_cell_length_b   11.37983737
_cell_length_c   14.27475151
_cell_angle_alpha   66.85885379
_cell_angle_beta   66.85885379
_cell_angle_gamma   48.89349317
_symmetry_Int_Tables_number   1
_chemical_formula_structural   La2H22S6N6O23
_chemical_formula_sum   'La4 H44 S12 N12 O46'
_cell_volume   1256.41178192
_cell_formula_units_Z   2
loop_
 _symmetry_equiv_pos_site_id
 _symmetry_equiv_pos_as_xyz
  1  'x, y, z'
loop_
 _atom_site_type_symbol
 _atom_site_label
 _atom_site_symmetry_multiplicity
 _atom_site_fract_x
 _atom_site_fract_y
 _atom_site_fract_z
 _atom_site_occupancy
  La  La0  1  0.80490900  0.74028700  0.39100700  1
  La  La1  1  0.74028700  0.80490900  0.89100700  1
  La  La2  1  0.25971300  0.19509100  0.10899300  1
  La  La3  1  0.19509100  0.25971300  0.60899300  1
  H  H0  1  0.52400000  0.35380700  0.40416400  1
  H  H1  1  0.10343500  0.02828500  0.26389500  1
  H  H2  1  0.47822200  0.69446700  0.23721000  1
  H  H3  1  0.55254000  0.23451300  0.34386300  1
  H  H4  1  0.83724700  0.10632700  0.30663400  1
  H  H5  1  0.89367300  0.16275300  0.19336600  1
  H  H6  1  0.76548700  0.44746000  0.15613700  1
  H  H7  1  0.02526300  0.15756800  0.47516000  1
  H  H8  1  0.30553300  0.52177800  0.26279000  1
  H  H9  1  0.97171500  0.89656500  0.23610500  1
  H  H10  1  0.84765200  0.20723200  0.47837800  1
  H  H11  1  0.52904400  0.06364400  0.28501900  1
  H  H12  1  0.64619300  0.47600000  0.09583600  1
  H  H13  1  0.67905200  0.04476900  0.20490000  1
  H  H14  1  0.03687400  0.76240300  0.17691000  1
  H  H15  1  0.32865400  0.46288800  0.16115700  1
  H  H16  1  0.53711200  0.67134600  0.33884300  1
  H  H17  1  0.23759700  0.96312600  0.32309000  1
  H  H18  1  0.95523100  0.32094800  0.29510000  1
  H  H19  1  0.15756800  0.02526300  0.97516000  1
  H  H20  1  0.93635600  0.47095600  0.21498100  1
  H  H21  1  0.79276800  0.15234800  0.02162200  1
  H  H22  1  0.20723200  0.84765200  0.97837800  1
  H  H23  1  0.06364400  0.52904400  0.78501900  1
  H  H24  1  0.84243200  0.97473700  0.02484000  1
  H  H25  1  0.04476900  0.67905200  0.70490000  1
  H  H26  1  0.76240300  0.03687400  0.67691000  1
  H  H27  1  0.46288800  0.32865400  0.66115700  1
  H  H28  1  0.67134600  0.53711200  0.83884300  1
  H  H29  1  0.96312600  0.23759700  0.82309000  1
  H  H30  1  0.32094800  0.95523100  0.79510000  1
  H  H31  1  0.35380700  0.52400000  0.90416400  1
  H  H32  1  0.47095600  0.93635600  0.71498100  1
  H  H33  1  0.15234800  0.79276800  0.52162200  1
  H  H34  1  0.02828500  0.10343500  0.76389500  1
  H  H35  1  0.69446700  0.47822200  0.73721000  1
  H  H36  1  0.97473700  0.84243200  0.52484000  1
  H  H37  1  0.23451300  0.55254000  0.84386300  1
  H  H38  1  0.10632700  0.83724700  0.80663400  1
  H  H39  1  0.16275300  0.89367300  0.69336600  1
  H  H40  1  0.44746000  0.76548700  0.65613700  1
  H  H41  1  0.52177800  0.30553300  0.76279000  1
  H  H42  1  0.89656500  0.97171500  0.73610500  1
  H  H43  1  0.47600000  0.64619300  0.59583600  1
  S  S0  1  0.63953000  0.10433400  0.49391000  1
  S  S1  1  0.17442400  0.60997300  0.47725500  1
  S  S2  1  0.22618500  0.36740500  0.31063900  1
  S  S3  1  0.39002700  0.82557600  0.02274500  1
  S  S4  1  0.89566600  0.36047000  0.00609000  1
  S  S5  1  0.63259500  0.77381500  0.18936100  1
  S  S6  1  0.36740500  0.22618500  0.81063900  1
  S  S7  1  0.10433400  0.63953000  0.99391000  1
  S  S8  1  0.60997300  0.17442400  0.97725500  1
  S  S9  1  0.77381500  0.63259500  0.68936100  1
  S  S10  1  0.82557600  0.39002700  0.52274500  1
  S  S11  1  0.36047000  0.89566600  0.50609000  1
  N  N0  1  0.56967900  0.66420500  0.26233200  1
  N  N1  1  0.60171700  0.24262700  0.38608900  1
  N  N2  1  0.91494100  0.24791200  0.45653800  1
  N  N3  1  0.75737300  0.39828300  0.11391100  1
  N  N4  1  0.33579500  0.43032100  0.23766800  1
  N  N5  1  0.24791200  0.91494100  0.95653800  1
  N  N6  1  0.75208800  0.08505900  0.04346200  1
  N  N7  1  0.66420500  0.56967900  0.76233200  1
  N  N8  1  0.24262700  0.60171700  0.88608900  1
  N  N9  1  0.08505900  0.75208800  0.54346200  1
  N  N10  1  0.39828300  0.75737300  0.61391100  1
  N  N11  1  0.43032100  0.33579500  0.73766800  1
  O  O0  1  0.76309200  0.95392300  0.45548600  1
  O  O1  1  0.04161100  0.63145100  0.45965100  1
  O  O2  1  0.28026700  0.62698400  0.38336400  1
  O  O3  1  0.19175100  0.02920100  0.26008000  1
  O  O4  1  0.26907000  0.30467000  0.41261400  1
  O  O5  1  0.93151200  0.06848800  0.25000000  1
  O  O6  1  0.50299000  0.88736400  0.44312100  1
  O  O7  1  0.73755300  0.54242100  0.45051300  1
  O  O8  1  0.30014200  0.86343600  0.45242400  1
  O  O9  1  0.05495800  0.49508800  0.31357800  1
  O  O10  1  0.63607700  0.02822600  0.28024400  1
  O  O11  1  0.97079900  0.80824900  0.23992000  1
  O  O12  1  0.37301600  0.71973300  0.11663600  1
  O  O13  1  0.36854900  0.95838900  0.04034900  1
  O  O14  1  0.04607700  0.23690800  0.04451400  1
  O  O15  1  0.28150000  0.24139000  0.26263400  1
  O  O16  1  0.30467000  0.26907000  0.91261400  1
  O  O17  1  0.75861000  0.71850000  0.23736600  1
  O  O18  1  0.88736400  0.50299000  0.94312100  1
  O  O19  1  0.54242100  0.73755300  0.95051300  1
  O  O20  1  0.97177400  0.36392300  0.21975600  1
  O  O21  1  0.50491200  0.94504200  0.18642200  1
  O  O22  1  0.86343600  0.30014200  0.95242400  1
  O  O23  1  0.13656400  0.69985800  0.04757600  1
  O  O24  1  0.49508800  0.05495800  0.81357800  1
  O  O25  1  0.02822600  0.63607700  0.78024400  1
  O  O26  1  0.45757900  0.26244700  0.04948700  1
  O  O27  1  0.11263600  0.49701000  0.05687900  1
  O  O28  1  0.24139000  0.28150000  0.76263400  1
  O  O29  1  0.69533000  0.73093000  0.08738600  1
  O  O30  1  0.71850000  0.75861000  0.73736600  1
  O  O31  1  0.95392300  0.76309200  0.95548600  1
  O  O32  1  0.63145100  0.04161100  0.95965100  1
  O  O33  1  0.62698400  0.28026700  0.88336400  1
  O  O34  1  0.02920100  0.19175100  0.76008000  1
  O  O35  1  0.36392300  0.97177400  0.71975600  1
  O  O36  1  0.94504200  0.50491200  0.68642200  1
  O  O37  1  0.69985800  0.13656400  0.54757600  1
  O  O38  1  0.26244700  0.45757900  0.54948700  1
  O  O39  1  0.49701000  0.11263600  0.55687900  1
  O  O40  1  0.06848800  0.93151200  0.75000000  1
  O  O41  1  0.73093000  0.69533000  0.58738600  1
  O  O42  1  0.80824900  0.97079900  0.73992000  1
  O  O43  1  0.71973300  0.37301600  0.61663600  1
  O  O44  1  0.95838900  0.36854900  0.54034900  1
  O  O45  1  0.23690800  0.04607700  0.54451400  1
loop_
_geom_bond_atom_site_label_1
_geom_bond_atom_site_label_2
_geom_bond_distance
_geom_bond_site_symmetry_2
La0 O11 2.494398 1_555
La0 O41 2.532375 1_555
La0 O1 2.546305 1_655
La0 O6 2.562728 1_555
La0 O9 2.572199 1_655
La0 O7 2.575556 1_555
La0 O17 2.580028 1_555
La0 O0 2.622475 1_555
La0 O10 2.639227 1_565
La1 O42 2.494398 1_555
La1 O29 2.532375 1_556
La1 O32 2.546305 1_565
La1 O18 2.562728 1_555
La1 O24 2.572199 1_565
La1 O19 2.575556 1_555
La1 O30 2.580028 1_555
La1 O31 2.622475 1_555
La1 O25 2.639227 1_655
La2 O3 2.494398 1_555
La2 O16 2.532375 1_554
La2 O13 2.546305 1_545
La2 O27 2.562728 1_555
La2 O21 2.572199 1_545
La2 O26 2.575556 1_555
La2 O15 2.580028 1_555
La2 O14 2.622475 1_555
La2 O20 2.639227 1_455
La3 O34 2.494398 1_555
La3 O4 2.532375 1_555
La3 O44 2.546305 1_455
La3 O39 2.562728 1_555
La3 O36 2.572199 1_455
La3 O38 2.575556 1_555
La3 O28 2.580028 1_555
La3 O45 2.622475 1_555
La3 O35 2.639227 1_545
H0 N1 1.027320 1_555
H1 O3 0.991692 1_555
H2 N0 1.027322 1_555
H3 N1 1.030467 1_555
H4 O5 0.987074 1_555
H5 O5 0.987074 1_555
H6 N3 1.030467 1_555
H7 N2 1.026692 1_455
H8 N4 1.027322 1_555
H9 O11 0.991692 1_555
H10 N2 1.030970 1_555
H11 O10 0.980549 1_555
H12 N3 1.027320 1_555
H13 O10 0.989871 1_555
H14 O11 0.983877 1_455
H15 N4 1.024116 1_555
H16 N0 1.024116 1_555
H17 O3 0.983877 1_565
H18 O20 0.989871 1_555
H19 N5 1.026692 1_545
H20 O20 0.980549 1_555
H21 N6 1.030970 1_555
H22 N5 1.030970 1_555
H23 O25 0.980549 1_555
H24 N6 1.026692 1_565
H25 O25 0.989871 1_555
H26 O42 0.983877 1_545
H27 N11 1.024116 1_555
H28 N7 1.024116 1_555
H29 O34 0.983877 1_655
H30 O35 0.989871 1_555
H31 N8 1.027320 1_555
H32 O35 0.980549 1_555
H33 N9 1.030970 1_555
H34 O34 0.991692 1_555
H35 N7 1.027322 1_555
H36 N9 1.026692 1_655
H37 N8 1.030467 1_555
H38 O40 0.987074 1_555
H39 O40 0.987074 1_555
H40 N10 1.030467 1_555
H41 N11 1.027322 1_555
H42 O42 0.991692 1_555
H43 N10 1.027320 1_555
N0 S5 1.649363 1_555
N1 S0 1.660425 1_555
N2 S10 1.681124 1_555
N3 S4 1.660425 1_555
N4 S2 1.649363 1_555
N5 S3 1.681124 1_556
N6 S8 1.681124 1_554
N7 S9 1.649363 1_555
N8 S7 1.660425 1_555
N9 S1 1.681124 1_555
N10 S11 1.660425 1_555
N11 S6 1.649363 1_555
O0 S0 1.474704 1_565
O1 S1 1.473666 1_555
O2 S1 1.455465 1_555
O4 S2 1.466366 1_555
O6 S11 1.471978 1_555
O7 S10 1.481948 1_555
O8 S11 1.469016 1_555
O9 S2 1.473292 1_555
O12 S3 1.455465 1_555
O13 S3 1.473666 1_555
O14 S4 1.474704 1_455
O15 S2 1.472631 1_555
O16 S6 1.466366 1_555
O17 S5 1.472631 1_555
O18 S4 1.471978 1_556
O19 S3 1.481948 1_556
O21 S5 1.473292 1_555
O22 S4 1.469016 1_556
O23 S7 1.469016 1_554
O24 S6 1.473292 1_555
O26 S8 1.481948 1_554
O27 S7 1.471978 1_554
O28 S6 1.472631 1_555
O29 S5 1.466366 1_555
O30 S9 1.472631 1_555
O31 S7 1.474704 1_655
O32 S8 1.473666 1_555
O33 S8 1.455465 1_555
O36 S9 1.473292 1_555
O37 S0 1.469016 1_555
O38 S1 1.481948 1_555
O39 S0 1.471978 1_555
O41 S9 1.466366 1_555
O43 S10 1.455465 1_555
O44 S10 1.473666 1_555
O45 S11 1.474704 1_545
