# generated using pymatgen
data_Li3Cr(PO4)2
_symmetry_space_group_name_H-M   'P 1'
_cell_length_a   5.13303200
_cell_length_b   12.48346900
_cell_length_c   17.96316900
_cell_angle_alpha   90.00000000
_cell_angle_beta   90.00000000
_cell_angle_gamma   90.00000000
_symmetry_Int_Tables_number   1
_chemical_formula_structural   Li3Cr(PO4)2
_chemical_formula_sum   'Li24 Cr8 P16 O64'
_cell_volume   1151.04476676
_cell_formula_units_Z   8
loop_
 _symmetry_equiv_pos_site_id
 _symmetry_equiv_pos_as_xyz
  1  'x, y, z'
loop_
 _atom_site_type_symbol
 _atom_site_label
 _atom_site_symmetry_multiplicity
 _atom_site_fract_x
 _atom_site_fract_y
 _atom_site_fract_z
 _atom_site_occupancy
  Li  Li0  1  0.09606900  0.35110000  0.75979700  1
  Li  Li1  1  0.09606900  0.14890000  0.25979700  1
  Li  Li2  1  0.09239600  0.46158300  0.94169700  1
  Li  Li3  1  0.09239600  0.03841700  0.44169700  1
  Li  Li4  1  0.03764800  0.71173800  0.57060200  1
  Li  Li5  1  0.03764800  0.78826200  0.07060200  1
  Li  Li6  1  0.47564300  0.03925200  0.19092500  1
  Li  Li7  1  0.47564300  0.46074800  0.69092500  1
  Li  Li8  1  0.38627000  0.70571500  0.32427500  1
  Li  Li9  1  0.38627000  0.79428500  0.82427500  1
  Li  Li10  1  0.42158600  0.60573000  0.50514600  1
  Li  Li11  1  0.42158600  0.89427000  0.00514600  1
  Li  Li12  1  0.57841400  0.10573000  0.50514600  1
  Li  Li13  1  0.57841400  0.39427000  0.00514600  1
  Li  Li14  1  0.61373000  0.29428500  0.82427500  1
  Li  Li15  1  0.61373000  0.20571500  0.32427500  1
  Li  Li16  1  0.52435700  0.53925200  0.19092500  1
  Li  Li17  1  0.52435700  0.96074800  0.69092500  1
  Li  Li18  1  0.96235200  0.28826200  0.07060200  1
  Li  Li19  1  0.96235200  0.21173800  0.57060200  1
  Li  Li20  1  0.90760400  0.96158300  0.94169700  1
  Li  Li21  1  0.90760400  0.53841700  0.44169700  1
  Li  Li22  1  0.90393100  0.85110000  0.75979700  1
  Li  Li23  1  0.90393100  0.64890000  0.25979700  1
  Cr  Cr0  1  0.05677400  0.08061900  0.75566000  1
  Cr  Cr1  1  0.05677400  0.41938100  0.25566000  1
  Cr  Cr2  1  0.46580200  0.16683700  0.01586800  1
  Cr  Cr3  1  0.46580200  0.33316300  0.51586800  1
  Cr  Cr4  1  0.53419800  0.66683700  0.01586800  1
  Cr  Cr5  1  0.53419800  0.83316300  0.51586800  1
  Cr  Cr6  1  0.94322600  0.58061900  0.75566000  1
  Cr  Cr7  1  0.94322600  0.91938100  0.25566000  1
  P  P0  1  0.99146000  0.71733600  0.92139700  1
  P  P1  1  0.99146000  0.78266400  0.42139700  1
  P  P2  1  0.03022000  0.95968000  0.59267700  1
  P  P3  1  0.03022000  0.54032000  0.09267700  1
  P  P4  1  0.45146300  0.71039000  0.67846200  1
  P  P5  1  0.45146300  0.78961000  0.17846200  1
  P  P6  1  0.48669000  0.53791400  0.84894800  1
  P  P7  1  0.48669000  0.96208600  0.34894800  1
  P  P8  1  0.51331000  0.03791400  0.84894800  1
  P  P9  1  0.51331000  0.46208600  0.34894800  1
  P  P10  1  0.54853700  0.21039000  0.67846200  1
  P  P11  1  0.54853700  0.28961000  0.17846200  1
  P  P12  1  0.96978000  0.04032000  0.09267700  1
  P  P13  1  0.96978000  0.45968000  0.59267700  1
  P  P14  1  0.00854000  0.21733600  0.92139700  1
  P  P15  1  0.00854000  0.28266400  0.42139700  1
  O  O0  1  0.02189100  0.47161600  0.67873600  1
  O  O1  1  0.02189100  0.02838400  0.17873600  1
  O  O2  1  0.01602100  0.76172100  0.84174900  1
  O  O3  1  0.01602100  0.73827900  0.34174900  1
  O  O4  1  0.04808300  0.09808200  0.92566300  1
  O  O5  1  0.04808300  0.40191800  0.42566300  1
  O  O6  1  0.06096700  0.55747100  0.54842800  1
  O  O7  1  0.06096700  0.94252900  0.04842800  1
  O  O8  1  0.13294200  0.35873200  0.57437900  1
  O  O9  1  0.13294200  0.14126800  0.07437900  1
  O  O10  1  0.15920800  0.69072900  0.69859600  1
  O  O11  1  0.15920800  0.80927100  0.19859600  1
  O  O12  1  0.23629000  0.27725700  0.96385600  1
  O  O13  1  0.23629000  0.22274300  0.46385600  1
  O  O14  1  0.23376200  0.49938200  0.80681500  1
  O  O15  1  0.23376200  0.00061800  0.30681500  1
  O  O16  1  0.24417000  0.75102800  0.96596500  1
  O  O17  1  0.24417000  0.74897200  0.46596500  1
  O  O18  1  0.28945100  0.52694300  0.30881300  1
  O  O19  1  0.28945100  0.97305700  0.80881300  1
  O  O20  1  0.32692500  0.56125200  0.08018100  1
  O  O21  1  0.32692500  0.93874800  0.58018100  1
  O  O22  1  0.37754800  0.11051800  0.69306600  1
  O  O23  1  0.37754800  0.38948200  0.19306600  1
  O  O24  1  0.44643100  0.19028600  0.21883200  1
  O  O25  1  0.44643100  0.30971400  0.71883200  1
  O  O26  1  0.46544800  0.99648100  0.43206500  1
  O  O27  1  0.46544800  0.50351900  0.93206500  1
  O  O28  1  0.45178100  0.72181600  0.59140500  1
  O  O29  1  0.45178100  0.77818400  0.09140500  1
  O  O30  1  0.46937900  0.15637700  0.83925500  1
  O  O31  1  0.46937900  0.34362300  0.33925500  1
  O  O32  1  0.53062100  0.65637700  0.83925500  1
  O  O33  1  0.53062100  0.84362300  0.33925500  1
  O  O34  1  0.54821900  0.27818400  0.09140500  1
  O  O35  1  0.54821900  0.22181600  0.59140500  1
  O  O36  1  0.53455200  0.49648100  0.43206500  1
  O  O37  1  0.53455200  0.00351900  0.93206500  1
  O  O38  1  0.55356900  0.69028600  0.21883200  1
  O  O39  1  0.55356900  0.80971400  0.71883200  1
  O  O40  1  0.62245200  0.61051800  0.69306600  1
  O  O41  1  0.62245200  0.88948200  0.19306600  1
  O  O42  1  0.67307500  0.06125200  0.08018100  1
  O  O43  1  0.67307500  0.43874800  0.58018100  1
  O  O44  1  0.71054900  0.47305700  0.80881300  1
  O  O45  1  0.71054900  0.02694300  0.30881300  1
  O  O46  1  0.75583000  0.24897200  0.46596500  1
  O  O47  1  0.75583000  0.25102800  0.96596500  1
  O  O48  1  0.76623800  0.50061800  0.30681500  1
  O  O49  1  0.76623800  0.99938200  0.80681500  1
  O  O50  1  0.76371000  0.77725700  0.96385600  1
  O  O51  1  0.76371000  0.72274300  0.46385600  1
  O  O52  1  0.84079200  0.19072900  0.69859600  1
  O  O53  1  0.84079200  0.30927100  0.19859600  1
  O  O54  1  0.86705800  0.64126800  0.07437900  1
  O  O55  1  0.86705800  0.85873200  0.57437900  1
  O  O56  1  0.93903300  0.44252900  0.04842800  1
  O  O57  1  0.93903300  0.05747100  0.54842800  1
  O  O58  1  0.95191700  0.59808200  0.92566300  1
  O  O59  1  0.95191700  0.90191800  0.42566300  1
  O  O60  1  0.98397900  0.26172100  0.84174900  1
  O  O61  1  0.98397900  0.23827900  0.34174900  1
  O  O62  1  0.97810900  0.52838400  0.17873600  1
  O  O63  1  0.97810900  0.97161600  0.67873600  1
loop_
_geom_bond_atom_site_label_1
_geom_bond_atom_site_label_2
_geom_bond_distance
_geom_bond_site_symmetry_2
Li0 O60 1.934707 1_455
Li0 O25 2.010652 1_555
Li0 O0 2.128059 1_555
Li0 O14 2.153915 1_555
Li0 O52 2.633164 1_455
Li1 O61 1.934707 1_455
Li1 O24 2.010652 1_555
Li1 O1 2.128059 1_555
Li1 O15 2.153915 1_555
Li1 O53 2.633164 1_455
Li2 O58 1.872557 1_455
Li2 O27 1.992684 1_555
Li2 O56 2.086156 1_456
Li2 O12 2.449228 1_555
Li2 O14 2.572875 1_555
Li3 O59 1.872557 1_445
Li3 O26 1.992684 1_545
Li3 O57 2.086156 1_455
Li3 O13 2.449228 1_555
Li3 O15 2.572875 1_555
Li4 O6 1.970188 1_555
Li4 O55 2.034346 1_455
Li4 O28 2.162017 1_555
Li4 O17 2.207435 1_555
Li4 O51 2.381780 1_455
Li4 O10 2.396736 1_555
Li5 O7 1.970188 1_555
Li5 O54 2.034346 1_455
Li5 O29 2.162017 1_555
Li5 O16 2.207435 1_554
Li5 O50 2.381780 1_454
Li5 O11 2.396736 1_555
Li6 O24 1.956687 1_555
Li6 O41 2.016170 1_545
Li6 O42 2.249405 1_555
Li6 O1 2.343323 1_555
Li6 O45 2.441705 1_555
Li6 O15 2.471400 1_555
Li7 O25 1.956687 1_555
Li7 O40 2.016170 1_555
Li7 O43 2.249405 1_555
Li7 O0 2.343323 1_555
Li7 O44 2.441705 1_555
Li7 O14 2.471400 1_555
Li8 O33 1.893471 1_555
Li8 O3 1.968674 1_555
Li8 O38 2.088571 1_555
Li8 O18 2.303169 1_555
Li9 O32 1.893471 1_555
Li9 O2 1.968674 1_555
Li9 O39 2.088571 1_555
Li9 O19 2.303169 1_555
Li10 O36 1.979788 1_555
Li10 O6 2.096155 1_555
Li10 O17 2.126547 1_555
Li10 O28 2.127200 1_555
Li10 O51 2.401635 1_555
Li11 O37 1.979788 1_564
Li11 O7 2.096155 1_555
Li11 O16 2.126547 1_554
Li11 O29 2.127200 1_555
Li11 O50 2.401635 1_554
Li12 O26 1.979788 1_545
Li12 O57 2.096155 1_555
Li12 O46 2.126547 1_555
Li12 O35 2.127200 1_555
Li12 O13 2.401635 1_555
Li13 O27 1.979788 1_554
Li13 O56 2.096155 1_555
Li13 O47 2.126547 1_554
Li13 O34 2.127200 1_555
Li13 O12 2.401635 1_554
Li14 O30 1.893471 1_555
Li14 O60 1.968674 1_555
Li14 O25 2.088571 1_555
Li14 O44 2.303169 1_555
Li15 O31 1.893471 1_555
Li15 O61 1.968674 1_555
Li15 O24 2.088571 1_555
Li15 O45 2.303169 1_555
Li16 O38 1.956687 1_555
Li16 O23 2.016170 1_555
Li16 O20 2.249405 1_555
Li16 O62 2.343323 1_555
Li16 O18 2.441705 1_555
Li16 O48 2.471400 1_555
Li17 O39 1.956687 1_555
Li17 O22 2.016170 1_565
Li17 O21 2.249405 1_555
Li17 O63 2.343323 1_555
Li17 O19 2.441705 1_555
Li17 O49 2.471400 1_555
Li18 O56 1.970188 1_555
Li18 O9 2.034346 1_655
Li18 O34 2.162017 1_555
Li18 O47 2.207435 1_554
Li18 O12 2.381780 1_654
Li18 O53 2.396736 1_555
Li19 O57 1.970188 1_555
Li19 O8 2.034346 1_655
Li19 O35 2.162017 1_555
Li19 O46 2.207435 1_555
Li19 O13 2.381780 1_655
Li19 O52 2.396736 1_555
Li20 O4 1.872557 1_665
Li20 O37 1.992684 1_565
Li20 O7 2.086156 1_656
Li20 O50 2.449228 1_555
Li20 O49 2.572875 1_555
Li21 O5 1.872557 1_655
Li21 O36 1.992684 1_555
Li21 O6 2.086156 1_655
Li21 O51 2.449228 1_555
Li21 O48 2.572875 1_555
Li22 O2 1.934707 1_655
Li22 O39 2.010652 1_555
Li22 O63 2.128059 1_555
Li22 O49 2.153915 1_555
Li22 O10 2.633164 1_655
Li23 O3 1.934707 1_655
Li23 O38 2.010652 1_555
Li23 O62 2.128059 1_555
Li23 O48 2.153915 1_555
Li23 O11 2.633164 1_655
Cr0 O63 1.980913 1_445
Cr0 O49 2.024078 1_445
Cr0 O22 2.028463 1_555
Cr0 O19 2.034957 1_545
Cr0 O52 2.041866 1_455
Cr1 O62 1.980913 1_455
Cr1 O48 2.024078 1_455
Cr1 O23 2.028463 1_555
Cr1 O18 2.034957 1_555
Cr1 O53 2.041866 1_455
Cr2 O34 1.988013 1_555
Cr2 O47 2.030874 1_554
Cr2 O9 2.031212 1_555
Cr2 O12 2.039822 1_554
Cr2 O42 2.050343 1_555
Cr2 O37 2.558764 1_554
Cr3 O35 1.988013 1_555
Cr3 O46 2.030874 1_555
Cr3 O8 2.031212 1_555
Cr3 O13 2.039822 1_555
Cr3 O43 2.050343 1_555
Cr3 O36 2.558764 1_555
Cr4 O29 1.988013 1_555
Cr4 O16 2.030874 1_554
Cr4 O54 2.031212 1_555
Cr4 O50 2.039822 1_554
Cr4 O20 2.050343 1_555
Cr4 O27 2.558764 1_554
Cr5 O28 1.988013 1_555
Cr5 O17 2.030874 1_555
Cr5 O55 2.031212 1_555
Cr5 O51 2.039822 1_555
Cr5 O21 2.050343 1_555
Cr5 O26 2.558764 1_555
Cr6 O0 1.980913 1_655
Cr6 O14 2.024078 1_655
Cr6 O40 2.028463 1_555
Cr6 O44 2.034957 1_555
Cr6 O10 2.041866 1_655
Cr7 O1 1.980913 1_665
Cr7 O15 2.024078 1_665
Cr7 O41 2.028463 1_555
Cr7 O45 2.034957 1_565
Cr7 O11 2.041866 1_655
O0 P13 1.575923 1_455
O1 P12 1.575923 1_455
O2 P0 1.539444 1_455
O3 P1 1.539444 1_455
O4 P14 1.504430 1_555
O5 P15 1.504430 1_555
O6 P13 1.530084 1_455
O7 P12 1.530084 1_465
O8 P13 1.548395 1_455
O9 P12 1.548395 1_455
O10 P4 1.562533 1_555
O11 P5 1.562533 1_555
O12 P14 1.583641 1_555
O13 P15 1.583641 1_555
O14 P6 1.577889 1_555
O15 P7 1.577889 1_545
O16 P0 1.581290 1_455
O17 P1 1.581290 1_455
O18 P9 1.579767 1_555
O19 P8 1.579767 1_565
O20 P3 1.561468 1_555
O21 P2 1.561468 1_555
O22 P10 1.547109 1_555
O23 P11 1.547109 1_555
O24 P11 1.529033 1_555
O25 P10 1.529033 1_555
O26 P7 1.557379 1_555
O27 P6 1.557379 1_555
O28 P4 1.570312 1_555
O29 P5 1.570312 1_555
O30 P8 1.506022 1_555
O31 P9 1.506022 1_555
O32 P6 1.506022 1_555
O33 P7 1.506022 1_555
O34 P11 1.570312 1_555
O35 P10 1.570312 1_555
O36 P9 1.557379 1_555
O37 P8 1.557379 1_555
O38 P5 1.529033 1_555
O39 P4 1.529033 1_555
O40 P4 1.547109 1_555
O41 P5 1.547109 1_555
O42 P12 1.561468 1_555
O43 P13 1.561468 1_555
O44 P6 1.579767 1_555
O45 P7 1.579767 1_545
O46 P15 1.581290 1_655
O47 P14 1.581290 1_655
O48 P9 1.577889 1_555
O49 P8 1.577889 1_565
O50 P0 1.583641 1_555
O51 P1 1.583641 1_555
O52 P10 1.562533 1_555
O53 P11 1.562533 1_555
O54 P3 1.548395 1_655
O55 P2 1.548395 1_655
O56 P3 1.530084 1_655
O57 P2 1.530084 1_645
O58 P0 1.504430 1_555
O59 P1 1.504430 1_555
O60 P14 1.539444 1_655
O61 P15 1.539444 1_655
O62 P3 1.575923 1_655
O63 P2 1.575923 1_655
