# generated using pymatgen
data_Li2Co3NiO8
_symmetry_space_group_name_H-M   'P 1'
_cell_length_a   5.64048835
_cell_length_b   5.73235520
_cell_length_c   5.85260379
_cell_angle_alpha   60.67736006
_cell_angle_beta   90.62092079
_cell_angle_gamma   120.54024374
_symmetry_Int_Tables_number   1
_chemical_formula_structural   Li2Co3NiO8
_chemical_formula_sum   'Li2 Co3 Ni1 O8'
_cell_volume   134.77304207
_cell_formula_units_Z   1
loop_
 _symmetry_equiv_pos_site_id
 _symmetry_equiv_pos_as_xyz
  1  'x, y, z'
loop_
 _atom_site_type_symbol
 _atom_site_label
 _atom_site_symmetry_multiplicity
 _atom_site_fract_x
 _atom_site_fract_y
 _atom_site_fract_z
 _atom_site_occupancy
  Li  Li0  1  0.50000000  0.00000000  0.50000000  1
  Li  Li1  1  0.50000000  0.50000000  0.50000000  1
  Co  Co0  1  0.00000000  0.50000000  0.00000000  1
  Co  Co1  1  0.50000000  0.00000000  0.00000000  1
  Co  Co2  1  0.50000000  0.50000000  0.00000000  1
  Ni  Ni0  1  0.00000000  0.00000000  0.00000000  1
  O  O0  1  0.27424700  0.03787500  0.19849600  1
  O  O1  1  0.27327000  0.53503700  0.20319700  1
  O  O2  1  0.75015600  0.02876200  0.21122100  1
  O  O3  1  0.75015600  0.51017300  0.21122100  1
  O  O4  1  0.24984400  0.48982700  0.78877900  1
  O  O5  1  0.24984400  0.97123800  0.78877900  1
  O  O6  1  0.72673000  0.46496300  0.79680300  1
  O  O7  1  0.72575300  0.96212500  0.80150400  1
loop_
_geom_bond_atom_site_label_1
_geom_bond_atom_site_label_2
_geom_bond_distance
_geom_bond_site_symmetry_2
Li0 O4 2.101644 1_545
Li0 O3 2.101644 1_555
Li0 O5 2.101644 1_545
Li0 O2 2.101644 1_555
Li0 O0 2.153916 1_555
Li0 O7 2.153916 1_545
Li1 O1 2.136453 1_555
Li1 O6 2.136453 1_555
Li1 O2 2.173091 1_565
Li1 O5 2.173091 1_545
Li1 O4 2.173091 1_555
Li1 O3 2.173091 1_555
Co0 O3 1.925986 1_455
Co0 O4 1.925986 1_554
Co0 O2 1.925986 1_455
Co0 O5 1.925986 1_554
Co0 O6 1.926148 1_454
Co0 O1 1.926148 1_555
Co1 O5 1.863244 1_544
Co1 O2 1.863244 1_555
Co1 O7 1.891622 1_544
Co1 O0 1.891622 1_555
Co1 O1 1.902115 1_545
Co1 O6 1.902115 1_554
Co2 O4 1.863244 1_554
Co2 O3 1.863244 1_555
Co2 O7 1.891627 1_554
Co2 O0 1.891627 1_555
Co2 O6 1.902119 1_554
Co2 O1 1.902119 1_555
Ni0 O7 1.912161 1_444
Ni0 O0 1.912161 1_555
Ni0 O5 2.003706 1_544
Ni0 O2 2.003706 1_455
Ni0 O3 2.003706 1_445
Ni0 O4 2.003706 1_554
