# generated using pymatgen
data_Li4Mn3Cr3O12
_symmetry_space_group_name_H-M   'P 1'
_cell_length_a   9.59510341
_cell_length_b   8.95588385
_cell_length_c   5.28578598
_cell_angle_alpha   80.22068098
_cell_angle_beta   66.89948171
_cell_angle_gamma   32.87983731
_symmetry_Int_Tables_number   1
_chemical_formula_structural   Li4Mn3Cr3O12
_chemical_formula_sum   'Li4 Mn3 Cr3 O12'
_cell_volume   214.91186510
_cell_formula_units_Z   1
loop_
 _symmetry_equiv_pos_site_id
 _symmetry_equiv_pos_as_xyz
  1  'x, y, z'
loop_
 _atom_site_type_symbol
 _atom_site_label
 _atom_site_symmetry_multiplicity
 _atom_site_fract_x
 _atom_site_fract_y
 _atom_site_fract_z
 _atom_site_occupancy
  Li  Li0  1  0.82928400  0.82928400  0.17071600  1
  Li  Li1  1  0.17071600  0.17071600  0.82928400  1
  Li  Li2  1  0.92037300  0.92037300  0.57962700  1
  Li  Li3  1  0.57962700  0.57962700  0.92037300  1
  Mn  Mn0  1  0.00000000  0.00000000  0.00000000  1
  Mn  Mn1  1  0.66443000  0.66443000  0.33557000  1
  Mn  Mn2  1  0.33557000  0.33557000  0.66443000  1
  Cr  Cr0  1  0.41433500  0.41433500  0.08566500  1
  Cr  Cr1  1  0.08566500  0.08566500  0.41433500  1
  Cr  Cr2  1  0.75000000  0.75000000  0.75000000  1
  O  O0  1  0.21671800  0.78328200  0.21671800  1
  O  O1  1  0.45615500  0.86975600  0.10765800  1
  O  O2  1  0.87308300  0.30169600  0.17779800  1
  O  O3  1  0.10765800  0.56643200  0.45615500  1
  O  O4  1  0.64742300  0.17779800  0.30169600  1
  O  O5  1  0.30169600  0.87308300  0.64742300  1
  O  O6  1  0.52699700  0.97300300  0.52699700  1
  O  O7  1  0.86975600  0.45615500  0.56643200  1
  O  O8  1  0.78328200  0.21671800  0.78328200  1
  O  O9  1  0.17779800  0.64742300  0.87308300  1
  O  O10  1  0.56643200  0.10765800  0.86975600  1
  O  O11  1  0.97300300  0.52699700  0.97300300  1
loop_
_geom_bond_atom_site_label_1
_geom_bond_atom_site_label_2
_geom_bond_distance
_geom_bond_site_symmetry_2
Li0 O11 1.970467 1_554
Li0 O6 1.970467 1_555
Li0 O9 1.975981 1_654
Li0 O4 1.975981 1_565
Li0 O10 2.519328 1_564
Li0 O3 2.519332 1_655
Li1 O6 1.970467 1_545
Li1 O11 1.970467 1_455
Li1 O5 1.975981 1_545
Li1 O2 1.975981 1_456
Li1 O7 2.519327 1_455
Li1 O1 2.519332 1_546
Li2 O3 1.979413 1_655
Li2 O10 1.979414 1_565
Li2 O8 1.982078 1_565
Li2 O0 1.982078 1_655
Li2 O9 2.461600 1_655
Li2 O4 2.461600 1_565
Li3 O7 1.979419 1_555
Li3 O1 1.979421 1_556
Li3 O0 1.982078 1_556
Li3 O8 1.982078 1_555
Li3 O2 2.461600 1_556
Li3 O5 2.461600 1_555
Mn0 O0 1.933477 1_545
Mn0 O8 1.933477 1_454
Mn0 O2 2.026013 1_455
Mn0 O5 2.026013 1_544
Mn0 O4 2.026013 1_455
Mn0 O9 2.026013 1_544
Mn1 O1 1.946963 1_555
Mn1 O7 1.946968 1_555
Mn1 O5 1.985767 1_555
Mn1 O2 1.985767 1_555
Mn1 O6 2.044965 1_555
Mn1 O11 2.044965 1_554
Mn2 O3 1.946963 1_555
Mn2 O10 1.946968 1_555
Mn2 O9 1.985767 1_555
Mn2 O4 1.985767 1_555
Mn2 O11 2.044965 1_455
Mn2 O6 2.044965 1_545
Cr0 O10 2.000335 1_554
Cr0 O3 2.000338 1_555
Cr0 O4 2.004493 1_555
Cr0 O9 2.004493 1_554
Cr0 O8 2.053468 1_554
Cr0 O0 2.053468 1_555
Cr1 O1 2.000342 1_545
Cr1 O7 2.000343 1_455
Cr1 O5 2.004493 1_545
Cr1 O2 2.004493 1_455
Cr1 O8 2.053468 1_455
Cr1 O0 2.053468 1_545
Cr2 O11 1.989549 1_555
Cr2 O6 1.989549 1_555
Cr2 O7 2.025057 1_555
Cr2 O1 2.025060 1_556
Cr2 O3 2.025064 1_655
Cr2 O10 2.025065 1_565
