# generated using pymatgen
data_Pb(BrO3)2
_symmetry_space_group_name_H-M   'P 1'
_cell_length_a   5.71542300
_cell_length_b   6.31381300
_cell_length_c   16.51975800
_cell_angle_alpha   90.00000000
_cell_angle_beta   90.00000000
_cell_angle_gamma   90.00000000
_symmetry_Int_Tables_number   1
_chemical_formula_structural   Pb(BrO3)2
_chemical_formula_sum   'Pb4 Br8 O24'
_cell_volume   596.13383803
_cell_formula_units_Z   4
loop_
 _symmetry_equiv_pos_site_id
 _symmetry_equiv_pos_as_xyz
  1  'x, y, z'
loop_
 _atom_site_type_symbol
 _atom_site_label
 _atom_site_symmetry_multiplicity
 _atom_site_fract_x
 _atom_site_fract_y
 _atom_site_fract_z
 _atom_site_occupancy
  Pb  Pb0  1  0.25928800  0.75000000  0.00000000  1
  Pb  Pb1  1  0.74071200  0.25000000  0.00000000  1
  Pb  Pb2  1  0.24071200  0.25000000  0.50000000  1
  Pb  Pb3  1  0.75928800  0.75000000  0.50000000  1
  Br  Br0  1  0.26178700  0.21698700  0.15368400  1
  Br  Br1  1  0.73821300  0.71698700  0.15368400  1
  Br  Br2  1  0.23821300  0.71698700  0.34631600  1
  Br  Br3  1  0.76178700  0.21698700  0.34631600  1
  Br  Br4  1  0.23821300  0.78301300  0.65368400  1
  Br  Br5  1  0.76178700  0.28301300  0.65368400  1
  Br  Br6  1  0.26178700  0.28301300  0.84631600  1
  Br  Br7  1  0.73821300  0.78301300  0.84631600  1
  O  O0  1  0.60584100  0.60404300  0.06856300  1
  O  O1  1  0.39415900  0.10404300  0.06856300  1
  O  O2  1  0.89966900  0.91265500  0.10980000  1
  O  O3  1  0.10033100  0.41265500  0.10980000  1
  O  O4  1  0.52210000  0.83223900  0.20461300  1
  O  O5  1  0.47790000  0.33223900  0.20461300  1
  O  O6  1  0.97790000  0.33223900  0.29538700  1
  O  O7  1  0.02210000  0.83223900  0.29538700  1
  O  O8  1  0.39966900  0.91265500  0.39020000  1
  O  O9  1  0.60033100  0.41265500  0.39020000  1
  O  O10  1  0.10584100  0.60404300  0.43143700  1
  O  O11  1  0.89415900  0.10404300  0.43143700  1
  O  O12  1  0.10584100  0.89595700  0.56856300  1
  O  O13  1  0.89415900  0.39595700  0.56856300  1
  O  O14  1  0.39966900  0.58734500  0.60980000  1
  O  O15  1  0.60033100  0.08734500  0.60980000  1
  O  O16  1  0.97790000  0.16776100  0.70461300  1
  O  O17  1  0.02210000  0.66776100  0.70461300  1
  O  O18  1  0.52210000  0.66776100  0.79538700  1
  O  O19  1  0.47790000  0.16776100  0.79538700  1
  O  O20  1  0.10033100  0.08734500  0.89020000  1
  O  O21  1  0.89966900  0.58734500  0.89020000  1
  O  O22  1  0.39415900  0.39595700  0.93143700  1
  O  O23  1  0.60584100  0.89595700  0.93143700  1
loop_
_geom_bond_atom_site_label_1
_geom_bond_atom_site_label_2
_geom_bond_distance
_geom_bond_site_symmetry_2
Br0 O5 1.662235 1_555
Br0 O3 1.703918 1_555
Br0 O1 1.748784 1_555
Br1 O4 1.662235 1_555
Br1 O2 1.703918 1_555
Br1 O0 1.748784 1_555
Br2 O7 1.662235 1_555
Br2 O8 1.703918 1_555
Br2 O10 1.748784 1_555
Br3 O6 1.662235 1_555
Br3 O9 1.703918 1_555
Br3 O11 1.748784 1_555
Br4 O17 1.662235 1_555
Br4 O14 1.703918 1_555
Br4 O12 1.748784 1_555
Br5 O16 1.662235 1_555
Br5 O15 1.703918 1_555
Br5 O13 1.748784 1_555
Br6 O19 1.662235 1_555
Br6 O20 1.703918 1_555
Br6 O22 1.748784 1_555
Br7 O18 1.662235 1_555
Br7 O21 1.703918 1_555
Br7 O23 1.748784 1_555
O0 Pb0 2.460750 1_555
O0 Pb1 2.621817 1_555
O1 Pb1 2.460750 1_555
O1 Pb0 2.621817 1_545
O10 Pb3 2.460750 1_455
O10 Pb2 2.621817 1_555
O11 Pb2 2.460750 1_655
O11 Pb3 2.621817 1_545
O12 Pb3 2.460750 1_455
O12 Pb2 2.621817 1_565
O13 Pb2 2.460750 1_655
O13 Pb3 2.621817 1_555
O22 Pb1 2.460750 1_556
O22 Pb0 2.621817 1_556
O23 Pb0 2.460750 1_556
O23 Pb1 2.621817 1_566
