# generated using pymatgen
data_Li2Mn2FeO6
_symmetry_space_group_name_H-M   'P 1'
_cell_length_a   4.99469451
_cell_length_b   4.99471187
_cell_length_c   10.03951644
_cell_angle_alpha   89.95797353
_cell_angle_beta   89.95898200
_cell_angle_gamma   120.38282849
_symmetry_Int_Tables_number   1
_chemical_formula_structural   Li2Mn2FeO6
_chemical_formula_sum   'Li4 Mn4 Fe2 O12'
_cell_volume   216.05982880
_cell_formula_units_Z   2
loop_
 _symmetry_equiv_pos_site_id
 _symmetry_equiv_pos_as_xyz
  1  'x, y, z'
loop_
 _atom_site_type_symbol
 _atom_site_label
 _atom_site_symmetry_multiplicity
 _atom_site_fract_x
 _atom_site_fract_y
 _atom_site_fract_z
 _atom_site_occupancy
  Li  Li0  1  0.16715636  0.66742006  0.74998466  1
  Li  Li1  1  0.33257367  0.83284546  0.25001625  1
  Li  Li2  1  0.66911368  0.16570786  0.75004837  1
  Li  Li3  1  0.83429822  0.33084949  0.24994373  1
  Mn  Mn0  1  0.16229701  0.83771592  0.50000660  1
  Mn  Mn1  1  0.33733369  0.66268411  -0.00000910  1
  Mn  Mn2  1  0.66227166  0.33771744  0.99999464  1
  Mn  Mn3  1  0.83731551  0.16269096  0.50001113  1
  Fe  Fe0  1  0.99982785  0.00016084  0.99999636  1
  Fe  Fe1  1  0.49984523  0.50016425  0.50000448  1
  O  O0  1  0.14210486  0.14257623  0.60175006  1
  O  O1  1  0.35672281  0.35719219  0.10170504  1
  O  O2  1  0.64280491  0.64326882  0.89828209  1
  O  O3  1  0.85742844  0.85791357  0.39826078  1
  O  O4  1  0.00450272  0.64376228  0.10628214  1
  O  O5  1  0.99512985  0.35640284  0.89378823  1
  O  O6  1  0.14419001  0.50542517  0.39379723  1
  O  O7  1  0.49457973  0.85580600  0.60621266  1
  O  O8  1  0.35623937  0.99549751  0.89370507  1
  O  O9  1  0.50508554  0.14442271  0.39373681  1
  O  O10  1  0.85558893  0.49491702  0.60627390  1
  O  O11  1  0.64358795  0.00486026  0.10620788  1
loop_
_geom_bond_atom_site_label_1
_geom_bond_atom_site_label_2
_geom_bond_distance
_geom_bond_site_symmetry_2
Li0 O5 1.969906 1_455
Li0 O10 1.973434 1_455
Li0 O7 2.020223 1_555
Li0 O8 2.024596 1_555
Li1 O11 1.969937 1_565
Li1 O9 1.973547 1_565
Li1 O6 2.020272 1_555
Li1 O4 2.024664 1_555
Li2 O7 1.970087 1_545
Li2 O8 1.973824 1_545
Li2 O5 2.019335 1_555
Li2 O10 2.024875 1_555
Li3 O6 1.970188 1_655
Li3 O4 1.973963 1_655
Li3 O11 2.019246 1_555
Li3 O9 2.025012 1_555
Mn0 O0 1.878723 1_565
Mn0 O3 1.878764 1_455
Mn0 O7 1.936619 1_555
Mn0 O6 1.936659 1_555
Mn0 O9 1.938624 1_565
Mn0 O10 1.938636 1_455
Mn1 O2 1.878167 1_554
Mn1 O1 1.878211 1_555
Mn1 O8 1.936302 1_554
Mn1 O4 1.936385 1_555
Mn1 O11 1.938664 1_565
Mn1 O5 1.938696 1_454
Mn2 O2 1.878631 1_555
Mn2 O1 1.878638 1_556
Mn2 O5 1.936485 1_555
Mn2 O11 1.936512 1_556
Mn2 O8 1.938791 1_545
Mn2 O4 1.938826 1_656
Mn3 O0 1.878203 1_655
Mn3 O3 1.878231 1_545
Mn3 O10 1.936364 1_555
Mn3 O9 1.936434 1_555
Mn3 O7 1.938426 1_545
Mn3 O6 1.938472 1_655
Fe0 O1 2.046959 1_656
Fe0 O2 2.046962 1_545
Fe0 O5 2.083984 1_555
Fe0 O11 2.084006 1_556
Fe0 O4 2.085003 1_646
Fe0 O8 2.085072 1_645
Fe1 O3 2.047579 1_555
Fe1 O0 2.047580 1_555
Fe1 O7 2.083981 1_555
Fe1 O6 2.084003 1_555
Fe1 O9 2.084660 1_555
Fe1 O10 2.084672 1_555
