# generated using pymatgen
data_Li3V6O13
_symmetry_space_group_name_H-M   'P 1'
_cell_length_a   6.30997800
_cell_length_b   8.00538344
_cell_length_c   10.37568226
_cell_angle_alpha   90.00197392
_cell_angle_beta   100.00691211
_cell_angle_gamma   108.48642740
_symmetry_Int_Tables_number   1
_chemical_formula_structural   Li3V6O13
_chemical_formula_sum   'Li6 V12 O26'
_cell_volume   488.65446586
_cell_formula_units_Z   2
loop_
 _symmetry_equiv_pos_site_id
 _symmetry_equiv_pos_as_xyz
  1  'x, y, z'
loop_
 _atom_site_type_symbol
 _atom_site_label
 _atom_site_symmetry_multiplicity
 _atom_site_fract_x
 _atom_site_fract_y
 _atom_site_fract_z
 _atom_site_occupancy
  Li  Li0  1  0.98936300  0.74742500  0.96890600  1
  Li  Li1  1  0.86299700  0.21558600  0.59019100  1
  Li  Li2  1  0.86234300  0.71573000  0.58735400  1
  Li  Li3  1  0.13700300  0.78441400  0.40980900  1
  Li  Li4  1  0.13765700  0.28427000  0.41264600  1
  Li  Li5  1  0.01063700  0.25257500  0.03109400  1
  V  V0  1  0.68287500  0.92167000  0.00093800  1
  V  V1  1  0.68341500  0.42078500  0.00251700  1
  V  V2  1  0.80427700  0.45090100  0.36503000  1
  V  V3  1  0.80427900  0.95120400  0.36445200  1
  V  V4  1  0.56094900  0.39024600  0.63752400  1
  V  V5  1  0.56096500  0.89022600  0.63721000  1
  V  V6  1  0.43905100  0.60975400  0.36247600  1
  V  V7  1  0.43903500  0.10977400  0.36279000  1
  V  V8  1  0.19572300  0.54909900  0.63497000  1
  V  V9  1  0.19572100  0.04879600  0.63554800  1
  V  V10  1  0.31658500  0.57921500  0.99748300  1
  V  V11  1  0.31712500  0.07833000  0.99906200  1
  O  O0  1  0.76076100  0.43943700  0.19804900  1
  O  O1  1  0.75871000  0.94095000  0.19801600  1
  O  O2  1  0.00000000  0.00000000  0.00000000  1
  O  O3  1  0.00000000  0.50000000  0.00000000  1
  O  O4  1  0.86183700  0.46573000  0.58375100  1
  O  O5  1  0.86207800  0.96526900  0.58391400  1
  O  O6  1  0.77855400  0.69459200  0.39130300  1
  O  O7  1  0.77941400  0.19494400  0.39210400  1
  O  O8  1  0.65009000  0.16178400  0.00173900  1
  O  O9  1  0.64593100  0.66262100  0.99770900  1
  O  O10  1  0.63293500  0.40964800  0.80274700  1
  O  O11  1  0.63285300  0.90746700  0.80128100  1
  O  O12  1  0.48250100  0.37079800  0.40319200  1
  O  O13  1  0.48217600  0.87039600  0.40307400  1
  O  O14  1  0.51749900  0.62920200  0.59680800  1
  O  O15  1  0.51782400  0.12960400  0.59692600  1
  O  O16  1  0.36714700  0.09253300  0.19871900  1
  O  O17  1  0.36706500  0.59035200  0.19725300  1
  O  O18  1  0.35406900  0.33737900  0.00229100  1
  O  O19  1  0.34991000  0.83821600  0.99826100  1
  O  O20  1  0.22144600  0.30540800  0.60869700  1
  O  O21  1  0.22058600  0.80505600  0.60789600  1
  O  O22  1  0.13792200  0.03473100  0.41608600  1
  O  O23  1  0.13816300  0.53427000  0.41624900  1
  O  O24  1  0.24129000  0.05905000  0.80198400  1
  O  O25  1  0.23923900  0.56056300  0.80195100  1
loop_
_geom_bond_atom_site_label_1
_geom_bond_atom_site_label_2
_geom_bond_distance
_geom_bond_site_symmetry_2
Li0 O2 2.025655 1_666
Li0 O3 2.026997 1_656
Li0 O19 2.123067 1_655
Li0 O9 2.130357 1_555
Li1 O5 2.003076 1_545
Li1 O4 2.005905 1_555
Li1 O7 2.024269 1_555
Li1 O15 2.079585 1_555
Li1 O20 2.118338 1_655
Li2 O5 1.998501 1_555
Li2 O4 2.000673 1_555
Li2 O6 2.003861 1_555
Li2 O14 2.083884 1_555
Li2 O21 2.115211 1_655
Li3 O22 2.003076 1_565
Li3 O23 2.005905 1_555
Li3 O21 2.024269 1_555
Li3 O13 2.079585 1_555
Li3 O6 2.118338 1_455
Li4 O22 1.998501 1_555
Li4 O23 2.000673 1_555
Li4 O20 2.003861 1_555
Li4 O12 2.083884 1_555
Li4 O7 2.115211 1_455
Li5 O2 2.025655 1_555
Li5 O3 2.026997 1_555
Li5 O8 2.123067 1_455
Li5 O18 2.130357 1_555
O0 V2 1.704170 1_555
O0 V1 1.996518 1_555
O1 V3 1.698238 1_555
O1 V0 2.011758 1_555
O2 V0 1.899617 1_445
O2 V11 1.899617 1_554
O3 V1 1.899522 1_455
O3 V10 1.899522 1_554
O4 V8 1.971215 1_655
O4 V4 1.980331 1_555
O4 V2 2.232102 1_555
O5 V9 1.970179 1_665
O5 V5 1.979411 1_555
O5 V3 2.239655 1_555
O6 V6 1.998656 1_555
O6 V2 2.030413 1_555
O6 V3 2.031825 1_555
O7 V7 2.003661 1_555
O7 V2 2.028192 1_555
O7 V3 2.030761 1_545
O8 V11 1.987687 1_554
O8 V0 1.997625 1_545
O8 V1 2.016482 1_555
O9 V10 1.970521 1_555
O9 V0 2.011657 1_556
O9 V1 2.023062 1_556
O10 V4 1.689349 1_555
O10 V1 2.039173 1_556
O11 V5 1.677712 1_555
O11 V0 2.038130 1_556
O12 V2 2.035743 1_555
O12 V6 2.050696 1_555
O12 V7 2.052780 1_555
O12 V4 2.390311 1_555
O13 V3 2.039424 1_555
O13 V6 2.050650 1_555
O13 V7 2.052410 1_565
O13 V5 2.388337 1_555
O14 V8 2.035743 1_555
O14 V4 2.050696 1_555
O14 V5 2.052780 1_555
O14 V6 2.390311 1_555
O15 V9 2.039424 1_555
O15 V4 2.050650 1_555
O15 V5 2.052410 1_545
O15 V7 2.388337 1_555
O16 V7 1.677712 1_555
O16 V11 2.038130 1_554
O17 V6 1.689349 1_555
O17 V10 2.039173 1_554
O18 V1 1.970521 1_555
O18 V11 2.011657 1_554
O18 V10 2.023062 1_554
O19 V0 1.987687 1_556
O19 V11 1.997625 1_565
O19 V10 2.016482 1_555
O20 V4 1.998656 1_555
O20 V8 2.030413 1_555
O20 V9 2.031825 1_555
O21 V5 2.003661 1_555
O21 V8 2.028192 1_555
O21 V9 2.030761 1_565
O22 V3 1.970179 1_445
O22 V7 1.979411 1_555
O22 V9 2.239655 1_555
O23 V2 1.971215 1_455
O23 V6 1.980331 1_555
O23 V8 2.232102 1_555
O24 V9 1.698238 1_555
O24 V11 2.011758 1_555
O25 V8 1.704170 1_555
O25 V10 1.996518 1_555
