# generated using pymatgen
data_Na3NpO8
_symmetry_space_group_name_H-M   'P 1'
_cell_length_a   8.27824200
_cell_length_b   6.34687700
_cell_length_c   7.38280662
_cell_angle_alpha   59.18559218
_cell_angle_beta   90.00000000
_cell_angle_gamma   90.00000000
_symmetry_Int_Tables_number   1
_chemical_formula_structural   Na3NpO8
_chemical_formula_sum   'Na6 Np2 O16'
_cell_volume   333.14052091
_cell_formula_units_Z   2
loop_
 _symmetry_equiv_pos_site_id
 _symmetry_equiv_pos_as_xyz
  1  'x, y, z'
loop_
 _atom_site_type_symbol
 _atom_site_label
 _atom_site_symmetry_multiplicity
 _atom_site_fract_x
 _atom_site_fract_y
 _atom_site_fract_z
 _atom_site_occupancy
  Na  Na0  1  0.00000000  0.00000000  0.50000000  1
  Na  Na1  1  0.50000000  0.00000000  0.00000000  1
  Na  Na2  1  0.29377800  0.43630700  0.52500200  1
  Na  Na3  1  0.79377800  0.56369300  0.97499800  1
  Na  Na4  1  0.70622200  0.56369300  0.47499800  1
  Na  Na5  1  0.20622200  0.43630700  0.02500200  1
  Np  Np0  1  0.50000000  0.00000000  0.50000000  1
  Np  Np1  1  0.00000000  0.00000000  0.00000000  1
  O  O0  1  0.57231700  0.30897200  0.13798300  1
  O  O1  1  0.07231700  0.69102800  0.36201700  1
  O  O2  1  0.42768300  0.69102800  0.86201700  1
  O  O3  1  0.92768300  0.30897200  0.63798300  1
  O  O4  1  0.53262300  0.19878800  0.62416300  1
  O  O5  1  0.03262300  0.80121200  0.87583700  1
  O  O6  1  0.46737700  0.80121200  0.37583700  1
  O  O7  1  0.96737700  0.19878800  0.12416300  1
  O  O8  1  0.28255700  0.10800500  0.43605600  1
  O  O9  1  0.78255700  0.89199500  0.06394400  1
  O  O10  1  0.71744300  0.89199500  0.56394400  1
  O  O11  1  0.21744300  0.10800500  0.93605600  1
  O  O12  1  0.03067600  0.51284500  0.32293400  1
  O  O13  1  0.53067600  0.48715500  0.17706600  1
  O  O14  1  0.96932400  0.48715500  0.67706600  1
  O  O15  1  0.46932400  0.51284500  0.82293400  1
loop_
_geom_bond_atom_site_label_1
_geom_bond_atom_site_label_2
_geom_bond_distance
_geom_bond_site_symmetry_2
Na0 O5 2.403591 1_545
Na0 O7 2.403591 1_455
Na0 O8 2.415056 1_555
Na0 O10 2.415056 1_445
Na0 O3 2.699695 1_455
Na0 O1 2.699695 1_545
Na0 O12 2.829984 1_555
Na0 O14 2.829984 1_445
Na1 O6 2.403591 1_545
Na1 O4 2.403591 1_554
Na1 O11 2.415056 1_554
Na1 O9 2.415056 1_545
Na1 O0 2.699695 1_555
Na1 O2 2.699695 1_544
Na1 O13 2.829984 1_545
Na1 O15 2.829984 1_554
Na2 O1 2.330140 1_555
Na2 O4 2.363731 1_555
Na2 O6 2.455371 1_555
Na2 O8 2.486658 1_555
Na2 O12 2.542213 1_555
Na2 O11 2.733535 1_555
Na2 O15 2.877609 1_555
Na3 O0 2.330140 1_556
Na3 O5 2.363731 1_655
Na3 O7 2.455371 1_556
Na3 O9 2.486658 1_556
Na3 O13 2.542213 1_556
Na3 O10 2.733535 1_555
Na3 O14 2.877609 1_555
Na4 O3 2.330140 1_555
Na4 O6 2.363731 1_555
Na4 O4 2.455371 1_555
Na4 O10 2.486658 1_555
Na4 O14 2.542213 1_555
Na4 O9 2.733535 1_555
Na4 O13 2.877609 1_555
Na5 O2 2.330140 1_554
Na5 O7 2.363731 1_455
Na5 O5 2.455371 1_554
Na5 O11 2.486658 1_554
Na5 O15 2.542213 1_554
Na5 O8 2.733535 1_555
Na5 O12 2.877609 1_555
Np0 O10 1.897732 1_545
Np0 O8 1.897732 1_555
Np0 O4 1.920929 1_555
Np0 O6 1.920929 1_545
Np0 O2 2.444910 1_545
Np0 O0 2.444910 1_555
Np1 O11 1.897732 1_554
Np1 O9 1.897732 1_445
Np1 O7 1.920929 1_455
Np1 O5 1.920929 1_544
Np1 O1 2.444910 1_545
Np1 O3 2.444910 1_454
O0 O13 1.347348 1_555
O1 O12 1.347348 1_555
O14 O3 1.347348 1_555
O15 O2 1.347348 1_555
