# generated using pymatgen
data_Li3MnV3O8
_symmetry_space_group_name_H-M   'P 1'
_cell_length_a   10.38962020
_cell_length_b   10.38988006
_cell_length_c   14.69948380
_cell_angle_alpha   19.37609668
_cell_angle_beta   19.37586258
_cell_angle_gamma   33.40151187
_symmetry_Int_Tables_number   1
_chemical_formula_structural   Li3MnV3O8
_chemical_formula_sum   'Li3 Mn1 V3 O8'
_cell_volume   151.19498165
_cell_formula_units_Z   1
loop_
 _symmetry_equiv_pos_site_id
 _symmetry_equiv_pos_as_xyz
  1  'x, y, z'
loop_
 _atom_site_type_symbol
 _atom_site_label
 _atom_site_symmetry_multiplicity
 _atom_site_fract_x
 _atom_site_fract_y
 _atom_site_fract_z
 _atom_site_occupancy
  Li  Li0  1  0.99999900  0.50002100  0.49998900  1
  Li  Li1  1  0.50002900  0.99998000  0.49999800  1
  Li  Li2  1  0.49997500  0.49995500  0.50005000  1
  Mn  Mn0  1  0.99994400  0.99998900  0.00002800  1
  V  V0  1  0.00000500  0.50001300  0.99999000  1
  V  V1  1  0.50003200  0.00001500  0.99997500  1
  V  V2  1  0.49996700  0.49999000  0.00003300  1
  O  O0  1  0.00043700  0.00034500  0.25751700  1
  O  O1  1  0.00016600  0.52576300  0.24415300  1
  O  O2  1  0.52555000  0.00002400  0.24440900  1
  O  O3  1  0.99956900  0.99964400  0.74250000  1
  O  O4  1  0.47457800  0.47469300  0.29516200  1
  O  O5  1  0.99984900  0.47422300  0.75584100  1
  O  O6  1  0.47442900  0.99998800  0.75559500  1
  O  O7  1  0.52547300  0.52535700  0.70476300  1
loop_
_geom_bond_atom_site_label_1
_geom_bond_atom_site_label_2
_geom_bond_distance
_geom_bond_site_symmetry_2
Li0 O6 2.181750 1_654
Li0 O2 2.181754 1_556
Li0 O7 2.182902 1_555
Li0 O4 2.182916 1_655
Li0 O0 2.185857 1_665
Li0 O3 2.185931 1_545
Li1 O1 2.181082 1_556
Li1 O5 2.181177 1_564
Li1 O7 2.183448 1_555
Li1 O4 2.183550 1_565
Li1 O0 2.186049 1_665
Li1 O3 2.186178 1_455
Li2 O0 2.182044 1_556
Li2 O3 2.182165 1_554
Li2 O1 2.183977 1_655
Li2 O5 2.184010 1_455
Li2 O6 2.184086 1_545
Li2 O2 2.184240 1_565
Mn0 O7 1.946648 1_555
Mn0 O4 1.946783 1_664
Mn0 O2 1.947124 1_565
Mn0 O1 1.947173 1_655
Mn0 O5 1.947236 1_564
Mn0 O6 1.947589 1_654
O0 V2 2.047767 1_446
O0 V1 2.048004 1_554
O0 V0 2.048445 1_554
O1 V1 2.059575 1_455
O1 V2 2.060954 1_555
O2 V0 2.058904 1_545
O2 V2 2.061109 1_555
O3 V2 2.047689 1_665
O3 V1 2.047903 1_565
O3 V0 2.048420 1_655
O4 V1 2.061480 1_564
O4 V0 2.061824 1_654
O5 V1 2.059577 1_664
O5 V2 2.061078 1_556
O6 V0 2.058927 1_664
O6 V2 2.061051 1_556
O7 V1 2.061403 1_555
O7 V0 2.061824 1_555
