# generated using pymatgen
data_Li2TiMn3O8
_symmetry_space_group_name_H-M   'P 1'
_cell_length_a   5.73406975
_cell_length_b   5.73406975
_cell_length_c   9.47238200
_cell_angle_alpha   90.00000000
_cell_angle_beta   90.00000000
_cell_angle_gamma   119.99999713
_symmetry_Int_Tables_number   1
_chemical_formula_structural   Li2TiMn3O8
_chemical_formula_sum   'Li4 Ti2 Mn6 O16'
_cell_volume   269.72163973
_cell_formula_units_Z   2
loop_
 _symmetry_equiv_pos_site_id
 _symmetry_equiv_pos_as_xyz
  1  'x, y, z'
loop_
 _atom_site_type_symbol
 _atom_site_label
 _atom_site_symmetry_multiplicity
 _atom_site_fract_x
 _atom_site_fract_y
 _atom_site_fract_z
 _atom_site_occupancy
  Li  Li0  1  0.33333300  0.66666700  0.89713400  1
  Li  Li1  1  0.00000000  0.00000000  0.99511800  1
  Li  Li2  1  0.00000000  0.00000000  0.49511800  1
  Li  Li3  1  0.66666700  0.33333300  0.39713400  1
  Ti  Ti0  1  0.33333300  0.66666700  0.49469900  1
  Ti  Ti1  1  0.66666700  0.33333300  0.99469900  1
  Mn  Mn0  1  0.17116500  0.34233000  0.21521200  1
  Mn  Mn1  1  0.65767000  0.82883500  0.21521200  1
  Mn  Mn2  1  0.17116500  0.82883500  0.21521200  1
  Mn  Mn3  1  0.82883500  0.17116500  0.71521200  1
  Mn  Mn4  1  0.34233000  0.17116500  0.71521200  1
  Mn  Mn5  1  0.82883500  0.65767000  0.71521200  1
  O  O0  1  0.16570000  0.33140100  0.59855300  1
  O  O1  1  0.48079900  0.51920100  0.33710600  1
  O  O2  1  0.33333300  0.66666700  0.10718900  1
  O  O3  1  0.00000000  0.00000000  0.30793200  1
  O  O4  1  0.00000000  0.00000000  0.80793200  1
  O  O5  1  0.66859900  0.83430000  0.59855300  1
  O  O6  1  0.03840200  0.51920100  0.33710600  1
  O  O7  1  0.48079900  0.96159800  0.33710600  1
  O  O8  1  0.83430000  0.16570000  0.09855300  1
  O  O9  1  0.16570000  0.83430000  0.59855300  1
  O  O10  1  0.51920100  0.03840200  0.83710600  1
  O  O11  1  0.96159800  0.48079900  0.83710600  1
  O  O12  1  0.66666700  0.33333300  0.60718900  1
  O  O13  1  0.33140100  0.16570000  0.09855300  1
  O  O14  1  0.51920100  0.48079900  0.83710600  1
  O  O15  1  0.83430000  0.66859900  0.09855300  1
loop_
_geom_bond_atom_site_label_1
_geom_bond_atom_site_label_2
_geom_bond_distance
_geom_bond_site_symmetry_2
Li0 O10 1.931569 1_565
Li0 O11 1.931569 1_455
Li0 O14 1.931574 1_555
Li0 O2 1.989721 1_556
Li1 O4 1.773097 1_555
Li1 O8 1.915263 1_456
Li1 O13 1.915267 1_556
Li1 O15 1.915267 1_446
Li2 O3 1.773097 1_555
Li2 O9 1.915263 1_545
Li2 O0 1.915267 1_555
Li2 O5 1.915267 1_445
Li3 O7 1.931569 1_545
Li3 O6 1.931569 1_655
Li3 O1 1.931574 1_555
Li3 O12 1.989721 1_555
Mn0 O2 1.908159 1_555
Mn0 O3 1.913436 1_555
Mn0 O6 1.927007 1_555
Mn0 O1 1.927007 1_555
Mn0 O8 2.005405 1_455
Mn0 O13 2.005409 1_555
Mn1 O2 1.908159 1_555
Mn1 O3 1.913436 1_665
Mn1 O7 1.927007 1_555
Mn1 O1 1.927007 1_555
Mn1 O8 2.005405 1_565
Mn1 O15 2.005409 1_555
Mn2 O2 1.908155 1_555
Mn2 O3 1.913436 1_565
Mn2 O6 1.927007 1_555
Mn2 O7 1.927007 1_555
Mn2 O15 2.005405 1_455
Mn2 O13 2.005405 1_565
Mn3 O12 1.908155 1_555
Mn3 O4 1.913436 1_655
Mn3 O10 1.927007 1_555
Mn3 O11 1.927007 1_555
Mn3 O5 2.005405 1_545
Mn3 O0 2.005405 1_655
Mn4 O12 1.908159 1_555
Mn4 O4 1.913436 1_555
Mn4 O10 1.927007 1_555
Mn4 O14 1.927007 1_555
Mn4 O9 2.005405 1_545
Mn4 O0 2.005409 1_555
Mn5 O12 1.908159 1_555
Mn5 O4 1.913436 1_665
Mn5 O11 1.927007 1_555
Mn5 O14 1.927007 1_555
Mn5 O9 2.005405 1_655
Mn5 O5 2.005409 1_555
O0 Ti0 1.933800 1_555
O1 Ti0 2.091271 1_555
O5 Ti0 1.933800 1_555
O6 Ti0 2.091267 1_555
O7 Ti0 2.091267 1_555
O8 Ti1 1.933800 1_554
O9 Ti0 1.933800 1_555
O10 Ti1 2.091267 1_555
O11 Ti1 2.091267 1_555
O13 Ti1 1.933800 1_554
O14 Ti1 2.091271 1_555
O15 Ti1 1.933800 1_554
