# generated using pymatgen
data_Na3Ni(BO3)2
_symmetry_space_group_name_H-M   'P 1'
_cell_length_a   9.56020000
_cell_length_b   5.61066700
_cell_length_c   11.37207460
_cell_angle_alpha   65.44411829
_cell_angle_beta   90.00000000
_cell_angle_gamma   90.00000000
_symmetry_Int_Tables_number   1
_chemical_formula_structural   Na3Ni(BO3)2
_chemical_formula_sum   'Na12 Ni4 B8 O24'
_cell_volume   554.81832340
_cell_formula_units_Z   4
loop_
 _symmetry_equiv_pos_site_id
 _symmetry_equiv_pos_as_xyz
  1  'x, y, z'
loop_
 _atom_site_type_symbol
 _atom_site_label
 _atom_site_symmetry_multiplicity
 _atom_site_fract_x
 _atom_site_fract_y
 _atom_site_fract_z
 _atom_site_occupancy
  Na  Na0  1  0.97014200  0.48912400  0.35628900  1
  Na  Na1  1  0.65989800  0.46195100  0.37468600  1
  Na  Na2  1  0.98868400  0.93066400  0.88148100  1
  Na  Na3  1  0.15989800  0.53804900  0.12531400  1
  Na  Na4  1  0.47014200  0.51087600  0.14371100  1
  Na  Na5  1  0.48868400  0.06933600  0.61851900  1
  Na  Na6  1  0.51131600  0.93066400  0.38148100  1
  Na  Na7  1  0.52985800  0.48912400  0.85628900  1
  Na  Na8  1  0.84010200  0.46195100  0.87468600  1
  Na  Na9  1  0.01131600  0.06933600  0.11851900  1
  Na  Na10  1  0.34010200  0.53804900  0.62531400  1
  Na  Na11  1  0.02985800  0.51087600  0.64371100  1
  Ni  Ni0  1  0.31078100  0.98539200  0.87345000  1
  Ni  Ni1  1  0.81078100  0.01460800  0.62655000  1
  Ni  Ni2  1  0.18921900  0.98539200  0.37345000  1
  Ni  Ni3  1  0.68921900  0.01460800  0.12655000  1
  B  B0  1  0.31049500  0.44531000  0.38160800  1
  B  B1  1  0.64857200  0.97679900  0.86753700  1
  B  B2  1  0.81049500  0.55469000  0.11839200  1
  B  B3  1  0.14857200  0.02320100  0.63246300  1
  B  B4  1  0.85142800  0.97679900  0.36753700  1
  B  B5  1  0.18950500  0.44531000  0.88160800  1
  B  B6  1  0.35142800  0.02320100  0.13246300  1
  B  B7  1  0.68950500  0.55469000  0.61839200  1
  O  O0  1  0.32159200  0.86642100  0.06787100  1
  O  O1  1  0.69461200  0.33389500  0.59261000  1
  O  O2  1  0.93528400  0.68247600  0.11165600  1
  O  O3  1  0.68663300  0.64134900  0.15254600  1
  O  O4  1  0.26314500  0.10990400  0.68109000  1
  O  O5  1  0.01468200  0.09380700  0.65164300  1
  O  O6  1  0.18663300  0.35865100  0.34745400  1
  O  O7  1  0.51468200  0.90619300  0.84835700  1
  O  O8  1  0.43528400  0.31752400  0.38834400  1
  O  O9  1  0.76314500  0.89009600  0.81891000  1
  O  O10  1  0.82159200  0.13357900  0.43212900  1
  O  O11  1  0.19461200  0.66610500  0.90739000  1
  O  O12  1  0.80538800  0.33389500  0.09261000  1
  O  O13  1  0.17840800  0.86642100  0.56787100  1
  O  O14  1  0.23685500  0.10990400  0.18109000  1
  O  O15  1  0.56471600  0.68247600  0.61165600  1
  O  O16  1  0.48531800  0.09380700  0.15164300  1
  O  O17  1  0.81336700  0.64134900  0.65254600  1
  O  O18  1  0.98531800  0.90619300  0.34835700  1
  O  O19  1  0.73685500  0.89009600  0.31891000  1
  O  O20  1  0.31336700  0.35865100  0.84745400  1
  O  O21  1  0.06471600  0.31752400  0.88834400  1
  O  O22  1  0.30538800  0.66610500  0.40739000  1
  O  O23  1  0.67840800  0.13357900  0.93212900  1
loop_
_geom_bond_atom_site_label_1
_geom_bond_atom_site_label_2
_geom_bond_distance
_geom_bond_site_symmetry_2
Na0 O6 2.211505 1_655
Na0 O10 2.304371 1_555
Na0 O18 2.308573 1_555
Na0 O2 2.553218 1_555
Na1 O8 2.277561 1_555
Na1 O10 2.282623 1_555
Na1 O1 2.299592 1_555
Na1 O3 2.312292 1_555
Na1 O19 2.334022 1_555
Na2 O9 2.311262 1_555
Na2 O21 2.320884 1_665
Na2 O5 2.396396 1_665
Na2 O11 2.408825 1_655
Na2 O2 2.453933 1_556
Na3 O2 2.277561 1_455
Na3 O0 2.282623 1_555
Na3 O11 2.299592 1_554
Na3 O6 2.312292 1_555
Na3 O14 2.334022 1_555
Na4 O3 2.211505 1_555
Na4 O0 2.304371 1_555
Na4 O16 2.308573 1_555
Na4 O8 2.553218 1_555
Na5 O4 2.311262 1_555
Na5 O15 2.320884 1_545
Na5 O7 2.396396 1_545
Na5 O1 2.408825 1_555
Na5 O8 2.453933 1_555
Na6 O19 2.311262 1_555
Na6 O8 2.320884 1_565
Na6 O16 2.396396 1_565
Na6 O22 2.408825 1_555
Na6 O15 2.453933 1_555
Na7 O20 2.211505 1_555
Na7 O23 2.304371 1_555
Na7 O7 2.308573 1_555
Na7 O15 2.553218 1_555
Na8 O21 2.277561 1_655
Na8 O23 2.282623 1_555
Na8 O12 2.299592 1_556
Na8 O17 2.312292 1_555
Na8 O9 2.334022 1_555
Na9 O14 2.311262 1_555
Na9 O2 2.320884 1_445
Na9 O18 2.396396 1_445
Na9 O12 2.408825 1_455
Na9 O21 2.453933 1_554
Na10 O15 2.277561 1_555
Na10 O13 2.282623 1_555
Na10 O22 2.299592 1_555
Na10 O20 2.312292 1_555
Na10 O4 2.334022 1_555
Na11 O17 2.211505 1_455
Na11 O13 2.304371 1_555
Na11 O5 2.308573 1_555
Na11 O21 2.553218 1_555
Ni0 O20 1.989782 1_565
Ni0 O11 2.004214 1_555
Ni0 O0 2.029280 1_556
Ni0 O7 2.045527 1_555
Ni0 O4 2.051963 1_565
Ni1 O17 1.989782 1_545
Ni1 O1 2.004214 1_555
Ni1 O10 2.029280 1_555
Ni1 O5 2.045527 1_655
Ni1 O9 2.051963 1_545
Ni2 O6 1.989782 1_565
Ni2 O22 2.004214 1_555
Ni2 O13 2.029280 1_555
Ni2 O18 2.045527 1_455
Ni2 O14 2.051963 1_565
Ni3 O3 1.989782 1_545
Ni3 O12 2.004214 1_555
Ni3 O23 2.029280 1_554
Ni3 O16 2.045527 1_555
Ni3 O19 2.051963 1_545
B0 O8 1.377507 1_555
B0 O22 1.387400 1_555
B0 O6 1.395143 1_555
B1 O7 1.383750 1_555
B1 O23 1.389866 1_565
B1 O9 1.402071 1_555
B2 O2 1.377507 1_555
B2 O12 1.387400 1_555
B2 O3 1.395143 1_555
B3 O5 1.383750 1_555
B3 O13 1.389866 1_545
B3 O4 1.402071 1_555
B4 O18 1.383750 1_555
B4 O10 1.389866 1_565
B4 O19 1.402071 1_555
B5 O21 1.377507 1_555
B5 O11 1.387400 1_555
B5 O20 1.395143 1_555
B6 O16 1.383750 1_555
B6 O0 1.389866 1_545
B6 O14 1.402071 1_555
B7 O15 1.377507 1_555
B7 O1 1.387400 1_555
B7 O17 1.395143 1_555
