# generated using pymatgen
data_Sr2Ti6N2O11
_symmetry_space_group_name_H-M   'P 1'
_cell_length_a   7.73727423
_cell_length_b   7.73727423
_cell_length_c   9.27398300
_cell_angle_alpha   81.57320665
_cell_angle_beta   81.57320665
_cell_angle_gamma   29.03652063
_symmetry_Int_Tables_number   1
_chemical_formula_structural   Sr2Ti6N2O11
_chemical_formula_sum   'Sr2 Ti6 N2 O11'
_cell_volume   266.36584326
_cell_formula_units_Z   1
loop_
 _symmetry_equiv_pos_site_id
 _symmetry_equiv_pos_as_xyz
  1  'x, y, z'
loop_
 _atom_site_type_symbol
 _atom_site_label
 _atom_site_symmetry_multiplicity
 _atom_site_fract_x
 _atom_site_fract_y
 _atom_site_fract_z
 _atom_site_occupancy
  Sr  Sr0  1  0.54508100  0.54508100  0.22583700  1
  Sr  Sr1  1  0.44874700  0.44874700  0.76420900  1
  Ti  Ti0  1  0.11722200  0.11722200  0.90228900  1
  Ti  Ti1  1  0.16996900  0.16996900  0.56176100  1
  Ti  Ti2  1  0.23353400  0.23353400  0.23412100  1
  Ti  Ti3  1  0.75207900  0.75207900  0.76923100  1
  Ti  Ti4  1  0.83462400  0.83462400  0.44796000  1
  Ti  Ti5  1  0.87774400  0.87774400  0.08977400  1
  N  N0  1  0.63840000  0.63840000  0.89143000  1
  N  N1  1  0.70597900  0.70597900  0.57476000  1
  O  O0  1  0.06851900  0.06851900  0.70856800  1
  O  O1  1  0.12610100  0.12610100  0.38375500  1
  O  O2  1  0.16003200  0.16003200  0.09829200  1
  O  O3  1  0.75656100  0.75656100  0.23722300  1
  O  O4  1  0.24604600  0.24604600  0.76077200  1
  O  O5  1  0.30177400  0.30177400  0.42563400  1
  O  O6  1  0.35928300  0.35928300  0.11455900  1
  O  O7  1  0.84303100  0.84303100  0.90473400  1
  O  O8  1  0.88496600  0.88496600  0.61145800  1
  O  O9  1  0.93108900  0.93108900  0.28869600  1
  O  O10  1  0.99921800  0.99921800  0.00494100  1
loop_
_geom_bond_atom_site_label_1
_geom_bond_atom_site_label_2
_geom_bond_distance
_geom_bond_site_symmetry_2
N0 Ti3 1.897386 1_555
N0 Ti0 1.965540 1_565
N0 Ti0 1.965540 1_655
N0 Sr0 3.203069 1_556
N1 Ti1 2.021744 1_655
N1 Ti1 2.021744 1_565
N1 Ti3 2.026499 1_555
N1 Ti4 2.100154 1_555
O0 Ti1 1.880658 1_555
O0 Ti0 2.038822 1_555
O0 Sr1 2.639595 1_455
O0 Sr1 2.639595 1_545
O1 Ti1 1.866958 1_555
O1 Ti2 1.959513 1_555
O1 Sr0 2.813953 1_545
O1 Sr0 2.813953 1_455
O2 Ti2 1.794189 1_555
O2 Ti0 2.017016 1_554
O2 Sr0 2.740439 1_455
O2 Sr0 2.740439 1_545
O3 Ti2 1.971053 1_565
O3 Ti2 1.971053 1_655
O3 Ti5 2.100926 1_555
O3 Ti4 2.424675 1_555
O3 Sr0 3.185753 1_555
O4 Ti3 1.943887 1_455
O4 Ti3 1.943887 1_545
O4 Ti0 2.163311 1_555
O4 Ti1 2.311274 1_555
O5 Ti4 2.019434 1_455
O5 Ti4 2.019434 1_545
O5 Ti1 2.176625 1_555
O5 Ti2 2.179268 1_555
O6 Ti5 1.967815 1_455
O6 Ti5 1.967815 1_545
O6 Ti2 2.036094 1_555
O6 Sr0 3.111522 1_555
O7 Ti5 1.866935 1_556
O7 Ti3 1.988456 1_555
O7 Sr1 2.709940 1_655
O7 Sr1 2.709940 1_565
O8 Ti4 1.792773 1_555
O8 Ti3 2.285156 1_555
O8 Sr1 2.663028 1_655
O8 Sr1 2.663028 1_565
O9 Ti4 1.903582 1_555
O9 Ti5 2.118545 1_555
O9 Sr0 2.591665 1_655
O9 Sr0 2.591665 1_565
O10 Ti5 1.870009 1_555
O10 Ti0 1.876624 1_664
O10 Sr0 2.976086 1_655
O10 Sr0 2.976086 1_565
