# generated using pymatgen
data_LiCrPO4
_symmetry_space_group_name_H-M   'P 1'
_cell_length_a   7.44501600
_cell_length_b   8.51529200
_cell_length_c   16.90033531
_cell_angle_alpha   61.73778409
_cell_angle_beta   90.00000000
_cell_angle_gamma   90.00000000
_symmetry_Int_Tables_number   1
_chemical_formula_structural   LiCrPO4
_chemical_formula_sum   'Li12 Cr12 P12 O48'
_cell_volume   943.69744591
_cell_formula_units_Z   12
loop_
 _symmetry_equiv_pos_site_id
 _symmetry_equiv_pos_as_xyz
  1  'x, y, z'
loop_
 _atom_site_type_symbol
 _atom_site_label
 _atom_site_symmetry_multiplicity
 _atom_site_fract_x
 _atom_site_fract_y
 _atom_site_fract_z
 _atom_site_occupancy
  Li  Li0  1  0.67511200  0.65448700  0.40467700  1
  Li  Li1  1  0.81240700  0.31970900  0.75880000  1
  Li  Li2  1  0.68544100  0.00793900  0.08109000  1
  Li  Li3  1  0.18544100  0.99206100  0.41891000  1
  Li  Li4  1  0.31240700  0.68029100  0.74120000  1
  Li  Li5  1  0.17511200  0.34551300  0.09532300  1
  Li  Li6  1  0.82488800  0.65448700  0.90467700  1
  Li  Li7  1  0.68759300  0.31970900  0.25880000  1
  Li  Li8  1  0.81455900  0.00793900  0.58109000  1
  Li  Li9  1  0.31455900  0.99206100  0.91891000  1
  Li  Li10  1  0.18759300  0.68029100  0.24120000  1
  Li  Li11  1  0.32488800  0.34551300  0.59532300  1
  Cr  Cr0  1  0.95334100  0.31209600  0.92716100  1
  Cr  Cr1  1  0.03228000  0.65620700  0.58290500  1
  Cr  Cr2  1  0.48267700  0.99871800  0.25139200  1
  Cr  Cr3  1  0.98267700  0.00128200  0.24860800  1
  Cr  Cr4  1  0.53228000  0.34379300  0.91709500  1
  Cr  Cr5  1  0.45334100  0.68790400  0.57283900  1
  Cr  Cr6  1  0.54665900  0.31209600  0.42716100  1
  Cr  Cr7  1  0.46772000  0.65620700  0.08290500  1
  Cr  Cr8  1  0.01732300  0.99871800  0.75139200  1
  Cr  Cr9  1  0.51732300  0.00128200  0.74860800  1
  Cr  Cr10  1  0.96772000  0.34379300  0.41709500  1
  Cr  Cr11  1  0.04665900  0.68790400  0.07283900  1
  P  P0  1  0.26392200  0.65011900  0.41035300  1
  P  P1  1  0.22429800  0.31591200  0.77163400  1
  P  P2  1  0.26799700  0.03520400  0.07745400  1
  P  P3  1  0.76799700  0.96479600  0.42254600  1
  P  P4  1  0.72429800  0.68408800  0.72836600  1
  P  P5  1  0.76392200  0.34988100  0.08964700  1
  P  P6  1  0.23607800  0.65011900  0.91035300  1
  P  P7  1  0.27570200  0.31591200  0.27163400  1
  P  P8  1  0.23200300  0.03520400  0.57745400  1
  P  P9  1  0.73200300  0.96479600  0.92254600  1
  P  P10  1  0.77570200  0.68408800  0.22836600  1
  P  P11  1  0.73607800  0.34988100  0.58964700  1
  O  O0  1  0.43611400  0.55774500  0.40058200  1
  O  O1  1  0.89572400  0.39853900  0.63171600  1
  O  O2  1  0.77587100  0.10071100  0.95732000  1
  O  O3  1  0.37310100  0.26360600  0.84405300  1
  O  O4  1  0.23204900  0.58936900  0.51353400  1
  O  O5  1  0.74627800  0.80049400  0.27639100  1
  O  O6  1  0.28070100  0.93157300  0.18369600  1
  O  O7  1  0.04191200  0.26075800  0.82206700  1
  O  O8  1  0.45280900  0.12232800  0.04156100  1
  O  O9  1  0.22315000  0.51626100  0.70116700  1
  O  O10  1  0.12329400  0.17994100  0.04890200  1
  O  O11  1  0.28742400  0.85511800  0.36160100  1
  O  O12  1  0.72315000  0.48373900  0.79883300  1
  O  O13  1  0.78742400  0.14488200  0.13839900  1
  O  O14  1  0.62329400  0.82005900  0.45109800  1
  O  O15  1  0.95280900  0.87767200  0.45843900  1
  O  O16  1  0.54191200  0.73924200  0.67793300  1
  O  O17  1  0.78070100  0.06842700  0.31630400  1
  O  O18  1  0.73204900  0.41063100  0.98646600  1
  O  O19  1  0.87310100  0.73639400  0.65594700  1
  O  O20  1  0.24627800  0.19950600  0.22360900  1
  O  O21  1  0.27587100  0.89928900  0.54268000  1
  O  O22  1  0.39572400  0.60146100  0.86828400  1
  O  O23  1  0.93611400  0.44225500  0.09941800  1
  O  O24  1  0.06388600  0.55774500  0.90058200  1
  O  O25  1  0.60427600  0.39853900  0.13171600  1
  O  O26  1  0.72412900  0.10071100  0.45732000  1
  O  O27  1  0.75372200  0.80049400  0.77639100  1
  O  O28  1  0.12689900  0.26360600  0.34405300  1
  O  O29  1  0.26795100  0.58936900  0.01353400  1
  O  O30  1  0.21929900  0.93157300  0.68369600  1
  O  O31  1  0.45808800  0.26075800  0.32206700  1
  O  O32  1  0.04719100  0.12232800  0.54156100  1
  O  O33  1  0.37670600  0.17994100  0.54890200  1
  O  O34  1  0.21257600  0.85511800  0.86160100  1
  O  O35  1  0.27685000  0.51626100  0.20116700  1
  O  O36  1  0.71257600  0.14488200  0.63839900  1
  O  O37  1  0.87670600  0.82005900  0.95109800  1
  O  O38  1  0.77685000  0.48373900  0.29883300  1
  O  O39  1  0.54719100  0.87767200  0.95843900  1
  O  O40  1  0.95808800  0.73924200  0.17793300  1
  O  O41  1  0.71929900  0.06842700  0.81630400  1
  O  O42  1  0.25372200  0.19950600  0.72360900  1
  O  O43  1  0.76795100  0.41063100  0.48646600  1
  O  O44  1  0.62689900  0.73639400  0.15594700  1
  O  O45  1  0.22412900  0.89928900  0.04268000  1
  O  O46  1  0.10427600  0.60146100  0.36828400  1
  O  O47  1  0.56388600  0.44225500  0.59941800  1
loop_
_geom_bond_atom_site_label_1
_geom_bond_atom_site_label_2
_geom_bond_distance
_geom_bond_site_symmetry_2
Li0 O14 1.949261 1_555
Li0 O0 1.975720 1_555
Li0 O5 1.993571 1_555
Li0 O43 1.995512 1_555
Li1 O12 1.935257 1_555
Li1 O7 1.951025 1_655
Li1 O41 2.008524 1_555
Li1 O1 2.020624 1_555
Li2 O8 1.943832 1_555
Li2 O2 1.971772 1_554
Li2 O13 1.985938 1_555
Li2 O44 2.089696 1_545
Li3 O15 1.943832 1_455
Li3 O21 1.971772 1_555
Li3 O11 1.985938 1_555
Li3 O28 2.089696 1_565
Li4 O9 1.935257 1_555
Li4 O16 1.951025 1_555
Li4 O30 2.008524 1_555
Li4 O22 2.020624 1_555
Li5 O10 1.949261 1_555
Li5 O23 1.975720 1_455
Li5 O20 1.993571 1_555
Li5 O29 1.995512 1_555
Li6 O37 1.949261 1_555
Li6 O24 1.975720 1_655
Li6 O27 1.993571 1_555
Li6 O18 1.995512 1_555
Li7 O38 1.935257 1_555
Li7 O31 1.951025 1_555
Li7 O17 2.008524 1_555
Li7 O25 2.020624 1_555
Li8 O32 1.943832 1_655
Li8 O26 1.971772 1_555
Li8 O36 1.985938 1_555
Li8 O19 2.089696 1_545
Li9 O39 1.943832 1_555
Li9 O45 1.971772 1_556
Li9 O34 1.985938 1_555
Li9 O3 2.089696 1_565
Li10 O35 1.935257 1_555
Li10 O40 1.951025 1_455
Li10 O6 2.008524 1_555
Li10 O46 2.020624 1_555
Li11 O33 1.949261 1_555
Li11 O47 1.975720 1_555
Li11 O42 1.993571 1_555
Li11 O4 1.995512 1_555
Cr0 O24 2.089212 1_655
Cr0 O2 2.092059 1_555
Cr0 O7 2.125054 1_655
Cr0 O10 2.215371 1_656
Cr0 O18 2.284579 1_555
Cr0 O12 2.602880 1_555
Cr1 O19 2.047617 1_455
Cr1 O4 2.131279 1_555
Cr1 O15 2.138815 1_455
Cr1 O1 2.194123 1_455
Cr1 O9 2.275638 1_555
Cr1 O21 2.589018 1_555
Cr2 O6 2.125201 1_555
Cr2 O11 2.218256 1_555
Cr2 O20 2.341172 1_565
Cr2 O5 2.490729 1_555
Cr2 O17 2.663751 1_565
Cr3 O17 2.125201 1_555
Cr3 O13 2.218256 1_555
Cr3 O5 2.341172 1_545
Cr3 O20 2.490729 1_655
Cr3 O6 2.663751 1_645
Cr4 O3 2.047617 1_555
Cr4 O18 2.131279 1_555
Cr4 O8 2.138815 1_556
Cr4 O22 2.194123 1_555
Cr4 O12 2.275638 1_555
Cr4 O2 2.589018 1_555
Cr5 O47 2.089212 1_555
Cr5 O21 2.092059 1_555
Cr5 O16 2.125054 1_555
Cr5 O14 2.215371 1_555
Cr5 O4 2.284579 1_555
Cr5 O9 2.602880 1_555
Cr6 O0 2.089212 1_555
Cr6 O26 2.092059 1_555
Cr6 O31 2.125054 1_555
Cr6 O33 2.215371 1_555
Cr6 O43 2.284579 1_555
Cr6 O38 2.602880 1_555
Cr7 O44 2.047617 1_555
Cr7 O29 2.131279 1_555
Cr7 O39 2.138815 1_554
Cr7 O25 2.194123 1_555
Cr7 O35 2.275638 1_555
Cr7 O45 2.589018 1_555
Cr8 O30 2.125201 1_555
Cr8 O34 2.218256 1_555
Cr8 O42 2.341172 1_565
Cr8 O27 2.490729 1_455
Cr8 O41 2.663751 1_465
Cr9 O41 2.125201 1_555
Cr9 O36 2.218256 1_555
Cr9 O27 2.341172 1_545
Cr9 O42 2.490729 1_555
Cr9 O30 2.663751 1_545
Cr10 O28 2.047617 1_655
Cr10 O43 2.131279 1_555
Cr10 O32 2.138815 1_655
Cr10 O46 2.194123 1_655
Cr10 O38 2.275638 1_555
Cr10 O26 2.589018 1_555
Cr11 O23 2.089212 1_455
Cr11 O45 2.092059 1_555
Cr11 O40 2.125054 1_455
Cr11 O37 2.215371 1_454
Cr11 O29 2.284579 1_555
Cr11 O35 2.602880 1_555
O0 P0 1.553209 1_555
O1 P11 1.539102 1_555
O2 P9 1.560657 1_545
O3 P1 1.551577 1_555
O4 P0 1.584441 1_555
O5 P10 1.565624 1_555
O6 P2 1.584634 1_565
O7 P1 1.552984 1_555
O8 P2 1.544460 1_555
O9 P1 1.550744 1_555
O10 P2 1.532726 1_555
O11 P0 1.547456 1_555
O12 P4 1.550744 1_555
O13 P5 1.547456 1_555
O14 P3 1.532726 1_555
O15 P3 1.544460 1_555
O16 P4 1.552984 1_555
O17 P3 1.584634 1_545
O18 P5 1.584441 1_556
O19 P4 1.551577 1_555
O20 P7 1.565624 1_555
O21 P8 1.560657 1_565
O22 P6 1.539102 1_555
O23 P5 1.553209 1_555
O24 P6 1.553209 1_555
O25 P5 1.539102 1_555
O26 P3 1.560657 1_545
O27 P4 1.565624 1_555
O28 P7 1.551577 1_555
O29 P6 1.584441 1_554
O30 P8 1.584634 1_565
O31 P7 1.552984 1_555
O32 P8 1.544460 1_555
O33 P8 1.532726 1_555
O34 P6 1.547456 1_555
O35 P7 1.550744 1_555
O36 P11 1.547456 1_555
O37 P9 1.532726 1_555
O38 P10 1.550744 1_555
O39 P9 1.544460 1_555
O40 P10 1.552984 1_555
O41 P9 1.584634 1_545
O42 P1 1.565624 1_555
O43 P11 1.584441 1_555
O44 P10 1.551577 1_555
O45 P2 1.560657 1_565
O46 P0 1.539102 1_555
O47 P11 1.553209 1_555
