# generated using pymatgen
data_BaYF5
_symmetry_space_group_name_H-M   'P 1'
_cell_length_a   3.90673800
_cell_length_b   3.90673800
_cell_length_c   6.76397700
_cell_angle_alpha   90.00000000
_cell_angle_beta   90.00000000
_cell_angle_gamma   90.00000000
_symmetry_Int_Tables_number   1
_chemical_formula_structural   BaYF5
_chemical_formula_sum   'Ba1 Y1 F5'
_cell_volume   103.23588754
_cell_formula_units_Z   1
loop_
 _symmetry_equiv_pos_site_id
 _symmetry_equiv_pos_as_xyz
  1  'x, y, z'
loop_
 _atom_site_type_symbol
 _atom_site_label
 _atom_site_symmetry_multiplicity
 _atom_site_fract_x
 _atom_site_fract_y
 _atom_site_fract_z
 _atom_site_occupancy
  Ba  Ba0  1  0.50000000  0.50000000  0.50000000  1
  Y  Y0  1  0.00000000  0.00000000  0.00000000  1
  F  F0  1  0.50000000  0.00000000  0.81447900  1
  F  F1  1  0.50000000  0.00000000  0.18552100  1
  F  F2  1  0.00000000  0.50000000  0.81447900  1
  F  F3  1  0.00000000  0.50000000  0.18552100  1
  F  F4  1  0.00000000  0.00000000  0.50000000  1
loop_
_geom_bond_atom_site_label_1
_geom_bond_atom_site_label_2
_geom_bond_distance
_geom_bond_site_symmetry_2
Ba0 F4 2.762481 1_555
Ba0 F4 2.762481 1_665
Ba0 F4 2.762481 1_565
Ba0 F4 2.762481 1_655
Ba0 F0 2.887962 1_555
Ba0 F2 2.887962 1_655
Ba0 F0 2.887962 1_565
Ba0 F3 2.887962 1_655
Ba0 F1 2.887962 1_555
Ba0 F1 2.887962 1_565
Ba0 F2 2.887962 1_555
Ba0 F3 2.887962 1_555
F0 Y0 2.321707 1_556
F0 Y0 2.321707 1_656
F1 Y0 2.321707 1_555
F1 Y0 2.321707 1_655
F2 Y0 2.321707 1_556
F2 Y0 2.321707 1_566
F3 Y0 2.321707 1_565
F3 Y0 2.321707 1_555
