# generated using pymatgen
data_VCr(PO4)2
_symmetry_space_group_name_H-M   'P 1'
_cell_length_a   8.56078069
_cell_length_b   8.56078069
_cell_length_c   8.56078084
_cell_angle_alpha   60.34393590
_cell_angle_beta   60.34393590
_cell_angle_gamma   60.34393554
_symmetry_Int_Tables_number   1
_chemical_formula_structural   VCr(PO4)2
_chemical_formula_sum   'V3 Cr3 P6 O24'
_cell_volume   447.08613499
_cell_formula_units_Z   3
loop_
 _symmetry_equiv_pos_site_id
 _symmetry_equiv_pos_as_xyz
  1  'x, y, z'
loop_
 _atom_site_type_symbol
 _atom_site_label
 _atom_site_symmetry_multiplicity
 _atom_site_fract_x
 _atom_site_fract_y
 _atom_site_fract_z
 _atom_site_occupancy
  V  V0  1  0.35608300  0.35608300  0.35608300  1
  V  V1  1  0.14312300  0.14312300  0.14312300  1
  V  V2  1  0.64338900  0.64338900  0.64338900  1
  Cr  Cr0  1  0.99975700  0.99975700  0.99975700  1
  Cr  Cr1  1  0.85728000  0.85728000  0.85728000  1
  Cr  Cr2  1  0.49948600  0.49948600  0.49948600  1
  P  P0  1  0.74999100  0.04254400  0.45789300  1
  P  P1  1  0.04254400  0.45789300  0.74999100  1
  P  P2  1  0.45789300  0.74999100  0.04254400  1
  P  P3  1  0.54365100  0.24986900  0.95656900  1
  P  P4  1  0.95656900  0.54365100  0.24986900  1
  P  P5  1  0.24986900  0.95656900  0.54365100  1
  O  O0  1  0.88432000  0.49387700  0.68902400  1
  O  O1  1  0.49387700  0.68902400  0.88432000  1
  O  O2  1  0.68902400  0.88432000  0.49387700  1
  O  O3  1  0.91168100  0.05940900  0.25813600  1
  O  O4  1  0.80972400  0.00948900  0.61451000  1
  O  O5  1  0.58631800  0.24099100  0.43865700  1
  O  O6  1  0.05940900  0.25813600  0.91168100  1
  O  O7  1  0.24099100  0.43865700  0.58631800  1
  O  O8  1  0.38613200  0.18879800  0.99272900  1
  O  O9  1  0.43865700  0.58631800  0.24099100  1
  O  O10  1  0.74202200  0.08750300  0.94321500  1
  O  O11  1  0.99272900  0.38613200  0.18879800  1
  O  O12  1  0.00948900  0.61451000  0.80972400  1
  O  O13  1  0.25813600  0.91168100  0.05940900  1
  O  O14  1  0.56102800  0.41252700  0.75805400  1
  O  O15  1  0.61451000  0.80972400  0.00948900  1
  O  O16  1  0.75805400  0.56102800  0.41252700  1
  O  O17  1  0.94321500  0.74202200  0.08750300  1
  O  O18  1  0.41252700  0.75805400  0.56102800  1
  O  O19  1  0.18879800  0.99272900  0.38613200  1
  O  O20  1  0.08750300  0.94321500  0.74202200  1
  O  O21  1  0.31434700  0.11373600  0.50412500  1
  O  O22  1  0.50412500  0.31434700  0.11373600  1
  O  O23  1  0.11373600  0.50412500  0.31434700  1
loop_
_geom_bond_atom_site_label_1
_geom_bond_atom_site_label_2
_geom_bond_distance
_geom_bond_site_symmetry_2
Cr0 O17 2.173417 1_556
Cr0 O10 2.173417 1_565
Cr0 O20 2.173417 1_655
Cr0 O6 2.192773 1_665
Cr0 O13 2.192773 1_656
Cr0 O3 2.192773 1_566
Cr1 O12 1.953310 1_655
Cr1 O15 1.953310 1_556
Cr1 O4 1.953310 1_565
Cr1 O20 2.047258 1_655
Cr1 O10 2.047258 1_565
Cr1 O17 2.047259 1_556
Cr2 O7 2.202320 1_555
Cr2 O5 2.202320 1_555
Cr2 O9 2.202320 1_555
Cr2 O16 2.206079 1_555
Cr2 O18 2.206079 1_555
Cr2 O14 2.206079 1_555
O0 P1 1.526304 1_655
O0 V2 1.932646 1_555
O1 P2 1.526304 1_556
O1 V2 1.932646 1_555
O2 P0 1.526304 1_565
O2 V2 1.932646 1_555
O3 P0 1.572327 1_555
O3 V1 2.045741 1_655
O4 P0 1.516258 1_555
O5 P0 1.572390 1_555
O5 V0 2.030536 1_555
O6 P1 1.572327 1_555
O6 V1 2.045741 1_556
O7 P1 1.572390 1_555
O7 V0 2.030536 1_555
O8 P3 1.520526 1_555
O8 V1 1.947980 1_556
O9 P2 1.572390 1_555
O9 V0 2.030536 1_555
O10 P3 1.567887 1_555
O11 P4 1.520526 1_555
O11 V1 1.947980 1_655
O12 P1 1.516258 1_555
O13 P2 1.572327 1_555
O13 V1 2.045741 1_565
O14 P3 1.569157 1_555
O14 V2 2.034928 1_555
O15 P2 1.516258 1_555
O16 P4 1.569157 1_555
O16 V2 2.034928 1_555
O17 P4 1.567887 1_555
O18 P5 1.569157 1_555
O18 V2 2.034928 1_555
O19 P5 1.520526 1_555
O19 V1 1.947980 1_565
O20 P5 1.567887 1_555
O21 P5 1.526125 1_545
O21 V0 1.929150 1_555
O22 P3 1.526125 1_554
O22 V0 1.929150 1_555
O23 P4 1.526125 1_455
O23 V0 1.929150 1_555
