# generated using pymatgen
data_Ti3Mn2Fe(PO4)6
_symmetry_space_group_name_H-M   'P 1'
_cell_length_a   8.65999350
_cell_length_b   8.65999350
_cell_length_c   8.65999375
_cell_angle_alpha   60.19751275
_cell_angle_beta   60.19751275
_cell_angle_gamma   60.19751122
_symmetry_Int_Tables_number   1
_chemical_formula_structural   Ti3Mn2Fe(PO4)6
_chemical_formula_sum   'Ti3 Mn2 Fe1 P6 O24'
_cell_volume   461.29182529
_cell_formula_units_Z   1
loop_
 _symmetry_equiv_pos_site_id
 _symmetry_equiv_pos_as_xyz
  1  'x, y, z'
loop_
 _atom_site_type_symbol
 _atom_site_label
 _atom_site_symmetry_multiplicity
 _atom_site_fract_x
 _atom_site_fract_y
 _atom_site_fract_z
 _atom_site_occupancy
  Ti  Ti0  1  0.85588900  0.85588900  0.85588900  1
  Ti  Ti1  1  0.64602900  0.64602900  0.64602900  1
  Ti  Ti2  1  0.35264700  0.35264700  0.35264700  1
  Mn  Mn0  1  0.00401000  0.00401000  0.00401000  1
  Mn  Mn1  1  0.50050400  0.50050400  0.50050400  1
  Fe  Fe0  1  0.14520100  0.14520100  0.14520100  1
  P  P0  1  0.74709600  0.45817600  0.04410700  1
  P  P1  1  0.45817600  0.04410700  0.74709600  1
  P  P2  1  0.04410700  0.74709600  0.45817600  1
  P  P3  1  0.95315500  0.24807000  0.54498500  1
  P  P4  1  0.54498500  0.95315500  0.24807000  1
  P  P5  1  0.24807000  0.54498500  0.95315500  1
  O  O0  1  0.88507700  0.67600300  0.51301500  1
  O  O1  1  0.67600300  0.51301500  0.88507700  1
  O  O2  1  0.93931200  0.08763500  0.74132300  1
  O  O3  1  0.51301500  0.88507700  0.67600300  1
  O  O4  1  0.98284900  0.19011100  0.39322000  1
  O  O5  1  0.76142900  0.41446700  0.56947600  1
  O  O6  1  0.74132300  0.93931200  0.08763500  1
  O  O7  1  0.56947600  0.76142900  0.41446700  1
  O  O8  1  0.80972200  0.62105900  0.99816000  1
  O  O9  1  0.41446700  0.56947600  0.76142900  1
  O  O10  1  0.90447300  0.26823800  0.05278900  1
  O  O11  1  0.62105900  0.99816000  0.80972200  1
  O  O12  1  0.39322000  0.98284900  0.19011100  1
  O  O13  1  0.08763500  0.74132300  0.93931200  1
  O  O14  1  0.58157000  0.44761700  0.23607500  1
  O  O15  1  0.19011100  0.39322000  0.98284900  1
  O  O16  1  0.44761700  0.23607500  0.58157000  1
  O  O17  1  0.26823800  0.05278900  0.90447300  1
  O  O18  1  0.23607500  0.58157000  0.44761700  1
  O  O19  1  0.99816000  0.80972200  0.62105900  1
  O  O20  1  0.49799400  0.11934100  0.30917800  1
  O  O21  1  0.05278900  0.90447300  0.26823800  1
  O  O22  1  0.30917800  0.49799400  0.11934100  1
  O  O23  1  0.11934100  0.30917800  0.49799400  1
loop_
_geom_bond_atom_site_label_1
_geom_bond_atom_site_label_2
_geom_bond_distance
_geom_bond_site_symmetry_2
Mn0 O10 2.189893 1_455
Mn0 O17 2.189893 1_554
Mn0 O21 2.189893 1_545
Mn0 O13 2.288980 1_544
Mn0 O6 2.288980 1_445
Mn0 O2 2.288980 1_454
Mn1 O18 2.251980 1_555
Mn1 O16 2.251980 1_555
Mn1 O14 2.251980 1_555
Mn1 O5 2.289854 1_555
Mn1 O7 2.289854 1_555
Mn1 O9 2.289854 1_555
Fe0 O12 2.006562 1_545
Fe0 O15 2.006562 1_554
Fe0 O4 2.006562 1_455
Fe0 O10 2.173601 1_455
Fe0 O21 2.173601 1_545
Fe0 O17 2.173601 1_554
O0 P2 1.550263 1_655
O0 Ti1 1.883179 1_555
O1 P0 1.550263 1_556
O1 Ti1 1.883179 1_555
O2 P3 1.565385 1_555
O2 Ti0 2.069657 1_545
O3 P1 1.550263 1_565
O3 Ti1 1.883179 1_555
O4 P3 1.495620 1_555
O5 P3 1.566431 1_555
O5 Ti1 2.032339 1_555
O6 P4 1.565385 1_555
O6 Ti0 2.069657 1_554
O7 P4 1.566431 1_555
O7 Ti1 2.032339 1_555
O8 P0 1.558900 1_556
O8 Ti0 1.908254 1_555
O9 P5 1.566431 1_555
O9 Ti1 2.032339 1_555
O10 P0 1.522907 1_555
O11 P1 1.558900 1_565
O11 Ti0 1.908254 1_555
O12 P4 1.495620 1_555
O13 P5 1.565385 1_555
O13 Ti0 2.069657 1_455
O14 P0 1.561173 1_555
O14 Ti2 2.105176 1_555
O15 P5 1.495620 1_555
O16 P1 1.561173 1_555
O16 Ti2 2.105176 1_555
O17 P1 1.522907 1_555
O18 P2 1.561172 1_555
O18 Ti2 2.105176 1_555
O19 P2 1.558900 1_655
O19 Ti0 1.908254 1_555
O20 P4 1.574066 1_545
O20 Ti2 1.888196 1_555
O21 P2 1.522907 1_555
O22 P5 1.574066 1_554
O22 Ti2 1.888196 1_555
O23 P3 1.574066 1_455
O23 Ti2 1.888196 1_555
