# generated using pymatgen
data_CaGa2Cu3(RuO6)2
_symmetry_space_group_name_H-M   'P 1'
_cell_length_a   12.95508822
_cell_length_b   7.47962421
_cell_length_c   7.47962400
_cell_angle_alpha   90.00000000
_cell_angle_beta   54.73560852
_cell_angle_gamma   54.73561121
_symmetry_Int_Tables_number   1
_chemical_formula_structural   CaGa2Cu3(RuO6)2
_chemical_formula_sum   'Ca2 Ga4 Cu6 Ru4 O24'
_cell_volume   418.44586712
_cell_formula_units_Z   2
loop_
 _symmetry_equiv_pos_site_id
 _symmetry_equiv_pos_as_xyz
  1  'x, y, z'
loop_
 _atom_site_type_symbol
 _atom_site_label
 _atom_site_symmetry_multiplicity
 _atom_site_fract_x
 _atom_site_fract_y
 _atom_site_fract_z
 _atom_site_occupancy
  Ca  Ca0  1  0.00000000  0.00000000  0.00000000  1
  Ca  Ca1  1  0.50000000  0.00000000  0.00000000  1
  Ga  Ga0  1  0.25000000  0.00000000  0.50000000  1
  Ga  Ga1  1  0.25000000  0.50000000  0.00000000  1
  Ga  Ga2  1  0.75000000  0.00000000  0.00000000  1
  Ga  Ga3  1  0.75000000  0.50000000  0.50000000  1
  Cu  Cu0  1  0.00000000  0.00000000  0.50000000  1
  Cu  Cu1  1  0.00000000  0.50000000  0.00000000  1
  Cu  Cu2  1  0.00000000  0.50000000  0.50000000  1
  Cu  Cu3  1  0.50000000  0.00000000  0.50000000  1
  Cu  Cu4  1  0.50000000  0.50000000  0.00000000  1
  Cu  Cu5  1  0.50000000  0.50000000  0.50000000  1
  Ru  Ru0  1  0.25000000  0.00000000  0.00000000  1
  Ru  Ru1  1  0.25000000  0.50000000  0.50000000  1
  Ru  Ru2  1  0.75000000  0.00000000  0.50000000  1
  Ru  Ru3  1  0.75000000  0.50000000  0.00000000  1
  O  O0  1  0.00089600  0.30605200  0.17284600  1
  O  O1  1  0.99910400  0.69394800  0.17463700  1
  O  O2  1  0.19305200  0.13320600  0.30605200  1
  O  O3  1  0.19305200  0.48069000  0.30784400  1
  O  O4  1  0.17374200  0.82715400  0.13320600  1
  O  O5  1  0.00089600  0.69215600  0.82536300  1
  O  O6  1  0.32625800  0.17463700  0.48069000  1
  O  O7  1  0.17374200  0.82536300  0.51931000  1
  O  O8  1  0.49910400  0.30784400  0.17463700  1
  O  O9  1  0.32625800  0.17284600  0.86679400  1
  O  O10  1  0.30694800  0.51931000  0.69215600  1
  O  O11  1  0.50089600  0.69215600  0.17284600  1
  O  O12  1  0.30694800  0.86679400  0.69394800  1
  O  O13  1  0.69305200  0.13320600  0.30784400  1
  O  O14  1  0.50089600  0.30605200  0.82536300  1
  O  O15  1  0.69305200  0.48069000  0.30605200  1
  O  O16  1  0.67374200  0.82536300  0.13320600  1
  O  O17  1  0.49910400  0.69394800  0.82715400  1
  O  O18  1  0.82625800  0.17284600  0.48069000  1
  O  O19  1  0.67374200  0.82715400  0.51931000  1
  O  O20  1  0.82625800  0.17463700  0.86679400  1
  O  O21  1  0.80694800  0.51931000  0.69394800  1
  O  O22  1  0.80694800  0.86679400  0.69215600  1
  O  O23  1  0.99910400  0.30784400  0.82715400  1
loop_
_geom_bond_atom_site_label_1
_geom_bond_atom_site_label_2
_geom_bond_distance
_geom_bond_site_symmetry_2
Ca0 O1 2.638133 1_445
Ca0 O5 2.638133 1_544
Ca0 O12 2.638136 1_544
Ca0 O13 2.638136 1_455
Ca0 O7 2.638136 1_544
Ca0 O20 2.638136 1_454
Ca0 O4 2.638136 1_545
Ca0 O18 2.638136 1_455
Ca0 O15 2.638136 1_455
Ca0 O10 2.638136 1_544
Ca0 O0 2.638136 1_555
Ca0 O23 2.638136 1_454
Ca1 O14 2.638133 1_554
Ca1 O8 2.638133 1_555
Ca1 O22 2.638136 1_544
Ca1 O2 2.638136 1_555
Ca1 O16 2.638136 1_545
Ca1 O6 2.638136 1_555
Ca1 O19 2.638136 1_544
Ca1 O9 2.638136 1_554
Ca1 O21 2.638136 1_544
Ca1 O3 2.638136 1_555
Ca1 O17 2.638136 1_544
Ca1 O11 2.638136 1_545
Ga0 O6 2.007087 1_555
Ga0 O7 2.007087 1_545
Ga0 O23 2.007093 1_455
Ga0 O11 2.007093 1_545
Ga0 O12 2.007094 1_545
Ga0 O2 2.007094 1_555
Ga1 O3 2.007094 1_555
Ga1 O10 2.007094 1_554
Ga1 O4 2.007094 1_555
Ga1 O9 2.007094 1_554
Ga1 O14 2.007095 1_554
Ga1 O1 2.007095 1_455
Ga2 O16 2.007087 1_545
Ga2 O20 2.007087 1_554
Ga2 O13 2.007094 1_555
Ga2 O22 2.007094 1_544
Ga2 O8 2.007096 1_555
Ga2 O5 2.007096 1_644
Ga3 O0 2.007093 1_655
Ga3 O17 2.007093 1_555
Ga3 O21 2.007094 1_555
Ga3 O15 2.007094 1_555
Ga3 O19 2.007094 1_555
Ga3 O18 2.007094 1_555
Cu0 O20 1.942632 1_455
Cu0 O7 1.942632 1_545
Cu0 O18 1.942632 1_455
Cu0 O4 1.942632 1_545
Cu1 O5 1.942627 1_554
Cu1 O1 1.942627 1_455
Cu1 O23 1.942632 1_454
Cu1 O0 1.942632 1_555
Cu2 O21 1.942632 1_455
Cu2 O3 1.942632 1_555
Cu2 O22 1.942632 1_455
Cu2 O2 1.942632 1_555
Cu3 O6 1.942632 1_555
Cu3 O16 1.942632 1_545
Cu3 O19 1.942632 1_545
Cu3 O9 1.942632 1_555
Cu4 O8 1.942627 1_555
Cu4 O14 1.942627 1_554
Cu4 O11 1.942632 1_555
Cu4 O17 1.942632 1_554
Cu5 O10 1.942632 1_555
Cu5 O15 1.942632 1_555
Cu5 O12 1.942632 1_555
Cu5 O13 1.942632 1_555
O0 Ru0 1.994567 1_555
O1 Ru2 1.994569 1_565
O2 Ru0 1.994567 1_555
O3 Ru1 1.994567 1_555
O4 Ru0 1.994567 1_565
O5 Ru1 1.994569 1_555
O6 Ru1 1.994574 1_555
O7 Ru1 1.994574 1_555
O8 Ru1 1.994569 1_555
O9 Ru0 1.994567 1_556
O10 Ru1 1.994567 1_555
O11 Ru3 1.994567 1_555
O12 Ru0 1.994567 1_566
O13 Ru2 1.994567 1_555
O14 Ru2 1.994569 1_555
O15 Ru3 1.994567 1_555
O16 Ru3 1.994574 1_555
O17 Ru0 1.994567 1_566
O18 Ru2 1.994567 1_555
O19 Ru2 1.994567 1_565
O20 Ru3 1.994574 1_556
O21 Ru3 1.994567 1_556
O22 Ru2 1.994567 1_565
O23 Ru3 1.994567 1_556
