# generated using pymatgen
data_LiVOF3
_symmetry_space_group_name_H-M   'P 1'
_cell_length_a   4.50791229
_cell_length_b   11.84013613
_cell_length_c   4.79589900
_cell_angle_alpha   90.00069956
_cell_angle_beta   90.00145137
_cell_angle_gamma   90.48638298
_symmetry_Int_Tables_number   1
_chemical_formula_structural   LiVOF3
_chemical_formula_sum   'Li4 V4 O4 F12'
_cell_volume   255.96850587
_cell_formula_units_Z   4
loop_
 _symmetry_equiv_pos_site_id
 _symmetry_equiv_pos_as_xyz
  1  'x, y, z'
loop_
 _atom_site_type_symbol
 _atom_site_label
 _atom_site_symmetry_multiplicity
 _atom_site_fract_x
 _atom_site_fract_y
 _atom_site_fract_z
 _atom_site_occupancy
  Li  Li0  1  0.00789400  0.05661300  0.25377900  1
  Li  Li1  1  0.99200400  0.94339900  0.74620000  1
  Li  Li2  1  0.50789500  0.55661100  0.24622000  1
  Li  Li3  1  0.49200000  0.44340000  0.75379900  1
  V  V0  1  0.02724700  0.68147000  0.71981800  1
  V  V1  1  0.97291500  0.31853300  0.28019400  1
  V  V2  1  0.47294900  0.81853800  0.21982100  1
  V  V3  1  0.52722100  0.18147000  0.78016700  1
  O  O0  1  0.23788000  0.80226300  0.94327900  1
  O  O1  1  0.26208300  0.69771200  0.44330200  1
  O  O2  1  0.73786000  0.30226100  0.55674600  1
  O  O3  1  0.76207400  0.19770900  0.05668400  1
  F  F0  1  0.23926000  0.19577600  0.43502200  1
  F  F1  1  0.25255600  0.06891500  0.90887100  1
  F  F2  1  0.25993400  0.93243800  0.41615500  1
  F  F3  1  0.24004600  0.56751900  0.91623800  1
  F  F4  1  0.24746100  0.43114300  0.40892400  1
  F  F5  1  0.26072600  0.30421500  0.93499000  1
  F  F6  1  0.73926300  0.69577900  0.06497900  1
  F  F7  1  0.75992800  0.43243600  0.08384400  1
  F  F8  1  0.75255100  0.56891300  0.59112700  1
  F  F9  1  0.74004700  0.06751800  0.58375800  1
  F  F10  1  0.74747900  0.93115000  0.09107200  1
  F  F11  1  0.76072400  0.80421800  0.56501100  1
loop_
_geom_bond_atom_site_label_1
_geom_bond_atom_site_label_2
_geom_bond_distance
_geom_bond_site_symmetry_2
Li0 O3 2.223457 1_455
Li1 O0 2.223910 1_655
Li2 O1 2.223464 1_555
Li3 O2 2.223854 1_555
O0 V2 1.707476 1_556
O0 V0 2.018033 1_555
O1 V0 1.706732 1_555
O1 V2 2.018891 1_555
O2 V1 1.707516 1_555
O2 V3 2.017971 1_555
O3 V3 1.706734 1_554
O3 V1 2.018852 1_555
F0 V1 2.033495 1_455
F0 V3 2.111243 1_555
F0 Li0 2.128154 1_555
F1 V3 1.913661 1_555
F1 Li0 1.992787 1_556
F1 Li1 2.041338 1_445
F2 V2 1.910338 1_555
F2 Li1 1.995956 1_455
F2 Li0 2.021708 1_565
F3 V0 1.910468 1_555
F3 Li2 1.995406 1_556
F3 Li3 2.021127 1_555
F4 V1 1.913777 1_455
F4 Li3 1.992263 1_555
F4 Li2 2.040721 1_555
F5 V3 2.033797 1_555
F5 V1 2.111109 1_456
F5 Li3 2.128090 1_555
F6 V2 2.033463 1_555
F6 V0 2.111418 1_654
F6 Li2 2.128238 1_555
F7 V1 1.910329 1_555
F7 Li3 1.995908 1_554
F7 Li2 2.021698 1_555
F8 V0 1.913716 1_655
F8 Li2 1.992719 1_555
F8 Li3 2.041348 1_555
F9 V3 1.910520 1_555
F9 Li0 1.995432 1_655
F9 Li1 2.021132 1_545
F10 V2 1.913807 1_555
F10 Li1 1.992260 1_554
F10 Li0 2.040598 1_665
F11 V0 2.033861 1_655
F11 V2 2.110910 1_555
F11 Li1 2.128025 1_555
