# generated using pymatgen
data_RbGdS2
_symmetry_space_group_name_H-M   'P 1'
_cell_length_a   8.01792258
_cell_length_b   8.01792258
_cell_length_c   8.01792151
_cell_angle_alpha   29.74088916
_cell_angle_beta   29.74088916
_cell_angle_gamma   29.74089297
_symmetry_Int_Tables_number   1
_chemical_formula_structural   RbGdS2
_chemical_formula_sum   'Rb1 Gd1 S2'
_cell_volume   112.31737684
_cell_formula_units_Z   1
loop_
 _symmetry_equiv_pos_site_id
 _symmetry_equiv_pos_as_xyz
  1  'x, y, z'
loop_
 _atom_site_type_symbol
 _atom_site_label
 _atom_site_symmetry_multiplicity
 _atom_site_fract_x
 _atom_site_fract_y
 _atom_site_fract_z
 _atom_site_occupancy
  Rb  Rb0  1  0.00000000  0.00000000  -0.00000000  1
  Gd  Gd0  1  0.50000000  0.50000000  0.50000000  1
  S  S0  1  0.76869624  0.76869624  0.76869624  1
  S  S1  1  0.23130376  0.23130376  0.23130376  1
loop_
_geom_bond_atom_site_label_1
_geom_bond_atom_site_label_2
_geom_bond_distance
_geom_bond_site_symmetry_2
Rb0 S1 3.337591 1_554
Rb0 S0 3.337591 1_445
Rb0 S1 3.337592 1_455
Rb0 S1 3.337592 1_545
Rb0 S0 3.337592 1_544
Rb0 S0 3.337592 1_454
Gd0 S1 2.801853 1_556
Gd0 S0 2.801853 1_554
Gd0 S0 2.801854 1_545
Gd0 S1 2.801854 1_655
Gd0 S0 2.801854 1_455
Gd0 S1 2.801854 1_565
