# generated using pymatgen
data_Li13Mn8O24
_symmetry_space_group_name_H-M   'P 1'
_cell_length_a   8.60629800
_cell_length_b   4.99490900
_cell_length_c   9.72288545
_cell_angle_alpha   80.58517821
_cell_angle_beta   90.00000000
_cell_angle_gamma   90.00000000
_symmetry_Int_Tables_number   1
_chemical_formula_structural   Li13Mn8O24
_chemical_formula_sum   'Li13 Mn8 O24'
_cell_volume   412.33421385
_cell_formula_units_Z   1
loop_
 _symmetry_equiv_pos_site_id
 _symmetry_equiv_pos_as_xyz
  1  'x, y, z'
loop_
 _atom_site_type_symbol
 _atom_site_label
 _atom_site_symmetry_multiplicity
 _atom_site_fract_x
 _atom_site_fract_y
 _atom_site_fract_z
 _atom_site_occupancy
  Li  Li0  1  0.50000000  0.00000000  0.00000000  1
  Li  Li1  1  0.84709500  0.75328000  0.74938900  1
  Li  Li2  1  0.34716700  0.74583100  0.25402100  1
  Li  Li3  1  0.00000000  0.74939200  0.25008900  1
  Li  Li4  1  0.65283300  0.74583100  0.25402100  1
  Li  Li5  1  0.15290500  0.75328000  0.74938900  1
  Li  Li6  1  0.50000000  0.74220400  0.74856800  1
  Li  Li7  1  0.34716700  0.25416900  0.74597900  1
  Li  Li8  1  0.84709500  0.24672000  0.25061100  1
  Li  Li9  1  0.50000000  0.25779600  0.25143200  1
  Li  Li10  1  0.15290500  0.24672000  0.25061100  1
  Li  Li11  1  0.65283300  0.25416900  0.74597900  1
  Li  Li12  1  0.00000000  0.25060800  0.74991100  1
  Mn  Mn0  1  0.66731100  0.00000000  0.50000000  1
  Mn  Mn1  1  0.33268900  0.00000000  0.50000000  1
  Mn  Mn2  1  0.16943600  0.00000000  0.00000000  1
  Mn  Mn3  1  0.83056400  0.00000000  0.00000000  1
  Mn  Mn4  1  0.16703800  0.50000000  0.50000000  1
  Mn  Mn5  1  0.83296200  0.50000000  0.50000000  1
  Mn  Mn6  1  0.67525900  0.50000000  0.00000000  1
  Mn  Mn7  1  0.32474100  0.50000000  0.00000000  1
  O  O0  1  0.50000000  0.91044400  0.38353100  1
  O  O1  1  0.81472200  0.85128500  0.38607200  1
  O  O2  1  0.18527800  0.85128500  0.38607200  1
  O  O3  1  0.00000000  0.90803200  0.88300900  1
  O  O4  1  0.68600600  0.64870000  0.61451400  1
  O  O5  1  0.31399400  0.64870000  0.61451400  1
  O  O6  1  0.68469600  0.85635200  0.88791000  1
  O  O7  1  0.31530400  0.85635200  0.88791000  1
  O  O8  1  0.00000000  0.59003600  0.61625900  1
  O  O9  1  0.82064600  0.64825700  0.11414500  1
  O  O10  1  0.17935400  0.64825700  0.11414500  1
  O  O11  1  0.50000000  0.60563800  0.11356000  1
  O  O12  1  0.00000000  0.40996400  0.38374100  1
  O  O13  1  0.31399400  0.35130000  0.38548600  1
  O  O14  1  0.68600600  0.35130000  0.38548600  1
  O  O15  1  0.50000000  0.39436200  0.88644000  1
  O  O16  1  0.18527800  0.14871500  0.61392800  1
  O  O17  1  0.81472200  0.14871500  0.61392800  1
  O  O18  1  0.17935400  0.35174300  0.88585500  1
  O  O19  1  0.82064600  0.35174300  0.88585500  1
  O  O20  1  0.50000000  0.08955600  0.61646900  1
  O  O21  1  0.31530400  0.14364800  0.11209000  1
  O  O22  1  0.68469600  0.14364800  0.11209000  1
  O  O23  1  0.00000000  0.09196800  0.11699100  1
loop_
_geom_bond_atom_site_label_1
_geom_bond_atom_site_label_2
_geom_bond_distance
_geom_bond_site_symmetry_2
Li0 O15 2.094678 1_554
Li0 O11 2.094678 1_545
Li0 O22 2.117797 1_555
Li0 O6 2.117797 1_544
Li0 O21 2.117797 1_555
Li0 O7 2.117797 1_544
Li1 O4 2.034387 1_555
Li1 O6 2.063802 1_555
Li1 O3 2.084608 1_655
Li1 O8 2.101753 1_655
Li1 O17 2.205102 1_565
Li1 O19 2.228068 1_555
Li2 O2 2.021962 1_555
Li2 O0 2.080981 1_555
Li2 O10 2.095193 1_555
Li2 O11 2.097238 1_555
Li2 O13 2.185110 1_555
Li2 O21 2.242952 1_565
Li3 O12 1.960175 1_555
Li3 O23 1.969318 1_565
Li3 O9 2.145536 1_455
Li3 O10 2.145536 1_555
Li3 O2 2.184001 1_555
Li3 O1 2.184001 1_455
Li4 O1 2.021962 1_555
Li4 O0 2.080981 1_555
Li4 O9 2.095193 1_555
Li4 O11 2.097238 1_555
Li4 O14 2.185110 1_555
Li4 O22 2.242952 1_565
Li5 O5 2.034387 1_555
Li5 O7 2.063802 1_555
Li5 O3 2.084608 1_555
Li5 O8 2.101753 1_555
Li5 O16 2.205102 1_565
Li5 O18 2.228068 1_555
Li6 O20 1.982622 1_565
Li6 O15 2.013378 1_555
Li6 O4 2.163042 1_555
Li6 O5 2.163042 1_555
Li6 O6 2.222603 1_555
Li6 O7 2.222603 1_555
Li7 O16 2.021962 1_555
Li7 O20 2.080981 1_555
Li7 O18 2.095193 1_555
Li7 O15 2.097238 1_555
Li7 O5 2.185110 1_555
Li7 O7 2.242952 1_545
Li8 O14 2.034387 1_555
Li8 O22 2.063802 1_555
Li8 O23 2.084608 1_655
Li8 O12 2.101753 1_655
Li8 O1 2.205102 1_545
Li8 O9 2.228068 1_555
Li9 O0 1.982622 1_545
Li9 O11 2.013378 1_555
Li9 O13 2.163042 1_555
Li9 O14 2.163042 1_555
Li9 O22 2.222603 1_555
Li9 O21 2.222603 1_555
Li10 O13 2.034387 1_555
Li10 O21 2.063802 1_555
Li10 O23 2.084608 1_555
Li10 O12 2.101753 1_555
Li10 O2 2.205102 1_545
Li10 O10 2.228068 1_555
Li11 O17 2.021962 1_555
Li11 O20 2.080981 1_555
Li11 O19 2.095193 1_555
Li11 O15 2.097238 1_555
Li11 O4 2.185110 1_555
Li11 O6 2.242952 1_545
Li12 O8 1.960175 1_555
Li12 O3 1.969318 1_545
Li12 O19 2.145536 1_455
Li12 O18 2.145536 1_555
Li12 O16 2.184001 1_555
Li12 O17 2.184001 1_455
Mn0 O1 1.912459 1_545
Mn0 O17 1.912459 1_555
Mn0 O4 1.924940 1_545
Mn0 O14 1.924940 1_555
Mn0 O0 1.929140 1_545
Mn0 O20 1.929140 1_555
Mn1 O2 1.912459 1_545
Mn1 O16 1.912459 1_555
Mn1 O5 1.924940 1_545
Mn1 O13 1.924940 1_555
Mn1 O0 1.929140 1_545
Mn1 O20 1.929140 1_555
Mn2 O21 1.879996 1_555
Mn2 O7 1.879996 1_544
Mn2 O10 1.920376 1_545
Mn2 O18 1.920376 1_554
Mn2 O23 1.949937 1_555
Mn2 O3 1.949937 1_544
Mn3 O6 1.879996 1_544
Mn3 O22 1.879996 1_555
Mn3 O9 1.920376 1_545
Mn3 O19 1.920376 1_554
Mn3 O3 1.949937 1_644
Mn3 O23 1.949937 1_655
Mn4 O13 1.913500 1_555
Mn4 O5 1.913500 1_555
Mn4 O2 1.922116 1_555
Mn4 O16 1.922116 1_555
Mn4 O12 1.926899 1_555
Mn4 O8 1.926899 1_555
Mn5 O14 1.913500 1_555
Mn5 O4 1.913500 1_555
Mn5 O1 1.922116 1_555
Mn5 O17 1.922116 1_555
Mn5 O12 1.926899 1_655
Mn5 O8 1.926899 1_655
Mn6 O9 1.901203 1_555
Mn6 O19 1.901203 1_554
Mn6 O6 1.930778 1_554
Mn6 O22 1.930778 1_555
Mn6 O11 1.990776 1_555
Mn6 O15 1.990776 1_554
Mn7 O10 1.901203 1_555
Mn7 O18 1.901203 1_554
Mn7 O21 1.930778 1_555
Mn7 O7 1.930778 1_554
Mn7 O11 1.990776 1_555
Mn7 O15 1.990776 1_554
