# generated using pymatgen
data_Li3VS4
_symmetry_space_group_name_H-M   'P 1'
_cell_length_a   17.98387799
_cell_length_b   13.51537641
_cell_length_c   12.96537585
_cell_angle_alpha   85.52469258
_cell_angle_beta   48.52424093
_cell_angle_gamma   45.95106648
_symmetry_Int_Tables_number   1
_chemical_formula_structural   Li3VS4
_chemical_formula_sum   'Li24 V8 S32'
_cell_volume   1194.70804762
_cell_formula_units_Z   8
loop_
 _symmetry_equiv_pos_site_id
 _symmetry_equiv_pos_as_xyz
  1  'x, y, z'
loop_
 _atom_site_type_symbol
 _atom_site_label
 _atom_site_symmetry_multiplicity
 _atom_site_fract_x
 _atom_site_fract_y
 _atom_site_fract_z
 _atom_site_occupancy
  Li  Li0  1  0.50624800  0.99375200  0.99375200  1
  Li  Li1  1  0.01973200  0.48026800  0.48026800  1
  Li  Li2  1  0.23290100  0.77543200  0.26094700  1
  Li  Li3  1  0.42524500  0.32124200  0.12442200  1
  Li  Li4  1  0.05528300  0.16476400  0.63469500  1
  Li  Li5  1  0.08976500  0.72421300  0.63538900  1
  Li  Li6  1  0.93295400  0.62314500  0.80974900  1
  Li  Li7  1  0.44025100  0.61584800  0.31704600  1
  Li  Li8  1  0.61461100  0.69936700  0.16023500  1
  Li  Li9  1  0.61530500  0.10474100  0.19471700  1
  Li  Li10  1  0.12557800  0.12090900  0.82475500  1
  Li  Li11  1  0.98905300  0.51928000  0.01709900  1
  Li  Li12  1  0.25624800  0.74375200  0.74375200  1
  Li  Li13  1  0.76973200  0.23026800  0.23026800  1
  Li  Li14  1  0.47456800  0.01709900  0.51928000  1
  Li  Li15  1  0.92875800  0.82475500  0.12090900  1
  Li  Li16  1  0.08523600  0.19471700  0.10474100  1
  Li  Li17  1  0.52578700  0.16023500  0.69936700  1
  Li  Li18  1  0.62685500  0.31704600  0.61584800  1
  Li  Li19  1  0.63415200  0.80974900  0.62314500  1
  Li  Li20  1  0.55063300  0.63538900  0.72421300  1
  Li  Li21  1  0.14525900  0.63469500  0.16476400  1
  Li  Li22  1  0.12909100  0.12442200  0.32124200  1
  Li  Li23  1  0.73072000  0.26094700  0.77543200  1
  V  V0  1  0.59151400  0.67852000  0.92674000  1
  V  V1  1  0.31670300  0.17130500  0.42839700  1
  V  V2  1  0.82160300  0.16640500  0.93329700  1
  V  V3  1  0.32326000  0.44677400  0.65848600  1
  V  V4  1  0.57148000  0.65848600  0.44677400  1
  V  V5  1  0.07869500  0.93329700  0.16640500  1
  V  V6  1  0.08359500  0.42839700  0.17130500  1
  V  V7  1  0.80322600  0.92674000  0.67852000  1
  S  S0  1  0.10203000  0.71030100  0.39535700  1
  S  S1  1  0.38637300  0.78864600  0.21145500  1
  S  S2  1  0.75739500  0.64993700  0.85291300  1
  S  S3  1  0.24398200  0.14932300  0.36090700  1
  S  S4  1  0.74815600  0.94072700  0.88928900  1
  S  S5  1  0.53608100  0.39000700  0.11043300  1
  S  S6  1  0.03295600  0.96640400  0.63346400  1
  S  S7  1  0.26503700  0.37134800  0.42657400  1
  S  S8  1  0.82342600  0.31295900  0.98496300  1
  S  S9  1  0.61653600  0.88282400  0.21704400  1
  S  S10  1  0.13956700  0.28652000  0.71391900  1
  S  S11  1  0.36071100  0.82817200  0.50184400  1
  S  S12  1  0.88909300  0.00421300  0.00601800  1
  S  S13  1  0.39708700  0.51024500  0.49260500  1
  S  S14  1  0.03854500  0.63647300  0.86362700  1
  S  S15  1  0.85464300  0.45768900  0.14797000  1
  S  S16  1  0.53969900  0.14797000  0.45768900  1
  S  S17  1  0.46135400  0.86362700  0.63647300  1
  S  S18  1  0.60006300  0.49260500  0.51024500  1
  S  S19  1  0.10067700  0.00601800  0.00421300  1
  S  S20  1  0.30927300  0.50184400  0.82817200  1
  S  S21  1  0.85999300  0.71391900  0.28652000  1
  S  S22  1  0.28359600  0.21704400  0.88282400  1
  S  S23  1  0.87865200  0.98496300  0.31295900  1
  S  S24  1  0.93704100  0.42657400  0.37134800  1
  S  S25  1  0.36717600  0.63346400  0.96640400  1
  S  S26  1  0.96348000  0.11043300  0.39000700  1
  S  S27  1  0.42182800  0.88928900  0.94072700  1
  S  S28  1  0.24578700  0.36090700  0.14932300  1
  S  S29  1  0.73975500  0.85291300  0.64993700  1
  S  S30  1  0.61352700  0.21145500  0.78864600  1
  S  S31  1  0.79231100  0.39535700  0.71030100  1
loop_
_geom_bond_atom_site_label_1
_geom_bond_atom_site_label_2
_geom_bond_distance
_geom_bond_site_symmetry_2
Li0 S2 2.557724 1_555
Li0 S29 2.557724 1_555
Li0 S28 2.712721 1_566
Li0 S3 2.712721 1_566
Li1 S28 2.528901 1_555
Li1 S3 2.528902 1_555
Li1 S2 2.711386 1_455
Li1 S29 2.711386 1_455
Li2 S1 2.526452 1_555
Li2 S0 2.561190 1_555
Li2 S25 2.565528 1_554
Li2 S26 2.591095 1_465
Li2 S5 2.944438 1_555
Li2 S6 2.992351 1_555
Li3 S7 2.618526 1_555
Li3 S4 2.633075 1_544
Li3 S5 2.634493 1_555
Li3 S28 2.654884 1_555
Li3 S0 2.666589 1_555
Li3 S30 2.667440 1_554
Li4 S8 2.597194 1_455
Li4 S31 2.623068 1_455
Li4 S3 2.708275 1_555
Li4 S11 2.788671 1_545
Li4 S6 2.976707 1_545
Li5 S4 2.618827 1_455
Li5 S6 2.670153 1_555
Li5 S13 2.719148 1_555
Li5 S14 2.893471 1_555
Li5 S0 2.982211 1_555
Li6 S14 2.525619 1_655
Li6 S2 2.552227 1_555
Li6 S4 2.616657 1_555
Li6 S7 2.646757 1_655
Li6 S10 2.703498 1_655
Li6 S9 2.811051 1_556
Li7 S1 2.525627 1_555
Li7 S13 2.552227 1_555
Li7 S11 2.616657 1_555
Li7 S8 2.646757 1_554
Li7 S5 2.703488 1_555
Li7 S6 2.811051 1_555
Li8 S11 2.618827 1_555
Li8 S9 2.670153 1_555
Li8 S2 2.719148 1_554
Li8 S1 2.893464 1_555
Li8 S15 2.982210 1_555
Li9 S7 2.597191 1_555
Li9 S16 2.623067 1_555
Li9 S12 2.708294 1_555
Li9 S4 2.788666 1_544
Li9 S9 2.976693 1_545
Li10 S8 2.618526 1_455
Li10 S11 2.633075 1_545
Li10 S10 2.634481 1_555
Li10 S19 2.654875 1_556
Li10 S15 2.666596 1_456
Li10 S17 2.667437 1_545
Li11 S14 2.526441 1_654
Li11 S15 2.561178 1_555
Li11 S22 2.565528 1_654
Li11 S21 2.591088 1_555
Li11 S10 2.944445 1_654
Li11 S9 2.992351 1_555
Li12 S18 2.557724 1_555
Li12 S13 2.557724 1_555
Li12 S12 2.712717 1_466
Li12 S19 2.712730 1_566
Li13 S12 2.528892 1_555
Li13 S19 2.528906 1_655
Li13 S18 2.711386 1_555
Li13 S13 2.711386 1_555
Li14 S17 2.526446 1_545
Li14 S16 2.561191 1_555
Li14 S9 2.565528 1_545
Li14 S10 2.591101 1_555
Li14 S21 2.944432 1_545
Li14 S22 2.992351 1_555
Li15 S23 2.618526 1_555
Li15 S20 2.633075 1_654
Li15 S21 2.634487 1_555
Li15 S12 2.654875 1_565
Li15 S16 2.666589 1_565
Li15 S14 2.667451 1_654
Li16 S24 2.597204 1_455
Li16 S15 2.623050 1_455
Li16 S19 2.708263 1_555
Li16 S27 2.788678 1_544
Li16 S22 2.976704 1_554
Li17 S20 2.618827 1_555
Li17 S22 2.670153 1_555
Li17 S29 2.719148 1_545
Li17 S30 2.893481 1_555
Li17 S16 2.982198 1_555
Li18 S30 2.525629 1_555
Li18 S18 2.552227 1_555
Li18 S20 2.616657 1_555
Li18 S23 2.646757 1_545
Li18 S26 2.703502 1_555
Li18 S25 2.811051 1_555
Li19 S17 2.525637 1_555
Li19 S29 2.552227 1_555
Li19 S27 2.616657 1_555
Li19 S24 2.646757 1_555
Li19 S21 2.703496 1_555
Li19 S22 2.811051 1_565
Li20 S27 2.618827 1_555
Li20 S25 2.670153 1_555
Li20 S18 2.719148 1_555
Li20 S17 2.893472 1_555
Li20 S31 2.982199 1_555
Li21 S23 2.597196 1_455
Li21 S0 2.623042 1_555
Li21 S28 2.708287 1_555
Li21 S20 2.788678 1_554
Li21 S25 2.976693 1_554
Li22 S24 2.618526 1_455
Li22 S27 2.633075 1_544
Li22 S26 2.634476 1_455
Li22 S3 2.654866 1_555
Li22 S31 2.666590 1_455
Li22 S1 2.667443 1_545
Li23 S30 2.526434 1_555
Li23 S31 2.561177 1_555
Li23 S6 2.565528 1_645
Li23 S5 2.591099 1_556
Li23 S26 2.944434 1_555
Li23 S25 2.992351 1_555
S0 V7 2.144083 1_455
S1 V0 2.152935 1_554
S2 V0 2.153518 1_555
S3 V1 2.158936 1_555
S4 V7 2.172464 1_555
S5 V2 2.158211 1_554
S6 V2 2.155642 1_465
S7 V1 2.167845 1_555
S8 V2 2.167845 1_555
S9 V1 2.155642 1_565
S10 V1 2.158213 1_555
S11 V4 2.172464 1_555
S12 V2 2.158928 1_554
S13 V3 2.153518 1_555
S14 V3 2.152940 1_555
S15 V4 2.144087 1_555
S16 V3 2.144081 1_555
S17 V4 2.152926 1_555
S18 V4 2.153518 1_555
S19 V5 2.158925 1_545
S20 V3 2.172464 1_555
S21 V6 2.158216 1_655
S22 V6 2.155642 1_556
S23 V5 2.167845 1_655
S24 V6 2.167845 1_655
S25 V5 2.155642 1_556
S26 V5 2.158224 1_645
S27 V0 2.172464 1_555
S28 V6 2.158918 1_555
S29 V7 2.153518 1_555
S30 V7 2.152936 1_545
S31 V0 2.144091 1_555
