# generated using pymatgen
data_Li3MnPCO7
_symmetry_space_group_name_H-M   'P 1'
_cell_length_a   5.28065800
_cell_length_b   6.71092900
_cell_length_c   8.33001400
_cell_angle_alpha   90.00000000
_cell_angle_beta   90.00000000
_cell_angle_gamma   90.00000000
_symmetry_Int_Tables_number   1
_chemical_formula_structural   Li3MnPCO7
_chemical_formula_sum   'Li6 Mn2 P2 C2 O14'
_cell_volume   295.20004332
_cell_formula_units_Z   2
loop_
 _symmetry_equiv_pos_site_id
 _symmetry_equiv_pos_as_xyz
  1  'x, y, z'
loop_
 _atom_site_type_symbol
 _atom_site_label
 _atom_site_symmetry_multiplicity
 _atom_site_fract_x
 _atom_site_fract_y
 _atom_site_fract_z
 _atom_site_occupancy
  Li  Li0  1  0.40019900  0.27469900  0.71700300  1
  Li  Li1  1  0.40019900  0.72530100  0.71700300  1
  Li  Li2  1  0.46654800  0.00000000  0.08005600  1
  Li  Li3  1  0.90019900  0.22530100  0.28299700  1
  Li  Li4  1  0.90019900  0.77469900  0.28299700  1
  Li  Li5  1  0.96654800  0.50000000  0.91994400  1
  Mn  Mn0  1  0.47673800  0.50000000  0.32601400  1
  Mn  Mn1  1  0.97673800  0.00000000  0.67398600  1
  P  P0  1  0.03263100  0.50000000  0.59098400  1
  P  P1  1  0.53263100  0.00000000  0.40901600  1
  C  C0  1  0.49133300  0.50000000  0.01012300  1
  C  C1  1  0.99133300  0.00000000  0.98987700  1
  O  O0  1  0.99677600  0.00000000  0.14410100  1
  O  O1  1  0.20164400  0.00000000  0.90773800  1
  O  O2  1  0.27526200  0.50000000  0.08512300  1
  O  O3  1  0.32295100  0.50000000  0.55332200  1
  O  O4  1  0.38440500  0.00000000  0.57068200  1
  O  O5  1  0.48109000  0.81608600  0.30005000  1
  O  O6  1  0.48109000  0.18391400  0.30005000  1
  O  O7  1  0.49677600  0.50000000  0.85589900  1
  O  O8  1  0.70164400  0.50000000  0.09226200  1
  O  O9  1  0.77526200  0.00000000  0.91487700  1
  O  O10  1  0.82295100  0.00000000  0.44667800  1
  O  O11  1  0.88440500  0.50000000  0.42931800  1
  O  O12  1  0.98109000  0.68391400  0.69995000  1
  O  O13  1  0.98109000  0.31608600  0.69995000  1
loop_
_geom_bond_atom_site_label_1
_geom_bond_atom_site_label_2
_geom_bond_distance
_geom_bond_site_symmetry_2
Li0 O7 1.970998 1_555
Li0 O3 2.076419 1_555
Li0 O4 2.211562 1_555
Li0 O13 2.235050 1_455
Li1 O7 1.970998 1_555
Li1 O3 2.076419 1_555
Li1 O4 2.211562 1_565
Li1 O12 2.235050 1_455
Li2 O1 2.004304 1_554
Li2 O9 2.133264 1_554
Li2 O6 2.210765 1_555
Li2 O5 2.210765 1_545
Li2 O0 2.537423 1_455
Li3 O0 1.970998 1_555
Li3 O10 2.076419 1_555
Li3 O11 2.211562 1_555
Li3 O6 2.235050 1_555
Li4 O0 1.970998 1_565
Li4 O10 2.076419 1_565
Li4 O11 2.211562 1_555
Li4 O5 2.235050 1_555
Li5 O8 2.004304 1_556
Li5 O2 2.133264 1_656
Li5 O13 2.210765 1_555
Li5 O12 2.210765 1_555
Li5 O7 2.537423 1_555
Mn0 O3 2.060282 1_555
Mn0 O6 2.132352 1_555
Mn0 O5 2.132352 1_555
Mn0 O2 2.271230 1_555
Mn0 O8 2.280776 1_555
Mn0 O11 2.318369 1_555
Mn1 O10 2.060282 1_555
Mn1 O13 2.132352 1_555
Mn1 O12 2.132352 1_545
Mn1 O9 2.271230 1_555
Mn1 O1 2.280776 1_655
Mn1 O4 2.318369 1_655
C0 O7 1.285010 1_554
C0 O2 1.300841 1_555
C0 O8 1.304433 1_555
C1 O0 1.285010 1_556
C1 O9 1.300841 1_555
C1 O1 1.304433 1_655
O3 P0 1.564851 1_555
O4 P1 1.557631 1_555
O5 P1 1.556055 1_565
O6 P1 1.556055 1_555
O10 P1 1.564851 1_555
O11 P0 1.557631 1_655
O12 P0 1.556055 1_655
O13 P0 1.556055 1_655
