# generated using pymatgen
data_LiFe2(BO3)2
_symmetry_space_group_name_H-M   'P 1'
_cell_length_a   5.24192000
_cell_length_b   9.05851734
_cell_length_c   11.39505435
_cell_angle_alpha   113.06860018
_cell_angle_beta   102.57556376
_cell_angle_gamma   89.89454201
_symmetry_Int_Tables_number   1
_chemical_formula_structural   LiFe2(BO3)2
_chemical_formula_sum   'Li4 Fe8 B8 O24'
_cell_volume   483.76954323
_cell_formula_units_Z   4
loop_
 _symmetry_equiv_pos_site_id
 _symmetry_equiv_pos_as_xyz
  1  'x, y, z'
loop_
 _atom_site_type_symbol
 _atom_site_label
 _atom_site_symmetry_multiplicity
 _atom_site_fract_x
 _atom_site_fract_y
 _atom_site_fract_z
 _atom_site_occupancy
  Li  Li0  1  0.27206600  0.27213300  0.88252300  1
  Li  Li1  1  0.48696600  0.50906400  0.66309800  1
  Li  Li2  1  0.25470800  0.24311300  0.15411200  1
  Li  Li3  1  0.53045100  0.53630300  0.40454100  1
  Fe  Fe0  1  0.02313900  0.34087400  0.38353600  1
  Fe  Fe1  1  0.26059900  0.92733000  0.87624000  1
  Fe  Fe2  1  0.49027300  0.15183900  0.63185700  1
  Fe  Fe3  1  0.25101500  0.57085500  0.13020200  1
  Fe  Fe4  1  0.76831600  0.45348100  0.89067300  1
  Fe  Fe5  1  0.52004600  0.85619900  0.37357300  1
  Fe  Fe6  1  0.97147300  0.66073100  0.63063300  1
  Fe  Fe7  1  0.73394100  0.05907400  0.13037000  1
  B  B0  1  0.01412800  0.68409100  0.37581400  1
  B  B1  1  0.26728900  0.60264200  0.87324900  1
  B  B2  1  0.46650700  0.81211900  0.62299100  1
  B  B3  1  0.22920000  0.90287900  0.13076000  1
  B  B4  1  0.52799200  0.18649000  0.37674400  1
  B  B5  1  0.76687100  0.10524700  0.88139000  1
  B  B6  1  0.99435500  0.32192900  0.63627700  1
  B  B7  1  0.73833800  0.38548200  0.12557900  1
  O  O0  1  0.03096300  0.09898500  0.88683800  1
  O  O1  1  0.11355800  0.71916400  0.84756200  1
  O  O2  1  0.16733700  0.49956400  0.91995000  1
  O  O3  1  0.15165300  0.20935900  0.65854400  1
  O  O4  1  0.08918900  0.43068500  0.59340300  1
  O  O5  1  0.26075800  0.84543300  0.68581100  1
  O  O6  1  0.26666900  0.67279300  0.34771000  1
  O  O7  1  0.51002500  0.59169700  0.84901600  1
  O  O8  1  0.62008200  0.20480900  0.82982900  1
  O  O9  1  0.44464300  0.08727500  0.43206200  1
  O  O10  1  0.39378000  0.31325800  0.36714700  1
  O  O11  1  0.63571800  0.01621400  0.93001200  1
  O  O12  1  0.34948800  0.00344500  0.08505000  1
  O  O13  1  0.58376300  0.67111200  0.60283400  1
  O  O14  1  0.54925200  0.92246900  0.57783900  1
  O  O15  1  0.38348000  0.80829100  0.18179700  1
  O  O16  1  0.47184200  0.38204300  0.11976000  1
  O  O17  1  0.74057000  0.33176400  0.65826200  1
  O  O18  1  0.74709200  0.15002900  0.32522100  1
  O  O19  1  0.92262000  0.57205500  0.41687600  1
  O  O20  1  0.86487700  0.80513700  0.36902900  1
  O  O21  1  0.86238900  0.48710500  0.08891600  1
  O  O22  1  0.88710900  0.27420400  0.16408900  1
  O  O23  1  0.97114000  0.90690400  0.12676400  1
loop_
_geom_bond_atom_site_label_1
_geom_bond_atom_site_label_2
_geom_bond_distance
_geom_bond_site_symmetry_2
Li0 O2 2.033931 1_555
Li0 O0 2.038281 1_555
Li0 O8 2.060670 1_555
Li0 O3 2.323409 1_555
Li0 O16 2.461250 1_556
Li1 O7 1.925937 1_555
Li1 O13 1.956588 1_555
Li1 O17 2.074711 1_555
Li1 O4 2.079663 1_555
Li2 O16 1.902075 1_555
Li2 O22 1.968143 1_455
Li2 O12 2.099267 1_555
Li2 O10 2.202376 1_555
Li3 O10 1.993686 1_555
Li3 O6 2.022679 1_555
Li3 O19 2.047334 1_555
Li3 O13 2.058853 1_555
Fe0 O10 1.997949 1_555
Fe0 O18 2.052881 1_455
Fe0 O19 2.065694 1_455
Fe0 O4 2.148620 1_555
Fe0 O22 2.273298 1_455
Fe1 O1 1.915573 1_555
Fe1 O0 1.946959 1_565
Fe1 O11 1.996192 1_565
Fe1 O5 1.999569 1_555
Fe1 O12 2.141681 1_566
Fe2 O3 1.903190 1_555
Fe2 O14 1.967173 1_545
Fe2 O17 1.979912 1_555
Fe2 O8 2.065631 1_555
Fe2 O9 2.074230 1_555
Fe3 O16 2.042700 1_555
Fe3 O21 2.062887 1_455
Fe3 O15 2.071374 1_555
Fe3 O2 2.163422 1_554
Fe3 O6 2.262876 1_555
Fe4 O7 1.950823 1_555
Fe4 O2 2.061727 1_655
Fe4 O21 2.101249 1_556
Fe4 O8 2.169474 1_555
Fe4 O17 2.407296 1_555
Fe5 O20 1.871596 1_555
Fe5 O9 2.000081 1_565
Fe5 O15 2.013220 1_555
Fe5 O6 2.016208 1_555
Fe5 O14 2.133492 1_555
Fe6 O13 1.995473 1_555
Fe6 O5 2.064928 1_655
Fe6 O4 2.078396 1_655
Fe6 O19 2.199918 1_555
Fe6 O1 2.262665 1_655
Fe7 O23 1.849138 1_545
Fe7 O22 1.968393 1_555
Fe7 O12 1.982058 1_555
Fe7 O18 2.028159 1_555
Fe7 O11 2.102985 1_554
B0 O20 1.362832 1_455
B0 O19 1.396664 1_455
B0 O6 1.422639 1_555
B1 O7 1.355054 1_555
B1 O2 1.393622 1_555
B1 O1 1.409061 1_555
B2 O13 1.375045 1_555
B2 O5 1.390108 1_555
B2 O14 1.397815 1_555
B3 O23 1.344462 1_455
B3 O15 1.381867 1_555
B3 O12 1.419770 1_565
B4 O10 1.373867 1_555
B4 O18 1.383153 1_555
B4 O9 1.400466 1_555
B5 O0 1.374242 1_655
B5 O11 1.395764 1_555
B5 O8 1.402321 1_555
B6 O3 1.375733 1_655
B6 O4 1.393234 1_655
B6 O17 1.402729 1_555
B7 O21 1.366269 1_555
B7 O16 1.383851 1_555
B7 O22 1.418292 1_555
