# generated using pymatgen
data_LiFePO4
_symmetry_space_group_name_H-M   'P 1'
_cell_length_a   7.22129600
_cell_length_b   7.22153900
_cell_length_c   7.22211500
_cell_angle_alpha   90.00064263
_cell_angle_beta   89.99963504
_cell_angle_gamma   90.00111872
_symmetry_Int_Tables_number   1
_chemical_formula_structural   LiFePO4
_chemical_formula_sum   'Li4 Fe4 P4 O16'
_cell_volume   376.62514122
_cell_formula_units_Z   4
loop_
 _symmetry_equiv_pos_site_id
 _symmetry_equiv_pos_as_xyz
  1  'x, y, z'
loop_
 _atom_site_type_symbol
 _atom_site_label
 _atom_site_symmetry_multiplicity
 _atom_site_fract_x
 _atom_site_fract_y
 _atom_site_fract_z
 _atom_site_occupancy
  Li  Li0  1  0.69699500  0.80299000  0.19699500  1
  Li  Li1  1  0.30300600  0.30300500  0.30301600  1
  Li  Li2  1  0.80300200  0.19700800  0.69698200  1
  Li  Li3  1  0.19698100  0.69700400  0.80300500  1
  Fe  Fe0  1  0.74616700  0.74613700  0.74613900  1
  Fe  Fe1  1  0.25384500  0.24614600  0.75386200  1
  Fe  Fe2  1  0.75385900  0.25384600  0.24610700  1
  Fe  Fe3  1  0.24615700  0.75386800  0.25388600  1
  P  P0  1  0.03300200  0.03298600  0.03299700  1
  P  P1  1  0.53299200  0.46702300  0.96700200  1
  P  P2  1  0.96699900  0.53297200  0.46700100  1
  P  P3  1  0.46700600  0.96701600  0.53300000  1
  O  O0  1  0.15378300  0.15383900  0.15381400  1
  O  O1  1  0.84618400  0.65380600  0.34620800  1
  O  O2  1  0.34614400  0.84620400  0.65377600  1
  O  O3  1  0.65379900  0.34621100  0.84617300  1
  O  O4  1  0.60536500  0.67228800  0.97051700  1
  O  O5  1  0.52950500  0.39465600  0.17225100  1
  O  O6  1  0.82772300  0.02948000  0.10533000  1
  O  O7  1  0.17227900  0.52951700  0.39467000  1
  O  O8  1  0.47051800  0.89467600  0.32774100  1
  O  O9  1  0.39466500  0.17228800  0.52950100  1
  O  O10  1  0.89465000  0.32770000  0.47048200  1
  O  O11  1  0.97048400  0.60528100  0.67227000  1
  O  O12  1  0.67227200  0.97048500  0.60536800  1
  O  O13  1  0.32771400  0.47050100  0.89466500  1
  O  O14  1  0.02950000  0.10533100  0.82774400  1
  O  O15  1  0.10540300  0.82773500  0.02949600  1
loop_
_geom_bond_atom_site_label_1
_geom_bond_atom_site_label_2
_geom_bond_distance
_geom_bond_site_symmetry_2
Li0 O1 1.866198 1_555
Li0 O4 2.001006 1_554
Li0 O6 2.001153 1_565
Li0 O8 2.001189 1_555
Li1 O0 1.866180 1_555
Li1 O9 2.001197 1_555
Li1 O7 2.001271 1_555
Li1 O5 2.001286 1_555
Li2 O3 1.866222 1_555
Li2 O10 2.001156 1_555
Li2 O12 2.001224 1_545
Li2 O14 2.001363 1_655
Li3 O2 1.866191 1_555
Li3 O15 2.001063 1_556
Li3 O13 2.001269 1_555
Li3 O11 2.001346 1_455
Fe0 O12 1.985769 1_555
Fe0 O11 1.985771 1_555
Fe0 O4 1.985997 1_555
Fe1 O14 1.985784 1_555
Fe1 O13 1.985843 1_555
Fe1 O9 1.985982 1_555
Fe2 O5 1.985806 1_555
Fe2 O6 1.985815 1_555
Fe2 O10 1.985949 1_555
Fe3 O7 1.985781 1_555
Fe3 O8 1.985799 1_555
Fe3 O15 1.985947 1_555
O0 P0 1.511199 1_555
O1 P2 1.511192 1_555
O2 P3 1.511199 1_555
O3 P1 1.511200 1_555
O4 P1 1.571958 1_555
O5 P1 1.571964 1_554
O6 P0 1.571935 1_655
O7 P2 1.571932 1_455
O8 P3 1.571959 1_555
O9 P3 1.571947 1_545
O10 P2 1.571945 1_555
O11 P2 1.571950 1_555
O12 P3 1.571933 1_555
O13 P1 1.571942 1_555
O14 P0 1.571941 1_556
O15 P0 1.571947 1_565
