# generated using pymatgen
data_Li3V3(FeO5)2
_symmetry_space_group_name_H-M   'P 1'
_cell_length_a   5.13496200
_cell_length_b   5.22030098
_cell_length_c   7.96342852
_cell_angle_alpha   72.04059534
_cell_angle_beta   72.15729789
_cell_angle_gamma   78.59130925
_symmetry_Int_Tables_number   1
_chemical_formula_structural   Li3V3(FeO5)2
_chemical_formula_sum   'Li3 V3 Fe2 O10'
_cell_volume   192.03701208
_cell_formula_units_Z   1
loop_
 _symmetry_equiv_pos_site_id
 _symmetry_equiv_pos_as_xyz
  1  'x, y, z'
loop_
 _atom_site_type_symbol
 _atom_site_label
 _atom_site_symmetry_multiplicity
 _atom_site_fract_x
 _atom_site_fract_y
 _atom_site_fract_z
 _atom_site_occupancy
  Li  Li0  1  0.18881400  0.48225900  0.59264500  1
  Li  Li1  1  0.50000000  0.00000000  0.50000000  1
  Li  Li2  1  0.81118600  0.51774100  0.40735500  1
  V  V0  1  0.00000000  0.50000000  0.00000000  1
  V  V1  1  0.31268200  0.99666400  0.88694200  1
  V  V2  1  0.68731800  0.00333600  0.11305800  1
  Fe  Fe0  1  0.10068300  0.00373900  0.31195800  1
  Fe  Fe1  1  0.89931700  0.99626100  0.68804200  1
  O  O0  1  0.04179300  0.78280700  0.13207700  1
  O  O1  1  0.33233400  0.21196000  0.05174700  1
  O  O2  1  0.11618200  0.22416500  0.47100200  1
  O  O3  1  0.21482200  0.74744200  0.77811300  1
  O  O4  1  0.48429700  0.80647100  0.32145900  1
  O  O5  1  0.51570300  0.19352900  0.67854100  1
  O  O6  1  0.78517800  0.25255800  0.22188700  1
  O  O7  1  0.88381800  0.77583500  0.52899800  1
  O  O8  1  0.66766600  0.78804000  0.94825300  1
  O  O9  1  0.95820700  0.21719300  0.86792300  1
loop_
_geom_bond_atom_site_label_1
_geom_bond_atom_site_label_2
_geom_bond_distance
_geom_bond_site_symmetry_2
Li0 O7 2.028866 1_455
Li0 O2 2.029244 1_555
Li0 O5 2.150393 1_555
Li0 O9 2.304195 1_455
Li0 O3 2.360197 1_555
Li0 O4 2.565999 1_555
Li1 O5 2.009223 1_555
Li1 O4 2.009223 1_545
Li1 O7 2.122961 1_545
Li1 O2 2.122961 1_555
Li1 O6 2.400693 1_555
Li1 O3 2.400693 1_545
Li2 O2 2.028866 1_655
Li2 O7 2.029244 1_555
Li2 O4 2.150393 1_555
Li2 O0 2.304195 1_655
Li2 O6 2.360197 1_555
Li2 O5 2.565999 1_555
Fe0 O7 1.928576 1_445
Fe0 O2 1.982747 1_555
Fe0 O6 2.032597 1_455
Fe0 O4 2.046280 1_545
Fe0 O1 2.121875 1_555
Fe0 O0 2.212657 1_545
Fe1 O2 1.928576 1_665
Fe1 O7 1.982747 1_555
Fe1 O3 2.032597 1_655
Fe1 O5 2.046280 1_565
Fe1 O8 2.121875 1_555
Fe1 O9 2.212657 1_565
O0 V2 1.973288 1_465
O0 V0 2.133807 1_555
O0 V1 2.144377 1_554
O1 V1 2.007846 1_544
O1 V2 2.044332 1_555
O1 V0 2.092054 1_555
O3 V1 1.979162 1_555
O3 V0 1.992308 1_556
O4 V2 1.791375 1_565
O5 V1 1.791375 1_545
O6 V2 1.979162 1_555
O6 V0 1.992308 1_655
O8 V2 2.007846 1_566
O8 V1 2.044332 1_555
O8 V0 2.092054 1_656
O9 V1 1.973288 1_645
O9 V0 2.133807 1_656
O9 V2 2.144377 1_556
