# generated using pymatgen
data_LiTi3V(PO4)6
_symmetry_space_group_name_H-M   'P 1'
_cell_length_a   8.77236355
_cell_length_b   8.77236355
_cell_length_c   8.77236431
_cell_angle_alpha   58.72793548
_cell_angle_beta   58.72793548
_cell_angle_gamma   58.72793475
_symmetry_Int_Tables_number   1
_chemical_formula_structural   LiTi3V(PO4)6
_chemical_formula_sum   'Li1 Ti3 V1 P6 O24'
_cell_volume   463.47508046
_cell_formula_units_Z   1
loop_
 _symmetry_equiv_pos_site_id
 _symmetry_equiv_pos_as_xyz
  1  'x, y, z'
loop_
 _atom_site_type_symbol
 _atom_site_label
 _atom_site_symmetry_multiplicity
 _atom_site_fract_x
 _atom_site_fract_y
 _atom_site_fract_z
 _atom_site_occupancy
  Li  Li0  1  0.00132400  0.00132400  0.00132400  1
  Ti  Ti0  1  0.14469400  0.14469400  0.14469400  1
  Ti  Ti1  1  0.36085200  0.36085200  0.36085200  1
  Ti  Ti2  1  0.63897800  0.63897800  0.63897800  1
  V  V0  1  0.85520600  0.85520600  0.85520600  1
  P  P0  1  0.75074700  0.03254200  0.46314200  1
  P  P1  1  0.03254200  0.46314200  0.75074700  1
  P  P2  1  0.46314200  0.75074700  0.03254200  1
  P  P3  1  0.53876200  0.24646500  0.96680800  1
  P  P4  1  0.96680800  0.53876200  0.24646500  1
  P  P5  1  0.24646500  0.96680800  0.53876200  1
  O  O0  1  0.27373400  0.13952300  0.51008900  1
  O  O1  1  0.51008900  0.27373400  0.13952300  1
  O  O2  1  0.92322600  0.05900700  0.27985900  1
  O  O3  1  0.13952300  0.51008900  0.27373400  1
  O  O4  1  0.57701900  0.21329500  0.44517500  1
  O  O5  1  0.78919600  0.99701300  0.63740200  1
  O  O6  1  0.05900700  0.27985900  0.92322600  1
  O  O7  1  0.21329500  0.44517500  0.57701900  1
  O  O8  1  0.44517500  0.57701900  0.21329500  1
  O  O9  1  0.36890900  0.21136100  0.99668800  1
  O  O10  1  0.72459800  0.07114800  0.93725000  1
  O  O11  1  0.99668800  0.36890900  0.21136100  1
  O  O12  1  0.99701300  0.63740200  0.78919600  1
  O  O13  1  0.27985900  0.92322600  0.05900700  1
  O  O14  1  0.63740200  0.78919600  0.99701300  1
  O  O15  1  0.56621400  0.41759200  0.78496300  1
  O  O16  1  0.78496300  0.56621400  0.41759200  1
  O  O17  1  0.93725000  0.72459800  0.07114800  1
  O  O18  1  0.21136100  0.99668800  0.36890900  1
  O  O19  1  0.41759200  0.78496300  0.56621400  1
  O  O20  1  0.86081300  0.49685900  0.71954700  1
  O  O21  1  0.07114800  0.93725000  0.72459800  1
  O  O22  1  0.49685900  0.71954700  0.86081300  1
  O  O23  1  0.71954700  0.86081300  0.49685900  1
loop_
_geom_bond_atom_site_label_1
_geom_bond_atom_site_label_2
_geom_bond_distance
_geom_bond_site_symmetry_2
Li0 O6 2.425171 1_554
Li0 O13 2.425171 1_545
Li0 O2 2.425171 1_455
Li0 O17 2.469718 1_445
Li0 O10 2.469718 1_454
Li0 O21 2.469718 1_544
O0 P5 1.527820 1_545
O0 Ti1 1.982550 1_555
O1 P3 1.527820 1_554
O1 Ti1 1.982551 1_555
O2 P0 1.542664 1_555
O2 Ti0 1.986105 1_655
O3 P4 1.527820 1_455
O3 Ti1 1.982550 1_555
O4 P0 1.530602 1_555
O4 Ti1 1.931962 1_555
O5 P0 1.574565 1_565
O5 V0 1.861875 1_555
O6 P1 1.542664 1_555
O6 Ti0 1.986105 1_556
O7 P1 1.530602 1_555
O7 Ti1 1.931962 1_555
O8 P2 1.530602 1_555
O8 Ti1 1.931962 1_555
O9 P3 1.539728 1_555
O9 Ti0 1.910772 1_556
O10 P3 1.569175 1_555
O10 V0 1.930079 1_545
O11 P4 1.539728 1_555
O11 Ti0 1.910772 1_655
O12 P1 1.574565 1_655
O12 V0 1.861875 1_555
O13 P2 1.542664 1_555
O13 Ti0 1.986105 1_565
O14 P2 1.574565 1_556
O14 V0 1.861875 1_555
O15 P3 1.531845 1_555
O15 Ti2 1.917124 1_555
O16 P4 1.531845 1_555
O16 Ti2 1.917124 1_555
O17 P4 1.569175 1_555
O17 V0 1.930079 1_554
O18 P5 1.539728 1_555
O18 Ti0 1.910772 1_565
O19 P5 1.531845 1_555
O19 Ti2 1.917124 1_555
O20 P1 1.520942 1_655
O20 Ti2 1.958350 1_555
O21 P5 1.569175 1_555
O21 V0 1.930079 1_455
O22 P2 1.520942 1_556
O22 Ti2 1.958351 1_555
O23 P0 1.520942 1_565
O23 Ti2 1.958350 1_555
