# generated using pymatgen
data_Cd(CuO2)2
_symmetry_space_group_name_H-M   'P 1'
_cell_length_a   5.66536996
_cell_length_b   6.15809086
_cell_length_c   6.15809086
_cell_angle_alpha   99.08162011
_cell_angle_beta   62.68440351
_cell_angle_gamma   62.68440351
_symmetry_Int_Tables_number   1
_chemical_formula_structural   Cd(CuO2)2
_chemical_formula_sum   'Cd2 Cu4 O8'
_cell_volume   149.99748175
_cell_formula_units_Z   2
loop_
 _symmetry_equiv_pos_site_id
 _symmetry_equiv_pos_as_xyz
  1  'x, y, z'
loop_
 _atom_site_type_symbol
 _atom_site_label
 _atom_site_symmetry_multiplicity
 _atom_site_fract_x
 _atom_site_fract_y
 _atom_site_fract_z
 _atom_site_occupancy
  Cd  Cd0  1  0.75000000  0.12497928  0.37502072  1
  Cd  Cd1  1  0.25000000  0.87502072  0.62497928  1
  Cu  Cu0  1  0.50000000  0.00000000  -0.00000000  1
  Cu  Cu1  1  0.50000000  0.50000000  -0.00000000  1
  Cu  Cu2  1  0.00000000  0.50000000  -0.00000000  1
  Cu  Cu3  1  0.00000000  0.50000000  0.50000000  1
  O  O0  1  0.67004468  0.18335709  0.03376664  1
  O  O1  1  0.82995532  0.46623336  0.31664291  1
  O  O2  1  0.88751588  0.29632285  0.64685843  1
  O  O3  1  0.38751588  0.14685843  0.79632385  1
  O  O4  1  0.61248412  0.85314157  0.20367715  1
  O  O5  1  0.11248412  0.70367615  0.35314157  1
  O  O6  1  0.17004468  0.53376664  0.68335709  1
  O  O7  1  0.32995532  0.81664291  0.96623336  1
loop_
_geom_bond_atom_site_label_1
_geom_bond_atom_site_label_2
_geom_bond_distance
_geom_bond_site_symmetry_2
Cd0 O5 2.390045 1_645
Cd0 O3 2.390045 1_555
Cd0 O0 2.390252 1_555
Cd0 O1 2.390252 1_555
Cd0 O6 2.431484 1_555
Cd0 O7 2.431484 1_644
Cd0 O2 2.432364 1_555
Cd0 O4 2.432364 1_545
Cd1 O4 2.390041 1_555
Cd1 O2 2.390041 1_465
Cd1 O6 2.390252 1_555
Cd1 O7 2.390252 1_555
Cd1 O1 2.431484 1_555
Cd1 O0 2.431484 1_466
Cd1 O5 2.432367 1_555
Cd1 O3 2.432367 1_565
Cu0 O7 1.831478 1_544
Cu0 O0 1.831478 1_555
Cu0 O3 1.832994 1_554
Cu0 O4 1.832999 1_545
Cu1 O2 1.830893 1_554
Cu1 O5 1.830894 1_555
Cu1 O7 1.833383 1_554
Cu1 O0 1.833383 1_555
Cu2 O4 1.830893 1_455
Cu2 O3 1.830894 1_554
Cu2 O6 1.833383 1_554
Cu2 O1 1.833383 1_455
Cu3 O6 1.831478 1_555
Cu3 O1 1.831478 1_455
Cu3 O5 1.832994 1_555
Cu3 O2 1.832999 1_455
