# generated using pymatgen
data_LiVF4
_symmetry_space_group_name_H-M   'P 1'
_cell_length_a   5.12204987
_cell_length_b   5.12204987
_cell_length_c   6.37776300
_cell_angle_alpha   90.00000000
_cell_angle_beta   90.00000000
_cell_angle_gamma   110.23348591
_symmetry_Int_Tables_number   1
_chemical_formula_structural   LiVF4
_chemical_formula_sum   'Li2 V2 F8'
_cell_volume   156.99779732
_cell_formula_units_Z   2
loop_
 _symmetry_equiv_pos_site_id
 _symmetry_equiv_pos_as_xyz
  1  'x, y, z'
loop_
 _atom_site_type_symbol
 _atom_site_label
 _atom_site_symmetry_multiplicity
 _atom_site_fract_x
 _atom_site_fract_y
 _atom_site_fract_z
 _atom_site_occupancy
  Li  Li0  1  0.35741100  0.64258900  0.75000000  1
  Li  Li1  1  0.64258900  0.35741100  0.25000000  1
  V  V0  1  0.00000000  0.00000000  0.00000000  1
  V  V1  1  0.00000000  0.00000000  0.50000000  1
  F  F0  1  0.23322900  0.20852400  0.25000000  1
  F  F1  1  0.20852400  0.23322900  0.75000000  1
  F  F2  1  0.22521500  0.77478500  0.51755300  1
  F  F3  1  0.22521500  0.77478500  0.98244700  1
  F  F4  1  0.77478500  0.22521500  0.01755300  1
  F  F5  1  0.77478500  0.22521500  0.48244700  1
  F  F6  1  0.79147600  0.76677100  0.25000000  1
  F  F7  1  0.76677100  0.79147600  0.75000000  1
loop_
_geom_bond_atom_site_label_1
_geom_bond_atom_site_label_2
_geom_bond_distance
_geom_bond_site_symmetry_2
F0 Li1 1.967730 1_555
F0 V1 2.056103 1_555
F0 V0 2.056103 1_555
F1 Li0 1.967730 1_555
F1 V0 2.056103 1_556
F1 V1 2.056103 1_555
F2 Li0 1.852534 1_555
F2 V1 1.895887 1_565
F3 Li0 1.852534 1_555
F3 V0 1.895887 1_566
F4 Li1 1.852534 1_555
F4 V0 1.895887 1_655
F5 Li1 1.852534 1_555
F5 V1 1.895887 1_655
F6 Li1 1.967730 1_555
F6 V1 2.056103 1_665
F6 V0 2.056103 1_665
F7 Li0 1.967730 1_555
F7 V0 2.056103 1_666
F7 V1 2.056103 1_665
