# generated using pymatgen
data_Li6Mn2P(CO4)4
_symmetry_space_group_name_H-M   'P 1'
_cell_length_a   9.51563212
_cell_length_b   9.51563212
_cell_length_c   9.51563212
_cell_angle_alpha   60.00000000
_cell_angle_beta   60.00000000
_cell_angle_gamma   60.00000000
_symmetry_Int_Tables_number   1
_chemical_formula_structural   Li6Mn2P(CO4)4
_chemical_formula_sum   'Li12 Mn4 P2 C8 O32'
_cell_volume   609.25336020
_cell_formula_units_Z   2
loop_
 _symmetry_equiv_pos_site_id
 _symmetry_equiv_pos_as_xyz
  1  'x, y, z'
loop_
 _atom_site_type_symbol
 _atom_site_label
 _atom_site_symmetry_multiplicity
 _atom_site_fract_x
 _atom_site_fract_y
 _atom_site_fract_z
 _atom_site_occupancy
  Li  Li0  1  0.55135200  0.94864800  0.94864800  1
  Li  Li1  1  0.30135200  0.30135200  0.69864800  1
  Li  Li2  1  0.55135200  0.94864800  0.55135200  1
  Li  Li3  1  0.94864800  0.55135200  0.94864800  1
  Li  Li4  1  0.69864800  0.69864800  0.30135200  1
  Li  Li5  1  0.30135200  0.69864800  0.69864800  1
  Li  Li6  1  0.55135200  0.55135200  0.94864800  1
  Li  Li7  1  0.94864800  0.55135200  0.55135200  1
  Li  Li8  1  0.69864800  0.30135200  0.69864800  1
  Li  Li9  1  0.30135200  0.69864800  0.30135200  1
  Li  Li10  1  0.94864800  0.94864800  0.55135200  1
  Li  Li11  1  0.69864800  0.30135200  0.30135200  1
  Mn  Mn0  1  0.12500000  0.62500000  0.12500000  1
  Mn  Mn1  1  0.62500000  0.12500000  0.12500000  1
  Mn  Mn2  1  0.12500000  0.12500000  0.12500000  1
  Mn  Mn3  1  0.12500000  0.12500000  0.62500000  1
  P  P0  1  0.75000000  0.75000000  0.75000000  1
  P  P1  1  0.50000000  0.50000000  0.50000000  1
  C  C0  1  0.34833400  0.95499800  0.34833400  1
  C  C1  1  0.95499800  0.34833400  0.34833400  1
  C  C2  1  0.34833400  0.34833400  0.95499800  1
  C  C3  1  0.34833400  0.34833400  0.34833400  1
  C  C4  1  0.90166600  0.90166600  0.90166600  1
  C  C5  1  0.90166600  0.90166600  0.29500200  1
  C  C6  1  0.29500200  0.90166600  0.90166600  1
  C  C7  1  0.90166600  0.29500200  0.90166600  1
  O  O0  1  0.29569900  0.03311800  0.76084600  1
  O  O1  1  0.03311800  0.29569900  0.91033700  1
  O  O2  1  0.48915400  0.95430100  0.21688200  1
  O  O3  1  0.33966300  0.21688200  0.95430100  1
  O  O4  1  0.33966300  0.95430100  0.48915400  1
  O  O5  1  0.68328100  0.68328100  0.68328100  1
  O  O6  1  0.95430100  0.33966300  0.21688200  1
  O  O7  1  0.95015800  0.68328100  0.68328100  1
  O  O8  1  0.68328100  0.68328100  0.95015800  1
  O  O9  1  0.48915400  0.33966300  0.95430100  1
  O  O10  1  0.21688200  0.48915400  0.95430100  1
  O  O11  1  0.68328100  0.95015800  0.68328100  1
  O  O12  1  0.48915400  0.21688200  0.33966300  1
  O  O13  1  0.95430100  0.48915400  0.33966300  1
  O  O14  1  0.21688200  0.33966300  0.48915400  1
  O  O15  1  0.91033700  0.76084600  0.03311800  1
  O  O16  1  0.33966300  0.48915400  0.21688200  1
  O  O17  1  0.03311800  0.91033700  0.76084600  1
  O  O18  1  0.29569900  0.76084600  0.91033700  1
  O  O19  1  0.76084600  0.03311800  0.91033700  1
  O  O20  1  0.56671900  0.29984200  0.56671900  1
  O  O21  1  0.03311800  0.76084600  0.29569900  1
  O  O22  1  0.76084600  0.91033700  0.29569900  1
  O  O23  1  0.29984200  0.56671900  0.56671900  1
  O  O24  1  0.56671900  0.56671900  0.29984200  1
  O  O25  1  0.29569900  0.91033700  0.03311800  1
  O  O26  1  0.56671900  0.56671900  0.56671900  1
  O  O27  1  0.91033700  0.29569900  0.76084600  1
  O  O28  1  0.91033700  0.03311800  0.29569900  1
  O  O29  1  0.76084600  0.29569900  0.03311800  1
  O  O30  1  0.21688200  0.95430100  0.33966300  1
  O  O31  1  0.95430100  0.21688200  0.48915400  1
loop_
_geom_bond_atom_site_label_1
_geom_bond_atom_site_label_2
_geom_bond_distance
_geom_bond_site_symmetry_2
Li0 O11 2.182715 1_555
Li0 O8 2.182715 1_555
Li0 O19 2.309861 1_565
Li0 O25 2.309861 1_556
Li0 O3 2.337267 1_565
Li0 O2 2.337267 1_556
Li1 O23 2.182715 1_555
Li1 O20 2.182715 1_555
Li1 O3 2.309861 1_555
Li1 O14 2.309861 1_555
Li1 O1 2.337267 1_555
Li1 O0 2.337267 1_555
Li2 O5 2.182717 1_555
Li2 O11 2.182723 1_555
Li2 O0 2.309861 1_565
Li2 O22 2.309861 1_555
Li2 O12 2.337267 1_565
Li2 O4 2.337267 1_555
Li3 O8 2.182715 1_555
Li3 O7 2.182715 1_555
Li3 O15 2.309861 1_556
Li3 O1 2.309861 1_655
Li3 O10 2.337267 1_655
Li3 O6 2.337267 1_556
Li4 O26 2.182717 1_555
Li4 O24 2.182723 1_555
Li4 O13 2.309861 1_555
Li4 O2 2.309861 1_555
Li4 O22 2.337267 1_555
Li4 O15 2.337267 1_555
Li5 O26 2.182717 1_555
Li5 O23 2.182723 1_555
Li5 O10 2.309861 1_555
Li5 O4 2.309861 1_555
Li5 O18 2.337267 1_555
Li5 O17 2.337267 1_555
Li6 O5 2.182717 1_555
Li6 O8 2.182723 1_555
Li6 O29 2.309861 1_556
Li6 O18 2.309861 1_555
Li6 O16 2.337267 1_556
Li6 O9 2.337267 1_555
Li7 O5 2.182717 1_555
Li7 O7 2.182723 1_555
Li7 O21 2.309861 1_655
Li7 O27 2.309861 1_555
Li7 O14 2.337267 1_655
Li7 O13 2.337267 1_555
Li8 O26 2.182717 1_555
Li8 O20 2.182723 1_555
Li8 O9 2.309861 1_555
Li8 O31 2.309861 1_555
Li8 O27 2.337267 1_555
Li8 O19 2.337267 1_555
Li9 O23 2.182715 1_555
Li9 O24 2.182715 1_555
Li9 O30 2.309861 1_555
Li9 O16 2.309861 1_555
Li9 O21 2.337267 1_555
Li9 O25 2.337267 1_555
Li10 O11 2.182715 1_555
Li10 O7 2.182715 1_555
Li10 O17 2.309861 1_655
Li10 O28 2.309861 1_565
Li10 O31 2.337267 1_565
Li10 O30 2.337267 1_655
Li11 O20 2.182715 1_555
Li11 O24 2.182715 1_555
Li11 O6 2.309861 1_555
Li11 O12 2.309861 1_555
Li11 O28 2.337267 1_555
Li11 O29 2.337267 1_555
Mn0 O16 2.150141 1_555
Mn0 O15 2.150141 1_455
Mn0 O21 2.150141 1_555
Mn0 O18 2.150141 1_554
Mn0 O13 2.150141 1_455
Mn0 O10 2.150141 1_554
Mn1 O12 2.150141 1_555
Mn1 O22 2.150141 1_545
Mn1 O19 2.150141 1_554
Mn1 O29 2.150141 1_555
Mn1 O9 2.150141 1_554
Mn1 O2 2.150141 1_545
Mn2 O6 2.150141 1_455
Mn2 O3 2.150141 1_554
Mn2 O30 2.150141 1_545
Mn2 O28 2.150141 1_455
Mn2 O25 2.150141 1_545
Mn2 O1 2.150141 1_554
Mn3 O14 2.150141 1_555
Mn3 O31 2.150141 1_455
Mn3 O4 2.150141 1_545
Mn3 O0 2.150141 1_555
Mn3 O17 2.150141 1_545
Mn3 O27 2.150141 1_455
C0 O4 1.297508 1_555
C0 O2 1.297508 1_555
C0 O30 1.297508 1_555
C1 O13 1.297508 1_555
C1 O31 1.297508 1_555
C1 O6 1.297508 1_555
C2 O9 1.297508 1_555
C2 O10 1.297508 1_555
C2 O3 1.297508 1_555
C3 O12 1.297508 1_555
C3 O16 1.297508 1_555
C3 O14 1.297508 1_555
C4 O19 1.297508 1_565
C4 O15 1.297508 1_556
C4 O17 1.297508 1_655
C5 O22 1.297508 1_555
C5 O21 1.297508 1_655
C5 O28 1.297508 1_565
C6 O18 1.297508 1_555
C6 O0 1.297508 1_565
C6 O25 1.297508 1_556
C7 O27 1.297508 1_555
C7 O29 1.297508 1_556
C7 O1 1.297508 1_655
O5 P0 1.555116 1_555
O7 P0 1.555124 1_555
O8 P0 1.555124 1_555
O11 P0 1.555124 1_555
O20 P1 1.555124 1_555
O23 P1 1.555124 1_555
O24 P1 1.555124 1_555
O26 P1 1.555116 1_555
