# generated using pymatgen
data_Li2CoSi3O8
_symmetry_space_group_name_H-M   'P 1'
_cell_length_a   6.50039127
_cell_length_b   8.59031100
_cell_length_c   13.13691938
_cell_angle_alpha   90.00042335
_cell_angle_beta   77.62152020
_cell_angle_gamma   90.00075199
_symmetry_Int_Tables_number   1
_chemical_formula_structural   Li2CoSi3O8
_chemical_formula_sum   'Li8 Co4 Si12 O32'
_cell_volume   716.51718887
_cell_formula_units_Z   4
loop_
 _symmetry_equiv_pos_site_id
 _symmetry_equiv_pos_as_xyz
  1  'x, y, z'
loop_
 _atom_site_type_symbol
 _atom_site_label
 _atom_site_symmetry_multiplicity
 _atom_site_fract_x
 _atom_site_fract_y
 _atom_site_fract_z
 _atom_site_occupancy
  Li  Li0  1  0.74245300  0.30470800  0.12646500  1
  Li  Li1  1  0.24229800  0.30481000  0.62641400  1
  Li  Li2  1  0.75769900  0.80480100  0.37358200  1
  Li  Li3  1  0.25752200  0.80468600  0.87352200  1
  Li  Li4  1  0.27414300  0.77511200  0.25050900  1
  Li  Li5  1  0.77403200  0.77497500  0.75054900  1
  Li  Li6  1  0.22592400  0.27496200  0.24948400  1
  Li  Li7  1  0.72585300  0.27502300  0.74951700  1
  Co  Co0  1  0.34243400  0.99952000  0.69471200  1
  Co  Co1  1  0.65754800  0.49952900  0.30528200  1
  Co  Co2  1  0.84243800  0.99944000  0.19471500  1
  Co  Co3  1  0.15756900  0.49943200  0.80528600  1
  Si  Si0  1  0.38854000  0.52507600  0.01591200  1
  Si  Si1  1  0.88849400  0.52517900  0.51591900  1
  Si  Si2  1  0.11148700  0.02517700  0.48407400  1
  Si  Si3  1  0.61148700  0.02507800  0.98408700  1
  Si  Si4  1  0.20246700  0.19401600  0.04667500  1
  Si  Si5  1  0.70246800  0.19412600  0.54668500  1
  Si  Si6  1  0.29752000  0.69413300  0.45331200  1
  Si  Si7  1  0.79755400  0.69401600  0.95333100  1
  Si  Si8  1  0.00075900  0.66282200  0.14192300  1
  Si  Si9  1  0.50066200  0.66288300  0.64190900  1
  Si  Si10  1  0.49932000  0.16288100  0.35808700  1
  Si  Si11  1  0.99926300  0.16282100  0.85808300  1
  O  O0  1  0.94848900  0.73983200  0.03400200  1
  O  O1  1  0.44841400  0.73995900  0.53399800  1
  O  O2  1  0.55155600  0.23994800  0.46601200  1
  O  O3  1  0.05153300  0.23982800  0.96600500  1
  O  O4  1  0.35669900  0.04987300  0.99546500  1
  O  O5  1  0.85670600  0.05000900  0.49544800  1
  O  O6  1  0.14328300  0.55001300  0.50453700  1
  O  O7  1  0.64332500  0.54988200  0.00453800  1
  O  O8  1  0.35617900  0.34327100  0.05698500  1
  O  O9  1  0.85619900  0.34337300  0.55699700  1
  O  O10  1  0.14380100  0.84337300  0.44298900  1
  O  O11  1  0.64385200  0.84327500  0.94300500  1
  O  O12  1  0.68865600  0.06556700  0.08857500  1
  O  O13  1  0.18864500  0.06566400  0.58857600  1
  O  O14  1  0.81131300  0.56567400  0.41142600  1
  O  O15  1  0.31137900  0.56555800  0.91142000  1
  O  O16  1  0.26323600  0.63430500  0.11541400  1
  O  O17  1  0.76314500  0.63438700  0.61541500  1
  O  O18  1  0.23684000  0.13439500  0.38457900  1
  O  O19  1  0.73678600  0.13431000  0.88458500  1
  O  O20  1  0.06907200  0.15934400  0.16297700  1
  O  O21  1  0.56908700  0.15942300  0.66297400  1
  O  O22  1  0.43091500  0.65944400  0.33702400  1
  O  O23  1  0.93096000  0.65935700  0.83702600  1
  O  O24  1  0.87411900  0.50261000  0.17418800  1
  O  O25  1  0.37403500  0.50267600  0.67415000  1
  O  O26  1  0.62593700  0.00267400  0.32584000  1
  O  O27  1  0.12589400  0.00260800  0.82581600  1
  O  O28  1  0.96987400  0.79867500  0.23091500  1
  O  O29  1  0.46977000  0.79871000  0.73093300  1
  O  O30  1  0.53021800  0.29871500  0.26906900  1
  O  O31  1  0.03015000  0.29866500  0.76908300  1
loop_
_geom_bond_atom_site_label_1
_geom_bond_atom_site_label_2
_geom_bond_distance
_geom_bond_site_symmetry_2
Li0 O24 2.060512 1_555
Li0 O30 2.075436 1_555
Li0 O12 2.159810 1_555
Li1 O25 2.060546 1_555
Li1 O31 2.075851 1_555
Li1 O13 2.159472 1_555
Li2 O26 2.060731 1_565
Li2 O28 2.075910 1_555
Li2 O14 2.159300 1_555
Li3 O27 2.060473 1_565
Li3 O29 2.075322 1_555
Li3 O15 2.159830 1_555
Li4 O22 1.952986 1_555
Li4 O28 2.058513 1_455
Li4 O16 2.161409 1_555
Li4 O10 2.556749 1_555
Li5 O23 1.953077 1_555
Li5 O29 2.058709 1_555
Li5 O17 2.160754 1_555
Li5 O11 2.556411 1_555
Li6 O20 1.953008 1_555
Li6 O30 2.058790 1_555
Li6 O18 2.160284 1_555
Li6 O8 2.557009 1_555
Li7 O21 1.952896 1_555
Li7 O31 2.058632 1_655
Li7 O19 2.160714 1_555
Li7 O9 2.557414 1_555
Co0 O13 1.965687 1_565
Co0 O27 1.977110 1_565
Co0 O21 1.991973 1_565
Co0 O29 2.013993 1_555
Co1 O14 1.965659 1_555
Co1 O24 1.977121 1_555
Co1 O22 1.991979 1_555
Co1 O30 2.013946 1_555
Co2 O12 1.965658 1_565
Co2 O26 1.977193 1_565
Co2 O20 1.991893 1_665
Co2 O28 2.013873 1_555
Co3 O15 1.965698 1_555
Co3 O25 1.977178 1_555
Co3 O23 1.991929 1_455
Co3 O31 2.013824 1_555
O0 Si7 1.639028 1_554
O0 Si8 1.664225 1_655
O1 Si6 1.639005 1_555
O1 Si9 1.664278 1_555
O2 Si5 1.638961 1_555
O2 Si10 1.664370 1_555
O3 Si4 1.639015 1_556
O3 Si11 1.664215 1_455
O4 Si4 1.643714 1_556
O4 Si3 1.644582 1_555
O5 Si5 1.643665 1_555
O5 Si2 1.644585 1_655
O6 Si6 1.643625 1_555
O6 Si1 1.644620 1_455
O7 Si7 1.643622 1_554
O7 Si0 1.644577 1_555
O8 Si4 1.648820 1_555
O8 Si0 1.651008 1_555
O9 Si5 1.648849 1_555
O9 Si1 1.651012 1_555
O10 Si6 1.648806 1_555
O10 Si2 1.651028 1_565
O11 Si7 1.648873 1_555
O11 Si3 1.651027 1_565
O12 Si3 1.597490 1_554
O13 Si2 1.597621 1_555
O14 Si1 1.597608 1_555
O15 Si0 1.597507 1_556
O16 Si0 1.672137 1_555
O16 Si8 1.684541 1_555
O17 Si1 1.672076 1_555
O17 Si9 1.684555 1_555
O18 Si2 1.672122 1_555
O18 Si10 1.684518 1_555
O19 Si3 1.672140 1_555
O19 Si11 1.684529 1_555
O20 Si4 1.614599 1_555
O21 Si5 1.614476 1_555
O22 Si6 1.614473 1_555
O23 Si7 1.614635 1_555
O24 Si8 1.613021 1_655
O25 Si9 1.612897 1_555
O26 Si10 1.612893 1_555
O27 Si11 1.613019 1_455
O28 Si8 1.633508 1_655
O29 Si9 1.633637 1_555
O30 Si10 1.633633 1_555
O31 Si11 1.633533 1_455
