# generated using pymatgen
data_Fe6O7F5
_symmetry_space_group_name_H-M   'P 1'
_cell_length_a   5.57865200
_cell_length_b   5.58422563
_cell_length_c   7.36776626
_cell_angle_alpha   72.02208253
_cell_angle_beta   72.10459854
_cell_angle_gamma   71.67573391
_symmetry_Int_Tables_number   1
_chemical_formula_structural   Fe6O7F5
_chemical_formula_sum   'Fe6 O7 F5'
_cell_volume   201.55101431
_cell_formula_units_Z   1
loop_
 _symmetry_equiv_pos_site_id
 _symmetry_equiv_pos_as_xyz
  1  'x, y, z'
loop_
 _atom_site_type_symbol
 _atom_site_label
 _atom_site_symmetry_multiplicity
 _atom_site_fract_x
 _atom_site_fract_y
 _atom_site_fract_z
 _atom_site_occupancy
  Fe  Fe0  1  0.67674800  0.69810300  0.84200700  1
  Fe  Fe1  1  0.32693900  0.34502000  0.66726000  1
  Fe  Fe2  1  0.66840700  0.63272800  0.31368700  1
  Fe  Fe3  1  0.30481600  0.35268300  0.16356900  1
  Fe  Fe4  1  0.97781000  0.99860800  0.50533800  1
  Fe  Fe5  1  0.02340100  0.98835000  0.00055300  1
  O  O0  1  0.03012000  0.64185200  0.66716400  1
  O  O1  1  0.22965200  0.23297500  0.95660400  1
  O  O2  1  0.79176700  0.77471500  0.03683500  1
  O  O3  1  0.41878300  0.42781700  0.37880000  1
  O  O4  1  0.96681100  0.34373300  0.33254600  1
  O  O5  1  0.62721600  0.04522000  0.66809900  1
  O  O6  1  0.32272200  0.69532200  0.00177700  1
  F  F0  1  0.36532800  0.96059400  0.33256600  1
  F  F1  1  0.89420300  0.88419600  0.30714600  1
  F  F2  1  0.57133900  0.57523400  0.62668300  1
  F  F3  1  0.09989600  0.10305300  0.69521400  1
  F  F4  1  0.70404200  0.29979700  0.00415000  1
loop_
_geom_bond_atom_site_label_1
_geom_bond_atom_site_label_2
_geom_bond_distance
_geom_bond_site_symmetry_2
Fe0 O2 1.942421 1_556
Fe0 O5 1.955264 1_565
Fe0 O6 1.966147 1_556
Fe0 O0 1.985968 1_655
Fe1 O0 1.939990 1_555
Fe1 O5 1.960992 1_555
Fe1 O3 1.966308 1_555
Fe1 O1 1.977316 1_555
Fe2 O4 1.925977 1_555
Fe2 O3 1.931647 1_555
Fe2 O2 1.935204 1_555
Fe3 O4 1.919934 1_455
Fe3 O6 1.931578 1_555
Fe3 O1 2.036259 1_554
Fe3 O3 2.071949 1_555
Fe4 O5 1.939662 1_565
Fe4 O4 1.948820 1_565
Fe4 O0 1.964080 1_655
Fe5 O2 1.929936 1_455
Fe5 O6 1.935974 1_555
Fe5 O1 1.944504 1_564
F0 Fe2 2.072768 1_555
F0 Fe4 2.127439 1_455
F0 Fe3 2.137506 1_565
F1 Fe4 1.984908 1_555
F1 Fe5 2.100574 1_655
F1 Fe2 2.143383 1_555
F2 Fe1 2.053132 1_555
F2 Fe2 2.144565 1_555
F2 Fe0 2.198265 1_555
F3 Fe4 2.024880 1_445
F3 Fe1 2.053395 1_555
F3 Fe5 2.084646 1_546
F4 Fe5 2.061716 1_645
F4 Fe3 2.149393 1_555
F4 Fe0 2.157803 1_554
