# generated using pymatgen
data_Mn3V2Co3O16
_symmetry_space_group_name_H-M   'P 1'
_cell_length_a   5.69504995
_cell_length_b   5.69504995
_cell_length_c   8.83426058
_cell_angle_alpha   89.25168586
_cell_angle_beta   89.25168586
_cell_angle_gamma   60.19340197
_symmetry_Int_Tables_number   1
_chemical_formula_structural   Mn3V2Co3O16
_chemical_formula_sum   'Mn3 V2 Co3 O16'
_cell_volume   248.59334861
_cell_formula_units_Z   1
loop_
 _symmetry_equiv_pos_site_id
 _symmetry_equiv_pos_as_xyz
  1  'x, y, z'
loop_
 _atom_site_type_symbol
 _atom_site_label
 _atom_site_symmetry_multiplicity
 _atom_site_fract_x
 _atom_site_fract_y
 _atom_site_fract_z
 _atom_site_occupancy
  Mn  Mn0  1  0.82885500  0.82885500  0.78693900  1
  Mn  Mn1  1  0.16847800  0.65720700  0.28561100  1
  Mn  Mn2  1  0.65720700  0.16847800  0.28561100  1
  V  V0  1  0.65905700  0.65905700  0.50143100  1
  V  V1  1  0.32563100  0.32563100  0.99914700  1
  Co  Co0  1  0.34044200  0.82528300  0.78816200  1
  Co  Co1  1  0.82528300  0.34044200  0.78816200  1
  Co  Co2  1  0.16747200  0.16747200  0.28832400  1
  O  O0  1  0.34300400  0.82452700  0.40507300  1
  O  O1  1  0.52071100  0.52071100  0.66421300  1
  O  O2  1  0.65960200  0.65960200  0.89447300  1
  O  O3  1  0.00346200  0.00346200  0.68891400  1
  O  O4  1  0.99935200  0.99935200  0.18349700  1
  O  O5  1  0.82452700  0.34300400  0.40507300  1
  O  O6  1  0.52158100  0.95384200  0.66188400  1
  O  O7  1  0.95384200  0.52158100  0.66188400  1
  O  O8  1  0.16863800  0.16863800  0.90250400  1
  O  O9  1  0.82622800  0.82622800  0.40640500  1
  O  O10  1  0.04334700  0.47166700  0.16173900  1
  O  O11  1  0.47166700  0.04334700  0.16173900  1
  O  O12  1  0.33072000  0.33072000  0.39797800  1
  O  O13  1  0.17228500  0.64993000  0.90407900  1
  O  O14  1  0.47977200  0.47977200  0.16059400  1
  O  O15  1  0.64993000  0.17228500  0.90407900  1
loop_
_geom_bond_atom_site_label_1
_geom_bond_atom_site_label_2
_geom_bond_distance
_geom_bond_site_symmetry_2
Mn0 O6 1.892380 1_555
Mn0 O7 1.892380 1_555
Mn0 O2 1.906969 1_555
Mn0 O3 1.914579 1_665
Mn0 O15 1.994641 1_565
Mn0 O13 1.994641 1_655
Mn1 O12 1.887898 1_555
Mn1 O14 1.892318 1_555
Mn1 O10 1.902911 1_555
Mn1 O4 1.910304 1_455
Mn1 O9 1.992916 1_455
Mn1 O0 2.001234 1_555
Mn2 O12 1.887898 1_555
Mn2 O14 1.892318 1_555
Mn2 O11 1.902911 1_555
Mn2 O4 1.910304 1_545
Mn2 O9 1.992916 1_545
Mn2 O5 2.001234 1_555
Co0 O2 1.841897 1_555
Co0 O1 1.873924 1_555
Co0 O6 1.882606 1_555
Co0 O3 1.888428 1_565
Co0 O13 1.965072 1_555
Co0 O8 1.981185 1_565
Co1 O2 1.841897 1_555
Co1 O1 1.873924 1_555
Co1 O7 1.882606 1_555
Co1 O3 1.888428 1_655
Co1 O15 1.965072 1_555
Co1 O8 1.981185 1_655
Co2 O10 1.871917 1_555
Co2 O11 1.871917 1_555
Co2 O12 1.890357 1_555
Co2 O4 1.910157 1_445
Co2 O5 1.977615 1_455
Co2 O0 1.977615 1_545
O0 V0 1.784728 1_555
O1 V0 1.966593 1_555
O5 V0 1.784728 1_555
O6 V0 2.041354 1_555
O7 V0 2.041354 1_555
O8 V1 1.778279 1_555
O9 V0 1.837623 1_555
O10 V1 1.995247 1_554
O11 V1 1.995247 1_554
O13 V1 1.803948 1_555
O14 V1 2.099272 1_554
O15 V1 1.803948 1_555
