# generated using pymatgen
data_Ba2V2O5
_symmetry_space_group_name_H-M   'P 1'
_cell_length_a   5.76171200
_cell_length_b   5.78381204
_cell_length_c   23.00867826
_cell_angle_alpha   89.32092378
_cell_angle_beta   89.18811397
_cell_angle_gamma   61.11779156
_symmetry_Int_Tables_number   1
_chemical_formula_structural   Ba2V2O5
_chemical_formula_sum   'Ba10 V10 O25'
_cell_volume   671.30464652
_cell_formula_units_Z   5
loop_
 _symmetry_equiv_pos_site_id
 _symmetry_equiv_pos_as_xyz
  1  'x, y, z'
loop_
 _atom_site_type_symbol
 _atom_site_label
 _atom_site_symmetry_multiplicity
 _atom_site_fract_x
 _atom_site_fract_y
 _atom_site_fract_z
 _atom_site_occupancy
  Ba  Ba0  1  0.65795600  0.68461100  0.60777800  1
  Ba  Ba1  1  0.66769400  0.66625700  0.10614700  1
  Ba  Ba2  1  0.65464500  0.68935500  0.79658700  1
  Ba  Ba3  1  0.67551500  0.65453000  0.29975600  1
  Ba  Ba4  1  0.99694900  0.99788800  0.00252800  1
  Ba  Ba5  1  0.00506300  0.99538300  0.50309500  1
  Ba  Ba6  1  0.34765500  0.30749100  0.39833400  1
  Ba  Ba7  1  0.33303700  0.32779500  0.89930200  1
  Ba  Ba8  1  0.32292000  0.33134000  0.20716000  1
  Ba  Ba9  1  0.32537100  0.34731500  0.70505200  1
  V  V0  1  0.66758600  0.67454400  0.45897100  1
  V  V1  1  0.62800600  0.68142400  0.94820400  1
  V  V2  1  0.98357700  0.00895700  0.86232000  1
  V  V3  1  0.96981200  0.05168900  0.65004000  1
  V  V4  1  0.04182900  0.93583900  0.35625100  1
  V  V5  1  0.97919500  0.00452700  0.25500500  1
  V  V6  1  0.99465900  0.00542800  0.14295500  1
  V  V7  1  0.98330200  0.03419800  0.75195600  1
  V  V8  1  0.34427100  0.31642600  0.54743200  1
  V  V9  1  0.36067300  0.32126700  0.05587700  1
  O  O0  1  0.29103700  0.85525900  0.70070300  1
  O  O1  1  0.32227200  0.82609900  0.89903900  1
  O  O2  1  0.35329100  0.80643500  0.40342100  1
  O  O3  1  0.84935600  0.85010900  0.70036900  1
  O  O4  1  0.85053000  0.84557700  0.20379600  1
  O  O5  1  0.83771000  0.82334600  0.90296600  1
  O  O6  1  0.85239300  0.81044600  0.40256300  1
  O  O7  1  0.17975100  0.67197800  0.29757100  1
  O  O8  1  0.17203700  0.66601400  0.10337500  1
  O  O9  1  0.83377300  0.34020400  0.90738800  1
  O  O10  1  0.00378100  0.49680000  0.50234300  1
  O  O11  1  0.85116200  0.30148500  0.20317800  1
  O  O12  1  0.81682600  0.34373600  0.70137000  1
  O  O13  1  0.16071400  0.18156100  0.60197800  1
  O  O14  1  0.16909400  0.16412700  0.10233300  1
  O  O15  1  0.15135800  0.14962200  0.80260400  1
  O  O16  1  0.17870500  0.12643000  0.30395500  1
  O  O17  1  0.49126500  0.50551100  0.00256800  1
  O  O18  1  0.50541300  0.49673600  0.50313100  1
  O  O19  1  0.49080400  0.00748100  0.00117500  1
  O  O20  1  0.50472100  0.99707700  0.50228000  1
  O  O21  1  0.66658000  0.16633900  0.10322800  1
  O  O22  1  0.65577500  0.18066000  0.60171300  1
  O  O23  1  0.68622500  0.16232000  0.80470000  1
  O  O24  1  0.70914100  0.16787300  0.31270400  1
loop_
_geom_bond_atom_site_label_1
_geom_bond_atom_site_label_2
_geom_bond_distance
_geom_bond_site_symmetry_2
Ba0 O12 2.752097 1_555
Ba0 O3 2.793858 1_555
Ba0 O0 2.814450 1_555
Ba0 O22 2.864757 1_565
Ba0 O20 2.890176 1_555
Ba0 O13 2.921321 1_565
Ba0 O22 2.925836 1_555
Ba0 O13 2.954797 1_655
Ba0 O18 2.965686 1_555
Ba0 O10 2.978235 1_655
Ba1 O8 2.858127 1_555
Ba1 O21 2.889271 1_565
Ba1 O11 2.890273 1_555
Ba1 O21 2.896113 1_555
Ba1 O4 2.900208 1_555
Ba1 O8 2.904997 1_655
Ba1 O14 2.926164 1_565
Ba1 O17 2.934553 1_555
Ba1 O14 2.946517 1_655
Ba1 O19 2.963264 1_565
Ba2 O12 2.812501 1_555
Ba2 O3 2.812944 1_555
Ba2 O23 2.836377 1_565
Ba2 O15 2.838109 1_565
Ba2 O1 2.881459 1_555
Ba2 O0 2.883711 1_555
Ba2 O5 2.934594 1_555
Ba2 O23 2.968431 1_555
Ba2 O15 3.053736 1_655
Ba2 O9 3.095443 1_555
Ba3 O24 2.739336 1_555
Ba3 O7 2.810249 1_555
Ba3 O4 2.840451 1_555
Ba3 O16 2.846703 1_565
Ba3 O11 2.859921 1_555
Ba3 O2 2.873386 1_555
Ba3 O6 2.907556 1_555
Ba3 O7 2.955034 1_655
Ba3 O16 3.031630 1_655
Ba3 O24 3.085453 1_565
Ba4 O9 2.784460 1_564
Ba4 O21 2.842160 1_565
Ba4 O5 2.849169 1_554
Ba4 O8 2.859435 1_655
Ba4 O14 2.867010 1_665
Ba4 O19 2.872385 1_665
Ba4 O1 2.881144 1_654
Ba4 O19 2.890476 1_565
Ba4 O17 2.895945 1_655
Ba4 O17 2.974137 1_565
Ba5 O13 2.861642 1_565
Ba5 O22 2.862178 1_465
Ba5 O20 2.878433 1_455
Ba5 O2 2.879285 1_555
Ba5 O6 2.879862 1_455
Ba5 O20 2.883426 1_555
Ba5 O10 2.887543 1_555
Ba5 O10 2.896388 1_565
Ba5 O18 2.932058 1_555
Ba5 O18 2.938016 1_465
Ba6 O24 2.677416 1_555
Ba6 O16 2.803286 1_555
Ba6 O20 2.855238 1_545
Ba6 O2 2.883469 1_545
Ba6 O2 2.905379 1_555
Ba6 O6 2.931626 1_455
Ba6 O6 2.942185 1_545
Ba6 O10 2.946773 1_555
Ba6 O7 2.955121 1_555
Ba6 O18 2.987325 1_555
Ba7 O23 2.799532 1_555
Ba7 O19 2.843120 1_556
Ba7 O9 2.846118 1_455
Ba7 O1 2.852591 1_555
Ba7 O15 2.875812 1_555
Ba7 O5 2.909291 1_455
Ba7 O17 2.925341 1_556
Ba7 O9 2.929011 1_555
Ba7 O1 2.932256 1_545
Ba7 O5 2.963182 1_545
Ba8 O7 2.714409 1_555
Ba8 O11 2.808434 1_455
Ba8 O16 2.809170 1_555
Ba8 O4 2.905264 1_455
Ba8 O14 2.912420 1_555
Ba8 O8 2.920386 1_555
Ba8 O21 2.940135 1_555
Ba8 O11 2.964179 1_555
Ba8 O4 2.981384 1_545
Ba8 O24 3.131992 1_555
Ba9 O12 2.821756 1_555
Ba9 O0 2.848208 1_555
Ba9 O3 2.878675 1_455
Ba9 O15 2.886772 1_555
Ba9 O22 2.891368 1_555
Ba9 O13 2.905145 1_555
Ba9 O23 2.941488 1_555
Ba9 O12 2.942567 1_455
Ba9 O0 2.949544 1_545
Ba9 O3 3.001217 1_545
O0 V7 1.950020 1_465
O0 V3 2.018301 1_465
O1 V2 1.916328 1_465
O1 V1 1.921722 1_555
O2 V4 1.922750 1_555
O2 V0 2.050082 1_555
O3 V3 1.977088 1_565
O3 V7 1.996956 1_565
O4 V5 1.868645 1_565
O4 V6 2.045019 1_565
O5 V2 1.886523 1_565
O5 V1 2.029601 1_555
O6 V4 1.888433 1_655
O6 V0 2.044826 1_555
O7 V4 1.905343 1_555
O7 V5 1.958142 1_465
O8 V6 1.950768 1_465
O8 V9 2.067837 1_555
O9 V2 1.978661 1_555
O9 V1 1.983566 1_555
O10 V0 1.977798 1_455
O10 V8 2.016988 1_555
O11 V5 1.915349 1_555
O11 V6 2.047401 1_555
O12 V3 1.898550 1_555
O12 V7 1.950206 1_555
O13 V3 1.934149 1_455
O13 V8 2.009526 1_555
O14 V6 1.889557 1_455
O14 V9 2.024765 1_555
O15 V7 1.848287 1_455
O15 V2 2.044480 1_455
O16 V5 1.981278 1_455
O16 V4 2.016539 1_545
O17 V9 1.980817 1_555
O17 V1 1.984140 1_554
O18 V0 1.959518 1_555
O18 V8 1.967729 1_555
O19 V9 2.037882 1_555
O19 V1 2.062486 1_544
O20 V0 1.918343 1_555
O20 V8 1.927248 1_565
O21 V9 1.897912 1_555
O21 V6 1.898479 1_555
O22 V3 1.949423 1_555
O22 V8 2.019047 1_555
O23 V7 1.920637 1_555
O23 V2 2.011997 1_555
O24 V5 1.904523 1_555
O24 V4 2.004193 1_645
