# generated using pymatgen
data_SrLiNb2O6F
_symmetry_space_group_name_H-M   'P 1'
_cell_length_a   10.79997430
_cell_length_b   10.79997430
_cell_length_c   10.79997430
_cell_angle_alpha   159.33226470
_cell_angle_beta   159.33226470
_cell_angle_gamma   29.39158899
_symmetry_Int_Tables_number   1
_chemical_formula_structural   SrLiNb2O6F
_chemical_formula_sum   'Sr1 Li1 Nb2 O6 F1'
_cell_volume   156.83734252
_cell_formula_units_Z   1
loop_
 _symmetry_equiv_pos_site_id
 _symmetry_equiv_pos_as_xyz
  1  'x, y, z'
loop_
 _atom_site_type_symbol
 _atom_site_label
 _atom_site_symmetry_multiplicity
 _atom_site_fract_x
 _atom_site_fract_y
 _atom_site_fract_z
 _atom_site_occupancy
  Sr  Sr0  1  0.00000000  0.00000000  0.00000000  1
  Li  Li0  1  0.75000000  0.25000000  0.50000000  1
  Nb  Nb0  1  0.61782700  0.61782700  0.00000000  1
  Nb  Nb1  1  0.38217300  0.38217300  0.00000000  1
  O  O0  1  0.70413800  0.70413800  0.00000000  1
  O  O1  1  0.59294500  0.09294500  0.50000000  1
  O  O2  1  0.90705500  0.40705500  0.50000000  1
  O  O3  1  0.29586200  0.29586200  0.00000000  1
  O  O4  1  0.09182400  0.59182400  0.50000000  1
  O  O5  1  0.40817600  0.90817600  0.50000000  1
  F  F0  1  0.50000000  0.50000000  0.00000000  1
loop_
_geom_bond_atom_site_label_1
_geom_bond_atom_site_label_2
_geom_bond_distance
_geom_bond_site_symmetry_2
Li0 O3 2.161354 1_656
Li0 O3 2.161354 1_555
Li0 O0 2.161354 1_545
Li0 O0 2.161354 1_556
Nb0 O0 1.803325 1_555
Nb0 O1 2.005879 1_554
Nb0 O1 2.005879 1_565
Nb0 O4 2.012076 1_655
Nb0 O4 2.012076 1_554
Nb1 O3 1.803325 1_555
Nb1 O2 2.005879 1_555
Nb1 O2 2.005879 1_454
Nb1 O5 2.012076 1_555
Nb1 O5 2.012076 1_544
O1 Sr0 2.743061 1_555
O1 Sr0 2.743061 1_656
O2 Sr0 2.743061 1_666
O2 Sr0 2.743061 1_655
O4 Sr0 2.726530 1_566
O4 Sr0 2.726530 1_555
O5 Sr0 2.726530 1_565
O5 Sr0 2.726530 1_666
F0 Nb0 2.461799 1_555
F0 Nb1 2.461799 1_555
F0 Sr0 2.739813 1_565
F0 Sr0 2.739813 1_666
F0 Sr0 2.739813 1_655
F0 Sr0 2.739813 1_554
