# generated using pymatgen
data_Cs3GaO3
_symmetry_space_group_name_H-M   'P 1'
_cell_length_a   9.33009500
_cell_length_b   9.33009500
_cell_length_c   9.33009500
_cell_angle_alpha   90.00000000
_cell_angle_beta   90.00000000
_cell_angle_gamma   90.00000000
_symmetry_Int_Tables_number   1
_chemical_formula_structural   Cs3GaO3
_chemical_formula_sum   'Cs12 Ga4 O12'
_cell_volume   812.19104619
_cell_formula_units_Z   4
loop_
 _symmetry_equiv_pos_site_id
 _symmetry_equiv_pos_as_xyz
  1  'x, y, z'
loop_
 _atom_site_type_symbol
 _atom_site_label
 _atom_site_symmetry_multiplicity
 _atom_site_fract_x
 _atom_site_fract_y
 _atom_site_fract_z
 _atom_site_occupancy
  Cs  Cs0  1  0.01011000  0.01011000  0.01011000  1
  Cs  Cs1  1  0.22222300  0.27777700  0.72222300  1
  Cs  Cs2  1  0.24500400  0.74500400  0.75499600  1
  Cs  Cs3  1  0.25499600  0.25499600  0.25499600  1
  Cs  Cs4  1  0.27777700  0.72222300  0.22222300  1
  Cs  Cs5  1  0.48989000  0.98989000  0.51011000  1
  Cs  Cs6  1  0.51011000  0.48989000  0.98989000  1
  Cs  Cs7  1  0.72222300  0.22222300  0.27777700  1
  Cs  Cs8  1  0.74500400  0.75499600  0.24500400  1
  Cs  Cs9  1  0.75499600  0.24500400  0.74500400  1
  Cs  Cs10  1  0.77777700  0.77777700  0.77777700  1
  Cs  Cs11  1  0.98989000  0.51011000  0.48989000  1
  Ga  Ga0  1  0.96482300  0.03517700  0.53517700  1
  Ga  Ga1  1  0.53517700  0.96482300  0.03517700  1
  Ga  Ga2  1  0.46482300  0.46482300  0.46482300  1
  Ga  Ga3  1  0.03517700  0.53517700  0.96482300  1
  O  O0  1  0.01415800  0.19970200  0.44357900  1
  O  O1  1  0.05642100  0.98584200  0.69970200  1
  O  O2  1  0.19970200  0.44357900  0.01415800  1
  O  O3  1  0.30029800  0.55642100  0.51415800  1
  O  O4  1  0.44357900  0.01415800  0.19970200  1
  O  O5  1  0.48584200  0.80029800  0.94357900  1
  O  O6  1  0.51415800  0.30029800  0.55642100  1
  O  O7  1  0.55642100  0.51415800  0.30029800  1
  O  O8  1  0.69970200  0.05642100  0.98584200  1
  O  O9  1  0.80029800  0.94357900  0.48584200  1
  O  O10  1  0.94357900  0.48584200  0.80029800  1
  O  O11  1  0.98584200  0.69970200  0.05642100  1
loop_
_geom_bond_atom_site_label_1
_geom_bond_atom_site_label_2
_geom_bond_distance
_geom_bond_site_symmetry_2
Cs0 O11 2.936932 1_445
Cs0 O1 2.936932 1_544
Cs0 O8 2.936932 1_454
Cs1 O2 3.139456 1_556
Cs1 O1 3.139456 1_545
Cs1 O6 3.139456 1_555
Cs1 O10 3.325354 1_455
Cs1 O3 3.325354 1_555
Cs1 O0 3.325354 1_555
Cs2 O5 2.900203 1_555
Cs2 O1 2.900203 1_555
Cs2 O3 2.900203 1_555
Cs3 O0 2.900203 1_555
Cs3 O4 2.900203 1_555
Cs3 O2 2.900203 1_555
Cs4 O4 3.139456 1_565
Cs4 O11 3.139456 1_455
Cs4 O3 3.139456 1_555
Cs4 O5 3.325354 1_554
Cs4 O7 3.325354 1_555
Cs4 O2 3.325354 1_555
Cs5 O6 2.936932 1_565
Cs5 O9 2.936932 1_555
Cs5 O4 2.936932 1_565
Cs6 O7 2.936932 1_556
Cs6 O5 2.936932 1_555
Cs6 O2 2.936932 1_556
Cs7 O0 3.139456 1_655
Cs7 O8 3.139456 1_554
Cs7 O7 3.139456 1_555
Cs7 O9 3.325354 1_545
Cs7 O6 3.325354 1_555
Cs7 O4 3.325354 1_555
Cs8 O9 2.900203 1_555
Cs8 O11 2.900203 1_555
Cs8 O7 2.900203 1_555
Cs9 O10 2.900203 1_555
Cs9 O8 2.900203 1_555
Cs9 O6 2.900203 1_555
Cs10 O5 3.139456 1_555
Cs10 O10 3.139456 1_555
Cs10 O9 3.139456 1_555
Cs10 O8 3.325354 1_565
Cs10 O11 3.325354 1_556
Cs10 O1 3.325354 1_655
Cs11 O3 2.936932 1_655
Cs11 O10 2.936932 1_555
Cs11 O0 2.936932 1_655
Ga0 O1 1.816199 1_645
Ga0 O0 1.816199 1_655
Ga0 O9 1.816199 1_545
Ga1 O8 1.816199 1_564
Ga1 O4 1.816199 1_565
Ga1 O5 1.816199 1_554
Ga2 O6 1.816199 1_555
Ga2 O3 1.816199 1_555
Ga2 O7 1.816199 1_555
Ga3 O11 1.816199 1_456
Ga3 O2 1.816199 1_556
Ga3 O10 1.816199 1_455
