# generated using pymatgen
data_Li3MnV(PO4)3
_symmetry_space_group_name_H-M   'P 1'
_cell_length_a   8.66183300
_cell_length_b   8.71488286
_cell_length_c   8.72838739
_cell_angle_alpha   91.50580180
_cell_angle_beta   118.60988468
_cell_angle_gamma   119.09054343
_symmetry_Int_Tables_number   1
_chemical_formula_structural   Li3MnV(PO4)3
_chemical_formula_sum   'Li6 Mn2 V2 P6 O24'
_cell_volume   475.76373546
_cell_formula_units_Z   2
loop_
 _symmetry_equiv_pos_site_id
 _symmetry_equiv_pos_as_xyz
  1  'x, y, z'
loop_
 _atom_site_type_symbol
 _atom_site_label
 _atom_site_symmetry_multiplicity
 _atom_site_fract_x
 _atom_site_fract_y
 _atom_site_fract_z
 _atom_site_occupancy
  Li  Li0  1  0.37151600  0.11141100  0.70470500  1
  Li  Li1  1  0.61164600  0.64883400  0.67636500  1
  Li  Li2  1  0.37150800  0.26090800  0.20497900  1
  Li  Li3  1  0.01568600  0.63726500  0.74541200  1
  Li  Li4  1  0.01631400  0.37950700  0.24750600  1
  Li  Li5  1  0.61496300  0.96396600  0.17637700  1
  Mn  Mn0  1  0.78952000  0.14695800  0.85637500  1
  Mn  Mn1  1  0.19646100  0.35106300  0.63842300  1
  V  V0  1  0.79176200  0.64395700  0.36000900  1
  V  V1  1  0.20432800  0.84720900  0.14237600  1
  P  P0  1  0.71980600  0.47050800  0.95473500  1
  P  P1  1  0.71773200  0.24949600  0.45477300  1
  P  P2  1  0.00132400  0.04810000  0.25810200  1
  P  P3  1  0.27873200  0.75077600  0.53956200  1
  P  P4  1  0.00336700  0.95469800  0.75612700  1
  P  P5  1  0.27742200  0.52527200  0.03920700  1
  O  O0  1  0.68212300  0.27370700  0.91821300  1
  O  O1  1  0.90521800  0.62010700  0.94372600  1
  O  O2  1  0.76435400  0.25001400  0.64545200  1
  O  O3  1  0.90258700  0.28237600  0.43910700  1
  O  O4  1  0.51702900  0.44838600  0.79357200  1
  O  O5  1  0.83314600  0.07506500  0.10827400  1
  O  O6  1  0.51610200  0.06580100  0.29278400  1
  O  O7  1  0.87297000  0.99261300  0.80709400  1
  O  O8  1  0.12893900  0.10420600  0.69667200  1
  O  O9  1  0.67604600  0.40354200  0.41532900  1
  O  O10  1  0.82963700  0.75743000  0.60137100  1
  O  O11  1  0.21570900  0.47781300  0.83732500  1
  O  O12  1  0.76466700  0.51693200  0.14665100  1
  O  O13  1  0.17891100  0.23596200  0.42833500  1
  O  O14  1  0.33387500  0.60713000  0.58293900  1
  O  O15  1  0.87757400  0.88506400  0.30855000  1
  O  O16  1  0.12997300  0.02228400  0.19710100  1
  O  O17  1  0.46529500  0.94836200  0.68284400  1
  O  O18  1  0.17167600  0.93880500  0.92130800  1
  O  O19  1  0.46849900  0.52237500  0.18160600  1
  O  O20  1  0.08698600  0.70592500  0.55039900  1
  O  O21  1  0.21514700  0.73844200  0.33907100  1
  O  O22  1  0.09022300  0.38178800  0.05248900  1
  O  O23  1  0.32922800  0.72494100  0.08366700  1
loop_
_geom_bond_atom_site_label_1
_geom_bond_atom_site_label_2
_geom_bond_distance
_geom_bond_site_symmetry_2
Li0 O17 1.992961 1_545
Li0 O0 2.017772 1_555
Li0 O8 2.038168 1_555
Li0 O4 2.481786 1_555
Li1 O14 1.959866 1_555
Li1 O4 2.067511 1_555
Li1 O10 2.089986 1_555
Li1 O7 2.480753 1_555
Li1 O1 2.634656 1_555
Li2 O9 1.981874 1_555
Li2 O19 2.065620 1_555
Li2 O16 2.080990 1_555
Li2 O6 2.503423 1_555
Li3 O20 2.082716 1_555
Li3 O10 2.245935 1_455
Li3 O1 2.322678 1_455
Li3 O18 2.331783 1_555
Li3 O11 2.577778 1_555
Li3 O9 2.617608 1_455
Li3 O23 2.619353 1_556
Li4 O22 2.083429 1_555
Li4 O5 2.219065 1_455
Li4 O3 2.307602 1_455
Li4 O13 2.393280 1_555
Li4 O21 2.588746 1_555
Li4 O14 2.597987 1_555
Li4 O0 2.605376 1_454
Li5 O6 2.019425 1_565
Li5 O23 2.024786 1_555
Li5 O5 2.046758 1_565
Li5 O15 2.455081 1_555
Li5 O3 2.576339 1_565
Mn0 O7 1.931212 1_545
Mn0 O0 1.955902 1_555
Mn0 O2 2.033819 1_555
Mn0 O17 2.058833 1_545
Mn0 O22 2.065260 1_656
Mn0 O5 2.208266 1_556
Mn1 O11 1.924817 1_555
Mn1 O13 1.969761 1_555
Mn1 O3 2.021635 1_455
Mn1 O4 2.076490 1_555
Mn1 O8 2.085078 1_555
Mn1 O14 2.158072 1_555
O0 P0 1.573843 1_555
O1 P0 1.551327 1_555
O1 V1 2.041406 1_656
O2 P1 1.512358 1_555
O3 P1 1.558907 1_555
O4 P0 1.546365 1_555
O5 P2 1.553093 1_655
O6 P1 1.552295 1_555
O6 V1 2.028850 1_545
O7 P4 1.555369 1_655
O8 P4 1.532343 1_545
O9 P1 1.558136 1_555
O9 V0 2.025394 1_555
O10 P4 1.568537 1_655
O10 V0 2.106394 1_555
O11 P5 1.551276 1_556
O12 P0 1.519485 1_554
O12 V0 1.992249 1_555
O13 P2 1.577585 1_555
O14 P3 1.540058 1_555
O15 P2 1.538054 1_665
O15 V0 2.004990 1_555
O16 P2 1.543229 1_555
O16 V1 2.045176 1_545
O17 P3 1.544702 1_555
O18 P4 1.554708 1_555
O18 V1 2.053841 1_556
O19 P5 1.535239 1_555
O19 V0 2.059237 1_555
O20 P3 1.562486 1_555
O20 V0 2.032897 1_455
O21 P3 1.544921 1_555
O21 V1 1.967895 1_555
O22 P5 1.556385 1_555
O23 P5 1.555102 1_555
O23 V1 2.047337 1_555
