# generated using pymatgen
data_Li11Ti12(NiO8)4
_symmetry_space_group_name_H-M   'P 1'
_cell_length_a   8.42517680
_cell_length_b   8.42517680
_cell_length_c   8.42517637
_cell_angle_alpha   90.09737053
_cell_angle_beta   90.09737053
_cell_angle_gamma   90.09737639
_symmetry_Int_Tables_number   1
_chemical_formula_structural   Li11Ti12(NiO8)4
_chemical_formula_sum   'Li11 Ti12 Ni4 O32'
_cell_volume   598.04679104
_cell_formula_units_Z   1
loop_
 _symmetry_equiv_pos_site_id
 _symmetry_equiv_pos_as_xyz
  1  'x, y, z'
loop_
 _atom_site_type_symbol
 _atom_site_label
 _atom_site_symmetry_multiplicity
 _atom_site_fract_x
 _atom_site_fract_y
 _atom_site_fract_z
 _atom_site_occupancy
  Li  Li0  1  0.12660800  0.12660800  0.12660800  1
  Li  Li1  1  0.50000000  0.24801800  0.75198200  1
  Li  Li2  1  0.75155100  0.24844900  0.50000000  1
  Li  Li3  1  0.49795700  0.50204300  0.00000000  1
  Li  Li4  1  0.75198200  0.50000000  0.24801800  1
  Li  Li5  1  0.24844900  0.50000000  0.75155100  1
  Li  Li6  1  0.00000000  0.49795700  0.50204300  1
  Li  Li7  1  0.50000000  0.75155100  0.24844900  1
  Li  Li8  1  0.24801800  0.75198200  0.50000000  1
  Li  Li9  1  0.87339200  0.87339200  0.87339200  1
  Li  Li10  1  0.50204300  0.00000000  0.49795700  1
  Ti  Ti0  1  0.75931600  0.24068400  0.00000000  1
  Ti  Ti1  1  0.49716200  0.24266600  0.24529900  1
  Ti  Ti2  1  0.24266600  0.24529900  0.49716200  1
  Ti  Ti3  1  0.75733400  0.50283800  0.75470100  1
  Ti  Ti4  1  0.00201800  0.50000000  0.99798200  1
  Ti  Ti5  1  0.24529900  0.49716200  0.24266600  1
  Ti  Ti6  1  0.50283800  0.75470100  0.75733400  1
  Ti  Ti7  1  0.75470100  0.75733400  0.50283800  1
  Ti  Ti8  1  0.00000000  0.75931600  0.24068400  1
  Ti  Ti9  1  0.50000000  0.99798200  0.00201800  1
  Ti  Ti10  1  0.24068400  0.00000000  0.75931600  1
  Ti  Ti11  1  0.99798200  0.00201800  0.50000000  1
  Ni  Ni0  1  0.00000000  0.24549000  0.75451000  1
  Ni  Ni1  1  0.50000000  0.50000000  0.50000000  1
  Ni  Ni2  1  0.24549000  0.75451000  0.00000000  1
  Ni  Ni3  1  0.75451000  0.00000000  0.24549000  1
  O  O0  1  0.72963300  0.25194100  0.23648600  1
  O  O1  1  0.51533800  0.24080900  0.00807300  1
  O  O2  1  0.25194100  0.23648600  0.72963300  1
  O  O3  1  0.00767500  0.23905300  0.51052300  1
  O  O4  1  0.74805900  0.27036700  0.76351400  1
  O  O5  1  0.98465400  0.26373700  0.99895400  1
  O  O6  1  0.26087500  0.26087500  0.26087500  1
  O  O7  1  0.48846700  0.24982800  0.48377400  1
  O  O8  1  0.99232500  0.48947700  0.76094700  1
  O  O9  1  0.75919100  0.48466200  0.99192700  1
  O  O10  1  0.48377400  0.48846700  0.24982800  1
  O  O11  1  0.24982800  0.48377400  0.48846700  1
  O  O12  1  0.51153300  0.51622600  0.75017200  1
  O  O13  1  0.75017200  0.51153300  0.51622600  1
  O  O14  1  0.00807300  0.51533800  0.24080900  1
  O  O15  1  0.23905300  0.51052300  0.00767500  1
  O  O16  1  0.51622600  0.75017200  0.51153300  1
  O  O17  1  0.73912500  0.73912500  0.73912500  1
  O  O18  1  0.00104600  0.73626300  0.01534600  1
  O  O19  1  0.23648600  0.72963300  0.25194100  1
  O  O20  1  0.48947700  0.76094700  0.99232500  1
  O  O21  1  0.27036700  0.76351400  0.74805900  1
  O  O22  1  0.99192700  0.75919100  0.48466200  1
  O  O23  1  0.76351400  0.74805900  0.27036700  1
  O  O24  1  0.26373700  0.99895400  0.98465400  1
  O  O25  1  0.48466200  0.99192700  0.75919100  1
  O  O26  1  0.76094700  0.99232500  0.48947700  1
  O  O27  1  0.99895400  0.98465400  0.26373700  1
  O  O28  1  0.73626300  0.01534600  0.00104600  1
  O  O29  1  0.51052300  0.00767500  0.23905300  1
  O  O30  1  0.24080900  0.00807300  0.51533800  1
  O  O31  1  0.01534600  0.00104600  0.73626300  1
loop_
_geom_bond_atom_site_label_1
_geom_bond_atom_site_label_2
_geom_bond_distance
_geom_bond_site_symmetry_2
Li0 O6 1.956003 1_555
Li0 O27 1.981528 1_445
Li0 O24 1.981528 1_544
Li0 O5 1.981528 1_454
Li1 O4 2.100157 1_555
Li1 O2 2.100157 1_555
Li1 O1 2.162221 1_556
Li1 O25 2.162222 1_545
Li1 O7 2.261701 1_555
Li1 O12 2.261701 1_555
Li2 O3 2.161150 1_655
Li2 O26 2.161150 1_545
Li2 O7 2.220560 1_555
Li2 O13 2.220560 1_555
Li2 O4 2.227754 1_555
Li2 O0 2.227754 1_555
Li3 O10 2.111720 1_555
Li3 O12 2.111720 1_554
Li3 O20 2.183667 1_554
Li3 O15 2.183667 1_555
Li3 O1 2.207213 1_555
Li3 O9 2.207213 1_554
Li4 O0 2.100157 1_555
Li4 O23 2.100157 1_555
Li4 O9 2.162221 1_554
Li4 O14 2.162222 1_655
Li4 O13 2.261701 1_555
Li4 O10 2.261701 1_555
Li5 O15 2.161150 1_556
Li5 O8 2.161150 1_455
Li5 O11 2.220560 1_555
Li5 O12 2.220560 1_555
Li5 O21 2.227754 1_555
Li5 O2 2.227754 1_555
Li6 O13 2.111720 1_455
Li6 O11 2.111720 1_555
Li6 O8 2.183667 1_455
Li6 O3 2.183667 1_555
Li6 O14 2.207213 1_555
Li6 O22 2.207213 1_455
Li7 O20 2.161150 1_554
Li7 O29 2.161150 1_565
Li7 O16 2.220560 1_555
Li7 O10 2.220560 1_555
Li7 O19 2.227754 1_555
Li7 O23 2.227754 1_555
Li8 O21 2.100157 1_555
Li8 O19 2.100157 1_555
Li8 O22 2.162222 1_455
Li8 O30 2.162222 1_565
Li8 O11 2.261701 1_555
Li8 O16 2.261701 1_555
Li9 O17 1.956003 1_555
Li9 O31 1.981528 1_665
Li9 O18 1.981528 1_656
Li9 O28 1.981528 1_566
Li10 O7 2.111720 1_555
Li10 O16 2.111720 1_545
Li10 O29 2.183667 1_555
Li10 O26 2.183667 1_545
Li10 O25 2.207213 1_545
Li10 O30 2.207213 1_555
Ni0 O3 2.057386 1_555
Ni0 O8 2.057386 1_455
Ni0 O5 2.069232 1_455
Ni0 O31 2.069232 1_555
Ni0 O2 2.134788 1_555
Ni0 O4 2.134788 1_455
Ni1 O12 2.113999 1_555
Ni1 O10 2.113999 1_555
Ni1 O16 2.113999 1_555
Ni1 O11 2.113999 1_555
Ni1 O13 2.113999 1_555
Ni1 O7 2.113999 1_555
Ni2 O20 2.057386 1_554
Ni2 O15 2.057386 1_555
Ni2 O18 2.069232 1_555
Ni2 O24 2.069232 1_554
Ni2 O19 2.134788 1_555
Ni2 O21 2.134788 1_554
Ni3 O26 2.057386 1_545
Ni3 O29 2.057386 1_555
Ni3 O28 2.069232 1_555
Ni3 O27 2.069232 1_545
Ni3 O23 2.134788 1_545
Ni3 O0 2.134788 1_555
O0 Ti1 1.961572 1_555
O0 Ti0 2.010590 1_555
O1 Ti1 2.004825 1_555
O1 Ti9 2.050261 1_545
O1 Ti0 2.056800 1_555
O2 Ti2 1.961572 1_555
O2 Ti10 2.010590 1_555
O3 Ti2 1.983843 1_555
O3 Ti11 2.000401 1_455
O4 Ti3 1.961572 1_555
O4 Ti0 2.010590 1_556
O5 Ti0 1.908130 1_556
O5 Ti4 1.995710 1_655
O6 Ti2 2.001434 1_555
O6 Ti5 2.001434 1_555
O6 Ti1 2.001434 1_555
O7 Ti1 2.011460 1_555
O7 Ti2 2.074468 1_555
O8 Ti3 1.983843 1_555
O8 Ti4 2.000401 1_655
O9 Ti3 2.004825 1_555
O9 Ti4 2.050261 1_655
O9 Ti0 2.056800 1_556
O10 Ti5 2.011460 1_555
O10 Ti1 2.074468 1_555
O11 Ti2 2.011460 1_555
O11 Ti5 2.074467 1_555
O12 Ti6 2.011460 1_555
O12 Ti3 2.074468 1_555
O13 Ti3 2.011460 1_555
O13 Ti7 2.074468 1_555
O14 Ti5 2.004825 1_555
O14 Ti4 2.050261 1_554
O14 Ti8 2.056800 1_555
O15 Ti5 1.983843 1_555
O15 Ti4 2.000401 1_554
O16 Ti7 2.011460 1_555
O16 Ti6 2.074467 1_555
O17 Ti7 2.001434 1_555
O17 Ti6 2.001434 1_555
O17 Ti3 2.001434 1_555
O18 Ti8 1.908130 1_555
O18 Ti4 1.995710 1_554
O19 Ti5 1.961572 1_555
O19 Ti8 2.010590 1_555
O20 Ti6 1.983843 1_555
O20 Ti9 2.000401 1_556
O21 Ti6 1.961572 1_555
O21 Ti10 2.010590 1_565
O22 Ti7 2.004825 1_555
O22 Ti11 2.050261 1_565
O22 Ti8 2.056800 1_655
O23 Ti7 1.961572 1_555
O23 Ti8 2.010590 1_655
O24 Ti10 1.908130 1_565
O24 Ti9 1.995710 1_556
O25 Ti6 2.004825 1_555
O25 Ti9 2.050261 1_556
O25 Ti10 2.056800 1_565
O26 Ti7 1.983843 1_555
O26 Ti11 2.000401 1_565
O27 Ti8 1.908130 1_655
O27 Ti11 1.995710 1_565
O28 Ti0 1.908130 1_555
O28 Ti9 1.995710 1_545
O29 Ti1 1.983843 1_555
O29 Ti9 2.000401 1_545
O30 Ti2 2.004825 1_555
O30 Ti11 2.050261 1_455
O30 Ti10 2.056800 1_555
O31 Ti10 1.908130 1_555
O31 Ti11 1.995710 1_455
