# generated using pymatgen
data_Li13Mn3(SbO8)2
_symmetry_space_group_name_H-M   'P 1'
_cell_length_a   6.01904235
_cell_length_b   6.01904235
_cell_length_c   10.01915823
_cell_angle_alpha   88.95273186
_cell_angle_beta   88.95273186
_cell_angle_gamma   60.77619234
_symmetry_Int_Tables_number   1
_chemical_formula_structural   Li13Mn3(SbO8)2
_chemical_formula_sum   'Li13 Mn3 Sb2 O16'
_cell_volume   316.71096541
_cell_formula_units_Z   1
loop_
 _symmetry_equiv_pos_site_id
 _symmetry_equiv_pos_as_xyz
  1  'x, y, z'
loop_
 _atom_site_type_symbol
 _atom_site_label
 _atom_site_symmetry_multiplicity
 _atom_site_fract_x
 _atom_site_fract_y
 _atom_site_fract_z
 _atom_site_occupancy
  Li  Li0  1  0.65732600  0.26253700  0.77547800  1
  Li  Li1  1  0.58647100  0.18041400  0.01585600  1
  Li  Li2  1  0.26253700  0.65732600  0.77547800  1
  Li  Li3  1  0.88670000  0.88670000  0.50760400  1
  Li  Li4  1  0.18041400  0.58647100  0.01585600  1
  Li  Li5  1  0.99544500  0.99544500  0.98941000  1
  Li  Li6  1  0.33233800  0.33233800  0.24633700  1
  Li  Li7  1  0.82784300  0.82784300  0.74332000  1
  Li  Li8  1  0.83061700  0.83061700  0.26460200  1
  Li  Li9  1  0.18275100  0.18275100  0.05243600  1
  Li  Li10  1  0.67704300  0.67704300  0.56837400  1
  Li  Li11  1  0.88122300  0.28169700  0.55169700  1
  Li  Li12  1  0.28169700  0.88122300  0.55169700  1
  Mn  Mn0  1  0.83273100  0.33765800  0.28256800  1
  Mn  Mn1  1  0.33765800  0.83273100  0.28256800  1
  Mn  Mn2  1  0.17680600  0.17680600  0.78392100  1
  Sb  Sb0  1  0.35012900  0.35012900  0.51920600  1
  Sb  Sb1  1  0.65967100  0.65967100  0.01777000  1
  O  O0  1  0.67100900  0.18434800  0.40163800  1
  O  O1  1  0.50582500  0.50582500  0.62932000  1
  O  O2  1  0.18434800  0.67100900  0.40163800  1
  O  O3  1  0.50329300  0.02675500  0.63466200  1
  O  O4  1  0.32630600  0.32630600  0.88510300  1
  O  O5  1  0.83004300  0.83004300  0.93046100  1
  O  O6  1  0.02675500  0.50329300  0.63466200  1
  O  O7  1  0.18630000  0.18630000  0.41103700  1
  O  O8  1  0.96669300  0.49934700  0.14926000  1
  O  O9  1  0.01425700  0.01425700  0.68349300  1
  O  O10  1  0.83899300  0.33329700  0.91483400  1
  O  O11  1  0.01755300  0.01755300  0.18600600  1
  O  O12  1  0.65847500  0.65847500  0.37611000  1
  O  O13  1  0.49934700  0.96669300  0.14926000  1
  O  O14  1  0.33329700  0.83899300  0.91483400  1
  O  O15  1  0.49611200  0.49611200  0.13259600  1
loop_
_geom_bond_atom_site_label_1
_geom_bond_atom_site_label_2
_geom_bond_distance
_geom_bond_site_symmetry_2
Li0 O1 1.945983 1_555
Li0 O10 1.964383 1_555
Li0 O4 2.124177 1_555
Li0 O9 2.131011 1_655
Li0 O3 2.503987 1_555
Li1 O4 1.905180 1_554
Li1 O13 2.070393 1_545
Li1 O15 2.079296 1_555
Li1 O5 2.080860 1_544
Li1 O10 2.336000 1_554
Li2 O1 1.945983 1_555
Li2 O14 1.964383 1_555
Li2 O4 2.124177 1_555
Li2 O9 2.131011 1_565
Li2 O6 2.503987 1_555
Li3 O0 1.931856 1_565
Li3 O2 1.931856 1_655
Li3 O9 2.226883 1_665
Li3 O3 2.385190 1_565
Li3 O6 2.385190 1_655
Li4 O4 1.905180 1_554
Li4 O8 2.070393 1_455
Li4 O15 2.079296 1_555
Li4 O5 2.080860 1_454
Li4 O14 2.336000 1_554
Li5 O5 1.828087 1_555
Li5 O10 1.918514 1_565
Li5 O14 1.918514 1_655
Li5 O11 1.987886 1_666
Li6 O15 2.027025 1_555
Li6 O8 2.163894 1_455
Li6 O13 2.163894 1_545
Li6 O7 2.217372 1_555
Li6 O0 2.379534 1_555
Li6 O2 2.379534 1_555
Li7 O5 1.875618 1_555
Li7 O9 2.014287 1_665
Li7 O6 2.044765 1_655
Li7 O3 2.044765 1_565
Li8 O11 2.079318 1_665
Li8 O12 2.087810 1_555
Li8 O13 2.106430 1_555
Li8 O8 2.106430 1_555
Li8 O2 2.324343 1_655
Li8 O0 2.324343 1_565
Li9 O8 1.966032 1_455
Li9 O13 1.966032 1_545
Li9 O11 2.153245 1_555
Li9 O4 2.219706 1_554
Li9 O14 2.287097 1_544
Li9 O10 2.287097 1_454
Li10 O1 1.867634 1_555
Li10 O12 1.940010 1_555
Li10 O6 1.960040 1_655
Li10 O3 1.960040 1_565
Li11 O9 1.917926 1_655
Li11 O6 2.108379 1_655
Li11 O1 2.127902 1_555
Li11 O7 2.143162 1_655
Li11 O0 2.242847 1_555
Li12 O9 1.917926 1_565
Li12 O3 2.108379 1_565
Li12 O1 2.127902 1_555
Li12 O7 2.143162 1_565
Li12 O2 2.242847 1_555
Mn0 O12 1.939032 1_555
Mn0 O11 1.954921 1_655
Mn0 O0 2.004158 1_555
Mn0 O8 2.015087 1_555
Mn0 O7 2.275933 1_655
Mn0 O15 2.333369 1_555
Mn1 O12 1.939032 1_555
Mn1 O11 1.954921 1_565
Mn1 O2 2.004158 1_555
Mn1 O13 2.015087 1_555
Mn1 O7 2.275933 1_565
Mn1 O15 2.333369 1_555
Mn2 O4 1.872030 1_555
Mn2 O9 1.983333 1_555
Mn2 O14 2.195343 1_545
Mn2 O10 2.195343 1_455
Mn2 O6 2.263351 1_555
Mn2 O3 2.263351 1_555
O0 Sb0 2.047305 1_555
O1 Sb0 1.976552 1_555
O2 Sb0 2.047305 1_555
O3 Sb0 2.044764 1_555
O5 Sb1 1.956952 1_556
O6 Sb0 2.044764 1_555
O7 Sb0 2.036396 1_555
O8 Sb1 2.093579 1_555
O10 Sb1 2.012639 1_556
O13 Sb1 2.093579 1_555
O14 Sb1 2.012639 1_556
O15 Sb1 2.031123 1_555
