# generated using pymatgen
data_Mn(AsO2)2
_symmetry_space_group_name_H-M   'P 1'
_cell_length_a   5.73552186
_cell_length_b   8.59092742
_cell_length_c   8.59127278
_cell_angle_alpha   89.97686401
_cell_angle_beta   90.00097934
_cell_angle_gamma   89.99868164
_symmetry_Int_Tables_number   1
_chemical_formula_structural   Mn(AsO2)2
_chemical_formula_sum   'Mn4 As8 O16'
_cell_volume   423.32163199
_cell_formula_units_Z   4
loop_
 _symmetry_equiv_pos_site_id
 _symmetry_equiv_pos_as_xyz
  1  'x, y, z'
loop_
 _atom_site_type_symbol
 _atom_site_label
 _atom_site_symmetry_multiplicity
 _atom_site_fract_x
 _atom_site_fract_y
 _atom_site_fract_z
 _atom_site_occupancy
  Mn  Mn0  1  0.75000067  0.99999543  0.49999546  1
  Mn  Mn1  1  0.74999592  0.49999996  0.00000149  1
  Mn  Mn2  1  0.24999936  0.00000102  0.50000128  1
  Mn  Mn3  1  0.25000094  0.49999539  -0.00000352  1
  As  As0  1  0.50003010  0.17459438  0.80966166  1
  As  As1  1  0.00000547  0.19021884  0.17474486  1
  As  As2  1  0.00001438  0.30966975  0.67461739  1
  As  As3  1  0.50000477  0.32525632  0.30978476  1
  As  As4  1  0.49999074  0.67474165  0.69021850  1
  As  As5  1  0.00000199  0.69032767  0.32537584  1
  As  As6  1  0.99998572  0.80978410  0.82524502  1
  As  As7  1  0.49997065  0.82540194  0.19031573  1
  O  O0  1  0.00000247  0.11027807  0.64131150  1
  O  O1  1  0.50000908  0.14131917  0.61027476  1
  O  O2  1  0.50000496  0.35860761  0.11037141  1
  O  O3  1  -0.00000163  0.38964198  0.14138924  1
  O  O4  1  -0.00000985  0.61035006  0.85861040  1
  O  O5  1  0.49999861  0.64139852  0.88963772  1
  O  O6  1  0.49998212  0.85868952  0.38970853  1
  O  O7  1  0.00000719  0.88972130  0.35868117  1
  O  O8  1  0.25000562  0.18499760  0.31500202  1
  O  O9  1  0.75000977  0.18498698  0.31501127  1
  O  O10  1  0.25003074  0.31484320  0.81486054  1
  O  O11  1  0.75000951  0.31484266  0.81485414  1
  O  O12  1  0.24999223  0.68514292  0.18512789  1
  O  O13  1  0.74998979  0.68515996  0.18513979  1
  O  O14  1  0.24998279  0.81500346  0.68499461  1
  O  O15  1  0.74998590  0.81500454  0.68497654  1
loop_
_geom_bond_atom_site_label_1
_geom_bond_atom_site_label_2
_geom_bond_distance
_geom_bond_site_symmetry_2
Mn0 O1 2.104390 1_565
Mn0 O7 2.104399 1_655
Mn0 O0 2.104424 1_665
Mn0 O6 2.104452 1_555
Mn0 O15 2.247061 1_555
Mn0 O9 2.247084 1_565
Mn1 O3 2.104602 1_655
Mn1 O4 2.104614 1_654
Mn1 O5 2.104646 1_554
Mn1 O2 2.104674 1_555
Mn1 O13 2.249952 1_555
Mn1 O11 2.249990 1_554
Mn2 O6 2.104346 1_545
Mn2 O0 2.104353 1_555
Mn2 O7 2.104395 1_545
Mn2 O1 2.104426 1_555
Mn2 O14 2.247176 1_545
Mn2 O8 2.247206 1_555
Mn3 O4 2.104614 1_554
Mn3 O2 2.104662 1_555
Mn3 O3 2.104668 1_555
Mn3 O5 2.104711 1_554
Mn3 O12 2.249834 1_555
Mn3 O10 2.249890 1_554
As0 O1 1.736790 1_555
As0 O11 1.873361 1_555
As0 O10 1.873411 1_555
As1 O3 1.736917 1_555
As1 O8 1.873477 1_555
As1 O9 1.873544 1_455
As2 O0 1.736808 1_555
As2 O11 1.873430 1_455
As2 O10 1.873486 1_555
As3 O2 1.736894 1_555
As3 O8 1.873488 1_555
As3 O9 1.873531 1_555
As4 O5 1.736932 1_555
As4 O15 1.873498 1_555
As4 O14 1.873501 1_555
As5 O7 1.736824 1_555
As5 O13 1.873427 1_455
As5 O12 1.873430 1_555
As6 O4 1.737023 1_655
As6 O14 1.873459 1_655
As6 O15 1.873538 1_555
As7 O6 1.736858 1_555
As7 O12 1.873415 1_555
As7 O13 1.873455 1_555
