# generated using pymatgen
data_LiFeSiO4
_symmetry_space_group_name_H-M   'P 1'
_cell_length_a   10.43840000
_cell_length_b   5.78300500
_cell_length_c   10.36396920
_cell_angle_alpha   89.27784405
_cell_angle_beta   90.00000000
_cell_angle_gamma   90.00000000
_symmetry_Int_Tables_number   1
_chemical_formula_structural   LiFeSiO4
_chemical_formula_sum   'Li8 Fe8 Si8 O32'
_cell_volume   625.57461820
_cell_formula_units_Z   8
loop_
 _symmetry_equiv_pos_site_id
 _symmetry_equiv_pos_as_xyz
  1  'x, y, z'
loop_
 _atom_site_type_symbol
 _atom_site_label
 _atom_site_symmetry_multiplicity
 _atom_site_fract_x
 _atom_site_fract_y
 _atom_site_fract_z
 _atom_site_occupancy
  Li  Li0  1  0.16975100  0.85135300  0.83736400  1
  Li  Li1  1  0.33024900  0.85135300  0.33736400  1
  Li  Li2  1  0.64949100  0.66522700  0.61024200  1
  Li  Li3  1  0.85050900  0.66522700  0.11024200  1
  Li  Li4  1  0.14949100  0.33477300  0.88975800  1
  Li  Li5  1  0.35050900  0.33477300  0.38975800  1
  Li  Li6  1  0.66975100  0.14864700  0.66263600  1
  Li  Li7  1  0.83024900  0.14864700  0.16263600  1
  Fe  Fe0  1  0.87352400  0.85781400  0.50913000  1
  Fe  Fe1  1  0.62647600  0.85781400  0.00913000  1
  Fe  Fe2  1  0.41617100  0.62170800  0.76501300  1
  Fe  Fe3  1  0.08382900  0.62170800  0.26501300  1
  Fe  Fe4  1  0.91617100  0.37829200  0.73498700  1
  Fe  Fe5  1  0.58382900  0.37829200  0.23498700  1
  Fe  Fe6  1  0.37352400  0.14218600  0.99087000  1
  Fe  Fe7  1  0.12647600  0.14218600  0.49087000  1
  Si  Si0  1  0.89487400  0.88163700  0.82471400  1
  Si  Si1  1  0.60512600  0.88163700  0.32471400  1
  Si  Si2  1  0.15168100  0.62401100  0.57453300  1
  Si  Si3  1  0.34831900  0.62401100  0.07453300  1
  Si  Si4  1  0.65168100  0.37598900  0.92546700  1
  Si  Si5  1  0.84831900  0.37598900  0.42546700  1
  Si  Si6  1  0.39487400  0.11836300  0.67528600  1
  Si  Si7  1  0.10512600  0.11836300  0.17528600  1
  O  O0  1  0.80250900  0.87307200  0.95360400  1
  O  O1  1  0.49280600  0.89224700  0.67511600  1
  O  O2  1  0.69749100  0.87307200  0.45360400  1
  O  O3  1  0.00719400  0.89224700  0.17511600  1
  O  O4  1  0.80907800  0.88766700  0.68831500  1
  O  O5  1  0.05990900  0.85762200  0.57198300  1
  O  O6  1  0.69092200  0.88766700  0.18831500  1
  O  O7  1  0.44009100  0.85762200  0.07198300  1
  O  O8  1  0.25342900  0.66690000  0.68835700  1
  O  O9  1  0.98413600  0.64266600  0.82762800  1
  O  O10  1  0.24657100  0.66690000  0.18835700  1
  O  O11  1  0.51586400  0.64266600  0.32762800  1
  O  O12  1  0.56709700  0.61070100  0.88860200  1
  O  O13  1  0.29231900  0.58205200  0.92887300  1
  O  O14  1  0.93290300  0.61070100  0.38860200  1
  O  O15  1  0.20768100  0.58205200  0.42887300  1
  O  O16  1  0.79231900  0.41794800  0.57112700  1
  O  O17  1  0.06709700  0.38929900  0.61139800  1
  O  O18  1  0.70768100  0.41794800  0.07112700  1
  O  O19  1  0.43290300  0.38929900  0.11139800  1
  O  O20  1  0.48413600  0.35733400  0.67237200  1
  O  O21  1  0.75342900  0.33310000  0.81164300  1
  O  O22  1  0.01586400  0.35733400  0.17237200  1
  O  O23  1  0.74657100  0.33310000  0.31164300  1
  O  O24  1  0.55990900  0.14237800  0.92801700  1
  O  O25  1  0.30907800  0.11233300  0.81168500  1
  O  O26  1  0.94009100  0.14237800  0.42801700  1
  O  O27  1  0.19092200  0.11233300  0.31168500  1
  O  O28  1  0.99280600  0.10775300  0.82488400  1
  O  O29  1  0.30250900  0.12692800  0.54639600  1
  O  O30  1  0.50719400  0.10775300  0.32488400  1
  O  O31  1  0.19749100  0.12692800  0.04639600  1
loop_
_geom_bond_atom_site_label_1
_geom_bond_atom_site_label_2
_geom_bond_distance
_geom_bond_site_symmetry_2
Li0 O8 2.080186 1_555
Li0 O25 2.110372 1_565
Li0 O13 2.219127 1_555
Li0 O9 2.285543 1_455
Li0 O28 2.371070 1_465
Li1 O10 2.080186 1_555
Li1 O27 2.110372 1_565
Li1 O15 2.219127 1_555
Li1 O11 2.285543 1_555
Li1 O30 2.371070 1_565
Li2 O2 2.069296 1_555
Li2 O16 2.108712 1_555
Li2 O1 2.207464 1_555
Li2 O4 2.260687 1_555
Li2 O20 2.556421 1_555
Li3 O0 2.069296 1_554
Li3 O18 2.108712 1_555
Li3 O3 2.207464 1_655
Li3 O6 2.260687 1_555
Li3 O22 2.556421 1_655
Li4 O31 2.069296 1_556
Li4 O13 2.108712 1_555
Li4 O28 2.207464 1_455
Li4 O25 2.260687 1_555
Li4 O9 2.556421 1_455
Li5 O29 2.069296 1_555
Li5 O15 2.108712 1_555
Li5 O30 2.207464 1_555
Li5 O27 2.260687 1_555
Li5 O11 2.556421 1_555
Li6 O21 2.080186 1_555
Li6 O4 2.110372 1_545
Li6 O16 2.219127 1_555
Li6 O20 2.285543 1_555
Li6 O1 2.371070 1_545
Li7 O23 2.080186 1_555
Li7 O6 2.110372 1_545
Li7 O18 2.219127 1_555
Li7 O22 2.285543 1_655
Li7 O3 2.371070 1_645
Fe0 O2 1.927197 1_555
Fe0 O26 1.965391 1_565
Fe0 O4 1.984724 1_555
Fe0 O14 2.007922 1_555
Fe0 O5 2.051712 1_655
Fe1 O0 1.927197 1_554
Fe1 O24 1.965391 1_564
Fe1 O6 1.984724 1_555
Fe1 O12 2.007922 1_554
Fe1 O7 2.051712 1_555
Fe2 O8 1.892100 1_555
Fe2 O20 1.949263 1_555
Fe2 O1 1.979638 1_555
Fe2 O12 2.030911 1_555
Fe2 O13 2.144334 1_555
Fe3 O10 1.892100 1_555
Fe3 O22 1.949263 1_555
Fe3 O3 1.979638 1_555
Fe3 O14 2.030911 1_455
Fe3 O15 2.144334 1_555
Fe4 O21 1.892100 1_555
Fe4 O9 1.949263 1_555
Fe4 O28 1.979638 1_555
Fe4 O17 2.030911 1_655
Fe4 O16 2.144334 1_555
Fe5 O23 1.892100 1_555
Fe5 O11 1.949263 1_555
Fe5 O30 1.979638 1_555
Fe5 O19 2.030911 1_555
Fe5 O18 2.144334 1_555
Fe6 O31 1.927197 1_556
Fe6 O7 1.965391 1_546
Fe6 O25 1.984724 1_555
Fe6 O19 2.007922 1_556
Fe6 O24 2.051712 1_555
Fe7 O29 1.927197 1_555
Fe7 O5 1.965391 1_545
Fe7 O27 1.984724 1_555
Fe7 O17 2.007922 1_555
Fe7 O26 2.051712 1_455
O0 Si0 1.647650 1_555
O1 Si6 1.659807 1_565
O2 Si1 1.647650 1_555
O3 Si7 1.659807 1_565
O4 Si0 1.673436 1_555
O5 Si2 1.656080 1_555
O6 Si1 1.673436 1_555
O7 Si3 1.656080 1_555
O8 Si2 1.608893 1_555
O9 Si0 1.666693 1_555
O10 Si3 1.608893 1_555
O11 Si1 1.666693 1_555
O12 Si4 1.659767 1_555
O13 Si3 1.639741 1_556
O14 Si5 1.659767 1_555
O15 Si2 1.639741 1_555
O16 Si5 1.639741 1_555
O17 Si2 1.659767 1_555
O18 Si4 1.639741 1_554
O19 Si3 1.659767 1_555
O20 Si6 1.666693 1_555
O21 Si4 1.608893 1_555
O22 Si7 1.666693 1_555
O23 Si5 1.608893 1_555
O24 Si4 1.656080 1_555
O25 Si6 1.673436 1_555
O26 Si5 1.656080 1_555
O27 Si7 1.673436 1_555
O28 Si0 1.659807 1_545
O29 Si6 1.647650 1_555
O30 Si1 1.659807 1_545
O31 Si7 1.647650 1_555
