# generated using pymatgen
data_Li4Cr2P4H3O16
_symmetry_space_group_name_H-M   'P 1'
_cell_length_a   4.95004800
_cell_length_b   7.69340352
_cell_length_c   8.36833701
_cell_angle_alpha   89.31421672
_cell_angle_beta   88.15121158
_cell_angle_gamma   76.14074476
_symmetry_Int_Tables_number   1
_chemical_formula_structural   Li4Cr2P4H3O16
_chemical_formula_sum   'Li4 Cr2 P4 H3 O16'
_cell_volume   309.24701970
_cell_formula_units_Z   1
loop_
 _symmetry_equiv_pos_site_id
 _symmetry_equiv_pos_as_xyz
  1  'x, y, z'
loop_
 _atom_site_type_symbol
 _atom_site_label
 _atom_site_symmetry_multiplicity
 _atom_site_fract_x
 _atom_site_fract_y
 _atom_site_fract_z
 _atom_site_occupancy
  Li  Li0  1  0.11513800  0.32122800  0.35527700  1
  Li  Li1  1  0.39711200  0.15213200  0.87734400  1
  Li  Li2  1  0.58481900  0.84352400  0.11722300  1
  Li  Li3  1  0.88634700  0.68054200  0.64769400  1
  Cr  Cr0  1  0.00038200  0.50250900  0.99764700  1
  Cr  Cr1  1  0.49806600  0.99839200  0.50062100  1
  P  P0  1  0.10420000  0.74360500  0.32397400  1
  P  P1  1  0.37507000  0.76331800  0.84720900  1
  P  P2  1  0.62460700  0.24289900  0.15446100  1
  P  P3  1  0.89066100  0.25586200  0.67594400  1
  H  H0  1  0.95580100  0.02092600  0.01432400  1
  H  H1  1  0.45196200  0.52947600  0.39882900  1
  H  H2  1  0.54692200  0.47926200  0.61528800  1
  O  O0  1  0.11740600  0.17428500  0.55181100  1
  O  O1  1  0.97635300  0.69052900  0.17107700  1
  O  O2  1  0.15600900  0.64761200  0.82744900  1
  O  O3  1  0.24910400  0.55223800  0.41138300  1
  O  O4  1  0.38378500  0.34181200  0.05017000  1
  O  O5  1  0.51637600  0.19392200  0.31756400  1
  O  O6  1  0.25301400  0.93850800  0.93985700  1
  O  O7  1  0.32625500  0.84523900  0.29474300  1
  O  O8  1  0.67045700  0.15320600  0.70623900  1
  O  O9  1  0.75442900  0.05920100  0.06219200  1
  O  O10  1  0.48289100  0.80155600  0.67884800  1
  O  O11  1  0.62089900  0.65353500  0.94639200  1
  O  O12  1  0.74620500  0.44581800  0.58623200  1
  O  O13  1  0.84904600  0.35091700  0.17198500  1
  O  O14  1  0.01581400  0.31008200  0.82942900  1
  O  O15  1  0.87975300  0.82596200  0.44869600  1
loop_
_geom_bond_atom_site_label_1
_geom_bond_atom_site_label_2
_geom_bond_distance
_geom_bond_site_symmetry_2
Li0 O0 1.983345 1_555
Li0 O5 2.009643 1_555
Li0 O13 2.029196 1_455
Li0 O3 2.103214 1_555
Li1 O8 1.939373 1_555
Li1 O6 2.000122 1_545
Li1 O14 2.034266 1_555
Li1 O4 2.055187 1_556
Li1 O9 2.361491 1_556
Li2 O7 1.927401 1_555
Li2 O11 2.029904 1_554
Li2 O9 2.072287 1_565
Li2 O1 2.072582 1_555
Li2 O6 2.234055 1_554
Li3 O15 1.991809 1_555
Li3 O10 2.001177 1_555
Li3 O2 2.016724 1_655
Li3 O12 2.156892 1_555
Cr0 O11 2.014208 1_455
Cr0 O14 2.041538 1_555
Cr0 O1 2.041952 1_456
Cr0 O2 2.042391 1_555
Cr0 O4 2.059191 1_556
Cr0 O13 2.087364 1_456
Cr1 O15 2.068430 1_555
Cr1 O0 2.074959 1_565
Cr1 O10 2.125213 1_555
Cr1 O5 2.149179 1_565
Cr1 O7 2.388109 1_555
Cr1 O8 2.395464 1_565
H0 O9 1.037893 1_555
H0 O6 1.567884 1_644
H1 O3 0.979502 1_555
H2 O12 0.981251 1_555
O0 P3 1.528283 1_455
O1 P0 1.546898 1_655
O2 P1 1.572617 1_555
O3 P0 1.649017 1_555
O4 P2 1.542226 1_555
O5 P2 1.526164 1_555
O6 P1 1.545120 1_555
O7 P0 1.506401 1_555
O8 P3 1.505310 1_555
O9 P2 1.601713 1_555
O10 P1 1.540513 1_555
O11 P1 1.561737 1_555
O12 P3 1.648752 1_555
O13 P2 1.549882 1_555
O14 P3 1.547737 1_455
O15 P0 1.526085 1_655
