# generated using pymatgen
data_Li6TeO6
_symmetry_space_group_name_H-M   'P 1'
_cell_length_a   5.67326019
_cell_length_b   5.67326019
_cell_length_c   5.67326084
_cell_angle_alpha   61.71245019
_cell_angle_beta   61.71245019
_cell_angle_gamma   61.71244922
_symmetry_Int_Tables_number   1
_chemical_formula_structural   Li6TeO6
_chemical_formula_sum   'Li6 Te1 O6'
_cell_volume   134.07275048
_cell_formula_units_Z   1
loop_
 _symmetry_equiv_pos_site_id
 _symmetry_equiv_pos_as_xyz
  1  'x, y, z'
loop_
 _atom_site_type_symbol
 _atom_site_label
 _atom_site_symmetry_multiplicity
 _atom_site_fract_x
 _atom_site_fract_y
 _atom_site_fract_z
 _atom_site_occupancy
  Li  Li0  1  0.71699400  0.07880300  0.51481200  1
  Li  Li1  1  0.92119700  0.48518800  0.28300600  1
  Li  Li2  1  0.48518800  0.28300600  0.92119700  1
  Li  Li3  1  0.51481200  0.71699400  0.07880300  1
  Li  Li4  1  0.07880300  0.51481200  0.71699400  1
  Li  Li5  1  0.28300600  0.92119700  0.48518800  1
  Te  Te0  1  0.00000000  0.00000000  0.00000000  1
  O  O0  1  0.89687500  0.20238200  0.65302300  1
  O  O1  1  0.79761800  0.34697700  0.10312500  1
  O  O2  1  0.34697700  0.10312500  0.79761800  1
  O  O3  1  0.65302300  0.89687500  0.20238200  1
  O  O4  1  0.20238200  0.65302300  0.89687500  1
  O  O5  1  0.10312500  0.79761800  0.34697700  1
loop_
_geom_bond_atom_site_label_1
_geom_bond_atom_site_label_2
_geom_bond_distance
_geom_bond_site_symmetry_2
Li0 O2 1.934681 1_555
Li0 O0 2.026173 1_555
Li0 O1 2.063517 1_555
Li0 O5 2.097808 1_645
Li1 O0 1.934681 1_555
Li1 O1 2.026173 1_555
Li1 O3 2.063517 1_555
Li1 O4 2.097808 1_654
Li2 O4 1.934681 1_555
Li2 O2 2.026173 1_555
Li2 O0 2.063517 1_555
Li2 O3 2.097808 1_546
Li3 O1 1.934681 1_555
Li3 O3 2.026173 1_555
Li3 O5 2.063517 1_555
Li3 O2 2.097808 1_564
Li4 O5 1.934681 1_555
Li4 O4 2.026173 1_555
Li4 O2 2.063517 1_555
Li4 O1 2.097808 1_456
Li5 O3 1.934681 1_555
Li5 O5 2.026173 1_555
Li5 O4 2.063517 1_555
Li5 O0 2.097808 1_465
O0 Te0 1.961696 1_656
O1 Te0 1.961696 1_655
O2 Te0 1.961696 1_556
O3 Te0 1.961696 1_665
O4 Te0 1.961696 1_566
O5 Te0 1.961696 1_565
