# generated using pymatgen
data_Li3SiNi3O8
_symmetry_space_group_name_H-M   'P 1'
_cell_length_a   5.07304451
_cell_length_b   9.72829012
_cell_length_c   5.54366066
_cell_angle_alpha   89.99996070
_cell_angle_beta   89.99997528
_cell_angle_gamma   97.61395671
_symmetry_Int_Tables_number   1
_chemical_formula_structural   Li3SiNi3O8
_chemical_formula_sum   'Li6 Si2 Ni6 O16'
_cell_volume   271.17883995
_cell_formula_units_Z   2
loop_
 _symmetry_equiv_pos_site_id
 _symmetry_equiv_pos_as_xyz
  1  'x, y, z'
loop_
 _atom_site_type_symbol
 _atom_site_label
 _atom_site_symmetry_multiplicity
 _atom_site_fract_x
 _atom_site_fract_y
 _atom_site_fract_z
 _atom_site_occupancy
  Li  Li0  1  0.99998600  0.00008100  0.49999900  1
  Li  Li1  1  0.50001400  0.49991900  0.50000000  1
  Li  Li2  1  0.50002600  0.00007200  0.24387100  1
  Li  Li3  1  0.99997300  0.49992800  0.24387000  1
  Li  Li4  1  0.50002600  0.00007200  0.75612900  1
  Li  Li5  1  0.99997400  0.49992800  0.75612900  1
  Si  Si0  1  0.75000000  0.25000000  0.00000000  1
  Si  Si1  1  0.25000000  0.75000000  0.00000000  1
  Ni  Ni0  1  0.75000100  0.25000000  0.50000000  1
  Ni  Ni1  1  0.75000000  0.75000000  0.24836000  1
  Ni  Ni2  1  0.75000000  0.75000000  0.75164000  1
  Ni  Ni3  1  0.25000100  0.74999900  0.50000000  1
  Ni  Ni4  1  0.25000000  0.25000000  0.24843000  1
  Ni  Ni5  1  0.25000000  0.25000000  0.75157200  1
  O  O0  1  0.41533400  0.15137700  0.00000100  1
  O  O1  1  0.91530500  0.65152000  0.00000000  1
  O  O2  1  0.08466700  0.34862300  0.00000000  1
  O  O3  1  0.58469400  0.84847900  0.00000000  1
  O  O4  1  0.36188200  0.13739500  0.50000100  1
  O  O5  1  0.86183300  0.63758300  0.50000000  1
  O  O6  1  0.13811800  0.36260500  0.50000000  1
  O  O7  1  0.63816700  0.86241700  0.50000000  1
  O  O8  1  0.64639400  0.35760900  0.23764400  1
  O  O9  1  0.14631300  0.85741900  0.23759300  1
  O  O10  1  0.85360600  0.14239100  0.23764500  1
  O  O11  1  0.35368600  0.64258000  0.23759300  1
  O  O12  1  0.64639400  0.35761000  0.76235600  1
  O  O13  1  0.14631300  0.85741900  0.76240700  1
  O  O14  1  0.85360700  0.14239100  0.76235500  1
  O  O15  1  0.35368700  0.64258100  0.76240600  1
loop_
_geom_bond_atom_site_label_1
_geom_bond_atom_site_label_2
_geom_bond_distance
_geom_bond_site_symmetry_2
Li0 O4 2.122529 1_655
Li0 O7 2.123979 1_545
Li0 O10 2.203591 1_555
Li0 O14 2.203597 1_555
Li0 O9 2.205975 1_645
Li0 O13 2.205981 1_645
Li1 O6 2.122529 1_555
Li1 O5 2.123979 1_555
Li1 O12 2.203592 1_555
Li1 O8 2.203599 1_555
Li1 O11 2.205973 1_555
Li1 O15 2.205975 1_555
Li2 O0 2.084828 1_555
Li2 O3 2.086851 1_545
Li2 O10 2.115996 1_555
Li2 O9 2.118277 1_545
Li2 O4 2.130732 1_555
Li2 O7 2.132889 1_545
Li3 O2 2.084832 1_655
Li3 O1 2.086839 1_555
Li3 O8 2.115993 1_555
Li3 O11 2.118272 1_655
Li3 O6 2.130733 1_655
Li3 O5 2.132891 1_555
Li4 O0 2.084836 1_556
Li4 O3 2.086850 1_546
Li4 O14 2.116000 1_555
Li4 O13 2.118277 1_545
Li4 O4 2.130724 1_555
Li4 O7 2.132889 1_545
Li5 O2 2.084833 1_656
Li5 O1 2.086846 1_556
Li5 O12 2.115991 1_555
Li5 O15 2.118277 1_655
Li5 O6 2.130729 1_655
Li5 O5 2.132889 1_555
Ni0 O10 1.906109 1_555
Ni0 O14 1.906110 1_555
Ni0 O8 1.906116 1_555
Ni0 O12 1.906123 1_555
Ni0 O6 2.122536 1_655
Ni0 O4 2.122545 1_555
Ni1 O5 1.904821 1_555
Ni1 O7 1.904822 1_555
Ni1 O3 1.931224 1_555
Ni1 O1 1.931227 1_555
Ni1 O9 2.140328 1_655
Ni1 O11 2.140336 1_555
Ni2 O7 1.904821 1_555
Ni2 O5 1.904822 1_555
Ni2 O3 1.931224 1_556
Ni2 O1 1.931227 1_556
Ni2 O15 2.140328 1_555
Ni2 O13 2.140328 1_655
Ni3 O15 1.905380 1_555
Ni3 O11 1.905389 1_555
Ni3 O9 1.905399 1_555
Ni3 O13 1.905400 1_555
Ni3 O7 2.122035 1_555
Ni3 O5 2.122037 1_455
Ni4 O6 1.905753 1_555
Ni4 O4 1.905757 1_555
Ni4 O0 1.932344 1_555
Ni4 O2 1.932345 1_555
Ni4 O10 2.141363 1_455
Ni4 O8 2.141363 1_555
Ni5 O4 1.905757 1_555
Ni5 O6 1.905761 1_555
Ni5 O2 1.932337 1_556
Ni5 O0 1.932344 1_556
Ni5 O14 2.141359 1_455
Ni5 O12 2.141367 1_555
O0 Si0 1.836110 1_555
O1 Si1 1.835680 1_655
O2 Si0 1.836115 1_455
O3 Si1 1.835672 1_555
O8 Si0 1.803760 1_555
O9 Si1 1.802561 1_555
O10 Si0 1.803763 1_555
O11 Si1 1.802564 1_555
O12 Si0 1.803765 1_556
O13 Si1 1.802560 1_556
O14 Si0 1.803766 1_556
O15 Si1 1.802565 1_556
