# generated using pymatgen
data_LiMn2(PO5)2
_symmetry_space_group_name_H-M   'P 1'
_cell_length_a   10.30291400
_cell_length_b   4.94836400
_cell_length_c   7.00245100
_cell_angle_alpha   72.18527331
_cell_angle_beta   90.00000000
_cell_angle_gamma   90.00000000
_symmetry_Int_Tables_number   1
_chemical_formula_structural   LiMn2(PO5)2
_chemical_formula_sum   'Li2 Mn4 P4 O20'
_cell_volume   339.88493016
_cell_formula_units_Z   2
loop_
 _symmetry_equiv_pos_site_id
 _symmetry_equiv_pos_as_xyz
  1  'x, y, z'
loop_
 _atom_site_type_symbol
 _atom_site_label
 _atom_site_symmetry_multiplicity
 _atom_site_fract_x
 _atom_site_fract_y
 _atom_site_fract_z
 _atom_site_occupancy
  Li  Li0  1  0.40073300  0.62206300  0.41556200  1
  Li  Li1  1  0.90073300  0.37793700  0.58443800  1
  Mn  Mn0  1  0.93154300  0.61860300  0.93545900  1
  Mn  Mn1  1  0.43154300  0.38139700  0.06454100  1
  Mn  Mn2  1  0.57187700  0.12246900  0.43167800  1
  Mn  Mn3  1  0.07187700  0.87753100  0.56832200  1
  P  P0  1  0.34713000  0.02651400  0.78000400  1
  P  P1  1  0.15080100  0.52603600  0.27715900  1
  P  P2  1  0.84713000  0.97348600  0.21999600  1
  P  P3  1  0.65080100  0.47396400  0.72284100  1
  O  O0  1  0.78386400  0.57543200  0.77176200  1
  O  O1  1  0.95459500  0.97972300  0.74421500  1
  O  O2  1  0.57589200  0.31224400  0.91458100  1
  O  O3  1  0.42615800  0.77335500  0.91037800  1
  O  O4  1  0.31660200  0.23874700  0.89614100  1
  O  O5  1  0.07589200  0.68775600  0.08541900  1
  O  O6  1  0.81660200  0.76125300  0.10385900  1
  O  O7  1  0.28386400  0.42456800  0.22823800  1
  O  O8  1  0.92615800  0.22664500  0.08962200  1
  O  O9  1  0.54158000  0.48102600  0.24973200  1
  O  O10  1  0.45459500  0.02027700  0.25578500  1
  O  O11  1  0.06752100  0.28150900  0.41088200  1
  O  O12  1  0.72164200  0.07987100  0.28594600  1
  O  O13  1  0.18685100  0.73543000  0.39693800  1
  O  O14  1  0.92740600  0.80642700  0.40993000  1
  O  O15  1  0.68685100  0.26457000  0.60306200  1
  O  O16  1  0.56752100  0.71849100  0.58911800  1
  O  O17  1  0.42740600  0.19357300  0.59007000  1
  O  O18  1  0.04158000  0.51897400  0.75026800  1
  O  O19  1  0.22164200  0.92012900  0.71405400  1
loop_
_geom_bond_atom_site_label_1
_geom_bond_atom_site_label_2
_geom_bond_distance
_geom_bond_site_symmetry_2
Li0 O10 2.023276 1_565
Li0 O9 2.106457 1_555
Li0 O17 2.116402 1_555
Li0 O7 2.215833 1_555
Li0 O16 2.238843 1_555
Li0 O13 2.267781 1_555
Li1 O1 2.023276 1_545
Li1 O18 2.106457 1_655
Li1 O14 2.116402 1_555
Li1 O0 2.215833 1_555
Li1 O11 2.238843 1_655
Li1 O15 2.267781 1_555
Mn0 O1 1.891758 1_555
Mn0 O18 1.897678 1_655
Mn0 O8 1.910276 1_556
Mn0 O5 1.910879 1_656
Mn0 O6 1.949495 1_556
Mn0 O0 1.955624 1_555
Mn1 O10 1.891758 1_555
Mn1 O9 1.897678 1_555
Mn1 O3 1.910276 1_554
Mn1 O2 1.910879 1_554
Mn1 O4 1.949495 1_554
Mn1 O7 1.955624 1_555
Mn2 O9 1.866960 1_555
Mn2 O12 1.896927 1_555
Mn2 O10 1.901042 1_555
Mn2 O17 1.951488 1_555
Mn2 O15 1.963226 1_555
Mn2 O16 1.965977 1_545
Mn3 O18 1.866960 1_555
Mn3 O19 1.896927 1_555
Mn3 O1 1.901042 1_455
Mn3 O14 1.951488 1_455
Mn3 O13 1.963226 1_555
Mn3 O11 1.965977 1_565
O0 P3 1.534330 1_555
O2 P3 1.543151 1_555
O3 P0 1.538161 1_565
O4 P0 1.544609 1_555
O5 P1 1.543151 1_555
O6 P2 1.544609 1_555
O7 P1 1.534330 1_555
O8 P2 1.538161 1_545
O11 P1 1.543979 1_555
O12 P2 1.520107 1_545
O13 P1 1.564238 1_555
O14 P2 1.569586 1_555
O15 P3 1.564238 1_555
O16 P3 1.543979 1_555
O17 P0 1.569586 1_555
O19 P0 1.520107 1_565
