# generated using pymatgen
data_Gd3YO6
_symmetry_space_group_name_H-M   'P 1'
_cell_length_a   7.26809362
_cell_length_b   7.26809362
_cell_length_c   5.78382300
_cell_angle_alpha   90.00000000
_cell_angle_beta   90.00000000
_cell_angle_gamma   102.29045361
_symmetry_Int_Tables_number   1
_chemical_formula_structural   Gd3YO6
_chemical_formula_sum   'Gd6 Y2 O12'
_cell_volume   298.52905936
_cell_formula_units_Z   2
loop_
 _symmetry_equiv_pos_site_id
 _symmetry_equiv_pos_as_xyz
  1  'x, y, z'
loop_
 _atom_site_type_symbol
 _atom_site_label
 _atom_site_symmetry_multiplicity
 _atom_site_fract_x
 _atom_site_fract_y
 _atom_site_fract_z
 _atom_site_occupancy
  Gd  Gd0  1  0.08842400  0.31323400  0.46455800  1
  Gd  Gd1  1  0.31323400  0.08842400  0.96455800  1
  Gd  Gd2  1  0.60208300  0.39791700  0.41074200  1
  Gd  Gd3  1  0.39791700  0.60208300  0.91074100  1
  Gd  Gd4  1  0.68676600  0.91157600  0.46455800  1
  Gd  Gd5  1  0.91157600  0.68676600  0.96455800  1
  Y  Y0  1  0.83653500  0.16346500  0.97811100  1
  Y  Y1  1  0.16346500  0.83653500  0.47811100  1
  O  O0  1  0.32018500  0.35567600  0.18249500  1
  O  O1  1  0.35567600  0.32018500  0.68249500  1
  O  O2  1  0.57915100  0.09834400  0.17705000  1
  O  O3  1  0.09834400  0.57915100  0.67705000  1
  O  O4  1  0.98355100  0.01644900  0.25214400  1
  O  O5  1  0.77754200  0.22245800  0.61809600  1
  O  O6  1  0.22245800  0.77754200  0.11809600  1
  O  O7  1  0.01644900  0.98355100  0.75214400  1
  O  O8  1  0.90165600  0.42084900  0.17705000  1
  O  O9  1  0.42084900  0.90165600  0.67705000  1
  O  O10  1  0.64432400  0.67981500  0.18249500  1
  O  O11  1  0.67981500  0.64432400  0.68249500  1
loop_
_geom_bond_atom_site_label_1
_geom_bond_atom_site_label_2
_geom_bond_distance
_geom_bond_site_symmetry_2
Gd0 O3 2.278535 1_555
Gd0 O1 2.307081 1_555
Gd0 O0 2.317935 1_555
Gd0 O8 2.381527 1_455
Gd0 O5 2.386349 1_455
Gd0 O4 2.458311 1_455
Gd0 O7 2.871992 1_545
Gd1 O2 2.278535 1_556
Gd1 O0 2.307081 1_556
Gd1 O1 2.317935 1_555
Gd1 O9 2.381527 1_545
Gd1 O6 2.386349 1_546
Gd1 O7 2.458311 1_545
Gd1 O4 2.871992 1_456
Gd2 O5 2.320176 1_555
Gd2 O11 2.359289 1_555
Gd2 O1 2.359289 1_555
Gd2 O10 2.401470 1_555
Gd2 O0 2.401470 1_555
Gd2 O8 2.537900 1_555
Gd2 O2 2.537900 1_555
Gd3 O6 2.320179 1_556
Gd3 O10 2.359293 1_556
Gd3 O0 2.359293 1_556
Gd3 O11 2.401467 1_555
Gd3 O1 2.401467 1_555
Gd3 O9 2.537897 1_555
Gd3 O3 2.537897 1_555
Gd4 O9 2.278535 1_555
Gd4 O11 2.307081 1_555
Gd4 O10 2.317935 1_555
Gd4 O2 2.381527 1_565
Gd4 O5 2.386349 1_565
Gd4 O4 2.458311 1_565
Gd4 O7 2.871992 1_655
Gd5 O8 2.278535 1_556
Gd5 O10 2.307081 1_556
Gd5 O11 2.317935 1_555
Gd5 O3 2.381527 1_655
Gd5 O6 2.386349 1_656
Gd5 O7 2.458311 1_655
Gd5 O4 2.871992 1_566
O2 Y0 2.161134 1_554
O3 Y1 2.161134 1_555
O4 Y0 2.298189 1_554
O4 Y1 2.419895 1_645
O5 Y0 2.186726 1_555
O6 Y1 2.186726 1_555
O7 Y1 2.298189 1_555
O7 Y0 2.419895 1_465
O8 Y0 2.161134 1_554
O9 Y1 2.161134 1_555
