# generated using pymatgen
data_Na7(FeO4)2
_symmetry_space_group_name_H-M   'P 1'
_cell_length_a   5.80118761
_cell_length_b   9.22665565
_cell_length_c   18.04080455
_cell_angle_alpha   90.25849414
_cell_angle_beta   91.06937121
_cell_angle_gamma   89.77941705
_symmetry_Int_Tables_number   1
_chemical_formula_structural   Na7(FeO4)2
_chemical_formula_sum   'Na28 Fe8 O32'
_cell_volume   965.45931639
_cell_formula_units_Z   4
loop_
 _symmetry_equiv_pos_site_id
 _symmetry_equiv_pos_as_xyz
  1  'x, y, z'
loop_
 _atom_site_type_symbol
 _atom_site_label
 _atom_site_symmetry_multiplicity
 _atom_site_fract_x
 _atom_site_fract_y
 _atom_site_fract_z
 _atom_site_occupancy
  Na  Na0  1  0.09314000  0.15951900  0.88953400  1
  Na  Na1  1  0.12029100  0.99718500  0.71845300  1
  Na  Na2  1  0.09188300  0.33877400  0.38996300  1
  Na  Na3  1  0.22400900  0.80181400  0.86452400  1
  Na  Na4  1  0.12163700  0.50105100  0.21836500  1
  Na  Na5  1  0.17414200  0.10059200  0.53897500  1
  Na  Na6  1  0.22211900  0.69779000  0.36557500  1
  Na  Na7  1  0.17675200  0.39856400  0.03950300  1
  Na  Na8  1  0.27059700  0.44736400  0.54149300  1
  Na  Na9  1  0.42940600  0.45841200  0.86347900  1
  Na  Na10  1  0.39101100  0.66187800  0.68768500  1
  Na  Na11  1  0.27083700  0.05309200  0.04220600  1
  Na  Na12  1  0.43168000  0.04163900  0.36367900  1
  Na  Na13  1  0.39573900  0.84121200  0.18686900  1
  Na  Na14  1  0.60426100  0.15878800  0.81313100  1
  Na  Na15  1  0.56832000  0.95836100  0.63632100  1
  Na  Na16  1  0.72916300  0.94690800  0.95779400  1
  Na  Na17  1  0.60898900  0.33812200  0.31231500  1
  Na  Na18  1  0.57059400  0.54158800  0.13652100  1
  Na  Na19  1  0.72940300  0.55263600  0.45850700  1
  Na  Na20  1  0.82324800  0.60143600  0.96049700  1
  Na  Na21  1  0.77788100  0.30221000  0.63442500  1
  Na  Na22  1  0.82585800  0.89940800  0.46102500  1
  Na  Na23  1  0.87836300  0.49894900  0.78163500  1
  Na  Na24  1  0.77599100  0.19818600  0.13547600  1
  Na  Na25  1  0.90811700  0.66122600  0.61003700  1
  Na  Na26  1  0.87970900  0.00281500  0.28154700  1
  Na  Na27  1  0.90686000  0.84048100  0.11046600  1
  Fe  Fe0  1  0.28483100  0.32897500  0.70336700  1
  Fe  Fe1  1  0.28701500  0.78088000  0.52311000  1
  Fe  Fe2  1  0.28398900  0.17296200  0.20297100  1
  Fe  Fe3  1  0.28900600  0.71855800  0.02293700  1
  Fe  Fe4  1  0.71099400  0.28144200  0.97706300  1
  Fe  Fe5  1  0.71601100  0.82703800  0.79702900  1
  Fe  Fe6  1  0.71298500  0.21912000  0.47689000  1
  Fe  Fe7  1  0.71516900  0.67102500  0.29663300  1
  O  O0  1  0.09403400  0.85340400  0.98813700  1
  O  O1  1  0.11636800  0.47407600  0.66816600  1
  O  O2  1  0.13026000  0.24574100  0.77186000  1
  O  O3  1  0.09790500  0.64813700  0.48761200  1
  O  O4  1  0.20500600  0.86685200  0.60517100  1
  O  O5  1  0.11080300  0.02668400  0.16808400  1
  O  O6  1  0.11578300  0.25347200  0.27083300  1
  O  O7  1  0.24223200  0.58595200  0.95269900  1
  O  O8  1  0.20403900  0.63516200  0.10646100  1
  O  O9  1  0.24482200  0.91244900  0.45263100  1
  O  O10  1  0.35986900  0.18336000  0.64670500  1
  O  O11  1  0.36892800  0.31652400  0.14729400  1
  O  O12  1  0.45999300  0.18412800  0.94393000  1
  O  O13  1  0.45607500  0.91243000  0.76931200  1
  O  O14  1  0.54350100  0.41529000  0.73002100  1
  O  O15  1  0.53733500  0.68280700  0.55679800  1
  O  O16  1  0.46266500  0.31719300  0.44320200  1
  O  O17  1  0.45649900  0.58471000  0.26997900  1
  O  O18  1  0.54392500  0.08757000  0.23068800  1
  O  O19  1  0.54000700  0.81587200  0.05607000  1
  O  O20  1  0.63107200  0.68347600  0.85270600  1
  O  O21  1  0.64013100  0.81664000  0.35329500  1
  O  O22  1  0.75517800  0.08755100  0.54736900  1
  O  O23  1  0.79596100  0.36483800  0.89353900  1
  O  O24  1  0.75776800  0.41404800  0.04730100  1
  O  O25  1  0.88421700  0.74652800  0.72916700  1
  O  O26  1  0.88919700  0.97331600  0.83191600  1
  O  O27  1  0.79499400  0.13314800  0.39482900  1
  O  O28  1  0.90209500  0.35186300  0.51238800  1
  O  O29  1  0.86974000  0.75425900  0.22814000  1
  O  O30  1  0.88363200  0.52592400  0.33183400  1
  O  O31  1  0.90596600  0.14659600  0.01186300  1
loop_
_geom_bond_atom_site_label_1
_geom_bond_atom_site_label_2
_geom_bond_distance
_geom_bond_site_symmetry_2
Na0 O2 2.284672 1_555
Na0 O26 2.320673 1_445
Na0 O12 2.338272 1_555
Na0 O31 2.481236 1_456
Na0 O23 2.558205 1_455
Na1 O13 2.275068 1_555
Na1 O4 2.423857 1_555
Na1 O26 2.478829 1_455
Na1 O2 2.483969 1_565
Na1 O10 2.581363 1_565
Na1 O25 2.701836 1_455
Na2 O6 2.291890 1_555
Na2 O30 2.343926 1_455
Na2 O16 2.347375 1_555
Na2 O28 2.488419 1_455
Na2 O27 2.570191 1_455
Na3 O0 2.412214 1_555
Na3 O13 2.432546 1_555
Na3 O7 2.555220 1_555
Na3 O26 2.562161 1_455
Na3 O20 2.609771 1_555
Na4 O17 2.274665 1_555
Na4 O8 2.428680 1_555
Na4 O6 2.477215 1_555
Na4 O30 2.499671 1_455
Na4 O11 2.575052 1_555
Na4 O29 2.757579 1_455
Na5 O10 2.331561 1_555
Na5 O9 2.366858 1_545
Na5 O22 2.441483 1_455
Na5 O4 2.474190 1_545
Na5 O28 2.837131 1_455
Na6 O3 2.376391 1_555
Na6 O17 2.443773 1_555
Na6 O9 2.524469 1_555
Na6 O30 2.590678 1_455
Na6 O21 2.678575 1_555
Na7 O11 2.350179 1_555
Na7 O7 2.374385 1_554
Na7 O24 2.440891 1_455
Na7 O8 2.494297 1_555
Na7 O31 2.847724 1_455
Na8 O3 2.312091 1_555
Na8 O28 2.364433 1_455
Na8 O16 2.423352 1_555
Na8 O1 2.480586 1_555
Na8 O15 2.682221 1_555
Na9 O7 2.278801 1_555
Na9 O23 2.346991 1_555
Na9 O20 2.397811 1_555
Na9 O14 2.538144 1_555
Na10 O1 2.379037 1_555
Na10 O15 2.532549 1_555
Na10 O14 2.552906 1_555
Na10 O4 2.628079 1_555
Na10 O13 2.758721 1_555
Na11 O0 2.314976 1_544
Na11 O31 2.339074 1_455
Na11 O12 2.431357 1_554
Na11 O5 2.482715 1_555
Na11 O19 2.693607 1_545
Na12 O9 2.294190 1_545
Na12 O27 2.331545 1_555
Na12 O21 2.406815 1_545
Na12 O18 2.535682 1_555
Na12 O16 2.918141 1_555
Na13 O5 2.395453 1_565
Na13 O19 2.527966 1_555
Na13 O18 2.550336 1_565
Na13 O8 2.624236 1_555
Na13 O17 2.824763 1_555
Na13 O29 2.944698 1_555
Na14 O26 2.395453 1_545
Na14 O12 2.527966 1_555
Na14 O13 2.550336 1_545
Na14 O23 2.624236 1_555
Na14 O14 2.824763 1_555
Na14 O2 2.944698 1_555
Na15 O22 2.294190 1_565
Na15 O4 2.331545 1_555
Na15 O10 2.406815 1_565
Na15 O13 2.535682 1_555
Na15 O15 2.918141 1_555
Na16 O31 2.314976 1_566
Na16 O0 2.339074 1_655
Na16 O19 2.431357 1_556
Na16 O26 2.482715 1_555
Na16 O12 2.693607 1_565
Na17 O30 2.379037 1_555
Na17 O16 2.532549 1_555
Na17 O17 2.552906 1_555
Na17 O27 2.628079 1_555
Na17 O18 2.758721 1_555
Na18 O24 2.278801 1_555
Na18 O8 2.346991 1_555
Na18 O11 2.397811 1_555
Na18 O17 2.538144 1_555
Na19 O28 2.312091 1_555
Na19 O3 2.364433 1_655
Na19 O15 2.423352 1_555
Na19 O30 2.480586 1_555
Na19 O16 2.682221 1_555
Na20 O20 2.350179 1_555
Na20 O24 2.374385 1_556
Na20 O7 2.440891 1_655
Na20 O23 2.494297 1_555
Na20 O0 2.847724 1_655
Na21 O28 2.376391 1_555
Na21 O14 2.443773 1_555
Na21 O22 2.524469 1_555
Na21 O1 2.590678 1_655
Na21 O10 2.678575 1_555
Na22 O21 2.331561 1_555
Na22 O22 2.366858 1_565
Na22 O9 2.441483 1_655
Na22 O27 2.474190 1_565
Na22 O3 2.837131 1_655
Na23 O14 2.274665 1_555
Na23 O23 2.428680 1_555
Na23 O25 2.477215 1_555
Na23 O1 2.499671 1_655
Na23 O20 2.575052 1_555
Na23 O2 2.757579 1_655
Na24 O31 2.412214 1_555
Na24 O18 2.432546 1_555
Na24 O24 2.555220 1_555
Na24 O5 2.562161 1_655
Na24 O11 2.609771 1_555
Na25 O25 2.291890 1_555
Na25 O1 2.343926 1_655
Na25 O15 2.347375 1_555
Na25 O3 2.488419 1_655
Na25 O4 2.570191 1_655
Na26 O18 2.275068 1_555
Na26 O27 2.423857 1_555
Na26 O5 2.478829 1_655
Na26 O29 2.483969 1_545
Na26 O21 2.581363 1_545
Na26 O6 2.701836 1_655
Na27 O29 2.284672 1_555
Na27 O5 2.320673 1_665
Na27 O19 2.338272 1_555
Na27 O0 2.481236 1_654
Na27 O8 2.558205 1_655
Fe0 O2 1.725092 1_555
Fe0 O10 1.743346 1_555
Fe0 O14 1.759565 1_555
Fe0 O1 1.767821 1_555
Fe1 O4 1.749305 1_555
Fe1 O3 1.758064 1_555
Fe1 O9 1.774907 1_555
Fe1 O15 1.805226 1_555
Fe2 O6 1.741741 1_555
Fe2 O11 1.744075 1_555
Fe2 O18 1.763784 1_555
Fe2 O5 1.790606 1_555
Fe3 O8 1.773897 1_555
Fe3 O7 1.775389 1_554
Fe3 O0 1.786382 1_554
Fe3 O19 1.804569 1_555
Fe4 O23 1.773897 1_555
Fe4 O24 1.775389 1_556
Fe4 O31 1.786382 1_556
Fe4 O12 1.804569 1_555
Fe5 O25 1.741741 1_555
Fe5 O20 1.744075 1_555
Fe5 O13 1.763784 1_555
Fe5 O26 1.790606 1_555
Fe6 O27 1.749305 1_555
Fe6 O28 1.758064 1_555
Fe6 O22 1.774907 1_555
Fe6 O16 1.805226 1_555
Fe7 O29 1.725092 1_555
Fe7 O21 1.743346 1_555
Fe7 O17 1.759565 1_555
Fe7 O30 1.767821 1_555
