# generated using pymatgen
data_Ti3VSb2(PO4)6
_symmetry_space_group_name_H-M   'P 1'
_cell_length_a   8.93684671
_cell_length_b   8.93684671
_cell_length_c   8.93684695
_cell_angle_alpha   58.39906625
_cell_angle_beta   58.39906625
_cell_angle_gamma   58.39907473
_symmetry_Int_Tables_number   1
_chemical_formula_structural   Ti3VSb2(PO4)6
_chemical_formula_sum   'Ti3 V1 Sb2 P6 O24'
_cell_volume   486.21129740
_cell_formula_units_Z   1
loop_
 _symmetry_equiv_pos_site_id
 _symmetry_equiv_pos_as_xyz
  1  'x, y, z'
loop_
 _atom_site_type_symbol
 _atom_site_label
 _atom_site_symmetry_multiplicity
 _atom_site_fract_x
 _atom_site_fract_y
 _atom_site_fract_z
 _atom_site_occupancy
  Ti  Ti0  1  0.35125800  0.35125800  0.35125800  1
  Ti  Ti1  1  0.14717900  0.14717900  0.14717900  1
  Ti  Ti2  1  0.64881200  0.64881200  0.64881200  1
  V  V0  1  0.85433200  0.85433200  0.85433200  1
  Sb  Sb0  1  0.99668700  0.99668700  0.99668700  1
  Sb  Sb1  1  0.49736100  0.49736100  0.49736100  1
  P  P0  1  0.04243400  0.45869400  0.74997400  1
  P  P1  1  0.45869400  0.74997400  0.04243400  1
  P  P2  1  0.74997400  0.04243400  0.45869400  1
  P  P3  1  0.25211500  0.95903600  0.54005500  1
  P  P4  1  0.54005500  0.25211500  0.95903600  1
  P  P5  1  0.95903600  0.54005500  0.25211500  1
  O  O0  1  0.49514100  0.69900700  0.88216700  1
  O  O1  1  0.69900700  0.88216700  0.49514100  1
  O  O2  1  0.88216700  0.49514100  0.69900700  1
  O  O3  1  0.06230900  0.26666500  0.91647000  1
  O  O4  1  0.01727700  0.61169400  0.79540700  1
  O  O5  1  0.23363700  0.43090300  0.58062700  1
  O  O6  1  0.26666500  0.91647000  0.06230900  1
  O  O7  1  0.43090300  0.58062700  0.23363700  1
  O  O8  1  0.19844900  0.99547400  0.38280800  1
  O  O9  1  0.58062700  0.23363700  0.43090300  1
  O  O10  1  0.08874300  0.94226000  0.73097000  1
  O  O11  1  0.38280800  0.19844900  0.99547400  1
  O  O12  1  0.61169400  0.79540700  0.01727700  1
  O  O13  1  0.91647000  0.06230900  0.26666500  1
  O  O14  1  0.41946400  0.76943300  0.56018600  1
  O  O15  1  0.79540700  0.01727700  0.61169400  1
  O  O16  1  0.56018600  0.41946400  0.76943300  1
  O  O17  1  0.73097000  0.08874300  0.94226000  1
  O  O18  1  0.76943300  0.56018600  0.41946400  1
  O  O19  1  0.99547400  0.38280800  0.19844900  1
  O  O20  1  0.94226000  0.73097000  0.08874300  1
  O  O21  1  0.11790300  0.49940200  0.30566700  1
  O  O22  1  0.30566700  0.11790300  0.49940200  1
  O  O23  1  0.49940200  0.30566700  0.11790300  1
loop_
_geom_bond_atom_site_label_1
_geom_bond_atom_site_label_2
_geom_bond_distance
_geom_bond_site_symmetry_2
O0 P1 1.550576 1_556
O0 Ti2 1.941569 1_555
O1 P2 1.550576 1_565
O1 Ti2 1.941568 1_555
O2 P0 1.550576 1_655
O2 Ti2 1.941569 1_555
O3 P0 1.572289 1_555
O3 Ti1 2.109349 1_556
O3 Sb0 2.430806 1_445
O4 P0 1.499670 1_555
O4 V0 2.045413 1_455
O5 P0 1.584594 1_555
O5 Ti0 2.073695 1_555
O5 Sb1 2.372148 1_555
O6 P1 1.572289 1_555
O6 Ti1 2.109349 1_565
O6 Sb0 2.430806 1_454
O7 P1 1.584594 1_555
O7 Ti0 2.073694 1_555
O7 Sb1 2.372148 1_555
O8 P3 1.540774 1_555
O8 Ti1 1.962273 1_565
O9 P2 1.584594 1_555
O9 Ti0 2.073695 1_555
O9 Sb1 2.372148 1_555
O10 P3 1.554314 1_555
O10 V0 2.149039 1_455
O10 Sb0 2.301350 1_455
O11 P4 1.540774 1_555
O11 Ti1 1.962273 1_556
O12 P1 1.499670 1_555
O12 V0 2.045413 1_554
O13 P2 1.572289 1_555
O13 Ti1 2.109349 1_655
O13 Sb0 2.430806 1_544
O14 P3 1.564276 1_555
O14 Ti2 2.116939 1_555
O14 Sb1 2.441114 1_555
O15 P2 1.499670 1_555
O15 V0 2.045413 1_545
O16 P4 1.564276 1_555
O16 Ti2 2.116939 1_555
O16 Sb1 2.441114 1_555
O17 P4 1.554314 1_555
O17 V0 2.149040 1_545
O17 Sb0 2.301350 1_545
O18 P5 1.564276 1_555
O18 Ti2 2.116939 1_555
O18 Sb1 2.441114 1_555
O19 P5 1.540774 1_555
O19 Ti1 1.962273 1_655
O20 P5 1.554314 1_555
O20 V0 2.149040 1_554
O20 Sb0 2.301350 1_554
O21 P5 1.538209 1_455
O21 Ti0 1.923428 1_555
O22 P3 1.538209 1_545
O22 Ti0 1.923428 1_555
O23 P4 1.538209 1_554
O23 Ti0 1.923428 1_555
