# generated using pymatgen
data_Li2CuPO4
_symmetry_space_group_name_H-M   'P 1'
_cell_length_a   5.06793000
_cell_length_b   5.35831924
_cell_length_c   6.23811253
_cell_angle_alpha   90.36635774
_cell_angle_beta   90.00033984
_cell_angle_gamma   90.32507551
_symmetry_Int_Tables_number   1
_chemical_formula_structural   Li2CuPO4
_chemical_formula_sum   'Li4 Cu2 P2 O8'
_cell_volume   169.39341692
_cell_formula_units_Z   2
loop_
 _symmetry_equiv_pos_site_id
 _symmetry_equiv_pos_as_xyz
  1  'x, y, z'
loop_
 _atom_site_type_symbol
 _atom_site_label
 _atom_site_symmetry_multiplicity
 _atom_site_fract_x
 _atom_site_fract_y
 _atom_site_fract_z
 _atom_site_occupancy
  Li  Li0  1  0.49176100  0.15521500  0.00064400  1
  Li  Li1  1  0.99695900  0.32806600  0.75171700  1
  Li  Li2  1  0.49127500  0.67286600  0.74600400  1
  Li  Li3  1  0.49008500  0.67490100  0.25410200  1
  Cu  Cu0  1  0.99886200  0.82072200  0.49867400  1
  Cu  Cu1  1  0.00448800  0.33192700  0.25002400  1
  P  P0  1  0.99739100  0.82726900  0.99487800  1
  P  P1  1  0.49764600  0.17851900  0.50530800  1
  O  O0  1  0.89271600  0.09965300  0.98639200  1
  O  O1  1  0.30485300  0.82038500  0.99979000  1
  O  O2  1  0.88964300  0.67911100  0.79643600  1
  O  O3  1  0.38690800  0.31304300  0.70781300  1
  O  O4  1  0.80425900  0.18896700  0.51294800  1
  O  O5  1  0.40830000  0.89851000  0.50161000  1
  O  O6  1  0.40800000  0.31206000  0.29424200  1
  O  O7  1  0.87944400  0.69878500  0.19941800  1
loop_
_geom_bond_atom_site_label_1
_geom_bond_atom_site_label_2
_geom_bond_distance
_geom_bond_site_symmetry_2
Li0 O1 2.024047 1_544
Li0 O6 2.055545 1_555
Li0 O0 2.057217 1_554
Li0 O3 2.087892 1_554
Li1 O4 1.924915 1_555
Li1 O2 1.979070 1_555
Li1 O0 1.983866 1_555
Li1 O3 1.997128 1_655
Li2 O5 1.998073 1_555
Li2 O1 2.004059 1_555
Li2 O3 2.009088 1_555
Li2 O2 2.043317 1_555
Li3 O5 1.993306 1_555
Li3 O6 2.003195 1_555
Li3 O7 2.006025 1_555
Li3 O1 2.007433 1_554
Cu0 O7 2.063489 1_555
Cu0 O2 2.084617 1_555
Cu0 O5 2.114189 1_655
Cu0 O4 2.212202 1_565
Cu1 O6 2.066921 1_555
Cu1 O4 2.076984 1_455
Cu1 O7 2.094627 1_455
Cu1 O0 2.130799 1_454
O0 P0 1.556981 1_545
O1 P0 1.559147 1_455
O2 P0 1.563117 1_555
O3 P1 1.556694 1_555
O4 P1 1.555303 1_555
O5 P1 1.564781 1_565
O6 P1 1.570902 1_555
O7 P0 1.570313 1_554
