# generated using pymatgen
data_Na5V12O32
_symmetry_space_group_name_H-M   'P 1'
_cell_length_a   8.31898429
_cell_length_b   8.31898429
_cell_length_c   12.37662351
_cell_angle_alpha   74.07162205
_cell_angle_beta   74.07162205
_cell_angle_gamma   52.02285670
_symmetry_Int_Tables_number   1
_chemical_formula_structural   Na5V12O32
_chemical_formula_sum   'Na5 V12 O32'
_cell_volume   642.91598599
_cell_formula_units_Z   1
loop_
 _symmetry_equiv_pos_site_id
 _symmetry_equiv_pos_as_xyz
  1  'x, y, z'
loop_
 _atom_site_type_symbol
 _atom_site_label
 _atom_site_symmetry_multiplicity
 _atom_site_fract_x
 _atom_site_fract_y
 _atom_site_fract_z
 _atom_site_occupancy
  Na  Na0  1  0.12488400  0.12488400  0.68133800  1
  Na  Na1  1  0.62556000  0.62556000  0.68355100  1
  Na  Na2  1  0.37580500  0.87254000  0.31891100  1
  Na  Na3  1  0.87254000  0.37580500  0.31891100  1
  Na  Na4  1  0.09052700  0.09052700  0.05097200  1
  V  V0  1  0.34381300  0.34381300  0.80615500  1
  V  V1  1  0.84175900  0.84175900  0.80784000  1
  V  V2  1  0.55393500  0.05339700  0.46200100  1
  V  V3  1  0.05339700  0.55393500  0.46200100  1
  V  V4  1  0.28233400  0.28233400  0.08033800  1
  V  V5  1  0.77988800  0.77988800  0.07996100  1
  V  V6  1  0.71970700  0.22182700  0.91812700  1
  V  V7  1  0.22182700  0.71970700  0.91812700  1
  V  V8  1  0.94583400  0.94583400  0.53970700  1
  V  V9  1  0.44577300  0.44577300  0.53897100  1
  V  V10  1  0.65414800  0.15521700  0.19460400  1
  V  V11  1  0.15521700  0.65414800  0.19460400  1
  O  O0  1  0.62286600  0.12250600  0.82648600  1
  O  O1  1  0.12250600  0.62286600  0.82648600  1
  O  O2  1  0.24889400  0.24889400  0.95382800  1
  O  O3  1  0.74964800  0.74964800  0.95209000  1
  O  O4  1  0.84317600  0.84317600  0.46322400  1
  O  O5  1  0.34345600  0.34345600  0.46250000  1
  O  O6  1  0.77210000  0.77210000  0.72840100  1
  O  O7  1  0.27132500  0.27132500  0.73035700  1
  O  O8  1  0.03686100  0.53804000  0.32773300  1
  O  O9  1  0.53804000  0.03686100  0.32773300  1
  O  O10  1  0.94698800  0.44707200  0.55372300  1
  O  O11  1  0.44707200  0.94698800  0.55372300  1
  O  O12  1  0.56682700  0.06726300  0.07294100  1
  O  O13  1  0.06726300  0.56682700  0.07294100  1
  O  O14  1  0.32082800  0.82430900  0.81678000  1
  O  O15  1  0.82430900  0.32082800  0.81678000  1
  O  O16  1  0.17783800  0.17783800  0.18017800  1
  O  O17  1  0.67876000  0.67876000  0.18235500  1
  O  O18  1  0.43224400  0.43224400  0.92591400  1
  O  O19  1  0.93459800  0.93459800  0.92690900  1
  O  O20  1  0.05268400  0.05268400  0.44805500  1
  O  O21  1  0.55264600  0.55264600  0.44765800  1
  O  O22  1  0.96174000  0.96174000  0.67391500  1
  O  O23  1  0.46164100  0.46164100  0.67383600  1
  O  O24  1  0.73311900  0.22492100  0.26868900  1
  O  O25  1  0.22492100  0.73311900  0.26868900  1
  O  O26  1  0.65615900  0.15670000  0.53788300  1
  O  O27  1  0.15670000  0.65615900  0.53788300  1
  O  O28  1  0.25191000  0.75002700  0.04563100  1
  O  O29  1  0.75002700  0.25191000  0.04563100  1
  O  O30  1  0.37614200  0.37614200  0.17334500  1
  O  O31  1  0.87826700  0.87826700  0.17175100  1
loop_
_geom_bond_atom_site_label_1
_geom_bond_atom_site_label_2
_geom_bond_distance
_geom_bond_site_symmetry_2
Na0 O14 2.429493 1_545
Na0 O15 2.429493 1_455
Na0 O11 2.438527 1_545
Na0 O10 2.438527 1_455
Na0 O7 2.444199 1_555
Na0 O22 2.469040 1_445
Na1 O6 2.419122 1_555
Na1 O14 2.433690 1_555
Na1 O15 2.433690 1_555
Na1 O11 2.449820 1_555
Na1 O10 2.449820 1_555
Na1 O23 2.490374 1_555
Na2 O25 2.433668 1_555
Na2 O21 2.434403 1_555
Na2 O17 2.442203 1_555
Na2 O20 2.454597 1_565
Na2 O16 2.474224 1_565
Na2 O9 2.476976 1_565
Na3 O24 2.433668 1_555
Na3 O21 2.434403 1_555
Na3 O17 2.442203 1_555
Na3 O20 2.454597 1_655
Na3 O16 2.474224 1_655
Na3 O8 2.476976 1_655
Na4 O29 2.281303 1_455
Na4 O28 2.281303 1_545
Na4 O2 2.305255 1_554
Na4 O16 2.353016 1_555
O0 V0 1.910068 1_555
O0 V1 1.911808 1_545
O0 V6 2.110267 1_555
O1 V0 1.910068 1_555
O1 V1 1.911808 1_455
O1 V7 2.110267 1_555
O2 V4 1.783197 1_556
O2 V0 1.941800 1_555
O3 V5 1.773742 1_556
O3 V1 1.892776 1_555
O4 V2 1.917046 1_565
O4 V3 1.917046 1_655
O4 V8 2.034633 1_555
O5 V3 1.921183 1_555
O5 V2 1.921183 1_555
O5 V9 2.029959 1_555
O6 V1 1.636153 1_555
O7 V0 1.635816 1_555
O8 V3 1.751114 1_555
O8 V11 2.005924 1_555
O9 V2 1.751114 1_555
O9 V10 2.005924 1_555
O10 V3 1.650947 1_655
O11 V2 1.650947 1_565
O12 V4 1.889565 1_555
O12 V5 1.902649 1_545
O12 V10 2.278080 1_555
O12 V6 2.502983 1_554
O13 V4 1.889565 1_555
O13 V5 1.902649 1_455
O13 V11 2.278080 1_555
O13 V7 2.502983 1_554
O14 V7 1.650686 1_555
O15 V6 1.650686 1_555
O16 V4 1.670066 1_555
O17 V5 1.649913 1_555
O18 V7 1.899089 1_555
O18 V6 1.899089 1_555
O18 V0 2.267675 1_555
O18 V4 2.461897 1_556
O19 V7 1.903731 1_655
O19 V6 1.903731 1_565
O19 V1 2.312613 1_555
O19 V5 2.502688 1_556
O20 V8 1.653027 1_445
O21 V9 1.651651 1_555
O22 V8 1.748400 1_555
O22 V1 2.037122 1_555
O23 V9 1.756221 1_555
O23 V0 2.005959 1_555
O24 V10 1.643130 1_555
O25 V11 1.643130 1_555
O26 V9 1.916095 1_555
O26 V8 1.921070 1_545
O26 V2 2.030885 1_555
O27 V9 1.916095 1_555
O27 V8 1.921070 1_455
O27 V3 2.030885 1_555
O28 V7 1.769032 1_554
O28 V11 1.962433 1_555
O29 V6 1.769032 1_554
O29 V10 1.962433 1_555
O30 V11 1.906102 1_555
O30 V10 1.906102 1_555
O30 V4 2.068498 1_555
O31 V10 1.909449 1_565
O31 V11 1.909449 1_655
O31 V5 2.115459 1_555
