# generated using pymatgen
data_Gd3YO6
_symmetry_space_group_name_H-M   'P 1'
_cell_length_a   6.82312088
_cell_length_b   6.82312088
_cell_length_c   6.82312093
_cell_angle_alpha   91.70978567
_cell_angle_beta   91.70978567
_cell_angle_gamma   91.70978965
_symmetry_Int_Tables_number   1
_chemical_formula_structural   Gd3YO6
_chemical_formula_sum   'Gd6 Y2 O12'
_cell_volume   317.21733607
_cell_formula_units_Z   2
loop_
 _symmetry_equiv_pos_site_id
 _symmetry_equiv_pos_as_xyz
  1  'x, y, z'
loop_
 _atom_site_type_symbol
 _atom_site_label
 _atom_site_symmetry_multiplicity
 _atom_site_fract_x
 _atom_site_fract_y
 _atom_site_fract_z
 _atom_site_occupancy
  Gd  Gd0  1  0.74814400  0.93717500  0.44349900  1
  Gd  Gd1  1  0.44349900  0.74814400  0.93717500  1
  Gd  Gd2  1  0.06282500  0.55650100  0.25185600  1
  Gd  Gd3  1  0.93717500  0.44349900  0.74814400  1
  Gd  Gd4  1  0.55650100  0.25185600  0.06282500  1
  Gd  Gd5  1  0.25185600  0.06282500  0.55650100  1
  Y  Y0  1  0.00000000  0.00000000  0.00000000  1
  Y  Y1  1  0.50000000  0.50000000  0.50000000  1
  O  O0  1  0.06884300  0.90730500  0.31398600  1
  O  O1  1  0.68601400  0.93115700  0.09269500  1
  O  O2  1  0.46854400  0.81559800  0.60004600  1
  O  O3  1  0.09269500  0.68601400  0.93115700  1
  O  O4  1  0.81559800  0.60004600  0.46854400  1
  O  O5  1  0.39995400  0.53145600  0.18440200  1
  O  O6  1  0.60004600  0.46854400  0.81559800  1
  O  O7  1  0.18440200  0.39995400  0.53145600  1
  O  O8  1  0.90730500  0.31398600  0.06884300  1
  O  O9  1  0.53145600  0.18440200  0.39995400  1
  O  O10  1  0.31398600  0.06884300  0.90730500  1
  O  O11  1  0.93115700  0.09269500  0.68601400  1
loop_
_geom_bond_atom_site_label_1
_geom_bond_atom_site_label_2
_geom_bond_distance
_geom_bond_site_symmetry_2
Gd0 O11 2.261904 1_565
Gd0 O9 2.296132 1_565
Gd0 O2 2.355542 1_555
Gd0 O4 2.369434 1_555
Gd0 O0 2.396198 1_655
Gd0 O1 2.417262 1_555
Gd1 O1 2.261904 1_556
Gd1 O5 2.296132 1_556
Gd1 O6 2.355542 1_555
Gd1 O2 2.369434 1_555
Gd1 O10 2.396198 1_565
Gd1 O3 2.417262 1_555
Gd2 O8 2.261904 1_455
Gd2 O4 2.296132 1_455
Gd2 O7 2.355542 1_555
Gd2 O5 2.369434 1_555
Gd2 O3 2.396198 1_554
Gd2 O0 2.417262 1_555
Gd3 O3 2.261904 1_655
Gd3 O7 2.296132 1_655
Gd3 O4 2.355542 1_555
Gd3 O6 2.369434 1_555
Gd3 O8 2.396198 1_556
Gd3 O11 2.417262 1_555
Gd4 O10 2.261904 1_554
Gd4 O6 2.296132 1_554
Gd4 O5 2.355542 1_555
Gd4 O9 2.369434 1_555
Gd4 O1 2.396198 1_545
Gd4 O8 2.417262 1_555
Gd5 O0 2.261904 1_545
Gd5 O2 2.296132 1_545
Gd5 O9 2.355542 1_555
Gd5 O7 2.369434 1_555
Gd5 O11 2.396198 1_455
Gd5 O10 2.417262 1_555
O0 Y0 2.291052 1_565
O1 Y0 2.291052 1_665
O2 Y1 2.257791 1_555
O3 Y0 2.291052 1_566
O4 Y1 2.257791 1_555
O5 Y1 2.257791 1_555
O6 Y1 2.257791 1_555
O7 Y1 2.257791 1_555
O8 Y0 2.291052 1_655
O9 Y1 2.257791 1_555
O10 Y0 2.291052 1_556
O11 Y0 2.291052 1_656
