# generated using pymatgen
data_Li3Fe4(BO3)4
_symmetry_space_group_name_H-M   'P 1'
_cell_length_a   9.06327800
_cell_length_b   5.25285000
_cell_length_c   11.39418780
_cell_angle_alpha   63.79370956
_cell_angle_beta   90.00000000
_cell_angle_gamma   90.00000000
_symmetry_Int_Tables_number   1
_chemical_formula_structural   Li3Fe4(BO3)4
_chemical_formula_sum   'Li6 Fe8 B8 O24'
_cell_volume   486.69594393
_cell_formula_units_Z   2
loop_
 _symmetry_equiv_pos_site_id
 _symmetry_equiv_pos_as_xyz
  1  'x, y, z'
loop_
 _atom_site_type_symbol
 _atom_site_label
 _atom_site_symmetry_multiplicity
 _atom_site_fract_x
 _atom_site_fract_y
 _atom_site_fract_z
 _atom_site_occupancy
  Li  Li0  1  0.26680700  0.49225900  0.16570600  1
  Li  Li1  1  0.25790600  0.43796300  0.90543200  1
  Li  Li2  1  0.74209400  0.43796300  0.40543200  1
  Li  Li3  1  0.73319300  0.49225900  0.66570600  1
  Li  Li4  1  0.75495200  0.99953600  0.16372300  1
  Li  Li5  1  0.24504800  0.99953600  0.66372300  1
  Fe  Fe0  1  0.42742400  0.97073800  0.87875800  1
  Fe  Fe1  1  0.40698300  0.54095400  0.62540600  1
  Fe  Fe2  1  0.59301700  0.54095400  0.12540600  1
  Fe  Fe3  1  0.57257600  0.97073800  0.37875800  1
  Fe  Fe4  1  0.90522500  0.02507300  0.63376100  1
  Fe  Fe5  1  0.08786600  0.45697100  0.38315800  1
  Fe  Fe6  1  0.91213400  0.45697100  0.88315800  1
  Fe  Fe7  1  0.09477500  0.02507300  0.13376100  1
  B  B0  1  0.41851200  0.47004100  0.37659400  1
  B  B1  1  0.58126400  0.04030800  0.62527200  1
  B  B2  1  0.41873600  0.04030800  0.12527200  1
  B  B3  1  0.58148800  0.47004100  0.87659400  1
  B  B4  1  0.92109100  0.53408600  0.13201800  1
  B  B5  1  0.91717600  0.95431300  0.37629800  1
  B  B6  1  0.08282400  0.95431300  0.87629800  1
  B  B7  1  0.07890900  0.53408600  0.63201800  1
  O  O0  1  0.28287400  0.36384900  0.35886700  1
  O  O1  1  0.41081900  0.80781900  0.09821900  1
  O  O2  1  0.29170600  0.20564900  0.10781000  1
  O  O3  1  0.44985800  0.11506900  0.66449800  1
  O  O4  1  0.54790100  0.37799600  0.34145200  1
  O  O5  1  0.45209900  0.37799600  0.84145200  1
  O  O6  1  0.42312100  0.66208400  0.42607500  1
  O  O7  1  0.57687900  0.66208400  0.92607500  1
  O  O8  1  0.70829400  0.20564900  0.60781000  1
  O  O9  1  0.58918100  0.80781900  0.59821900  1
  O  O10  1  0.55014200  0.11506900  0.16449800  1
  O  O11  1  0.79712600  0.66674600  0.14087300  1
  O  O12  1  0.71712600  0.36384900  0.85886700  1
  O  O13  1  0.95396800  0.85055900  0.84455500  1
  O  O14  1  0.92761500  0.17628100  0.41398700  1
  O  O15  1  0.78424600  0.84361100  0.36650200  1
  O  O16  1  0.91739400  0.32447700  0.08447700  1
  O  O17  1  0.08260600  0.32447700  0.58447700  1
  O  O18  1  0.05758200  0.59575700  0.17327500  1
  O  O19  1  0.94241800  0.59575700  0.67327500  1
  O  O20  1  0.04603200  0.85055900  0.34455500  1
  O  O21  1  0.21575400  0.84361100  0.86650200  1
  O  O22  1  0.07238500  0.17628100  0.91398700  1
  O  O23  1  0.20287400  0.66674600  0.64087300  1
loop_
_geom_bond_atom_site_label_1
_geom_bond_atom_site_label_2
_geom_bond_distance
_geom_bond_site_symmetry_2
Li0 O2 1.905218 1_555
Li0 O1 1.979078 1_555
Li0 O18 1.985002 1_555
Li0 O0 2.002255 1_555
Li1 O5 1.982717 1_555
Li1 O21 2.012031 1_555
Li1 O2 2.101195 1_556
Li1 O22 2.146584 1_555
Li2 O4 1.982717 1_555
Li2 O15 2.012031 1_555
Li2 O8 2.101195 1_555
Li2 O14 2.146584 1_555
Li3 O8 1.905218 1_555
Li3 O9 1.979078 1_555
Li3 O19 1.985002 1_555
Li3 O12 2.002255 1_555
Li4 O11 1.916169 1_555
Li4 O10 1.954169 1_565
Li4 O15 2.099608 1_555
Li4 O16 2.129562 1_565
Li5 O23 1.916169 1_555
Li5 O3 1.954169 1_565
Li5 O21 2.099608 1_555
Li5 O17 2.129562 1_565
Fe0 O7 1.995524 1_555
Fe0 O5 2.001004 1_565
Fe0 O21 2.056245 1_555
Fe0 O3 2.222938 1_565
Fe0 O1 2.262274 1_556
Fe1 O23 1.998159 1_555
Fe1 O6 2.075648 1_555
Fe1 O9 2.098645 1_555
Fe1 O3 2.115179 1_555
Fe1 O5 2.258022 1_555
Fe2 O11 1.998159 1_555
Fe2 O7 2.075648 1_554
Fe2 O1 2.098645 1_555
Fe2 O10 2.115179 1_555
Fe2 O4 2.258022 1_555
Fe3 O6 1.995524 1_555
Fe3 O4 2.001004 1_565
Fe3 O15 2.056245 1_555
Fe3 O10 2.222938 1_565
Fe3 O9 2.262274 1_555
Fe4 O8 1.981186 1_555
Fe4 O19 2.122549 1_545
Fe4 O17 2.143206 1_655
Fe4 O13 2.204464 1_545
Fe4 O14 2.277305 1_555
Fe5 O0 1.886584 1_555
Fe5 O20 1.951524 1_555
Fe5 O14 1.987296 1_455
Fe5 O17 2.082897 1_555
Fe5 O18 2.187698 1_555
Fe6 O12 1.886584 1_555
Fe6 O13 1.951524 1_555
Fe6 O22 1.987296 1_655
Fe6 O16 2.082897 1_556
Fe6 O19 2.187698 1_555
Fe7 O2 1.981186 1_555
Fe7 O18 2.122549 1_545
Fe7 O16 2.143206 1_455
Fe7 O20 2.204464 1_545
Fe7 O22 2.277305 1_554
B0 O6 1.356301 1_555
B0 O4 1.392943 1_555
B0 O0 1.400964 1_555
B1 O9 1.387099 1_545
B1 O3 1.388312 1_555
B1 O8 1.402422 1_555
B2 O1 1.387099 1_545
B2 O10 1.388312 1_555
B2 O2 1.402422 1_555
B3 O7 1.356301 1_555
B3 O5 1.392943 1_555
B3 O12 1.400964 1_555
B4 O11 1.349142 1_555
B4 O18 1.410934 1_655
B4 O16 1.426050 1_555
B5 O15 1.363608 1_555
B5 O20 1.402083 1_655
B5 O14 1.412469 1_565
B6 O21 1.363608 1_555
B6 O13 1.402083 1_455
B6 O22 1.412469 1_565
B7 O23 1.349142 1_555
B7 O19 1.410934 1_455
B7 O17 1.426050 1_555
