# generated using pymatgen
data_Li4V(TeO4)3
_symmetry_space_group_name_H-M   'P 1'
_cell_length_a   5.21586700
_cell_length_b   5.63046065
_cell_length_c   7.75256585
_cell_angle_alpha   84.48047631
_cell_angle_beta   89.88011769
_cell_angle_gamma   89.65571205
_symmetry_Int_Tables_number   1
_chemical_formula_structural   Li4V(TeO4)3
_chemical_formula_sum   'Li4 V1 Te3 O12'
_cell_volume   226.61531653
_cell_formula_units_Z   1
loop_
 _symmetry_equiv_pos_site_id
 _symmetry_equiv_pos_as_xyz
  1  'x, y, z'
loop_
 _atom_site_type_symbol
 _atom_site_label
 _atom_site_symmetry_multiplicity
 _atom_site_fract_x
 _atom_site_fract_y
 _atom_site_fract_z
 _atom_site_occupancy
  Li  Li0  1  0.50043900  0.91897800  0.71892500  1
  Li  Li1  1  0.49946500  0.92795100  0.20816000  1
  Li  Li2  1  0.99629100  0.38371800  0.19622300  1
  Li  Li3  1  0.00416600  0.41614200  0.72250400  1
  V  V0  1  0.00176300  0.98059700  0.97710700  1
  Te  Te0  1  0.99330600  0.99818300  0.49578100  1
  Te  Te1  1  0.50781300  0.46594400  0.99729900  1
  Te  Te2  1  0.49831800  0.49200000  0.49574600  1
  O  O0  1  0.70382200  0.87243300  0.94070000  1
  O  O1  1  0.31653000  0.84206200  0.44613800  1
  O  O2  1  0.81894600  0.70696800  0.58455600  1
  O  O3  1  0.15858400  0.73358600  0.07180300  1
  O  O4  1  0.38067800  0.51363100  0.74451900  1
  O  O5  1  0.61778000  0.52678100  0.24936700  1
  O  O6  1  0.84198800  0.32638900  0.95632900  1
  O  O7  1  0.16245600  0.31936400  0.44676100  1
  O  O8  1  0.70255200  0.18746200  0.58731400  1
  O  O9  1  0.30557800  0.19088300  0.07207500  1
  O  O10  1  0.12981500  0.01906300  0.75024700  1
  O  O11  1  0.85971100  0.03546400  0.26724600  1
loop_
_geom_bond_atom_site_label_1
_geom_bond_atom_site_label_2
_geom_bond_distance
_geom_bond_site_symmetry_2
Li0 O0 2.016856 1_555
Li0 O10 2.030952 1_565
Li0 O8 2.038510 1_565
Li0 O2 2.340539 1_555
Li0 O4 2.359643 1_555
Li0 O1 2.402029 1_555
Li1 O9 2.003355 1_565
Li1 O11 2.043896 1_565
Li1 O1 2.091565 1_555
Li1 O5 2.330278 1_555
Li1 O0 2.375857 1_554
Li1 O3 2.393778 1_555
Li2 O6 2.082219 1_554
Li2 O11 2.112574 1_555
Li2 O7 2.126714 1_655
Li2 O5 2.181200 1_555
Li2 O9 2.209318 1_655
Li2 O3 2.275662 1_655
Li3 O6 2.019767 1_455
Li3 O4 2.054133 1_555
Li3 O2 2.099245 1_455
Li3 O10 2.316197 1_555
Li3 O8 2.349899 1_455
Li3 O7 2.399935 1_555
O0 V0 1.706405 1_655
O0 Te1 2.511781 1_555
O1 Te0 1.951309 1_455
O1 Te2 2.182907 1_555
O2 Te0 1.946148 1_555
O2 Te2 2.219291 1_555
O3 V0 1.713103 1_554
O3 Te1 2.460191 1_554
O4 Te2 2.037223 1_555
O4 Te1 2.062594 1_555
O5 Te2 1.999874 1_555
O5 Te1 2.097841 1_554
O6 Te1 1.945669 1_555
O6 V0 2.105199 1_645
O7 Te0 2.019574 1_445
O7 Te2 2.062072 1_555
O8 Te0 2.015133 1_545
O8 Te2 2.079886 1_555
O9 Te1 1.921360 1_554
O9 V0 2.156431 1_544
O10 V0 1.873430 1_545
O10 Te0 2.112838 1_445
O11 Te0 1.897502 1_545
O11 V0 2.414084 1_644
