# generated using pymatgen
data_SrLiLa3MnO8
_symmetry_space_group_name_H-M   'P 1'
_cell_length_a   5.43616057
_cell_length_b   6.89788624
_cell_length_c   21.76884299
_cell_angle_alpha   89.99956555
_cell_angle_beta   89.99993483
_cell_angle_gamma   66.79384369
_symmetry_Int_Tables_number   1
_chemical_formula_structural   SrLiLa3MnO8
_chemical_formula_sum   'Sr4 Li4 La12 Mn4 O32'
_cell_volume   750.24500381
_cell_formula_units_Z   4
loop_
 _symmetry_equiv_pos_site_id
 _symmetry_equiv_pos_as_xyz
  1  'x, y, z'
loop_
 _atom_site_type_symbol
 _atom_site_label
 _atom_site_symmetry_multiplicity
 _atom_site_fract_x
 _atom_site_fract_y
 _atom_site_fract_z
 _atom_site_occupancy
  Sr  Sr0  1  0.36013200  0.27975400  0.99999000  1
  Sr  Sr1  1  0.36010700  0.27982600  0.50001600  1
  Sr  Sr2  1  0.63992100  0.72025000  0.25001000  1
  Sr  Sr3  1  0.63995000  0.72016700  0.74998900  1
  Li  Li0  1  0.49999800  0.99999900  0.12500100  1
  Li  Li1  1  0.49999800  0.00000000  0.62500100  1
  Li  Li2  1  0.49999900  0.00000100  0.37500000  1
  Li  Li3  1  0.50000000  0.99999800  0.87499800  1
  La  La0  1  0.63534500  0.72932500  0.99999500  1
  La  La1  1  0.63534400  0.72932000  0.49999900  1
  La  La2  1  0.36466200  0.27067400  0.25000500  1
  La  La3  1  0.36467200  0.27067600  0.75000300  1
  La  La4  1  0.13766600  0.72467200  0.12604700  1
  La  La5  1  0.13765000  0.72469800  0.62604500  1
  La  La6  1  0.86235600  0.27532300  0.12395400  1
  La  La7  1  0.86236500  0.27529600  0.62395300  1
  La  La8  1  0.13767600  0.72466900  0.37395600  1
  La  La9  1  0.13766200  0.72467800  0.87395100  1
  La  La10  1  0.86236300  0.27531500  0.37604600  1
  La  La11  1  0.86235200  0.27531900  0.87604300  1
  Mn  Mn0  1  0.99908200  0.00174100  0.49997400  1
  Mn  Mn1  1  0.00085500  0.99826600  0.75003500  1
  Mn  Mn2  1  0.99912500  0.00174800  0.99997100  1
  Mn  Mn3  1  0.00088100  0.99824800  0.25003300  1
  O  O0  1  0.15862100  0.68269000  0.99999500  1
  O  O1  1  0.15863100  0.68267500  0.49999900  1
  O  O2  1  0.84135300  0.31732600  0.25000600  1
  O  O3  1  0.84134800  0.31733800  0.74999800  1
  O  O4  1  0.83798600  0.32401100  0.99999400  1
  O  O5  1  0.83800000  0.32400100  0.50000200  1
  O  O6  1  0.16200600  0.67597900  0.25000400  1
  O  O7  1  0.16199800  0.67598600  0.74999900  1
  O  O8  1  0.31699100  0.36597300  0.13272600  1
  O  O9  1  0.31699000  0.36597300  0.63272300  1
  O  O10  1  0.68297900  0.63404000  0.11726700  1
  O  O11  1  0.68297000  0.63403300  0.61726900  1
  O  O12  1  0.31700000  0.36596100  0.36727800  1
  O  O13  1  0.31700700  0.36596400  0.86726800  1
  O  O14  1  0.68296500  0.63404300  0.38273600  1
  O  O15  1  0.68297200  0.63404700  0.88272400  1
  O  O16  1  0.75665500  0.99808900  0.06116200  1
  O  O17  1  0.75666600  0.99807100  0.56116300  1
  O  O18  1  0.75476000  0.00189800  0.18884200  1
  O  O19  1  0.75475400  0.00190800  0.68883800  1
  O  O20  1  0.24524500  0.99809500  0.06116300  1
  O  O21  1  0.24526000  0.99807800  0.56116500  1
  O  O22  1  0.24333500  0.00192500  0.18884200  1
  O  O23  1  0.24334300  0.00193000  0.68883800  1
  O  O24  1  0.75477300  0.00189500  0.31115400  1
  O  O25  1  0.75476300  0.00191200  0.81114700  1
  O  O26  1  0.24332600  0.00192300  0.31115400  1
  O  O27  1  0.24332200  0.00193100  0.81114900  1
  O  O28  1  0.75666100  0.99808200  0.43884900  1
  O  O29  1  0.75666200  0.99808900  0.93884400  1
  O  O30  1  0.24525500  0.99808200  0.43884600  1
  O  O31  1  0.24524300  0.99808900  0.93884300  1
loop_
_geom_bond_atom_site_label_1
_geom_bond_atom_site_label_2
_geom_bond_distance
_geom_bond_site_symmetry_2
Li0 O20 1.965606 1_555
Li0 O16 1.965608 1_555
Li0 O22 1.965632 1_565
Li0 O18 1.965677 1_565
Li0 O10 2.326208 1_555
Li0 O8 2.326289 1_565
Li1 O23 1.965532 1_555
Li1 O21 1.965553 1_545
Li1 O17 1.965599 1_545
Li1 O19 1.965610 1_555
Li1 O11 2.326256 1_545
Li1 O9 2.326278 1_555
Li2 O30 1.965722 1_545
Li2 O26 1.965757 1_555
Li2 O28 1.965766 1_545
Li2 O24 1.965788 1_555
Li2 O12 2.326193 1_555
Li2 O14 2.326203 1_545
Li3 O31 1.965737 1_555
Li3 O29 1.965739 1_555
Li3 O27 1.965802 1_565
Li3 O25 1.965862 1_565
Li3 O15 2.326143 1_555
Li3 O13 2.326244 1_565
La0 O4 2.569609 1_555
La0 O29 2.570498 1_555
La0 O31 2.570582 1_555
La0 O16 2.570673 1_556
La0 O20 2.570785 1_556
La0 O15 2.623348 1_555
La0 O10 2.623370 1_556
La0 O0 2.733890 1_655
La0 O0 2.734336 1_555
La1 O5 2.569641 1_555
La1 O28 2.570475 1_555
La1 O30 2.570550 1_555
La1 O17 2.570601 1_555
La1 O21 2.570683 1_555
La1 O14 2.623177 1_555
La1 O11 2.623331 1_555
La1 O1 2.733929 1_655
La1 O1 2.734310 1_555
La2 O6 2.569552 1_555
La2 O26 2.570458 1_555
La2 O22 2.570593 1_555
La2 O24 2.570616 1_555
La2 O18 2.570739 1_555
La2 O12 2.623404 1_555
La2 O8 2.623539 1_555
La2 O2 2.734034 1_455
La2 O2 2.734215 1_555
La3 O7 2.569584 1_555
La3 O27 2.570431 1_555
La3 O25 2.570460 1_555
La3 O23 2.570604 1_555
La3 O19 2.570693 1_555
La3 O13 2.623236 1_555
La3 O9 2.623557 1_555
La3 O3 2.734095 1_455
La3 O3 2.734168 1_555
La4 O8 2.278722 1_555
La4 O18 2.592549 1_465
La4 O22 2.592664 1_565
La4 O20 2.600649 1_555
La4 O16 2.600680 1_455
La4 O6 2.715999 1_555
La4 O0 2.756886 1_554
La4 O10 2.784703 1_555
La4 O10 2.784730 1_455
La5 O9 2.278885 1_555
La5 O19 2.592452 1_465
La5 O23 2.592589 1_565
La5 O17 2.600444 1_455
La5 O21 2.600447 1_555
La5 O7 2.715948 1_555
La5 O1 2.756781 1_555
La5 O11 2.784690 1_555
La5 O11 2.784817 1_455
La6 O10 2.278847 1_555
La6 O20 2.592461 1_645
La6 O16 2.592611 1_545
La6 O22 2.600572 1_655
La6 O18 2.600755 1_555
La6 O4 2.716060 1_554
La6 O2 2.756899 1_555
La6 O8 2.784513 1_655
La6 O8 2.784943 1_555
La7 O11 2.278969 1_555
La7 O21 2.592415 1_645
La7 O17 2.592531 1_545
La7 O23 2.600443 1_655
La7 O19 2.600553 1_555
La7 O5 2.715878 1_555
La7 O3 2.756771 1_555
La7 O9 2.784564 1_655
La7 O9 2.784957 1_555
La8 O12 2.278779 1_555
La8 O24 2.592608 1_465
La8 O26 2.592681 1_565
La8 O30 2.600680 1_555
La8 O28 2.600787 1_455
La8 O6 2.715893 1_555
La8 O1 2.756694 1_555
La8 O14 2.784584 1_555
La8 O14 2.784832 1_455
La9 O13 2.278824 1_555
La9 O25 2.592643 1_465
La9 O27 2.592704 1_565
La9 O31 2.600698 1_555
La9 O29 2.600740 1_455
La9 O7 2.715895 1_555
La9 O0 2.756712 1_555
La9 O15 2.784678 1_555
La9 O15 2.784730 1_455
La10 O14 2.278923 1_555
La10 O30 2.592575 1_645
La10 O28 2.592718 1_545
La10 O26 2.600571 1_655
La10 O24 2.600774 1_555
La10 O5 2.715977 1_555
La10 O2 2.756640 1_555
La10 O12 2.784501 1_655
La10 O12 2.784931 1_555
La11 O15 2.278910 1_555
La11 O31 2.592563 1_645
La11 O29 2.592645 1_545
La11 O27 2.600603 1_655
La11 O25 2.600745 1_555
La11 O4 2.715873 1_555
La11 O3 2.756753 1_555
La11 O13 2.784603 1_655
La11 O13 2.784848 1_555
Mn0 O28 1.879922 1_545
Mn0 O30 1.880323 1_645
Mn0 O17 1.880909 1_545
Mn0 O21 1.881308 1_645
Mn0 O1 2.022814 1_645
Mn0 O5 2.043064 1_555
Mn1 O25 1.879790 1_465
Mn1 O27 1.879941 1_565
Mn1 O19 1.881143 1_465
Mn1 O23 1.881296 1_565
Mn1 O3 2.022853 1_465
Mn1 O7 2.043191 1_555
Mn2 O31 1.880112 1_645
Mn2 O29 1.880114 1_545
Mn2 O20 1.881119 1_646
Mn2 O16 1.881125 1_546
Mn2 O0 2.022764 1_645
Mn2 O4 2.043083 1_555
Mn3 O26 1.879984 1_565
Mn3 O24 1.879988 1_465
Mn3 O22 1.881099 1_565
Mn3 O18 1.881113 1_465
Mn3 O2 2.022890 1_465
Mn3 O6 2.043121 1_555
O0 Sr0 2.554533 1_555
O1 Sr1 2.553982 1_555
O2 Sr2 2.554457 1_555
O3 Sr3 2.553855 1_555
O4 Sr0 2.732428 1_555
O4 Sr0 2.732620 1_655
O5 Sr1 2.732364 1_555
O5 Sr1 2.732577 1_655
O6 Sr2 2.732261 1_455
O6 Sr2 2.732804 1_555
O7 Sr3 2.732246 1_455
O7 Sr3 2.732703 1_555
O8 Sr0 2.940760 1_554
O9 Sr1 2.940055 1_555
O10 Sr2 2.940899 1_555
O11 Sr3 2.940318 1_555
O12 Sr1 2.940696 1_555
O13 Sr0 2.940442 1_555
O14 Sr2 2.940524 1_555
O15 Sr3 2.940614 1_555
O16 Sr0 2.625647 1_564
O17 Sr1 2.625733 1_565
O18 Sr2 2.625439 1_545
O19 Sr3 2.625685 1_545
O20 Sr0 2.625695 1_564
O21 Sr1 2.625827 1_565
O22 Sr2 2.625812 1_545
O23 Sr3 2.625938 1_545
O24 Sr2 2.625210 1_545
O25 Sr3 2.625827 1_545
O26 Sr2 2.625580 1_545
O27 Sr3 2.626113 1_545
O28 Sr1 2.625920 1_565
O29 Sr0 2.625392 1_565
O30 Sr1 2.626066 1_565
O31 Sr0 2.625464 1_565
