# generated using pymatgen
data_Sr2CaI6
_symmetry_space_group_name_H-M   'P 1'
_cell_length_a   7.66206400
_cell_length_b   7.66206400
_cell_length_c   14.62393800
_cell_angle_alpha   90.00000000
_cell_angle_beta   90.00000000
_cell_angle_gamma   90.00000000
_symmetry_Int_Tables_number   1
_chemical_formula_structural   Sr2CaI6
_chemical_formula_sum   'Sr4 Ca2 I12'
_cell_volume   858.53081475
_cell_formula_units_Z   2
loop_
 _symmetry_equiv_pos_site_id
 _symmetry_equiv_pos_as_xyz
  1  'x, y, z'
loop_
 _atom_site_type_symbol
 _atom_site_label
 _atom_site_symmetry_multiplicity
 _atom_site_fract_x
 _atom_site_fract_y
 _atom_site_fract_z
 _atom_site_occupancy
  Sr  Sr0  1  0.00000000  0.00000000  0.33359300  1
  Sr  Sr1  1  0.00000000  0.00000000  0.66640700  1
  Sr  Sr2  1  0.50000000  0.50000000  0.16640700  1
  Sr  Sr3  1  0.50000000  0.50000000  0.83359300  1
  Ca  Ca0  1  0.00000000  0.00000000  0.00000000  1
  Ca  Ca1  1  0.50000000  0.50000000  0.50000000  1
  I  I0  1  0.19408500  0.80591500  0.16006700  1
  I  I1  1  0.19408500  0.80591500  0.83993300  1
  I  I2  1  0.20533600  0.79466400  0.50000000  1
  I  I3  1  0.29466400  0.29466400  0.00000000  1
  I  I4  1  0.30591500  0.30591500  0.33993300  1
  I  I5  1  0.30591500  0.30591500  0.66006700  1
  I  I6  1  0.69408500  0.69408500  0.33993300  1
  I  I7  1  0.69408500  0.69408500  0.66006700  1
  I  I8  1  0.70533600  0.70533600  0.00000000  1
  I  I9  1  0.79466400  0.20533600  0.50000000  1
  I  I10  1  0.80591500  0.19408500  0.16006700  1
  I  I11  1  0.80591500  0.19408500  0.83993300  1
loop_
_geom_bond_atom_site_label_1
_geom_bond_atom_site_label_2
_geom_bond_distance
_geom_bond_site_symmetry_2
Ca0 I0 3.146788 1_545
Ca0 I10 3.146788 1_455
Ca0 I11 3.146788 1_454
Ca0 I1 3.146788 1_544
Ca0 I3 3.192919 1_555
Ca0 I8 3.192919 1_445
Ca1 I7 3.146788 1_555
Ca1 I5 3.146788 1_555
Ca1 I6 3.146788 1_555
Ca1 I4 3.146788 1_555
Ca1 I9 3.192919 1_555
Ca1 I2 3.192919 1_555
I0 Sr0 3.295826 1_565
I0 Sr2 3.316129 1_555
I1 Sr1 3.295826 1_565
I1 Sr3 3.316129 1_555
I2 Sr1 3.297359 1_565
I2 Sr0 3.297359 1_565
I3 Sr2 3.297359 1_555
I3 Sr3 3.297359 1_554
I4 Sr2 3.295826 1_555
I4 Sr0 3.316129 1_555
I5 Sr3 3.295826 1_555
I5 Sr1 3.316129 1_555
I6 Sr2 3.295826 1_555
I6 Sr0 3.316129 1_665
I7 Sr3 3.295826 1_555
I7 Sr1 3.316129 1_665
I8 Sr2 3.297359 1_555
I8 Sr3 3.297359 1_554
I9 Sr1 3.297359 1_655
I9 Sr0 3.297359 1_655
I10 Sr0 3.295826 1_655
I10 Sr2 3.316129 1_555
I11 Sr1 3.295826 1_655
I11 Sr3 3.316129 1_555
