# generated using pymatgen
data_Fe4OF8
_symmetry_space_group_name_H-M   'P 1'
_cell_length_a   5.42965613
_cell_length_b   5.35946626
_cell_length_c   14.95565102
_cell_angle_alpha   89.89220642
_cell_angle_beta   89.60931336
_cell_angle_gamma   120.03350426
_symmetry_Int_Tables_number   1
_chemical_formula_structural   Fe4OF8
_chemical_formula_sum   'Fe8 O2 F16'
_cell_volume   376.76008171
_cell_formula_units_Z   2
loop_
 _symmetry_equiv_pos_site_id
 _symmetry_equiv_pos_as_xyz
  1  'x, y, z'
loop_
 _atom_site_type_symbol
 _atom_site_label
 _atom_site_symmetry_multiplicity
 _atom_site_fract_x
 _atom_site_fract_y
 _atom_site_fract_z
 _atom_site_occupancy
  Fe  Fe0  1  0.33251200  0.69355600  0.82240100  1
  Fe  Fe1  1  0.32853300  0.66647300  0.51711500  1
  Fe  Fe2  1  0.32678400  0.65504200  0.01850400  1
  Fe  Fe3  1  0.33668700  0.64646600  0.32113400  1
  Fe  Fe4  1  0.64510700  0.29329100  0.97303200  1
  Fe  Fe5  1  0.64897800  0.35265400  0.47398000  1
  Fe  Fe6  1  0.66754700  0.34768200  0.67995900  1
  Fe  Fe7  1  0.66973500  0.32299700  0.17994900  1
  O  O0  1  0.37724400  0.95391500  0.92544800  1
  O  O1  1  0.38224400  0.41909900  0.42360200  1
  F  F0  1  0.98805000  0.62306800  0.74394900  1
  F  F1  1  0.01434300  0.63970500  0.42295500  1
  F  F2  1  0.00971100  0.37139600  0.92326500  1
  F  F3  1  0.38956000  0.99827600  0.24801900  1
  F  F4  1  0.98675000  0.36405600  0.24349400  1
  F  F5  1  0.39135000  0.39380600  0.74726500  1
  F  F6  1  0.61776400  0.00862800  0.42366300  1
  F  F7  1  0.40881800  0.35542600  0.07827500  1
  F  F8  1  0.61442100  0.60860200  0.92376300  1
  F  F9  1  0.40662000  0.05055100  0.57866700  1
  F  F10  1  0.64353500  0.60548300  0.58350500  1
  F  F11  1  0.63282300  0.61085200  0.23945400  1
  F  F12  1  0.94394200  0.57448000  0.07915900  1
  F  F13  1  0.63807200  0.03820100  0.08488300  1
  F  F14  1  0.63233300  0.02247200  0.74008700  1
  F  F15  1  0.94233300  0.37029200  0.57984900  1
loop_
_geom_bond_atom_site_label_1
_geom_bond_atom_site_label_2
_geom_bond_distance
_geom_bond_site_symmetry_2
Fe0 O0 2.013735 1_555
Fe1 O1 2.046255 1_555
Fe2 O0 2.030960 1_554
Fe3 O1 2.048034 1_555
Fe4 O0 1.816857 1_545
Fe5 O1 1.822667 1_555
F0 Fe6 1.891978 1_555
F0 Fe0 2.083681 1_655
F1 Fe5 1.950514 1_455
F1 Fe1 2.168515 1_555
F1 Fe3 2.298576 1_555
F2 Fe4 1.948722 1_455
F2 Fe2 2.173813 1_556
F2 Fe0 2.292054 1_555
F3 Fe7 1.923902 1_565
F3 Fe3 2.068671 1_555
F4 Fe7 1.886359 1_555
F4 Fe3 2.099349 1_655
F5 Fe6 1.916968 1_555
F5 Fe0 2.112171 1_555
F6 Fe5 1.920613 1_555
F6 Fe1 2.204549 1_545
F6 Fe3 2.350689 1_545
F7 Fe2 2.071716 1_555
F7 Fe7 2.150419 1_555
F7 Fe4 2.153234 1_554
F8 Fe4 1.924916 1_555
F8 Fe2 2.206575 1_556
F8 Fe0 2.361142 1_555
F9 Fe1 2.098385 1_545
F9 Fe6 2.148939 1_555
F9 Fe5 2.152685 1_555
F10 Fe6 2.045070 1_555
F10 Fe5 2.137254 1_555
F10 Fe1 2.144665 1_555
F11 Fe7 1.877358 1_555
F11 Fe3 2.096518 1_555
F12 Fe7 2.063612 1_555
F12 Fe2 2.098737 1_655
F12 Fe4 2.240412 1_554
F13 Fe7 2.032137 1_555
F13 Fe4 2.146409 1_554
F13 Fe2 2.148356 1_545
F14 Fe6 1.881825 1_555
F14 Fe0 2.089265 1_545
F15 Fe6 2.066456 1_555
F15 Fe1 2.105405 1_655
F15 Fe5 2.221981 1_555
