# generated using pymatgen
data_LiMnPO5
_symmetry_space_group_name_H-M   'P 1'
_cell_length_a   7.81571400
_cell_length_b   7.01305800
_cell_length_c   7.16573766
_cell_angle_alpha   60.86173987
_cell_angle_beta   90.00000000
_cell_angle_gamma   90.00000000
_symmetry_Int_Tables_number   1
_chemical_formula_structural   LiMnPO5
_chemical_formula_sum   'Li4 Mn4 P4 O20'
_cell_volume   343.06284588
_cell_formula_units_Z   4
loop_
 _symmetry_equiv_pos_site_id
 _symmetry_equiv_pos_as_xyz
  1  'x, y, z'
loop_
 _atom_site_type_symbol
 _atom_site_label
 _atom_site_symmetry_multiplicity
 _atom_site_fract_x
 _atom_site_fract_y
 _atom_site_fract_z
 _atom_site_occupancy
  Li  Li0  1  0.56050200  0.28221200  0.25163100  1
  Li  Li1  1  0.93949800  0.78221200  0.25163100  1
  Li  Li2  1  0.06050200  0.21778800  0.74836900  1
  Li  Li3  1  0.43949800  0.71778800  0.74836900  1
  Mn  Mn0  1  0.24770600  0.49993300  0.24986300  1
  Mn  Mn1  1  0.25229400  0.99993300  0.24986300  1
  Mn  Mn2  1  0.74770600  0.00006700  0.75013700  1
  Mn  Mn3  1  0.75229400  0.50006700  0.75013700  1
  P  P0  1  0.60532800  0.74876900  0.25034000  1
  P  P1  1  0.10532800  0.75123100  0.74966000  1
  P  P2  1  0.89467200  0.24876900  0.25034000  1
  P  P3  1  0.39467200  0.25123100  0.74966000  1
  O  O0  1  0.32396300  0.25121500  0.24914700  1
  O  O1  1  0.00553300  0.42526700  0.26114400  1
  O  O2  1  0.73578300  0.84722600  0.06267800  1
  O  O3  1  0.76305000  0.15186600  0.43678200  1
  O  O4  1  0.49517700  0.56948700  0.24197100  1
  O  O5  1  0.17603700  0.75121500  0.24914700  1
  O  O6  1  0.49446700  0.92526700  0.26114400  1
  O  O7  1  0.76421700  0.34722600  0.06267800  1
  O  O8  1  0.99517700  0.93051300  0.75802900  1
  O  O9  1  0.26305000  0.34813400  0.56321800  1
  O  O10  1  0.73695000  0.65186600  0.43678200  1
  O  O11  1  0.00482300  0.06948700  0.24197100  1
  O  O12  1  0.23578300  0.65277400  0.93732200  1
  O  O13  1  0.50553300  0.07473300  0.73885600  1
  O  O14  1  0.82396300  0.24878500  0.75085300  1
  O  O15  1  0.50482300  0.43051300  0.75802900  1
  O  O16  1  0.23695000  0.84813400  0.56321800  1
  O  O17  1  0.26421700  0.15277400  0.93732200  1
  O  O18  1  0.99446700  0.57473300  0.73885600  1
  O  O19  1  0.67603700  0.74878500  0.75085300  1
loop_
_geom_bond_atom_site_label_1
_geom_bond_atom_site_label_2
_geom_bond_distance
_geom_bond_site_symmetry_2
Li0 O0 1.862555 1_555
Li0 O3 1.980117 1_555
Li0 O7 1.993742 1_555
Li0 O4 2.046601 1_555
Li0 O6 2.524129 1_545
Li1 O5 1.862555 1_655
Li1 O10 1.980117 1_555
Li1 O2 1.993742 1_555
Li1 O11 2.046601 1_665
Li1 O1 2.524129 1_655
Li2 O14 1.862555 1_455
Li2 O9 1.980117 1_555
Li2 O17 1.993742 1_555
Li2 O8 2.046601 1_445
Li2 O18 2.524129 1_455
Li3 O19 1.862555 1_555
Li3 O16 1.980117 1_555
Li3 O12 1.993742 1_555
Li3 O15 2.046601 1_555
Li3 O13 2.524129 1_565
Mn0 O0 1.845658 1_555
Mn0 O5 1.846761 1_555
Mn0 O1 1.955001 1_555
Mn0 O12 1.958468 1_554
Mn0 O9 1.965129 1_555
Mn0 O4 1.988782 1_555
Mn1 O5 1.845658 1_555
Mn1 O0 1.846761 1_565
Mn1 O6 1.955001 1_555
Mn1 O17 1.958468 1_564
Mn1 O16 1.965129 1_555
Mn1 O11 1.988782 1_565
Mn2 O14 1.845658 1_555
Mn2 O19 1.846761 1_545
Mn2 O13 1.955001 1_555
Mn2 O2 1.958468 1_546
Mn2 O3 1.965129 1_555
Mn2 O8 1.988782 1_545
Mn3 O19 1.845658 1_555
Mn3 O14 1.846761 1_555
Mn3 O18 1.955001 1_555
Mn3 O7 1.958468 1_556
Mn3 O10 1.965129 1_555
Mn3 O15 1.988782 1_555
O1 P2 1.543434 1_455
O2 P0 1.555776 1_555
O3 P2 1.555896 1_555
O4 P0 1.548880 1_555
O6 P0 1.543434 1_555
O7 P2 1.555776 1_555
O8 P1 1.548880 1_655
O9 P3 1.555896 1_555
O10 P0 1.555896 1_555
O11 P2 1.548880 1_455
O12 P1 1.555776 1_555
O13 P3 1.543434 1_555
O15 P3 1.548880 1_555
O16 P1 1.555896 1_555
O17 P3 1.555776 1_555
O18 P1 1.543434 1_655
