# generated using pymatgen
data_LiCu5(PO4)2
_symmetry_space_group_name_H-M   'P 1'
_cell_length_a   5.15184400
_cell_length_b   5.55166404
_cell_length_c   6.28251193
_cell_angle_alpha   87.94634246
_cell_angle_beta   89.41182100
_cell_angle_gamma   88.98678670
_symmetry_Int_Tables_number   1
_chemical_formula_structural   LiCu5(PO4)2
_chemical_formula_sum   'Li1 Cu5 P2 O8'
_cell_volume   179.53622097
_cell_formula_units_Z   1
loop_
 _symmetry_equiv_pos_site_id
 _symmetry_equiv_pos_as_xyz
  1  'x, y, z'
loop_
 _atom_site_type_symbol
 _atom_site_label
 _atom_site_symmetry_multiplicity
 _atom_site_fract_x
 _atom_site_fract_y
 _atom_site_fract_z
 _atom_site_occupancy
  Li  Li0  1  0.00676000  0.67723600  0.74825100  1
  Cu  Cu0  1  0.49137900  0.74853100  0.00509300  1
  Cu  Cu1  1  0.48005800  0.35300000  0.74836600  1
  Cu  Cu2  1  0.03620100  0.25722600  0.49452900  1
  Cu  Cu3  1  0.50109200  0.36088900  0.25694100  1
  Cu  Cu4  1  0.03693800  0.64619300  0.25968600  1
  P  P0  1  0.98255200  0.15538500  0.99190800  1
  P  P1  1  0.50832900  0.83465300  0.50574600  1
  O  O0  1  0.09300800  0.89434600  0.98251400  1
  O  O1  1  0.68221800  0.15928000  0.00058400  1
  O  O2  1  0.07959900  0.31357000  0.79393300  1
  O  O3  1  0.62640200  0.69585600  0.70644500  1
  O  O4  1  0.20752100  0.82047500  0.50813800  1
  O  O5  1  0.60382400  0.09740800  0.50264200  1
  O  O6  1  0.62503500  0.70471100  0.30600500  1
  O  O7  1  0.09649400  0.28124000  0.18921700  1
loop_
_geom_bond_atom_site_label_1
_geom_bond_atom_site_label_2
_geom_bond_distance
_geom_bond_site_symmetry_2
Li0 O4 1.972007 1_555
Li0 O3 1.980137 1_455
Li0 O0 1.993946 1_555
Li0 O2 2.057483 1_555
Cu0 O6 2.023631 1_555
Cu0 O3 2.023632 1_554
Cu0 O0 2.196941 1_554
Cu0 O1 2.498294 1_565
Cu1 O3 2.066773 1_555
Cu1 O2 2.094187 1_555
Cu1 O1 2.150423 1_556
Cu1 O5 2.215403 1_555
Cu2 O2 1.933729 1_555
Cu2 O7 1.940199 1_555
Cu2 O5 2.411654 1_455
Cu2 O4 2.564463 1_545
Cu3 O6 2.058037 1_555
Cu3 O5 2.151767 1_555
Cu3 O1 2.186051 1_555
Cu3 O7 2.187619 1_555
Cu4 O4 2.076385 1_555
Cu4 O7 2.105879 1_555
Cu4 O6 2.159416 1_455
Cu4 O0 2.201240 1_554
O0 P0 1.550407 1_465
O1 P0 1.547470 1_554
O2 P0 1.578814 1_455
O3 P1 1.575806 1_555
O4 P1 1.552994 1_555
O5 P1 1.547078 1_545
O6 P1 1.578187 1_555
O7 P0 1.568722 1_454
