# generated using pymatgen
data_Ca8V7ZnBiO28
_symmetry_space_group_name_H-M   'P 1'
_cell_length_a   10.93807201
_cell_length_b   10.93807201
_cell_length_c   14.17421067
_cell_angle_alpha   67.29166339
_cell_angle_beta   67.29166339
_cell_angle_gamma   60.13055852
_symmetry_Int_Tables_number   1
_chemical_formula_structural   Ca8V7ZnBiO28
_chemical_formula_sum   'Ca16 V14 Zn2 Bi2 O56'
_cell_volume   1316.15412200
_cell_formula_units_Z   2
loop_
 _symmetry_equiv_pos_site_id
 _symmetry_equiv_pos_as_xyz
  1  'x, y, z'
loop_
 _atom_site_type_symbol
 _atom_site_label
 _atom_site_symmetry_multiplicity
 _atom_site_fract_x
 _atom_site_fract_y
 _atom_site_fract_z
 _atom_site_occupancy
  Ca  Ca0  1  0.93173000  0.42830600  0.79752100  1
  Ca  Ca1  1  0.93380600  0.83738200  0.79837800  1
  Ca  Ca2  1  0.94366000  0.03159700  0.97506500  1
  Ca  Ca3  1  0.34061100  0.43432500  0.79858200  1
  Ca  Ca4  1  0.55108800  0.44516600  0.97738100  1
  Ca  Ca5  1  0.52570800  0.05314000  0.98115800  1
  Ca  Ca6  1  0.83738200  0.93380600  0.29837800  1
  Ca  Ca7  1  0.43432500  0.34061100  0.29858200  1
  Ca  Ca8  1  0.42830600  0.93173000  0.29752100  1
  Ca  Ca9  1  0.55841700  0.65113700  0.69826400  1
  Ca  Ca10  1  0.14984200  0.08929300  0.69866500  1
  Ca  Ca11  1  0.65113700  0.55841700  0.19826400  1
  Ca  Ca12  1  0.08929300  0.14984200  0.19866500  1
  Ca  Ca13  1  0.44516600  0.55108800  0.47738100  1
  Ca  Ca14  1  0.05314000  0.52570800  0.48115800  1
  Ca  Ca15  1  0.03159700  0.94366000  0.47506500  1
  V  V0  1  0.73283600  0.23596000  0.79694300  1
  V  V1  1  0.81363900  0.27631000  0.09515700  1
  V  V2  1  0.77628100  0.81384700  0.09443100  1
  V  V3  1  0.31287800  0.31519600  0.09525700  1
  V  V4  1  0.72412200  0.19095600  0.40771000  1
  V  V5  1  0.68906200  0.67857800  0.40714800  1
  V  V6  1  0.81384700  0.77628100  0.59443100  1
  V  V7  1  0.17805600  0.22398100  0.40815800  1
  V  V8  1  0.31519600  0.31287800  0.59525700  1
  V  V9  1  0.27631000  0.81363900  0.59515700  1
  V  V10  1  0.67857800  0.68906200  0.90714800  1
  V  V11  1  0.22398100  0.17805600  0.90815800  1
  V  V12  1  0.19095600  0.72412200  0.90771000  1
  V  V13  1  0.23596000  0.73283600  0.29694300  1
  Zn  Zn0  1  0.99825000  0.49744600  0.00231100  1
  Zn  Zn1  1  0.49744600  0.99825000  0.50231100  1
  Bi  Bi0  1  0.59437300  0.06057300  0.70204600  1
  Bi  Bi1  1  0.06057300  0.59437300  0.20204600  1
  O  O0  1  0.90061100  0.24224200  0.76071900  1
  O  O1  1  0.73899300  0.09336100  0.75958500  1
  O  O2  1  0.59499700  0.40214900  0.76060000  1
  O  O3  1  0.82602000  0.31422700  0.96261200  1
  O  O4  1  0.81427800  0.89798400  0.96265700  1
  O  O5  1  0.68784100  0.18862100  0.93383200  1
  O  O6  1  0.88347800  0.37079900  0.11989500  1
  O  O7  1  0.86878900  0.62427900  0.11750700  1
  O  O8  1  0.91699200  0.09126700  0.13334400  1
  O  O9  1  0.83578100  0.87212600  0.15912200  1
  O  O10  1  0.39694200  0.32700700  0.96343800  1
  O  O11  1  0.63081400  0.33020400  0.15650800  1
  O  O12  1  0.59103700  0.85889100  0.13297200  1
  O  O13  1  0.90037100  0.09909800  0.33680400  1
  O  O14  1  0.38195300  0.13337300  0.15718200  1
  O  O15  1  0.34971500  0.42440300  0.13431000  1
  O  O16  1  0.88088700  0.61314500  0.36252300  1
  O  O17  1  0.12438000  0.38077100  0.11880600  1
  O  O18  1  0.59909100  0.66352900  0.33602700  1
  O  O19  1  0.89798400  0.81427800  0.46265700  1
  O  O20  1  0.61964700  0.12107800  0.39320300  1
  O  O21  1  0.62120000  0.86708300  0.39134100  1
  O  O22  1  0.64353100  0.37804700  0.36299100  1
  O  O23  1  0.36655100  0.11975100  0.39192300  1
  O  O24  1  0.16489100  0.40468100  0.33710700  1
  O  O25  1  0.73806800  0.13486300  0.53605400  1
  O  O26  1  0.87212600  0.83578100  0.65912200  1
  O  O27  1  0.85889100  0.59103700  0.63297200  1
  O  O28  1  0.63173400  0.59694100  0.53375500  1
  O  O29  1  0.32700700  0.39694200  0.46343800  1
  O  O30  1  0.62427900  0.86878900  0.61750700  1
  O  O31  1  0.31422700  0.82602000  0.46261200  1
  O  O32  1  0.11348400  0.14492700  0.36441300  1
  O  O33  1  0.38077100  0.12438000  0.61880600  1
  O  O34  1  0.37079900  0.88347800  0.61989500  1
  O  O35  1  0.42440300  0.34971500  0.63431000  1
  O  O36  1  0.33020400  0.63081400  0.65650800  1
  O  O37  1  0.86708300  0.62120000  0.89134100  1
  O  O38  1  0.09680200  0.23652400  0.53489700  1
  O  O39  1  0.66352900  0.59909100  0.83602700  1
  O  O40  1  0.13337300  0.38195300  0.65718200  1
  O  O41  1  0.09126700  0.91699200  0.63334400  1
  O  O42  1  0.61314500  0.88088700  0.86252300  1
  O  O43  1  0.40468100  0.16489100  0.83710700  1
  O  O44  1  0.37804700  0.64353100  0.86299100  1
  O  O45  1  0.09909800  0.90037100  0.83680400  1
  O  O46  1  0.59694100  0.63173400  0.03375500  1
  O  O47  1  0.11975100  0.36655100  0.89192300  1
  O  O48  1  0.12107800  0.61964700  0.89320300  1
  O  O49  1  0.14492700  0.11348400  0.86441300  1
  O  O50  1  0.23652400  0.09680200  0.03489700  1
  O  O51  1  0.13486300  0.73806800  0.03605400  1
  O  O52  1  0.40214900  0.59499700  0.26060000  1
  O  O53  1  0.24224200  0.90061100  0.26071900  1
  O  O54  1  0.09336100  0.73899300  0.25958500  1
  O  O55  1  0.18862100  0.68784100  0.43383200  1
loop_
_geom_bond_atom_site_label_1
_geom_bond_atom_site_label_2
_geom_bond_distance
_geom_bond_site_symmetry_2
Ca0 O40 2.314308 1_655
Ca0 O3 2.337391 1_555
Ca0 O27 2.461661 1_555
Ca0 O0 2.485294 1_555
Ca0 O39 2.546770 1_555
Ca0 O47 2.553310 1_655
Ca0 O37 2.583468 1_555
Ca1 O26 2.327692 1_555
Ca1 O4 2.355582 1_555
Ca1 O41 2.450947 1_655
Ca1 O45 2.516123 1_655
Ca1 O37 2.535963 1_555
Ca1 O1 2.540821 1_565
Ca1 O48 2.543521 1_655
Ca2 O45 2.441318 1_645
Ca2 O8 2.445385 1_556
Ca2 O49 2.514401 1_655
Ca2 O4 2.572992 1_545
Ca2 O5 2.611876 1_555
Ca2 O3 2.652485 1_555
Ca2 O9 2.720479 1_546
Ca2 O51 2.827406 1_646
Ca3 O36 2.297629 1_555
Ca3 O10 2.343327 1_555
Ca3 O2 2.484002 1_555
Ca3 O35 2.507847 1_555
Ca3 O48 2.537331 1_555
Ca3 O43 2.543703 1_555
Ca3 O47 2.587435 1_555
Ca4 O39 2.432511 1_555
Ca4 O15 2.485229 1_556
Ca4 O44 2.545941 1_555
Ca4 O3 2.567864 1_555
Ca4 O5 2.633696 1_555
Ca4 O11 2.634455 1_556
Ca4 O10 2.679035 1_555
Ca4 O46 2.764475 1_556
Ca5 O12 2.408397 1_546
Ca5 O43 2.442080 1_555
Ca5 O10 2.551482 1_555
Ca5 O42 2.588791 1_545
Ca5 O5 2.592818 1_555
Ca5 O14 2.598987 1_556
Ca5 O4 2.698286 1_545
Ca5 O50 2.780206 1_556
Ca6 O9 2.327692 1_555
Ca6 O19 2.355582 1_555
Ca6 O8 2.450947 1_565
Ca6 O13 2.516123 1_565
Ca6 O21 2.535963 1_555
Ca6 O54 2.540821 1_655
Ca6 O20 2.543521 1_565
Ca7 O11 2.297629 1_555
Ca7 O29 2.343327 1_555
Ca7 O52 2.484002 1_555
Ca7 O15 2.507847 1_555
Ca7 O20 2.537331 1_555
Ca7 O24 2.543703 1_555
Ca7 O23 2.587435 1_555
Ca8 O14 2.314308 1_565
Ca8 O31 2.337391 1_555
Ca8 O12 2.461661 1_555
Ca8 O53 2.485294 1_555
Ca8 O18 2.546770 1_555
Ca8 O23 2.553310 1_565
Ca8 O21 2.583468 1_555
Ca9 O28 2.362563 1_555
Ca9 O39 2.383708 1_555
Ca9 O2 2.384874 1_555
Ca9 O44 2.409946 1_555
Ca9 O34 2.507908 1_555
Ca9 O30 2.542549 1_555
Ca9 O27 2.838966 1_555
Ca9 O36 2.902711 1_555
Ca10 O38 2.354002 1_555
Ca10 O45 2.364632 1_545
Ca10 O0 2.397135 1_455
Ca10 O49 2.441436 1_555
Ca10 O33 2.496295 1_555
Ca10 O34 2.567795 1_545
Ca10 O41 2.797777 1_545
Ca10 O40 2.946120 1_555
Ca11 O46 2.362563 1_555
Ca11 O18 2.383708 1_555
Ca11 O52 2.384874 1_555
Ca11 O22 2.409946 1_555
Ca11 O6 2.507908 1_555
Ca11 O7 2.542549 1_555
Ca11 O12 2.838966 1_555
Ca11 O11 2.902711 1_555
Ca12 O50 2.354002 1_555
Ca12 O13 2.364632 1_455
Ca12 O53 2.397135 1_545
Ca12 O32 2.441436 1_555
Ca12 O17 2.496295 1_555
Ca12 O6 2.567795 1_455
Ca12 O8 2.797777 1_455
Ca12 O14 2.946120 1_555
Ca13 O18 2.432511 1_555
Ca13 O35 2.485229 1_555
Ca13 O22 2.545941 1_555
Ca13 O31 2.567864 1_555
Ca13 O55 2.633696 1_555
Ca13 O36 2.634455 1_555
Ca13 O29 2.679035 1_555
Ca13 O28 2.764475 1_555
Ca14 O27 2.408397 1_455
Ca14 O24 2.442080 1_555
Ca14 O29 2.551482 1_555
Ca14 O16 2.588791 1_455
Ca14 O55 2.592818 1_555
Ca14 O40 2.598987 1_555
Ca14 O19 2.698286 1_455
Ca14 O38 2.780206 1_555
Ca15 O13 2.441318 1_465
Ca15 O41 2.445385 1_555
Ca15 O32 2.514401 1_565
Ca15 O19 2.572992 1_455
Ca15 O55 2.611876 1_555
Ca15 O31 2.652485 1_555
Ca15 O26 2.720479 1_455
Ca15 O25 2.827406 1_465
Bi0 O1 2.254562 1_555
Bi0 O43 2.352338 1_555
Bi0 O42 2.363463 1_545
Bi0 O25 2.367962 1_555
Bi0 O30 2.626412 1_545
Bi0 O33 2.684452 1_555
Bi0 O35 2.749133 1_555
Bi0 O26 2.816583 1_545
Bi1 O54 2.254562 1_555
Bi1 O24 2.352338 1_555
Bi1 O16 2.363463 1_455
Bi1 O51 2.367962 1_555
Bi1 O7 2.626412 1_455
Bi1 O17 2.684452 1_555
Bi1 O15 2.749133 1_555
Bi1 O9 2.816583 1_455
O0 V0 1.734054 1_555
O1 V0 1.795352 1_555
O2 V0 1.729068 1_555
O3 V1 1.725647 1_556
O4 V2 1.721281 1_556
O5 V0 1.736643 1_555
O6 V1 1.745761 1_555
O6 Zn0 2.146375 1_555
O7 V2 1.752816 1_555
O7 Zn0 2.145443 1_555
O8 V1 1.736407 1_555
O9 V2 1.730888 1_555
O10 V3 1.720088 1_556
O11 V1 1.726755 1_555
O12 V2 1.733652 1_555
O13 V4 1.757987 1_555
O14 V3 1.721665 1_555
O15 V3 1.748640 1_555
O16 V5 1.773086 1_555
O17 V3 1.748542 1_555
O17 Zn0 2.153302 1_455
O18 V5 1.751349 1_555
O19 V6 1.721281 1_555
O20 V4 1.762139 1_555
O20 Zn1 2.138184 1_545
O21 V5 1.760628 1_555
O21 Zn1 2.128107 1_555
O22 V4 1.731978 1_555
O23 V7 1.760278 1_555
O23 Zn1 2.119701 1_545
O24 V7 1.798107 1_555
O25 V4 1.722899 1_555
O26 V6 1.730888 1_555
O27 V6 1.733652 1_555
O28 V5 1.691944 1_555
O29 V8 1.720088 1_555
O30 V6 1.752816 1_555
O30 Zn1 2.145443 1_555
O31 V9 1.725647 1_555
O32 V7 1.729571 1_555
O33 V8 1.748542 1_555
O33 Zn1 2.153302 1_545
O34 V9 1.745761 1_555
O34 Zn1 2.146375 1_555
O35 V8 1.748640 1_555
O36 V9 1.726755 1_555
O37 V10 1.760628 1_555
O37 Zn0 2.128107 1_556
O38 V7 1.694698 1_555
O39 V10 1.751349 1_555
O40 V8 1.721665 1_555
O41 V9 1.736407 1_555
O42 V10 1.773086 1_555
O43 V11 1.798107 1_555
O44 V12 1.731978 1_555
O45 V12 1.757987 1_555
O46 V10 1.691944 1_554
O47 V11 1.760278 1_555
O47 Zn0 2.119701 1_456
O48 V12 1.762139 1_555
O48 Zn0 2.138184 1_456
O49 V11 1.729571 1_555
O50 V11 1.694698 1_554
O51 V12 1.722899 1_554
O52 V13 1.729068 1_555
O53 V13 1.734054 1_555
O54 V13 1.795352 1_555
O55 V13 1.736643 1_555
