# generated using pymatgen
data_Na5LiFe2P2(CO7)2
_symmetry_space_group_name_H-M   'P 1'
_cell_length_a   6.61630800
_cell_length_b   8.98314500
_cell_length_c   10.38656772
_cell_angle_alpha   88.98189590
_cell_angle_beta   90.00000000
_cell_angle_gamma   90.00000000
_symmetry_Int_Tables_number   1
_chemical_formula_structural   Na5LiFe2P2(CO7)2
_chemical_formula_sum   'Na10 Li2 Fe4 P4 C4 O28'
_cell_volume   617.23083479
_cell_formula_units_Z   2
loop_
 _symmetry_equiv_pos_site_id
 _symmetry_equiv_pos_as_xyz
  1  'x, y, z'
loop_
 _atom_site_type_symbol
 _atom_site_label
 _atom_site_symmetry_multiplicity
 _atom_site_fract_x
 _atom_site_fract_y
 _atom_site_fract_z
 _atom_site_occupancy
  Na  Na0  1  0.24968800  0.08301400  0.88092100  1
  Na  Na1  1  0.25225200  0.08271200  0.37955600  1
  Na  Na2  1  0.00077900  0.26080500  0.62417800  1
  Na  Na3  1  0.49897300  0.26051100  0.62443100  1
  Na  Na4  1  0.00169900  0.26014100  0.12462200  1
  Na  Na5  1  0.50169900  0.73985900  0.87537800  1
  Na  Na6  1  0.50077900  0.73919500  0.37582200  1
  Na  Na7  1  0.99897300  0.73948900  0.37556900  1
  Na  Na8  1  0.75225200  0.91728800  0.62044400  1
  Na  Na9  1  0.74968800  0.91698600  0.11907900  1
  Li  Li0  1  0.49621200  0.26888600  0.12311100  1
  Li  Li1  1  0.99621200  0.73111400  0.87688900  1
  Fe  Fe0  1  0.74791700  0.35538000  0.89353000  1
  Fe  Fe1  1  0.74975200  0.35543200  0.39141700  1
  Fe  Fe2  1  0.24975200  0.64456800  0.60858300  1
  Fe  Fe3  1  0.24791700  0.64462000  0.10647000  1
  P  P0  1  0.24610200  0.41576800  0.85105500  1
  P  P1  1  0.25265900  0.41202200  0.34895200  1
  P  P2  1  0.75265900  0.58797800  0.65104800  1
  P  P3  1  0.74610200  0.58423200  0.14894500  1
  C  C0  1  0.75458500  0.05652400  0.86679500  1
  C  C1  1  0.74786000  0.06055900  0.36468700  1
  C  C2  1  0.24786000  0.93944100  0.63531300  1
  C  C3  1  0.25458500  0.94347600  0.13320500  1
  O  O0  1  0.24974700  0.08262600  0.64308900  1
  O  O1  1  0.26633800  0.08739700  0.13979600  1
  O  O2  1  0.74873800  0.12131700  0.97852300  1
  O  O3  1  0.75012500  0.12331700  0.47742600  1
  O  O4  1  0.74794300  0.13944400  0.76253500  1
  O  O5  1  0.74416200  0.14484500  0.26097200  1
  O  O6  1  0.05986300  0.31904900  0.89128200  1
  O  O7  1  0.43455500  0.32444500  0.89727000  1
  O  O8  1  0.06272500  0.31839100  0.38821100  1
  O  O9  1  0.43815700  0.31798500  0.39428000  1
  O  O10  1  0.25182100  0.43265000  0.70138100  1
  O  O11  1  0.74989400  0.43362900  0.58815500  1
  O  O12  1  0.26082200  0.42916400  0.19865200  1
  O  O13  1  0.73663200  0.42741300  0.08917600  1
  O  O14  1  0.23663200  0.57258700  0.91082400  1
  O  O15  1  0.76082200  0.57083600  0.80134800  1
  O  O16  1  0.24989400  0.56637100  0.41184500  1
  O  O17  1  0.75182100  0.56735000  0.29861900  1
  O  O18  1  0.56272500  0.68160900  0.61178900  1
  O  O19  1  0.93815700  0.68201500  0.60572000  1
  O  O20  1  0.55986300  0.68095100  0.10871800  1
  O  O21  1  0.93455500  0.67555500  0.10273000  1
  O  O22  1  0.24416200  0.85515500  0.73902800  1
  O  O23  1  0.24794300  0.86055600  0.23746500  1
  O  O24  1  0.25012500  0.87668300  0.52257400  1
  O  O25  1  0.24873800  0.87868300  0.02147700  1
  O  O26  1  0.76633800  0.91260300  0.86020400  1
  O  O27  1  0.74974700  0.91737400  0.35691100  1
loop_
_geom_bond_atom_site_label_1
_geom_bond_atom_site_label_2
_geom_bond_distance
_geom_bond_site_symmetry_2
Na0 O25 2.324929 1_546
Na0 O6 2.468381 1_555
Na0 O0 2.470323 1_555
Na0 O7 2.498344 1_555
Na0 O22 2.543684 1_545
Na0 O1 2.692065 1_556
Na1 O24 2.352557 1_545
Na1 O9 2.452475 1_555
Na1 O8 2.463647 1_555
Na1 O1 2.491635 1_555
Na1 O23 2.503244 1_545
Na1 O0 2.737240 1_555
Na2 O11 2.298911 1_455
Na2 O0 2.302777 1_555
Na2 O10 2.414302 1_555
Na2 O4 2.448753 1_455
Na2 O8 2.529303 1_555
Na2 O3 2.581850 1_455
Na2 O6 2.859171 1_555
Na3 O11 2.301257 1_555
Na3 O0 2.301978 1_555
Na3 O10 2.397478 1_555
Na3 O4 2.428663 1_555
Na3 O9 2.469616 1_555
Na3 O3 2.584253 1_555
Na4 O13 2.334410 1_455
Na4 O1 2.343064 1_555
Na4 O12 2.424341 1_555
Na4 O5 2.435090 1_455
Na4 O6 2.501279 1_554
Na4 O2 2.593515 1_454
Na4 O8 2.825458 1_555
Na5 O14 2.334410 1_555
Na5 O26 2.343064 1_555
Na5 O15 2.424341 1_555
Na5 O22 2.435090 1_555
Na5 O20 2.501279 1_556
Na5 O25 2.593515 1_556
Na5 O18 2.825458 1_555
Na6 O16 2.298911 1_555
Na6 O27 2.302777 1_555
Na6 O17 2.414302 1_555
Na6 O23 2.448753 1_555
Na6 O18 2.529303 1_555
Na6 O24 2.581850 1_555
Na6 O20 2.859171 1_555
Na7 O16 2.301257 1_655
Na7 O27 2.301978 1_555
Na7 O17 2.397478 1_555
Na7 O23 2.428663 1_655
Na7 O19 2.469616 1_555
Na7 O24 2.584253 1_655
Na8 O3 2.352557 1_565
Na8 O19 2.452475 1_555
Na8 O18 2.463647 1_555
Na8 O26 2.491635 1_555
Na8 O4 2.503244 1_565
Na8 O27 2.737240 1_555
Na9 O2 2.324929 1_564
Na9 O20 2.468381 1_555
Na9 O27 2.470323 1_555
Na9 O21 2.498344 1_555
Na9 O5 2.543684 1_565
Na9 O26 2.692065 1_554
Li0 O13 2.159787 1_555
Li0 O1 2.234099 1_555
Li0 O12 2.270313 1_555
Li0 O7 2.424103 1_554
Li0 O5 2.434450 1_555
Li0 O2 2.622005 1_554
Li1 O14 2.159787 1_655
Li1 O26 2.234099 1_555
Li1 O15 2.270313 1_555
Li1 O21 2.424103 1_556
Li1 O22 2.434450 1_655
Li1 O25 2.622005 1_656
Fe0 O6 2.089771 1_655
Fe0 O7 2.092109 1_555
Fe0 O13 2.144857 1_556
Fe0 O15 2.145742 1_555
Fe0 O2 2.265921 1_555
Fe0 O4 2.389091 1_555
Fe1 O9 2.088999 1_555
Fe1 O8 2.097648 1_655
Fe1 O17 2.118497 1_555
Fe1 O11 2.172572 1_555
Fe1 O3 2.253797 1_555
Fe1 O5 2.346656 1_555
Fe2 O19 2.088999 1_455
Fe2 O18 2.097648 1_555
Fe2 O10 2.118497 1_555
Fe2 O16 2.172572 1_555
Fe2 O24 2.253797 1_555
Fe2 O22 2.346656 1_555
Fe3 O20 2.089771 1_555
Fe3 O21 2.092109 1_455
Fe3 O14 2.144857 1_554
Fe3 O12 2.145742 1_555
Fe3 O25 2.265921 1_555
Fe3 O23 2.389091 1_555
C0 O26 1.298219 1_545
C0 O4 1.304146 1_555
C0 O2 1.308040 1_555
C1 O27 1.290277 1_545
C1 O5 1.305889 1_555
C1 O3 1.308697 1_555
C2 O0 1.290277 1_565
C2 O22 1.305889 1_555
C2 O24 1.308697 1_555
C3 O1 1.298219 1_565
C3 O23 1.304146 1_555
C3 O25 1.308040 1_555
O6 P0 1.560420 1_555
O7 P0 1.563359 1_555
O8 P1 1.562285 1_555
O9 P1 1.558016 1_555
O10 P0 1.559753 1_555
O11 P2 1.543288 1_555
O12 P1 1.566883 1_555
O13 P3 1.550775 1_555
O14 P0 1.550775 1_555
O15 P2 1.566883 1_555
O16 P1 1.543288 1_555
O17 P3 1.559753 1_555
O18 P2 1.562285 1_555
O19 P2 1.558016 1_555
O20 P3 1.560420 1_555
O21 P3 1.563359 1_555
