# generated using pymatgen
data_Li4Co5O12
_symmetry_space_group_name_H-M   'P 1'
_cell_length_a   8.42634700
_cell_length_b   4.91285600
_cell_length_c   9.96707906
_cell_angle_alpha   80.53595686
_cell_angle_beta   90.00000000
_cell_angle_gamma   90.00000000
_symmetry_Int_Tables_number   1
_chemical_formula_structural   Li4Co5O12
_chemical_formula_sum   'Li8 Co10 O24'
_cell_volume   406.99539133
_cell_formula_units_Z   2
loop_
 _symmetry_equiv_pos_site_id
 _symmetry_equiv_pos_as_xyz
  1  'x, y, z'
loop_
 _atom_site_type_symbol
 _atom_site_label
 _atom_site_symmetry_multiplicity
 _atom_site_fract_x
 _atom_site_fract_y
 _atom_site_fract_z
 _atom_site_occupancy
  Li  Li0  1  0.24683000  0.25944600  0.99915800  1
  Li  Li1  1  0.39505200  0.01186400  0.23475100  1
  Li  Li2  1  0.74636900  0.99529600  0.23372700  1
  Li  Li3  1  0.24636900  0.00470400  0.76627300  1
  Li  Li4  1  0.89505200  0.98813600  0.76524900  1
  Li  Li5  1  0.74683000  0.74055400  0.00084200  1
  Li  Li6  1  0.92151000  0.50696500  0.23573400  1
  Li  Li7  1  0.42151000  0.49303500  0.76426600  1
  Co  Co0  1  0.41575200  0.24843300  0.49693100  1
  Co  Co1  1  0.08204600  0.25155900  0.49832300  1
  Co  Co2  1  0.74713300  0.25148700  0.50062100  1
  Co  Co3  1  0.92353600  0.24454000  0.99717100  1
  Co  Co4  1  0.58458300  0.25369800  0.99915700  1
  Co  Co5  1  0.91575200  0.75156700  0.50306900  1
  Co  Co6  1  0.58204600  0.74844100  0.50167700  1
  Co  Co7  1  0.24713300  0.74851300  0.49937900  1
  Co  Co8  1  0.42353600  0.75546000  0.00282900  1
  Co  Co9  1  0.08458300  0.74630200  0.00084300  1
  O  O0  1  0.90982600  0.11966000  0.40025100  1
  O  O1  1  0.25109800  0.10958200  0.39975700  1
  O  O2  1  0.58181300  0.10951600  0.39959200  1
  O  O3  1  0.75953600  0.14984800  0.89869900  1
  O  O4  1  0.08181300  0.89048400  0.60040800  1
  O  O5  1  0.75109800  0.89041800  0.60024300  1
  O  O6  1  0.40982600  0.88034000  0.59974900  1
  O  O7  1  0.07114000  0.09799700  0.88948000  1
  O  O8  1  0.43617800  0.10915500  0.89301500  1
  O  O9  1  0.93617800  0.89084500  0.10698500  1
  O  O10  1  0.57114000  0.90200300  0.11052000  1
  O  O11  1  0.25953600  0.85015200  0.10130100  1
  O  O12  1  0.41400400  0.61614700  0.40195200  1
  O  O13  1  0.75444000  0.62158300  0.39965100  1
  O  O14  1  0.07981600  0.61769800  0.40330400  1
  O  O15  1  0.25760100  0.64744900  0.89357000  1
  O  O16  1  0.57981600  0.38230200  0.59669600  1
  O  O17  1  0.25444000  0.37841700  0.60034900  1
  O  O18  1  0.91400400  0.38385300  0.59804800  1
  O  O19  1  0.56687400  0.61219100  0.89729700  1
  O  O20  1  0.93843000  0.61203300  0.89813400  1
  O  O21  1  0.43843000  0.38796700  0.10186600  1
  O  O22  1  0.06687400  0.38780900  0.10270300  1
  O  O23  1  0.75760100  0.35255100  0.10643000  1
loop_
_geom_bond_atom_site_label_1
_geom_bond_atom_site_label_2
_geom_bond_distance
_geom_bond_site_symmetry_2
Li0 O22 1.994045 1_556
Li0 O15 2.022296 1_555
Li0 O21 2.065373 1_556
Li0 O7 2.073873 1_555
Li0 O11 2.101913 1_546
Li0 O8 2.113514 1_555
Li1 O11 2.012914 1_545
Li1 O10 2.060552 1_545
Li1 O21 2.120654 1_555
Li1 O1 2.160163 1_555
Li1 O12 2.348791 1_545
Li1 O2 2.380197 1_555
Li2 O23 1.991722 1_565
Li2 O10 2.020731 1_555
Li2 O9 2.151829 1_555
Li2 O13 2.260968 1_555
Li2 O2 2.296883 1_565
Li2 O0 2.314879 1_565
Li3 O15 1.991722 1_545
Li3 O7 2.020731 1_555
Li3 O8 2.151829 1_555
Li3 O17 2.260968 1_555
Li3 O4 2.296883 1_545
Li3 O6 2.314879 1_545
Li4 O3 2.012914 1_565
Li4 O7 2.060552 1_665
Li4 O20 2.120654 1_555
Li4 O5 2.160163 1_555
Li4 O18 2.348791 1_565
Li4 O4 2.380197 1_655
Li5 O19 1.994045 1_554
Li5 O23 2.022296 1_555
Li5 O20 2.065373 1_554
Li5 O10 2.073873 1_555
Li5 O3 2.101913 1_564
Li5 O9 2.113514 1_555
Li6 O22 1.963769 1_655
Li6 O9 2.103075 1_555
Li6 O23 2.113188 1_555
Li6 O14 2.272370 1_655
Li6 O13 2.295804 1_555
Li6 O0 2.300646 1_555
Li7 O19 1.963769 1_555
Li7 O8 2.103075 1_555
Li7 O15 2.113188 1_555
Li7 O16 2.272370 1_555
Li7 O17 2.295804 1_555
Li7 O6 2.300646 1_555
Co0 O17 1.879996 1_555
Co0 O1 1.882989 1_555
Co0 O16 1.883498 1_555
Co0 O2 1.892826 1_555
Co0 O12 1.896713 1_555
Co0 O6 1.927049 1_545
Co1 O14 1.890156 1_555
Co1 O4 1.894328 1_545
Co1 O18 1.904690 1_455
Co1 O0 1.920843 1_455
Co1 O1 1.925146 1_555
Co1 O17 1.934199 1_555
Co2 O0 1.874218 1_555
Co2 O16 1.876200 1_555
Co2 O18 1.884321 1_555
Co2 O5 1.885328 1_545
Co2 O2 1.916246 1_555
Co2 O13 1.928934 1_555
Co3 O3 1.799882 1_555
Co3 O22 1.817715 1_656
Co3 O7 1.863198 1_655
Co3 O9 1.898240 1_546
Co3 O23 1.900673 1_556
Co3 O20 1.914072 1_555
Co4 O21 1.794955 1_556
Co4 O8 1.853189 1_555
Co4 O19 1.888619 1_555
Co4 O10 1.897247 1_546
Co4 O3 1.898462 1_555
Co4 O23 1.917108 1_556
Co5 O13 1.879996 1_555
Co5 O5 1.882989 1_555
Co5 O14 1.883498 1_655
Co5 O4 1.892826 1_655
Co5 O18 1.896713 1_555
Co5 O0 1.927049 1_565
Co6 O16 1.890156 1_555
Co6 O2 1.894328 1_565
Co6 O12 1.904690 1_555
Co6 O6 1.920843 1_555
Co6 O5 1.925146 1_555
Co6 O13 1.934199 1_555
Co7 O6 1.874218 1_555
Co7 O14 1.876200 1_555
Co7 O12 1.884321 1_555
Co7 O1 1.885328 1_565
Co7 O4 1.916246 1_555
Co7 O17 1.928934 1_555
Co8 O11 1.799882 1_555
Co8 O19 1.817715 1_554
Co8 O10 1.863198 1_555
Co8 O8 1.898240 1_564
Co8 O15 1.900673 1_554
Co8 O21 1.914072 1_555
Co9 O20 1.794955 1_454
Co9 O9 1.853189 1_455
Co9 O22 1.888619 1_555
Co9 O7 1.897247 1_564
Co9 O11 1.898462 1_555
Co9 O15 1.917108 1_554
