# generated using pymatgen
data_LiCoBO3
_symmetry_space_group_name_H-M   'P 1'
_cell_length_a   5.15933321
_cell_length_b   5.15932295
_cell_length_c   10.35182978
_cell_angle_alpha   89.52522182
_cell_angle_beta   90.47472539
_cell_angle_gamma   60.19980504
_symmetry_Int_Tables_number   1
_chemical_formula_structural   LiCoBO3
_chemical_formula_sum   'Li4 Co4 B4 O12'
_cell_volume   239.08131680
_cell_formula_units_Z   4
loop_
 _symmetry_equiv_pos_site_id
 _symmetry_equiv_pos_as_xyz
  1  'x, y, z'
loop_
 _atom_site_type_symbol
 _atom_site_label
 _atom_site_symmetry_multiplicity
 _atom_site_fract_x
 _atom_site_fract_y
 _atom_site_fract_z
 _atom_site_occupancy
  Li  Li0  1  0.15590200  0.83130700  0.66442100  1
  Li  Li1  1  0.16869200  0.84409800  0.16442100  1
  Li  Li2  1  0.83943100  0.16374200  0.91347900  1
  Li  Li3  1  0.83625800  0.16056900  0.41347900  1
  Co  Co0  1  0.17288100  0.49651100  0.39513400  1
  Co  Co1  1  0.49779800  0.17247900  0.14405100  1
  Co  Co2  1  0.50348900  0.82712100  0.89513400  1
  Co  Co3  1  0.82751600  0.50220400  0.64405000  1
  B  B0  1  0.16714200  0.49740000  0.87247200  1
  B  B1  1  0.49912500  0.16435300  0.62224700  1
  B  B2  1  0.50260000  0.83285800  0.37247300  1
  B  B3  1  0.83564600  0.50087500  0.12224800  1
  O  O0  1  0.08531500  0.51888500  0.15591700  1
  O  O1  1  0.23443200  0.43636500  0.59425400  1
  O  O2  1  0.15608800  0.76967200  0.85828300  1
  O  O3  1  0.42725800  0.24201800  0.90835700  1
  O  O4  1  0.51677700  0.09425300  0.34379500  1
  O  O5  1  0.23033000  0.84390900  0.35828300  1
  O  O6  1  0.77067000  0.15438600  0.60943600  1
  O  O7  1  0.48111300  0.91468600  0.65591800  1
  O  O8  1  0.56363800  0.76557100  0.09425500  1
  O  O9  1  0.84560700  0.22933400  0.10943400  1
  O  O10  1  0.75798300  0.57274400  0.40835800  1
  O  O11  1  0.90574800  0.48321900  0.84379600  1
loop_
_geom_bond_atom_site_label_1
_geom_bond_atom_site_label_2
_geom_bond_distance
_geom_bond_site_symmetry_2
Li0 O6 1.930115 1_465
Li0 O7 1.930621 1_555
Li0 O1 2.013088 1_555
Li0 O2 2.029178 1_555
Li1 O9 1.930142 1_465
Li1 O0 1.930622 1_555
Li1 O8 2.013111 1_555
Li1 O5 2.029179 1_555
Li2 O3 1.957609 1_555
Li2 O2 1.965301 1_645
Li2 O11 1.974637 1_555
Li2 O9 2.061879 1_556
Li3 O10 1.957617 1_555
Li3 O5 1.965313 1_645
Li3 O4 1.974660 1_555
Li3 O6 2.061898 1_555
Co0 O10 1.981037 1_455
Co0 O5 1.991088 1_555
Co0 O4 2.027699 1_555
Co0 O1 2.080029 1_555
Co0 O0 2.504905 1_555
Co1 O0 1.991414 1_555
Co1 O9 1.991648 1_555
Co1 O8 2.024963 1_545
Co1 O4 2.095581 1_555
Co1 O3 2.460712 1_554
Co2 O3 1.981030 1_565
Co2 O2 1.991106 1_555
Co2 O11 2.027712 1_555
Co2 O8 2.080040 1_556
Co2 O7 2.504893 1_555
Co3 O7 1.991405 1_555
Co3 O6 1.991657 1_555
Co3 O1 2.025008 1_655
Co3 O11 2.095605 1_555
Co3 O10 2.460690 1_555
B0 O3 1.378825 1_555
B0 O2 1.383810 1_555
B0 O11 1.415643 1_455
B1 O7 1.378926 1_545
B1 O6 1.383688 1_555
B1 O1 1.414292 1_555
B2 O10 1.378822 1_555
B2 O5 1.383811 1_555
B2 O4 1.415639 1_565
B3 O0 1.378929 1_655
B3 O9 1.383682 1_555
B3 O8 1.414289 1_555
