# generated using pymatgen
data_Mn7Ni(PO4)12
_symmetry_space_group_name_H-M   'P 1'
_cell_length_a   8.49313411
_cell_length_b   8.49734010
_cell_length_c   11.84578601
_cell_angle_alpha   89.99774273
_cell_angle_beta   89.99622273
_cell_angle_gamma   90.01785932
_symmetry_Int_Tables_number   1
_chemical_formula_structural   Mn7Ni(PO4)12
_chemical_formula_sum   'Mn7 Ni1 P12 O48'
_cell_volume   854.89906768
_cell_formula_units_Z   1
loop_
 _symmetry_equiv_pos_site_id
 _symmetry_equiv_pos_as_xyz
  1  'x, y, z'
loop_
 _atom_site_type_symbol
 _atom_site_label
 _atom_site_symmetry_multiplicity
 _atom_site_fract_x
 _atom_site_fract_y
 _atom_site_fract_z
 _atom_site_occupancy
  Mn  Mn0  1  0.24973800  0.96550100  0.61774600  1
  Mn  Mn1  1  0.25062900  0.53447500  0.38172400  1
  Mn  Mn2  1  0.24967000  0.03493500  0.11772600  1
  Mn  Mn3  1  0.25017200  0.46482800  0.88281200  1
  Mn  Mn4  1  0.75016600  0.53467900  0.11773600  1
  Mn  Mn5  1  0.74962100  0.96538600  0.88241400  1
  Mn  Mn6  1  0.74957800  0.03505800  0.38160900  1
  Ni  Ni0  1  0.75007900  0.46406300  0.61740800  1
  P  P0  1  0.03678700  0.25088400  0.49940400  1
  P  P1  1  0.46306000  0.75009100  0.00008100  1
  P  P2  1  0.53688600  0.24993100  0.99995100  1
  P  P3  1  0.96264900  0.74939200  0.49967200  1
  P  P4  1  0.10729900  0.39193000  0.14536300  1
  P  P5  1  0.10714300  0.10810400  0.85488300  1
  P  P6  1  0.39291300  0.60700800  0.64536100  1
  P  P7  1  0.39240500  0.89212400  0.35453000  1
  P  P8  1  0.60823500  0.10734800  0.64588800  1
  P  P9  1  0.60773900  0.39098800  0.35456600  1
  P  P10  1  0.89317600  0.60772000  0.85434500  1
  P  P11  1  0.89263100  0.89188300  0.14522600  1
  O  O0  1  0.05917600  0.64109000  0.42273700  1
  O  O1  1  0.05946800  0.85926500  0.57592500  1
  O  O2  1  0.07435700  0.90103600  0.15863400  1
  O  O3  1  0.07489100  0.59952100  0.84179300  1
  O  O4  1  0.14907500  0.15939000  0.57939900  1
  O  O5  1  0.14636800  0.34100000  0.41750300  1
  O  O6  1  0.15920700  0.43839900  0.02664600  1
  O  O7  1  0.15944400  0.06123400  0.97323600  1
  O  O8  1  0.15345200  0.22245000  0.17606900  1
  O  O9  1  0.15385200  0.27759500  0.82420300  1
  O  O10  1  0.18017900  0.51358300  0.22758500  1
  O  O11  1  0.17902000  0.98715700  0.77178000  1
  O  O12  1  0.32053600  0.01355900  0.27199700  1
  O  O13  1  0.31920600  0.48618300  0.72752700  1
  O  O14  1  0.34528600  0.77704200  0.67635100  1
  O  O15  1  0.34653300  0.72245000  0.32371200  1
  O  O16  1  0.33924700  0.56170900  0.52701700  1
  O  O17  1  0.33983600  0.93818700  0.47313600  1
  O  O18  1  0.35347800  0.84103500  0.08132100  1
  O  O19  1  0.35335100  0.65915300  0.91873600  1
  O  O20  1  0.42622800  0.09706700  0.65830100  1
  O  O21  1  0.42532300  0.40054200  0.34062900  1
  O  O22  1  0.44068200  0.14086300  0.07663400  1
  O  O23  1  0.44085300  0.35970100  0.92343100  1
  O  O24  1  0.55930900  0.64069200  0.07646300  1
  O  O25  1  0.55918200  0.85936000  0.92328500  1
  O  O26  1  0.57255400  0.60446800  0.66034800  1
  O  O27  1  0.57430200  0.90100500  0.34200900  1
  O  O28  1  0.64708100  0.34077800  0.08077700  1
  O  O29  1  0.64611400  0.15879200  0.91852900  1
  O  O30  1  0.66047900  0.06276400  0.52667700  1
  O  O31  1  0.65537700  0.44169900  0.47109500  1
  O  O32  1  0.65368100  0.22162800  0.32280100  1
  O  O33  1  0.65290100  0.27404900  0.67954800  1
  O  O34  1  0.67693000  0.51301100  0.27044800  1
  O  O35  1  0.68018700  0.98492900  0.72791000  1
  O  O36  1  0.82057500  0.01339500  0.22777500  1
  O  O37  1  0.82084500  0.48479400  0.77513700  1
  O  O38  1  0.84649900  0.72224400  0.17625500  1
  O  O39  1  0.84787000  0.77762500  0.82422700  1
  O  O40  1  0.84136000  0.56252400  0.97361300  1
  O  O41  1  0.84011000  0.93848100  0.02683800  1
  O  O42  1  0.85343400  0.66360900  0.58258200  1
  O  O43  1  0.85397800  0.84084800  0.41807000  1
  O  O44  1  0.92546900  0.09896300  0.84161200  1
  O  O45  1  0.92565100  0.40127400  0.15894200  1
  O  O46  1  0.94060300  0.14102600  0.42292200  1
  O  O47  1  0.94588700  0.35650600  0.57939600  1
loop_
_geom_bond_atom_site_label_1
_geom_bond_atom_site_label_2
_geom_bond_distance
_geom_bond_site_symmetry_2
Mn0 O17 1.890456 1_555
Mn0 O4 1.911160 1_565
Mn0 O1 1.915981 1_555
Mn0 O14 1.925035 1_555
Mn0 O11 1.929745 1_555
Mn0 O20 1.930435 1_565
Mn1 O16 1.892707 1_555
Mn1 O5 1.914562 1_555
Mn1 O15 1.919908 1_555
Mn1 O0 1.923956 1_555
Mn1 O10 1.929646 1_555
Mn1 O21 1.932500 1_555
Mn2 O7 1.888643 1_554
Mn2 O22 1.917788 1_555
Mn2 O18 1.918046 1_545
Mn2 O8 1.919669 1_555
Mn2 O12 1.932627 1_555
Mn2 O2 1.935246 1_545
Mn3 O6 1.884151 1_556
Mn3 O23 1.911331 1_555
Mn3 O19 1.916985 1_555
Mn3 O9 1.918803 1_555
Mn3 O13 1.939103 1_555
Mn3 O3 1.939936 1_555
Mn4 O40 1.889511 1_554
Mn4 O28 1.916282 1_555
Mn4 O24 1.918088 1_555
Mn4 O38 1.920805 1_555
Mn4 O34 1.921718 1_555
Mn4 O45 1.935389 1_555
Mn5 O41 1.889459 1_556
Mn5 O29 1.912492 1_565
Mn5 O25 1.913402 1_555
Mn5 O39 1.928147 1_555
Mn5 O35 1.930085 1_555
Mn5 O44 1.936826 1_565
Mn6 O30 1.892377 1_555
Mn6 O32 1.913836 1_555
Mn6 O46 1.918779 1_555
Mn6 O43 1.922770 1_545
Mn6 O36 1.928251 1_555
Mn6 O27 1.932024 1_545
Ni0 O31 1.920185 1_555
Ni0 O47 1.950534 1_555
Ni0 O42 1.953151 1_555
Ni0 O33 1.956785 1_555
Ni0 O37 1.970629 1_555
Ni0 O26 1.989097 1_555
O0 P3 1.532977 1_455
O1 P3 1.537345 1_455
O2 P11 1.553509 1_455
O3 P10 1.552052 1_455
O4 P0 1.553195 1_555
O5 P0 1.546989 1_555
O6 P4 1.525684 1_555
O7 P5 1.523693 1_555
O8 P4 1.536313 1_555
O9 P5 1.537297 1_555
O10 P4 1.549236 1_555
O11 P5 1.548665 1_565
O12 P7 1.547117 1_545
O13 P6 1.546858 1_555
O14 P6 1.544773 1_555
O15 P7 1.537365 1_555
O16 P6 1.523545 1_555
O17 P7 1.525315 1_555
O18 P1 1.545928 1_555
O19 P1 1.547113 1_556
O20 P8 1.555206 1_555
O21 P9 1.560204 1_555
O22 P2 1.533312 1_554
O23 P2 1.535384 1_555
O24 P1 1.533482 1_555
O25 P1 1.534767 1_556
O26 P6 1.536179 1_555
O27 P7 1.553780 1_555
O28 P2 1.545400 1_554
O29 P2 1.546294 1_555
O30 P8 1.527951 1_555
O31 P9 1.501611 1_555
O32 P9 1.537936 1_555
O33 P8 1.519585 1_555
O34 P9 1.553317 1_555
O35 P8 1.549181 1_565
O36 P11 1.548301 1_545
O37 P10 1.532508 1_555
O38 P11 1.538202 1_555
O39 P10 1.536249 1_555
O40 P10 1.528725 1_555
O41 P11 1.524018 1_555
O42 P3 1.534837 1_555
O43 P3 1.546184 1_555
O44 P5 1.552900 1_655
O45 P4 1.553169 1_655
O46 P0 1.535989 1_655
O47 P0 1.516519 1_655
