# generated using pymatgen
data_Ga3NO3
_symmetry_space_group_name_H-M   'P 1'
_cell_length_a   5.97809635
_cell_length_b   5.97809635
_cell_length_c   5.97809668
_cell_angle_alpha   59.29080429
_cell_angle_beta   59.29080429
_cell_angle_gamma   59.29080281
_symmetry_Int_Tables_number   1
_chemical_formula_structural   Ga3NO3
_chemical_formula_sum   'Ga6 N2 O6'
_cell_volume   148.62878803
_cell_formula_units_Z   2
loop_
 _symmetry_equiv_pos_site_id
 _symmetry_equiv_pos_as_xyz
  1  'x, y, z'
loop_
 _atom_site_type_symbol
 _atom_site_label
 _atom_site_symmetry_multiplicity
 _atom_site_fract_x
 _atom_site_fract_y
 _atom_site_fract_z
 _atom_site_occupancy
  Ga  Ga0  1  0.50000000  0.00000000  0.50000000  1
  Ga  Ga1  1  0.50000000  0.50000000  0.50000000  1
  Ga  Ga2  1  0.13716900  0.13716900  0.13716900  1
  Ga  Ga3  1  0.50000000  0.50000000  0.00000000  1
  Ga  Ga4  1  0.86283100  0.86283100  0.86283100  1
  Ga  Ga5  1  0.00000000  0.50000000  0.50000000  1
  N  N0  1  0.73270700  0.73270700  0.73270700  1
  N  N1  1  0.26729300  0.26729300  0.26729300  1
  O  O0  1  0.74044500  0.74044500  0.26074700  1
  O  O1  1  0.74044500  0.26074700  0.74044500  1
  O  O2  1  0.26074700  0.74044500  0.74044500  1
  O  O3  1  0.73925300  0.25955500  0.25955500  1
  O  O4  1  0.25955500  0.25955500  0.73925300  1
  O  O5  1  0.25955500  0.73925300  0.25955500  1
loop_
_geom_bond_atom_site_label_1
_geom_bond_atom_site_label_2
_geom_bond_distance
_geom_bond_site_symmetry_2
Ga0 N1 1.964609 1_555
Ga0 N0 1.964609 1_545
Ga0 O2 2.099602 1_545
Ga0 O3 2.099602 1_555
Ga0 O4 2.099602 1_555
Ga0 O0 2.099602 1_545
Ga1 O0 2.022031 1_555
Ga1 O4 2.022031 1_555
Ga1 O2 2.022031 1_555
Ga1 O5 2.022031 1_555
Ga1 O3 2.022031 1_555
Ga1 O1 2.022031 1_555
Ga2 N1 1.915592 1_555
Ga2 O3 1.928923 1_455
Ga2 O5 1.928923 1_545
Ga2 O4 1.928923 1_554
Ga3 N1 1.964609 1_555
Ga3 N0 1.964609 1_554
Ga3 O1 2.099602 1_554
Ga3 O2 2.099602 1_554
Ga3 O5 2.099602 1_555
Ga3 O3 2.099602 1_555
Ga4 N0 1.915592 1_555
Ga4 O1 1.928923 1_565
Ga4 O2 1.928923 1_655
Ga4 O0 1.928923 1_556
Ga5 N1 1.964609 1_555
Ga5 N0 1.964609 1_455
Ga5 O1 2.099602 1_455
Ga5 O5 2.099602 1_555
Ga5 O4 2.099602 1_555
Ga5 O0 2.099602 1_455
