# generated using pymatgen
data_ErCd3
_symmetry_space_group_name_H-M   'P 1'
_cell_length_a   4.81440900
_cell_length_b   6.41827909
_cell_length_c   6.41827818
_cell_angle_alpha   112.73962635
_cell_angle_beta   90.00000000
_cell_angle_gamma   90.00000000
_symmetry_Int_Tables_number   1
_chemical_formula_structural   ErCd3
_chemical_formula_sum   'Er2 Cd6'
_cell_volume   182.91050823
_cell_formula_units_Z   2
loop_
 _symmetry_equiv_pos_site_id
 _symmetry_equiv_pos_as_xyz
  1  'x, y, z'
loop_
 _atom_site_type_symbol
 _atom_site_label
 _atom_site_symmetry_multiplicity
 _atom_site_fract_x
 _atom_site_fract_y
 _atom_site_fract_z
 _atom_site_occupancy
  Er  Er0  1  0.25000000  0.63261704  0.36738296  1
  Er  Er1  1  0.75000000  0.36738296  0.63261704  1
  Cd  Cd0  1  0.75000000  0.88028980  0.69037689  1
  Cd  Cd1  1  0.25000000  0.11971020  0.30962311  1
  Cd  Cd2  1  0.75000000  0.82301438  0.17698562  1
  Cd  Cd3  1  0.25000000  0.17698562  0.82301438  1
  Cd  Cd4  1  0.75000000  0.30962311  0.11971020  1
  Cd  Cd5  1  0.25000000  0.69037689  0.88028980  1
loop_
_geom_bond_atom_site_label_1
_geom_bond_atom_site_label_2
_geom_bond_distance
_geom_bond_site_symmetry_2
Er0 Er1 3.719004 1_455
Er0 Er1 3.719004 1_555
Cd0 Cd3 2.982005 1_565
Cd0 Cd3 2.982005 1_665
Cd0 Cd4 3.052248 1_566
Cd0 Cd5 3.148770 1_555
Cd0 Cd5 3.148770 1_655
Cd0 Er1 3.167189 1_555
Cd0 Cd2 3.171166 1_555
Cd0 Er0 3.173566 1_655
Cd0 Er0 3.173566 1_555
Cd0 Cd2 3.282841 1_556
Cd0 Er1 3.287427 1_565
Cd1 Cd2 2.982005 1_445
Cd1 Cd2 2.982005 1_545
Cd1 Cd5 3.052248 1_544
Cd1 Cd4 3.148770 1_455
Cd1 Cd4 3.148770 1_555
Cd1 Er0 3.167189 1_555
Cd1 Cd3 3.171166 1_555
Cd1 Er1 3.173566 1_455
Cd1 Er1 3.173566 1_555
Cd1 Cd3 3.282841 1_554
Cd1 Er0 3.287427 1_545
Cd2 Cd5 2.982005 1_554
Cd2 Cd5 2.982005 1_654
Cd2 Er0 3.152110 1_555
Cd2 Er0 3.152110 1_655
Cd2 Cd4 3.171167 1_555
Cd2 Cd4 3.282842 1_565
Cd2 Er1 3.586130 1_554
Cd2 Er1 3.586130 1_565
Cd3 Cd4 2.982005 1_456
Cd3 Cd4 2.982005 1_556
Cd3 Er1 3.152110 1_455
Cd3 Er1 3.152110 1_555
Cd3 Cd5 3.171167 1_555
Cd3 Cd5 3.282842 1_545
Cd3 Er0 3.586130 1_556
Cd3 Er0 3.586130 1_545
Cd4 Er1 3.167188 1_555
Cd4 Er0 3.173566 1_555
Cd4 Er0 3.173566 1_655
Cd4 Er1 3.287426 1_554
Cd5 Er0 3.167188 1_555
Cd5 Er1 3.173566 1_555
Cd5 Er1 3.173566 1_455
Cd5 Er0 3.287426 1_556
