# generated using pymatgen
data_Li2FeF4
_symmetry_space_group_name_H-M   'P 1'
_cell_length_a   5.36337700
_cell_length_b   5.36337700
_cell_length_c   5.36337700
_cell_angle_alpha   134.72504671
_cell_angle_beta   134.72504671
_cell_angle_gamma   65.95771629
_symmetry_Int_Tables_number   1
_chemical_formula_structural   Li2FeF4
_chemical_formula_sum   'Li2 Fe1 F4'
_cell_volume   76.69449567
_cell_formula_units_Z   1
loop_
 _symmetry_equiv_pos_site_id
 _symmetry_equiv_pos_as_xyz
  1  'x, y, z'
loop_
 _atom_site_type_symbol
 _atom_site_label
 _atom_site_symmetry_multiplicity
 _atom_site_fract_x
 _atom_site_fract_y
 _atom_site_fract_z
 _atom_site_occupancy
  Li  Li0  1  0.75000000  0.25000000  0.50000000  1
  Li  Li1  1  0.25000000  0.75000000  0.50000000  1
  Fe  Fe0  1  0.00000000  0.00000000  0.00000000  1
  F  F0  1  0.76425600  0.76425600  0.00000000  1
  F  F1  1  0.23574400  0.23574400  0.00000000  1
  F  F2  1  0.50000000  0.00000000  0.50000000  1
  F  F3  1  0.00000000  0.50000000  0.50000000  1
loop_
_geom_bond_atom_site_label_1
_geom_bond_atom_site_label_2
_geom_bond_distance
_geom_bond_site_symmetry_2
F0 Li1 2.068341 1_554
F0 Li0 2.068341 1_565
F0 Li0 2.068341 1_554
F0 Li1 2.068341 1_655
F0 Fe0 2.121311 1_665
F1 Li0 2.068341 1_454
F1 Li0 2.068341 1_555
F1 Li1 2.068341 1_544
F1 Li1 2.068341 1_555
F1 Fe0 2.121311 1_555
F2 Fe0 2.064359 1_656
F2 Fe0 2.064359 1_555
F2 Li0 2.249592 1_555
F2 Li1 2.249592 1_545
F3 Fe0 2.064359 1_566
F3 Fe0 2.064359 1_555
F3 Li0 2.249592 1_455
F3 Li1 2.249592 1_555
