# generated using pymatgen
data_Li3Sc2(PO4)3
_symmetry_space_group_name_H-M   'P 1'
_cell_length_a   8.91933600
_cell_length_b   8.93730000
_cell_length_c   15.25646322
_cell_angle_alpha   54.66075108
_cell_angle_beta   90.00000000
_cell_angle_gamma   90.00000000
_symmetry_Int_Tables_number   1
_chemical_formula_structural   Li3Sc2(PO4)3
_chemical_formula_sum   'Li12 Sc8 P12 O48'
_cell_volume   992.07684301
_cell_formula_units_Z   4
loop_
 _symmetry_equiv_pos_site_id
 _symmetry_equiv_pos_as_xyz
  1  'x, y, z'
loop_
 _atom_site_type_symbol
 _atom_site_label
 _atom_site_symmetry_multiplicity
 _atom_site_fract_x
 _atom_site_fract_y
 _atom_site_fract_z
 _atom_site_occupancy
  Li  Li0  1  0.76898800  0.01286300  0.17876700  1
  Li  Li1  1  0.27374400  0.60352600  0.17740100  1
  Li  Li2  1  0.91057000  0.23897800  0.21165900  1
  Li  Li3  1  0.41057000  0.76102200  0.28834100  1
  Li  Li4  1  0.77374400  0.39647400  0.32259900  1
  Li  Li5  1  0.26898800  0.98713700  0.32123300  1
  Li  Li6  1  0.22625600  0.60352600  0.67740100  1
  Li  Li7  1  0.73101200  0.01286300  0.67876700  1
  Li  Li8  1  0.58943000  0.23897800  0.71165900  1
  Li  Li9  1  0.08943000  0.76102200  0.78834100  1
  Li  Li10  1  0.72625600  0.39647400  0.82259900  1
  Li  Li11  1  0.23101200  0.98713700  0.82123300  1
  Sc  Sc0  1  0.45633100  0.15468500  0.10630300  1
  Sc  Sc1  1  0.95461600  0.64636700  0.11071800  1
  Sc  Sc2  1  0.45461600  0.35363300  0.38928200  1
  Sc  Sc3  1  0.95633100  0.84531500  0.39369700  1
  Sc  Sc4  1  0.54538400  0.64636700  0.61071800  1
  Sc  Sc5  1  0.04366900  0.15468500  0.60630300  1
  Sc  Sc6  1  0.04538400  0.35363300  0.88928200  1
  Sc  Sc7  1  0.54366900  0.84531500  0.89369700  1
  P  P0  1  0.24568700  0.55194300  0.99786500  1
  P  P1  1  0.75431300  0.44805700  0.00213500  1
  P  P2  1  0.10626100  0.95420000  0.15108300  1
  P  P3  1  0.60047800  0.74583100  0.15083100  1
  P  P4  1  0.60626100  0.04580000  0.34891700  1
  P  P5  1  0.10047800  0.25416900  0.34916900  1
  P  P6  1  0.74568700  0.44805700  0.50213500  1
  P  P7  1  0.25431300  0.55194300  0.49786500  1
  P  P8  1  0.89952200  0.74583100  0.65083100  1
  P  P9  1  0.39373900  0.95420000  0.65108300  1
  P  P10  1  0.39952200  0.25416900  0.84916900  1
  P  P11  1  0.89373900  0.04580000  0.84891700  1
  O  O0  1  0.08088500  0.11950600  0.03397200  1
  O  O1  1  0.56726400  0.81347900  0.03460100  1
  O  O2  1  0.86206400  0.46905700  0.07410200  1
  O  O3  1  0.35167700  0.38709300  0.06212000  1
  O  O4  1  0.16023700  0.57362900  0.07837100  1
  O  O5  1  0.66864100  0.26441800  0.07981500  1
  O  O6  1  0.59570200  0.90566200  0.16436700  1
  O  O7  1  0.10143600  0.77113000  0.16168900  1
  O  O8  1  0.26462600  0.96922000  0.19043500  1
  O  O9  1  0.75506500  0.64972000  0.18608700  1
  O  O10  1  0.98112800  0.95990500  0.22071800  1
  O  O11  1  0.47294200  0.61333700  0.22715900  1
  O  O12  1  0.97294200  0.38666300  0.27284100  1
  O  O13  1  0.48112800  0.04009500  0.27928200  1
  O  O14  1  0.76462600  0.03078000  0.30956500  1
  O  O15  1  0.25506500  0.35028000  0.31391300  1
  O  O16  1  0.09570200  0.09433800  0.33563300  1
  O  O17  1  0.60143600  0.22887000  0.33831100  1
  O  O18  1  0.66023700  0.42637100  0.42162900  1
  O  O19  1  0.16864100  0.73558200  0.42018500  1
  O  O20  1  0.85167700  0.61290700  0.43788000  1
  O  O21  1  0.36206400  0.53094300  0.42589800  1
  O  O22  1  0.06726400  0.18652100  0.46539900  1
  O  O23  1  0.58088500  0.88049400  0.46602800  1
  O  O24  1  0.41911500  0.11950600  0.53397200  1
  O  O25  1  0.93273600  0.81347900  0.53460100  1
  O  O26  1  0.63793600  0.46905700  0.57410200  1
  O  O27  1  0.14832300  0.38709300  0.56212000  1
  O  O28  1  0.33976300  0.57362900  0.57837100  1
  O  O29  1  0.83135900  0.26441800  0.57981500  1
  O  O30  1  0.39856400  0.77113000  0.66168900  1
  O  O31  1  0.90429800  0.90566200  0.66436700  1
  O  O32  1  0.74493500  0.64972000  0.68608700  1
  O  O33  1  0.23537400  0.96922000  0.69043500  1
  O  O34  1  0.02705800  0.61333700  0.72715900  1
  O  O35  1  0.51887200  0.95990500  0.72071800  1
  O  O36  1  0.52705800  0.38666300  0.77284100  1
  O  O37  1  0.01887200  0.04009500  0.77928200  1
  O  O38  1  0.24493500  0.35028000  0.81391300  1
  O  O39  1  0.73537400  0.03078000  0.80956500  1
  O  O40  1  0.89856400  0.22887000  0.83831100  1
  O  O41  1  0.40429800  0.09433800  0.83563300  1
  O  O42  1  0.83976300  0.42637100  0.92162900  1
  O  O43  1  0.33135900  0.73558200  0.92018500  1
  O  O44  1  0.13793600  0.53094300  0.92589800  1
  O  O45  1  0.64832300  0.61290700  0.93788000  1
  O  O46  1  0.43273600  0.18652100  0.96539900  1
  O  O47  1  0.91911500  0.88049400  0.96602800  1
loop_
_geom_bond_atom_site_label_1
_geom_bond_atom_site_label_2
_geom_bond_distance
_geom_bond_site_symmetry_2
Li0 O6 1.896987 1_545
Li0 O10 1.965562 1_545
Li0 O5 2.051415 1_555
Li0 O14 2.092580 1_555
Li1 O11 1.953889 1_555
Li1 O4 1.961130 1_555
Li1 O15 2.008714 1_555
Li1 O7 2.061030 1_555
Li2 O2 1.956416 1_555
Li2 O14 2.042710 1_555
Li2 O12 2.085225 1_555
Li2 O16 2.268622 1_655
Li2 O10 2.497441 1_545
Li3 O21 1.956416 1_555
Li3 O8 2.042710 1_555
Li3 O11 2.085225 1_555
Li3 O6 2.268622 1_555
Li3 O13 2.497441 1_565
Li4 O12 1.953889 1_555
Li4 O18 1.961130 1_555
Li4 O9 2.008714 1_555
Li4 O17 2.061030 1_555
Li5 O16 1.896987 1_565
Li5 O13 1.965562 1_565
Li5 O19 2.051415 1_555
Li5 O8 2.092580 1_555
Li6 O34 1.953889 1_555
Li6 O28 1.961130 1_555
Li6 O38 2.008714 1_555
Li6 O30 2.061030 1_555
Li7 O31 1.896987 1_545
Li7 O35 1.965562 1_545
Li7 O29 2.051415 1_555
Li7 O39 2.092580 1_555
Li8 O26 1.956416 1_555
Li8 O39 2.042710 1_555
Li8 O36 2.085225 1_555
Li8 O41 2.268622 1_555
Li8 O35 2.497441 1_545
Li9 O44 1.956416 1_555
Li9 O33 2.042710 1_555
Li9 O34 2.085225 1_555
Li9 O31 2.268622 1_455
Li9 O37 2.497441 1_565
Li10 O36 1.953889 1_555
Li10 O42 1.961130 1_555
Li10 O32 2.008714 1_555
Li10 O40 2.061030 1_555
Li11 O41 1.896987 1_565
Li11 O37 1.965562 1_565
Li11 O43 2.051415 1_555
Li11 O33 2.092580 1_555
O0 P2 1.540314 1_545
O0 Sc6 2.002023 1_554
O1 P3 1.535416 1_555
O1 Sc7 2.009693 1_554
O2 P1 1.550091 1_555
O2 Sc1 2.128096 1_555
O3 P0 1.534453 1_554
O3 Sc0 2.005076 1_555
O4 P0 1.549967 1_554
O4 Sc1 2.097819 1_455
O5 P1 1.559475 1_555
O5 Sc0 2.062183 1_555
O6 P3 1.557630 1_555
O6 Sc0 2.236636 1_565
O7 P2 1.548793 1_555
O7 Sc1 2.136825 1_455
O8 P2 1.570632 1_555
O8 Sc0 2.203966 1_565
O9 P3 1.547188 1_555
O9 Sc1 2.128581 1_555
O10 P2 1.561925 1_655
O10 Sc3 2.221651 1_555
O11 P3 1.567494 1_555
O11 Sc2 2.211450 1_555
O12 P5 1.567494 1_655
O12 Sc1 2.211450 1_555
O13 P4 1.561925 1_555
O13 Sc0 2.221651 1_555
O14 P4 1.570632 1_555
O14 Sc3 2.203966 1_545
O15 P5 1.547188 1_555
O15 Sc2 2.128581 1_555
O16 P5 1.557630 1_555
O16 Sc3 2.236636 1_445
O17 P4 1.548793 1_555
O17 Sc2 2.136825 1_555
O18 P6 1.549967 1_555
O18 Sc2 2.097819 1_555
O19 P7 1.559475 1_555
O19 Sc3 2.062183 1_455
O20 P6 1.534453 1_555
O20 Sc3 2.005076 1_555
O21 P7 1.550091 1_555
O21 Sc2 2.128096 1_555
O22 P5 1.535416 1_555
O22 Sc5 2.009693 1_555
O23 P4 1.540314 1_565
O23 Sc4 2.002023 1_555
O24 P9 1.540314 1_545
O24 Sc2 2.002023 1_555
O25 P8 1.535416 1_555
O25 Sc3 2.009693 1_555
O26 P6 1.550091 1_555
O26 Sc4 2.128096 1_555
O27 P7 1.534453 1_555
O27 Sc5 2.005076 1_555
O28 P7 1.549967 1_555
O28 Sc4 2.097819 1_555
O29 P6 1.559475 1_555
O29 Sc5 2.062183 1_655
O30 P9 1.548793 1_555
O30 Sc4 2.136825 1_555
O31 P8 1.557630 1_555
O31 Sc5 2.236636 1_665
O32 P8 1.547188 1_555
O32 Sc4 2.128581 1_555
O33 P9 1.570632 1_555
O33 Sc5 2.203966 1_565
O34 P8 1.567494 1_455
O34 Sc6 2.211450 1_555
O35 P9 1.561925 1_555
O35 Sc7 2.221651 1_555
O36 P10 1.567494 1_555
O36 Sc4 2.211450 1_555
O37 P11 1.561925 1_455
O37 Sc5 2.221651 1_555
O38 P10 1.547188 1_555
O38 Sc6 2.128581 1_555
O39 P11 1.570632 1_555
O39 Sc7 2.203966 1_545
O40 P11 1.548793 1_555
O40 Sc6 2.136825 1_655
O41 P10 1.557630 1_555
O41 Sc7 2.236636 1_545
O42 P1 1.549967 1_556
O42 Sc6 2.097819 1_655
O43 P0 1.559475 1_555
O43 Sc7 2.062183 1_555
O44 P0 1.550091 1_555
O44 Sc6 2.128096 1_555
O45 P1 1.534453 1_556
O45 Sc7 2.005076 1_555
O46 P10 1.535416 1_555
O46 Sc0 2.009693 1_556
O47 P11 1.540314 1_565
O47 Sc1 2.002023 1_556
