# generated using pymatgen
data_Ca19(Cu12O23)2
_symmetry_space_group_name_H-M   'P 1'
_cell_length_a   6.47113300
_cell_length_b   10.93000575
_cell_length_c   16.95170460
_cell_angle_alpha   74.92642451
_cell_angle_beta   89.87280930
_cell_angle_gamma   89.85760445
_symmetry_Int_Tables_number   1
_chemical_formula_structural   Ca19(Cu12O23)2
_chemical_formula_sum   'Ca19 Cu24 O46'
_cell_volume   1157.72692960
_cell_formula_units_Z   1
loop_
 _symmetry_equiv_pos_site_id
 _symmetry_equiv_pos_as_xyz
  1  'x, y, z'
loop_
 _atom_site_type_symbol
 _atom_site_label
 _atom_site_symmetry_multiplicity
 _atom_site_fract_x
 _atom_site_fract_y
 _atom_site_fract_z
 _atom_site_occupancy
  Ca  Ca0  1  0.25134000  0.74841200  0.95517300  1
  Ca  Ca1  1  0.25047800  0.74627100  0.75930100  1
  Ca  Ca2  1  0.74493200  0.75485900  0.64949700  1
  Ca  Ca3  1  0.24991600  0.75091400  0.55456900  1
  Ca  Ca4  1  0.74819000  0.74749200  0.45551100  1
  Ca  Ca5  1  0.25085500  0.74494600  0.36037600  1
  Ca  Ca6  1  0.75347400  0.74911600  0.25493500  1
  Ca  Ca7  1  0.25446400  0.75568300  0.14953900  1
  Ca  Ca8  1  0.75074400  0.75131500  0.03674400  1
  Ca  Ca9  1  0.25174300  0.25159900  0.94747800  1
  Ca  Ca10  1  0.74088300  0.24812300  0.84851500  1
  Ca  Ca11  1  0.24431000  0.25065100  0.73849300  1
  Ca  Ca12  1  0.75117100  0.25101900  0.63908900  1
  Ca  Ca13  1  0.25222700  0.25294700  0.54177000  1
  Ca  Ca14  1  0.75072300  0.24832000  0.44609800  1
  Ca  Ca15  1  0.25417000  0.24403400  0.34850500  1
  Ca  Ca16  1  0.75391400  0.25207100  0.24145500  1
  Ca  Ca17  1  0.24850300  0.25282600  0.14150300  1
  Ca  Ca18  1  0.75095600  0.25158500  0.04294100  1
  Cu  Cu0  1  0.48131400  0.99498700  0.91669600  1
  Cu  Cu1  1  0.97400800  0.99711700  0.83432400  1
  Cu  Cu2  1  0.47530600  0.99932300  0.74993400  1
  Cu  Cu3  1  0.99949200  0.99871100  0.50382500  1
  Cu  Cu4  1  0.51418400  0.99603500  0.41860200  1
  Cu  Cu5  1  0.01704400  0.99607900  0.33498200  1
  Cu  Cu6  1  0.52070000  0.00014800  0.24981300  1
  Cu  Cu7  1  0.00530600  0.00304600  0.99905000  1
  Cu  Cu8  1  0.50022600  0.49908700  0.91950000  1
  Cu  Cu9  1  0.99563300  0.50143000  0.83369700  1
  Cu  Cu10  1  0.47837000  0.49826400  0.75422700  1
  Cu  Cu11  1  0.99339800  0.50229000  0.66674000  1
  Cu  Cu12  1  0.49579300  0.50247600  0.58640300  1
  Cu  Cu13  1  0.99935900  0.49930600  0.50122300  1
  Cu  Cu14  1  0.50463300  0.49875100  0.41834500  1
  Cu  Cu15  1  0.00691300  0.49856500  0.33404800  1
  Cu  Cu16  1  0.50307500  0.50086100  0.24984500  1
  Cu  Cu17  1  0.00432500  0.50223000  0.16529100  1
  Cu  Cu18  1  0.49856900  0.49897200  0.08301100  1
  Cu  Cu19  1  0.00523600  0.50279100  0.99757200  1
  Cu  Cu20  1  0.99962800  0.00521300  0.66739600  1
  Cu  Cu21  1  0.48595800  0.00256100  0.58195700  1
  Cu  Cu22  1  0.01626700  0.00231400  0.16614900  1
  Cu  Cu23  1  0.51568200  0.00322300  0.08082900  1
  O  O0  1  0.95710100  0.88202700  0.93878300  1
  O  O1  1  0.42000900  0.87617800  0.84603100  1
  O  O2  1  0.49734600  0.88216200  0.68907100  1
  O  O3  1  0.04142300  0.87748600  0.61308700  1
  O  O4  1  0.55880800  0.87428100  0.52421500  1
  O  O5  1  0.05616400  0.87349800  0.43749400  1
  O  O6  1  0.54852800  0.87458200  0.34913600  1
  O  O7  1  0.54715100  0.61615900  0.98211500  1
  O  O8  1  0.02957800  0.87897900  0.26963000  1
  O  O9  1  0.08993100  0.61673600  0.88977400  1
  O  O10  1  0.50112800  0.88448100  0.18720700  1
  O  O11  1  0.96556600  0.88314500  0.10261900  1
  O  O12  1  0.98662200  0.62230900  0.73178900  1
  O  O13  1  0.44555300  0.87500400  0.02329900  1
  O  O14  1  0.45055400  0.63000600  0.65845800  1
  O  O15  1  0.94312900  0.62482100  0.56538600  1
  O  O16  1  0.43885100  0.62378200  0.48038000  1
  O  O17  1  0.94991400  0.61938100  0.39316200  1
  O  O18  1  0.94743600  0.37964500  0.93389600  1
  O  O19  1  0.47875400  0.61867900  0.31132000  1
  O  O20  1  0.46885400  0.38736700  0.85478000  1
  O  O21  1  0.01397600  0.61906200  0.23080600  1
  O  O22  1  0.98807500  0.38135600  0.77077100  1
  O  O23  1  0.53601200  0.62056300  0.14715100  1
  O  O24  1  0.53000300  0.37665900  0.68803400  1
  O  O25  1  0.05280000  0.62387100  0.06427600  1
  O  O26  1  0.05402000  0.37814000  0.60842300  1
  O  O27  1  0.56262200  0.37617800  0.52057900  1
  O  O28  1  0.05277000  0.37677100  0.43413800  1
  O  O29  1  0.53421000  0.37830000  0.34934500  1
  O  O30  1  0.55758200  0.12450100  0.97504200  1
  O  O31  1  0.01162900  0.38114200  0.26914400  1
  O  O32  1  0.03461300  0.12541500  0.89772800  1
  O  O33  1  0.47571500  0.38287100  0.18834900  1
  O  O34  1  0.49501000  0.11633000  0.81189800  1
  O  O35  1  0.94639200  0.38028300  0.10638800  1
  O  O36  1  0.96987800  0.11156500  0.73406500  1
  O  O37  1  0.43774100  0.36912500  0.02895000  1
  O  O38  1  0.45035700  0.12443200  0.65022900  1
  O  O39  1  0.93728900  0.13238800  0.55817600  1
  O  O40  1  0.44335400  0.12465100  0.47570200  1
  O  O41  1  0.96786500  0.11637800  0.39382000  1
  O  O42  1  0.50416900  0.11638700  0.31224400  1
  O  O43  1  0.02961900  0.11953800  0.23344700  1
  O  O44  1  0.54968900  0.12531400  0.15058600  1
  O  O45  1  0.05744800  0.12587200  0.06239600  1
loop_
_geom_bond_atom_site_label_1
_geom_bond_atom_site_label_2
_geom_bond_distance
_geom_bond_site_symmetry_2
Ca0 O1 2.284580 1_555
Ca0 O9 2.287765 1_555
Ca0 O7 2.368368 1_555
Ca0 O25 2.369156 1_556
Ca0 O0 2.369162 1_455
Ca0 O13 2.381986 1_556
Ca1 O2 2.293277 1_555
Ca1 O12 2.304852 1_455
Ca1 O9 2.518748 1_555
Ca1 O1 2.545944 1_555
Ca1 O14 2.706529 1_555
Ca1 O3 2.861243 1_555
Ca2 O14 2.327663 1_555
Ca2 O2 2.328660 1_555
Ca2 O3 2.331479 1_655
Ca2 O12 2.332019 1_555
Ca2 O4 2.495283 1_555
Ca2 O15 2.595176 1_555
Ca3 O14 2.307541 1_555
Ca3 O3 2.327396 1_555
Ca3 O4 2.392998 1_555
Ca3 O15 2.398926 1_455
Ca3 O16 2.429189 1_555
Ca3 O5 2.434248 1_555
Ca4 O17 2.352948 1_555
Ca4 O6 2.355676 1_555
Ca4 O15 2.358248 1_555
Ca4 O4 2.367157 1_555
Ca4 O16 2.392981 1_555
Ca4 O5 2.398762 1_655
Ca5 O19 2.313546 1_555
Ca5 O8 2.321666 1_555
Ca5 O17 2.365729 1_455
Ca5 O6 2.371930 1_555
Ca5 O16 2.444145 1_555
Ca5 O5 2.491937 1_555
Ca6 O10 2.299253 1_555
Ca6 O21 2.305886 1_655
Ca6 O19 2.324400 1_555
Ca6 O8 2.338282 1_655
Ca6 O6 2.703702 1_555
Ca6 O17 2.719056 1_555
Ca6 O23 2.940994 1_555
Ca6 O11 2.953549 1_555
Ca7 O10 2.328218 1_555
Ca7 O21 2.341281 1_555
Ca7 O11 2.342191 1_455
Ca7 O23 2.349383 1_555
Ca7 O13 2.520745 1_555
Ca7 O25 2.639785 1_555
Ca8 O0 2.312490 1_554
Ca8 O7 2.345684 1_554
Ca8 O13 2.368218 1_555
Ca8 O25 2.373012 1_655
Ca8 O23 2.466424 1_555
Ca8 O11 2.471729 1_555
Ca9 O32 2.281997 1_555
Ca9 O20 2.330874 1_555
Ca9 O18 2.389611 1_455
Ca9 O30 2.391217 1_555
Ca9 O45 2.422708 1_556
Ca9 O37 2.438032 1_556
Ca10 O22 2.328144 1_555
Ca10 O34 2.339379 1_555
Ca10 O20 2.344414 1_555
Ca10 O32 2.349490 1_655
Ca10 O30 2.514437 1_555
Ca10 O18 2.654852 1_555
Ca11 O34 2.320050 1_555
Ca11 O24 2.332236 1_555
Ca11 O22 2.341041 1_455
Ca11 O36 2.354529 1_455
Ca11 O26 2.593291 1_555
Ca11 O38 2.641091 1_555
Ca12 O24 2.280381 1_555
Ca12 O38 2.369629 1_555
Ca12 O36 2.375171 1_555
Ca12 O26 2.382188 1_655
Ca12 O39 2.433739 1_555
Ca12 O27 2.443185 1_555
Ca13 O28 2.354574 1_555
Ca13 O40 2.356368 1_555
Ca13 O26 2.362870 1_555
Ca13 O38 2.378136 1_555
Ca13 O27 2.395060 1_555
Ca13 O39 2.405701 1_455
Ca14 O39 2.328795 1_555
Ca14 O29 2.336616 1_555
Ca14 O41 2.342789 1_555
Ca14 O40 2.385641 1_555
Ca14 O28 2.386729 1_655
Ca14 O27 2.435398 1_555
Ca15 O42 2.317756 1_555
Ca15 O41 2.327770 1_455
Ca15 O29 2.337098 1_555
Ca15 O31 2.338395 1_555
Ca15 O40 2.528049 1_555
Ca15 O28 2.643526 1_555
Ca16 O42 2.308447 1_555
Ca16 O31 2.313298 1_655
Ca16 O43 2.321268 1_655
Ca16 O33 2.328145 1_555
Ca16 O35 2.661714 1_555
Ca16 O44 2.677116 1_555
Ca16 O29 2.925908 1_555
Ca16 O41 2.966626 1_555
Ca17 O43 2.318913 1_555
Ca17 O33 2.327118 1_555
Ca17 O37 2.343432 1_555
Ca17 O44 2.375079 1_555
Ca17 O35 2.382734 1_455
Ca17 O45 2.497196 1_555
Ca18 O35 2.353024 1_555
Ca18 O44 2.370522 1_555
Ca18 O18 2.375998 1_554
Ca18 O37 2.376046 1_555
Ca18 O30 2.380477 1_554
Ca18 O45 2.384136 1_655
Cu0 O34 1.922825 1_565
Cu0 O13 1.950904 1_556
Cu0 O30 1.989870 1_565
Cu0 O1 2.022966 1_555
Cu1 O36 1.829829 1_565
Cu1 O0 1.889766 1_555
Cu1 O32 2.015932 1_665
Cu2 O2 1.846698 1_555
Cu2 O1 1.858159 1_555
Cu2 O34 1.858828 1_565
Cu2 O38 1.884317 1_565
Cu3 O39 1.959918 1_565
Cu3 O41 1.981492 1_565
Cu3 O3 1.995945 1_655
Cu3 O5 2.016902 1_655
Cu4 O42 1.936948 1_565
Cu4 O4 1.954683 1_555
Cu4 O40 1.955953 1_565
Cu4 O6 2.002170 1_555
Cu5 O41 1.871790 1_465
Cu5 O43 1.892597 1_565
Cu5 O8 1.899627 1_555
Cu5 O5 1.915270 1_555
Cu6 O10 1.854697 1_545
Cu6 O42 1.855743 1_555
Cu6 O44 1.881258 1_555
Cu6 O6 1.883901 1_545
Cu7 O32 1.892065 1_555
Cu7 O0 1.896574 1_445
Cu7 O11 1.915446 1_446
Cu7 O45 1.955219 1_556
Cu8 O20 1.853369 1_555
Cu8 O7 1.888386 1_555
Cu8 O37 2.062134 1_556
Cu9 O9 1.869189 1_655
Cu9 O12 1.883146 1_555
Cu9 O18 1.891542 1_555
Cu9 O22 1.895088 1_555
Cu10 O20 1.817624 1_555
Cu10 O14 1.877647 1_555
Cu10 O24 1.977163 1_555
Cu11 O22 1.909414 1_555
Cu11 O15 1.911781 1_555
Cu11 O26 1.914643 1_655
Cu11 O12 1.921081 1_555
Cu12 O24 1.917330 1_555
Cu12 O16 1.971039 1_555
Cu12 O27 2.033163 1_555
Cu12 O14 2.098226 1_555
Cu13 O26 1.982447 1_655
Cu13 O17 1.982542 1_555
Cu13 O15 1.992322 1_555
Cu13 O28 1.998642 1_655
Cu14 O27 1.931809 1_555
Cu14 O19 1.949651 1_555
Cu14 O16 1.974138 1_555
Cu14 O29 1.984110 1_555
Cu15 O28 1.887977 1_555
Cu15 O17 1.888964 1_455
Cu15 O31 1.895455 1_555
Cu15 O21 1.897550 1_555
Cu16 O19 1.861534 1_555
Cu16 O33 1.866124 1_555
Cu16 O29 1.872167 1_555
Cu16 O23 1.898109 1_555
Cu17 O21 1.899029 1_555
Cu17 O35 1.900131 1_455
Cu17 O25 1.901014 1_555
Cu17 O31 1.908236 1_555
Cu18 O7 1.877480 1_554
Cu18 O33 1.908391 1_555
Cu18 O37 1.920896 1_555
Cu18 O23 1.939444 1_555
Cu19 O18 1.968930 1_455
Cu19 O25 1.976517 1_556
Cu19 O9 2.001485 1_555
Cu19 O35 2.013779 1_456
Cu20 O36 1.829415 1_555
Cu20 O3 1.880209 1_645
Cu20 O39 2.045675 1_555
Cu21 O2 1.947175 1_545
Cu21 O40 1.962473 1_555
Cu21 O4 1.963341 1_545
Cu21 O38 1.991470 1_555
Cu22 O8 1.916237 1_545
Cu22 O11 1.922832 1_445
Cu22 O43 1.926599 1_555
Cu22 O45 1.937134 1_555
Cu23 O10 1.930726 1_545
Cu23 O30 1.951851 1_554
Cu23 O13 1.958833 1_545
Cu23 O44 2.012676 1_555
