# generated using pymatgen
data_Li4Mn3Fe2Sb3O16
_symmetry_space_group_name_H-M   'P 1'
_cell_length_a   6.26371206
_cell_length_b   6.26371206
_cell_length_c   9.83442889
_cell_angle_alpha   87.89982936
_cell_angle_beta   87.89982936
_cell_angle_gamma   57.82406020
_symmetry_Int_Tables_number   1
_chemical_formula_structural   Li4Mn3Fe2Sb3O16
_chemical_formula_sum   'Li4 Mn3 Fe2 Sb3 O16'
_cell_volume   326.29927300
_cell_formula_units_Z   1
loop_
 _symmetry_equiv_pos_site_id
 _symmetry_equiv_pos_as_xyz
  1  'x, y, z'
loop_
 _atom_site_type_symbol
 _atom_site_label
 _atom_site_symmetry_multiplicity
 _atom_site_fract_x
 _atom_site_fract_y
 _atom_site_fract_z
 _atom_site_occupancy
  Li  Li0  1  0.66114800  0.66114800  0.11867600  1
  Li  Li1  1  0.98754100  0.98754100  0.01057600  1
  Li  Li2  1  0.00004800  0.00004800  0.49646800  1
  Li  Li3  1  0.32357300  0.32357300  0.60076300  1
  Mn  Mn0  1  0.83128700  0.83128700  0.78637900  1
  Mn  Mn1  1  0.16834100  0.65906600  0.28703200  1
  Mn  Mn2  1  0.65906600  0.16834100  0.28703200  1
  Fe  Fe0  1  0.67675400  0.67675400  0.49788800  1
  Fe  Fe1  1  0.34284700  0.34284700  0.01509800  1
  Sb  Sb0  1  0.33566600  0.83155400  0.78235500  1
  Sb  Sb1  1  0.83155400  0.33566600  0.78235500  1
  Sb  Sb2  1  0.17213500  0.17213500  0.28339300  1
  O  O0  1  0.33540900  0.85527100  0.40553400  1
  O  O1  1  0.51673300  0.51673300  0.66133300  1
  O  O2  1  0.65399500  0.65399500  0.89776800  1
  O  O3  1  0.00978200  0.00978200  0.67930600  1
  O  O4  1  0.00476700  0.00476700  0.19627600  1
  O  O5  1  0.85527100  0.33540900  0.40553400  1
  O  O6  1  0.50140200  0.95730500  0.65621100  1
  O  O7  1  0.95730500  0.50140200  0.65621100  1
  O  O8  1  0.15587100  0.15587100  0.89320100  1
  O  O9  1  0.84312300  0.84312300  0.40160300  1
  O  O10  1  0.02645200  0.47735400  0.16150000  1
  O  O11  1  0.47735400  0.02645200  0.16150000  1
  O  O12  1  0.33045600  0.33045600  0.39357400  1
  O  O13  1  0.17718600  0.68756200  0.89861200  1
  O  O14  1  0.47770000  0.47770000  0.17679000  1
  O  O15  1  0.68756200  0.17718600  0.89861200  1
loop_
_geom_bond_atom_site_label_1
_geom_bond_atom_site_label_2
_geom_bond_distance
_geom_bond_site_symmetry_2
Li0 O10 1.991967 1_655
Li0 O11 1.991967 1_565
Li0 O14 2.068163 1_555
Li0 O2 2.177199 1_554
Li1 O4 1.843847 1_665
Li1 O13 1.957717 1_654
Li1 O15 1.957717 1_564
Li1 O8 2.135752 1_664
Li2 O3 1.805728 1_555
Li2 O0 1.981814 1_545
Li2 O5 1.981814 1_455
Li2 O9 1.991512 1_445
Li3 O6 2.008128 1_545
Li3 O7 2.008128 1_455
Li3 O12 2.035823 1_555
Li3 O1 2.224240 1_555
Mn0 O15 2.178991 1_565
Mn0 O13 2.178991 1_655
Mn0 O3 2.183481 1_665
Mn0 O2 2.191247 1_555
Mn0 O7 2.216779 1_555
Mn0 O6 2.216779 1_555
Mn1 O14 1.952586 1_555
Mn1 O12 2.014821 1_555
Mn1 O4 2.024275 1_565
Mn1 O9 2.043054 1_455
Mn1 O10 2.206854 1_555
Mn1 O0 2.351107 1_555
Mn2 O14 1.952586 1_555
Mn2 O12 2.014821 1_555
Mn2 O4 2.024275 1_655
Mn2 O9 2.043054 1_545
Mn2 O11 2.206854 1_555
Mn2 O5 2.351107 1_555
Fe0 O9 2.020015 1_555
Fe0 O0 2.041638 1_555
Fe0 O5 2.041638 1_555
Fe0 O6 2.176760 1_555
Fe0 O7 2.176760 1_555
Fe0 O1 2.329558 1_555
Fe1 O15 2.137942 1_554
Fe1 O13 2.137942 1_554
Fe1 O10 2.193588 1_555
Fe1 O11 2.193588 1_555
Fe1 O14 2.216376 1_555
Fe1 O8 2.418053 1_554
O0 Sb2 2.044862 1_565
O1 Sb1 2.069431 1_555
O1 Sb0 2.069431 1_555
O2 Sb1 2.052426 1_555
O2 Sb0 2.052426 1_555
O3 Sb0 2.020320 1_545
O3 Sb1 2.020320 1_455
O4 Sb2 2.057726 1_555
O5 Sb2 2.044862 1_655
O6 Sb0 1.985438 1_555
O7 Sb1 1.985438 1_555
O8 Sb0 2.054042 1_545
O8 Sb1 2.054042 1_455
O10 Sb2 1.994708 1_555
O11 Sb2 1.994708 1_555
O12 Sb2 2.084674 1_555
O13 Sb0 1.975054 1_555
O15 Sb1 1.975054 1_555
