# generated using pymatgen
data_Na2MnPCO7
_symmetry_space_group_name_H-M   'P 1'
_cell_length_a   8.49170300
_cell_length_b   8.53902108
_cell_length_c   8.88033193
_cell_angle_alpha   90.82783838
_cell_angle_beta   90.83252263
_cell_angle_gamma   104.70731555
_symmetry_Int_Tables_number   1
_chemical_formula_structural   Na2MnPCO7
_chemical_formula_sum   'Na8 Mn4 P4 C4 O28'
_cell_volume   622.64715979
_cell_formula_units_Z   4
loop_
 _symmetry_equiv_pos_site_id
 _symmetry_equiv_pos_as_xyz
  1  'x, y, z'
loop_
 _atom_site_type_symbol
 _atom_site_label
 _atom_site_symmetry_multiplicity
 _atom_site_fract_x
 _atom_site_fract_y
 _atom_site_fract_z
 _atom_site_occupancy
  Na  Na0  1  0.37114100  0.37799900  0.24042900  1
  Na  Na1  1  0.64204600  0.11553200  0.24916500  1
  Na  Na2  1  0.13567100  0.62253400  0.25447700  1
  Na  Na3  1  0.13574900  0.13098100  0.75270100  1
  Na  Na4  1  0.86101200  0.36538400  0.75528500  1
  Na  Na5  1  0.61627700  0.61208100  0.75479100  1
  Na  Na6  1  0.38141000  0.88673700  0.75116400  1
  Na  Na7  1  0.99712200  0.76745400  0.93181900  1
  Mn  Mn0  1  0.73631000  0.49226500  0.35038300  1
  Mn  Mn1  1  0.22744600  0.98489700  0.35178200  1
  Mn  Mn2  1  0.26431900  0.51750100  0.64843400  1
  Mn  Mn3  1  0.76691300  0.01450100  0.64584900  1
  P  P0  1  0.02170700  0.27395300  0.41935400  1
  P  P1  1  0.51793000  0.76868300  0.42111600  1
  P  P2  1  0.47760400  0.22849600  0.57545200  1
  P  P3  1  0.97931700  0.72731200  0.58284100  1
  C  C0  1  0.26163200  0.00777500  0.07104100  1
  C  C1  1  0.76760600  0.51390700  0.06954600  1
  C  C2  1  0.23857900  0.49018300  0.92655100  1
  C  C3  1  0.73929900  0.98979500  0.92442800  1
  O  O0  1  0.23313400  0.48997300  0.06668300  1
  O  O1  1  0.73342600  0.98649000  0.06284000  1
  O  O2  1  0.65410100  0.41095400  0.14425200  1
  O  O3  1  0.15397800  0.89876800  0.14695800  1
  O  O4  1  0.36402600  0.11174000  0.15424100  1
  O  O5  1  0.87694100  0.61035500  0.15334800  1
  O  O6  1  0.09387000  0.15735500  0.32639400  1
  O  O7  1  0.57261800  0.63495200  0.33337500  1
  O  O8  1  0.88947700  0.33011700  0.32982800  1
  O  O9  1  0.38963400  0.82645900  0.32786900  1
  O  O10  1  0.16630400  0.43018000  0.45552300  1
  O  O11  1  0.54422200  0.29329800  0.42084200  1
  O  O12  1  0.05389300  0.79217400  0.43285300  1
  O  O13  1  0.66521400  0.91832000  0.45748600  1
  O  O14  1  0.32526100  0.07655000  0.54613700  1
  O  O15  1  0.95506600  0.20081800  0.57249800  1
  O  O16  1  0.44739200  0.70242200  0.57620000  1
  O  O17  1  0.82691300  0.57856000  0.54822100  1
  O  O18  1  0.60496500  0.17049500  0.66970900  1
  O  O19  1  0.41772300  0.35588000  0.66760900  1
  O  O20  1  0.09969300  0.66705600  0.68627800  1
  O  O21  1  0.92267600  0.85447000  0.67926400  1
  O  O22  1  0.13768300  0.38961400  0.83553300  1
  O  O23  1  0.64180300  0.88734700  0.83015500  1
  O  O24  1  0.85121100  0.09849200  0.84992100  1
  O  O25  1  0.34951400  0.59861100  0.85263500  1
  O  O26  1  0.25379900  0.00154800  0.92843500  1
  O  O27  1  0.76743300  0.51798600  0.92674500  1
loop_
_geom_bond_atom_site_label_1
_geom_bond_atom_site_label_2
_geom_bond_distance
_geom_bond_site_symmetry_2
Na0 O0 2.286320 1_555
Na0 O4 2.374299 1_555
Na0 O11 2.398940 1_555
Na0 O2 2.511057 1_555
Na0 O7 2.534389 1_555
Na0 O10 2.708893 1_555
Na0 O6 2.741815 1_555
Na1 O1 2.229995 1_545
Na1 O11 2.434883 1_555
Na1 O4 2.487542 1_555
Na1 O8 2.499746 1_555
Na1 O13 2.558236 1_545
Na1 O2 2.679855 1_555
Na1 O9 2.929608 1_545
Na2 O0 2.282244 1_555
Na2 O5 2.338448 1_455
Na2 O12 2.359275 1_555
Na2 O9 2.475351 1_555
Na2 O10 2.498240 1_555
Na2 O3 2.526422 1_555
Na2 O8 2.914018 1_455
Na3 O26 2.286652 1_555
Na3 O22 2.313652 1_555
Na3 O15 2.385659 1_455
Na3 O24 2.527368 1_455
Na3 O14 2.571306 1_555
Na3 O21 2.650659 1_445
Na3 O19 2.784241 1_555
Na4 O27 2.269678 1_555
Na4 O22 2.402214 1_655
Na4 O15 2.406037 1_555
Na4 O24 2.422414 1_555
Na4 O18 2.480443 1_555
Na4 O17 2.669728 1_555
Na4 O20 2.924011 1_655
Na5 O27 2.264300 1_555
Na5 O16 2.387055 1_555
Na5 O23 2.389849 1_555
Na5 O25 2.414009 1_555
Na5 O19 2.503685 1_555
Na5 O17 2.643186 1_555
Na6 O26 2.271121 1_565
Na6 O23 2.308760 1_555
Na6 O16 2.368017 1_555
Na6 O14 2.573288 1_565
Na6 O25 2.582880 1_555
Na6 O20 2.687725 1_555
Na6 O18 2.784417 1_565
Na7 O3 2.405675 1_656
Na7 O5 2.480037 1_556
Na7 O21 2.495441 1_555
Na7 O27 2.495812 1_555
Na7 O26 2.557099 1_665
Na7 O20 2.574578 1_655
Mn0 O17 1.963911 1_555
Mn0 O2 2.000053 1_555
Mn0 O7 2.073323 1_555
Mn0 O8 2.134499 1_555
Mn0 O11 2.142876 1_555
Mn0 O5 2.237131 1_555
Mn1 O14 1.967363 1_565
Mn1 O3 1.983411 1_555
Mn1 O12 2.057201 1_555
Mn1 O6 2.087193 1_565
Mn1 O9 2.172229 1_555
Mn1 O4 2.252058 1_565
Mn2 O10 1.946796 1_555
Mn2 O25 1.990618 1_555
Mn2 O16 2.033086 1_555
Mn2 O19 2.131607 1_555
Mn2 O20 2.146119 1_555
Mn2 O22 2.148855 1_555
Mn3 O13 1.943327 1_545
Mn3 O24 1.993746 1_555
Mn3 O15 2.068265 1_555
Mn3 O23 2.121917 1_545
Mn3 O21 2.150114 1_545
Mn3 O18 2.154270 1_555
C0 O26 1.266808 1_554
C0 O4 1.288592 1_555
C0 O3 1.326873 1_545
C1 O27 1.269091 1_554
C1 O5 1.291529 1_555
C1 O2 1.321803 1_555
C2 O0 1.245959 1_556
C2 O22 1.308076 1_555
C2 O25 1.329726 1_555
C3 O1 1.231320 1_556
C3 O23 1.320047 1_555
C3 O24 1.338105 1_565
O6 P0 1.532648 1_555
O7 P1 1.543000 1_555
O8 P0 1.543172 1_655
O9 P1 1.540939 1_555
O10 P0 1.592137 1_555
O11 P2 1.548188 1_555
O12 P3 1.532842 1_455
O13 P1 1.570380 1_555
O14 P2 1.597786 1_555
O15 P0 1.557953 1_655
O16 P1 1.565246 1_555
O17 P3 1.589106 1_555
O18 P2 1.540532 1_555
O19 P2 1.542303 1_555
O20 P3 1.551386 1_455
O21 P3 1.547187 1_555
