# generated using pymatgen
data_Ca3Ta2O8
_symmetry_space_group_name_H-M   'P 1'
_cell_length_a   9.75489500
_cell_length_b   9.75489500
_cell_length_c   9.75489500
_cell_angle_alpha   105.63945833
_cell_angle_beta   105.63945833
_cell_angle_gamma   117.44092865
_symmetry_Int_Tables_number   1
_chemical_formula_structural   Ca3Ta2O8
_chemical_formula_sum   'Ca12 Ta8 O32'
_cell_volume   704.06852676
_cell_formula_units_Z   4
loop_
 _symmetry_equiv_pos_site_id
 _symmetry_equiv_pos_as_xyz
  1  'x, y, z'
loop_
 _atom_site_type_symbol
 _atom_site_label
 _atom_site_symmetry_multiplicity
 _atom_site_fract_x
 _atom_site_fract_y
 _atom_site_fract_z
 _atom_site_occupancy
  Ca  Ca0  1  0.77385800  0.60108800  0.42607500  1
  Ca  Ca1  1  0.75000000  0.25000000  0.50000000  1
  Ca  Ca2  1  0.25000000  0.75000000  0.50000000  1
  Ca  Ca3  1  0.65221700  0.22614200  0.82723000  1
  Ca  Ca4  1  0.85108800  0.92501200  0.32723000  1
  Ca  Ca5  1  0.17501200  0.34778300  0.57392500  1
  Ca  Ca6  1  0.07498800  0.40221700  0.92607500  1
  Ca  Ca7  1  0.39891200  0.82498800  0.17277000  1
  Ca  Ca8  1  0.59778300  0.52385800  0.67277000  1
  Ca  Ca9  1  0.50000000  0.50000000  0.00000000  1
  Ca  Ca10  1  0.00000000  0.00000000  0.00000000  1
  Ca  Ca11  1  0.47614200  0.14891200  0.07392500  1
  Ta  Ta0  1  0.33094800  0.44522100  0.27572100  1
  Ta  Ta1  1  0.08049900  0.69477300  0.77572100  1
  Ta  Ta2  1  0.94477300  0.66905200  0.11427400  1
  Ta  Ta3  1  0.69522100  0.91950100  0.61427400  1
  Ta  Ta4  1  0.55477900  0.83049900  0.88572600  1
  Ta  Ta5  1  0.30522700  0.08094800  0.38572600  1
  Ta  Ta6  1  0.16950100  0.05522700  0.72427900  1
  Ta  Ta7  1  0.91905200  0.30477900  0.22427900  1
  O  O0  1  0.81213200  0.66188000  0.23029800  1
  O  O1  1  0.21228500  0.82505600  0.30887800  1
  O  O2  1  0.73382300  0.84659300  0.80887800  1
  O  O3  1  0.79457400  0.37478200  0.30976300  1
  O  O4  1  0.83183400  0.56213200  0.65025200  1
  O  O5  1  0.09659300  0.78771500  0.61277100  1
  O  O6  1  0.17494400  0.48382300  0.38722900  1
  O  O7  1  0.73481000  0.54457400  0.91979200  1
  O  O8  1  0.62521800  0.93498100  0.41979200  1
  O  O9  1  0.91188000  0.18158200  0.34974800  1
  O  O10  1  0.06501900  0.48481000  0.69023700  1
  O  O11  1  0.08226100  0.68317700  0.97547200  1
  O  O12  1  0.54229500  0.64321100  0.47547200  1
  O  O13  1  0.81841800  0.16816600  0.73029800  1
  O  O14  1  0.31682300  0.29229500  0.39908400  1
  O  O15  1  0.35678900  0.83226100  0.89908400  1
  O  O16  1  0.89321100  0.91773900  0.60091600  1
  O  O17  1  0.93317700  0.45770500  0.10091600  1
  O  O18  1  0.43158200  0.58183400  0.76970200  1
  O  O19  1  0.16773900  0.06682300  0.52452800  1
  O  O20  1  0.70770500  0.10678900  0.02452800  1
  O  O21  1  0.18498100  0.26519000  0.80976300  1
  O  O22  1  0.33812000  0.56841800  0.15025200  1
  O  O23  1  0.51519000  0.20542600  0.58020800  1
  O  O24  1  0.62478200  0.81501900  0.08020800  1
  O  O25  1  0.07505600  0.26617700  0.11277100  1
  O  O26  1  0.15340700  0.96228500  0.88722900  1
  O  O27  1  0.41816600  0.18786800  0.84974800  1
  O  O28  1  0.45542600  0.37521800  0.19023700  1
  O  O29  1  0.51617700  0.90340700  0.69112200  1
  O  O30  1  0.03771500  0.92494400  0.19112200  1
  O  O31  1  0.43786800  0.08812000  0.26970200  1
loop_
_geom_bond_atom_site_label_1
_geom_bond_atom_site_label_2
_geom_bond_distance
_geom_bond_site_symmetry_2
Ca0 O0 2.220214 1_555
Ca0 O4 2.285994 1_555
Ca0 O3 2.320765 1_555
Ca0 O5 2.526074 1_655
Ca0 O16 2.565151 1_555
Ca0 O12 2.615172 1_555
Ca0 O28 2.627207 1_555
Ca1 O23 2.505915 1_555
Ca1 O10 2.505923 1_655
Ca1 O3 2.505924 1_555
Ca1 O8 2.505924 1_545
Ca1 O13 2.603683 1_555
Ca1 O4 2.603683 1_555
Ca1 O31 2.603683 1_555
Ca1 O9 2.603683 1_555
Ca2 O6 2.182131 1_555
Ca2 O29 2.182133 1_555
Ca2 O1 2.182140 1_555
Ca2 O5 2.182140 1_555
Ca3 O27 2.220214 1_555
Ca3 O13 2.285994 1_555
Ca3 O23 2.320763 1_555
Ca3 O29 2.526072 1_545
Ca3 O20 2.565151 1_556
Ca3 O17 2.615172 1_556
Ca3 O7 2.627211 1_555
Ca4 O9 2.220223 1_565
Ca4 O0 2.285985 1_555
Ca4 O24 2.320768 1_555
Ca4 O30 2.526072 1_655
Ca4 O19 2.565149 1_665
Ca4 O16 2.615169 1_555
Ca4 O8 2.627211 1_555
Ca5 O18 2.220218 1_555
Ca5 O9 2.285989 1_455
Ca5 O10 2.320750 1_555
Ca5 O6 2.526080 1_555
Ca5 O14 2.565159 1_555
Ca5 O19 2.615177 1_555
Ca5 O21 2.627201 1_555
Ca6 O13 2.220218 1_455
Ca6 O22 2.285989 1_556
Ca6 O21 2.320750 1_555
Ca6 O25 2.526080 1_556
Ca6 O17 2.565159 1_456
Ca6 O11 2.615177 1_555
Ca6 O10 2.627201 1_555
Ca7 O22 2.220223 1_555
Ca7 O31 2.285985 1_565
Ca7 O8 2.320768 1_555
Ca7 O1 2.526072 1_555
Ca7 O11 2.565149 1_554
Ca7 O15 2.615169 1_554
Ca7 O24 2.627211 1_555
Ca8 O4 2.220214 1_555
Ca8 O18 2.285994 1_555
Ca8 O7 2.320763 1_555
Ca8 O2 2.526072 1_555
Ca8 O12 2.565151 1_555
Ca8 O14 2.615172 1_555
Ca8 O23 2.627211 1_555
Ca9 O7 2.505915 1_554
Ca9 O21 2.505923 1_554
Ca9 O28 2.505924 1_555
Ca9 O24 2.505924 1_555
Ca9 O0 2.603683 1_555
Ca9 O27 2.603683 1_554
Ca9 O22 2.603683 1_555
Ca9 O18 2.603683 1_554
Ca10 O25 2.182131 1_555
Ca10 O2 2.182133 1_444
Ca10 O26 2.182140 1_544
Ca10 O30 2.182140 1_545
Ca11 O31 2.220214 1_555
Ca11 O27 2.285994 1_554
Ca11 O28 2.320765 1_555
Ca11 O26 2.526074 1_544
Ca11 O15 2.565151 1_544
Ca11 O20 2.615172 1_555
Ca11 O3 2.627207 1_555
O0 Ta2 1.925845 1_555
O1 Ta5 2.038070 1_565
O1 Ta2 2.200151 1_455
O2 Ta4 2.038070 1_555
O2 Ta3 2.200153 1_555
O3 Ta7 1.907692 1_555
O4 Ta1 1.925845 1_655
O5 Ta1 2.038070 1_555
O5 Ta6 2.200151 1_565
O6 Ta7 2.038070 1_455
O6 Ta0 2.200158 1_555
O7 Ta2 1.907703 1_556
O8 Ta3 1.907696 1_555
O9 Ta7 1.925853 1_555
O10 Ta1 1.907707 1_555
O11 Ta1 1.978007 1_555
O11 Ta2 2.135517 1_456
O12 Ta0 1.978010 1_555
O12 Ta3 2.135518 1_555
O13 Ta3 1.925844 1_545
O14 Ta5 1.978007 1_555
O14 Ta0 2.135509 1_555
O15 Ta4 1.978017 1_555
O15 Ta1 2.135517 1_555
O16 Ta3 1.978017 1_555
O16 Ta6 2.135517 1_665
O17 Ta2 1.978007 1_555
O17 Ta7 2.135509 1_555
O18 Ta4 1.925844 1_555
O19 Ta6 1.978007 1_555
O19 Ta5 2.135517 1_555
O20 Ta7 1.978010 1_555
O20 Ta4 2.135518 1_544
O21 Ta6 1.907707 1_555
O22 Ta0 1.925853 1_555
O23 Ta5 1.907703 1_555
O24 Ta4 1.907696 1_554
O25 Ta0 2.038070 1_555
O25 Ta7 2.200158 1_455
O26 Ta6 2.038070 1_565
O26 Ta1 2.200151 1_555
O27 Ta6 1.925845 1_555
O28 Ta0 1.907692 1_555
O29 Ta3 2.038070 1_555
O29 Ta4 2.200153 1_555
O30 Ta2 2.038070 1_455
O30 Ta5 2.200151 1_565
O31 Ta5 1.925845 1_555
