# generated using pymatgen
data_Li2VSi3O8
_symmetry_space_group_name_H-M   'P 1'
_cell_length_a   8.05009600
_cell_length_b   8.05009600
_cell_length_c   8.05009600
_cell_angle_alpha   90.00000000
_cell_angle_beta   90.00000000
_cell_angle_gamma   90.00000000
_symmetry_Int_Tables_number   1
_chemical_formula_structural   Li2VSi3O8
_chemical_formula_sum   'Li8 V4 Si12 O32'
_cell_volume   521.67878834
_cell_formula_units_Z   4
loop_
 _symmetry_equiv_pos_site_id
 _symmetry_equiv_pos_as_xyz
  1  'x, y, z'
loop_
 _atom_site_type_symbol
 _atom_site_label
 _atom_site_symmetry_multiplicity
 _atom_site_fract_x
 _atom_site_fract_y
 _atom_site_fract_z
 _atom_site_occupancy
  Li  Li0  1  0.00879500  0.00879500  0.00879500  1
  Li  Li1  1  0.24120500  0.24120500  0.24120500  1
  Li  Li2  1  0.25879500  0.75879500  0.74120500  1
  Li  Li3  1  0.49120500  0.99120500  0.50879500  1
  Li  Li4  1  0.50879500  0.49120500  0.99120500  1
  Li  Li5  1  0.74120500  0.25879500  0.75879500  1
  Li  Li6  1  0.75879500  0.74120500  0.25879500  1
  Li  Li7  1  0.99120500  0.50879500  0.49120500  1
  V  V0  1  0.12500000  0.87500000  0.37500000  1
  V  V1  1  0.37500000  0.12500000  0.87500000  1
  V  V2  1  0.62500000  0.62500000  0.62500000  1
  V  V3  1  0.87500000  0.37500000  0.12500000  1
  Si  Si0  1  0.11010900  0.13989100  0.62500000  1
  Si  Si1  1  0.12500000  0.38989100  0.86010900  1
  Si  Si2  1  0.13989100  0.62500000  0.11010900  1
  Si  Si3  1  0.36010900  0.37500000  0.61010900  1
  Si  Si4  1  0.37500000  0.61010900  0.36010900  1
  Si  Si5  1  0.38989100  0.86010900  0.12500000  1
  Si  Si6  1  0.61010900  0.36010900  0.37500000  1
  Si  Si7  1  0.62500000  0.11010900  0.13989100  1
  Si  Si8  1  0.63989100  0.87500000  0.88989100  1
  Si  Si9  1  0.86010900  0.12500000  0.38989100  1
  Si  Si10  1  0.87500000  0.88989100  0.63989100  1
  Si  Si11  1  0.88989100  0.63989100  0.87500000  1
  O  O0  1  0.08015700  0.13800600  0.40158700  1
  O  O1  1  0.09841300  0.91984300  0.63800600  1
  O  O2  1  0.12090500  0.62090500  0.87909500  1
  O  O3  1  0.11199400  0.16984300  0.84841300  1
  O  O4  1  0.13800600  0.40158700  0.08015700  1
  O  O5  1  0.12909500  0.37090500  0.62909500  1
  O  O6  1  0.15158700  0.61199400  0.33015700  1
  O  O7  1  0.16984300  0.84841300  0.11199400  1
  O  O8  1  0.33015700  0.15158700  0.61199400  1
  O  O9  1  0.34841300  0.38800600  0.83015700  1
  O  O10  1  0.37090500  0.62909500  0.12909500  1
  O  O11  1  0.36199400  0.59841300  0.58015700  1
  O  O12  1  0.38800600  0.83015700  0.34841300  1
  O  O13  1  0.37909500  0.37909500  0.37909500  1
  O  O14  1  0.40158700  0.08015700  0.13800600  1
  O  O15  1  0.41984300  0.86199400  0.90158700  1
  O  O16  1  0.58015700  0.36199400  0.59841300  1
  O  O17  1  0.59841300  0.58015700  0.36199400  1
  O  O18  1  0.62090500  0.87909500  0.12090500  1
  O  O19  1  0.61199400  0.33015700  0.15158700  1
  O  O20  1  0.63800600  0.09841300  0.91984300  1
  O  O21  1  0.62909500  0.12909500  0.37090500  1
  O  O22  1  0.65158700  0.88800600  0.66984300  1
  O  O23  1  0.66984300  0.65158700  0.88800600  1
  O  O24  1  0.83015700  0.34841300  0.38800600  1
  O  O25  1  0.84841300  0.11199400  0.16984300  1
  O  O26  1  0.87090500  0.87090500  0.87090500  1
  O  O27  1  0.86199400  0.90158700  0.41984300  1
  O  O28  1  0.88800600  0.66984300  0.65158700  1
  O  O29  1  0.87909500  0.12090500  0.62090500  1
  O  O30  1  0.90158700  0.41984300  0.86199400  1
  O  O31  1  0.91984300  0.63800600  0.09841300  1
loop_
_geom_bond_atom_site_label_1
_geom_bond_atom_site_label_2
_geom_bond_distance
_geom_bond_site_symmetry_2
Li0 O26 1.922624 1_444
Li0 O25 2.009445 1_455
Li0 O7 2.009445 1_545
Li0 O3 2.009445 1_554
Li1 O13 1.922624 1_555
Li1 O14 2.009445 1_555
Li1 O4 2.009445 1_555
Li1 O0 2.009445 1_555
Li2 O2 1.922624 1_555
Li2 O11 2.009445 1_555
Li2 O1 2.009445 1_555
Li2 O15 2.009445 1_555
Li3 O21 1.922624 1_565
Li3 O8 2.009445 1_565
Li3 O22 2.009445 1_555
Li3 O12 2.009445 1_555
Li4 O10 1.922624 1_556
Li4 O9 2.009445 1_555
Li4 O23 2.009445 1_555
Li4 O19 2.009445 1_556
Li5 O29 1.922624 1_555
Li5 O16 2.009445 1_555
Li5 O20 2.009445 1_555
Li5 O30 2.009445 1_555
Li6 O18 1.922624 1_555
Li6 O17 2.009445 1_555
Li6 O31 2.009445 1_555
Li6 O27 2.009445 1_555
Li7 O5 1.922624 1_655
Li7 O6 2.009445 1_655
Li7 O24 2.009445 1_555
Li7 O28 2.009445 1_555
O0 Si9 1.776995 1_455
O0 Si0 1.814650 1_555
O0 V0 2.158416 1_545
O1 Si0 1.776995 1_565
O1 Si10 1.814650 1_455
O1 V0 2.158416 1_555
O2 Si11 1.866246 1_455
O2 Si2 1.866246 1_556
O2 Si1 1.866246 1_555
O3 Si1 1.776995 1_555
O3 Si0 1.814650 1_555
O3 V1 2.158416 1_555
O4 Si1 1.776995 1_554
O4 Si2 1.814650 1_555
O4 V3 2.158416 1_455
O5 Si0 1.866246 1_555
O5 Si3 1.866246 1_555
O5 Si1 1.866246 1_555
O6 Si2 1.776995 1_555
O6 Si4 1.814650 1_555
O6 V0 2.158416 1_555
O7 Si5 1.776995 1_555
O7 Si2 1.814650 1_555
O7 V0 2.158416 1_555
O8 Si0 1.776995 1_555
O8 Si3 1.814650 1_555
O8 V1 2.158416 1_555
O9 Si3 1.776995 1_555
O9 Si1 1.814650 1_555
O9 V1 2.158416 1_555
O10 Si2 1.866246 1_555
O10 Si4 1.866246 1_555
O10 Si5 1.866246 1_555
O11 Si4 1.776995 1_555
O11 Si3 1.814650 1_555
O11 V2 2.158416 1_555
O12 Si4 1.776995 1_555
O12 Si5 1.814650 1_555
O12 V0 2.158416 1_555
O13 Si4 1.866246 1_555
O13 Si6 1.866246 1_555
O13 Si3 1.866246 1_555
O14 Si5 1.776995 1_545
O14 Si7 1.814650 1_555
O14 V1 2.158416 1_554
O15 Si8 1.776995 1_555
O15 Si5 1.814650 1_556
O15 V1 2.158416 1_565
O16 Si3 1.776995 1_555
O16 Si6 1.814650 1_555
O16 V2 2.158416 1_555
O17 Si6 1.776995 1_555
O17 Si4 1.814650 1_555
O17 V2 2.158416 1_555
O18 Si8 1.866246 1_554
O18 Si5 1.866246 1_555
O18 Si7 1.866246 1_565
O19 Si7 1.776995 1_555
O19 Si6 1.814650 1_555
O19 V3 2.158416 1_555
O20 Si7 1.776995 1_556
O20 Si8 1.814650 1_545
O20 V1 2.158416 1_555
O21 Si6 1.866246 1_555
O21 Si7 1.866246 1_555
O21 Si9 1.866246 1_555
O22 Si8 1.776995 1_555
O22 Si10 1.814650 1_555
O22 V2 2.158416 1_555
O23 Si11 1.776995 1_555
O23 Si8 1.814650 1_555
O23 V2 2.158416 1_555
O24 Si6 1.776995 1_555
O24 Si9 1.814650 1_555
O24 V3 2.158416 1_555
O25 Si9 1.776995 1_555
O25 Si7 1.814650 1_555
O25 V3 2.158416 1_555
O26 Si10 1.866246 1_555
O26 Si11 1.866246 1_555
O26 Si8 1.866246 1_555
O27 Si10 1.776995 1_555
O27 Si9 1.814650 1_565
O27 V0 2.158416 1_655
O28 Si10 1.776995 1_555
O28 Si11 1.814650 1_555
O28 V2 2.158416 1_555
O29 Si10 1.866246 1_545
O29 Si0 1.866246 1_655
O29 Si9 1.866246 1_555
O30 Si11 1.776995 1_555
O30 Si1 1.814650 1_655
O30 V3 2.158416 1_556
O31 Si2 1.776995 1_655
O31 Si11 1.814650 1_554
O31 V3 2.158416 1_555
