# generated using pymatgen
data_AgBrO4
_symmetry_space_group_name_H-M   'P 1'
_cell_length_a   8.66993500
_cell_length_b   5.84442200
_cell_length_c   9.20825733
_cell_angle_alpha   53.55510237
_cell_angle_beta   90.00000000
_cell_angle_gamma   90.00000000
_symmetry_Int_Tables_number   1
_chemical_formula_structural   AgBrO4
_chemical_formula_sum   'Ag4 Br4 O16'
_cell_volume   375.33781906
_cell_formula_units_Z   4
loop_
 _symmetry_equiv_pos_site_id
 _symmetry_equiv_pos_as_xyz
  1  'x, y, z'
loop_
 _atom_site_type_symbol
 _atom_site_label
 _atom_site_symmetry_multiplicity
 _atom_site_fract_x
 _atom_site_fract_y
 _atom_site_fract_z
 _atom_site_occupancy
  Ag  Ag0  1  0.53343800  0.91448800  0.33522200  1
  Ag  Ag1  1  0.03343800  0.08551200  0.16477800  1
  Ag  Ag2  1  0.96656200  0.91448800  0.83522200  1
  Ag  Ag3  1  0.46656200  0.08551200  0.66477800  1
  Br  Br0  1  0.68624500  0.40421700  0.84033900  1
  Br  Br1  1  0.18624500  0.59578300  0.65966100  1
  Br  Br2  1  0.81375500  0.40421700  0.34033900  1
  Br  Br3  1  0.31375500  0.59578300  0.15966100  1
  O  O0  1  0.77623300  0.72763200  0.28276600  1
  O  O1  1  0.62180700  0.43630500  0.65701200  1
  O  O2  1  0.84937400  0.21131600  0.90540900  1
  O  O3  1  0.05519500  0.75588100  0.49761400  1
  O  O4  1  0.55519500  0.24411900  0.00238600  1
  O  O5  1  0.34937400  0.78868400  0.59459100  1
  O  O6  1  0.12180700  0.56369500  0.84298800  1
  O  O7  1  0.72376700  0.72763200  0.78276600  1
  O  O8  1  0.27623300  0.27236800  0.21723400  1
  O  O9  1  0.87819300  0.43630500  0.15701200  1
  O  O10  1  0.65062600  0.21131600  0.40540900  1
  O  O11  1  0.44480500  0.75588100  0.99761400  1
  O  O12  1  0.94480500  0.24411900  0.50238600  1
  O  O13  1  0.15062600  0.78868400  0.09459100  1
  O  O14  1  0.37819300  0.56369500  0.34298800  1
  O  O15  1  0.22376700  0.27236800  0.71723400  1
loop_
_geom_bond_atom_site_label_1
_geom_bond_atom_site_label_2
_geom_bond_distance
_geom_bond_site_symmetry_2
Ag0 O10 2.406567 1_565
Ag0 O14 2.417807 1_555
Ag0 O4 2.474914 1_565
Ag0 O0 2.546319 1_555
Ag0 O5 2.589413 1_555
Ag0 O1 2.709014 1_555
Ag0 O8 2.797854 1_565
Ag1 O13 2.406567 1_545
Ag1 O9 2.417807 1_455
Ag1 O3 2.474914 1_545
Ag1 O8 2.546319 1_555
Ag1 O2 2.589413 1_454
Ag1 O6 2.709014 1_554
Ag1 O0 2.797854 1_445
Ag2 O2 2.406567 1_565
Ag2 O6 2.417807 1_655
Ag2 O12 2.474914 1_565
Ag2 O7 2.546319 1_555
Ag2 O13 2.589413 1_656
Ag2 O9 2.709014 1_556
Ag2 O15 2.797854 1_665
Ag3 O5 2.406567 1_545
Ag3 O1 2.417807 1_555
Ag3 O11 2.474914 1_545
Ag3 O15 2.546319 1_555
Ag3 O10 2.589413 1_555
Ag3 O14 2.709014 1_555
Ag3 O7 2.797854 1_545
Br0 O4 1.653539 1_556
Br0 O7 1.664056 1_555
Br0 O1 1.679556 1_555
Br0 O2 1.681593 1_555
Br1 O3 1.653539 1_555
Br1 O15 1.664056 1_555
Br1 O6 1.679556 1_555
Br1 O5 1.681593 1_555
Br2 O12 1.653539 1_555
Br2 O0 1.664056 1_555
Br2 O9 1.679556 1_555
Br2 O10 1.681593 1_555
Br3 O11 1.653539 1_554
Br3 O8 1.664056 1_555
Br3 O14 1.679556 1_555
Br3 O13 1.681593 1_555
