# generated using pymatgen
data_Li3V4(PO4)6
_symmetry_space_group_name_H-M   'P 1'
_cell_length_a   6.41112800
_cell_length_b   8.46987306
_cell_length_c   8.73883114
_cell_angle_alpha   91.82770488
_cell_angle_beta   107.14934325
_cell_angle_gamma   105.96505306
_symmetry_Int_Tables_number   1
_chemical_formula_structural   Li3V4(PO4)6
_chemical_formula_sum   'Li3 V4 P6 O24'
_cell_volume   432.63394040
_cell_formula_units_Z   1
loop_
 _symmetry_equiv_pos_site_id
 _symmetry_equiv_pos_as_xyz
  1  'x, y, z'
loop_
 _atom_site_type_symbol
 _atom_site_label
 _atom_site_symmetry_multiplicity
 _atom_site_fract_x
 _atom_site_fract_y
 _atom_site_fract_z
 _atom_site_occupancy
  Li  Li0  1  0.74961300  0.71703900  0.30023800  1
  Li  Li1  1  0.00000000  0.50000000  0.50000000  1
  Li  Li2  1  0.25038700  0.28296100  0.69976200  1
  V  V0  1  0.36907300  0.94479000  0.62135300  1
  V  V1  1  0.86764900  0.63073900  0.93985200  1
  V  V2  1  0.13235100  0.36926100  0.06014800  1
  V  V3  1  0.63092700  0.05521000  0.37864700  1
  P  P0  1  0.24868600  0.70836200  0.28474000  1
  P  P1  1  0.87865100  0.85936200  0.64952300  1
  P  P2  1  0.35392000  0.64695500  0.85033200  1
  P  P3  1  0.64608000  0.35304500  0.14966800  1
  P  P4  1  0.12134900  0.14063800  0.35047700  1
  P  P5  1  0.75131400  0.29163800  0.71526000  1
  O  O0  1  0.10345400  0.99663200  0.66264500  1
  O  O1  1  0.68218500  0.94785600  0.59227800  1
  O  O2  1  0.03042500  0.73281900  0.15876000  1
  O  O3  1  0.47081300  0.82645500  0.26780800  1
  O  O4  1  0.37822300  0.82388500  0.80074100  1
  O  O5  1  0.23186900  0.73315000  0.45469800  1
  O  O6  1  0.88424900  0.81433600  0.82269000  1
  O  O7  1  0.83020500  0.70947200  0.53391200  1
  O  O8  1  0.18193800  0.60411300  0.95323200  1
  O  O9  1  0.59077000  0.65085100  0.96970100  1
  O  O10  1  0.25345000  0.52740800  0.24691300  1
  O  O11  1  0.26568100  0.51788300  0.70610100  1
  O  O12  1  0.73431900  0.48211700  0.29389900  1
  O  O13  1  0.74655000  0.47259200  0.75308700  1
  O  O14  1  0.40923000  0.34914900  0.03029900  1
  O  O15  1  0.81806200  0.39588700  0.04676800  1
  O  O16  1  0.16979500  0.29052800  0.46608800  1
  O  O17  1  0.11575100  0.18566400  0.17731000  1
  O  O18  1  0.76813100  0.26685000  0.54530200  1
  O  O19  1  0.62177700  0.17611500  0.19925900  1
  O  O20  1  0.52918700  0.17354500  0.73219200  1
  O  O21  1  0.96957500  0.26718100  0.84124000  1
  O  O22  1  0.31781500  0.05214400  0.40772200  1
  O  O23  1  0.89654600  0.00336800  0.33735500  1
loop_
_geom_bond_atom_site_label_1
_geom_bond_atom_site_label_2
_geom_bond_distance
_geom_bond_site_symmetry_2
Li0 O7 1.960954 1_555
Li0 O12 1.963229 1_555
Li0 O3 2.182497 1_555
Li0 O23 2.320980 1_565
Li0 O2 2.445076 1_655
Li1 O11 2.049299 1_555
Li1 O12 2.049299 1_455
Li1 O18 2.246830 1_455
Li1 O5 2.246830 1_555
Li1 O7 2.374819 1_455
Li1 O16 2.374819 1_555
Li2 O16 1.960954 1_555
Li2 O11 1.963229 1_555
Li2 O20 2.182497 1_555
Li2 O0 2.320980 1_545
Li2 O21 2.445076 1_455
O0 P1 1.553816 1_455
O0 V0 1.996634 1_555
O1 P1 1.603197 1_555
O1 V3 2.081080 1_565
O1 V0 2.089838 1_555
O2 P0 1.574321 1_555
O2 V1 1.927953 1_454
O3 P0 1.549357 1_555
O3 V3 1.986395 1_565
O4 P2 1.552614 1_555
O4 V0 1.894950 1_555
O5 P0 1.532521 1_555
O5 V0 2.078135 1_555
O6 P1 1.564944 1_555
O6 V1 1.884822 1_555
O7 P1 1.498385 1_555
O8 P2 1.594186 1_555
O8 V1 2.058460 1_455
O8 V2 2.208314 1_556
O9 P2 1.559207 1_555
O9 V1 1.919539 1_555
O10 P0 1.568002 1_555
O10 V2 1.897885 1_555
O11 P2 1.501734 1_555
O12 P3 1.501734 1_555
O13 P5 1.568002 1_555
O13 V1 1.897885 1_555
O14 P3 1.559207 1_555
O14 V2 1.919539 1_555
O15 P3 1.594186 1_555
O15 V2 2.058460 1_655
O15 V1 2.208314 1_554
O16 P4 1.498385 1_555
O17 P4 1.564944 1_555
O17 V2 1.884822 1_555
O18 P5 1.532521 1_555
O18 V3 2.078135 1_555
O19 P3 1.552614 1_555
O19 V3 1.894950 1_555
O20 P5 1.549357 1_555
O20 V0 1.986395 1_545
O21 P5 1.574321 1_555
O21 V2 1.927953 1_656
O22 P4 1.603197 1_555
O22 V0 2.081080 1_545
O22 V3 2.089838 1_555
O23 P4 1.553816 1_655
O23 V3 1.996634 1_555
