# generated using pymatgen
data_LiMn2F5
_symmetry_space_group_name_H-M   'P 1'
_cell_length_a   6.73663164
_cell_length_b   6.73663164
_cell_length_c   5.49046767
_cell_angle_alpha   86.89265025
_cell_angle_beta   86.89265025
_cell_angle_gamma   45.53531936
_symmetry_Int_Tables_number   1
_chemical_formula_structural   LiMn2F5
_chemical_formula_sum   'Li2 Mn4 F10'
_cell_volume   177.52035629
_cell_formula_units_Z   2
loop_
 _symmetry_equiv_pos_site_id
 _symmetry_equiv_pos_as_xyz
  1  'x, y, z'
loop_
 _atom_site_type_symbol
 _atom_site_label
 _atom_site_symmetry_multiplicity
 _atom_site_fract_x
 _atom_site_fract_y
 _atom_site_fract_z
 _atom_site_occupancy
  Li  Li0  1  0.00000000  0.50000000  0.00000000  1
  Li  Li1  1  0.50000000  0.00000000  0.50000000  1
  Mn  Mn0  1  0.66562200  0.13227100  0.05150000  1
  Mn  Mn1  1  0.13227100  0.66562200  0.55150000  1
  Mn  Mn2  1  0.86772900  0.33437800  0.44850000  1
  Mn  Mn3  1  0.33437800  0.86772900  0.94850000  1
  F  F0  1  0.51626300  0.29456100  0.41054900  1
  F  F1  1  0.29456100  0.51626300  0.91054900  1
  F  F2  1  0.85640300  0.71654100  0.31910900  1
  F  F3  1  0.71654100  0.85640300  0.81910900  1
  F  F4  1  0.28345900  0.14359700  0.18089100  1
  F  F5  1  0.14359700  0.28345900  0.68089100  1
  F  F6  1  0.70543900  0.48373700  0.08945100  1
  F  F7  1  0.48373700  0.70543900  0.58945100  1
  F  F8  1  0.05344900  0.94655100  0.25000000  1
  F  F9  1  0.94655100  0.05344900  0.75000000  1
loop_
_geom_bond_atom_site_label_1
_geom_bond_atom_site_label_2
_geom_bond_distance
_geom_bond_site_symmetry_2
F0 Li1 2.093783 1_555
F0 Mn1 2.114915 1_555
F0 Mn0 2.138085 1_555
F0 Mn2 2.582756 1_555
F1 Li0 2.093783 1_556
F1 Mn0 2.114915 1_556
F1 Mn1 2.138085 1_555
F1 Mn3 2.582756 1_555
F2 Li1 1.980281 1_565
F2 Li0 2.061523 1_655
F2 Mn1 2.125078 1_655
F2 Mn0 2.523916 1_565
F2 Mn2 2.582813 1_555
F3 Li0 1.980281 1_656
F3 Li1 2.061523 1_565
F3 Mn0 2.125078 1_566
F3 Mn1 2.523916 1_655
F3 Mn3 2.582813 1_555
F4 Li0 1.980281 1_555
F4 Li1 2.061523 1_555
F4 Mn3 2.125078 1_544
F4 Mn2 2.523916 1_455
F4 Mn0 2.582813 1_555
F5 Li1 1.980281 1_555
F5 Li0 2.061523 1_556
F5 Mn2 2.125078 1_455
F5 Mn3 2.523916 1_545
F5 Mn1 2.582813 1_555
F6 Li0 2.093783 1_655
F6 Mn3 2.114915 1_554
F6 Mn2 2.138085 1_555
F6 Mn0 2.582756 1_555
F7 Li1 2.093783 1_565
F7 Mn2 2.114915 1_555
F7 Mn3 2.138085 1_555
F7 Mn1 2.582756 1_555
F8 Mn1 2.225234 1_555
F8 Mn3 2.225234 1_554
F8 Mn0 2.271692 1_465
F8 Mn2 2.271692 1_465
F9 Mn0 2.225234 1_556
F9 Mn2 2.225234 1_555
F9 Mn1 2.271692 1_645
F9 Mn3 2.271692 1_645
