# generated using pymatgen
data_Mn6O5F7
_symmetry_space_group_name_H-M   'P 1'
_cell_length_a   4.73206500
_cell_length_b   5.72297068
_cell_length_c   15.57540982
_cell_angle_alpha   90.05413560
_cell_angle_beta   90.65870551
_cell_angle_gamma   91.60871627
_symmetry_Int_Tables_number   1
_chemical_formula_structural   Mn6O5F7
_chemical_formula_sum   'Mn12 O10 F14'
_cell_volume   421.61052691
_cell_formula_units_Z   2
loop_
 _symmetry_equiv_pos_site_id
 _symmetry_equiv_pos_as_xyz
  1  'x, y, z'
loop_
 _atom_site_type_symbol
 _atom_site_label
 _atom_site_symmetry_multiplicity
 _atom_site_fract_x
 _atom_site_fract_y
 _atom_site_fract_z
 _atom_site_occupancy
  Mn  Mn0  1  0.99479900  0.84936800  0.59003700  1
  Mn  Mn1  1  0.02289800  0.14326700  0.75660400  1
  Mn  Mn2  1  0.01642700  0.81805200  0.91377100  1
  Mn  Mn3  1  0.05285100  0.84572400  0.25063900  1
  Mn  Mn4  1  0.03953000  0.15680600  0.41800400  1
  Mn  Mn5  1  0.00323700  0.15920400  0.08671300  1
  Mn  Mn6  1  0.48388100  0.66253300  0.41099100  1
  Mn  Mn7  1  0.51086700  0.65025400  0.08111500  1
  Mn  Mn8  1  0.48218300  0.66439200  0.74412300  1
  Mn  Mn9  1  0.49363400  0.35648000  0.91067100  1
  Mn  Mn10  1  0.49637400  0.34669600  0.58185100  1
  Mn  Mn11  1  0.47112800  0.35133200  0.25113500  1
  O  O0  1  0.20915900  0.89551700  0.69807700  1
  O  O1  1  0.23042400  0.89014300  0.35968300  1
  O  O2  1  0.22148800  0.10893000  0.86367800  1
  O  O3  1  0.22596000  0.10775900  0.53204500  1
  O  O4  1  0.23013400  0.11699600  0.19871000  1
  O  O5  1  0.28418700  0.59904200  0.85077500  1
  O  O6  1  0.28608200  0.39418600  0.35577100  1
  O  O7  1  0.29731000  0.61529200  0.19099000  1
  O  O8  1  0.72281900  0.60724100  0.97302400  1
  O  O9  1  0.69976600  0.62948900  0.63789500  1
  F  F0  1  0.23297400  0.88645300  0.02976400  1
  F  F1  1  0.25290500  0.39220900  0.68911900  1
  F  F2  1  0.24715300  0.60116800  0.52387800  1
  F  F3  1  0.25785000  0.39544700  0.02637700  1
  F  F4  1  0.75223600  0.37823400  0.79913800  1
  F  F5  1  0.73606600  0.39087400  0.46903500  1
  F  F6  1  0.71232500  0.36684500  0.14485100  1
  F  F7  1  0.76057400  0.61615200  0.29992900  1
  F  F8  1  0.74734900  0.87910000  0.80919600  1
  F  F9  1  0.76137200  0.88455500  0.47547200  1
  F  F10  1  0.76198100  0.13198700  0.65033800  1
  F  F11  1  0.74622900  0.11896000  0.97450200  1
  F  F12  1  0.79090500  0.86581400  0.14425800  1
  F  F13  1  0.76494000  0.12350100  0.30784300  1
loop_
_geom_bond_atom_site_label_1
_geom_bond_atom_site_label_2
_geom_bond_distance
_geom_bond_site_symmetry_2
Mn0 O0 1.968570 1_655
Mn0 O9 2.003822 1_555
Mn0 O3 2.033118 1_665
Mn1 O2 1.917805 1_555
Mn1 O0 1.924679 1_545
Mn2 O8 2.043308 1_455
Mn2 O2 2.061720 1_565
Mn2 O5 2.062663 1_555
Mn3 O1 1.899911 1_555
Mn3 O4 1.926917 1_565
Mn3 O7 2.012086 1_555
Mn4 O3 1.997722 1_555
Mn4 O1 2.015882 1_545
Mn4 O6 2.021339 1_555
Mn5 O4 2.055817 1_555
Mn6 O1 1.959990 1_555
Mn6 O6 1.967894 1_555
Mn7 O8 1.988172 1_554
Mn7 O7 2.004756 1_555
Mn8 O5 1.947925 1_555
Mn8 O9 1.971705 1_555
Mn8 O0 2.002390 1_555
Mn9 O5 1.959105 1_555
Mn9 O8 2.016092 1_555
Mn9 O2 2.018717 1_555
Mn10 O3 1.996495 1_555
Mn10 O9 2.048934 1_555
Mn11 O6 1.878059 1_555
Mn11 O4 1.912183 1_555
Mn11 O7 1.972521 1_555
F0 Mn7 2.067333 1_555
F0 Mn2 2.097807 1_554
F0 Mn5 2.126033 1_565
F1 Mn8 2.053952 1_555
F1 Mn10 2.060794 1_555
F1 Mn1 2.064282 1_555
F2 Mn10 2.097973 1_555
F2 Mn6 2.119919 1_555
F2 Mn0 2.150875 1_455
F3 Mn5 2.024773 1_555
F3 Mn7 2.040351 1_555
F3 Mn9 2.145198 1_554
F4 Mn1 2.000520 1_655
F4 Mn9 2.138105 1_555
F4 Mn8 2.268094 1_555
F5 Mn10 2.113901 1_555
F5 Mn4 2.149547 1_655
F5 Mn6 2.177274 1_555
F6 Mn11 2.022133 1_555
F6 Mn5 2.060493 1_655
F6 Mn7 2.143147 1_555
F7 Mn3 2.037824 1_655
F7 Mn11 2.146589 1_555
F7 Mn6 2.201785 1_555
F8 Mn8 1.998361 1_555
F8 Mn2 2.091577 1_655
F8 Mn1 2.138459 1_665
F9 Mn6 2.054501 1_555
F9 Mn0 2.100618 1_555
F9 Mn4 2.208151 1_665
F10 Mn1 2.053389 1_655
F10 Mn10 2.070229 1_555
F10 Mn0 2.198387 1_545
F11 Mn9 2.081193 1_555
F11 Mn5 2.126345 1_656
F11 Mn2 2.375604 1_645
F12 Mn7 2.030050 1_555
F12 Mn3 2.063066 1_655
F12 Mn5 2.135642 1_665
F13 Mn11 2.118720 1_555
F13 Mn4 2.145438 1_655
F13 Mn3 2.307385 1_645
