# generated using pymatgen
data_Li3MnAsCO7
_symmetry_space_group_name_H-M   'P 1'
_cell_length_a   8.52524312
_cell_length_b   8.52614057
_cell_length_c   9.86513925
_cell_angle_alpha   106.60195366
_cell_angle_beta   106.59576022
_cell_angle_gamma   106.58819202
_symmetry_Int_Tables_number   1
_chemical_formula_structural   Li3MnAsCO7
_chemical_formula_sum   'Li12 Mn4 As4 C4 O28'
_cell_volume   603.65544391
_cell_formula_units_Z   4
loop_
 _symmetry_equiv_pos_site_id
 _symmetry_equiv_pos_as_xyz
  1  'x, y, z'
loop_
 _atom_site_type_symbol
 _atom_site_label
 _atom_site_symmetry_multiplicity
 _atom_site_fract_x
 _atom_site_fract_y
 _atom_site_fract_z
 _atom_site_occupancy
  Li  Li0  1  0.53655500  0.28657400  0.07911500  1
  Li  Li1  1  0.03654700  0.78650700  0.07907100  1
  Li  Li2  1  0.96347000  0.21349000  0.92091200  1
  Li  Li3  1  0.46343100  0.71341200  0.92087800  1
  Li  Li4  1  0.26852800  0.23146600  0.27639300  1
  Li  Li5  1  0.76863600  0.73136700  0.27645600  1
  Li  Li6  1  0.48143200  0.01866200  0.27638100  1
  Li  Li7  1  0.98148200  0.51854300  0.27640300  1
  Li  Li8  1  0.01859400  0.48148200  0.72369800  1
  Li  Li9  1  0.51851900  0.98133500  0.72359000  1
  Li  Li10  1  0.23139700  0.26860300  0.72363400  1
  Li  Li11  1  0.73146300  0.76857600  0.72359200  1
  Mn  Mn0  1  0.42487100  0.67489800  0.32558000  1
  Mn  Mn1  1  0.07525300  0.82524900  0.67443000  1
  Mn  Mn2  1  0.92450700  0.17449700  0.32557700  1
  Mn  Mn3  1  0.57512200  0.32512100  0.67402300  1
  As  As0  1  0.68821800  0.43823500  0.41588800  1
  As  As1  1  0.18816000  0.93816000  0.41581200  1
  As  As2  1  0.81183900  0.06184300  0.58416200  1
  As  As3  1  0.31180500  0.56179900  0.58417700  1
  C  C0  1  0.74206200  0.99207000  0.02084300  1
  C  C1  1  0.24212800  0.49214300  0.02098800  1
  C  C2  1  0.75792100  0.50788200  0.97910800  1
  C  C3  1  0.25792000  0.00793100  0.97908100  1
  O  O0  1  0.35746000  0.10756800  0.12479100  1
  O  O1  1  0.85755600  0.60749000  0.12486100  1
  O  O2  1  0.14250800  0.39250200  0.87528200  1
  O  O3  1  0.64250700  0.89245000  0.87510800  1
  O  O4  1  0.88370800  0.13371300  0.06539600  1
  O  O5  1  0.38381300  0.63375200  0.06550200  1
  O  O6  1  0.61628000  0.36628600  0.93463200  1
  O  O7  1  0.11626100  0.86629800  0.93454000  1
  O  O8  1  0.69567400  0.94576200  0.12316400  1
  O  O9  1  0.19588900  0.44599100  0.12340400  1
  O  O10  1  0.80425300  0.55416500  0.87677100  1
  O  O11  1  0.30420500  0.05410700  0.87669300  1
  O  O12  1  0.52670400  0.27673900  0.43318500  1
  O  O13  1  0.02677500  0.77666100  0.43323800  1
  O  O14  1  0.97326300  0.22334000  0.56670600  1
  O  O15  1  0.47324000  0.72323900  0.56674800  1
  O  O16  1  0.66933400  0.91930600  0.39640900  1
  O  O17  1  0.16924900  0.41919200  0.39640600  1
  O  O18  1  0.83073600  0.58075800  0.60365600  1
  O  O19  1  0.33069200  0.08075600  0.60359000  1
  O  O20  1  0.59208300  0.53484300  0.30385200  1
  O  O21  1  0.09207200  0.03478900  0.30370200  1
  O  O22  1  0.78478200  0.34208000  0.30374800  1
  O  O23  1  0.28496200  0.84228700  0.30378000  1
  O  O24  1  0.71513200  0.15782700  0.69624200  1
  O  O25  1  0.21514000  0.65784000  0.69628000  1
  O  O26  1  0.90795500  0.96521900  0.69621900  1
  O  O27  1  0.40790300  0.46519000  0.69630200  1
loop_
_geom_bond_atom_site_label_1
_geom_bond_atom_site_label_2
_geom_bond_distance
_geom_bond_site_symmetry_2
Li0 O6 1.949020 1_554
Li0 O0 2.078236 1_555
Li0 O11 2.253189 1_554
Li0 O22 2.400644 1_555
Li0 O20 2.401400 1_555
Li1 O7 1.949726 1_554
Li1 O1 2.078487 1_455
Li1 O10 2.252148 1_454
Li1 O21 2.400828 1_565
Li1 O23 2.401263 1_555
Li2 O4 1.949427 1_556
Li2 O2 2.077692 1_655
Li2 O9 2.253783 1_656
Li2 O24 2.400974 1_555
Li2 O26 2.401178 1_545
Li3 O5 1.949693 1_556
Li3 O3 2.078892 1_555
Li3 O8 2.251957 1_556
Li3 O27 2.400199 1_555
Li3 O25 2.400559 1_555
Li4 O0 2.032165 1_555
Li4 O21 2.048628 1_555
Li4 O12 2.148238 1_555
Li4 O17 2.223279 1_555
Li5 O1 2.031968 1_555
Li5 O20 2.048724 1_555
Li5 O13 2.147902 1_655
Li5 O16 2.224395 1_555
Li6 O0 2.032334 1_555
Li6 O23 2.047595 1_545
Li6 O12 2.147693 1_555
Li6 O16 2.224930 1_545
Li7 O1 2.032098 1_555
Li7 O22 2.048960 1_555
Li7 O13 2.148019 1_655
Li7 O17 2.224013 1_655
Li8 O2 2.032548 1_555
Li8 O25 2.048043 1_555
Li8 O14 2.148656 1_455
Li8 O18 2.224233 1_455
Li9 O3 2.031767 1_555
Li9 O24 2.048630 1_565
Li9 O15 2.147939 1_555
Li9 O19 2.224787 1_565
Li10 O2 2.032215 1_555
Li10 O27 2.048492 1_555
Li10 O14 2.148495 1_455
Li10 O19 2.224211 1_555
Li11 O3 2.031641 1_555
Li11 O26 2.048969 1_555
Li11 O15 2.148564 1_555
Li11 O18 2.223441 1_555
Mn0 O20 2.122320 1_555
Mn0 O23 2.122877 1_555
Mn0 O15 2.186889 1_555
Mn0 O9 2.230241 1_555
Mn0 O16 2.242881 1_555
Mn0 O5 2.393943 1_555
Mn1 O26 2.122505 1_455
Mn1 O25 2.122954 1_555
Mn1 O13 2.186587 1_555
Mn1 O11 2.230331 1_565
Mn1 O18 2.243672 1_455
Mn1 O7 2.394508 1_555
Mn2 O21 2.122961 1_655
Mn2 O22 2.123204 1_555
Mn2 O14 2.185182 1_555
Mn2 O8 2.230153 1_545
Mn2 O17 2.245655 1_655
Mn2 O4 2.396016 1_555
Mn3 O27 2.123183 1_555
Mn3 O24 2.123356 1_555
Mn3 O12 2.183563 1_555
Mn3 O10 2.233371 1_555
Mn3 O19 2.243368 1_555
Mn3 O6 2.398915 1_555
As0 O20 1.720465 1_555
As0 O22 1.720757 1_555
As0 O18 1.723129 1_555
As0 O12 1.734062 1_555
As1 O23 1.720660 1_555
As1 O21 1.720905 1_565
As1 O19 1.723341 1_565
As1 O13 1.734126 1_555
As2 O26 1.720637 1_545
As2 O24 1.720724 1_555
As2 O16 1.723031 1_545
As2 O14 1.734477 1_555
As3 O25 1.720792 1_555
As3 O27 1.720901 1_555
As3 O17 1.723353 1_555
As3 O15 1.734096 1_555
C0 O4 1.292544 1_565
C0 O8 1.303003 1_555
C0 O3 1.304719 1_554
C1 O5 1.292643 1_555
C1 O9 1.302754 1_555
C1 O2 1.304621 1_554
C2 O6 1.292439 1_555
C2 O10 1.302851 1_555
C2 O1 1.304936 1_556
C3 O7 1.292582 1_545
C3 O11 1.302753 1_555
C3 O0 1.304542 1_556
