# generated using pymatgen
data_Fe14O15
_symmetry_space_group_name_H-M   'P 1'
_cell_length_a   8.10614207
_cell_length_b   8.10614207
_cell_length_c   8.10614207
_cell_angle_alpha   129.82779739
_cell_angle_beta   129.82779739
_cell_angle_gamma   73.68220919
_symmetry_Int_Tables_number   1
_chemical_formula_structural   Fe14O15
_chemical_formula_sum   'Fe14 O15'
_cell_volume   306.51124898
_cell_formula_units_Z   1
loop_
 _symmetry_equiv_pos_site_id
 _symmetry_equiv_pos_as_xyz
  1  'x, y, z'
loop_
 _atom_site_type_symbol
 _atom_site_label
 _atom_site_symmetry_multiplicity
 _atom_site_fract_x
 _atom_site_fract_y
 _atom_site_fract_z
 _atom_site_occupancy
  Fe  Fe0  1  0.80121400  0.38525200  0.18646600  1
  Fe  Fe1  1  0.61474800  0.80121400  0.41596200  1
  Fe  Fe2  1  0.19878600  0.61474800  0.81353400  1
  Fe  Fe3  1  0.38525200  0.19878600  0.58403800  1
  Fe  Fe4  1  0.54137600  0.92964600  0.80250000  1
  Fe  Fe5  1  0.33753800  0.33753800  0.00000000  1
  Fe  Fe6  1  0.92964600  0.12714600  0.38826900  1
  Fe  Fe7  1  0.73887600  0.54137600  0.61173100  1
  Fe  Fe8  1  0.12714600  0.73887600  0.19750000  1
  Fe  Fe9  1  0.07035400  0.87285400  0.61173100  1
  Fe  Fe10  1  0.66246200  0.66246200  0.00000000  1
  Fe  Fe11  1  0.26112400  0.45862400  0.38826900  1
  Fe  Fe12  1  0.87285400  0.26112400  0.80250000  1
  Fe  Fe13  1  0.45862400  0.07035400  0.19750000  1
  O  O0  1  0.50000000  0.50000000  0.00000000  1
  O  O1  1  0.67638700  0.11170100  0.78808800  1
  O  O2  1  0.88829900  0.67638700  0.56468700  1
  O  O3  1  0.11170100  0.32361300  0.43531300  1
  O  O4  1  0.32361300  0.88829900  0.21191200  1
  O  O5  1  0.81831200  0.81831200  0.00000000  1
  O  O6  1  0.63219200  0.24087000  0.20202700  1
  O  O7  1  0.24087000  0.03884300  0.60867800  1
  O  O8  1  0.43016500  0.63219200  0.39132200  1
  O  O9  1  0.03884300  0.43016500  0.79797300  1
  O  O10  1  0.56983500  0.36780800  0.60867800  1
  O  O11  1  0.75913000  0.96115700  0.39132200  1
  O  O12  1  0.36780800  0.75913000  0.79797300  1
  O  O13  1  0.18168800  0.18168800  0.00000000  1
  O  O14  1  0.96115700  0.56983500  0.20202700  1
loop_
_geom_bond_atom_site_label_1
_geom_bond_atom_site_label_2
_geom_bond_distance
_geom_bond_site_symmetry_2
Fe0 O1 2.066818 1_554
Fe0 O2 2.088782 1_555
Fe0 O6 2.138809 1_555
Fe0 O14 2.138809 1_555
Fe0 O3 2.175835 1_655
Fe0 O0 2.215597 1_555
Fe1 O2 2.066819 1_555
Fe1 O4 2.088778 1_555
Fe1 O8 2.138809 1_555
Fe1 O11 2.138809 1_555
Fe1 O1 2.175838 1_565
Fe1 O0 2.215597 1_555
Fe2 O4 2.066818 1_556
Fe2 O3 2.088782 1_555
Fe2 O9 2.138809 1_555
Fe2 O12 2.138809 1_555
Fe2 O2 2.175835 1_455
Fe2 O0 2.215597 1_556
Fe3 O3 2.066819 1_555
Fe3 O1 2.088778 1_555
Fe3 O10 2.138809 1_555
Fe3 O7 2.138809 1_555
Fe3 O4 2.175838 1_545
Fe3 O0 2.215597 1_556
Fe4 O5 2.127360 1_556
Fe4 O1 2.163673 1_565
Fe4 O8 2.194013 1_555
Fe4 O7 2.202984 1_565
Fe4 O12 2.202987 1_555
Fe4 O6 2.217829 1_566
Fe5 O13 2.022109 1_555
Fe5 O0 2.107898 1_555
Fe5 O9 2.140668 1_554
Fe5 O7 2.140668 1_554
Fe5 O6 2.140668 1_555
Fe5 O8 2.140668 1_555
Fe6 O5 2.127356 1_545
Fe6 O3 2.163673 1_655
Fe6 O6 2.194011 1_555
Fe6 O9 2.202988 1_655
Fe6 O11 2.202994 1_545
Fe6 O7 2.217831 1_655
Fe7 O5 2.127355 1_556
Fe7 O2 2.163673 1_555
Fe7 O9 2.194011 1_655
Fe7 O10 2.202981 1_555
Fe7 O6 2.202988 1_555
Fe7 O8 2.217831 1_555
Fe8 O5 2.127360 1_455
Fe8 O4 2.163673 1_555
Fe8 O7 2.194013 1_565
Fe8 O8 2.202984 1_555
Fe8 O14 2.202987 1_455
Fe8 O9 2.217829 1_554
Fe9 O13 2.127356 1_566
Fe9 O2 2.163673 1_455
Fe9 O12 2.194011 1_555
Fe9 O14 2.202988 1_455
Fe9 O7 2.202994 1_565
Fe9 O11 2.217831 1_455
Fe10 O5 2.022109 1_555
Fe10 O0 2.107898 1_555
Fe10 O12 2.140668 1_554
Fe10 O10 2.140668 1_554
Fe10 O14 2.140668 1_555
Fe10 O11 2.140668 1_555
Fe11 O13 2.127355 1_555
Fe11 O3 2.163673 1_555
Fe11 O14 2.194011 1_455
Fe11 O8 2.202981 1_555
Fe11 O12 2.202988 1_555
Fe11 O10 2.217831 1_555
Fe12 O13 2.127360 1_656
Fe12 O1 2.163673 1_555
Fe12 O11 2.194013 1_545
Fe12 O10 2.202984 1_555
Fe12 O9 2.202987 1_655
Fe12 O14 2.217829 1_556
Fe13 O13 2.127360 1_555
Fe13 O4 2.163673 1_545
Fe13 O10 2.194013 1_555
Fe13 O11 2.202984 1_545
Fe13 O6 2.202987 1_555
Fe13 O12 2.217829 1_544
