# generated using pymatgen
data_HC5N3(OF4)2
_symmetry_space_group_name_H-M   'P 1'
_cell_length_a   6.83530300
_cell_length_b   10.43171600
_cell_length_c   14.07339059
_cell_angle_alpha   75.45075041
_cell_angle_beta   90.00000000
_cell_angle_gamma   90.00000000
_symmetry_Int_Tables_number   1
_chemical_formula_structural   HC5N3(OF4)2
_chemical_formula_sum   'H4 C20 N12 O8 F32'
_cell_volume   971.30839832
_cell_formula_units_Z   4
loop_
 _symmetry_equiv_pos_site_id
 _symmetry_equiv_pos_as_xyz
  1  'x, y, z'
loop_
 _atom_site_type_symbol
 _atom_site_label
 _atom_site_symmetry_multiplicity
 _atom_site_fract_x
 _atom_site_fract_y
 _atom_site_fract_z
 _atom_site_occupancy
  H  H0  1  0.38291600  0.00111600  0.08184700  1
  H  H1  1  0.88291600  0.99888400  0.41815300  1
  H  H2  1  0.61708400  0.99888400  0.91815300  1
  H  H3  1  0.11708400  0.00111600  0.58184700  1
  C  C0  1  0.55599300  0.29460100  0.17978900  1
  C  C1  1  0.05599300  0.70539900  0.32021100  1
  C  C2  1  0.44400700  0.70539900  0.82021100  1
  C  C3  1  0.94400700  0.29460100  0.67978900  1
  C  C4  1  0.33300500  0.09881000  0.19018800  1
  C  C5  1  0.83300500  0.90119000  0.30981200  1
  C  C6  1  0.66699500  0.90119000  0.80981200  1
  C  C7  1  0.16699500  0.09881000  0.69018800  1
  C  C8  1  0.58041900  0.15180600  0.05971000  1
  C  C9  1  0.08041900  0.84819400  0.44029000  1
  C  C10  1  0.41958100  0.84819400  0.94029000  1
  C  C11  1  0.91958100  0.15180600  0.55971000  1
  C  C12  1  0.81718100  0.32842600  0.05171500  1
  C  C13  1  0.31718100  0.67157400  0.44828500  1
  C  C14  1  0.18281900  0.67157400  0.94828500  1
  C  C15  1  0.68281900  0.32842600  0.55171500  1
  C  C16  1  0.29950600  0.23100900  0.30904200  1
  C  C17  1  0.79950600  0.76899100  0.19095800  1
  C  C18  1  0.70049400  0.76899100  0.69095800  1
  C  C19  1  0.20049400  0.23100900  0.80904200  1
  N  N0  1  0.64592300  0.25568600  0.09857000  1
  N  N1  1  0.14592300  0.74431400  0.40143000  1
  N  N2  1  0.35407700  0.74431400  0.90143000  1
  N  N3  1  0.85407700  0.25568600  0.59857000  1
  N  N4  1  0.39359300  0.21131400  0.22080200  1
  N  N5  1  0.89359300  0.78868600  0.27919800  1
  N  N6  1  0.60640700  0.78868600  0.77919800  1
  N  N7  1  0.10640700  0.21131400  0.72080200  1
  N  N8  1  0.42161700  0.08349300  0.10588000  1
  N  N9  1  0.92161700  0.91650700  0.39412000  1
  N  N10  1  0.57838300  0.91650700  0.89412000  1
  N  N11  1  0.07838300  0.08349300  0.60588000  1
  O  O0  1  0.66152800  0.12541900  0.98903000  1
  O  O1  1  0.16152800  0.87458100  0.51097000  1
  O  O2  1  0.33847200  0.87458100  0.01097000  1
  O  O3  1  0.83847200  0.12541900  0.48903000  1
  O  O4  1  0.20788400  0.02322500  0.23365300  1
  O  O5  1  0.70788400  0.97677500  0.26634700  1
  O  O6  1  0.79211600  0.97677500  0.76634700  1
  O  O7  1  0.29211600  0.02322500  0.73365300  1
  F  F0  1  0.69219400  0.29391400  0.25164900  1
  F  F1  1  0.19219400  0.70608600  0.24835100  1
  F  F2  1  0.30780600  0.70608600  0.74835100  1
  F  F3  1  0.80780600  0.29391400  0.75164900  1
  F  F4  1  0.49362200  0.42447200  0.14806500  1
  F  F5  1  0.99362200  0.57552800  0.35193500  1
  F  F6  1  0.50637800  0.57552800  0.85193500  1
  F  F7  1  0.00637800  0.42447200  0.64806500  1
  F  F8  1  0.35929700  0.34494900  0.32825400  1
  F  F9  1  0.85929700  0.65505100  0.17174600  1
  F  F10  1  0.64070300  0.65505100  0.67174600  1
  F  F11  1  0.14070300  0.34494900  0.82825400  1
  F  F12  1  0.10292100  0.23777100  0.29780800  1
  F  F13  1  0.60292100  0.76222900  0.20219200  1
  F  F14  1  0.89707900  0.76222900  0.70219200  1
  F  F15  1  0.39707900  0.23777100  0.79780800  1
  F  F16  1  0.34131000  0.13041800  0.38832700  1
  F  F17  1  0.84131000  0.86958200  0.11167300  1
  F  F18  1  0.65869000  0.86958200  0.61167300  1
  F  F19  1  0.15869000  0.13041800  0.88832700  1
  F  F20  1  0.97524700  0.24770700  0.06000800  1
  F  F21  1  0.47524700  0.75229300  0.43999200  1
  F  F22  1  0.02475300  0.75229300  0.93999200  1
  F  F23  1  0.52475300  0.24770700  0.56000800  1
  F  F24  1  0.86236600  0.42682800  0.09424800  1
  F  F25  1  0.36236600  0.57317200  0.40575200  1
  F  F26  1  0.13763400  0.57317200  0.90575200  1
  F  F27  1  0.63763400  0.42682800  0.59424800  1
  F  F28  1  0.78479100  0.38377000  0.95557500  1
  F  F29  1  0.28479100  0.61623000  0.54442500  1
  F  F30  1  0.21520900  0.61623000  0.04442500  1
  F  F31  1  0.71520900  0.38377000  0.45557500  1
loop_
_geom_bond_atom_site_label_1
_geom_bond_atom_site_label_2
_geom_bond_distance
_geom_bond_site_symmetry_2
H0 N8 1.033856 1_555
H1 N9 1.033856 1_555
H2 N10 1.033856 1_555
H3 N11 1.033856 1_555
C0 F0 1.373274 1_555
C0 F4 1.382971 1_555
C0 N4 1.438149 1_555
C0 N0 1.443015 1_555
C1 F1 1.373274 1_555
C1 F5 1.382971 1_455
C1 N5 1.438149 1_455
C1 N1 1.443015 1_555
C2 F2 1.373274 1_555
C2 F6 1.382971 1_555
C2 N6 1.438149 1_555
C2 N2 1.443015 1_555
C3 F3 1.373274 1_555
C3 F7 1.382971 1_655
C3 N7 1.438149 1_655
C3 N3 1.443015 1_555
C4 O4 1.218601 1_555
C4 N8 1.376743 1_555
C4 N4 1.410157 1_555
C5 O5 1.218601 1_555
C5 N9 1.376743 1_555
C5 N5 1.410157 1_555
C6 O6 1.218601 1_555
C6 N10 1.376743 1_555
C6 N6 1.410157 1_555
C7 O7 1.218601 1_555
C7 N11 1.376743 1_555
C7 N7 1.410157 1_555
C8 O0 1.228878 1_554
C8 N8 1.369529 1_555
C8 N0 1.404139 1_555
C9 O1 1.228878 1_555
C9 N9 1.369529 1_455
C9 N1 1.404139 1_555
C10 O2 1.228878 1_556
C10 N10 1.369529 1_555
C10 N2 1.404139 1_555
C11 O3 1.228878 1_555
C11 N11 1.369529 1_655
C11 N3 1.404139 1_555
C12 F24 1.347632 1_555
C12 F28 1.349265 1_554
C12 F20 1.356687 1_555
C12 N0 1.459285 1_555
C13 F25 1.347632 1_555
C13 F29 1.349265 1_555
C13 F21 1.356687 1_555
C13 N1 1.459285 1_555
C14 F26 1.347632 1_555
C14 F30 1.349265 1_556
C14 F22 1.356687 1_555
C14 N2 1.459285 1_555
C15 F27 1.347632 1_555
C15 F31 1.349265 1_555
C15 F23 1.356687 1_555
C15 N3 1.459285 1_555
C16 F8 1.346974 1_555
C16 F12 1.352755 1_555
C16 F16 1.356288 1_555
C16 N4 1.458132 1_555
C17 F9 1.346974 1_555
C17 F13 1.352755 1_555
C17 F17 1.356288 1_555
C17 N5 1.458132 1_555
C18 F10 1.346974 1_555
C18 F14 1.352755 1_555
C18 F18 1.356288 1_555
C18 N6 1.458132 1_555
C19 F11 1.346974 1_555
C19 F15 1.352755 1_555
C19 F19 1.356288 1_555
C19 N7 1.458132 1_555
