# generated using pymatgen
data_LiCrPO5
_symmetry_space_group_name_H-M   'P 1'
_cell_length_a   7.13355837
_cell_length_b   7.13355837
_cell_length_c   10.52031521
_cell_angle_alpha   69.73380061
_cell_angle_beta   69.73380061
_cell_angle_gamma   43.17441423
_symmetry_Int_Tables_number   1
_chemical_formula_structural   LiCrPO5
_chemical_formula_sum   'Li4 Cr4 P4 O20'
_cell_volume   339.93739834
_cell_formula_units_Z   4
loop_
 _symmetry_equiv_pos_site_id
 _symmetry_equiv_pos_as_xyz
  1  'x, y, z'
loop_
 _atom_site_type_symbol
 _atom_site_label
 _atom_site_symmetry_multiplicity
 _atom_site_fract_x
 _atom_site_fract_y
 _atom_site_fract_z
 _atom_site_occupancy
  Li  Li0  1  0.99640600  0.00359400  0.75000000  1
  Li  Li1  1  0.00000000  0.50000000  0.00000000  1
  Li  Li2  1  0.00359400  0.99640600  0.25000000  1
  Li  Li3  1  0.50000000  0.00000000  0.50000000  1
  Cr  Cr0  1  0.50000000  0.00000000  0.00000000  1
  Cr  Cr1  1  0.00000000  0.00000000  0.00000000  1
  Cr  Cr2  1  0.00000000  0.00000000  0.50000000  1
  Cr  Cr3  1  0.00000000  0.50000000  0.50000000  1
  P  P0  1  0.62424400  0.62543600  0.81389200  1
  P  P1  1  0.37575600  0.37456400  0.18610800  1
  P  P2  1  0.62543600  0.62424400  0.31389200  1
  P  P3  1  0.37456400  0.37575600  0.68610800  1
  O  O0  1  0.32003600  0.31405900  0.84301400  1
  O  O1  1  0.69642700  0.71328700  0.88981800  1
  O  O2  1  0.31412000  0.78471600  0.85241900  1
  O  O3  1  0.81525400  0.30830700  0.85205800  1
  O  O4  1  0.17629200  0.07811300  0.03337200  1
  O  O5  1  0.82370800  0.92188700  0.96662800  1
  O  O6  1  0.67996400  0.68594100  0.15698600  1
  O  O7  1  0.30357300  0.28671300  0.11018200  1
  O  O8  1  0.78471600  0.31412000  0.35241900  1
  O  O9  1  0.68588000  0.21528400  0.14758100  1
  O  O10  1  0.30830700  0.81525400  0.35205800  1
  O  O11  1  0.18474600  0.69169300  0.14794200  1
  O  O12  1  0.31405900  0.32003600  0.34301400  1
  O  O13  1  0.71328700  0.69642700  0.38981800  1
  O  O14  1  0.21528400  0.68588000  0.64758100  1
  O  O15  1  0.92188700  0.82370800  0.46662800  1
  O  O16  1  0.07811300  0.17629200  0.53337200  1
  O  O17  1  0.69169300  0.18474600  0.64794200  1
  O  O18  1  0.68594100  0.67996400  0.65698600  1
  O  O19  1  0.28671300  0.30357300  0.61018200  1
loop_
_geom_bond_atom_site_label_1
_geom_bond_atom_site_label_2
_geom_bond_distance
_geom_bond_site_symmetry_2
Li0 O2 2.024946 1_645
Li0 O14 2.024946 1_645
Li0 O17 2.026388 1_555
Li0 O3 2.026388 1_555
Li0 O5 2.287647 1_545
Li0 O16 2.287647 1_655
Li1 O7 2.014858 1_555
Li1 O1 2.014858 1_454
Li1 O6 2.046414 1_455
Li1 O0 2.046414 1_554
Li1 O5 2.194496 1_454
Li1 O4 2.194496 1_555
Li2 O9 2.024946 1_465
Li2 O8 2.024946 1_465
Li2 O11 2.026388 1_555
Li2 O10 2.026388 1_555
Li2 O15 2.287647 1_455
Li2 O4 2.287647 1_565
Li3 O19 2.014858 1_555
Li3 O13 2.014858 1_545
Li3 O18 2.046414 1_545
Li3 O12 2.046414 1_555
Li3 O15 2.194496 1_545
Li3 O16 2.194496 1_555
Cr0 O5 1.860978 1_544
Cr0 O4 1.860978 1_555
Cr0 O7 1.956369 1_555
Cr0 O1 1.956369 1_544
Cr0 O6 2.026196 1_545
Cr0 O0 2.026196 1_554
Cr1 O4 1.865148 1_555
Cr1 O5 1.865148 1_444
Cr1 O11 1.954048 1_545
Cr1 O3 1.954048 1_454
Cr1 O9 2.003148 1_455
Cr1 O2 2.003148 1_544
Cr2 O16 1.865148 1_555
Cr2 O15 1.865148 1_445
Cr2 O17 1.954048 1_455
Cr2 O10 1.954048 1_545
Cr2 O14 2.003148 1_545
Cr2 O8 2.003148 1_455
Cr3 O15 1.860978 1_455
Cr3 O16 1.860978 1_555
Cr3 O13 1.956369 1_455
Cr3 O19 1.956369 1_555
Cr3 O18 2.026196 1_455
Cr3 O12 2.026196 1_555
O0 P3 1.539938 1_555
O1 P0 1.548644 1_555
O2 P0 1.543069 1_555
O3 P0 1.545773 1_555
O6 P2 1.539938 1_555
O7 P1 1.548644 1_555
O8 P2 1.543069 1_555
O9 P1 1.543069 1_555
O10 P2 1.545773 1_555
O11 P1 1.545773 1_555
O12 P1 1.539938 1_555
O13 P2 1.548644 1_555
O14 P3 1.543069 1_555
O17 P3 1.545773 1_555
O18 P0 1.539938 1_555
O19 P3 1.548644 1_555
