# generated using pymatgen
data_Rb2MgH4
_symmetry_space_group_name_H-M   'P 1'
_cell_length_a   8.24961800
_cell_length_b   8.77029000
_cell_length_c   10.63601500
_cell_angle_alpha   90.00000000
_cell_angle_beta   90.00000000
_cell_angle_gamma   90.00000000
_symmetry_Int_Tables_number   1
_chemical_formula_structural   Rb2MgH4
_chemical_formula_sum   'Rb8 Mg4 H16'
_cell_volume   769.53208864
_cell_formula_units_Z   4
loop_
 _symmetry_equiv_pos_site_id
 _symmetry_equiv_pos_as_xyz
  1  'x, y, z'
loop_
 _atom_site_type_symbol
 _atom_site_label
 _atom_site_symmetry_multiplicity
 _atom_site_fract_x
 _atom_site_fract_y
 _atom_site_fract_z
 _atom_site_occupancy
  Rb  Rb0  1  0.75000000  0.98938800  0.23921900  1
  Rb  Rb1  1  0.25000000  0.24374700  0.16676800  1
  Rb  Rb2  1  0.75000000  0.25625300  0.66676800  1
  Rb  Rb3  1  0.25000000  0.51061200  0.73921900  1
  Rb  Rb4  1  0.75000000  0.48938800  0.26078100  1
  Rb  Rb5  1  0.25000000  0.74374700  0.33323200  1
  Rb  Rb6  1  0.75000000  0.75625300  0.83323200  1
  Rb  Rb7  1  0.25000000  0.01061200  0.76078100  1
  Mg  Mg0  1  0.25000000  0.24090100  0.51403700  1
  Mg  Mg1  1  0.75000000  0.25909900  0.01403700  1
  Mg  Mg2  1  0.25000000  0.74090100  0.98596300  1
  Mg  Mg3  1  0.75000000  0.75909900  0.48596300  1
  H  H0  1  0.25000000  0.04994300  0.44210800  1
  H  H1  1  0.75000000  0.09361700  0.90802800  1
  H  H2  1  0.58380400  0.24351000  0.13517100  1
  H  H3  1  0.91619600  0.24351000  0.13517100  1
  H  H4  1  0.08380400  0.25649000  0.63517100  1
  H  H5  1  0.41619600  0.25649000  0.63517100  1
  H  H6  1  0.25000000  0.40638300  0.40802800  1
  H  H7  1  0.75000000  0.45005700  0.94210800  1
  H  H8  1  0.25000000  0.54994300  0.05789200  1
  H  H9  1  0.75000000  0.59361700  0.59197200  1
  H  H10  1  0.58380400  0.74351000  0.36482900  1
  H  H11  1  0.91619600  0.74351000  0.36482900  1
  H  H12  1  0.08380400  0.75649000  0.86482900  1
  H  H13  1  0.41619600  0.75649000  0.86482900  1
  H  H14  1  0.25000000  0.90638300  0.09197200  1
  H  H15  1  0.75000000  0.95005700  0.55789200  1
loop_
_geom_bond_atom_site_label_1
_geom_bond_atom_site_label_2
_geom_bond_distance
_geom_bond_site_symmetry_2
H0 Mg0 1.841221 1_555
H0 Rb5 2.924466 1_545
H1 Mg1 1.837833 1_556
H1 Rb2 2.935831 1_555
H1 Rb6 3.063862 1_545
H2 Mg1 1.886375 1_555
H2 Rb1 2.774187 1_555
H2 Rb0 2.841071 1_545
H2 Rb4 2.883541 1_555
H3 Mg1 1.886375 1_555
H3 Rb1 2.774187 1_655
H3 Rb0 2.841071 1_545
H3 Rb4 2.883541 1_555
H4 Mg0 1.886375 1_555
H4 Rb2 2.774187 1_455
H4 Rb3 2.841071 1_555
H4 Rb7 2.883541 1_555
H5 Mg0 1.886375 1_555
H5 Rb2 2.774187 1_555
H5 Rb3 2.841071 1_555
H5 Rb7 2.883541 1_555
H6 Mg0 1.837833 1_555
H6 Rb1 2.935831 1_555
H6 Rb5 3.063862 1_555
H7 Mg1 1.841221 1_556
H7 Rb6 2.924466 1_555
H8 Mg2 1.841221 1_554
H8 Rb1 2.924466 1_555
H9 Mg3 1.837833 1_555
H9 Rb6 2.935831 1_555
H9 Rb2 3.063862 1_555
H10 Mg3 1.886375 1_555
H10 Rb5 2.774187 1_555
H10 Rb4 2.841071 1_555
H10 Rb0 2.883541 1_555
H11 Mg3 1.886375 1_555
H11 Rb5 2.774187 1_655
H11 Rb4 2.841071 1_555
H11 Rb0 2.883541 1_555
H12 Mg2 1.886375 1_555
H12 Rb6 2.774187 1_455
H12 Rb7 2.841071 1_565
H12 Rb3 2.883541 1_555
H13 Mg2 1.886375 1_555
H13 Rb6 2.774187 1_555
H13 Rb7 2.841071 1_565
H13 Rb3 2.883541 1_555
H14 Mg2 1.837833 1_554
H14 Rb5 2.935831 1_555
H14 Rb1 3.063862 1_565
H15 Mg3 1.841221 1_555
H15 Rb2 2.924466 1_565
