# generated using pymatgen
data_Li8Co(O2F)2
_symmetry_space_group_name_H-M   'P 1'
_cell_length_a   5.47330100
_cell_length_b   5.51797491
_cell_length_c   10.78658235
_cell_angle_alpha   75.66238237
_cell_angle_beta   76.73744245
_cell_angle_gamma   60.92725038
_symmetry_Int_Tables_number   1
_chemical_formula_structural   Li8Co(O2F)2
_chemical_formula_sum   'Li16 Co2 O8 F4'
_cell_volume   273.55859278
_cell_formula_units_Z   2
loop_
 _symmetry_equiv_pos_site_id
 _symmetry_equiv_pos_as_xyz
  1  'x, y, z'
loop_
 _atom_site_type_symbol
 _atom_site_label
 _atom_site_symmetry_multiplicity
 _atom_site_fract_x
 _atom_site_fract_y
 _atom_site_fract_z
 _atom_site_occupancy
  Li  Li0  1  0.22497400  0.88287400  0.32245400  1
  Li  Li1  1  0.42302600  0.79591800  0.68394000  1
  Li  Li2  1  0.59225100  0.93337800  0.18200300  1
  Li  Li3  1  0.76489700  0.82325900  0.51390700  1
  Li  Li4  1  0.58683300  0.71535000  0.99695700  1
  Li  Li5  1  0.04913000  0.72455600  0.83280600  1
  Li  Li6  1  0.90685800  0.56667800  0.33520100  1
  Li  Li7  1  0.69429100  0.41211800  0.82013400  1
  Li  Li8  1  0.30570900  0.58788200  0.17986600  1
  Li  Li9  1  0.09314200  0.43332200  0.66479900  1
  Li  Li10  1  0.95087000  0.27544400  0.16719400  1
  Li  Li11  1  0.41316700  0.28465000  0.00304300  1
  Li  Li12  1  0.23510300  0.17674100  0.48609300  1
  Li  Li13  1  0.57697400  0.20408200  0.31606000  1
  Li  Li14  1  0.40774900  0.06662200  0.81799700  1
  Li  Li15  1  0.77502600  0.11712600  0.67754600  1
  Co  Co0  1  0.00000000  0.00000000  0.00000000  1
  Co  Co1  1  0.50000000  0.50000000  0.50000000  1
  O  O0  1  0.27914000  0.96017400  0.11692600  1
  O  O1  1  0.35341300  0.73035100  0.87956700  1
  O  O2  1  0.54119900  0.85908000  0.38135300  1
  O  O3  1  0.75529800  0.47750200  0.62133100  1
  O  O4  1  0.24470200  0.52249800  0.37866900  1
  O  O5  1  0.45880100  0.14092000  0.61864700  1
  O  O6  1  0.64658700  0.26964900  0.12043300  1
  O  O7  1  0.72086000  0.03982600  0.88307400  1
  F  F0  1  0.95709000  0.61777500  0.14310900  1
  F  F1  1  0.10478400  0.78924500  0.63760700  1
  F  F2  1  0.89521600  0.21075500  0.36239300  1
  F  F3  1  0.04291000  0.38222500  0.85689100  1
loop_
_geom_bond_atom_site_label_1
_geom_bond_atom_site_label_2
_geom_bond_distance
_geom_bond_site_symmetry_2
Li0 O4 1.886222 1_555
Li0 O2 1.912823 1_555
Li0 O0 2.130180 1_555
Li1 O3 1.941482 1_555
Li1 O5 1.947674 1_565
Li1 O1 2.028731 1_555
Li2 O0 1.925058 1_555
Li2 O6 1.951374 1_565
Li2 O2 2.066156 1_555
Li3 O3 1.989976 1_555
Li3 O2 2.002635 1_555
Li3 O5 2.100975 1_565
Li4 O1 1.957034 1_555
Li4 O0 1.997659 1_556
Li4 O7 2.241986 1_565
Li4 O6 2.392746 1_556
Li5 O1 1.863940 1_555
Li5 O7 1.879129 1_465
Li6 O4 1.897794 1_655
Li6 O2 1.912858 1_555
Li7 O7 1.940730 1_555
Li7 O1 1.949424 1_555
Li7 O3 2.060461 1_555
Li8 O0 1.940730 1_555
Li8 O6 1.949424 1_555
Li8 O4 2.060461 1_555
Li9 O3 1.897794 1_455
Li9 O5 1.912858 1_555
Li10 O6 1.863940 1_555
Li10 O0 1.879129 1_645
Li11 O6 1.957034 1_555
Li11 O7 1.997659 1_554
Li11 O0 2.241986 1_545
Li11 O1 2.392746 1_554
Li12 O4 1.989976 1_555
Li12 O5 2.002635 1_555
Li12 O2 2.100975 1_545
Li13 O4 1.941482 1_555
Li13 O2 1.947674 1_545
Li13 O6 2.028731 1_555
Li14 O7 1.925058 1_555
Li14 O1 1.951374 1_545
Li14 O5 2.066156 1_555
Li15 O3 1.886222 1_555
Li15 O5 1.912823 1_555
Li15 O7 2.130180 1_555
Co0 O0 2.096136 1_545
Co0 O7 2.096136 1_454
Co0 O6 2.156474 1_455
Co0 O1 2.156474 1_544
Co0 F3 2.364096 1_554
Co0 F0 2.364096 1_445
Co1 O3 2.066583 1_555
Co1 O4 2.066583 1_555
Co1 O2 2.158831 1_555
Co1 O5 2.158831 1_555
Co1 F1 2.403035 1_555
Co1 F2 2.403035 1_555
F0 Li10 1.858026 1_555
F0 Li2 1.947860 1_555
F0 Li8 1.958083 1_655
F0 Li6 1.993226 1_555
F1 Li15 1.890045 1_465
F1 Li1 1.938036 1_555
F1 Li9 1.942943 1_555
F1 Li5 2.023023 1_555
F1 Li3 2.439644 1_455
F2 Li0 1.890045 1_645
F2 Li13 1.938036 1_555
F2 Li6 1.942943 1_555
F2 Li10 2.023023 1_555
F2 Li12 2.439644 1_655
F3 Li5 1.858026 1_555
F3 Li14 1.947860 1_555
F3 Li7 1.958083 1_455
F3 Li9 1.993226 1_555
