# generated using pymatgen
data_Li4Cr5SbO12
_symmetry_space_group_name_H-M   'P 1'
_cell_length_a   5.24010506
_cell_length_b   21.03479321
_cell_length_c   5.24196438
_cell_angle_alpha   93.99128303
_cell_angle_beta   119.98813227
_cell_angle_gamma   81.99454535
_symmetry_Int_Tables_number   1
_chemical_formula_structural   Li4Cr5SbO12
_chemical_formula_sum   'Li8 Cr10 Sb2 O24'
_cell_volume   495.56636754
_cell_formula_units_Z   2
loop_
 _symmetry_equiv_pos_site_id
 _symmetry_equiv_pos_as_xyz
  1  'x, y, z'
loop_
 _atom_site_type_symbol
 _atom_site_label
 _atom_site_symmetry_multiplicity
 _atom_site_fract_x
 _atom_site_fract_y
 _atom_site_fract_z
 _atom_site_occupancy
  Li  Li0  1  0.10904300  0.35392600  0.66301400  1
  Li  Li1  1  0.10918800  0.85394600  0.66284200  1
  Li  Li2  1  0.55368000  0.14605800  0.66278500  1
  Li  Li3  1  0.55399800  0.64607600  0.66305200  1
  Li  Li4  1  0.44609600  0.35383700  0.33642600  1
  Li  Li5  1  0.44628500  0.85386000  0.33660200  1
  Li  Li6  1  0.89030900  0.14614700  0.33656700  1
  Li  Li7  1  0.89038500  0.64616100  0.33649200  1
  Cr  Cr0  1  0.83787200  0.25003900  0.67570200  1
  Cr  Cr1  1  0.83788000  0.74996900  0.67573500  1
  Cr  Cr2  1  0.33470700  0.99999300  0.66946300  1
  Cr  Cr3  1  0.33453200  0.49999000  0.66907400  1
  Cr  Cr4  1  0.66501800  0.99999100  0.33009900  1
  Cr  Cr5  1  0.49964200  0.24999500  0.99942200  1
  Cr  Cr6  1  0.49983000  0.75000000  0.99944900  1
  Cr  Cr7  1  0.16267700  0.25001100  0.32533300  1
  Cr  Cr8  1  0.16270000  0.74999000  0.32537000  1
  Cr  Cr9  1  0.66516700  0.49999700  0.33047400  1
  Sb  Sb0  1  0.99989100  0.00001100  0.99983300  1
  Sb  Sb1  1  0.99989400  0.50000200  0.99979900  1
  O  O0  1  0.15015200  0.30233300  0.00101500  1
  O  O1  1  0.15025400  0.80230700  0.00102100  1
  O  O2  1  0.85079000  0.19769200  0.00100600  1
  O  O3  1  0.85089700  0.69767000  0.00102300  1
  O  O4  1  0.30426000  0.04793100  0.99977400  1
  O  O5  1  0.30358000  0.54806500  0.99979500  1
  O  O6  1  0.69622500  0.45193200  0.99981000  1
  O  O7  1  0.69548200  0.95206800  0.99976600  1
  O  O8  1  0.97266800  0.05007900  0.33284100  1
  O  O9  1  0.97256300  0.55022600  0.33228600  1
  O  O10  1  0.35967400  0.44977300  0.33225600  1
  O  O11  1  0.36013100  0.94992100  0.33283800  1
  O  O12  1  0.63962400  0.05006600  0.66669800  1
  O  O13  1  0.64015400  0.55020700  0.66739400  1
  O  O14  1  0.02720000  0.44979200  0.66740900  1
  O  O15  1  0.02704300  0.94993200  0.66671700  1
  O  O16  1  0.19587500  0.19844700  0.65482200  1
  O  O17  1  0.19595000  0.69842100  0.65486500  1
  O  O18  1  0.45892800  0.30158300  0.65485000  1
  O  O19  1  0.45898200  0.80155100  0.65483900  1
  O  O20  1  0.54038700  0.19853500  0.34536600  1
  O  O21  1  0.54045300  0.69850100  0.34536800  1
  O  O22  1  0.80492100  0.30149800  0.34533900  1
  O  O23  1  0.80501000  0.80147200  0.34536900  1
loop_
_geom_bond_atom_site_label_1
_geom_bond_atom_site_label_2
_geom_bond_distance
_geom_bond_site_symmetry_2
Li0 O14 2.003333 1_555
Li0 O18 2.021182 1_555
Li0 O22 2.027294 1_455
Li0 O0 2.045588 1_556
Li1 O15 2.005792 1_555
Li1 O19 2.020869 1_555
Li1 O23 2.027591 1_455
Li1 O1 2.047030 1_556
Li2 O12 2.005877 1_555
Li2 O16 2.020936 1_555
Li2 O20 2.027385 1_555
Li2 O2 2.047072 1_556
Li3 O13 2.003369 1_555
Li3 O17 2.021146 1_555
Li3 O21 2.027305 1_555
Li3 O3 2.045555 1_556
Li4 O10 2.004884 1_555
Li4 O22 2.022983 1_555
Li4 O18 2.030122 1_555
Li4 O0 2.036443 1_555
Li5 O11 2.007406 1_555
Li5 O23 2.023280 1_555
Li5 O19 2.030304 1_555
Li5 O1 2.037620 1_555
Li6 O8 2.007528 1_555
Li6 O20 2.023195 1_555
Li6 O16 2.030300 1_655
Li6 O2 2.037489 1_555
Li7 O9 2.004842 1_555
Li7 O21 2.022995 1_555
Li7 O17 2.030039 1_655
Li7 O3 2.036707 1_555
Cr0 O22 2.027415 1_555
Cr0 O20 2.028074 1_555
Cr0 O0 2.060693 1_656
Cr0 O2 2.061571 1_556
Cr0 O18 2.080953 1_555
Cr0 O16 2.081018 1_655
Cr1 O21 2.027577 1_555
Cr1 O23 2.028143 1_555
Cr1 O3 2.060671 1_556
Cr1 O1 2.061404 1_656
Cr1 O17 2.080931 1_655
Cr1 O19 2.080970 1_555
Cr2 O7 2.007027 1_555
Cr2 O4 2.007127 1_565
Cr2 O15 2.038573 1_555
Cr2 O12 2.038770 1_565
Cr2 O11 2.044019 1_555
Cr2 O8 2.044117 1_465
Cr3 O6 2.011323 1_555
Cr3 O5 2.011402 1_555
Cr3 O14 2.041293 1_555
Cr3 O13 2.041375 1_555
Cr3 O10 2.045624 1_555
Cr3 O9 2.045750 1_455
Cr4 O7 2.007130 1_554
Cr4 O4 2.007173 1_564
Cr4 O11 2.038536 1_555
Cr4 O8 2.038874 1_565
Cr4 O15 2.043823 1_655
Cr4 O12 2.043863 1_565
Cr5 O2 2.004594 1_556
Cr5 O0 2.004599 1_556
Cr5 O16 2.075143 1_555
Cr5 O18 2.075738 1_555
Cr5 O20 2.080299 1_556
Cr5 O22 2.080929 1_556
Cr6 O3 2.004499 1_556
Cr6 O1 2.004656 1_556
Cr6 O19 2.075182 1_555
Cr6 O17 2.075716 1_555
Cr6 O23 2.080356 1_556
Cr6 O21 2.080911 1_556
Cr7 O16 2.024277 1_555
Cr7 O18 2.024362 1_555
Cr7 O0 2.057818 1_555
Cr7 O2 2.058034 1_455
Cr7 O20 2.076531 1_555
Cr7 O22 2.076910 1_455
Cr8 O19 2.024186 1_555
Cr8 O17 2.024252 1_555
Cr8 O3 2.057887 1_455
Cr8 O1 2.058083 1_555
Cr8 O23 2.076555 1_455
Cr8 O21 2.076902 1_555
Cr9 O5 2.011041 1_554
Cr9 O6 2.011297 1_554
Cr9 O10 2.041118 1_555
Cr9 O9 2.041661 1_555
Cr9 O13 2.045731 1_555
Cr9 O14 2.045936 1_655
O4 Sb0 2.002037 1_455
O5 Sb1 2.000663 1_455
O6 Sb1 2.000692 1_555
O7 Sb0 2.002230 1_565
O8 Sb0 2.031710 1_554
O9 Sb1 2.031085 1_554
O10 Sb1 2.030975 1_454
O11 Sb0 2.031927 1_464
O12 Sb0 2.031950 1_555
O13 Sb1 2.030541 1_555
O14 Sb1 2.030460 1_455
O15 Sb0 2.032140 1_465
