# generated using pymatgen
data_Zn(NCl2)2
_symmetry_space_group_name_H-M   'P 1'
_cell_length_a   7.68298000
_cell_length_b   12.56868800
_cell_length_c   30.11817300
_cell_angle_alpha   90.00000000
_cell_angle_beta   90.00000000
_cell_angle_gamma   90.00000000
_symmetry_Int_Tables_number   1
_chemical_formula_structural   Zn(NCl2)2
_chemical_formula_sum   'Zn12 N24 Cl48'
_cell_volume   2908.36072912
_cell_formula_units_Z   12
loop_
 _symmetry_equiv_pos_site_id
 _symmetry_equiv_pos_as_xyz
  1  'x, y, z'
loop_
 _atom_site_type_symbol
 _atom_site_label
 _atom_site_symmetry_multiplicity
 _atom_site_fract_x
 _atom_site_fract_y
 _atom_site_fract_z
 _atom_site_occupancy
  Zn  Zn0  1  0.15392400  0.02756800  0.62122500  1
  Zn  Zn1  1  0.65392400  0.97243200  0.37877500  1
  Zn  Zn2  1  0.65392400  0.52756800  0.87877500  1
  Zn  Zn3  1  0.15392400  0.47243200  0.12122500  1
  Zn  Zn4  1  0.21734200  0.03359200  0.94105800  1
  Zn  Zn5  1  0.71734200  0.96640800  0.05894200  1
  Zn  Zn6  1  0.71734200  0.53359200  0.55894200  1
  Zn  Zn7  1  0.21734200  0.46640800  0.44105800  1
  Zn  Zn8  1  0.24968400  0.15174400  0.26532900  1
  Zn  Zn9  1  0.74968400  0.84825600  0.73467100  1
  Zn  Zn10  1  0.74968400  0.65174400  0.23467100  1
  Zn  Zn11  1  0.24968400  0.34825600  0.76532900  1
  N  N0  1  0.42096700  0.86911700  0.49761800  1
  N  N1  1  0.92096700  0.13088300  0.50238200  1
  N  N2  1  0.92096700  0.36911700  0.00238200  1
  N  N3  1  0.42096700  0.63088300  0.99761800  1
  N  N4  1  0.25584800  0.90743800  0.82856400  1
  N  N5  1  0.75584800  0.09256200  0.17143600  1
  N  N6  1  0.75584800  0.40743800  0.67143600  1
  N  N7  1  0.25584800  0.59256200  0.32856400  1
  N  N8  1  0.24777500  0.89777900  0.16149800  1
  N  N9  1  0.74777500  0.10222100  0.83850200  1
  N  N10  1  0.74777500  0.39777900  0.33850200  1
  N  N11  1  0.24777500  0.60222100  0.66149800  1
  N  N12  1  0.39001000  0.33845500  0.52580500  1
  N  N13  1  0.89001000  0.66154500  0.47419500  1
  N  N14  1  0.89001000  0.83845500  0.97419500  1
  N  N15  1  0.39001000  0.16154500  0.02580500  1
  N  N16  1  0.29845000  0.39452700  0.88150200  1
  N  N17  1  0.79845000  0.60547300  0.11849800  1
  N  N18  1  0.79845000  0.89452700  0.61849800  1
  N  N19  1  0.29845000  0.10547300  0.38150200  1
  N  N20  1  0.38178900  0.38386800  0.20441200  1
  N  N21  1  0.88178900  0.61613200  0.79558800  1
  N  N22  1  0.88178900  0.88386800  0.29558800  1
  N  N23  1  0.38178900  0.11613200  0.70441200  1
  Cl  Cl0  1  0.10210600  0.06710900  0.49936500  1
  Cl  Cl1  1  0.60210600  0.93289100  0.50063500  1
  Cl  Cl2  1  0.60210600  0.56710900  0.00063500  1
  Cl  Cl3  1  0.10210600  0.43289100  0.99936500  1
  Cl  Cl4  1  0.95885500  0.14327700  0.62295800  1
  Cl  Cl5  1  0.45885500  0.85672300  0.37704200  1
  Cl  Cl6  1  0.45885500  0.64327700  0.87704200  1
  Cl  Cl7  1  0.95885500  0.35672300  0.12295800  1
  Cl  Cl8  1  0.35513200  0.91926500  0.60986800  1
  Cl  Cl9  1  0.85513200  0.08073500  0.39013200  1
  Cl  Cl10  1  0.85513200  0.41926500  0.89013200  1
  Cl  Cl11  1  0.35513200  0.58073500  0.10986800  1
  Cl  Cl12  1  0.46794100  0.25725600  0.56582100  1
  Cl  Cl13  1  0.96794100  0.74274400  0.43417900  1
  Cl  Cl14  1  0.96794100  0.75725600  0.93417900  1
  Cl  Cl15  1  0.46794100  0.24274400  0.06582100  1
  Cl  Cl16  1  0.24176300  0.03369900  0.81878800  1
  Cl  Cl17  1  0.74176300  0.96630100  0.18121200  1
  Cl  Cl18  1  0.74176300  0.53369900  0.68121200  1
  Cl  Cl19  1  0.24176300  0.46630100  0.31878800  1
  Cl  Cl20  1  0.97154000  0.10509200  0.94091800  1
  Cl  Cl21  1  0.47154000  0.89490800  0.05908200  1
  Cl  Cl22  1  0.47154000  0.60509200  0.55908200  1
  Cl  Cl23  1  0.97154000  0.39490800  0.44091800  1
  Cl  Cl24  1  0.41751300  0.92273200  0.93190700  1
  Cl  Cl25  1  0.91751300  0.07726800  0.06809300  1
  Cl  Cl26  1  0.91751300  0.42273200  0.56809300  1
  Cl  Cl27  1  0.41751300  0.57726800  0.43190700  1
  Cl  Cl28  1  0.42540500  0.21473800  0.97359500  1
  Cl  Cl29  1  0.92540500  0.78526200  0.02640500  1
  Cl  Cl30  1  0.92540500  0.71473800  0.52640500  1
  Cl  Cl31  1  0.42540500  0.28526200  0.47359500  1
  Cl  Cl32  1  0.23846500  0.02591000  0.15919000  1
  Cl  Cl33  1  0.73846500  0.97409000  0.84081000  1
  Cl  Cl34  1  0.73846500  0.52591000  0.34081000  1
  Cl  Cl35  1  0.23846500  0.47409000  0.65919000  1
  Cl  Cl36  1  0.99996700  0.21214300  0.25656200  1
  Cl  Cl37  1  0.49996700  0.78785700  0.74343800  1
  Cl  Cl38  1  0.49996700  0.71214300  0.24343800  1
  Cl  Cl39  1  0.99996700  0.28785700  0.75656200  1
  Cl  Cl40  1  0.08891000  0.88548700  0.29116800  1
  Cl  Cl41  1  0.58891000  0.11451300  0.70883200  1
  Cl  Cl42  1  0.58891000  0.38548700  0.20883200  1
  Cl  Cl43  1  0.08891000  0.61451300  0.79116800  1
  Cl  Cl44  1  0.50041400  0.09634900  0.27800100  1
  Cl  Cl45  1  0.00041400  0.90365100  0.72199900  1
  Cl  Cl46  1  0.00041400  0.59634900  0.22199900  1
  Cl  Cl47  1  0.50041400  0.40365100  0.77800100  1
loop_
_geom_bond_atom_site_label_1
_geom_bond_atom_site_label_2
_geom_bond_distance
_geom_bond_site_symmetry_2
Cl0 N1 1.608584 1_455
Cl1 N0 1.608584 1_555
Cl2 N3 1.608584 1_554
Cl3 N2 1.608584 1_456
Cl4 Zn0 2.088990 1_655
Cl5 Zn1 2.088990 1_555
Cl6 Zn2 2.088990 1_555
Cl7 Zn3 2.088990 1_655
Cl8 Zn0 2.087983 1_565
Cl9 Zn1 2.087983 1_545
Cl10 Zn2 2.087983 1_555
Cl11 Zn3 2.087983 1_555
Cl12 N12 1.688956 1_555
Cl13 N13 1.688956 1_555
Cl14 N14 1.688956 1_555
Cl15 N15 1.688956 1_555
Cl16 N4 1.617642 1_545
Cl17 N5 1.617642 1_565
Cl18 N6 1.617642 1_555
Cl19 N7 1.617642 1_555
Cl20 Zn4 2.091414 1_655
Cl21 Zn5 2.091414 1_555
Cl22 Zn6 2.091414 1_555
Cl23 Zn7 2.091414 1_655
Cl24 Zn4 2.093464 1_565
Cl25 Zn5 2.093464 1_545
Cl26 Zn6 2.093464 1_555
Cl27 Zn7 2.093464 1_555
Cl28 N15 1.730200 1_556
Cl28 Zn4 2.949462 1_555
Cl29 N14 1.730200 1_554
Cl29 Zn5 2.949462 1_555
Cl30 N13 1.730200 1_555
Cl30 Zn6 2.949462 1_555
Cl31 N12 1.730200 1_555
Cl31 Zn7 2.949462 1_555
Cl32 N8 1.613524 1_545
Cl33 N9 1.613524 1_565
Cl34 N10 1.613524 1_555
Cl35 N11 1.613524 1_555
Cl36 Zn8 2.080125 1_655
Cl37 Zn9 2.080125 1_555
Cl38 Zn10 2.080125 1_555
Cl39 Zn11 2.080125 1_655
Cl40 N22 1.596995 1_455
Cl41 N23 1.596995 1_555
Cl42 N20 1.596995 1_555
Cl43 N21 1.596995 1_455
Cl44 Zn8 2.083568 1_555
Cl45 Zn9 2.083568 1_455
Cl46 Zn10 2.083568 1_455
Cl47 Zn11 2.083568 1_555
