# generated using pymatgen
data_V5Co(PO4)6
_symmetry_space_group_name_H-M   'P 1'
_cell_length_a   8.53241144
_cell_length_b   8.65443994
_cell_length_c   8.65444031
_cell_angle_alpha   59.99999922
_cell_angle_beta   59.52576153
_cell_angle_gamma   59.52576237
_symmetry_Int_Tables_number   1
_chemical_formula_structural   V5Co(PO4)6
_chemical_formula_sum   'V5 Co1 P6 O24'
_cell_volume   448.62574878
_cell_formula_units_Z   1
loop_
 _symmetry_equiv_pos_site_id
 _symmetry_equiv_pos_as_xyz
  1  'x, y, z'
loop_
 _atom_site_type_symbol
 _atom_site_label
 _atom_site_symmetry_multiplicity
 _atom_site_fract_x
 _atom_site_fract_y
 _atom_site_fract_z
 _atom_site_occupancy
  V  V0  1  0.99238500  0.00253800  0.00253800  1
  V  V1  1  0.06520700  0.64493100  0.64493100  1
  V  V2  1  0.49866700  0.50044400  0.50044400  1
  V  V3  1  0.42675100  0.85775000  0.85775000  1
  V  V4  1  0.93445100  0.35518300  0.35518300  1
  Co  Co0  1  0.56260400  0.14579900  0.14579900  1
  P  P0  1  0.25008800  0.24962600  0.54481100  1
  P  P1  1  0.25008800  0.95547400  0.24962600  1
  P  P2  1  0.25008800  0.54481100  0.95547400  1
  P  P3  1  0.75247900  0.45479900  0.04354400  1
  P  P4  1  0.75247900  0.04354400  0.74917800  1
  P  P5  1  0.75247900  0.74917800  0.45479900  1
  O  O0  1  0.06678600  0.11595700  0.32014500  1
  O  O1  1  0.06678600  0.49711200  0.11595700  1
  O  O2  1  0.06678600  0.32014500  0.49711200  1
  O  O3  1  0.21371800  0.09505000  0.74597600  1
  O  O4  1  0.43542700  0.18429300  0.39528800  1
  O  O5  1  0.26215300  0.41344200  0.56738100  1
  O  O6  1  0.21371800  0.94525600  0.09505000  1
  O  O7  1  0.26215300  0.75702500  0.41344200  1
  O  O8  1  0.56955300  0.61111100  0.00633600  1
  O  O9  1  0.26215300  0.56738100  0.75702500  1
  O  O10  1  0.78832000  0.25781100  0.05114100  1
  O  O11  1  0.56955300  0.00633600  0.81300100  1
  O  O12  1  0.43542700  0.98499200  0.18429300  1
  O  O13  1  0.21371800  0.74597600  0.94525600  1
  O  O14  1  0.73441000  0.43803700  0.24196000  1
  O  O15  1  0.43542700  0.39528800  0.98499200  1
  O  O16  1  0.73441000  0.24196000  0.58559300  1
  O  O17  1  0.78832000  0.05114100  0.90272700  1
  O  O18  1  0.73441000  0.58559300  0.43803700  1
  O  O19  1  0.56955300  0.81300100  0.61111100  1
  O  O20  1  0.78832000  0.90272700  0.25781100  1
  O  O21  1  0.93371100  0.67275800  0.50696100  1
  O  O22  1  0.93371100  0.50696100  0.88657200  1
  O  O23  1  0.93371100  0.88657200  0.67275800  1
loop_
_geom_bond_atom_site_label_1
_geom_bond_atom_site_label_2
_geom_bond_distance
_geom_bond_site_symmetry_2
Co0 O4 1.981596 1_555
Co0 O15 1.981600 1_554
Co0 O12 1.981604 1_545
Co0 O10 2.195264 1_555
Co0 O20 2.195269 1_545
Co0 O17 2.195277 1_554
O0 P1 1.556849 1_545
O0 V4 1.887505 1_455
O1 P2 1.556846 1_554
O1 V4 1.887505 1_455
O2 P0 1.556844 1_555
O2 V4 1.887505 1_455
O3 P0 1.568750 1_555
O3 V3 2.113737 1_545
O3 V0 2.154145 1_456
O4 P0 1.498038 1_555
O5 P0 1.582429 1_555
O5 V1 2.018373 1_555
O5 V2 2.212296 1_555
O6 P1 1.568745 1_555
O6 V3 2.113733 1_554
O6 V0 2.154148 1_465
O7 P1 1.582419 1_555
O7 V1 2.018377 1_555
O7 V2 2.212302 1_555
O8 P3 1.517357 1_555
O8 V3 1.975047 1_554
O9 P2 1.582412 1_555
O9 V1 2.018380 1_555
O9 V2 2.212308 1_555
O10 P3 1.543941 1_555
O10 V0 2.091433 1_555
O11 P4 1.517354 1_555
O11 V3 1.975047 1_545
O12 P1 1.498043 1_555
O13 P2 1.568753 1_555
O13 V3 2.113739 1_555
O13 V0 2.154142 1_466
O14 P3 1.580687 1_555
O14 V4 2.034699 1_555
O14 V2 2.210030 1_555
O15 P2 1.498041 1_555
O16 P4 1.580687 1_555
O16 V4 2.034699 1_555
O16 V2 2.210032 1_555
O17 P4 1.543933 1_555
O17 V0 2.091433 1_556
O18 P5 1.580687 1_555
O18 V4 2.034699 1_555
O18 V2 2.210035 1_555
O19 P5 1.517359 1_555
O19 V3 1.975047 1_555
O20 P5 1.543938 1_555
O20 V0 2.091433 1_565
O21 P5 1.550659 1_555
O21 V1 1.881443 1_655
O22 P3 1.550655 1_556
O22 V1 1.881452 1_655
O23 P4 1.550649 1_565
O23 V1 1.881458 1_655
