# generated using pymatgen
data_LiFe(PO3)4
_symmetry_space_group_name_H-M   'P 1'
_cell_length_a   13.15797100
_cell_length_b   7.28117300
_cell_length_c   11.76934673
_cell_angle_alpha   54.05696733
_cell_angle_beta   90.00000000
_cell_angle_gamma   90.00000000
_symmetry_Int_Tables_number   1
_chemical_formula_structural   LiFe(PO3)4
_chemical_formula_sum   'Li4 Fe4 P16 O48'
_cell_volume   912.87996077
_cell_formula_units_Z   4
loop_
 _symmetry_equiv_pos_site_id
 _symmetry_equiv_pos_as_xyz
  1  'x, y, z'
loop_
 _atom_site_type_symbol
 _atom_site_label
 _atom_site_symmetry_multiplicity
 _atom_site_fract_x
 _atom_site_fract_y
 _atom_site_fract_z
 _atom_site_occupancy
  Li  Li0  1  0.20046000  0.94440000  0.02691200  1
  Li  Li1  1  0.70046000  0.05560000  0.47308800  1
  Li  Li2  1  0.29954000  0.94440000  0.52691200  1
  Li  Li3  1  0.79954000  0.05560000  0.97308800  1
  Fe  Fe0  1  0.29040500  0.54536000  0.43780600  1
  Fe  Fe1  1  0.79040500  0.45464000  0.06219400  1
  Fe  Fe2  1  0.20959500  0.54536000  0.93780600  1
  Fe  Fe3  1  0.70959500  0.45464000  0.56219400  1
  P  P0  1  0.61831500  0.81913400  0.25958300  1
  P  P1  1  0.13025700  0.41921700  0.69334300  1
  P  P2  1  0.91197800  0.45828800  0.70748100  1
  P  P3  1  0.89968800  0.06901000  0.22197100  1
  P  P4  1  0.39968800  0.93099000  0.27802900  1
  P  P5  1  0.41197800  0.54171200  0.79251900  1
  P  P6  1  0.63025700  0.58078300  0.80665700  1
  P  P7  1  0.11831500  0.18086600  0.24041700  1
  P  P8  1  0.88168500  0.81913400  0.75958300  1
  P  P9  1  0.36974300  0.41921700  0.19334300  1
  P  P10  1  0.58802200  0.45828800  0.20748100  1
  P  P11  1  0.60031200  0.06901000  0.72197100  1
  P  P12  1  0.10031200  0.93099000  0.77802900  1
  P  P13  1  0.08802200  0.54171200  0.29251900  1
  P  P14  1  0.86974300  0.58078300  0.30665700  1
  P  P15  1  0.38168500  0.18086600  0.74041700  1
  O  O0  1  0.87761400  0.81143700  0.29531600  1
  O  O1  1  0.90178000  0.21286800  0.82100500  1
  O  O2  1  0.41609700  0.40114500  0.72845700  1
  O  O3  1  0.32682200  0.83064300  0.22674000  1
  O  O4  1  0.69202600  0.96384000  0.14492200  1
  O  O5  1  0.14457300  0.36900200  0.83509800  1
  O  O6  1  0.64507900  0.73094000  0.40973100  1
  O  O7  1  0.88965500  0.21795400  0.06266800  1
  O  O8  1  0.51200500  0.95238500  0.22175200  1
  O  O9  1  0.02057500  0.52894900  0.62726600  1
  O  O10  1  0.20832000  0.56497600  0.57998500  1
  O  O11  1  0.33431400  0.43458400  0.91052800  1
  O  O12  1  0.83431400  0.56541600  0.58947200  1
  O  O13  1  0.01200500  0.04761500  0.27824800  1
  O  O14  1  0.70832000  0.43502400  0.92001500  1
  O  O15  1  0.38965500  0.78204600  0.43733200  1
  O  O16  1  0.52057500  0.47105100  0.87273400  1
  O  O17  1  0.14507900  0.26906000  0.09026900  1
  O  O18  1  0.64457300  0.63099800  0.66490200  1
  O  O19  1  0.19202600  0.03616000  0.35507800  1
  O  O20  1  0.82682200  0.16935700  0.27326000  1
  O  O21  1  0.91609700  0.59885500  0.77154300  1
  O  O22  1  0.37761400  0.18856300  0.20468400  1
  O  O23  1  0.40178000  0.78713200  0.67899500  1
  O  O24  1  0.59822000  0.21286800  0.32100500  1
  O  O25  1  0.62238600  0.81143700  0.79531600  1
  O  O26  1  0.08390300  0.40114500  0.22845700  1
  O  O27  1  0.17317800  0.83064300  0.72674000  1
  O  O28  1  0.80797400  0.96384000  0.64492200  1
  O  O29  1  0.35542700  0.36900200  0.33509800  1
  O  O30  1  0.85492100  0.73094000  0.90973100  1
  O  O31  1  0.47942500  0.52894900  0.12726600  1
  O  O32  1  0.61034500  0.21795400  0.56266800  1
  O  O33  1  0.29168000  0.56497600  0.07998500  1
  O  O34  1  0.98799500  0.95238500  0.72175200  1
  O  O35  1  0.16568600  0.43458400  0.41052800  1
  O  O36  1  0.66568600  0.56541600  0.08947200  1
  O  O37  1  0.79168000  0.43502400  0.42001500  1
  O  O38  1  0.97942500  0.47105100  0.37273400  1
  O  O39  1  0.48799500  0.04761500  0.77824800  1
  O  O40  1  0.11034500  0.78204600  0.93733200  1
  O  O41  1  0.35492100  0.26906000  0.59026900  1
  O  O42  1  0.85542700  0.63099800  0.16490200  1
  O  O43  1  0.30797400  0.03616000  0.85507800  1
  O  O44  1  0.67317800  0.16935700  0.77326000  1
  O  O45  1  0.58390300  0.59885500  0.27154300  1
  O  O46  1  0.09822000  0.78713200  0.17899500  1
  O  O47  1  0.12238600  0.18856300  0.70468400  1
loop_
_geom_bond_atom_site_label_1
_geom_bond_atom_site_label_2
_geom_bond_distance
_geom_bond_site_symmetry_2
Li0 O46 1.979551 1_555
Li0 O43 2.225178 1_564
Li0 O40 2.319063 1_554
Li0 O3 2.587435 1_555
Li1 O24 1.979551 1_555
Li1 O28 2.225178 1_545
Li1 O32 2.319063 1_555
Li1 O20 2.587435 1_555
Li2 O23 1.979551 1_555
Li2 O19 2.225178 1_565
Li2 O15 2.319063 1_555
Li2 O27 2.587435 1_555
Li3 O1 1.979551 1_555
Li3 O4 2.225178 1_546
Li3 O7 2.319063 1_556
Li3 O44 2.587435 1_555
Fe0 O41 1.936450 1_555
Fe0 O35 1.936666 1_555
Fe0 O10 2.065828 1_555
Fe0 O3 2.158131 1_555
Fe0 O15 2.159661 1_555
Fe0 O29 2.379986 1_555
Fe1 O30 1.936450 1_554
Fe1 O36 1.936666 1_555
Fe1 O14 2.065828 1_554
Fe1 O20 2.158131 1_555
Fe1 O7 2.159661 1_555
Fe1 O42 2.379986 1_555
Fe2 O17 1.936450 1_556
Fe2 O11 1.936666 1_555
Fe2 O33 2.065828 1_556
Fe2 O27 2.158131 1_555
Fe2 O40 2.159661 1_555
Fe2 O5 2.379986 1_555
Fe3 O6 1.936450 1_555
Fe3 O12 1.936666 1_555
Fe3 O37 2.065828 1_555
Fe3 O44 2.158131 1_555
Fe3 O32 2.159661 1_555
Fe3 O18 2.379986 1_555
O0 P3 1.564040 1_565
O0 P14 1.608065 1_555
O1 P2 1.481036 1_555
O2 P5 1.588982 1_555
O2 P15 1.591306 1_555
O3 P4 1.528145 1_555
O4 P0 1.484157 1_555
O5 P1 1.495491 1_555
O6 P0 1.525447 1_555
O7 P3 1.523729 1_555
O8 P4 1.589314 1_555
O8 P0 1.609083 1_555
O9 P1 1.611372 1_555
O9 P2 1.620978 1_455
O10 P1 1.516278 1_555
O11 P5 1.519836 1_555
O12 P2 1.519836 1_555
O13 P3 1.589314 1_455
O13 P7 1.609083 1_555
O14 P6 1.516278 1_555
O15 P4 1.523729 1_555
O16 P6 1.611372 1_555
O16 P5 1.620978 1_555
O17 P7 1.525447 1_555
O18 P6 1.495491 1_555
O19 P7 1.484157 1_555
O20 P3 1.528145 1_555
O21 P2 1.588982 1_555
O21 P8 1.591306 1_555
O22 P4 1.564040 1_545
O22 P9 1.608065 1_555
O23 P5 1.481036 1_555
O24 P10 1.481036 1_555
O25 P11 1.564040 1_565
O25 P6 1.608065 1_555
O26 P13 1.588982 1_555
O26 P7 1.591306 1_555
O27 P12 1.528145 1_555
O28 P8 1.484157 1_555
O29 P9 1.495491 1_555
O30 P8 1.525447 1_555
O31 P9 1.611372 1_555
O31 P10 1.620978 1_555
O32 P11 1.523729 1_555
O33 P9 1.516278 1_555
O34 P12 1.589314 1_655
O34 P8 1.609083 1_555
O35 P13 1.519836 1_555
O36 P10 1.519836 1_555
O37 P14 1.516278 1_555
O38 P14 1.611372 1_555
O38 P13 1.620978 1_655
O39 P11 1.589314 1_555
O39 P15 1.609083 1_555
O40 P12 1.523729 1_555
O41 P15 1.525447 1_555
O42 P14 1.495491 1_555
O43 P15 1.484157 1_555
O44 P11 1.528145 1_555
O45 P10 1.588982 1_555
O45 P0 1.591306 1_555
O46 P13 1.481036 1_555
O47 P12 1.564040 1_545
O47 P1 1.608065 1_555
