# generated using pymatgen
data_Li4V(PO3)6
_symmetry_space_group_name_H-M   'P 1'
_cell_length_a   7.35708671
_cell_length_b   7.35708671
_cell_length_c   13.99525098
_cell_angle_alpha   86.65661346
_cell_angle_beta   86.65661346
_cell_angle_gamma   64.17949224
_symmetry_Int_Tables_number   1
_chemical_formula_structural   Li4V(PO3)6
_chemical_formula_sum   'Li8 V2 P12 O36'
_cell_volume   680.27131288
_cell_formula_units_Z   2
loop_
 _symmetry_equiv_pos_site_id
 _symmetry_equiv_pos_as_xyz
  1  'x, y, z'
loop_
 _atom_site_type_symbol
 _atom_site_label
 _atom_site_symmetry_multiplicity
 _atom_site_fract_x
 _atom_site_fract_y
 _atom_site_fract_z
 _atom_site_occupancy
  Li  Li0  1  0.96026200  0.69975100  0.92486300  1
  Li  Li1  1  0.69975100  0.96026200  0.42486300  1
  Li  Li2  1  0.78266800  0.55991500  0.54736400  1
  Li  Li3  1  0.55991500  0.78266800  0.04736400  1
  Li  Li4  1  0.44008500  0.21733200  0.95263600  1
  Li  Li5  1  0.21733200  0.44008500  0.45263600  1
  Li  Li6  1  0.30024900  0.03973800  0.57513700  1
  Li  Li7  1  0.03973800  0.30024900  0.07513700  1
  V  V0  1  0.37223200  0.62776800  0.75000000  1
  V  V1  1  0.62776800  0.37223200  0.25000000  1
  P  P0  1  0.96356700  0.85297300  0.61356400  1
  P  P1  1  0.85297300  0.96356700  0.11356400  1
  P  P2  1  0.63060100  0.90739900  0.75115700  1
  P  P3  1  0.90739900  0.63060100  0.25115700  1
  P  P4  1  0.76969300  0.39981300  0.88978500  1
  P  P5  1  0.39981300  0.76969300  0.38978500  1
  P  P6  1  0.60018700  0.23030700  0.61021500  1
  P  P7  1  0.23030700  0.60018700  0.11021500  1
  P  P8  1  0.09260100  0.36939900  0.74884300  1
  P  P9  1  0.36939900  0.09260100  0.24884300  1
  P  P10  1  0.14702700  0.03643300  0.88643600  1
  P  P11  1  0.03643300  0.14702700  0.38643600  1
  O  O0  1  0.86574800  0.81549400  0.71433000  1
  O  O1  1  0.91330500  0.75405900  0.53484500  1
  O  O2  1  0.81549400  0.86574800  0.21433000  1
  O  O3  1  0.75405900  0.91330500  0.03484500  1
  O  O4  1  0.63008500  0.90165000  0.85743300  1
  O  O5  1  0.90165000  0.63008500  0.35743300  1
  O  O6  1  0.81252000  0.50435800  0.96876000  1
  O  O7  1  0.52357200  0.81185700  0.69804200  1
  O  O8  1  0.85956300  0.44850000  0.78832200  1
  O  O9  1  0.50435800  0.81252000  0.46876000  1
  O  O10  1  0.81185700  0.52357200  0.19804200  1
  O  O11  1  0.44850000  0.85956300  0.28832200  1
  O  O12  1  0.90332400  0.15726300  0.90192400  1
  O  O13  1  0.18904000  0.82212100  0.86854100  1
  O  O14  1  0.55775200  0.43147700  0.87256900  1
  O  O15  1  0.15726300  0.90332400  0.40192400  1
  O  O16  1  0.56852300  0.44224800  0.62743100  1
  O  O17  1  0.82212100  0.18904000  0.36854100  1
  O  O18  1  0.17787900  0.81096000  0.63145900  1
  O  O19  1  0.43147700  0.55775200  0.37256900  1
  O  O20  1  0.84273700  0.09667600  0.59807600  1
  O  O21  1  0.44224800  0.56852300  0.12743100  1
  O  O22  1  0.81096000  0.17787900  0.13145900  1
  O  O23  1  0.09667600  0.84273700  0.09807600  1
  O  O24  1  0.55150000  0.14043700  0.71167800  1
  O  O25  1  0.18814300  0.47642800  0.80195800  1
  O  O26  1  0.49564200  0.18748000  0.53124000  1
  O  O27  1  0.14043700  0.55150000  0.21167800  1
  O  O28  1  0.47642800  0.18814300  0.30195800  1
  O  O29  1  0.18748000  0.49564200  0.03124000  1
  O  O30  1  0.09835000  0.36991500  0.64256700  1
  O  O31  1  0.36991500  0.09835000  0.14256700  1
  O  O32  1  0.24594100  0.08669500  0.96515500  1
  O  O33  1  0.18450600  0.13425200  0.78567000  1
  O  O34  1  0.08669500  0.24594100  0.46515500  1
  O  O35  1  0.13425200  0.18450600  0.28567000  1
loop_
_geom_bond_atom_site_label_1
_geom_bond_atom_site_label_2
_geom_bond_distance
_geom_bond_site_symmetry_2
Li0 O6 2.192164 1_555
Li0 O3 2.252235 1_556
Li0 O29 2.260238 1_656
Li0 O13 2.312417 1_655
Li0 O4 2.440986 1_555
Li0 O25 2.462256 1_655
Li1 O9 2.192164 1_555
Li1 O1 2.252235 1_555
Li1 O26 2.260238 1_565
Li1 O17 2.312417 1_565
Li1 O5 2.440986 1_555
Li1 O28 2.462256 1_565
Li2 O1 2.035086 1_555
Li2 O16 2.314352 1_555
Li2 O9 2.359222 1_555
Li2 O30 2.537498 1_655
Li3 O3 2.035086 1_555
Li3 O21 2.314352 1_555
Li3 O6 2.359222 1_554
Li3 O31 2.537498 1_565
Li4 O32 2.035086 1_555
Li4 O14 2.314352 1_555
Li4 O29 2.359222 1_556
Li4 O4 2.537498 1_545
Li5 O34 2.035086 1_555
Li5 O19 2.314352 1_555
Li5 O26 2.359222 1_555
Li5 O5 2.537498 1_455
Li6 O26 2.192164 1_555
Li6 O34 2.252235 1_555
Li6 O9 2.260238 1_545
Li6 O18 2.312417 1_545
Li6 O30 2.440986 1_555
Li6 O7 2.462256 1_545
Li7 O29 2.192164 1_555
Li7 O32 2.252235 1_554
Li7 O6 2.260238 1_454
Li7 O22 2.312417 1_455
Li7 O31 2.440986 1_555
Li7 O10 2.462256 1_455
O0 P0 1.609926 1_555
O0 P2 1.622772 1_555
O1 P0 1.501826 1_555
O2 P1 1.609926 1_555
O2 P3 1.622772 1_555
O3 P1 1.501826 1_555
O4 P2 1.485323 1_555
O5 P3 1.485323 1_555
O6 P4 1.504454 1_555
O7 P2 1.509325 1_555
O7 V0 2.169576 1_555
O8 P4 1.618435 1_555
O8 P8 1.625195 1_655
O9 P5 1.504454 1_555
O10 P3 1.509325 1_555
O10 V1 2.169576 1_555
O11 P5 1.618435 1_555
O11 P9 1.625195 1_565
O12 P4 1.623453 1_555
O12 P10 1.624995 1_655
O13 P10 1.502257 1_565
O13 V0 2.224964 1_555
O14 P4 1.504823 1_555
O14 V0 2.271145 1_555
O15 P5 1.623453 1_555
O15 P11 1.624995 1_565
O16 P6 1.504823 1_555
O16 V0 2.271145 1_555
O17 P11 1.502257 1_655
O17 V1 2.224964 1_555
O18 P0 1.502257 1_455
O18 V0 2.224964 1_555
O19 P5 1.504823 1_555
O19 V1 2.271145 1_555
O20 P6 1.623453 1_555
O20 P0 1.624995 1_545
O21 P7 1.504823 1_555
O21 V1 2.271145 1_555
O22 P1 1.502257 1_545
O22 V1 2.224964 1_555
O23 P7 1.623453 1_555
O23 P1 1.624995 1_455
O24 P6 1.618435 1_555
O24 P2 1.625195 1_545
O25 P8 1.509325 1_555
O25 V0 2.169576 1_555
O26 P6 1.504454 1_555
O27 P7 1.618435 1_555
O27 P3 1.625195 1_455
O28 P9 1.509325 1_555
O28 V1 2.169576 1_555
O29 P7 1.504454 1_555
O30 P8 1.485323 1_555
O31 P9 1.485323 1_555
O32 P10 1.501826 1_555
O33 P10 1.609926 1_555
O33 P8 1.622772 1_555
O34 P11 1.501826 1_555
O35 P11 1.609926 1_555
O35 P9 1.622772 1_555
