# generated using pymatgen
data_Li5Ti2Fe3O10
_symmetry_space_group_name_H-M   'P 1'
_cell_length_a   5.16799800
_cell_length_b   5.23842948
_cell_length_c   7.84074358
_cell_angle_alpha   72.01849253
_cell_angle_beta   71.10450618
_cell_angle_gamma   80.07530027
_symmetry_Int_Tables_number   1
_chemical_formula_structural   Li5Ti2Fe3O10
_chemical_formula_sum   'Li5 Ti2 Fe3 O10'
_cell_volume   190.39924141
_cell_formula_units_Z   1
loop_
 _symmetry_equiv_pos_site_id
 _symmetry_equiv_pos_as_xyz
  1  'x, y, z'
loop_
 _atom_site_type_symbol
 _atom_site_label
 _atom_site_symmetry_multiplicity
 _atom_site_fract_x
 _atom_site_fract_y
 _atom_site_fract_z
 _atom_site_occupancy
  Li  Li0  1  0.49483700  0.77990100  0.40504300  1
  Li  Li1  1  0.51367100  0.60036400  0.79011200  1
  Li  Li2  1  0.00000000  0.50000000  0.50000000  1
  Li  Li3  1  0.50516300  0.22009900  0.59495700  1
  Li  Li4  1  0.48632900  0.39963600  0.20988800  1
  Ti  Ti0  1  0.02183200  0.90424600  0.69420000  1
  Ti  Ti1  1  0.97816800  0.09575400  0.30580000  1
  Fe  Fe0  1  0.50000000  0.00000000  0.00000000  1
  Fe  Fe1  1  0.00087300  0.68743800  0.10614900  1
  Fe  Fe2  1  0.99912700  0.31256200  0.89385100  1
  O  O0  1  0.24521800  0.95123100  0.84579100  1
  O  O1  1  0.78147500  0.86581100  0.53990600  1
  O  O2  1  0.74972800  0.68461000  0.93304000  1
  O  O3  1  0.25278300  0.78414400  0.24013400  1
  O  O4  1  0.22885200  0.57693800  0.66032300  1
  O  O5  1  0.77114800  0.42306200  0.33967700  1
  O  O6  1  0.74721700  0.21585600  0.75986600  1
  O  O7  1  0.25027200  0.31539000  0.06696000  1
  O  O8  1  0.21852500  0.13418900  0.46009400  1
  O  O9  1  0.75478200  0.04876900  0.15420900  1
loop_
_geom_bond_atom_site_label_1
_geom_bond_atom_site_label_2
_geom_bond_distance
_geom_bond_site_symmetry_2
Li0 O3 2.063368 1_555
Li0 O4 2.105735 1_555
Li0 O8 2.202657 1_565
Li0 O9 2.210689 1_565
Li0 O5 2.234581 1_555
Li0 O1 2.247937 1_555
Li1 O2 2.077335 1_555
Li1 O4 2.080101 1_555
Li1 O0 2.172032 1_555
Li1 O6 2.200364 1_555
Li1 O1 2.217713 1_555
Li1 O7 2.362064 1_556
Li2 O8 2.107310 1_555
Li2 O1 2.107310 1_455
Li2 O4 2.140434 1_555
Li2 O5 2.140434 1_455
Li2 O6 2.268810 1_455
Li2 O3 2.268810 1_555
Li3 O6 2.063368 1_555
Li3 O5 2.105735 1_555
Li3 O1 2.202657 1_545
Li3 O0 2.210689 1_545
Li3 O4 2.234581 1_555
Li3 O8 2.247937 1_555
Li4 O7 2.077335 1_555
Li4 O5 2.080101 1_555
Li4 O9 2.172032 1_555
Li4 O3 2.200364 1_555
Li4 O8 2.217713 1_555
Li4 O2 2.362064 1_554
Fe0 O2 2.008123 1_544
Fe0 O7 2.008123 1_555
Fe0 O3 2.020248 1_545
Fe0 O6 2.020248 1_554
Fe0 O9 2.144476 1_555
Fe0 O0 2.144476 1_544
Fe1 O5 2.067195 1_455
Fe1 O3 2.120585 1_555
Fe1 O9 2.154614 1_465
Fe1 O2 2.164978 1_454
Fe1 O7 2.191208 1_555
Fe1 O0 2.204912 1_554
Fe2 O4 2.067195 1_655
Fe2 O6 2.120585 1_555
Fe2 O0 2.154614 1_645
Fe2 O7 2.164978 1_656
Fe2 O2 2.191208 1_555
Fe2 O9 2.204912 1_556
O0 Ti0 1.993338 1_555
O1 Ti1 1.924047 1_565
O1 Ti0 2.063246 1_655
O2 Ti0 2.080859 1_655
O3 Ti1 2.047164 1_465
O4 Ti0 1.902572 1_555
O5 Ti1 1.902572 1_555
O6 Ti0 2.047164 1_645
O7 Ti1 2.080859 1_455
O8 Ti0 1.924047 1_545
O8 Ti1 2.063246 1_455
O9 Ti1 1.993338 1_555
