# generated using pymatgen
data_U2AlCu3
_symmetry_space_group_name_H-M   'P 1'
_cell_length_a   5.45124419
_cell_length_b   5.45124419
_cell_length_c   7.67106100
_cell_angle_alpha   90.00000000
_cell_angle_beta   90.00000000
_cell_angle_gamma   120.00000225
_symmetry_Int_Tables_number   1
_chemical_formula_structural   U2AlCu3
_chemical_formula_sum   'U4 Al2 Cu6'
_cell_volume   197.41371939
_cell_formula_units_Z   2
loop_
 _symmetry_equiv_pos_site_id
 _symmetry_equiv_pos_as_xyz
  1  'x, y, z'
loop_
 _atom_site_type_symbol
 _atom_site_label
 _atom_site_symmetry_multiplicity
 _atom_site_fract_x
 _atom_site_fract_y
 _atom_site_fract_z
 _atom_site_occupancy
  U  U0  1  0.33333300  0.66666700  0.41429400  1
  U  U1  1  0.66666700  0.33333300  0.91429400  1
  U  U2  1  0.66666700  0.33333300  0.58570600  1
  U  U3  1  0.33333300  0.66666700  0.08570600  1
  Al  Al0  1  0.00000000  0.00000000  0.50000000  1
  Al  Al1  1  0.00000000  0.00000000  0.00000000  1
  Cu  Cu0  1  0.17480900  0.82519100  0.75000000  1
  Cu  Cu1  1  0.34961800  0.17480900  0.25000000  1
  Cu  Cu2  1  0.82519100  0.17480900  0.25000000  1
  Cu  Cu3  1  0.65038200  0.82519100  0.75000000  1
  Cu  Cu4  1  0.17480900  0.34961800  0.75000000  1
  Cu  Cu5  1  0.82519100  0.65038200  0.25000000  1
loop_
_geom_bond_atom_site_label_1
_geom_bond_atom_site_label_2
_geom_bond_distance
_geom_bond_site_symmetry_2
U0 U3 2.520619 1_555
U1 U2 2.520619 1_555
Al0 Cu3 2.530223 1_445
Al0 Cu1 2.530223 1_555
Al0 Cu4 2.530223 1_555
Al0 Cu5 2.530223 1_445
Al0 Cu2 2.530223 1_455
Al0 Cu0 2.530223 1_545
Al1 Cu1 2.530223 1_555
Al1 Cu3 2.530223 1_444
Al1 Cu5 2.530223 1_445
Al1 Cu4 2.530223 1_554
Al1 Cu2 2.530223 1_455
Al1 Cu0 2.530223 1_544
Cu0 Cu4 2.592465 1_555
Cu0 Cu3 2.592465 1_555
Cu0 Cu3 2.858780 1_455
Cu0 Cu4 2.858780 1_565
Cu0 U3 2.978598 1_556
Cu0 U0 2.978598 1_555
Cu0 U1 3.003882 1_455
Cu0 U2 3.003882 1_455
Cu0 U1 3.003882 1_565
Cu0 U2 3.003882 1_565
Cu1 Cu5 2.592464 1_555
Cu1 Cu2 2.592465 1_555
Cu1 Cu5 2.858780 1_445
Cu1 Cu2 2.858780 1_455
Cu1 U2 2.978600 1_555
Cu1 U1 2.978600 1_554
Cu1 U0 3.003879 1_545
Cu1 U3 3.003879 1_545
Cu1 U0 3.003884 1_555
Cu1 U3 3.003884 1_555
Cu2 Cu5 2.592465 1_555
Cu2 Cu5 2.858780 1_545
Cu2 U2 2.978598 1_555
Cu2 U1 2.978598 1_554
Cu2 U3 3.003882 1_545
Cu2 U0 3.003882 1_545
Cu2 U0 3.003882 1_655
Cu2 U3 3.003882 1_655
Cu3 Cu4 2.592464 1_555
Cu3 Cu4 2.858780 1_665
Cu3 U3 2.978600 1_556
Cu3 U0 2.978600 1_555
Cu3 U1 3.003879 1_565
Cu3 U2 3.003879 1_565
Cu3 U1 3.003884 1_555
Cu3 U2 3.003884 1_555
Cu4 U3 2.978600 1_556
Cu4 U0 2.978600 1_555
Cu4 U1 3.003879 1_455
Cu4 U2 3.003879 1_455
Cu4 U1 3.003884 1_555
Cu4 U2 3.003884 1_555
Cu5 U2 2.978600 1_555
Cu5 U1 2.978600 1_554
Cu5 U0 3.003879 1_655
Cu5 U3 3.003879 1_655
Cu5 U0 3.003884 1_555
Cu5 U3 3.003884 1_555
