# generated using pymatgen
data_LiVTeO5
_symmetry_space_group_name_H-M   'P 1'
_cell_length_a   6.45128800
_cell_length_b   7.96079000
_cell_length_c   8.57365700
_cell_angle_alpha   90.00000000
_cell_angle_beta   90.00000000
_cell_angle_gamma   90.00000000
_symmetry_Int_Tables_number   1
_chemical_formula_structural   LiVTeO5
_chemical_formula_sum   'Li4 V4 Te4 O20'
_cell_volume   440.32029473
_cell_formula_units_Z   4
loop_
 _symmetry_equiv_pos_site_id
 _symmetry_equiv_pos_as_xyz
  1  'x, y, z'
loop_
 _atom_site_type_symbol
 _atom_site_label
 _atom_site_symmetry_multiplicity
 _atom_site_fract_x
 _atom_site_fract_y
 _atom_site_fract_z
 _atom_site_occupancy
  Li  Li0  1  0.00000000  0.00000000  0.00000000  1
  Li  Li1  1  0.50000000  0.00000000  0.00000000  1
  Li  Li2  1  0.00000000  0.50000000  0.50000000  1
  Li  Li3  1  0.50000000  0.50000000  0.50000000  1
  V  V0  1  0.25000000  0.73509300  0.19877300  1
  V  V1  1  0.75000000  0.23509300  0.30122700  1
  V  V2  1  0.25000000  0.76490700  0.69877300  1
  V  V3  1  0.75000000  0.26490700  0.80122700  1
  Te  Te0  1  0.75000000  0.63150900  0.14415300  1
  Te  Te1  1  0.25000000  0.13150900  0.35584700  1
  Te  Te2  1  0.75000000  0.86849100  0.64415300  1
  Te  Te3  1  0.25000000  0.36849100  0.85584700  1
  O  O0  1  0.25000000  0.53851400  0.13819900  1
  O  O1  1  0.75000000  0.21648400  0.10544000  1
  O  O2  1  0.53423700  0.79794100  0.15690600  1
  O  O3  1  0.96576300  0.79794100  0.15690600  1
  O  O4  1  0.25000000  0.03967400  0.15210400  1
  O  O5  1  0.75000000  0.53967400  0.34789600  1
  O  O6  1  0.03423700  0.29794100  0.34309400  1
  O  O7  1  0.46576300  0.29794100  0.34309400  1
  O  O8  1  0.25000000  0.71648400  0.39456000  1
  O  O9  1  0.75000000  0.03851400  0.36180100  1
  O  O10  1  0.25000000  0.96148600  0.63819900  1
  O  O11  1  0.75000000  0.28351600  0.60544000  1
  O  O12  1  0.53423700  0.70205900  0.65690600  1
  O  O13  1  0.96576300  0.70205900  0.65690600  1
  O  O14  1  0.25000000  0.46032600  0.65210400  1
  O  O15  1  0.75000000  0.96032600  0.84789600  1
  O  O16  1  0.03423700  0.20205900  0.84309400  1
  O  O17  1  0.46576300  0.20205900  0.84309400  1
  O  O18  1  0.25000000  0.78351600  0.89456000  1
  O  O19  1  0.75000000  0.46148600  0.86180100  1
loop_
_geom_bond_atom_site_label_1
_geom_bond_atom_site_label_2
_geom_bond_distance
_geom_bond_site_symmetry_2
Li0 O4 2.097997 1_555
Li0 O15 2.097997 1_444
Li0 O16 2.108539 1_554
Li0 O3 2.108539 1_445
Li0 O18 2.527543 1_544
Li0 O1 2.527543 1_455
Li1 O4 2.097997 1_555
Li1 O15 2.097997 1_544
Li1 O17 2.108539 1_554
Li1 O2 2.108539 1_545
Li1 O18 2.527543 1_544
Li1 O1 2.527543 1_555
Li2 O5 2.097997 1_455
Li2 O14 2.097997 1_555
Li2 O6 2.108539 1_555
Li2 O13 2.108539 1_455
Li2 O11 2.527543 1_455
Li2 O8 2.527543 1_555
Li3 O14 2.097997 1_555
Li3 O5 2.097997 1_555
Li3 O7 2.108539 1_555
Li3 O12 2.108539 1_555
Li3 O11 2.527543 1_555
Li3 O8 2.527543 1_555
O0 V0 1.648849 1_555
O1 V1 1.685135 1_555
O2 Te0 1.924816 1_555
O2 V0 1.934323 1_555
O3 Te0 1.924816 1_555
O3 V0 1.934323 1_655
O4 Te1 1.893638 1_555
O4 V0 2.457498 1_545
O5 Te0 1.893638 1_555
O5 V1 2.457498 1_555
O6 Te1 1.924816 1_555
O6 V1 1.934323 1_455
O7 Te1 1.924816 1_555
O7 V1 1.934323 1_555
O8 V0 1.685135 1_555
O9 V1 1.648849 1_555
O10 V2 1.648849 1_555
O11 V3 1.685135 1_555
O12 Te2 1.924816 1_555
O12 V2 1.934323 1_555
O13 Te2 1.924816 1_555
O13 V2 1.934323 1_655
O14 Te3 1.893638 1_555
O14 V2 2.457498 1_555
O15 Te2 1.893638 1_555
O15 V3 2.457498 1_565
O16 Te3 1.924816 1_555
O16 V3 1.934323 1_455
O17 Te3 1.924816 1_555
O17 V3 1.934323 1_555
O18 V2 1.685135 1_555
O19 V3 1.648849 1_555
