# generated using pymatgen
data_Li2CoSiO4
_symmetry_space_group_name_H-M   'P 1'
_cell_length_a   5.03078200
_cell_length_b   6.30329800
_cell_length_c   10.82277300
_cell_angle_alpha   90.00000000
_cell_angle_beta   90.00000000
_cell_angle_gamma   90.00000000
_symmetry_Int_Tables_number   1
_chemical_formula_structural   Li2CoSiO4
_chemical_formula_sum   'Li8 Co4 Si4 O16'
_cell_volume   343.19573931
_cell_formula_units_Z   4
loop_
 _symmetry_equiv_pos_site_id
 _symmetry_equiv_pos_as_xyz
  1  'x, y, z'
loop_
 _atom_site_type_symbol
 _atom_site_label
 _atom_site_symmetry_multiplicity
 _atom_site_fract_x
 _atom_site_fract_y
 _atom_site_fract_z
 _atom_site_occupancy
  Li  Li0  1  0.69475300  0.86753600  0.09170000  1
  Li  Li1  1  0.19119600  0.11565900  0.17143700  1
  Li  Li2  1  0.69119600  0.61565900  0.32856300  1
  Li  Li3  1  0.19475300  0.36753600  0.40830000  1
  Li  Li4  1  0.80524700  0.86753600  0.59170000  1
  Li  Li5  1  0.30880400  0.11565900  0.67143700  1
  Li  Li6  1  0.80880400  0.61565900  0.82856300  1
  Li  Li7  1  0.30524700  0.36753600  0.90830000  1
  Co  Co0  1  0.19525700  0.86116800  0.41235500  1
  Co  Co1  1  0.30474300  0.86116800  0.91235500  1
  Co  Co2  1  0.69525700  0.36116800  0.08764500  1
  Co  Co3  1  0.80474300  0.36116800  0.58764500  1
  Si  Si0  1  0.18442900  0.61492400  0.16362200  1
  Si  Si1  1  0.68442900  0.11492400  0.33637800  1
  Si  Si2  1  0.31557100  0.61492400  0.66362200  1
  Si  Si3  1  0.81557100  0.11492400  0.83637800  1
  O  O0  1  0.29240900  0.83250900  0.09457400  1
  O  O1  1  0.28877500  0.39782800  0.09244100  1
  O  O2  1  0.85541100  0.61465800  0.16122400  1
  O  O3  1  0.79467100  0.11536700  0.19124300  1
  O  O4  1  0.29467100  0.61536700  0.30875700  1
  O  O5  1  0.35541100  0.11465800  0.33877600  1
  O  O6  1  0.78877500  0.89782800  0.40755900  1
  O  O7  1  0.79240900  0.33250900  0.40542600  1
  O  O8  1  0.20759100  0.83250900  0.59457400  1
  O  O9  1  0.21122500  0.39782800  0.59244100  1
  O  O10  1  0.64458900  0.61465800  0.66122400  1
  O  O11  1  0.70532900  0.11536700  0.69124300  1
  O  O12  1  0.20532900  0.61536700  0.80875700  1
  O  O13  1  0.14458900  0.11465800  0.83877600  1
  O  O14  1  0.71122500  0.89782800  0.90755900  1
  O  O15  1  0.70759100  0.33250900  0.90542600  1
loop_
_geom_bond_atom_site_label_1
_geom_bond_atom_site_label_2
_geom_bond_distance
_geom_bond_site_symmetry_2
Li0 O2 1.939108 1_555
Li0 O3 1.963068 1_565
Li0 O14 2.003756 1_554
Li0 O0 2.036348 1_555
Li1 O5 1.990606 1_555
Li1 O3 2.006315 1_455
Li1 O1 2.033552 1_555
Li1 O0 2.033890 1_545
Li2 O2 1.990606 1_555
Li2 O4 2.006315 1_555
Li2 O6 2.033552 1_555
Li2 O7 2.033890 1_555
Li3 O5 1.939108 1_555
Li3 O4 1.963068 1_555
Li3 O9 2.003756 1_555
Li3 O7 2.036348 1_455
Li4 O10 1.939108 1_555
Li4 O11 1.963068 1_565
Li4 O6 2.003756 1_555
Li4 O8 2.036348 1_655
Li5 O13 1.990606 1_555
Li5 O11 2.006315 1_555
Li5 O9 2.033552 1_555
Li5 O8 2.033890 1_545
Li6 O10 1.990606 1_555
Li6 O12 2.006315 1_655
Li6 O14 2.033552 1_555
Li6 O15 2.033890 1_555
Li7 O13 1.939108 1_555
Li7 O12 1.963068 1_555
Li7 O1 2.003756 1_556
Li7 O15 2.036348 1_555
Co0 O5 1.958655 1_565
Co0 O4 1.976807 1_555
Co0 O8 1.981343 1_555
Co0 O6 2.058592 1_455
Co1 O13 1.958655 1_565
Co1 O12 1.976807 1_555
Co1 O0 1.981343 1_556
Co1 O14 2.058592 1_555
Co2 O2 1.958655 1_555
Co2 O3 1.976807 1_555
Co2 O15 1.981343 1_554
Co2 O1 2.058592 1_555
Co3 O10 1.958655 1_555
Co3 O11 1.976807 1_555
Co3 O7 1.981343 1_555
Co3 O9 2.058592 1_655
O0 Si0 1.653649 1_555
O1 Si0 1.655783 1_555
O2 Si0 1.655422 1_655
O3 Si1 1.665800 1_555
O4 Si0 1.665800 1_555
O5 Si1 1.655422 1_555
O6 Si1 1.655783 1_565
O7 Si1 1.653649 1_555
O8 Si2 1.653649 1_555
O9 Si2 1.655783 1_555
O10 Si2 1.655422 1_555
O11 Si3 1.665800 1_555
O12 Si2 1.665800 1_555
O13 Si3 1.655422 1_455
O14 Si3 1.655783 1_565
O15 Si3 1.653649 1_555
