# generated using pymatgen
data_NaV13O18
_symmetry_space_group_name_H-M   'P 1'
_cell_length_a   8.01107483
_cell_length_b   7.94158444
_cell_length_c   7.95189804
_cell_angle_alpha   110.96574575
_cell_angle_beta   111.59437768
_cell_angle_gamma   110.63615912
_symmetry_Int_Tables_number   1
_chemical_formula_structural   NaV13O18
_chemical_formula_sum   'Na1 V13 O18'
_cell_volume   364.63569334
_cell_formula_units_Z   1
loop_
 _symmetry_equiv_pos_site_id
 _symmetry_equiv_pos_as_xyz
  1  'x, y, z'
loop_
 _atom_site_type_symbol
 _atom_site_label
 _atom_site_symmetry_multiplicity
 _atom_site_fract_x
 _atom_site_fract_y
 _atom_site_fract_z
 _atom_site_occupancy
  Na  Na0  1  0.00009900  0.99960500  0.99943900  1
  V  V0  1  0.08149300  0.87836400  0.58048400  1
  V  V1  1  0.42697100  0.93030800  0.12901000  1
  V  V2  1  0.34550900  0.76973400  0.40098400  1
  V  V3  1  0.22617200  0.59782100  0.64590500  1
  V  V4  1  0.12072600  0.42468500  0.92312900  1
  V  V5  1  0.60556400  0.65077600  0.23142400  1
  V  V6  1  0.49285500  0.50355100  0.49985900  1
  V  V7  1  0.40236600  0.34865200  0.77001200  1
  V  V8  1  0.88274800  0.57797600  0.07846800  1
  V  V9  1  0.76325300  0.40250600  0.34647500  1
  V  V10  1  0.64086100  0.21856300  0.58773900  1
  V  V11  1  0.58353800  0.08033300  0.87913100  1
  V  V12  1  0.92457400  0.12073300  0.42393000  1
  O  O0  1  0.28980200  0.90390500  0.84291900  1
  O  O1  1  0.15047000  0.71392300  0.09207100  1
  O  O2  1  0.04721700  0.60625500  0.37450700  1
  O  O3  1  0.62554600  0.94388600  0.39151600  1
  O  O4  1  0.52016600  0.77985800  0.68205000  1
  O  O5  1  0.38593000  0.60917000  0.93749600  1
  O  O6  1  0.32669600  0.48424700  0.22183300  1
  O  O7  1  0.21374400  0.31599600  0.48560800  1
  O  O8  1  0.11420300  0.16577500  0.72848000  1
  O  O9  1  0.90678200  0.84739500  0.28715700  1
  O  O10  1  0.78287800  0.67133700  0.52164300  1
  O  O11  1  0.66780200  0.50889900  0.78218900  1
  O  O12  1  0.61515400  0.38157100  0.05835700  1
  O  O13  1  0.47965400  0.22363500  0.31881600  1
  O  O14  1  0.38080400  0.06523200  0.61683700  1
  O  O15  1  0.93380500  0.38609000  0.60847000  1
  O  O16  1  0.84082200  0.27696500  0.89203000  1
  O  O17  1  0.72179200  0.11225200  0.16203000  1
loop_
_geom_bond_atom_site_label_1
_geom_bond_atom_site_label_2
_geom_bond_distance
_geom_bond_site_symmetry_2
O0 V0 2.018930 1_555
O0 V1 2.020667 1_556
O0 V3 2.106310 1_555
O0 V11 2.114683 1_565
O1 V8 1.972498 1_455
O1 V4 2.075591 1_554
O1 V1 2.103015 1_555
O1 V2 2.139975 1_555
O2 V0 2.036110 1_555
O2 V8 2.111435 1_455
O2 V3 2.147338 1_555
O2 V9 2.148712 1_455
O2 V2 2.165066 1_555
O3 V1 2.042884 1_555
O3 V10 2.107796 1_565
O3 V5 2.128719 1_555
O3 V12 2.166219 1_565
O3 V2 2.227813 1_555
O4 V6 2.028572 1_555
O4 V11 2.071770 1_565
O4 V2 2.109441 1_555
O4 V3 2.126966 1_555
O5 V4 2.044723 1_555
O5 V7 2.102565 1_555
O5 V3 2.146462 1_555
O5 V5 2.162970 1_556
O5 V1 2.278724 1_556
O6 V6 2.032393 1_555
O6 V4 2.085482 1_554
O6 V5 2.113198 1_555
O6 V2 2.117125 1_555
O7 V12 2.024606 1_455
O7 V7 2.062486 1_555
O7 V3 2.086118 1_555
O7 V6 2.139202 1_555
O8 V0 2.023016 1_545
O8 V4 2.052680 1_555
O8 V7 2.068785 1_555
O8 V12 2.142355 1_455
O9 V12 1.973220 1_565
O9 V8 2.074226 1_555
O9 V0 2.098541 1_655
O9 V5 2.125854 1_555
O10 V9 1.999258 1_555
O10 V0 2.120872 1_655
O10 V5 2.127020 1_555
O10 V6 2.135436 1_555
O11 V7 2.000856 1_555
O11 V8 2.059084 1_556
O11 V6 2.140122 1_555
O11 V10 2.146180 1_555
O12 V8 2.065494 1_555
O12 V9 2.066863 1_555
O12 V5 2.135093 1_555
O12 V7 2.147437 1_554
O12 V11 2.164661 1_554
O13 V1 2.050540 1_545
O13 V10 2.075555 1_555
O13 V9 2.088471 1_555
O13 V6 2.111258 1_555
O14 V7 2.046641 1_555
O14 V11 2.047616 1_555
O14 V10 2.155205 1_555
O14 V0 2.170246 1_545
O14 V2 2.196762 1_545
O15 V12 2.048678 1_555
O15 V9 2.109234 1_555
O15 V10 2.159212 1_555
O15 V3 2.180456 1_655
O15 V4 2.228615 1_655
O16 V4 1.998872 1_655
O16 V11 2.039201 1_555
O16 V10 2.110978 1_555
O16 V8 2.134623 1_556
O17 V11 1.977792 1_554
O17 V9 2.063309 1_555
O17 V12 2.076781 1_555
O17 V1 2.145125 1_545
