# generated using pymatgen
data_Li4CrNi3O8
_symmetry_space_group_name_H-M   'P 1'
_cell_length_a   10.14052695
_cell_length_b   10.14082312
_cell_length_c   14.35385041
_cell_angle_alpha   19.35427186
_cell_angle_beta   19.35434683
_cell_angle_gamma   33.34303536
_symmetry_Int_Tables_number   1
_chemical_formula_structural   Li4CrNi3O8
_chemical_formula_sum   'Li4 Cr1 Ni3 O8'
_cell_volume   140.51924075
_cell_formula_units_Z   1
loop_
 _symmetry_equiv_pos_site_id
 _symmetry_equiv_pos_as_xyz
  1  'x, y, z'
loop_
 _atom_site_type_symbol
 _atom_site_label
 _atom_site_symmetry_multiplicity
 _atom_site_fract_x
 _atom_site_fract_y
 _atom_site_fract_z
 _atom_site_occupancy
  Li  Li0  1  0.00000000  0.99999900  0.49999900  1
  Li  Li1  1  0.99999800  0.49999600  0.50000500  1
  Li  Li2  1  0.49999900  0.99999900  0.50000100  1
  Li  Li3  1  0.50000000  0.50000100  0.49999900  1
  Cr  Cr0  1  0.99998000  0.00001100  0.00001300  1
  Ni  Ni0  1  0.00000800  0.50000900  0.99998600  1
  Ni  Ni1  1  0.50000100  0.99999900  0.99999800  1
  Ni  Ni2  1  0.49999900  0.49999300  0.00000200  1
  O  O0  1  0.00058600  0.00064100  0.26467700  1
  O  O1  1  0.00059600  0.52160500  0.24142800  1
  O  O2  1  0.52157500  0.00058700  0.24145000  1
  O  O3  1  0.99941300  0.99936200  0.73531700  1
  O  O4  1  0.47844900  0.47837400  0.28512500  1
  O  O5  1  0.99940900  0.47839900  0.75856700  1
  O  O6  1  0.47844300  0.99941000  0.75854300  1
  O  O7  1  0.52154400  0.52161300  0.71489100  1
loop_
_geom_bond_atom_site_label_1
_geom_bond_atom_site_label_2
_geom_bond_distance
_geom_bond_site_symmetry_2
Li0 O6 2.172265 1_455
Li0 O2 2.172369 1_565
Li0 O5 2.172553 1_455
Li0 O1 2.172600 1_565
Li0 O7 2.177514 1_564
Li0 O4 2.177590 1_456
Li1 O7 2.088499 1_555
Li1 O4 2.088504 1_655
Li1 O2 2.089765 1_556
Li1 O6 2.089791 1_654
Li1 O0 2.199502 1_665
Li1 O3 2.199539 1_545
Li2 O7 2.088325 1_555
Li2 O4 2.088333 1_565
Li2 O1 2.089769 1_556
Li2 O5 2.089771 1_564
Li2 O0 2.199172 1_665
Li2 O3 2.199213 1_455
Li3 O5 2.088994 1_455
Li3 O1 2.089019 1_655
Li3 O2 2.089111 1_565
Li3 O6 2.089114 1_545
Li3 O0 2.200220 1_556
Li3 O3 2.200257 1_554
Cr0 O5 1.952189 1_554
Cr0 O2 1.952271 1_555
Cr0 O6 1.952377 1_644
Cr0 O1 1.952407 1_645
Cr0 O7 1.953578 1_545
Cr0 O4 1.953667 1_654
Ni0 O3 1.940716 1_455
Ni0 O0 1.940730 1_556
Ni0 O4 2.041953 1_456
Ni0 O7 2.041992 1_555
Ni0 O2 2.046963 1_565
Ni0 O6 2.047052 1_446
Ni1 O3 1.940835 1_555
Ni1 O0 1.940856 1_566
Ni1 O4 2.042370 1_556
Ni1 O7 2.042402 1_565
Ni1 O1 2.047018 1_665
Ni1 O5 2.047044 1_456
Ni2 O3 1.946572 1_445
Ni2 O0 1.946583 1_664
Ni2 O1 2.041209 1_555
Ni2 O5 2.041262 1_554
Ni2 O2 2.041310 1_555
Ni2 O6 2.041387 1_554
