# generated using pymatgen
data_Li2Cr3SnO8
_symmetry_space_group_name_H-M   'P 1'
_cell_length_a   5.94847128
_cell_length_b   5.94847128
_cell_length_c   5.94847136
_cell_angle_alpha   60.93848821
_cell_angle_beta   60.93848821
_cell_angle_gamma   60.93849537
_symmetry_Int_Tables_number   1
_chemical_formula_structural   Li2Cr3SnO8
_chemical_formula_sum   'Li2 Cr3 Sn1 O8'
_cell_volume   151.98120266
_cell_formula_units_Z   1
loop_
 _symmetry_equiv_pos_site_id
 _symmetry_equiv_pos_as_xyz
  1  'x, y, z'
loop_
 _atom_site_type_symbol
 _atom_site_label
 _atom_site_symmetry_multiplicity
 _atom_site_fract_x
 _atom_site_fract_y
 _atom_site_fract_z
 _atom_site_occupancy
  Li  Li0  1  0.87731800  0.87731800  0.87731800  1
  Li  Li1  1  0.50279800  0.50279800  0.50279800  1
  Cr  Cr0  1  0.50293800  0.98322400  0.50293800  1
  Cr  Cr1  1  0.50293800  0.50293800  0.98322400  1
  Cr  Cr2  1  0.98322400  0.50293800  0.50293800  1
  Sn  Sn0  1  0.11403900  0.11403900  0.11403900  1
  O  O0  1  0.73801000  0.73801000  0.73801000  1
  O  O1  1  0.28361100  0.75399100  0.75399100  1
  O  O2  1  0.75399100  0.75399100  0.28361100  1
  O  O3  1  0.75399100  0.28361100  0.75399100  1
  O  O4  1  0.26012200  0.71153800  0.26012200  1
  O  O5  1  0.26012200  0.26012200  0.71153800  1
  O  O6  1  0.71153800  0.26012200  0.26012200  1
  O  O7  1  0.25535600  0.25535600  0.25535600  1
loop_
_geom_bond_atom_site_label_1
_geom_bond_atom_site_label_2
_geom_bond_distance
_geom_bond_site_symmetry_2
Li0 O2 1.998826 1_556
Li0 O3 1.998826 1_565
Li0 O1 1.998826 1_655
Li0 O0 2.015302 1_555
Li1 O5 2.061847 1_555
Li1 O4 2.061848 1_555
Li1 O6 2.061848 1_555
Li1 O2 2.132843 1_555
Li1 O3 2.132844 1_555
Li1 O1 2.132844 1_555
Cr0 O1 1.910201 1_555
Cr0 O2 1.910202 1_555
Cr0 O0 1.993684 1_555
Cr0 O6 2.066904 1_565
Cr0 O5 2.066904 1_565
Cr0 O7 2.105541 1_565
Cr1 O3 1.910202 1_555
Cr1 O1 1.910202 1_555
Cr1 O0 1.993683 1_555
Cr1 O6 2.066904 1_556
Cr1 O4 2.066904 1_556
Cr1 O7 2.105541 1_556
Cr2 O3 1.910201 1_555
Cr2 O2 1.910202 1_555
Cr2 O0 1.993684 1_555
Cr2 O4 2.066904 1_655
Cr2 O5 2.066904 1_655
Cr2 O7 2.105541 1_655
O4 Sn0 1.983388 1_565
O5 Sn0 1.983388 1_556
O6 Sn0 1.983388 1_655
O7 Sn0 2.044365 1_555
