# generated using pymatgen
data_Li4Si3(NiO5)2
_symmetry_space_group_name_H-M   'P 1'
_cell_length_a   5.30826046
_cell_length_b   5.30826046
_cell_length_c   16.68138250
_cell_angle_alpha   82.92518220
_cell_angle_beta   82.92518220
_cell_angle_gamma   61.97234312
_symmetry_Int_Tables_number   1
_chemical_formula_structural   Li4Si3(NiO5)2
_chemical_formula_sum   'Li8 Si6 Ni4 O20'
_cell_volume   410.61135976
_cell_formula_units_Z   2
loop_
 _symmetry_equiv_pos_site_id
 _symmetry_equiv_pos_as_xyz
  1  'x, y, z'
loop_
 _atom_site_type_symbol
 _atom_site_label
 _atom_site_symmetry_multiplicity
 _atom_site_fract_x
 _atom_site_fract_y
 _atom_site_fract_z
 _atom_site_occupancy
  Li  Li0  1  0.83111100  0.67786800  0.94659100  1
  Li  Li1  1  0.57636700  0.79321200  0.76979100  1
  Li  Li2  1  0.67786800  0.83111100  0.44659100  1
  Li  Li3  1  0.79321200  0.57636700  0.26979100  1
  Li  Li4  1  0.20678800  0.42363300  0.73020900  1
  Li  Li5  1  0.32213200  0.16888900  0.55340900  1
  Li  Li6  1  0.42363300  0.20678800  0.23020900  1
  Li  Li7  1  0.16888900  0.32213200  0.05340900  1
  Si  Si0  1  0.66180800  0.46956500  0.59805700  1
  Si  Si1  1  0.88681700  0.11318300  0.75000000  1
  Si  Si2  1  0.53043500  0.33819200  0.90194300  1
  Si  Si3  1  0.46956500  0.66180800  0.09805700  1
  Si  Si4  1  0.11318300  0.88681700  0.25000000  1
  Si  Si5  1  0.33819200  0.53043500  0.40194300  1
  Ni  Ni0  1  0.19365200  0.00069700  0.91901600  1
  Ni  Ni1  1  0.00069700  0.19365200  0.41901600  1
  Ni  Ni2  1  0.99930300  0.80634800  0.58098400  1
  Ni  Ni3  1  0.80634800  0.99930300  0.08098400  1
  O  O0  1  0.92338900  0.84019400  0.70736900  1
  O  O1  1  0.84019400  0.92338900  0.20736900  1
  O  O2  1  0.63020800  0.78335900  0.56551300  1
  O  O3  1  0.55306300  0.63751800  0.88994300  1
  O  O4  1  0.79081300  0.40967300  0.68888600  1
  O  O5  1  0.78400200  0.08743800  0.95494500  1
  O  O6  1  0.91256200  0.21599800  0.54505500  1
  O  O7  1  0.78335900  0.63020800  0.06551300  1
  O  O8  1  0.63751800  0.55306300  0.38994300  1
  O  O9  1  0.59032700  0.20918700  0.81111400  1
  O  O10  1  0.40967300  0.79081300  0.18888600  1
  O  O11  1  0.36248200  0.44693700  0.61005700  1
  O  O12  1  0.21664100  0.36979200  0.93448700  1
  O  O13  1  0.08743800  0.78400200  0.45494500  1
  O  O14  1  0.21599800  0.91256200  0.04505500  1
  O  O15  1  0.20918700  0.59032700  0.31111400  1
  O  O16  1  0.44693700  0.36248200  0.11005700  1
  O  O17  1  0.36979200  0.21664100  0.43448700  1
  O  O18  1  0.15980600  0.07661100  0.79263100  1
  O  O19  1  0.07661100  0.15980600  0.29263100  1
loop_
_geom_bond_atom_site_label_1
_geom_bond_atom_site_label_2
_geom_bond_distance
_geom_bond_site_symmetry_2
Li0 O12 1.933281 1_655
Li0 O3 1.951356 1_555
Li0 O7 1.968864 1_556
Li0 O5 2.088969 1_565
Li1 O18 2.026127 1_565
Li1 O3 2.083875 1_555
Li1 O0 2.105949 1_555
Li1 O4 2.320044 1_555
Li1 O9 2.428514 1_565
Li2 O17 1.933281 1_565
Li2 O8 1.951356 1_555
Li2 O2 1.968864 1_555
Li2 O13 2.088969 1_655
Li3 O19 2.026127 1_655
Li3 O8 2.083875 1_555
Li3 O1 2.105949 1_555
Li3 O10 2.320044 1_555
Li3 O15 2.428514 1_655
Li4 O0 2.026127 1_455
Li4 O11 2.083875 1_555
Li4 O18 2.105949 1_555
Li4 O9 2.320044 1_555
Li4 O4 2.428514 1_455
Li5 O2 1.933281 1_545
Li5 O11 1.951356 1_555
Li5 O17 1.968864 1_555
Li5 O6 2.088969 1_455
Li6 O1 2.026127 1_545
Li6 O16 2.083875 1_555
Li6 O19 2.105949 1_555
Li6 O15 2.320044 1_555
Li6 O10 2.428514 1_545
Li7 O7 1.933281 1_455
Li7 O16 1.951356 1_555
Li7 O12 1.968864 1_554
Li7 O14 2.088969 1_545
Ni0 O5 2.026269 1_455
Ni0 O3 2.034077 1_545
Ni0 O12 2.068133 1_555
Ni0 O14 2.102487 1_546
Ni0 O18 2.110802 1_555
Ni1 O13 2.026269 1_545
Ni1 O8 2.034077 1_455
Ni1 O17 2.068133 1_555
Ni1 O6 2.102487 1_455
Ni1 O19 2.110802 1_555
Ni2 O6 2.026269 1_565
Ni2 O11 2.034077 1_655
Ni2 O2 2.068133 1_555
Ni2 O13 2.102487 1_655
Ni2 O0 2.110802 1_555
Ni3 O14 2.026269 1_655
Ni3 O16 2.034077 1_565
Ni3 O7 2.068133 1_555
Ni3 O5 2.102487 1_564
Ni3 O1 2.110802 1_555
O0 Si1 1.612065 1_565
O1 Si4 1.612065 1_655
O2 Si0 1.623117 1_555
O3 Si2 1.635296 1_555
O4 Si1 1.659815 1_555
O4 Si0 1.672730 1_555
O5 Si2 1.638496 1_555
O6 Si0 1.638496 1_555
O7 Si3 1.623117 1_555
O8 Si5 1.635296 1_555
O9 Si1 1.659815 1_555
O9 Si2 1.672730 1_555
O10 Si4 1.659815 1_555
O10 Si3 1.672730 1_555
O11 Si0 1.635296 1_555
O12 Si2 1.623117 1_555
O13 Si5 1.638496 1_555
O14 Si3 1.638496 1_555
O15 Si4 1.659815 1_555
O15 Si5 1.672730 1_555
O16 Si3 1.635296 1_555
O17 Si5 1.623117 1_555
O18 Si1 1.612065 1_455
O19 Si4 1.612065 1_545
