# generated using pymatgen
data_Li2V3CoO8
_symmetry_space_group_name_H-M   'P 1'
_cell_length_a   5.95240720
_cell_length_b   5.95240720
_cell_length_c   5.95240779
_cell_angle_alpha   59.77344022
_cell_angle_beta   59.77344022
_cell_angle_gamma   59.77344181
_symmetry_Int_Tables_number   1
_chemical_formula_structural   Li2V3CoO8
_chemical_formula_sum   'Li2 V3 Co1 O8'
_cell_volume   148.36217658
_cell_formula_units_Z   1
loop_
 _symmetry_equiv_pos_site_id
 _symmetry_equiv_pos_as_xyz
  1  'x, y, z'
loop_
 _atom_site_type_symbol
 _atom_site_label
 _atom_site_symmetry_multiplicity
 _atom_site_fract_x
 _atom_site_fract_y
 _atom_site_fract_z
 _atom_site_occupancy
  Li  Li0  1  0.87916000  0.87916000  0.87916000  1
  Li  Li1  1  0.49846600  0.49846600  0.49846600  1
  V  V0  1  0.50212700  0.50212700  0.99265700  1
  V  V1  1  0.50212700  0.99265700  0.50212700  1
  V  V2  1  0.99265700  0.50212700  0.50212700  1
  Co  Co0  1  0.12158600  0.12158600  0.12158600  1
  O  O0  1  0.74123400  0.74123400  0.74123400  1
  O  O1  1  0.28856700  0.75104900  0.75104900  1
  O  O2  1  0.75104900  0.28856700  0.75104900  1
  O  O3  1  0.75104900  0.75104900  0.28856700  1
  O  O4  1  0.24957000  0.24957000  0.71435800  1
  O  O5  1  0.24957000  0.71435800  0.24957000  1
  O  O6  1  0.71435800  0.24957000  0.24957000  1
  O  O7  1  0.25848100  0.25848100  0.25848100  1
loop_
_geom_bond_atom_site_label_1
_geom_bond_atom_site_label_2
_geom_bond_distance
_geom_bond_site_symmetry_2
Li0 O1 1.986240 1_655
Li0 O2 1.986240 1_565
Li0 O3 1.986241 1_556
Li0 O0 2.014447 1_555
Li1 O4 2.101767 1_555
Li1 O6 2.101767 1_555
Li1 O5 2.101767 1_555
Li1 O3 2.138972 1_555
Li1 O2 2.138972 1_555
Li1 O1 2.138972 1_555
Co0 O5 1.975410 1_545
Co0 O6 1.975410 1_455
Co0 O4 1.975410 1_554
Co0 O7 1.999389 1_555
O0 V0 2.010333 1_555
O0 V1 2.010333 1_555
O0 V2 2.010333 1_555
O1 V1 1.917921 1_555
O1 V0 1.917921 1_555
O2 V2 1.917921 1_555
O2 V0 1.917921 1_555
O3 V1 1.917921 1_555
O3 V2 1.917921 1_555
O4 V2 1.978073 1_455
O4 V1 1.978073 1_545
O5 V2 1.978072 1_455
O5 V0 1.978073 1_554
O6 V1 1.978072 1_545
O6 V0 1.978073 1_554
O7 V0 2.051108 1_554
O7 V2 2.051108 1_455
O7 V1 2.051108 1_545
