# generated using pymatgen
data_V3(O2F)2
_symmetry_space_group_name_H-M   'P 1'
_cell_length_a   4.60136752
_cell_length_b   7.51822611
_cell_length_c   5.46809912
_cell_angle_alpha   94.90621766
_cell_angle_beta   89.99973751
_cell_angle_gamma   89.99411418
_symmetry_Int_Tables_number   1
_chemical_formula_structural   V3(O2F)2
_chemical_formula_sum   'V6 O8 F4'
_cell_volume   188.47099100
_cell_formula_units_Z   2
loop_
 _symmetry_equiv_pos_site_id
 _symmetry_equiv_pos_as_xyz
  1  'x, y, z'
loop_
 _atom_site_type_symbol
 _atom_site_label
 _atom_site_symmetry_multiplicity
 _atom_site_fract_x
 _atom_site_fract_y
 _atom_site_fract_z
 _atom_site_occupancy
  V  V0  1  0.00920197  0.67560882  0.68916424  1
  V  V1  1  0.97411102  0.32163826  0.35049661  1
  V  V2  1  0.51290920  0.35632519  0.82513325  1
  V  V3  1  0.50915122  0.65778311  0.14413585  1
  V  V4  1  0.47411168  0.01165445  0.48285600  1
  V  V5  1  0.01282767  0.97703880  0.00824462  1
  O  O0  1  0.80392538  0.44509411  0.63347649  1
  O  O1  1  0.30389228  0.88829960  0.19990720  1
  O  O2  1  0.80498638  0.09165618  0.29714316  1
  O  O3  1  0.30506491  0.24164227  0.53626793  1
  O  O4  1  0.79573193  0.76379465  0.96935552  1
  O  O5  1  0.29574427  0.56953419  0.86400031  1
  O  O6  1  0.70198192  0.42740230  0.13558310  1
  O  O7  1  0.20200642  0.90590382  0.69775635  1
  F  F0  1  0.70233284  0.10664918  0.79928211  1
  F  F1  1  0.20225915  0.22653379  0.03394348  1
  F  F2  1  0.69485754  0.76633766  0.46539827  1
  F  F3  1  0.19490222  0.56710160  0.36785649  1
loop_
_geom_bond_atom_site_label_1
_geom_bond_atom_site_label_2
_geom_bond_distance
_geom_bond_site_symmetry_2
O0 V2 1.859200 1_555
O0 V1 1.903478 1_555
O0 V0 1.974456 1_655
O1 V5 1.859196 1_555
O1 V4 1.903177 1_565
O1 V3 1.974294 1_555
O2 V1 1.895877 1_555
O2 V4 1.953352 1_555
O2 V5 1.979817 1_645
O3 V4 1.895646 1_555
O3 V1 1.953706 1_455
O3 V2 1.979959 1_555
O4 V3 1.848784 1_556
O4 V5 1.885582 1_656
O4 V0 1.891525 1_655
O5 V0 1.848942 1_555
O5 V2 1.885348 1_555
O5 V3 1.891348 1_556
O6 V1 1.934131 1_555
O6 V2 1.941425 1_554
O6 V3 1.943014 1_555
O7 V4 1.934066 1_565
O7 V5 1.941854 1_556
O7 V0 1.942537 1_555
F0 V2 2.063381 1_555
F0 V4 2.096522 1_555
F0 V5 2.118135 1_646
F1 V5 2.062337 1_545
F1 V1 2.097048 1_455
F1 V2 2.118953 1_554
F2 V0 2.048686 1_655
F2 V3 2.058435 1_555
F2 V4 2.100462 1_565
F3 V3 2.048175 1_555
F3 V0 2.058435 1_555
F3 V1 2.101726 1_455
