# generated using pymatgen
data_Li8Mn5Fe3(BO3)8
_symmetry_space_group_name_H-M   'P 1'
_cell_length_a   5.23504300
_cell_length_b   6.03604425
_cell_length_c   16.23099902
_cell_angle_alpha   82.07830994
_cell_angle_beta   88.93017181
_cell_angle_gamma   89.23768155
_symmetry_Int_Tables_number   1
_chemical_formula_structural   Li8Mn5Fe3(BO3)8
_chemical_formula_sum   'Li8 Mn5 Fe3 B8 O24'
_cell_volume   507.86991867
_cell_formula_units_Z   1
loop_
 _symmetry_equiv_pos_site_id
 _symmetry_equiv_pos_as_xyz
  1  'x, y, z'
loop_
 _atom_site_type_symbol
 _atom_site_label
 _atom_site_symmetry_multiplicity
 _atom_site_fract_x
 _atom_site_fract_y
 _atom_site_fract_z
 _atom_site_occupancy
  Li  Li0  1  0.84705300  0.06433000  0.38792500  1
  Li  Li1  1  0.15270900  0.43636100  0.11064300  1
  Li  Li2  1  0.65405400  0.18321300  0.86276000  1
  Li  Li3  1  0.34699200  0.31616800  0.63817900  1
  Li  Li4  1  0.65211100  0.68704600  0.35846800  1
  Li  Li5  1  0.34503400  0.81425000  0.14147300  1
  Li  Li6  1  0.84701500  0.56163500  0.89215700  1
  Li  Li7  1  0.15252400  0.93775700  0.60853800  1
  Mn  Mn0  1  0.17007300  0.02451100  0.78930700  1
  Mn  Mn1  1  0.16869000  0.52244800  0.29110300  1
  Mn  Mn2  1  0.82938100  0.47480200  0.71069300  1
  Mn  Mn3  1  0.66909100  0.77483500  0.53929100  1
  Mn  Mn4  1  0.33076700  0.72411800  0.96023900  1
  Fe  Fe0  1  0.66601000  0.27373400  0.04080800  1
  Fe  Fe1  1  0.32878700  0.22550400  0.46078700  1
  Fe  Fe2  1  0.83154900  0.97736600  0.20656700  1
  B  B0  1  0.32910300  0.03734900  0.29654700  1
  B  B1  1  0.82906200  0.28717200  0.54503900  1
  B  B2  1  0.67131400  0.46309300  0.20235700  1
  B  B3  1  0.17261500  0.21180300  0.95507200  1
  B  B4  1  0.82886800  0.78609400  0.04860100  1
  B  B5  1  0.32895800  0.53283700  0.79815900  1
  B  B6  1  0.17161000  0.71542800  0.45205500  1
  B  B7  1  0.67086000  0.96662200  0.70212800  1
  O  O0  1  0.58849000  0.01116400  0.30794700  1
  O  O1  1  0.18483000  0.16892900  0.34589200  1
  O  O2  1  0.70921300  0.17346200  0.48760900  1
  O  O3  1  0.29582300  0.32480000  0.01204200  1
  O  O4  1  0.78604600  0.08165800  0.76011900  1
  O  O5  1  0.81973100  0.33002200  0.15443000  1
  O  O6  1  0.31682100  0.07977700  0.90626000  1
  O  O7  1  0.08930000  0.26275200  0.55707600  1
  O  O8  1  0.41174200  0.48887200  0.18867900  1
  O  O9  1  0.91270700  0.23748100  0.94427600  1
  O  O10  1  0.68342500  0.41852500  0.59375700  1
  O  O11  1  0.21377200  0.41825100  0.74014400  1
  O  O12  1  0.78909900  0.57487400  0.26016100  1
  O  O13  1  0.32168100  0.58007000  0.40618300  1
  O  O14  1  0.08837600  0.76206700  0.06178400  1
  O  O15  1  0.58759600  0.50946200  0.81313900  1
  O  O16  1  0.91257200  0.73939800  0.43770300  1
  O  O17  1  0.68107000  0.91927000  0.09653600  1
  O  O18  1  0.17784100  0.66754700  0.84426300  1
  O  O19  1  0.20264500  0.92705100  0.23930200  1
  O  O20  1  0.71168900  0.67538300  0.99021100  1
  O  O21  1  0.28769300  0.82931400  0.51009100  1
  O  O22  1  0.82149300  0.83159100  0.65604600  1
  O  O23  1  0.41211400  0.98980800  0.68745000  1
loop_
_geom_bond_atom_site_label_1
_geom_bond_atom_site_label_2
_geom_bond_distance
_geom_bond_site_symmetry_2
Li0 O2 1.951918 1_555
Li0 O0 1.952513 1_555
Li0 O1 1.963874 1_655
Li0 O16 2.042743 1_545
Li1 O8 1.931281 1_555
Li1 O5 1.952807 1_455
Li1 O3 1.953170 1_555
Li1 O14 2.042057 1_555
Li2 O4 1.963642 1_555
Li2 O6 1.966298 1_555
Li2 O9 1.972180 1_555
Li2 O15 2.050055 1_555
Li3 O11 1.957452 1_555
Li3 O7 1.962543 1_555
Li3 O10 1.965272 1_555
Li3 O23 2.048034 1_545
Li4 O12 1.939294 1_555
Li4 O16 1.949866 1_555
Li4 O13 1.962358 1_555
Li4 O0 2.039968 1_565
Li5 O14 1.940602 1_555
Li5 O19 1.944436 1_555
Li5 O17 1.970480 1_555
Li5 O8 2.035498 1_555
Li6 O20 1.937099 1_555
Li6 O15 1.943242 1_555
Li6 O18 1.963322 1_655
Li6 O9 2.049129 1_555
Li7 O21 1.927743 1_555
Li7 O23 1.942492 1_555
Li7 O22 1.962614 1_455
Li7 O7 2.048620 1_565
Mn0 O4 2.087389 1_455
Mn0 O23 2.095896 1_545
Mn0 O6 2.130889 1_555
Mn0 O18 2.215645 1_545
Mn0 O11 2.412959 1_555
Mn1 O12 2.068322 1_455
Mn1 O8 2.104942 1_555
Mn1 O13 2.119834 1_555
Mn1 O1 2.196875 1_555
Mn1 O19 2.478476 1_555
Mn2 O11 2.089749 1_655
Mn2 O15 2.102631 1_555
Mn2 O10 2.130809 1_555
Mn2 O22 2.213341 1_555
Mn2 O4 2.410213 1_555
Mn3 O21 2.072249 1_555
Mn3 O16 2.097787 1_555
Mn3 O22 2.141913 1_555
Mn3 O10 2.210608 1_555
Mn3 O2 2.446993 1_565
Mn4 O20 2.069050 1_555
Mn4 O14 2.096989 1_556
Mn4 O18 2.131125 1_555
Mn4 O6 2.204848 1_565
Mn4 O3 2.448951 1_556
Fe0 O3 2.011681 1_555
Fe0 O9 2.045018 1_554
Fe0 O5 2.097500 1_555
Fe0 O17 2.206089 1_545
Fe0 O20 2.463431 1_554
Fe1 O7 2.020176 1_555
Fe1 O2 2.057303 1_555
Fe1 O1 2.096933 1_555
Fe1 O13 2.200797 1_555
Fe1 O21 2.425971 1_545
Fe2 O19 2.031502 1_655
Fe2 O17 2.040965 1_555
Fe2 O0 2.091838 1_565
Fe2 O5 2.180141 1_565
Fe2 O12 2.476486 1_555
B0 O0 1.377943 1_555
B0 O19 1.396429 1_545
B0 O1 1.406942 1_555
B1 O7 1.382958 1_655
B1 O2 1.394016 1_555
B1 O10 1.403345 1_555
B2 O8 1.384249 1_555
B2 O12 1.386672 1_555
B2 O5 1.409621 1_555
B3 O9 1.379075 1_455
B3 O3 1.394301 1_556
B3 O6 1.402982 1_555
B4 O14 1.381845 1_655
B4 O20 1.388613 1_554
B4 O17 1.408382 1_555
B5 O15 1.382043 1_555
B5 O11 1.393017 1_555
B5 O18 1.405514 1_555
B6 O16 1.382542 1_455
B6 O21 1.392895 1_555
B6 O13 1.402801 1_555
B7 O23 1.381650 1_555
B7 O4 1.394343 1_565
B7 O22 1.405170 1_555
