# generated using pymatgen
data_Li3NiPCO7
_symmetry_space_group_name_H-M   'P 1'
_cell_length_a   4.94520100
_cell_length_b   8.35024853
_cell_length_c   12.83559284
_cell_angle_alpha   90.41331391
_cell_angle_beta   90.10040922
_cell_angle_gamma   94.79828003
_symmetry_Int_Tables_number   1
_chemical_formula_structural   Li3NiPCO7
_chemical_formula_sum   'Li12 Ni4 P4 C4 O28'
_cell_volume   528.15580055
_cell_formula_units_Z   4
loop_
 _symmetry_equiv_pos_site_id
 _symmetry_equiv_pos_as_xyz
  1  'x, y, z'
loop_
 _atom_site_type_symbol
 _atom_site_label
 _atom_site_symmetry_multiplicity
 _atom_site_fract_x
 _atom_site_fract_y
 _atom_site_fract_z
 _atom_site_occupancy
  Li  Li0  1  0.23546800  0.09745600  0.12448300  1
  Li  Li1  1  0.23136900  0.10147200  0.62879500  1
  Li  Li2  1  0.75395800  0.27903400  0.51347800  1
  Li  Li3  1  0.75113800  0.27275800  0.24736400  1
  Li  Li4  1  0.76552400  0.28038000  0.74080800  1
  Li  Li5  1  0.21897600  0.34775900  0.86905200  1
  Li  Li6  1  0.24353000  0.71879500  0.98204900  1
  Li  Li7  1  0.24600500  0.72062600  0.26321800  1
  Li  Li8  1  0.24890600  0.72384200  0.49410000  1
  Li  Li9  1  0.24629400  0.71997800  0.76180400  1
  Li  Li10  1  0.76643500  0.90118900  0.37820100  1
  Li  Li11  1  0.76677400  0.90122700  0.87133800  1
  Ni  Ni0  1  0.75172300  0.26621800  0.99643600  1
  Ni  Ni1  1  0.20896600  0.33260700  0.37589200  1
  Ni  Ni2  1  0.79369100  0.66697800  0.12416700  1
  Ni  Ni3  1  0.79277400  0.66641200  0.62537800  1
  P  P0  1  0.27152600  0.41272300  0.12357300  1
  P  P1  1  0.27743100  0.41327800  0.62531300  1
  P  P2  1  0.72052100  0.58546100  0.37407000  1
  P  P3  1  0.71470100  0.58725800  0.87669600  1
  C  C0  1  0.29747100  0.03918500  0.37341200  1
  C  C1  1  0.29554300  0.04080000  0.88281200  1
  C  C2  1  0.70306200  0.95915900  0.62476100  1
  C  C3  1  0.70617300  0.96133900  0.12273500  1
  O  O0  1  0.04663600  0.07309800  0.88126800  1
  O  O1  1  0.04878400  0.07650600  0.37337100  1
  O  O2  1  0.64581800  0.11144000  0.11796400  1
  O  O3  1  0.64045200  0.10656600  0.62529900  1
  O  O4  1  0.48907700  0.15607400  0.37242800  1
  O  O5  1  0.48950600  0.15665700  0.88972200  1
  O  O6  1  0.17455100  0.30785200  0.53019300  1
  O  O7  1  0.15219200  0.30905600  0.03166300  1
  O  O8  1  0.18476500  0.30892500  0.21953100  1
  O  O9  1  0.17885600  0.30955000  0.71850500  1
  O  O10  1  0.83029600  0.41818600  0.37369800  1
  O  O11  1  0.82313000  0.41852000  0.87649700  1
  O  O12  1  0.59441500  0.43841300  0.62354300  1
  O  O13  1  0.59076700  0.43066200  0.11404200  1
  O  O14  1  0.40467200  0.56171300  0.37351200  1
  O  O15  1  0.40241000  0.57058300  0.87732700  1
  O  O16  1  0.17392900  0.58264500  0.12760200  1
  O  O17  1  0.16831500  0.58119900  0.62411500  1
  O  O18  1  0.82400500  0.69219900  0.46753500  1
  O  O19  1  0.82198600  0.68992800  0.27999500  1
  O  O20  1  0.82752000  0.68779200  0.78261400  1
  O  O21  1  0.82701000  0.69337700  0.97010800  1
  O  O22  1  0.51266100  0.84833400  0.12653700  1
  O  O23  1  0.51353900  0.84122000  0.62411700  1
  O  O24  1  0.35844200  0.89162800  0.37453300  1
  O  O25  1  0.36226400  0.89390500  0.87423700  1
  O  O26  1  0.95349500  0.92513200  0.12497700  1
  O  O27  1  0.95255100  0.92290100  0.62513800  1
loop_
_geom_bond_atom_site_label_1
_geom_bond_atom_site_label_2
_geom_bond_distance
_geom_bond_site_symmetry_2
Li0 O26 1.918199 1_445
Li0 O2 2.024757 1_555
Li0 O8 2.171046 1_555
Li0 O7 2.204856 1_555
Li1 O27 1.944620 1_445
Li1 O3 2.020468 1_555
Li1 O9 2.111855 1_555
Li1 O6 2.182156 1_555
Li2 O6 2.084214 1_655
Li2 O3 2.084842 1_555
Li2 O12 2.131186 1_555
Li2 O10 2.161185 1_555
Li2 O4 2.405755 1_555
Li3 O10 2.036477 1_555
Li3 O2 2.166053 1_555
Li3 O8 2.170961 1_655
Li3 O4 2.241499 1_555
Li3 O13 2.344924 1_555
Li4 O9 2.058889 1_655
Li4 O11 2.087909 1_555
Li4 O3 2.121986 1_555
Li4 O12 2.221240 1_555
Li4 O5 2.526980 1_555
Li5 O9 1.963249 1_555
Li5 O15 2.002637 1_555
Li5 O11 2.093696 1_455
Li5 O7 2.136410 1_556
Li5 O5 2.183711 1_555
Li5 O0 2.385302 1_555
Li6 O15 2.024389 1_555
Li6 O21 2.058276 1_455
Li6 O25 2.070319 1_555
Li6 O16 2.206536 1_556
Li6 O22 2.470307 1_556
Li7 O24 2.055358 1_555
Li7 O16 2.093995 1_555
Li7 O19 2.102702 1_455
Li7 O14 2.139641 1_555
Li7 O22 2.398704 1_555
Li8 O17 2.077045 1_555
Li8 O18 2.122385 1_455
Li8 O24 2.125720 1_555
Li8 O14 2.229423 1_555
Li8 O23 2.283084 1_555
Li9 O20 2.083784 1_455
Li9 O25 2.085271 1_555
Li9 O17 2.123284 1_555
Li9 O15 2.129496 1_555
Li9 O23 2.388519 1_555
Li10 O1 1.938090 1_665
Li10 O24 2.012957 1_555
Li10 O18 2.133577 1_555
Li10 O19 2.196952 1_555
Li11 O0 1.912010 1_665
Li11 O25 1.996619 1_555
Li11 O20 2.150584 1_555
Li11 O21 2.196632 1_555
Ni0 O11 2.016708 1_555
Ni0 O7 2.032339 1_656
Ni0 O5 2.042512 1_555
Ni0 O2 2.072829 1_556
Ni0 O13 2.225975 1_556
Ni1 O6 1.998863 1_555
Ni1 O8 2.017646 1_555
Ni1 O10 2.059626 1_455
Ni1 O14 2.070918 1_555
Ni1 O4 2.105849 1_555
Ni1 O1 2.217487 1_555
Ni2 O21 1.996837 1_554
Ni2 O19 2.011439 1_555
Ni2 O16 2.062827 1_655
Ni2 O22 2.139442 1_555
Ni2 O13 2.140646 1_555
Ni2 O26 2.232959 1_555
Ni3 O20 2.030530 1_555
Ni3 O17 2.043647 1_655
Ni3 O18 2.043711 1_555
Ni3 O12 2.067426 1_555
Ni3 O23 2.091708 1_555
Ni3 O27 2.219998 1_555
C0 O24 1.292932 1_545
C0 O1 1.293701 1_555
C0 O4 1.302363 1_555
C1 O0 1.282092 1_555
C1 O25 1.300553 1_545
C1 O5 1.306544 1_555
C2 O3 1.294076 1_565
C2 O27 1.294750 1_555
C2 O23 1.301452 1_555
C3 O26 1.284511 1_555
C3 O22 1.287759 1_555
C3 O2 1.314315 1_565
O6 P1 1.559443 1_555
O7 P0 1.544894 1_555
O8 P0 1.551577 1_555
O9 P1 1.537869 1_555
O10 P2 1.540293 1_555
O11 P3 1.548922 1_555
O12 P1 1.564267 1_555
O13 P0 1.578326 1_555
O14 P2 1.557930 1_555
O15 P3 1.539003 1_555
O16 P0 1.537029 1_555
O17 P1 1.544144 1_555
O18 P2 1.549718 1_555
O19 P2 1.553992 1_555
O20 P3 1.553360 1_555
O21 P3 1.559253 1_555
