# generated using pymatgen
data_Na2Ti2O5
_symmetry_space_group_name_H-M   'P 1'
_cell_length_a   23.98809800
_cell_length_b   5.46780700
_cell_length_c   8.86842057
_cell_angle_alpha   89.60423023
_cell_angle_beta   90.00000000
_cell_angle_gamma   90.00000000
_symmetry_Int_Tables_number   1
_chemical_formula_structural   Na2Ti2O5
_chemical_formula_sum   'Na16 Ti16 O40'
_cell_volume   1163.17460207
_cell_formula_units_Z   8
loop_
 _symmetry_equiv_pos_site_id
 _symmetry_equiv_pos_as_xyz
  1  'x, y, z'
loop_
 _atom_site_type_symbol
 _atom_site_label
 _atom_site_symmetry_multiplicity
 _atom_site_fract_x
 _atom_site_fract_y
 _atom_site_fract_z
 _atom_site_occupancy
  Na  Na0  1  0.73961700  0.80368600  0.52375100  1
  Na  Na1  1  0.76038300  0.80368600  0.02375100  1
  Na  Na2  1  0.27880400  0.78324800  0.72173800  1
  Na  Na3  1  0.22119600  0.78324800  0.22173800  1
  Na  Na4  1  0.52757200  0.72123500  0.90160000  1
  Na  Na5  1  0.97242800  0.72123500  0.40160000  1
  Na  Na6  1  0.01504500  0.69025200  0.84149100  1
  Na  Na7  1  0.48495500  0.69025200  0.34149100  1
  Na  Na8  1  0.51504500  0.30974800  0.65850900  1
  Na  Na9  1  0.98495500  0.30974800  0.15850900  1
  Na  Na10  1  0.02757200  0.27876500  0.59840000  1
  Na  Na11  1  0.47242800  0.27876500  0.09840000  1
  Na  Na12  1  0.77880400  0.21675200  0.77826200  1
  Na  Na13  1  0.72119600  0.21675200  0.27826200  1
  Na  Na14  1  0.23961700  0.19631400  0.97624900  1
  Na  Na15  1  0.26038300  0.19631400  0.47624900  1
  Ti  Ti0  1  0.59027500  0.82938700  0.54227100  1
  Ti  Ti1  1  0.90972500  0.82938700  0.04227100  1
  Ti  Ti2  1  0.11453000  0.80552900  0.51652200  1
  Ti  Ti3  1  0.38547000  0.80552900  0.01652200  1
  Ti  Ti4  1  0.86671700  0.69226900  0.69554900  1
  Ti  Ti5  1  0.63328300  0.69226900  0.19554900  1
  Ti  Ti6  1  0.16066400  0.67199000  0.86214600  1
  Ti  Ti7  1  0.33933600  0.67199000  0.36214600  1
  Ti  Ti8  1  0.66066400  0.32801000  0.63785400  1
  Ti  Ti9  1  0.83933600  0.32801000  0.13785400  1
  Ti  Ti10  1  0.36671700  0.30773100  0.80445100  1
  Ti  Ti11  1  0.13328300  0.30773100  0.30445100  1
  Ti  Ti12  1  0.61453000  0.19447100  0.98347800  1
  Ti  Ti13  1  0.88547000  0.19447100  0.48347800  1
  Ti  Ti14  1  0.09027500  0.17061300  0.95772900  1
  Ti  Ti15  1  0.40972500  0.17061300  0.45772900  1
  O  O0  1  0.88944800  0.85772700  0.52163500  1
  O  O1  1  0.61055200  0.85772700  0.02163500  1
  O  O2  1  0.09851000  0.83504900  0.93248600  1
  O  O3  1  0.40149000  0.83504900  0.43248600  1
  O  O4  1  0.80017600  0.78901400  0.75096200  1
  O  O5  1  0.69982400  0.78901400  0.25096200  1
  O  O6  1  0.92047700  0.75356500  0.84030200  1
  O  O7  1  0.53125500  0.73288500  0.63913400  1
  O  O8  1  0.57952300  0.75356500  0.34030200  1
  O  O9  1  0.96874500  0.73288500  0.13913400  1
  O  O10  1  0.22109900  0.77136300  0.95282600  1
  O  O11  1  0.27890100  0.77136300  0.45282600  1
  O  O12  1  0.16921000  0.74700400  0.66005800  1
  O  O13  1  0.33079000  0.74700400  0.16005800  1
  O  O14  1  0.04807000  0.71005500  0.57628800  1
  O  O15  1  0.45193000  0.71005500  0.07628800  1
  O  O16  1  0.65349600  0.66451200  0.60877500  1
  O  O17  1  0.84650400  0.66451200  0.10877500  1
  O  O18  1  0.36366400  0.64273200  0.84282000  1
  O  O19  1  0.13633600  0.64273200  0.34282000  1
  O  O20  1  0.86366400  0.35726800  0.65718000  1
  O  O21  1  0.63633600  0.35726800  0.15718000  1
  O  O22  1  0.15349600  0.33548800  0.89122500  1
  O  O23  1  0.34650400  0.33548800  0.39122500  1
  O  O24  1  0.54807000  0.28994500  0.92371200  1
  O  O25  1  0.95193000  0.28994500  0.42371200  1
  O  O26  1  0.66921000  0.25299600  0.83994200  1
  O  O27  1  0.83079000  0.25299600  0.33994200  1
  O  O28  1  0.72109900  0.22863700  0.54717400  1
  O  O29  1  0.77890100  0.22863700  0.04717400  1
  O  O30  1  0.03125500  0.26711500  0.86086600  1
  O  O31  1  0.42047700  0.24643500  0.65969800  1
  O  O32  1  0.46874500  0.26711500  0.36086600  1
  O  O33  1  0.07952300  0.24643500  0.15969800  1
  O  O34  1  0.30017600  0.21098600  0.74903800  1
  O  O35  1  0.19982400  0.21098600  0.24903800  1
  O  O36  1  0.59851000  0.16495100  0.56751400  1
  O  O37  1  0.90149000  0.16495100  0.06751400  1
  O  O38  1  0.38944800  0.14227300  0.97836500  1
  O  O39  1  0.11055200  0.14227300  0.47836500  1
loop_
_geom_bond_atom_site_label_1
_geom_bond_atom_site_label_2
_geom_bond_distance
_geom_bond_site_symmetry_2
Na0 O16 2.325419 1_555
Na0 O28 2.376137 1_565
Na0 O4 2.484907 1_555
Na0 O5 2.602473 1_555
Na1 O17 2.325419 1_555
Na1 O29 2.376137 1_565
Na1 O5 2.484907 1_555
Na1 O4 2.602473 1_554
Na2 O11 2.386160 1_555
Na2 O34 2.408154 1_565
Na2 O18 2.423996 1_555
Na2 O10 2.473553 1_555
Na2 O12 2.692837 1_555
Na3 O10 2.386160 1_554
Na3 O35 2.408154 1_565
Na3 O19 2.423996 1_555
Na3 O11 2.473553 1_555
Na3 O13 2.692837 1_555
Na4 O7 2.329766 1_555
Na4 O1 2.379786 1_556
Na4 O15 2.386401 1_556
Na4 O24 2.415574 1_555
Na5 O9 2.329766 1_555
Na5 O0 2.379786 1_555
Na5 O14 2.386401 1_655
Na5 O25 2.415574 1_555
Na6 O6 2.294782 1_455
Na6 O2 2.301204 1_555
Na6 O30 2.351196 1_555
Na6 O14 2.483421 1_555
Na6 O9 2.874716 1_456
Na7 O8 2.294782 1_555
Na7 O3 2.301204 1_555
Na7 O32 2.351196 1_555
Na7 O15 2.483421 1_555
Na7 O7 2.874716 1_555
Na8 O31 2.294782 1_555
Na8 O36 2.301204 1_555
Na8 O7 2.351196 1_555
Na8 O24 2.483421 1_555
Na8 O32 2.874716 1_555
Na9 O33 2.294782 1_655
Na9 O37 2.301204 1_555
Na9 O9 2.351196 1_555
Na9 O25 2.483421 1_555
Na9 O30 2.874716 1_654
Na10 O30 2.329766 1_555
Na10 O39 2.379786 1_555
Na10 O25 2.386401 1_455
Na10 O14 2.415574 1_555
Na11 O32 2.329766 1_555
Na11 O38 2.379786 1_554
Na11 O24 2.386401 1_554
Na11 O15 2.415574 1_555
Na12 O29 2.386160 1_556
Na12 O4 2.408154 1_545
Na12 O20 2.423996 1_555
Na12 O28 2.473553 1_555
Na12 O26 2.692837 1_555
Na13 O28 2.386160 1_555
Na13 O5 2.408154 1_545
Na13 O21 2.423996 1_555
Na13 O29 2.473553 1_555
Na13 O27 2.692837 1_555
Na14 O22 2.325419 1_555
Na14 O10 2.376137 1_545
Na14 O34 2.484907 1_555
Na14 O35 2.602473 1_556
Na15 O23 2.325419 1_555
Na15 O11 2.376137 1_545
Na15 O35 2.484907 1_555
Na15 O34 2.602473 1_555
O0 Ti4 1.864225 1_555
O0 Ti13 1.872222 1_565
O1 Ti5 1.864225 1_555
O1 Ti12 1.872222 1_564
O2 Ti6 1.847883 1_555
O2 Ti14 1.860457 1_565
O3 Ti7 1.847883 1_555
O3 Ti15 1.860457 1_565
O4 Ti4 1.752924 1_555
O5 Ti5 1.752924 1_555
O6 Ti4 1.851838 1_555
O6 Ti1 1.859264 1_556
O7 Ti0 1.736232 1_555
O8 Ti5 1.851838 1_555
O8 Ti0 1.859264 1_555
O9 Ti1 1.736232 1_555
O10 Ti6 1.746333 1_555
O11 Ti7 1.746333 1_555
O12 Ti6 1.847184 1_555
O12 Ti2 1.854082 1_555
O13 Ti7 1.847184 1_555
O13 Ti3 1.854082 1_555
O14 Ti2 1.758197 1_555
O15 Ti3 1.758197 1_555
O16 Ti0 1.858263 1_555
O16 Ti8 1.864095 1_555
O17 Ti1 1.858263 1_555
O17 Ti9 1.864095 1_555
O18 Ti3 1.859553 1_556
O18 Ti10 1.866805 1_555
O19 Ti2 1.859553 1_555
O19 Ti11 1.866805 1_555
O20 Ti13 1.859553 1_555
O20 Ti4 1.866805 1_555
O21 Ti12 1.859553 1_554
O21 Ti5 1.866805 1_555
O22 Ti14 1.858263 1_555
O22 Ti6 1.864095 1_555
O23 Ti15 1.858263 1_555
O23 Ti7 1.864095 1_555
O24 Ti12 1.758197 1_555
O25 Ti13 1.758197 1_555
O26 Ti8 1.847184 1_555
O26 Ti12 1.854082 1_555
O27 Ti9 1.847184 1_555
O27 Ti13 1.854082 1_555
O28 Ti8 1.746333 1_555
O29 Ti9 1.746333 1_555
O30 Ti14 1.736232 1_555
O31 Ti10 1.851838 1_555
O31 Ti15 1.859264 1_555
O32 Ti15 1.736232 1_555
O33 Ti11 1.851838 1_555
O33 Ti14 1.859264 1_554
O34 Ti10 1.752924 1_555
O35 Ti11 1.752924 1_555
O36 Ti8 1.847883 1_555
O36 Ti0 1.860457 1_545
O37 Ti9 1.847883 1_555
O37 Ti1 1.860457 1_545
O38 Ti10 1.864225 1_555
O38 Ti3 1.872222 1_546
O39 Ti11 1.864225 1_555
O39 Ti2 1.872222 1_545
