# generated using pymatgen
data_Li4FeNi3(PO4)4
_symmetry_space_group_name_H-M   'P 1'
_cell_length_a   5.97581400
_cell_length_b   4.73186700
_cell_length_c   10.18402746
_cell_angle_alpha   89.96936057
_cell_angle_beta   90.00000000
_cell_angle_gamma   90.00000000
_symmetry_Int_Tables_number   1
_chemical_formula_structural   Li4FeNi3(PO4)4
_chemical_formula_sum   'Li4 Fe1 Ni3 P4 O16'
_cell_volume   287.97122914
_cell_formula_units_Z   1
loop_
 _symmetry_equiv_pos_site_id
 _symmetry_equiv_pos_as_xyz
  1  'x, y, z'
loop_
 _atom_site_type_symbol
 _atom_site_label
 _atom_site_symmetry_multiplicity
 _atom_site_fract_x
 _atom_site_fract_y
 _atom_site_fract_z
 _atom_site_occupancy
  Li  Li0  1  0.24999700  0.00008300  0.99887800  1
  Li  Li1  1  0.75000300  0.00008300  0.99887800  1
  Li  Li2  1  0.74920100  0.49987100  0.50145300  1
  Li  Li3  1  0.25079900  0.49987100  0.50145300  1
  Fe  Fe0  1  0.00000000  0.97676200  0.27812600  1
  Ni  Ni0  1  0.50000000  0.01917800  0.72484100  1
  Ni  Ni1  1  0.50000000  0.47948200  0.22244300  1
  Ni  Ni2  1  0.00000000  0.52063800  0.77633200  1
  P  P0  1  0.00000000  0.08559300  0.59650600  1
  P  P1  1  0.00000000  0.41546500  0.09161600  1
  P  P2  1  0.50000000  0.58382700  0.90536900  1
  P  P3  1  0.50000000  0.91517400  0.40677800  1
  O  O0  1  0.00000000  0.20457000  0.45461300  1
  O  O1  1  0.20661100  0.22563500  0.66690900  1
  O  O2  1  0.79338900  0.22563500  0.66690900  1
  O  O3  1  0.50000000  0.23974400  0.39937000  1
  O  O4  1  0.50000000  0.25981100  0.90022100  1
  O  O5  1  0.20775300  0.27804800  0.16243400  1
  O  O6  1  0.79224700  0.27804800  0.16243400  1
  O  O7  1  0.00000000  0.29609900  0.94976100  1
  O  O8  1  0.50000000  0.70162900  0.04820100  1
  O  O9  1  0.70584600  0.72504400  0.83458300  1
  O  O10  1  0.29415400  0.72504400  0.83458300  1
  O  O11  1  0.00000000  0.73874700  0.09645400  1
  O  O12  1  0.00000000  0.76117600  0.60083800  1
  O  O13  1  0.70397100  0.77245500  0.33543600  1
  O  O14  1  0.29602900  0.77245500  0.33543600  1
  O  O15  1  0.50000000  0.79983100  0.54915000  1
loop_
_geom_bond_atom_site_label_1
_geom_bond_atom_site_label_2
_geom_bond_distance
_geom_bond_site_symmetry_2
Li0 O7 2.107911 1_555
Li0 O8 2.116114 1_546
Li0 O10 2.136650 1_545
Li0 O5 2.137870 1_556
Li0 O11 2.178807 1_546
Li0 O4 2.179573 1_555
Li1 O7 2.107911 1_655
Li1 O8 2.116114 1_546
Li1 O9 2.136650 1_545
Li1 O6 2.137870 1_556
Li1 O11 2.178807 1_646
Li1 O4 2.179573 1_555
Li2 O0 2.104035 1_655
Li2 O15 2.113990 1_555
Li2 O2 2.142553 1_555
Li2 O13 2.143111 1_555
Li2 O12 2.191070 1_655
Li2 O3 2.194289 1_555
Li3 O0 2.104035 1_555
Li3 O15 2.113990 1_555
Li3 O1 2.142553 1_555
Li3 O14 2.143111 1_555
Li3 O12 2.191070 1_555
Li3 O3 2.194289 1_555
Fe0 O0 2.096312 1_565
Fe0 O13 2.098586 1_455
Fe0 O14 2.098586 1_555
Fe0 O11 2.166505 1_555
Fe0 O5 2.227140 1_565
Fe0 O6 2.227140 1_465
Ni0 O15 2.068974 1_545
Ni0 O2 2.091815 1_555
Ni0 O1 2.091815 1_555
Ni0 O4 2.118666 1_555
Ni0 O9 2.167408 1_545
Ni0 O10 2.167408 1_545
Ni1 O8 2.061980 1_555
Ni1 O6 2.081485 1_555
Ni1 O5 2.081485 1_555
Ni1 O3 2.128682 1_555
Ni1 O14 2.175643 1_555
Ni1 O13 2.175643 1_555
Ni2 O7 2.060669 1_555
Ni2 O10 2.092355 1_555
Ni2 O9 2.092355 1_455
Ni2 O12 2.118377 1_555
Ni2 O1 2.171742 1_555
Ni2 O2 2.171742 1_455
O0 P0 1.550557 1_555
O1 P0 1.574199 1_555
O2 P0 1.574199 1_655
O3 P3 1.537634 1_545
O4 P2 1.534125 1_555
O5 P1 1.575996 1_555
O6 P1 1.575996 1_655
O7 P1 1.551428 1_556
O8 P2 1.558032 1_554
O9 P2 1.574427 1_555
O10 P2 1.574427 1_555
O11 P1 1.530547 1_555
O12 P0 1.535708 1_565
O13 P3 1.571676 1_555
O14 P3 1.571676 1_555
O15 P3 1.548970 1_555
