# generated using pymatgen
data_CsLiMnP3HO10
_symmetry_space_group_name_H-M   'P 1'
_cell_length_a   7.78807021
_cell_length_b   18.95281757
_cell_length_c   7.78888742
_cell_angle_alpha   97.00787532
_cell_angle_beta   70.26033245
_cell_angle_gamma   81.37753750
_symmetry_Int_Tables_number   1
_chemical_formula_structural   CsLiMnP3HO10
_chemical_formula_sum   'Cs4 Li4 Mn4 P12 H4 O40'
_cell_volume   1051.32370781
_cell_formula_units_Z   4
loop_
 _symmetry_equiv_pos_site_id
 _symmetry_equiv_pos_as_xyz
  1  'x, y, z'
loop_
 _atom_site_type_symbol
 _atom_site_label
 _atom_site_symmetry_multiplicity
 _atom_site_fract_x
 _atom_site_fract_y
 _atom_site_fract_z
 _atom_site_occupancy
  Cs  Cs0  1  0.36130300  0.37502900  0.76365500  1
  Cs  Cs1  1  0.61149500  0.62486700  0.26337600  1
  Cs  Cs2  1  0.86100000  0.87500700  0.76394200  1
  Cs  Cs3  1  0.11140500  0.12517400  0.26357700  1
  Li  Li0  1  0.25815600  0.24989400  0.49188400  1
  Li  Li1  1  0.50779800  0.50004100  0.99199100  1
  Li  Li2  1  0.75816500  0.74956200  0.49164400  1
  Li  Li3  1  0.00792700  0.00037100  0.99208000  1
  Mn  Mn0  1  0.91240700  0.25001900  0.83810100  1
  Mn  Mn1  1  0.16195300  0.49998400  0.33792000  1
  Mn  Mn2  1  0.41178500  0.74974100  0.83766500  1
  Mn  Mn3  1  0.66210700  0.00017400  0.33799400  1
  P  P0  1  0.93608800  0.37501100  0.18896700  1
  P  P1  1  0.18611200  0.62494000  0.68904300  1
  P  P2  1  0.43618500  0.87498800  0.18889000  1
  P  P3  1  0.68600500  0.12505200  0.68893800  1
  P  P4  1  0.56477100  0.36421600  0.15834400  1
  P  P5  1  0.81468300  0.61420100  0.65863200  1
  P  P6  1  0.06504500  0.86431900  0.15800600  1
  P  P7  1  0.31434800  0.11419100  0.65895000  1
  P  P8  1  0.95570100  0.38576200  0.57117400  1
  P  P9  1  0.20499000  0.63578100  0.07169800  1
  P  P10  1  0.45614300  0.88568800  0.57083500  1
  P  P11  1  0.70545900  0.13580600  0.07120200  1
  H  H0  1  0.51564500  0.25055900  0.23461000  1
  H  H1  1  0.76581800  0.50006800  0.73434000  1
  H  H2  1  0.01534200  0.75163100  0.23533600  1
  H  H3  1  0.26614900  0.99907700  0.73360400  1
  O  O0  1  0.90304000  0.57136400  0.46322700  1
  O  O1  1  0.15332000  0.82137200  0.96288600  1
  O  O2  1  0.40300500  0.07136200  0.46338500  1
  O  O3  1  0.65326900  0.32133000  0.96306100  1
  O  O4  1  0.85830000  0.17856100  0.02537200  1
  O  O5  1  0.10841100  0.42856500  0.52534800  1
  O  O6  1  0.35808400  0.67851600  0.02552900  1
  O  O7  1  0.60864800  0.92853200  0.52511400  1
  O  O8  1  0.76505500  0.43492500  0.70321600  1
  O  O9  1  0.01466600  0.68473700  0.20335300  1
  O  O10  1  0.26530400  0.93498400  0.70316200  1
  O  O11  1  0.51494400  0.18486100  0.20317800  1
  O  O12  1  0.48176200  0.31497400  0.29998900  1
  O  O13  1  0.73175800  0.56503800  0.80023200  1
  O  O14  1  0.98191800  0.81494700  0.29973900  1
  O  O15  1  0.23149800  0.06513700  0.80047800  1
  O  O16  1  0.71608200  0.39947700  0.22596500  1
  O  O17  1  0.96615400  0.64951900  0.72593000  1
  O  O18  1  0.21599800  0.89944800  0.22612200  1
  O  O19  1  0.46617900  0.14956700  0.72587700  1
  O  O20  1  0.92352600  0.35050600  0.38435900  1
  O  O21  1  0.17369900  0.60039300  0.88417200  1
  O  O22  1  0.42336500  0.85052000  0.38448700  1
  O  O23  1  0.67361500  0.10046200  0.88424200  1
  O  O24  1  0.26814500  0.56657400  0.13599100  1
  O  O25  1  0.51804100  0.81667800  0.63614800  1
  O  O26  1  0.76811300  0.06664200  0.13595100  1
  O  O27  1  0.01813800  0.31666500  0.63601000  1
  O  O28  1  0.18067200  0.18332200  0.66513100  1
  O  O29  1  0.43057900  0.43322000  0.16520000  1
  O  O30  1  0.68058800  0.68328800  0.66538000  1
  O  O31  1  0.93055800  0.93324500  0.16526700  1
  O  O32  1  0.02287100  0.44074100  0.16744100  1
  O  O33  1  0.27297000  0.69070500  0.66748400  1
  O  O34  1  0.52289800  0.94072400  0.16751800  1
  O  O35  1  0.77313200  0.19070700  0.66742600  1
  O  O36  1  0.02327600  0.30931000  0.03634900  1
  O  O37  1  0.27323100  0.55931700  0.53617900  1
  O  O38  1  0.52313000  0.80928800  0.03635600  1
  O  O39  1  0.77317000  0.05931700  0.53626700  1
loop_
_geom_bond_atom_site_label_1
_geom_bond_atom_site_label_2
_geom_bond_distance
_geom_bond_site_symmetry_2
Cs0 O5 3.268591 1_555
Cs0 O3 3.270458 1_555
Cs0 O36 3.293157 1_556
Cs0 O32 3.293921 1_556
Cs0 Li1 3.351324 1_555
Cs0 Li0 3.353476 1_555
Cs0 O8 3.405680 1_555
Cs0 O12 3.406808 1_555
Cs0 O29 3.430135 1_556
Cs0 O27 3.430418 1_555
Cs1 O6 3.269337 1_555
Cs1 O0 3.269416 1_555
Cs1 O37 3.292847 1_555
Cs1 O33 3.296166 1_555
Cs1 Li2 3.347719 1_555
Cs1 Li1 3.350091 1_554
Cs1 O9 3.401678 1_655
Cs1 O13 3.402545 1_554
Cs1 O24 3.430168 1_555
Cs1 O30 3.433734 1_555
Cs2 O7 3.268673 1_555
Cs2 O1 3.269679 1_655
Cs2 O38 3.291458 1_556
Cs2 O34 3.291809 1_556
Cs2 Li3 3.357196 1_665
Cs2 Li2 3.358603 1_555
Cs2 O10 3.410061 1_655
Cs2 O14 3.410224 1_555
Cs2 O25 3.429262 1_555
Cs2 O31 3.429886 1_556
Cs3 O4 3.268373 1_455
Cs3 O2 3.271063 1_555
Cs3 O35 3.293235 1_455
Cs3 O39 3.295687 1_455
Cs3 Li0 3.348612 1_555
Cs3 Li3 3.349393 1_554
Cs3 O11 3.402250 1_555
Cs3 O15 3.403040 1_554
Cs3 O28 3.429973 1_555
Cs3 O26 3.432544 1_455
Li0 O28 1.967406 1_555
Li0 O27 1.970393 1_555
Li1 O24 1.966409 1_556
Li1 O29 1.970499 1_556
Li2 O30 1.965701 1_555
Li2 O25 1.974264 1_555
Li3 O26 1.964940 1_456
Li3 O31 1.975052 1_446
Mn0 O4 2.092213 1_556
Mn0 O3 2.093159 1_555
Mn0 O28 2.160839 1_655
Mn0 O27 2.161647 1_655
Mn0 O36 2.271746 1_656
Mn0 O35 2.276491 1_555
Mn1 O5 2.092244 1_555
Mn1 O0 2.092663 1_455
Mn1 O24 2.160828 1_555
Mn1 O29 2.162745 1_555
Mn1 O32 2.273676 1_555
Mn1 O37 2.274362 1_555
Mn2 O6 2.091931 1_556
Mn2 O1 2.092274 1_555
Mn2 O30 2.160773 1_555
Mn2 O25 2.163603 1_555
Mn2 O33 2.268595 1_555
Mn2 O38 2.279136 1_556
Mn3 O2 2.092132 1_555
Mn3 O7 2.093728 1_545
Mn3 O26 2.159411 1_555
Mn3 O31 2.162986 1_545
Mn3 O39 2.271612 1_555
Mn3 O34 2.276340 1_545
H0 O12 1.216694 1_555
H0 O11 1.240545 1_555
H1 O13 1.227157 1_555
H1 O8 1.230157 1_555
H2 O14 1.196109 1_455
H2 O9 1.263051 1_555
H3 O10 1.210386 1_555
H3 O15 1.247520 1_565
O0 P5 1.507522 1_555
O1 P6 1.506473 1_556
O2 P7 1.508536 1_555
O3 P4 1.507133 1_556
O4 P11 1.507891 1_555
O5 P8 1.507707 1_455
O6 P9 1.509284 1_555
O7 P10 1.506950 1_555
O8 P8 1.565346 1_555
O9 P9 1.561490 1_555
O10 P10 1.567831 1_555
O11 P11 1.563797 1_555
O12 P4 1.567317 1_555
O13 P5 1.565809 1_555
O14 P6 1.569828 1_655
O15 P7 1.563763 1_555
O16 P0 1.621575 1_555
O16 P4 1.637744 1_555
O17 P1 1.621632 1_655
O17 P5 1.638074 1_555
O18 P2 1.622518 1_555
O18 P6 1.636064 1_555
O19 P3 1.620435 1_555
O19 P7 1.639613 1_555
O20 P0 1.620782 1_555
O20 P8 1.638840 1_555
O21 P1 1.619404 1_555
O21 P9 1.641049 1_556
O22 P2 1.621588 1_555
O22 P10 1.637486 1_555
O23 P3 1.621077 1_555
O23 P11 1.639060 1_556
O24 P9 1.531789 1_555
O25 P10 1.529976 1_555
O26 P11 1.531838 1_555
O27 P8 1.530619 1_455
O28 P7 1.531210 1_555
O29 P4 1.530001 1_555
O30 P5 1.531021 1_555
O31 P6 1.529201 1_655
O32 P0 1.504573 1_455
O33 P1 1.505504 1_555
O34 P2 1.504311 1_555
O35 P3 1.504712 1_555
O36 P0 1.504908 1_455
O37 P1 1.504926 1_555
O38 P2 1.504431 1_555
O39 P3 1.505547 1_555
