# generated using pymatgen
data_Na3GePCO7
_symmetry_space_group_name_H-M   'P 1'
_cell_length_a   7.06796200
_cell_length_b   5.15306200
_cell_length_c   9.24403705
_cell_angle_alpha   88.84626957
_cell_angle_beta   90.00000000
_cell_angle_gamma   90.00000000
_symmetry_Int_Tables_number   1
_chemical_formula_structural   Na3GePCO7
_chemical_formula_sum   'Na6 Ge2 P2 C2 O14'
_cell_volume   336.61479275
_cell_formula_units_Z   2
loop_
 _symmetry_equiv_pos_site_id
 _symmetry_equiv_pos_as_xyz
  1  'x, y, z'
loop_
 _atom_site_type_symbol
 _atom_site_label
 _atom_site_symmetry_multiplicity
 _atom_site_fract_x
 _atom_site_fract_y
 _atom_site_fract_z
 _atom_site_occupancy
  Na  Na0  1  0.25000000  0.76649800  0.91602500  1
  Na  Na1  1  0.00140700  0.25018600  0.74317200  1
  Na  Na2  1  0.49859300  0.25018600  0.74317200  1
  Na  Na3  1  0.50140700  0.74981400  0.25682800  1
  Na  Na4  1  0.99859300  0.74981400  0.25682800  1
  Na  Na5  1  0.75000000  0.23350200  0.08397500  1
  Ge  Ge0  1  0.75000000  0.77884400  0.63672900  1
  Ge  Ge1  1  0.25000000  0.22115600  0.36327100  1
  P  P0  1  0.25000000  0.70798100  0.59621700  1
  P  P1  1  0.75000000  0.29201900  0.40378300  1
  C  C0  1  0.75000000  0.72999300  0.94501200  1
  C  C1  1  0.25000000  0.27000700  0.05498800  1
  O  O0  1  0.25000000  0.27281400  0.91544300  1
  O  O1  1  0.75000000  0.95413300  0.87363100  1
  O  O2  1  0.75000000  0.51452400  0.87449600  1
  O  O3  1  0.07376700  0.80292900  0.68137400  1
  O  O4  1  0.42623300  0.80292900  0.68137400  1
  O  O5  1  0.25000000  0.40583100  0.59261300  1
  O  O6  1  0.75000000  0.18519900  0.56503100  1
  O  O7  1  0.25000000  0.81480100  0.43496900  1
  O  O8  1  0.75000000  0.59416900  0.40738700  1
  O  O9  1  0.57376700  0.19707100  0.31862600  1
  O  O10  1  0.92623300  0.19707100  0.31862600  1
  O  O11  1  0.25000000  0.48547600  0.12550400  1
  O  O12  1  0.25000000  0.04586700  0.12636900  1
  O  O13  1  0.75000000  0.72718600  0.08455700  1
loop_
_geom_bond_atom_site_label_1
_geom_bond_atom_site_label_2
_geom_bond_distance
_geom_bond_site_symmetry_2
Na0 O11 2.394557 1_556
Na0 O12 2.442537 1_566
Na0 O3 2.505090 1_555
Na0 O4 2.505090 1_555
Na0 O0 2.544098 1_555
Na0 O0 2.608975 1_565
Na1 O5 2.371196 1_555
Na1 O0 2.375768 1_555
Na1 O3 2.439830 1_545
Na1 O6 2.450227 1_455
Na1 O2 2.559932 1_455
Na1 O1 2.620145 1_445
Na2 O5 2.371196 1_555
Na2 O0 2.375768 1_555
Na2 O4 2.439830 1_545
Na2 O6 2.450227 1_555
Na2 O2 2.559932 1_555
Na2 O1 2.620145 1_545
Na3 O8 2.371196 1_555
Na3 O13 2.375768 1_555
Na3 O9 2.439830 1_565
Na3 O7 2.450227 1_555
Na3 O11 2.559932 1_555
Na3 O12 2.620145 1_565
Na4 O8 2.371196 1_555
Na4 O13 2.375768 1_555
Na4 O10 2.439830 1_565
Na4 O7 2.450227 1_655
Na4 O11 2.559932 1_655
Na4 O12 2.620145 1_665
Na5 O2 2.394557 1_554
Na5 O1 2.442537 1_544
Na5 O10 2.505090 1_555
Na5 O9 2.505090 1_555
Na5 O13 2.544098 1_555
Na5 O13 2.608975 1_545
Ge0 O6 2.183600 1_565
Ge0 O3 2.329042 1_655
Ge0 O4 2.329042 1_555
Ge0 O8 2.341252 1_555
Ge0 O1 2.385657 1_555
Ge1 O7 2.183600 1_545
Ge1 O10 2.329042 1_455
Ge1 O9 2.329042 1_555
Ge1 O5 2.341252 1_555
Ge1 O12 2.385657 1_555
C0 O13 1.289749 1_556
C0 O2 1.298799 1_555
C0 O1 1.318617 1_555
C1 O0 1.289749 1_554
C1 O11 1.298799 1_555
C1 O12 1.318617 1_555
O3 P0 1.557598 1_555
O4 P0 1.557598 1_555
O5 P0 1.558025 1_555
O6 P1 1.578541 1_555
O7 P0 1.578541 1_555
O8 P1 1.558025 1_555
O9 P1 1.557598 1_555
O10 P1 1.557598 1_555
