# generated using pymatgen
data_LiFeF4
_symmetry_space_group_name_H-M   'P 1'
_cell_length_a   7.82270597
_cell_length_b   7.82270597
_cell_length_c   7.82270597
_cell_angle_alpha   98.46864445
_cell_angle_beta   98.46864445
_cell_angle_gamma   134.86701905
_symmetry_Int_Tables_number   1
_chemical_formula_structural   LiFeF4
_chemical_formula_sum   'Li4 Fe4 F16'
_cell_volume   313.30542026
_cell_formula_units_Z   4
loop_
 _symmetry_equiv_pos_site_id
 _symmetry_equiv_pos_as_xyz
  1  'x, y, z'
loop_
 _atom_site_type_symbol
 _atom_site_label
 _atom_site_symmetry_multiplicity
 _atom_site_fract_x
 _atom_site_fract_y
 _atom_site_fract_z
 _atom_site_occupancy
  Li  Li0  1  0.56241000  0.87500000  0.18741000  1
  Li  Li1  1  0.62500000  0.43759000  0.31259000  1
  Li  Li2  1  0.12500000  0.31241000  0.68741000  1
  Li  Li3  1  0.68759000  0.37500000  0.81259000  1
  Fe  Fe0  1  0.08930300  0.87500000  0.71430300  1
  Fe  Fe1  1  0.62500000  0.91069700  0.78569700  1
  Fe  Fe2  1  0.12500000  0.83930300  0.21430300  1
  Fe  Fe3  1  0.16069700  0.37500000  0.28569700  1
  F  F0  1  0.05677300  0.82353000  0.44845300  1
  F  F1  1  0.77133500  0.51300200  0.60553800  1
  F  F2  1  0.34253600  0.23699800  0.75833300  1
  F  F3  1  0.87492300  0.92647000  0.73324300  1
  F  F4  1  0.07353000  0.80677300  0.94845300  1
  F  F5  1  0.17647000  0.62492300  0.23324300  1
  F  F6  1  0.83420300  0.22866500  0.74166700  1
  F  F7  1  0.41579700  0.65746400  0.89446200  1
  F  F8  1  0.48699800  0.09253600  0.25833300  1
  F  F9  1  0.76300200  0.52133500  0.10553800  1
  F  F10  1  0.85832000  0.12507700  0.05154700  1
  F  F11  1  0.39168000  0.94322700  0.76675700  1
  F  F12  1  0.19322700  0.14168000  0.26675700  1
  F  F13  1  0.47866500  0.58420300  0.24166700  1
  F  F14  1  0.90746400  0.16579700  0.39446200  1
  F  F15  1  0.37507700  0.60832000  0.55154700  1
loop_
_geom_bond_atom_site_label_1
_geom_bond_atom_site_label_2
_geom_bond_distance
_geom_bond_site_symmetry_2
F0 Fe2 1.979078 1_555
F0 Fe0 2.001204 1_555
F0 Li1 2.294061 1_455
F1 Fe0 1.912809 1_655
F1 Li3 2.011901 1_555
F1 Li1 2.187787 1_555
F2 Fe0 1.912809 1_545
F2 Li3 2.011901 1_555
F2 Li2 2.187787 1_555
F3 Fe1 1.979078 1_555
F3 Fe0 2.001204 1_655
F3 Li2 2.294061 1_665
F4 Fe0 1.979078 1_555
F4 Fe2 2.001204 1_556
F4 Li3 2.294061 1_455
F5 Fe3 1.979078 1_555
F5 Fe2 2.001204 1_555
F5 Li0 2.294061 1_555
F6 Fe1 1.912809 1_545
F6 Li2 2.011901 1_655
F6 Li3 2.187787 1_555
F7 Fe1 1.912809 1_555
F7 Li2 2.011901 1_555
F7 Li0 2.187787 1_556
F8 Fe2 1.912809 1_545
F8 Li1 2.011901 1_555
F8 Li0 2.187787 1_545
F9 Fe2 1.912809 1_655
F9 Li1 2.011901 1_555
F9 Li3 2.187787 1_554
F10 Fe3 1.979078 1_655
F10 Fe1 2.001204 1_544
F10 Li0 2.294061 1_545
F11 Fe0 1.979078 1_555
F11 Fe1 2.001204 1_555
F11 Li3 2.294061 1_565
F12 Fe2 1.979078 1_545
F12 Fe3 2.001204 1_555
F12 Li1 2.294061 1_555
F13 Fe3 1.912809 1_555
F13 Li0 2.011901 1_555
F13 Li1 2.187787 1_555
F14 Fe3 1.912809 1_655
F14 Li0 2.011901 1_545
F14 Li2 2.187787 1_655
F15 Fe1 1.979078 1_555
F15 Fe3 2.001204 1_555
F15 Li2 2.294061 1_555
