# generated using pymatgen
data_Li2Bi2B2O7
_symmetry_space_group_name_H-M   'P 1'
_cell_length_a   6.50345000
_cell_length_b   10.47995300
_cell_length_c   10.57185714
_cell_angle_alpha   61.04547939
_cell_angle_beta   90.00000000
_cell_angle_gamma   90.00000000
_symmetry_Int_Tables_number   1
_chemical_formula_structural   Li2Bi2B2O7
_chemical_formula_sum   'Li8 Bi8 B8 O28'
_cell_volume   630.47024108
_cell_formula_units_Z   4
loop_
 _symmetry_equiv_pos_site_id
 _symmetry_equiv_pos_as_xyz
  1  'x, y, z'
loop_
 _atom_site_type_symbol
 _atom_site_label
 _atom_site_symmetry_multiplicity
 _atom_site_fract_x
 _atom_site_fract_y
 _atom_site_fract_z
 _atom_site_occupancy
  Li  Li0  1  0.28023000  0.59884200  0.97968200  1
  Li  Li1  1  0.90784700  0.49975600  0.72410100  1
  Li  Li2  1  0.40784700  0.50024400  0.77589900  1
  Li  Li3  1  0.21977000  0.59884200  0.47968200  1
  Li  Li4  1  0.78023000  0.40115800  0.52031800  1
  Li  Li5  1  0.59215300  0.49975600  0.22410100  1
  Li  Li6  1  0.09215300  0.50024400  0.27589900  1
  Li  Li7  1  0.71977000  0.40115800  0.02031800  1
  Bi  Bi0  1  0.45511200  0.00167200  0.81559300  1
  Bi  Bi1  1  0.04488800  0.00167200  0.31559300  1
  Bi  Bi2  1  0.57401800  0.80009900  0.59664900  1
  Bi  Bi3  1  0.92598200  0.80009900  0.09664900  1
  Bi  Bi4  1  0.07401800  0.19990100  0.90335100  1
  Bi  Bi5  1  0.42598200  0.19990100  0.40335100  1
  Bi  Bi6  1  0.95511200  0.99832800  0.68440700  1
  Bi  Bi7  1  0.54488800  0.99832800  0.18440700  1
  B  B0  1  0.74737000  0.66073400  0.93255700  1
  B  B1  1  0.15146400  0.76649400  0.65759800  1
  B  B2  1  0.75263000  0.66073400  0.43255700  1
  B  B3  1  0.34853600  0.76649400  0.15759800  1
  B  B4  1  0.65146400  0.23350600  0.84240200  1
  B  B5  1  0.24737000  0.33926600  0.56744300  1
  B  B6  1  0.84853600  0.23350600  0.34240200  1
  B  B7  1  0.25263000  0.33926600  0.06744300  1
  O  O0  1  0.12872000  0.98154300  0.90255800  1
  O  O1  1  0.79595700  0.81138900  0.87666800  1
  O  O2  1  0.24856400  0.81074400  0.74752700  1
  O  O3  1  0.37128000  0.98154300  0.40255800  1
  O  O4  1  0.96325900  0.83449300  0.59635500  1
  O  O5  1  0.64808000  0.60976300  0.85144700  1
  O  O6  1  0.70404300  0.81138900  0.37666800  1
  O  O7  1  0.24350500  0.67067000  0.62166400  1
  O  O8  1  0.25143600  0.81074400  0.24752700  1
  O  O9  1  0.53674100  0.83449300  0.09635500  1
  O  O10  1  0.70002500  0.56938000  0.57483500  1
  O  O11  1  0.20002500  0.43062000  0.92516500  1
  O  O12  1  0.85192000  0.60976300  0.35144700  1
  O  O13  1  0.25649500  0.67067000  0.12166400  1
  O  O14  1  0.74350500  0.32933000  0.87833600  1
  O  O15  1  0.14808000  0.39023700  0.64855300  1
  O  O16  1  0.79997500  0.56938000  0.07483500  1
  O  O17  1  0.29997500  0.43062000  0.42516500  1
  O  O18  1  0.46325900  0.16550700  0.90364500  1
  O  O19  1  0.74856400  0.18925600  0.75247300  1
  O  O20  1  0.75649500  0.32933000  0.37833600  1
  O  O21  1  0.29595700  0.18861100  0.62333200  1
  O  O22  1  0.35192000  0.39023700  0.14855300  1
  O  O23  1  0.03674100  0.16550700  0.40364500  1
  O  O24  1  0.62872000  0.01845700  0.59744200  1
  O  O25  1  0.75143600  0.18925600  0.25247300  1
  O  O26  1  0.20404300  0.18861100  0.12333200  1
  O  O27  1  0.87128000  0.01845700  0.09744200  1
loop_
_geom_bond_atom_site_label_1
_geom_bond_atom_site_label_2
_geom_bond_distance
_geom_bond_site_symmetry_2
Li0 O13 1.984315 1_556
Li0 O22 2.098811 1_556
Li0 O11 2.167041 1_555
Li0 O2 2.391750 1_555
Li1 O10 1.932466 1_555
Li1 O14 2.042369 1_555
Li1 O15 2.298634 1_655
Li2 O11 1.932466 1_555
Li2 O7 2.042369 1_555
Li2 O5 2.298634 1_555
Li3 O7 1.984315 1_555
Li3 O15 2.098811 1_555
Li3 O17 2.167041 1_555
Li3 O8 2.391750 1_555
Li4 O20 1.984315 1_555
Li4 O12 2.098811 1_555
Li4 O10 2.167041 1_555
Li4 O19 2.391750 1_555
Li5 O16 1.932466 1_555
Li5 O20 2.042369 1_555
Li5 O22 2.298634 1_555
Li6 O17 1.932466 1_555
Li6 O13 2.042369 1_555
Li6 O12 2.298634 1_455
Li7 O14 1.984315 1_554
Li7 O5 2.098811 1_554
Li7 O16 2.167041 1_555
Li7 O25 2.391750 1_555
Bi0 O21 2.277114 1_555
Bi0 O0 2.282044 1_545
Bi0 O18 2.316221 1_555
Bi0 O24 2.496346 1_555
Bi0 O19 2.584952 1_555
Bi0 O9 2.669528 1_546
Bi0 O2 2.778478 1_545
Bi0 O1 2.839103 1_545
Bi1 O26 2.277114 1_555
Bi1 O3 2.282044 1_545
Bi1 O23 2.316221 1_555
Bi1 O27 2.496346 1_455
Bi1 O25 2.584952 1_455
Bi1 O4 2.669528 1_445
Bi1 O8 2.778478 1_545
Bi1 O6 2.839103 1_445
Bi2 O24 2.319891 1_565
Bi2 O3 2.405566 1_555
Bi2 O6 2.423033 1_555
Bi2 O7 2.486506 1_555
Bi2 O5 2.502878 1_555
Bi2 O4 2.556732 1_555
Bi2 O10 2.666642 1_555
Bi2 O2 2.684928 1_555
Bi3 O27 2.319891 1_565
Bi3 O0 2.405566 1_654
Bi3 O1 2.423033 1_554
Bi3 O13 2.486506 1_655
Bi3 O12 2.502878 1_555
Bi3 O9 2.556732 1_555
Bi3 O16 2.666642 1_555
Bi3 O8 2.684928 1_655
Bi4 O0 2.319891 1_545
Bi4 O27 2.405566 1_456
Bi4 O26 2.423033 1_556
Bi4 O14 2.486506 1_455
Bi4 O15 2.502878 1_555
Bi4 O18 2.556732 1_555
Bi4 O11 2.666642 1_555
Bi4 O19 2.684928 1_455
Bi5 O3 2.319891 1_545
Bi5 O24 2.405566 1_555
Bi5 O21 2.423033 1_555
Bi5 O20 2.486506 1_555
Bi5 O22 2.502878 1_555
Bi5 O23 2.556732 1_555
Bi5 O17 2.666642 1_555
Bi5 O25 2.684928 1_555
Bi6 O1 2.277114 1_555
Bi6 O24 2.282044 1_565
Bi6 O4 2.316221 1_555
Bi6 O0 2.496346 1_655
Bi6 O2 2.584952 1_655
Bi6 O23 2.669528 1_665
Bi6 O19 2.778478 1_565
Bi6 O21 2.839103 1_665
Bi7 O6 2.277114 1_555
Bi7 O27 2.282044 1_565
Bi7 O9 2.316221 1_555
Bi7 O3 2.496346 1_555
Bi7 O8 2.584952 1_555
Bi7 O18 2.669528 1_564
Bi7 O25 2.778478 1_565
Bi7 O26 2.839103 1_565
B0 O5 1.371523 1_555
B0 O16 1.379050 1_556
B0 O1 1.427763 1_555
B1 O7 1.371304 1_555
B1 O2 1.394477 1_555
B1 O4 1.406566 1_455
B2 O12 1.371523 1_555
B2 O10 1.379050 1_555
B2 O6 1.427763 1_555
B3 O13 1.371304 1_555
B3 O8 1.394477 1_555
B3 O9 1.406566 1_555
B4 O14 1.371304 1_555
B4 O19 1.394477 1_555
B4 O18 1.406566 1_555
B5 O15 1.371523 1_555
B5 O17 1.379050 1_555
B5 O21 1.427763 1_555
B6 O20 1.371304 1_555
B6 O25 1.394477 1_555
B6 O23 1.406566 1_655
B7 O22 1.371523 1_555
B7 O11 1.379050 1_554
B7 O26 1.427763 1_555
