# generated using pymatgen
data_NaV5O8
_symmetry_space_group_name_H-M   'P 1'
_cell_length_a   8.64831900
_cell_length_b   8.64831900
_cell_length_c   8.64831900
_cell_angle_alpha   90.00000000
_cell_angle_beta   90.00000000
_cell_angle_gamma   90.00000000
_symmetry_Int_Tables_number   1
_chemical_formula_structural   NaV5O8
_chemical_formula_sum   'Na4 V20 O32'
_cell_volume   646.83736846
_cell_formula_units_Z   4
loop_
 _symmetry_equiv_pos_site_id
 _symmetry_equiv_pos_as_xyz
  1  'x, y, z'
loop_
 _atom_site_type_symbol
 _atom_site_label
 _atom_site_symmetry_multiplicity
 _atom_site_fract_x
 _atom_site_fract_y
 _atom_site_fract_z
 _atom_site_occupancy
  Na  Na0  1  0.12500000  0.87500000  0.37500000  1
  Na  Na1  1  0.37500000  0.12500000  0.87500000  1
  Na  Na2  1  0.62500000  0.62500000  0.62500000  1
  Na  Na3  1  0.87500000  0.37500000  0.12500000  1
  V  V0  1  0.99978900  0.99978900  0.99978900  1
  V  V1  1  0.00021100  0.49978900  0.50021100  1
  V  V2  1  0.12566200  0.12433800  0.62500000  1
  V  V3  1  0.12433800  0.62500000  0.12566200  1
  V  V4  1  0.12500000  0.37433800  0.87566200  1
  V  V5  1  0.25021100  0.25021100  0.25021100  1
  V  V6  1  0.24978900  0.74978900  0.75021100  1
  V  V7  1  0.37566200  0.37500000  0.62566200  1
  V  V8  1  0.37500000  0.62566200  0.37566200  1
  V  V9  1  0.37433800  0.87566200  0.12500000  1
  V  V10  1  0.50021100  0.00021100  0.49978900  1
  V  V11  1  0.49978900  0.50021100  0.00021100  1
  V  V12  1  0.62500000  0.12566200  0.12433800  1
  V  V13  1  0.62566200  0.37566200  0.37500000  1
  V  V14  1  0.62433800  0.87500000  0.87433800  1
  V  V15  1  0.75021100  0.24978900  0.74978900  1
  V  V16  1  0.74978900  0.75021100  0.24978900  1
  V  V17  1  0.87566200  0.12500000  0.37433800  1
  V  V18  1  0.87433800  0.62433800  0.87500000  1
  V  V19  1  0.87500000  0.87433800  0.62433800  1
  O  O0  1  0.14119900  0.38560600  0.10803000  1
  O  O1  1  0.14197000  0.86439400  0.10880100  1
  O  O2  1  0.13473300  0.36526700  0.63473300  1
  O  O3  1  0.10803000  0.14119900  0.38560600  1
  O  O4  1  0.11439400  0.89197000  0.64119900  1
  O  O5  1  0.10880100  0.14197000  0.86439400  1
  O  O6  1  0.13560600  0.60880100  0.35803000  1
  O  O7  1  0.11526700  0.61526700  0.88473300  1
  O  O8  1  0.38560600  0.10803000  0.14119900  1
  O  O9  1  0.38473300  0.38473300  0.38473300  1
  O  O10  1  0.35803000  0.13560600  0.60880100  1
  O  O11  1  0.36439400  0.39119900  0.85803000  1
  O  O12  1  0.36526700  0.63473300  0.13473300  1
  O  O13  1  0.39119900  0.85803000  0.36439400  1
  O  O14  1  0.35880100  0.61439400  0.60803000  1
  O  O15  1  0.39197000  0.85880100  0.88560600  1
  O  O16  1  0.63473300  0.13473300  0.36526700  1
  O  O17  1  0.60880100  0.35803000  0.13560600  1
  O  O18  1  0.60803000  0.35880100  0.61439400  1
  O  O19  1  0.61439400  0.60803000  0.35880100  1
  O  O20  1  0.64119900  0.11439400  0.89197000  1
  O  O21  1  0.64197000  0.63560600  0.89119900  1
  O  O22  1  0.61526700  0.88473300  0.11526700  1
  O  O23  1  0.63560600  0.89119900  0.64197000  1
  O  O24  1  0.86439400  0.10880100  0.14197000  1
  O  O25  1  0.88473300  0.11526700  0.61526700  1
  O  O26  1  0.85803000  0.36439400  0.39119900  1
  O  O27  1  0.89197000  0.64119900  0.11439400  1
  O  O28  1  0.89119900  0.64197000  0.63560600  1
  O  O29  1  0.88560600  0.39197000  0.85880100  1
  O  O30  1  0.85880100  0.88560600  0.39197000  1
  O  O31  1  0.86526700  0.86526700  0.86526700  1
loop_
_geom_bond_atom_site_label_1
_geom_bond_atom_site_label_2
_geom_bond_distance
_geom_bond_site_symmetry_2
Na0 O13 2.308670 1_555
Na0 O4 2.308670 1_555
Na0 O1 2.308670 1_555
Na0 O3 2.308670 1_565
Na0 O30 2.308670 1_455
Na0 O6 2.308670 1_555
Na1 O11 2.308670 1_555
Na1 O20 2.308670 1_555
Na1 O5 2.308670 1_555
Na1 O8 2.308670 1_556
Na1 O15 2.308670 1_545
Na1 O10 2.308670 1_555
Na2 O28 2.308670 1_555
Na2 O23 2.308670 1_555
Na2 O21 2.308670 1_555
Na2 O18 2.308670 1_555
Na2 O19 2.308670 1_555
Na2 O14 2.308670 1_555
Na3 O26 2.308670 1_555
Na3 O27 2.308670 1_555
Na3 O24 2.308670 1_555
Na3 O0 2.308670 1_655
Na3 O29 2.308670 1_554
Na3 O17 2.308670 1_555
O0 V5 1.942137 1_555
O0 V4 2.016825 1_554
O0 V3 2.081079 1_555
O1 V0 1.942137 1_454
O1 V9 2.016825 1_555
O1 V3 2.081079 1_555
O2 V1 2.015049 1_555
O2 V4 2.086805 1_555
O2 V7 2.086805 1_555
O2 V2 2.086805 1_555
O3 V5 1.942137 1_555
O3 V17 2.016825 1_455
O3 V2 2.081079 1_555
O4 V6 1.942137 1_555
O4 V2 2.016825 1_565
O4 V19 2.081079 1_455
O5 V0 1.942137 1_445
O5 V4 2.016825 1_555
O5 V2 2.081079 1_555
O6 V1 1.942137 1_555
O6 V3 2.016825 1_555
O6 V8 2.081079 1_555
O7 V6 2.015049 1_555
O7 V3 2.086805 1_556
O7 V4 2.086805 1_555
O7 V18 2.086805 1_455
O8 V5 1.942137 1_555
O8 V9 2.016825 1_545
O8 V12 2.081079 1_555
O9 V5 2.015049 1_555
O9 V8 2.086805 1_555
O9 V7 2.086805 1_555
O9 V13 2.086805 1_555
O10 V10 1.942137 1_555
O10 V2 2.016825 1_555
O10 V7 2.081079 1_555
O11 V11 1.942137 1_556
O11 V7 2.016825 1_555
O11 V4 2.081079 1_555
O12 V11 2.015049 1_555
O12 V9 2.086805 1_555
O12 V8 2.086805 1_555
O12 V3 2.086805 1_555
O13 V10 1.942137 1_565
O13 V8 2.016825 1_555
O13 V9 2.081079 1_555
O14 V6 1.942137 1_555
O14 V8 2.016825 1_555
O14 V7 2.081079 1_555
O15 V6 1.942137 1_555
O15 V14 2.016825 1_555
O15 V9 2.081079 1_556
O16 V10 2.015049 1_555
O16 V17 2.086805 1_555
O16 V13 2.086805 1_555
O16 V12 2.086805 1_555
O17 V11 1.942137 1_555
O17 V12 2.016825 1_555
O17 V13 2.081079 1_555
O18 V15 1.942137 1_555
O18 V7 2.016825 1_555
O18 V13 2.081079 1_555
O19 V16 1.942137 1_555
O19 V13 2.016825 1_555
O19 V8 2.081079 1_555
O20 V15 1.942137 1_555
O20 V12 2.016825 1_556
O20 V14 2.081079 1_545
O21 V11 1.942137 1_556
O21 V18 2.016825 1_555
O21 V14 2.081079 1_555
O22 V16 2.015049 1_555
O22 V12 2.086805 1_565
O22 V9 2.086805 1_555
O22 V14 2.086805 1_554
O23 V10 1.942137 1_565
O23 V14 2.016825 1_555
O23 V19 2.081079 1_555
O24 V0 1.942137 1_544
O24 V17 2.016825 1_555
O24 V12 2.081079 1_555
O25 V15 2.015049 1_555
O25 V2 2.086805 1_655
O25 V19 2.086805 1_545
O25 V17 2.086805 1_555
O26 V1 1.942137 1_655
O26 V13 2.016825 1_555
O26 V17 2.081079 1_555
O27 V16 1.942137 1_555
O27 V3 2.016825 1_655
O27 V18 2.081079 1_554
O28 V1 1.942137 1_655
O28 V19 2.016825 1_555
O28 V18 2.081079 1_555
O29 V15 1.942137 1_555
O29 V18 2.016825 1_555
O29 V4 2.081079 1_655
O30 V16 1.942137 1_555
O30 V19 2.016825 1_555
O30 V17 2.081079 1_565
O31 V0 2.015049 1_555
O31 V14 2.086805 1_555
O31 V18 2.086805 1_555
O31 V19 2.086805 1_555
