# generated using pymatgen
data_V4O5F7
_symmetry_space_group_name_H-M   'P 1'
_cell_length_a   5.36764599
_cell_length_b   5.36764599
_cell_length_c   8.98985734
_cell_angle_alpha   73.46217769
_cell_angle_beta   73.46217769
_cell_angle_gamma   57.71511353
_symmetry_Int_Tables_number   1
_chemical_formula_structural   V4O5F7
_chemical_formula_sum   'V4 O5 F7'
_cell_volume   207.08227983
_cell_formula_units_Z   1
loop_
 _symmetry_equiv_pos_site_id
 _symmetry_equiv_pos_as_xyz
  1  'x, y, z'
loop_
 _atom_site_type_symbol
 _atom_site_label
 _atom_site_symmetry_multiplicity
 _atom_site_fract_x
 _atom_site_fract_y
 _atom_site_fract_z
 _atom_site_occupancy
  V  V0  1  0.78750100  0.48725800  0.62111300  1
  V  V1  1  0.51274200  0.21249900  0.37888700  1
  V  V2  1  0.20734000  0.00512500  0.12168800  1
  V  V3  1  0.99487500  0.79266000  0.87831200  1
  O  O0  1  0.83288200  0.15755500  0.80002200  1
  O  O1  1  0.84244500  0.16711800  0.19997800  1
  O  O2  1  0.15189000  0.34389200  0.54116000  1
  O  O3  1  0.21799300  0.78200700  0.00000000  1
  O  O4  1  0.65610800  0.84811000  0.45884000  1
  F  F0  1  0.33719300  0.66839700  0.29259400  1
  F  F1  1  0.33160300  0.66280700  0.70740600  1
  F  F2  1  0.78314400  0.71449200  0.75721600  1
  F  F3  1  0.70954100  0.29045900  0.50000000  1
  F  F4  1  0.17695200  0.32771600  0.95135400  1
  F  F5  1  0.28550800  0.21685600  0.24278400  1
  F  F6  1  0.67228400  0.82304800  0.04864600  1
loop_
_geom_bond_atom_site_label_1
_geom_bond_atom_site_label_2
_geom_bond_distance
_geom_bond_site_symmetry_2
O0 V3 1.682838 1_545
O0 V0 1.979954 1_555
O1 V2 1.682838 1_655
O1 V1 1.979954 1_555
O2 V0 1.685545 1_455
O2 V1 1.973583 1_555
O3 V2 1.808700 1_565
O3 V3 1.808700 1_454
O4 V1 1.685545 1_565
O4 V0 1.973583 1_555
F0 V2 1.948378 1_565
F0 V1 2.085703 1_555
F1 V3 1.948378 1_455
F1 V0 2.085703 1_555
F2 V0 1.946317 1_555
F2 V3 2.031400 1_555
F3 V1 1.965402 1_555
F3 V0 1.965402 1_555
F4 V2 1.923718 1_556
F4 V3 2.107485 1_455
F5 V1 1.946317 1_555
F5 V2 2.031400 1_555
F6 V3 1.923718 1_554
F6 V2 2.107485 1_565
