# generated using pymatgen
data_LiVGaO4
_symmetry_space_group_name_H-M   'P 1'
_cell_length_a   5.88352153
_cell_length_b   5.89653132
_cell_length_c   8.59651075
_cell_angle_alpha   90.00141396
_cell_angle_beta   90.00841830
_cell_angle_gamma   90.84360681
_symmetry_Int_Tables_number   1
_chemical_formula_structural   LiVGaO4
_chemical_formula_sum   'Li4 V4 Ga4 O16'
_cell_volume   298.20099288
_cell_formula_units_Z   4
loop_
 _symmetry_equiv_pos_site_id
 _symmetry_equiv_pos_as_xyz
  1  'x, y, z'
loop_
 _atom_site_type_symbol
 _atom_site_label
 _atom_site_symmetry_multiplicity
 _atom_site_fract_x
 _atom_site_fract_y
 _atom_site_fract_z
 _atom_site_occupancy
  Li  Li0  1  0.24981000  0.49995400  0.63420800  1
  Li  Li1  1  0.75000600  0.99988400  0.13371900  1
  Li  Li2  1  0.24999300  0.00009300  0.86629200  1
  Li  Li3  1  0.75019000  0.50004700  0.36579900  1
  V  V0  1  0.99998900  0.00007300  0.49999400  1
  V  V1  1  0.50006500  0.00005800  0.49994100  1
  V  V2  1  0.50002400  0.50002800  0.99999300  1
  V  V3  1  0.99994000  0.49991000  0.00002200  1
  Ga  Ga0  1  0.25011600  0.74995400  0.24996600  1
  Ga  Ga1  1  0.74987400  0.25001600  0.75004400  1
  Ga  Ga2  1  0.75035000  0.75028500  0.75013600  1
  Ga  Ga3  1  0.24964600  0.24972200  0.24984700  1
  O  O0  1  0.97525100  0.00850600  0.73262900  1
  O  O1  1  0.47515300  0.50806900  0.23224700  1
  O  O2  1  0.97474000  0.50824900  0.76746000  1
  O  O3  1  0.47495200  0.00825900  0.26741500  1
  O  O4  1  0.52507500  0.99174400  0.73258400  1
  O  O5  1  0.02522700  0.49172900  0.23254600  1
  O  O6  1  0.52487100  0.49190600  0.76775500  1
  O  O7  1  0.02472500  0.99150600  0.26737800  1
  O  O8  1  0.74174100  0.72132100  0.99360300  1
  O  O9  1  0.24204700  0.22102100  0.49363100  1
  O  O10  1  0.75841200  0.27876700  0.99390500  1
  O  O11  1  0.25794700  0.77903600  0.49365600  1
  O  O12  1  0.74206700  0.22102700  0.50633900  1
  O  O13  1  0.24156800  0.72116200  0.00611200  1
  O  O14  1  0.75795400  0.77898300  0.50637000  1
  O  O15  1  0.25826800  0.27869100  0.00640900  1
loop_
_geom_bond_atom_site_label_1
_geom_bond_atom_site_label_2
_geom_bond_distance
_geom_bond_site_symmetry_2
Li0 O2 1.984086 1_455
Li0 O6 1.985181 1_555
Li0 O9 2.040913 1_555
Li0 O11 2.041574 1_555
Li1 O7 1.984169 1_655
Li1 O3 1.986233 1_565
Li1 O8 2.036843 1_554
Li1 O10 2.036897 1_564
Li2 O0 1.984307 1_455
Li2 O4 1.986421 1_545
Li2 O15 2.037015 1_556
Li2 O13 2.037158 1_546
Li3 O5 1.983937 1_655
Li3 O1 1.985086 1_555
Li3 O14 2.040896 1_555
Li3 O12 2.041217 1_555
Ga0 O7 1.966031 1_555
Ga0 O1 1.966251 1_555
Ga0 O5 2.008018 1_555
Ga0 O3 2.008188 1_565
Ga0 O11 2.102329 1_555
Ga0 O13 2.103687 1_555
Ga1 O0 1.965794 1_555
Ga1 O6 1.966130 1_555
Ga1 O4 2.007908 1_545
Ga1 O2 2.007963 1_555
Ga1 O12 2.102410 1_555
Ga1 O10 2.103726 1_555
Ga2 O2 1.964020 1_555
Ga2 O4 1.965228 1_555
Ga2 O0 2.008137 1_565
Ga2 O6 2.011110 1_555
Ga2 O8 2.100485 1_555
Ga2 O14 2.102792 1_555
Ga3 O5 1.963995 1_555
Ga3 O3 1.965381 1_555
Ga3 O7 2.008206 1_545
Ga3 O1 2.011064 1_555
Ga3 O15 2.100241 1_555
Ga3 O9 2.102947 1_555
O0 V0 2.005828 1_555
O1 V2 2.002562 1_554
O2 V3 2.005348 1_556
O3 V1 2.004981 1_555
O4 V1 2.005956 1_565
O5 V3 2.005037 1_455
O6 V2 2.002426 1_555
O7 V0 2.005685 1_465
O8 V2 1.916655 1_555
O8 V3 2.018323 1_556
O9 V0 1.916756 1_455
O9 V1 2.015748 1_555
O10 V3 1.915169 1_556
O10 V2 2.018523 1_555
O11 V1 1.917274 1_565
O11 V0 2.015783 1_465
O12 V1 1.916592 1_555
O12 V0 2.015301 1_555
O13 V3 1.916024 1_455
O13 V2 2.018343 1_554
O14 V0 1.917220 1_565
O14 V1 2.015632 1_565
O15 V2 1.917003 1_554
O15 V3 2.018149 1_455
