# generated using pymatgen
data_Li24Mn5Cr7O36
_symmetry_space_group_name_H-M   'P 1'
_cell_length_a   5.01628000
_cell_length_b   9.74095948
_cell_length_c   13.26678561
_cell_angle_alpha   97.02865707
_cell_angle_beta   100.52481458
_cell_angle_gamma   94.80965986
_symmetry_Int_Tables_number   1
_chemical_formula_structural   Li24Mn5Cr7O36
_chemical_formula_sum   'Li24 Mn5 Cr7 O36'
_cell_volume   628.80656432
_cell_formula_units_Z   1
loop_
 _symmetry_equiv_pos_site_id
 _symmetry_equiv_pos_as_xyz
  1  'x, y, z'
loop_
 _atom_site_type_symbol
 _atom_site_label
 _atom_site_symmetry_multiplicity
 _atom_site_fract_x
 _atom_site_fract_y
 _atom_site_fract_z
 _atom_site_occupancy
  Li  Li0  1  0.16786800  0.99983200  0.83373300  1
  Li  Li1  1  0.05154700  0.00093700  0.61394000  1
  Li  Li2  1  0.00185100  0.74993500  0.25082900  1
  Li  Li3  1  0.33290900  0.74966100  0.91540000  1
  Li  Li4  1  0.04603600  0.49874800  0.11200200  1
  Li  Li5  1  0.37859800  0.50007600  0.77900800  1
  Li  Li6  1  0.16596900  0.50063900  0.33272300  1
  Li  Li7  1  0.49904000  0.49932300  0.99882000  1
  Li  Li8  1  0.28711400  0.49984100  0.55538600  1
  Li  Li9  1  0.33663500  0.25008100  0.41612800  1
  Li  Li10  1  0.49868000  0.99981200  0.50020800  1
  Li  Li11  1  0.28181600  0.00049600  0.05186500  1
  Li  Li12  1  0.61377600  0.99933300  0.71972400  1
  Li  Li13  1  0.38415100  0.00077800  0.28146700  1
  Li  Li14  1  0.71720600  0.99940700  0.94693300  1
  Li  Li15  1  0.66604800  0.75031500  0.58359100  1
  Li  Li16  1  0.71387300  0.49914400  0.44499400  1
  Li  Li17  1  0.83339700  0.49996700  0.66731700  1
  Li  Li18  1  0.61993900  0.50042800  0.22219600  1
  Li  Li19  1  0.95322600  0.50147700  0.88858100  1
  Li  Li20  1  0.66996400  0.24996800  0.08242400  1
  Li  Li21  1  0.83364400  0.00076300  0.16679400  1
  Li  Li22  1  0.00371100  0.24999200  0.74932200  1
  Li  Li23  1  0.94774700  0.99949000  0.38576100  1
  Mn  Mn0  1  0.11023400  0.25006200  0.97249400  1
  Mn  Mn1  1  0.11161200  0.75136900  0.47231600  1
  Mn  Mn2  1  0.44318600  0.25004700  0.63924200  1
  Mn  Mn3  1  0.77703100  0.74929900  0.80641100  1
  Mn  Mn4  1  0.77632200  0.25003600  0.30566100  1
  Cr  Cr0  1  0.21990400  0.75010000  0.69258500  1
  Cr  Cr1  1  0.22791400  0.25000600  0.19318600  1
  Cr  Cr2  1  0.56208000  0.24971200  0.85988900  1
  Cr  Cr3  1  0.43985500  0.74860900  0.13551300  1
  Cr  Cr4  1  0.56140900  0.75049700  0.36105700  1
  Cr  Cr5  1  0.89448700  0.24994900  0.52643800  1
  Cr  Cr6  1  0.89098700  0.75035400  0.03115600  1
  O  O0  1  0.99842100  0.86078400  0.92828800  1
  O  O1  1  0.06639100  0.63482200  0.78623500  1
  O  O2  1  0.99675700  0.36134200  0.42930700  1
  O  O3  1  0.14854400  0.36326400  0.64483300  1
  O  O4  1  0.26388000  0.36339700  0.88217900  1
  O  O5  1  0.33358000  0.86240500  0.59390300  1
  O  O6  1  0.06808800  0.13635100  0.28449500  1
  O  O7  1  0.18696200  0.13901400  0.52451400  1
  O  O8  1  0.40151500  0.13639300  0.95124100  1
  O  O9  1  0.13499600  0.86317500  0.14068800  1
  O  O10  1  0.25962300  0.86435400  0.38134500  1
  O  O11  1  0.47899600  0.86246500  0.81024300  1
  O  O12  1  0.32957500  0.13633100  0.73544000  1
  O  O13  1  0.19847100  0.63709300  0.02582700  1
  O  O14  1  0.40186800  0.63634700  0.45103400  1
  O  O15  1  0.52089000  0.63860800  0.69152200  1
  O  O16  1  0.33515800  0.63732000  0.23674900  1
  O  O17  1  0.66542500  0.63835100  0.90463200  1
  O  O18  1  0.33029500  0.36129900  0.09606200  1
  O  O19  1  0.66268700  0.36107500  0.76273000  1
  O  O20  1  0.48211800  0.36315100  0.31149200  1
  O  O21  1  0.59756800  0.36395500  0.54899900  1
  O  O22  1  0.81558200  0.36332100  0.97818100  1
  O  O23  1  0.66283100  0.86162300  0.26306200  1
  O  O24  1  0.52038000  0.13861400  0.19123400  1
  O  O25  1  0.73497700  0.13634800  0.61791400  1
  O  O26  1  0.85418100  0.13884800  0.85799700  1
  O  O27  1  0.59217200  0.86590900  0.05128500  1
  O  O28  1  0.81301200  0.86221700  0.47706600  1
  O  O29  1  0.93429000  0.86336600  0.71620900  1
  O  O30  1  0.66298100  0.13667700  0.40224700  1
  O  O31  1  0.74130400  0.63466000  0.11539000  1
  O  O32  1  0.85863800  0.63833600  0.35726800  1
  O  O33  1  0.00084800  0.63799000  0.57088200  1
  O  O34  1  0.93058400  0.36372500  0.21541900  1
  O  O35  1  0.99664700  0.13658300  0.06898800  1
loop_
_geom_bond_atom_site_label_1
_geom_bond_atom_site_label_2
_geom_bond_distance
_geom_bond_site_symmetry_2
Li0 O29 2.033497 1_455
Li0 O8 2.033979 1_565
Li0 O0 2.177836 1_455
Li0 O11 2.179272 1_555
Li0 O12 2.180898 1_565
Li0 O26 2.202059 1_465
Li1 O7 2.051758 1_555
Li1 O5 2.064684 1_545
Li1 O29 2.141719 1_445
Li1 O25 2.151558 1_455
Li1 O12 2.152388 1_555
Li1 O28 2.211259 1_445
Li2 O32 2.075379 1_455
Li2 O10 2.092962 1_555
Li2 O16 2.098862 1_555
Li2 O9 2.103673 1_555
Li2 O23 2.114227 1_455
Li2 O31 2.144734 1_455
Li3 O11 2.074688 1_555
Li3 O17 2.081025 1_555
Li3 O0 2.092916 1_455
Li3 O1 2.101979 1_555
Li3 O13 2.105580 1_556
Li3 O27 2.149539 1_556
Li4 O13 2.057045 1_555
Li4 O18 2.057087 1_555
Li4 O31 2.107452 1_455
Li4 O34 2.133515 1_455
Li4 O22 2.156366 1_454
Li4 O16 2.216432 1_555
Li5 O15 2.049882 1_555
Li5 O19 2.067661 1_555
Li5 O1 2.133890 1_555
Li5 O4 2.140668 1_555
Li5 O3 2.165067 1_555
Li5 O17 2.216222 1_555
Li6 O34 2.037513 1_455
Li6 O14 2.040290 1_555
Li6 O32 2.169124 1_455
Li6 O16 2.175845 1_555
Li6 O20 2.194323 1_555
Li6 O2 2.198457 1_455
Li7 O4 2.027073 1_555
Li7 O31 2.037719 1_556
Li7 O13 2.149798 1_556
Li7 O17 2.167416 1_555
Li7 O22 2.184986 1_555
Li7 O18 2.195694 1_556
Li8 O3 2.047912 1_555
Li8 O33 2.068682 1_555
Li8 O21 2.133295 1_555
Li8 O14 2.151595 1_555
Li8 O15 2.197105 1_555
Li8 O2 2.228797 1_455
Li9 O20 2.069356 1_555
Li9 O30 2.073091 1_555
Li9 O7 2.107316 1_555
Li9 O2 2.117620 1_455
Li9 O21 2.118045 1_555
Li9 O6 2.123339 1_555
Li10 O25 2.040483 1_565
Li10 O10 2.049486 1_555
Li10 O5 2.149399 1_555
Li10 O30 2.185590 1_565
Li10 O28 2.192590 1_555
Li10 O7 2.195543 1_565
Li11 O35 2.053818 1_455
Li11 O9 2.063474 1_545
Li11 O27 2.118182 1_545
Li11 O8 2.118260 1_554
Li11 O0 2.199770 1_444
Li11 O24 2.230201 1_555
Li12 O11 2.052811 1_555
Li12 O12 2.053362 1_565
Li12 O25 2.140192 1_565
Li12 O29 2.170411 1_555
Li12 O5 2.196494 1_555
Li12 O26 2.230076 1_565
Li13 O23 2.052486 1_545
Li13 O24 2.059395 1_555
Li13 O10 2.122756 1_545
Li13 O6 2.149583 1_555
Li13 O30 2.151263 1_555
Li13 O9 2.258450 1_545
Li14 O0 2.059042 1_555
Li14 O26 2.059392 1_565
Li14 O27 2.149898 1_556
Li14 O8 2.158783 1_565
Li14 O35 2.167862 1_566
Li14 O11 2.201110 1_555
Li15 O5 2.084331 1_555
Li15 O28 2.086092 1_555
Li15 O15 2.096168 1_555
Li15 O33 2.100619 1_655
Li15 O14 2.122596 1_555
Li15 O29 2.128682 1_555
Li16 O2 2.053708 1_555
Li16 O32 2.061570 1_555
Li16 O21 2.142042 1_555
Li16 O14 2.147685 1_555
Li16 O20 2.158388 1_555
Li16 O33 2.221091 1_655
Li17 O1 2.035273 1_655
Li17 O21 2.041707 1_555
Li17 O33 2.184991 1_655
Li17 O19 2.187898 1_555
Li17 O3 2.188468 1_655
Li17 O15 2.194809 1_555
Li18 O20 2.049734 1_555
Li18 O16 2.052635 1_555
Li18 O34 2.139950 1_555
Li18 O31 2.173297 1_555
Li18 O32 2.192433 1_555
Li18 O18 2.230365 1_555
Li19 O22 2.058247 1_555
Li19 O17 2.067085 1_555
Li19 O1 2.107747 1_655
Li19 O4 2.148624 1_655
Li19 O13 2.212330 1_656
Li19 O19 2.236110 1_555
Li20 O22 2.067093 1_554
Li20 O35 2.073437 1_555
Li20 O24 2.113265 1_555
Li20 O34 2.118040 1_555
Li20 O18 2.118128 1_555
Li20 O8 2.118733 1_554
Li21 O27 2.025722 1_545
Li21 O6 2.032169 1_655
Li21 O9 2.149125 1_645
Li21 O35 2.174621 1_555
Li21 O24 2.193408 1_555
Li21 O23 2.197955 1_545
Li22 O3 2.067546 1_555
Li22 O12 2.072511 1_555
Li22 O26 2.110535 1_455
Li22 O4 2.114620 1_555
Li22 O25 2.121528 1_455
Li22 O19 2.122109 1_455
Li23 O30 2.058362 1_565
Li23 O28 2.063024 1_555
Li23 O10 2.131595 1_655
Li23 O6 2.132205 1_665
Li23 O23 2.188425 1_555
Li23 O7 2.232244 1_665
Mn0 O35 1.921600 1_456
Mn0 O22 1.923883 1_455
Mn0 O4 1.940849 1_555
Mn0 O26 1.944717 1_455
Mn0 O18 1.945178 1_556
Mn0 O8 1.945725 1_555
Mn1 O28 1.924188 1_455
Mn1 O5 1.930425 1_555
Mn1 O10 1.932492 1_555
Mn1 O33 1.937625 1_555
Mn1 O32 1.949132 1_455
Mn1 O14 1.949704 1_555
Mn2 O12 1.920002 1_555
Mn2 O3 1.923444 1_555
Mn2 O19 1.942609 1_555
Mn2 O21 1.945246 1_555
Mn2 O7 1.946224 1_555
Mn2 O25 1.948227 1_555
Mn3 O17 1.920713 1_555
Mn3 O0 1.933678 1_555
Mn3 O11 1.934753 1_555
Mn3 O1 1.939673 1_655
Mn3 O15 1.945952 1_555
Mn3 O29 1.952499 1_555
Mn4 O20 1.921354 1_555
Mn4 O30 1.921370 1_555
Mn4 O34 1.943652 1_555
Mn4 O24 1.944729 1_555
Mn4 O2 1.946834 1_555
Mn4 O6 1.947584 1_655
Cr0 O29 1.926843 1_455
Cr0 O33 1.930312 1_555
Cr0 O15 1.933460 1_555
Cr0 O5 1.937659 1_555
Cr0 O11 1.981392 1_555
Cr0 O1 1.985836 1_555
Cr1 O18 1.894617 1_555
Cr1 O24 1.898511 1_555
Cr1 O6 1.967250 1_555
Cr1 O34 1.973937 1_455
Cr1 O20 1.978387 1_555
Cr1 O35 1.980577 1_455
Cr2 O19 1.892348 1_555
Cr2 O26 1.893674 1_555
Cr2 O8 1.967466 1_555
Cr2 O4 1.977525 1_555
Cr2 O22 1.978523 1_555
Cr2 O12 1.985007 1_555
Cr3 O13 1.874187 1_555
Cr3 O27 1.901580 1_555
Cr3 O16 1.942526 1_555
Cr3 O9 1.973462 1_555
Cr3 O31 1.986539 1_555
Cr3 O23 1.993129 1_555
Cr4 O23 1.901180 1_555
Cr4 O32 1.925187 1_555
Cr4 O28 1.948359 1_555
Cr4 O14 1.956124 1_555
Cr4 O16 1.970962 1_555
Cr4 O10 1.987854 1_555
Cr5 O2 1.895114 1_555
Cr5 O7 1.895694 1_655
Cr5 O25 1.967866 1_555
Cr5 O21 1.974878 1_555
Cr5 O3 1.979443 1_655
Cr5 O30 1.980383 1_555
Cr6 O9 1.884517 1_655
Cr6 O31 1.885613 1_555
Cr6 O0 1.959791 1_554
Cr6 O13 1.976713 1_655
Cr6 O17 1.984720 1_554
Cr6 O27 1.985133 1_555
