# generated using pymatgen
data_Mn2Fe3Sb(PO4)6
_symmetry_space_group_name_H-M   'P 1'
_cell_length_a   8.70139292
_cell_length_b   8.70139292
_cell_length_c   8.70139341
_cell_angle_alpha   59.81437639
_cell_angle_beta   59.81437639
_cell_angle_gamma   59.81437627
_symmetry_Int_Tables_number   1
_chemical_formula_structural   Mn2Fe3Sb(PO4)6
_chemical_formula_sum   'Mn2 Fe3 Sb1 P6 O24'
_cell_volume   463.89279466
_cell_formula_units_Z   1
loop_
 _symmetry_equiv_pos_site_id
 _symmetry_equiv_pos_as_xyz
  1  'x, y, z'
loop_
 _atom_site_type_symbol
 _atom_site_label
 _atom_site_symmetry_multiplicity
 _atom_site_fract_x
 _atom_site_fract_y
 _atom_site_fract_z
 _atom_site_occupancy
  Mn  Mn0  1  0.00673100  0.00673100  0.00673100  1
  Mn  Mn1  1  0.49947300  0.49947300  0.49947300  1
  Fe  Fe0  1  0.14687900  0.14687900  0.14687900  1
  Fe  Fe1  1  0.35387100  0.35387100  0.35387100  1
  Fe  Fe2  1  0.64491400  0.64491400  0.64491400  1
  Sb  Sb0  1  0.85579000  0.85579000  0.85579000  1
  P  P0  1  0.04499400  0.45408300  0.74649800  1
  P  P1  1  0.45408300  0.74649800  0.04499400  1
  P  P2  1  0.74649800  0.04499400  0.45408300  1
  P  P3  1  0.25236800  0.95575400  0.53940600  1
  P  P4  1  0.53940600  0.25236800  0.95575400  1
  P  P5  1  0.95575400  0.53940600  0.25236800  1
  O  O0  1  0.11543200  0.51062100  0.30154700  1
  O  O1  1  0.30154700  0.11543200  0.51062100  1
  O  O2  1  0.05751000  0.26568200  0.91378400  1
  O  O3  1  0.51062100  0.30154700  0.11543200  1
  O  O4  1  0.01162800  0.61610600  0.80555200  1
  O  O5  1  0.23669500  0.44265900  0.58544000  1
  O  O6  1  0.26568200  0.91378400  0.05751000  1
  O  O7  1  0.44265900  0.58544000  0.23669500  1
  O  O8  1  0.18775400  0.99417700  0.38656600  1
  O  O9  1  0.58544000  0.23669500  0.44265900  1
  O  O10  1  0.08160400  0.94033000  0.73907000  1
  O  O11  1  0.38656600  0.18775400  0.99417700  1
  O  O12  1  0.61610600  0.80555200  0.01162800  1
  O  O13  1  0.91378400  0.05751000  0.26568200  1
  O  O14  1  0.41043600  0.76151900  0.56208200  1
  O  O15  1  0.80555200  0.01162800  0.61610600  1
  O  O16  1  0.56208200  0.41043600  0.76151900  1
  O  O17  1  0.73907000  0.08160400  0.94033000  1
  O  O18  1  0.76151900  0.56208200  0.41043600  1
  O  O19  1  0.99417700  0.38656600  0.18775400  1
  O  O20  1  0.49917100  0.69024200  0.88363400  1
  O  O21  1  0.94033000  0.73907000  0.08160400  1
  O  O22  1  0.69024200  0.88363400  0.49917100  1
  O  O23  1  0.88363400  0.49917100  0.69024200  1
loop_
_geom_bond_atom_site_label_1
_geom_bond_atom_site_label_2
_geom_bond_distance
_geom_bond_site_symmetry_2
Mn0 O2 2.176155 1_554
Mn0 O6 2.176155 1_545
Mn0 O13 2.176156 1_455
Mn0 O21 2.373067 1_445
Mn0 O17 2.373067 1_454
Mn0 O10 2.373067 1_544
Mn1 O5 2.253227 1_555
Mn1 O9 2.253227 1_555
Mn1 O7 2.253228 1_555
Mn1 O18 2.268138 1_555
Mn1 O14 2.268138 1_555
Mn1 O16 2.268139 1_555
Fe0 O11 1.930221 1_554
Fe0 O19 1.930221 1_455
Fe0 O8 1.930221 1_545
Fe0 O13 2.111017 1_455
Fe0 O6 2.111017 1_545
Fe0 O2 2.111017 1_554
Fe1 O1 1.962640 1_555
Fe1 O0 1.962640 1_555
Fe1 O3 1.962640 1_555
Fe1 O7 2.098551 1_555
Fe1 O9 2.098551 1_555
Fe1 O5 2.098551 1_555
Fe2 O22 1.936606 1_555
Fe2 O23 1.936606 1_555
Fe2 O20 1.936606 1_555
Fe2 O16 2.091262 1_555
Fe2 O14 2.091262 1_555
Fe2 O18 2.091262 1_555
O0 P5 1.522007 1_455
O1 P3 1.522007 1_545
O2 P0 1.548674 1_555
O3 P4 1.522008 1_554
O4 P0 1.582028 1_555
O4 Sb0 1.963748 1_455
O5 P0 1.542366 1_555
O6 P1 1.548674 1_555
O7 P1 1.542366 1_555
O8 P3 1.520635 1_555
O9 P2 1.542366 1_555
O10 P3 1.616894 1_555
O10 Sb0 2.031962 1_455
O11 P4 1.520635 1_555
O12 P1 1.582028 1_555
O12 Sb0 1.963748 1_554
O13 P2 1.548674 1_555
O14 P3 1.545024 1_555
O15 P2 1.582029 1_555
O15 Sb0 1.963748 1_545
O16 P4 1.545024 1_555
O17 P4 1.616894 1_555
O17 Sb0 2.031962 1_545
O18 P5 1.545024 1_555
O19 P5 1.520635 1_555
O20 P1 1.519538 1_556
O21 P5 1.616894 1_555
O21 Sb0 2.031962 1_554
O22 P2 1.519538 1_565
O23 P0 1.519538 1_655
