# generated using pymatgen
data_Mn3Fe2Sn(PO4)6
_symmetry_space_group_name_H-M   'P 1'
_cell_length_a   8.60629797
_cell_length_b   8.60629797
_cell_length_c   8.60629816
_cell_angle_alpha   60.59742036
_cell_angle_beta   60.59742036
_cell_angle_gamma   60.59742361
_symmetry_Int_Tables_number   1
_chemical_formula_structural   Mn3Fe2Sn(PO4)6
_chemical_formula_sum   'Mn3 Fe2 Sn1 P6 O24'
_cell_volume   456.83031723
_cell_formula_units_Z   1
loop_
 _symmetry_equiv_pos_site_id
 _symmetry_equiv_pos_as_xyz
  1  'x, y, z'
loop_
 _atom_site_type_symbol
 _atom_site_label
 _atom_site_symmetry_multiplicity
 _atom_site_fract_x
 _atom_site_fract_y
 _atom_site_fract_z
 _atom_site_occupancy
  Mn  Mn0  1  0.14387200  0.14387200  0.14387200  1
  Mn  Mn1  1  0.35651700  0.35651700  0.35651700  1
  Mn  Mn2  1  0.64291000  0.64291000  0.64291000  1
  Fe  Fe0  1  0.00363300  0.00363300  0.00363300  1
  Fe  Fe1  1  0.50041400  0.50041400  0.50041400  1
  Sn  Sn0  1  0.85683900  0.85683900  0.85683900  1
  P  P0  1  0.95875700  0.53963300  0.25363000  1
  P  P1  1  0.25363000  0.95875700  0.53963300  1
  P  P2  1  0.53963300  0.25363000  0.95875700  1
  P  P3  1  0.45130700  0.74708700  0.04562500  1
  P  P4  1  0.74708700  0.04562500  0.45130700  1
  P  P5  1  0.04562500  0.45130700  0.74708700  1
  O  O0  1  0.50554700  0.31342500  0.11695800  1
  O  O1  1  0.11695800  0.50554700  0.31342500  1
  O  O2  1  0.25822200  0.90894900  0.06165700  1
  O  O3  1  0.31342500  0.11695800  0.50554700  1
  O  O4  1  0.60793600  0.80694600  0.01721600  1
  O  O5  1  0.43899500  0.58426000  0.24195600  1
  O  O6  1  0.90894900  0.06165700  0.25822200  1
  O  O7  1  0.58426000  0.24195600  0.43899500  1
  O  O8  1  0.98925100  0.38617500  0.19107900  1
  O  O9  1  0.24195600  0.43899500  0.58426000  1
  O  O10  1  0.94500900  0.73853400  0.09160400  1
  O  O11  1  0.19107900  0.98925100  0.38617500  1
  O  O12  1  0.80694600  0.01721600  0.60793600  1
  O  O13  1  0.06165700  0.25822200  0.90894900  1
  O  O14  1  0.76207700  0.55647400  0.41278300  1
  O  O15  1  0.01721600  0.60793600  0.80694600  1
  O  O16  1  0.41278300  0.76207700  0.55647400  1
  O  O17  1  0.09160400  0.94500900  0.73853400  1
  O  O18  1  0.55647400  0.41278300  0.76207700  1
  O  O19  1  0.38617500  0.19107900  0.98925100  1
  O  O20  1  0.69075400  0.88516700  0.48880100  1
  O  O21  1  0.73853400  0.09160400  0.94500900  1
  O  O22  1  0.88516700  0.48880100  0.69075400  1
  O  O23  1  0.48880100  0.69075400  0.88516700  1
loop_
_geom_bond_atom_site_label_1
_geom_bond_atom_site_label_2
_geom_bond_distance
_geom_bond_site_symmetry_2
Mn0 O19 1.964888 1_554
Mn0 O11 1.964889 1_545
Mn0 O8 1.964889 1_455
Mn0 O6 2.079460 1_455
Mn0 O2 2.079460 1_545
Mn0 O13 2.079460 1_554
Mn1 O3 1.928867 1_555
Mn1 O0 1.928867 1_555
Mn1 O1 1.928867 1_555
Mn1 O5 2.024617 1_555
Mn1 O9 2.024617 1_555
Mn1 O7 2.024617 1_555
Mn2 O20 1.966503 1_555
Mn2 O23 1.966503 1_555
Mn2 O22 1.966503 1_555
Mn2 O18 2.056902 1_555
Mn2 O14 2.056902 1_555
Mn2 O16 2.056902 1_555
Fe0 O13 2.153103 1_554
Fe0 O2 2.153103 1_545
Fe0 O6 2.153103 1_455
Fe0 O10 2.256597 1_445
Fe0 O21 2.256597 1_454
Fe0 O17 2.256597 1_544
Fe1 O14 2.216928 1_555
Fe1 O16 2.216928 1_555
Fe1 O18 2.216928 1_555
Fe1 O9 2.225275 1_555
Fe1 O7 2.225275 1_555
Fe1 O5 2.225275 1_555
O0 P2 1.533688 1_554
O1 P0 1.533688 1_455
O2 P3 1.552946 1_555
O3 P1 1.533688 1_545
O4 P3 1.541701 1_555
O4 Sn0 2.023933 1_554
O5 P3 1.573238 1_555
O6 P4 1.552946 1_555
O7 P4 1.573238 1_555
O8 P0 1.523808 1_555
O9 P5 1.573238 1_555
O10 P0 1.583697 1_555
O10 Sn0 2.102759 1_554
O11 P1 1.523808 1_555
O12 P4 1.541701 1_555
O12 Sn0 2.023933 1_545
O13 P5 1.552946 1_555
O14 P0 1.562003 1_555
O15 P5 1.541701 1_555
O15 Sn0 2.023933 1_455
O16 P1 1.562003 1_555
O17 P1 1.583697 1_555
O17 Sn0 2.102759 1_455
O18 P2 1.562003 1_555
O19 P2 1.523808 1_555
O20 P4 1.520667 1_565
O21 P2 1.583697 1_555
O21 Sn0 2.102759 1_545
O22 P5 1.520667 1_655
O23 P3 1.520667 1_556
