# generated using pymatgen
data_Li2FeP2O7
_symmetry_space_group_name_H-M   'P 1'
_cell_length_a   5.16341900
_cell_length_b   8.05975200
_cell_length_c   14.31414864
_cell_angle_alpha   67.88855990
_cell_angle_beta   90.00000000
_cell_angle_gamma   90.00000000
_symmetry_Int_Tables_number   1
_chemical_formula_structural   Li2FeP2O7
_chemical_formula_sum   'Li8 Fe4 P8 O28'
_cell_volume   551.88449479
_cell_formula_units_Z   4
loop_
 _symmetry_equiv_pos_site_id
 _symmetry_equiv_pos_as_xyz
  1  'x, y, z'
loop_
 _atom_site_type_symbol
 _atom_site_label
 _atom_site_symmetry_multiplicity
 _atom_site_fract_x
 _atom_site_fract_y
 _atom_site_fract_z
 _atom_site_occupancy
  Li  Li0  1  0.21185400  0.96997700  0.67682500  1
  Li  Li1  1  0.28814600  0.96997700  0.17682500  1
  Li  Li2  1  0.74851600  0.42549400  0.83834500  1
  Li  Li3  1  0.24851600  0.57450600  0.66165500  1
  Li  Li4  1  0.75148400  0.42549400  0.33834500  1
  Li  Li5  1  0.25148400  0.57450600  0.16165500  1
  Li  Li6  1  0.71185400  0.03002300  0.82317500  1
  Li  Li7  1  0.78814600  0.03002300  0.32317500  1
  Fe  Fe0  1  0.28347800  0.72070100  0.87856400  1
  Fe  Fe1  1  0.21652200  0.72070100  0.37856400  1
  Fe  Fe2  1  0.78347800  0.27929900  0.62143600  1
  Fe  Fe3  1  0.71652200  0.27929900  0.12143600  1
  P  P0  1  0.71646100  0.81486500  0.69327900  1
  P  P1  1  0.71951600  0.70577900  0.52245400  1
  P  P2  1  0.78353900  0.81486500  0.19327900  1
  P  P3  1  0.21951600  0.29422100  0.97754600  1
  P  P4  1  0.78048400  0.70577900  0.02245400  1
  P  P5  1  0.21646100  0.18513500  0.80672100  1
  P  P6  1  0.28048400  0.29422100  0.47754600  1
  P  P7  1  0.28353900  0.18513500  0.30672100  1
  O  O0  1  0.25161500  0.99627100  0.80496100  1
  O  O1  1  0.24838500  0.99627100  0.30496100  1
  O  O2  1  0.65570200  0.79372500  0.91903400  1
  O  O3  1  0.76656400  0.85180900  0.57494000  1
  O  O4  1  0.43344900  0.75176400  0.71634100  1
  O  O5  1  0.91594000  0.68087000  0.75746400  1
  O  O6  1  0.42563000  0.67930800  0.51754200  1
  O  O7  1  0.84429800  0.79372500  0.41903400  1
  O  O8  1  0.73343600  0.85180900  0.07494000  1
  O  O9  1  0.36478200  0.46213300  0.90838200  1
  O  O10  1  0.06655100  0.75176400  0.21634100  1
  O  O11  1  0.58406000  0.68087000  0.25746400  1
  O  O12  1  0.86478200  0.53786700  0.59161800  1
  O  O13  1  0.07437000  0.67930800  0.01754200  1
  O  O14  1  0.92563000  0.32069200  0.98245800  1
  O  O15  1  0.13521800  0.46213300  0.40838200  1
  O  O16  1  0.41594000  0.31913000  0.74253600  1
  O  O17  1  0.93344900  0.24823600  0.78365900  1
  O  O18  1  0.63521800  0.53786700  0.09161800  1
  O  O19  1  0.26656400  0.14819100  0.92506000  1
  O  O20  1  0.15570200  0.20627500  0.58096600  1
  O  O21  1  0.57437000  0.32069200  0.48245800  1
  O  O22  1  0.08406000  0.31913000  0.24253600  1
  O  O23  1  0.56655100  0.24823600  0.28365900  1
  O  O24  1  0.23343600  0.14819100  0.42506000  1
  O  O25  1  0.34429800  0.20627500  0.08096600  1
  O  O26  1  0.75161500  0.00372900  0.69503900  1
  O  O27  1  0.74838500  0.00372900  0.19503900  1
loop_
_geom_bond_atom_site_label_1
_geom_bond_atom_site_label_2
_geom_bond_distance
_geom_bond_site_symmetry_2
Li0 O20 1.904380 1_565
Li0 O0 1.934894 1_555
Li0 O4 1.993333 1_555
Li0 O26 2.417163 1_465
Li1 O25 1.904380 1_565
Li1 O1 1.934894 1_555
Li1 O10 1.993333 1_555
Li1 O27 2.417163 1_565
Li2 O17 2.099408 1_555
Li2 O14 2.119773 1_555
Li2 O5 2.128435 1_555
Li2 O9 2.289319 1_555
Li2 O16 2.539618 1_555
Li3 O4 2.099408 1_555
Li3 O6 2.119773 1_555
Li3 O16 2.128435 1_555
Li3 O12 2.289319 1_455
Li3 O5 2.539618 1_455
Li4 O23 2.099408 1_555
Li4 O21 2.119773 1_555
Li4 O11 2.128435 1_555
Li4 O15 2.289319 1_655
Li4 O22 2.539618 1_655
Li5 O10 2.099408 1_555
Li5 O13 2.119773 1_555
Li5 O22 2.128435 1_555
Li5 O18 2.289319 1_555
Li5 O11 2.539618 1_555
Li6 O2 1.904380 1_545
Li6 O26 1.934894 1_555
Li6 O17 1.993333 1_555
Li6 O0 2.417163 1_545
Li7 O7 1.904380 1_545
Li7 O27 1.934894 1_555
Li7 O23 1.993333 1_555
Li7 O1 2.417163 1_645
Fe0 O9 2.007939 1_555
Fe0 O0 2.075676 1_555
Fe0 O2 2.152332 1_555
Fe0 O13 2.175998 1_556
Fe0 O4 2.369966 1_555
Fe0 O5 2.669884 1_455
Fe1 O15 2.007939 1_555
Fe1 O1 2.075676 1_555
Fe1 O7 2.152332 1_455
Fe1 O6 2.175998 1_555
Fe1 O10 2.369966 1_555
Fe1 O11 2.669884 1_555
Fe2 O12 2.007939 1_555
Fe2 O26 2.075676 1_555
Fe2 O20 2.152332 1_655
Fe2 O21 2.175998 1_555
Fe2 O17 2.369966 1_555
Fe2 O16 2.669884 1_555
Fe3 O18 2.007939 1_555
Fe3 O27 2.075676 1_555
Fe3 O25 2.152332 1_555
Fe3 O14 2.175998 1_554
Fe3 O23 2.369966 1_555
Fe3 O22 2.669884 1_655
O0 P5 1.542574 1_565
O1 P7 1.542574 1_565
O2 P4 1.522859 1_556
O3 P0 1.626423 1_555
O3 P1 1.635353 1_555
O4 P0 1.541643 1_555
O5 P0 1.524585 1_555
O6 P1 1.537670 1_555
O7 P1 1.522859 1_555
O8 P2 1.626423 1_555
O8 P4 1.635353 1_555
O9 P3 1.538052 1_555
O10 P2 1.541643 1_455
O11 P2 1.524585 1_555
O12 P1 1.538052 1_555
O13 P4 1.537670 1_455
O14 P3 1.537670 1_655
O15 P6 1.538052 1_555
O16 P5 1.524585 1_555
O17 P5 1.541643 1_655
O18 P4 1.538052 1_555
O19 P5 1.626423 1_555
O19 P3 1.635353 1_555
O20 P6 1.522859 1_555
O21 P6 1.537670 1_555
O22 P7 1.524585 1_555
O23 P7 1.541643 1_555
O24 P7 1.626423 1_555
O24 P6 1.635353 1_555
O25 P3 1.522859 1_554
O26 P0 1.542574 1_545
O27 P2 1.542574 1_545
