# generated using pymatgen
data_Li3Mn4O8
_symmetry_space_group_name_H-M   'P 1'
_cell_length_a   6.01239500
_cell_length_b   6.01934683
_cell_length_c   8.02081157
_cell_angle_alpha   90.76504138
_cell_angle_beta   90.03765995
_cell_angle_gamma   93.06842740
_symmetry_Int_Tables_number   1
_chemical_formula_structural   Li3Mn4O8
_chemical_formula_sum   'Li6 Mn8 O16'
_cell_volume   289.83643115
_cell_formula_units_Z   2
loop_
 _symmetry_equiv_pos_site_id
 _symmetry_equiv_pos_as_xyz
  1  'x, y, z'
loop_
 _atom_site_type_symbol
 _atom_site_label
 _atom_site_symmetry_multiplicity
 _atom_site_fract_x
 _atom_site_fract_y
 _atom_site_fract_z
 _atom_site_occupancy
  Li  Li0  1  0.01314200  0.48623800  0.99788800  1
  Li  Li1  1  0.24462100  0.25230000  0.74867500  1
  Li  Li2  1  0.75144000  0.74800700  0.74858600  1
  Li  Li3  1  0.49007800  0.01048900  0.49921200  1
  Li  Li4  1  0.75857100  0.74314000  0.24736100  1
  Li  Li5  1  0.24998100  0.24956300  0.24798500  1
  Mn  Mn0  1  0.25091600  0.74969100  0.74845700  1
  Mn  Mn1  1  0.00133800  0.49781800  0.49792700  1
  Mn  Mn2  1  0.50096400  0.50231500  0.49749700  1
  Mn  Mn3  1  0.75010200  0.24847700  0.24829700  1
  Mn  Mn4  1  0.99781400  0.99924800  0.49871800  1
  Mn  Mn5  1  0.50271000  0.49912200  0.99768100  1
  Mn  Mn6  1  0.99990700  0.99616700  0.99858700  1
  Mn  Mn7  1  0.49907900  0.99935000  0.99801300  1
  O  O0  1  0.25343100  0.76894600  0.98903800  1
  O  O1  1  0.47184700  0.52824500  0.75019500  1
  O  O2  1  0.02089200  0.51924500  0.73755100  1
  O  O3  1  0.75317000  0.26955100  0.48875200  1
  O  O4  1  0.27957500  0.23516000  0.99780500  1
  O  O5  1  0.02855500  0.96987900  0.74551100  1
  O  O6  1  0.47982000  0.97876200  0.75919700  1
  O  O7  1  0.78492500  0.73038300  0.49813300  1
  O  O8  1  0.24727200  0.72925300  0.50764700  1
  O  O9  1  0.98187600  0.47677100  0.25873800  1
  O  O10  1  0.53053000  0.47134100  0.24536800  1
  O  O11  1  0.21922700  0.26356200  0.49800100  1
  O  O12  1  0.51810500  0.02176300  0.23687500  1
  O  O13  1  0.97028500  0.02633400  0.25126200  1
  O  O14  1  0.71734900  0.76686500  0.99827200  1
  O  O15  1  0.74734600  0.22801000  0.00729000  1
loop_
_geom_bond_atom_site_label_1
_geom_bond_atom_site_label_2
_geom_bond_distance
_geom_bond_site_symmetry_2
Li0 O2 2.100495 1_555
Li0 O9 2.102037 1_456
Li0 O15 2.170927 1_456
Li0 O0 2.174451 1_555
Li0 O4 2.260387 1_555
Li0 O14 2.517469 1_455
Li1 O4 2.013700 1_555
Li1 O11 2.018613 1_555
Li1 O5 2.083406 1_545
Li1 O1 2.093329 1_555
Li1 O2 2.152758 1_555
Li1 O6 2.229502 1_545
Li2 O14 2.015590 1_555
Li2 O7 2.020974 1_555
Li2 O5 2.079164 1_655
Li2 O1 2.082856 1_555
Li2 O2 2.182724 1_655
Li2 O6 2.200770 1_555
Li3 O6 2.097202 1_545
Li3 O12 2.112706 1_555
Li3 O3 2.163434 1_555
Li3 O8 2.177179 1_545
Li3 O11 2.288773 1_555
Li3 O7 2.510990 1_545
Li4 O7 2.020327 1_555
Li4 O14 2.020932 1_554
Li4 O13 2.072030 1_565
Li4 O10 2.077472 1_555
Li4 O9 2.148462 1_555
Li4 O12 2.274488 1_565
Li5 O11 2.015015 1_555
Li5 O4 2.015758 1_554
Li5 O10 2.094631 1_555
Li5 O13 2.096000 1_455
Li5 O9 2.170099 1_455
Li5 O12 2.172668 1_555
Mn0 O6 1.896385 1_555
Mn0 O2 1.906749 1_555
Mn0 O0 1.931588 1_555
Mn0 O1 1.931696 1_555
Mn0 O5 1.932632 1_555
Mn0 O8 1.933801 1_555
Mn1 O9 1.924051 1_455
Mn1 O2 1.927672 1_555
Mn1 O7 1.961544 1_455
Mn1 O3 1.974165 1_455
Mn1 O11 1.975415 1_555
Mn1 O8 1.977272 1_555
Mn2 O10 2.037137 1_555
Mn2 O1 2.039128 1_555
Mn2 O8 2.102242 1_555
Mn2 O3 2.119501 1_555
Mn2 O7 2.132690 1_555
Mn2 O11 2.162006 1_555
Mn3 O12 1.899751 1_555
Mn3 O9 1.905004 1_555
Mn3 O3 1.931132 1_555
Mn3 O13 1.931680 1_555
Mn3 O10 1.932192 1_555
Mn3 O15 1.935355 1_555
Mn4 O5 1.999029 1_655
Mn4 O13 2.001124 1_565
Mn4 O7 2.008871 1_555
Mn4 O11 2.019151 1_665
Mn4 O3 2.253162 1_565
Mn4 O8 2.271525 1_655
Mn5 O10 2.003535 1_556
Mn5 O1 2.004453 1_555
Mn5 O14 2.009951 1_555
Mn5 O4 2.023908 1_555
Mn5 O15 2.256694 1_556
Mn5 O0 2.269908 1_555
Mn6 O13 2.041114 1_566
Mn6 O5 2.042033 1_655
Mn6 O0 2.102505 1_655
Mn6 O15 2.117227 1_566
Mn6 O14 2.130740 1_555
Mn6 O4 2.153649 1_665
Mn7 O6 1.920867 1_555
Mn7 O12 1.921716 1_566
Mn7 O14 1.969068 1_555
Mn7 O0 1.971765 1_555
Mn7 O15 1.976166 1_566
Mn7 O4 1.989245 1_565
