# generated using pymatgen
data_YbIO
_symmetry_space_group_name_H-M   'P 1'
_cell_length_a   5.70706700
_cell_length_b   5.99483400
_cell_length_c   10.50169883
_cell_angle_alpha   82.52586172
_cell_angle_beta   90.00000000
_cell_angle_gamma   90.00000000
_symmetry_Int_Tables_number   1
_chemical_formula_structural   YbIO
_chemical_formula_sum   'Yb4 I4 O4'
_cell_volume   356.24109838
_cell_formula_units_Z   4
loop_
 _symmetry_equiv_pos_site_id
 _symmetry_equiv_pos_as_xyz
  1  'x, y, z'
loop_
 _atom_site_type_symbol
 _atom_site_label
 _atom_site_symmetry_multiplicity
 _atom_site_fract_x
 _atom_site_fract_y
 _atom_site_fract_z
 _atom_site_occupancy
  Yb  Yb0  1  0.51309600  0.26792500  0.41495600  1
  Yb  Yb1  1  0.98690400  0.76792500  0.41495600  1
  Yb  Yb2  1  0.01309600  0.23207500  0.58504400  1
  Yb  Yb3  1  0.48690400  0.73207500  0.58504400  1
  I  I0  1  0.75388300  0.09413100  0.14437800  1
  I  I1  1  0.74611700  0.59413100  0.14437800  1
  I  I2  1  0.25388300  0.40586900  0.85562200  1
  I  I3  1  0.24611700  0.90586900  0.85562200  1
  O  O0  1  0.25102200  0.00285200  0.48789200  1
  O  O1  1  0.24897800  0.50285200  0.48789200  1
  O  O2  1  0.75102200  0.49714800  0.51210800  1
  O  O3  1  0.74897800  0.99714800  0.51210800  1
loop_
_geom_bond_atom_site_label_1
_geom_bond_atom_site_label_2
_geom_bond_distance
_geom_bond_site_symmetry_2
I0 I1 2.997745 1_555
I0 I1 2.997745 1_545
I0 Yb0 3.437784 1_555
I0 Yb1 3.495909 1_545
I1 Yb1 3.437784 1_555
I1 Yb0 3.495909 1_555
I2 I3 2.997745 1_545
I2 I3 2.997745 1_555
I2 Yb2 3.437784 1_555
I2 Yb3 3.495909 1_555
I3 Yb3 3.437784 1_555
I3 Yb2 3.495909 1_565
O0 Yb0 2.243259 1_555
O0 Yb3 2.248843 1_545
O0 Yb1 2.263369 1_445
O0 Yb2 2.266661 1_555
O1 Yb1 2.243259 1_455
O1 Yb2 2.248843 1_555
O1 Yb0 2.263369 1_555
O1 Yb3 2.266661 1_555
O2 Yb2 2.243259 1_655
O2 Yb1 2.248843 1_555
O2 Yb3 2.263369 1_555
O2 Yb0 2.266661 1_555
O3 Yb3 2.243259 1_555
O3 Yb0 2.248843 1_565
O3 Yb2 2.263369 1_665
O3 Yb1 2.266661 1_555
