# generated using pymatgen
data_Mg2TiO4
_symmetry_space_group_name_H-M   'P 1'
_cell_length_a   5.98006395
_cell_length_b   5.98006395
_cell_length_c   8.39822540
_cell_angle_alpha   90.00000000
_cell_angle_beta   90.00000000
_cell_angle_gamma   90.00000000
_symmetry_Int_Tables_number   1
_chemical_formula_structural   Mg2TiO4
_chemical_formula_sum   'Mg8 Ti4 O16'
_cell_volume   300.33032294
_cell_formula_units_Z   4
loop_
 _symmetry_equiv_pos_site_id
 _symmetry_equiv_pos_as_xyz
  1  'x, y, z'
loop_
 _atom_site_type_symbol
 _atom_site_label
 _atom_site_symmetry_multiplicity
 _atom_site_fract_x
 _atom_site_fract_y
 _atom_site_fract_z
 _atom_site_occupancy
  Mg  Mg0  1  -0.00000000  0.24761863  -0.00000000  1
  Mg  Mg1  1  -0.00000000  0.75238137  0.50000000  1
  Mg  Mg2  1  0.24761863  0.00000000  0.75000000  1
  Mg  Mg3  1  0.25214257  0.25214257  0.37500000  1
  Mg  Mg4  1  0.25214257  0.74785743  0.12500000  1
  Mg  Mg5  1  0.74785743  0.25214257  0.62500000  1
  Mg  Mg6  1  0.74785743  0.74785743  0.87500000  1
  Mg  Mg7  1  0.75238137  0.00000000  0.25000000  1
  Ti  Ti0  1  0.23705089  0.50000000  0.75000000  1
  Ti  Ti1  1  0.50000000  0.23705089  -0.00000000  1
  Ti  Ti2  1  0.50000000  0.76294911  0.50000000  1
  Ti  Ti3  1  0.76294911  0.50000000  0.25000000  1
  O  O0  1  0.02621378  0.26215916  0.75249523  1
  O  O1  1  0.02621378  0.73784084  0.74750477  1
  O  O2  1  0.26046845  0.48283289  0.98376965  1
  O  O3  1  0.26046845  0.51716711  0.51623035  1
  O  O4  1  0.26215916  0.02621378  0.99750477  1
  O  O5  1  0.26215916  0.97378622  0.50249523  1
  O  O6  1  0.48283289  0.26046845  0.76623035  1
  O  O7  1  0.48283289  0.73953155  0.73376965  1
  O  O8  1  0.51716711  0.26046845  0.23376965  1
  O  O9  1  0.51716711  0.73953155  0.26623035  1
  O  O10  1  0.73784084  0.97378622  0.49750477  1
  O  O11  1  0.73784084  0.02621378  0.00249523  1
  O  O12  1  0.73953155  0.48283289  0.01623035  1
  O  O13  1  0.73953155  0.51716711  0.48376965  1
  O  O14  1  0.97378622  0.26215916  0.24750477  1
  O  O15  1  0.97378622  0.73784084  0.25249523  1
loop_
_geom_bond_atom_site_label_1
_geom_bond_atom_site_label_2
_geom_bond_distance
_geom_bond_site_symmetry_2
Mg0 O11 2.052128 1_455
Mg0 O4 2.052128 1_554
Mg0 O0 2.086316 1_554
Mg0 O14 2.086316 1_455
Mg0 O12 2.103156 1_455
Mg0 O2 2.103156 1_554
Mg1 O10 2.052128 1_455
Mg1 O5 2.052128 1_555
Mg1 O15 2.086316 1_455
Mg1 O1 2.086316 1_555
Mg1 O3 2.103156 1_555
Mg1 O13 2.103156 1_455
Mg2 O1 2.052128 1_545
Mg2 O0 2.052128 1_555
Mg2 O5 2.086316 1_545
Mg2 O4 2.086316 1_555
Mg2 O6 2.103156 1_555
Mg2 O7 2.103156 1_545
Mg3 O14 1.980130 1_455
Mg3 O5 1.980130 1_545
Mg3 O3 1.980169 1_555
Mg3 O8 1.980169 1_555
Mg4 O4 1.980130 1_564
Mg4 O15 1.980130 1_455
Mg4 O2 1.980169 1_554
Mg4 O9 1.980169 1_555
Mg5 O0 1.980130 1_655
Mg5 O10 1.980130 1_545
Mg5 O6 1.980169 1_555
Mg5 O13 1.980169 1_555
Mg6 O1 1.980130 1_655
Mg6 O11 1.980130 1_566
Mg6 O7 1.980169 1_555
Mg6 O12 1.980169 1_556
Mg7 O15 2.052128 1_545
Mg7 O14 2.052128 1_555
Mg7 O10 2.086316 1_545
Mg7 O11 2.086316 1_555
Mg7 O9 2.103156 1_545
Mg7 O8 2.103156 1_555
O0 Ti0 1.900803 1_555
O1 Ti0 1.900803 1_555
O2 Ti0 1.970914 1_555
O2 Ti1 2.056861 1_556
O3 Ti0 1.970914 1_555
O3 Ti2 2.056861 1_555
O4 Ti1 1.900803 1_556
O5 Ti2 1.900803 1_555
O6 Ti1 1.970914 1_556
O6 Ti0 2.056861 1_555
O7 Ti2 1.970914 1_555
O7 Ti0 2.056861 1_555
O8 Ti1 1.970914 1_555
O8 Ti3 2.056861 1_555
O9 Ti2 1.970914 1_555
O9 Ti3 2.056861 1_555
O10 Ti2 1.900803 1_555
O11 Ti1 1.900803 1_555
O12 Ti3 1.970914 1_555
O12 Ti1 2.056861 1_555
O13 Ti3 1.970914 1_555
O13 Ti2 2.056861 1_555
O14 Ti3 1.900803 1_555
O15 Ti3 1.900803 1_555
