# generated using pymatgen
data_BaLaI5
_symmetry_space_group_name_H-M   'P 1'
_cell_length_a   11.65923200
_cell_length_b   14.85235600
_cell_length_c   21.48828644
_cell_angle_alpha   46.63822799
_cell_angle_beta   90.00000000
_cell_angle_gamma   90.00000000
_symmetry_Int_Tables_number   1
_chemical_formula_structural   BaLaI5
_chemical_formula_sum   'Ba8 La8 I40'
_cell_volume   2705.33571089
_cell_formula_units_Z   8
loop_
 _symmetry_equiv_pos_site_id
 _symmetry_equiv_pos_as_xyz
  1  'x, y, z'
loop_
 _atom_site_type_symbol
 _atom_site_label
 _atom_site_symmetry_multiplicity
 _atom_site_fract_x
 _atom_site_fract_y
 _atom_site_fract_z
 _atom_site_occupancy
  Ba  Ba0  1  0.71064500  0.34917900  0.85763200  1
  Ba  Ba1  1  0.73149700  0.80822500  0.46738100  1
  Ba  Ba2  1  0.21064500  0.65082100  0.64236800  1
  Ba  Ba3  1  0.23149700  0.19177500  0.03261900  1
  Ba  Ba4  1  0.76850300  0.80822500  0.96738100  1
  Ba  Ba5  1  0.78935500  0.34917900  0.35763200  1
  Ba  Ba6  1  0.26850300  0.19177500  0.53261900  1
  Ba  Ba7  1  0.28935500  0.65082100  0.14236800  1
  La  La0  1  0.19958900  0.20208200  0.80642600  1
  La  La1  1  0.23470500  0.77580000  0.34309700  1
  La  La2  1  0.73470500  0.22420000  0.15690300  1
  La  La3  1  0.69958900  0.79791800  0.69357400  1
  La  La4  1  0.30041100  0.20208200  0.30642600  1
  La  La5  1  0.26529500  0.77580000  0.84309700  1
  La  La6  1  0.76529500  0.22420000  0.65690300  1
  La  La7  1  0.80041100  0.79791800  0.19357400  1
  I  I0  1  0.24231000  0.43899600  0.61896400  1
  I  I1  1  0.80783400  0.03513800  0.99729400  1
  I  I2  1  0.76873200  0.45385800  0.63988700  1
  I  I3  1  0.40492200  0.27966900  0.85932300  1
  I  I4  1  0.38327800  0.90851200  0.18080400  1
  I  I5  1  0.03655800  0.88993600  0.20296200  1
  I  I6  1  0.05312700  0.36175700  0.82767200  1
  I  I7  1  0.43488100  0.73935600  0.45481200  1
  I  I8  1  0.03962000  0.73657100  0.46402700  1
  I  I9  1  0.70229500  0.92976700  0.25253100  1
  I  I10  1  0.55312700  0.63824300  0.67232800  1
  I  I11  1  0.20229500  0.07023300  0.24746900  1
  I  I12  1  0.53962000  0.26342900  0.03597300  1
  I  I13  1  0.93488100  0.26064400  0.04518800  1
  I  I14  1  0.90492200  0.72033100  0.64067700  1
  I  I15  1  0.26873200  0.54614200  0.86011300  1
  I  I16  1  0.53655800  0.11006400  0.29703800  1
  I  I17  1  0.88327800  0.09148800  0.31919600  1
  I  I18  1  0.74231000  0.56100400  0.88103600  1
  I  I19  1  0.30783400  0.96486200  0.50270600  1
  I  I20  1  0.69216600  0.03513800  0.49729400  1
  I  I21  1  0.25769000  0.43899600  0.11896400  1
  I  I22  1  0.11672200  0.90851200  0.68080400  1
  I  I23  1  0.46344200  0.88993600  0.70296200  1
  I  I24  1  0.73126800  0.45385800  0.13988700  1
  I  I25  1  0.09507800  0.27966900  0.35932300  1
  I  I26  1  0.06511900  0.73935600  0.95481200  1
  I  I27  1  0.46038000  0.73657100  0.96402700  1
  I  I28  1  0.79770500  0.92976700  0.75253100  1
  I  I29  1  0.44687300  0.36175700  0.32767200  1
  I  I30  1  0.29770500  0.07023300  0.74746900  1
  I  I31  1  0.96038000  0.26342900  0.53597300  1
  I  I32  1  0.56511900  0.26064400  0.54518800  1
  I  I33  1  0.94687300  0.63824300  0.17232800  1
  I  I34  1  0.96344200  0.11006400  0.79703800  1
  I  I35  1  0.61672200  0.09148800  0.81919600  1
  I  I36  1  0.59507800  0.72033100  0.14067700  1
  I  I37  1  0.23126800  0.54614200  0.36011300  1
  I  I38  1  0.19216600  0.96486200  0.00270600  1
  I  I39  1  0.75769000  0.56100400  0.38103600  1
loop_
_geom_bond_atom_site_label_1
_geom_bond_atom_site_label_2
_geom_bond_distance
_geom_bond_site_symmetry_2
Ba0 I18 3.529854 1_555
Ba0 I1 3.581046 1_555
Ba0 I12 3.685379 1_556
Ba0 I3 3.704222 1_555
Ba0 I10 3.766309 1_555
Ba0 I2 3.844368 1_555
Ba0 I6 4.028508 1_655
Ba0 I13 4.186863 1_556
Ba1 I17 3.546097 1_565
Ba1 I14 3.603352 1_555
Ba1 I9 3.639318 1_555
Ba1 I7 3.668584 1_555
Ba1 I8 3.761516 1_655
Ba1 I10 3.850427 1_555
Ba1 I2 3.852183 1_555
Ba1 I20 3.867352 1_565
Ba1 I16 4.015963 1_565
Ba2 I0 3.529854 1_555
Ba2 I19 3.581046 1_555
Ba2 I8 3.685379 1_555
Ba2 I14 3.704222 1_455
Ba2 I6 3.766309 1_555
Ba2 I15 3.844368 1_555
Ba2 I10 4.028508 1_555
Ba2 I7 4.186863 1_555
Ba3 I4 3.546097 1_545
Ba3 I3 3.603352 1_554
Ba3 I11 3.639318 1_555
Ba3 I13 3.668584 1_455
Ba3 I12 3.761516 1_555
Ba3 I6 3.850427 1_554
Ba3 I15 3.852183 1_554
Ba3 I38 3.867352 1_545
Ba3 I5 4.015963 1_545
Ba4 I35 3.546097 1_565
Ba4 I36 3.603352 1_556
Ba4 I28 3.639318 1_555
Ba4 I26 3.668584 1_655
Ba4 I27 3.761516 1_555
Ba4 I33 3.850427 1_556
Ba4 I24 3.852183 1_556
Ba4 I1 3.867352 1_565
Ba4 I34 4.015963 1_565
Ba5 I39 3.529854 1_555
Ba5 I20 3.581046 1_555
Ba5 I31 3.685379 1_555
Ba5 I25 3.704222 1_655
Ba5 I33 3.766309 1_555
Ba5 I24 3.844368 1_555
Ba5 I29 4.028508 1_555
Ba5 I32 4.186863 1_555
Ba6 I22 3.546097 1_545
Ba6 I25 3.603352 1_555
Ba6 I30 3.639318 1_555
Ba6 I32 3.668584 1_555
Ba6 I31 3.761516 1_455
Ba6 I29 3.850427 1_555
Ba6 I37 3.852183 1_555
Ba6 I19 3.867352 1_545
Ba6 I23 4.015963 1_545
Ba7 I21 3.529854 1_555
Ba7 I38 3.581046 1_555
Ba7 I27 3.685379 1_554
Ba7 I36 3.704222 1_555
Ba7 I29 3.766309 1_555
Ba7 I37 3.844368 1_555
Ba7 I33 4.028508 1_455
Ba7 I26 4.186863 1_554
I0 La0 3.064647 1_555
I1 La7 3.131140 1_546
I2 La6 3.171325 1_555
I3 La0 3.185899 1_555
I4 La1 3.099750 1_555
I5 La7 3.141296 1_455
I5 La1 3.204502 1_555
I6 La0 3.199293 1_555
I7 La1 3.117445 1_555
I8 La1 3.191634 1_555
I9 La7 3.186728 1_555
I9 La2 3.339009 1_565
I10 La3 3.199293 1_555
I11 La4 3.186728 1_555
I11 La1 3.339009 1_545
I12 La2 3.191634 1_555
I13 La2 3.117445 1_555
I14 La3 3.185899 1_555
I15 La5 3.171325 1_555
I16 La4 3.141296 1_555
I16 La2 3.204502 1_555
I17 La2 3.099750 1_555
I18 La3 3.064647 1_555
I19 La4 3.131140 1_565
I20 La3 3.131140 1_545
I21 La4 3.064647 1_555
I22 La5 3.099750 1_555
I23 La3 3.141296 1_555
I23 La5 3.204502 1_555
I24 La2 3.171325 1_555
I25 La4 3.185899 1_555
I26 La5 3.117445 1_555
I27 La5 3.191634 1_555
I28 La3 3.186728 1_555
I28 La6 3.339009 1_565
I29 La4 3.199293 1_555
I30 La0 3.186728 1_555
I30 La5 3.339009 1_545
I31 La6 3.191634 1_555
I32 La6 3.117445 1_555
I33 La7 3.199293 1_555
I34 La0 3.141296 1_655
I34 La6 3.204502 1_555
I35 La6 3.099750 1_555
I36 La7 3.185899 1_555
I37 La1 3.171325 1_555
I38 La0 3.131140 1_564
I39 La7 3.064647 1_555
