# generated using pymatgen
data_Li5Co3(NiO5)2
_symmetry_space_group_name_H-M   'P 1'
_cell_length_a   5.15176967
_cell_length_b   7.63957610
_cell_length_c   10.18646221
_cell_angle_alpha   103.89393119
_cell_angle_beta   81.90379387
_cell_angle_gamma   71.01305321
_symmetry_Int_Tables_number   1
_chemical_formula_structural   Li5Co3(NiO5)2
_chemical_formula_sum   'Li10 Co6 Ni4 O20'
_cell_volume   357.38447467
_cell_formula_units_Z   2
loop_
 _symmetry_equiv_pos_site_id
 _symmetry_equiv_pos_as_xyz
  1  'x, y, z'
loop_
 _atom_site_type_symbol
 _atom_site_label
 _atom_site_symmetry_multiplicity
 _atom_site_fract_x
 _atom_site_fract_y
 _atom_site_fract_z
 _atom_site_occupancy
  Li  Li0  1  0.00009300  0.49923600  0.50033400  1
  Li  Li1  1  0.99990800  0.50076400  0.99966300  1
  Li  Li2  1  0.79551700  0.41041000  0.25193100  1
  Li  Li3  1  0.79517700  0.41058300  0.75134600  1
  Li  Li4  1  0.20482700  0.58942700  0.74864200  1
  Li  Li5  1  0.20446400  0.58960400  0.24807400  1
  Li  Li6  1  0.60418600  0.79004100  0.74623700  1
  Li  Li7  1  0.60194200  0.79148500  0.24684700  1
  Li  Li8  1  0.39804000  0.20852900  0.25315400  1
  Li  Li9  1  0.39581200  0.20996400  0.75376400  1
  Co  Co0  1  0.00000300  0.00000400  0.24999800  1
  Co  Co1  1  0.80423200  0.88415200  0.49344000  1
  Co  Co2  1  0.19576700  0.11583700  0.00655700  1
  Co  Co3  1  0.00001200  0.00000000  0.74999900  1
  Co  Co4  1  0.80122500  0.88458900  0.99438300  1
  Co  Co5  1  0.19879500  0.11540200  0.50560300  1
  Ni  Ni0  1  0.40674600  0.69488100  0.49920700  1
  Ni  Ni1  1  0.40251600  0.69537500  0.99885300  1
  Ni  Ni2  1  0.59745500  0.30464600  0.50117500  1
  Ni  Ni3  1  0.59323900  0.30516400  0.00081700  1
  O  O0  1  0.19656700  0.85622000  0.88656900  1
  O  O1  1  0.19891700  0.85632600  0.38817000  1
  O  O2  1  0.80107300  0.14368200  0.11182600  1
  O  O3  1  0.80343600  0.14377800  0.61343200  1
  O  O4  1  0.39708000  0.93859800  0.61576600  1
  O  O5  1  0.39751400  0.93890800  0.11629400  1
  O  O6  1  0.60249800  0.06106600  0.38369300  1
  O  O7  1  0.60292900  0.06139400  0.88422700  1
  O  O8  1  0.58971300  0.54455600  0.61298400  1
  O  O9  1  0.58745000  0.54365300  0.11125300  1
  O  O10  1  0.41255400  0.45632400  0.38875800  1
  O  O11  1  0.41030800  0.45539700  0.88700900  1
  O  O12  1  0.00683200  0.22464900  0.36896300  1
  O  O13  1  0.00688400  0.22373900  0.86744400  1
  O  O14  1  0.99313200  0.77627300  0.63255600  1
  O  O15  1  0.99317700  0.77534200  0.13102900  1
  O  O16  1  0.79597400  0.66331300  0.38181500  1
  O  O17  1  0.79934700  0.66355200  0.88022900  1
  O  O18  1  0.20065400  0.33644400  0.61976800  1
  O  O19  1  0.20400900  0.33669300  0.11819300  1
loop_
_geom_bond_atom_site_label_1
_geom_bond_atom_site_label_2
_geom_bond_distance
_geom_bond_site_symmetry_2
Li0 O18 2.083024 1_555
Li0 O16 2.088353 1_455
Li0 O8 2.134469 1_455
Li0 O10 2.145223 1_555
Li0 O12 2.187197 1_555
Li0 O14 2.205155 1_455
Li1 O17 2.083006 1_555
Li1 O19 2.088379 1_656
Li1 O11 2.134469 1_655
Li1 O9 2.145312 1_556
Li1 O15 2.187138 1_556
Li1 O13 2.205040 1_655
Li2 O16 2.063878 1_555
Li2 O10 2.120966 1_555
Li2 O19 2.157458 1_655
Li2 O9 2.159139 1_555
Li2 O2 2.178010 1_555
Li2 O12 2.189304 1_655
Li3 O17 2.067700 1_555
Li3 O11 2.125451 1_555
Li3 O18 2.134891 1_655
Li3 O8 2.135996 1_555
Li3 O3 2.163688 1_555
Li3 O13 2.187840 1_655
Li4 O18 2.067752 1_555
Li4 O8 2.125366 1_555
Li4 O17 2.134964 1_455
Li4 O11 2.136284 1_555
Li4 O0 2.163670 1_555
Li4 O14 2.187733 1_455
Li5 O19 2.063909 1_555
Li5 O9 2.120945 1_555
Li5 O16 2.157476 1_455
Li5 O10 2.159376 1_555
Li5 O1 2.177953 1_555
Li5 O15 2.189245 1_455
Li6 O17 2.048263 1_555
Li6 O8 2.064490 1_555
Li6 O14 2.125531 1_555
Li6 O4 2.128059 1_555
Li6 O0 2.196678 1_555
Li6 O7 2.205120 1_565
Li7 O16 2.060323 1_555
Li7 O9 2.088821 1_555
Li7 O5 2.118524 1_555
Li7 O15 2.137317 1_555
Li7 O1 2.185206 1_555
Li7 O6 2.193372 1_565
Li8 O19 2.060231 1_555
Li8 O10 2.088700 1_555
Li8 O6 2.118630 1_555
Li8 O12 2.137230 1_555
Li8 O2 2.185251 1_555
Li8 O5 2.193610 1_545
Li9 O18 2.048258 1_555
Li9 O11 2.064202 1_555
Li9 O13 2.125427 1_555
Li9 O7 2.128067 1_555
Li9 O3 2.196686 1_555
Li9 O4 2.205210 1_545
Co0 O12 1.862148 1_555
Co0 O15 1.862259 1_445
Co0 O6 2.133952 1_455
Co0 O5 2.133953 1_545
Co0 O1 2.156904 1_545
Co0 O2 2.156938 1_455
Co1 O16 1.811111 1_555
Co1 O14 2.015415 1_555
Co1 O3 2.063257 1_565
Co1 O6 2.072548 1_565
Co1 O1 2.079568 1_655
Co1 O4 2.138363 1_555
Co2 O19 1.811225 1_555
Co2 O13 2.015423 1_554
Co2 O0 2.063178 1_544
Co2 O5 2.072565 1_545
Co2 O2 2.079555 1_455
Co2 O7 2.138428 1_554
Co3 O14 1.850170 1_445
Co3 O13 1.850233 1_555
Co3 O4 2.133991 1_545
Co3 O7 2.134045 1_455
Co3 O0 2.138722 1_545
Co3 O3 2.138731 1_455
Co4 O17 1.809562 1_555
Co4 O15 2.005129 1_556
Co4 O2 2.051970 1_566
Co4 O7 2.068827 1_565
Co4 O0 2.090387 1_655
Co4 O5 2.122134 1_556
Co5 O18 1.809599 1_555
Co5 O12 2.005102 1_555
Co5 O1 2.051889 1_545
Co5 O4 2.068856 1_545
Co5 O3 2.090501 1_455
Co5 O6 2.122061 1_555
Ni0 O10 1.886381 1_555
Ni0 O4 1.933962 1_555
Ni0 O8 1.947602 1_555
Ni0 O1 2.024522 1_555
Ni0 O16 2.092945 1_555
Ni0 O14 2.165453 1_455
Ni1 O11 1.896532 1_555
Ni1 O5 1.945367 1_556
Ni1 O9 1.946319 1_556
Ni1 O0 2.027883 1_555
Ni1 O17 2.130355 1_555
Ni1 O15 2.144774 1_456
Ni2 O8 1.896075 1_555
Ni2 O6 1.945735 1_555
Ni2 O10 1.946199 1_555
Ni2 O3 2.027835 1_555
Ni2 O18 2.130161 1_555
Ni2 O12 2.145043 1_655
Ni3 O9 1.885946 1_555
Ni3 O7 1.934362 1_554
Ni3 O11 1.947382 1_554
Ni3 O2 2.024472 1_555
Ni3 O19 2.092987 1_555
Ni3 O13 2.165638 1_654
