# generated using pymatgen
data_Li5Fe8(BO3)8
_symmetry_space_group_name_H-M   'P 1'
_cell_length_a   5.22442300
_cell_length_b   9.07489613
_cell_length_c   11.42612772
_cell_angle_alpha   112.69386250
_cell_angle_beta   102.46913495
_cell_angle_gamma   89.72159821
_symmetry_Int_Tables_number   1
_chemical_formula_structural   Li5Fe8(BO3)8
_chemical_formula_sum   'Li5 Fe8 B8 O24'
_cell_volume   486.14218774
_cell_formula_units_Z   1
loop_
 _symmetry_equiv_pos_site_id
 _symmetry_equiv_pos_as_xyz
  1  'x, y, z'
loop_
 _atom_site_type_symbol
 _atom_site_label
 _atom_site_symmetry_multiplicity
 _atom_site_fract_x
 _atom_site_fract_y
 _atom_site_fract_z
 _atom_site_occupancy
  Li  Li0  1  0.02741500  0.02954700  0.39544900  1
  Li  Li1  1  0.29662200  0.27904700  0.91450700  1
  Li  Li2  1  0.26743800  0.24483700  0.16381800  1
  Li  Li3  1  0.97967300  0.00220800  0.66137600  1
  Li  Li4  1  0.75955600  0.74080700  0.15191600  1
  Fe  Fe0  1  0.00642100  0.35890600  0.37723600  1
  Fe  Fe1  1  0.25792700  0.92992900  0.88236400  1
  Fe  Fe2  1  0.47075100  0.16232300  0.62865400  1
  Fe  Fe3  1  0.25043500  0.56764000  0.13565800  1
  Fe  Fe4  1  0.77477400  0.44384500  0.87413700  1
  Fe  Fe5  1  0.52512800  0.84394000  0.38716000  1
  Fe  Fe6  1  0.98216300  0.64722400  0.63380600  1
  Fe  Fe7  1  0.74268700  0.05607700  0.11942100  1
  B  B0  1  0.03342700  0.68883300  0.38104700  1
  B  B1  1  0.27512200  0.59433600  0.87473400  1
  B  B2  1  0.48898200  0.81920500  0.63529300  1
  B  B3  1  0.24185500  0.89918700  0.13368900  1
  B  B4  1  0.50759000  0.18210200  0.37467700  1
  B  B5  1  0.76442400  0.11425900  0.87657500  1
  B  B6  1  0.96501700  0.30985800  0.62136000  1
  B  B7  1  0.73186200  0.39582900  0.12503500  1
  O  O0  1  0.02183500  0.10428600  0.86205100  1
  O  O1  1  0.12564400  0.69223700  0.82494400  1
  O  O2  1  0.15427300  0.48898300  0.91469700  1
  O  O3  1  0.08227700  0.16954200  0.60594000  1
  O  O4  1  0.05206200  0.41702100  0.57411700  1
  O  O5  1  0.23424700  0.83084700  0.66159000  1
  O  O6  1  0.26047000  0.66062100  0.33700300  1
  O  O7  1  0.54007400  0.60048700  0.88946300  1
  O  O8  1  0.61605400  0.23260700  0.84673400  1
  O  O9  1  0.42365700  0.07546100  0.42101600  1
  O  O10  1  0.34405400  0.29132400  0.35087100  1
  O  O11  1  0.64639800  0.01921500  0.92102200  1
  O  O12  1  0.33755300  0.00985800  0.09149500  1
  O  O13  1  0.63549400  0.69666600  0.64029300  1
  O  O14  1  0.58832900  0.93642900  0.60189000  1
  O  O15  1  0.40458000  0.79023200  0.16236500  1
  O  O16  1  0.46349300  0.37619600  0.10904600  1
  O  O17  1  0.75664400  0.34593100  0.68132200  1
  O  O18  1  0.75829500  0.17481300  0.34684200  1
  O  O19  1  0.94187800  0.58456700  0.43078700  1
  O  O20  1  0.89449400  0.81509900  0.37310100  1
  O  O21  1  0.84284300  0.50418100  0.08590300  1
  O  O22  1  0.89585600  0.30365800  0.17842900  1
  O  O23  1  0.98672300  0.89998700  0.14712700  1
loop_
_geom_bond_atom_site_label_1
_geom_bond_atom_site_label_2
_geom_bond_distance
_geom_bond_site_symmetry_2
Li0 O20 1.971761 1_445
Li0 O9 2.048835 1_555
Li0 O18 2.057391 1_455
Li0 O3 2.197459 1_555
Li0 O23 2.577986 1_445
Li1 O0 1.962776 1_555
Li1 O8 1.965131 1_555
Li1 O16 2.033907 1_556
Li1 O2 2.041177 1_555
Li2 O16 1.930327 1_555
Li2 O10 1.960278 1_555
Li2 O12 2.031665 1_555
Li2 O22 2.035333 1_455
Li3 O3 1.972626 1_655
Li3 O14 2.024150 1_545
Li3 O5 2.041721 1_645
Li3 O0 2.075845 1_655
Li4 O23 1.898401 1_555
Li4 O15 1.923792 1_555
Li4 O21 2.062104 1_555
Li4 O20 2.293298 1_555
Fe0 O10 1.911742 1_555
Fe0 O19 1.948670 1_455
Fe0 O18 1.992734 1_455
Fe0 O4 2.061499 1_555
Fe0 O22 2.074263 1_455
Fe1 O0 2.054171 1_565
Fe1 O1 2.070640 1_555
Fe1 O11 2.079267 1_565
Fe1 O12 2.155327 1_566
Fe1 O5 2.302910 1_555
Fe2 O3 1.993765 1_555
Fe2 O17 2.057109 1_555
Fe2 O14 2.063582 1_545
Fe2 O9 2.148818 1_555
Fe2 O8 2.270180 1_555
Fe3 O16 2.017309 1_555
Fe3 O15 2.063033 1_555
Fe3 O21 2.103771 1_455
Fe3 O6 2.111382 1_555
Fe3 O2 2.280646 1_554
Fe4 O7 1.854336 1_555
Fe4 O2 1.943746 1_655
Fe4 O8 1.974989 1_555
Fe4 O17 2.013075 1_555
Fe4 O21 2.211125 1_556
Fe5 O20 1.978549 1_555
Fe5 O6 1.988047 1_555
Fe5 O9 2.072582 1_565
Fe5 O14 2.212956 1_555
Fe5 O15 2.360092 1_555
Fe6 O13 1.873891 1_555
Fe6 O4 1.990846 1_655
Fe6 O5 2.011119 1_655
Fe6 O1 2.026359 1_655
Fe6 O19 2.126331 1_555
Fe7 O23 1.971383 1_545
Fe7 O12 2.090792 1_555
Fe7 O11 2.104280 1_554
Fe7 O22 2.181406 1_555
Fe7 O18 2.380958 1_555
B0 O6 1.371573 1_555
B0 O20 1.375428 1_455
B0 O19 1.408472 1_455
B1 O7 1.356618 1_555
B1 O1 1.383566 1_555
B1 O2 1.410110 1_555
B2 O13 1.359278 1_555
B2 O14 1.396754 1_555
B2 O5 1.421059 1_555
B3 O23 1.373944 1_455
B3 O15 1.388980 1_555
B3 O12 1.404870 1_565
B4 O10 1.373259 1_555
B4 O9 1.381644 1_555
B4 O18 1.408506 1_555
B5 O11 1.363986 1_555
B5 O0 1.388483 1_655
B5 O8 1.425104 1_555
B6 O3 1.376112 1_655
B6 O17 1.381029 1_555
B6 O4 1.399752 1_655
B7 O16 1.377545 1_555
B7 O21 1.399887 1_555
B7 O22 1.402489 1_555
