# generated using pymatgen
data_Ga13Fe11O32
_symmetry_space_group_name_H-M   'P 1'
_cell_length_a   5.95687498
_cell_length_b   5.95687498
_cell_length_c   20.90241836
_cell_angle_alpha   74.07321442
_cell_angle_beta   74.07321442
_cell_angle_gamma   58.85948732
_symmetry_Int_Tables_number   1
_chemical_formula_structural   Ga13Fe11O32
_chemical_formula_sum   'Ga13 Fe11 O32'
_cell_volume   602.49802593
_cell_formula_units_Z   1
loop_
 _symmetry_equiv_pos_site_id
 _symmetry_equiv_pos_as_xyz
  1  'x, y, z'
loop_
 _atom_site_type_symbol
 _atom_site_label
 _atom_site_symmetry_multiplicity
 _atom_site_fract_x
 _atom_site_fract_y
 _atom_site_fract_z
 _atom_site_occupancy
  Ga  Ga0  1  0.49849000  0.49849000  0.24905500  1
  Ga  Ga1  1  0.74641500  0.74641500  0.12426700  1
  Ga  Ga2  1  0.80921100  0.80921100  0.27775600  1
  Ga  Ga3  1  0.19299600  0.19299600  0.21789900  1
  Ga  Ga4  1  0.69108800  0.69108800  0.96988400  1
  Ga  Ga5  1  0.30891200  0.30891200  0.03011600  1
  Ga  Ga6  1  0.19078900  0.19078900  0.72224400  1
  Ga  Ga7  1  0.25358500  0.25358500  0.87573300  1
  Ga  Ga8  1  0.50151000  0.50151000  0.75094500  1
  Ga  Ga9  1  0.80700400  0.80700400  0.78210100  1
  Ga  Ga10  1  0.31394000  0.31394000  0.52746700  1
  Ga  Ga11  1  0.68606000  0.68606000  0.47253300  1
  Ga  Ga12  1  0.00000000  0.00000000  0.50000000  1
  Fe  Fe0  1  0.75982000  0.23853800  0.12103300  1
  Fe  Fe1  1  0.23853800  0.75982000  0.12103300  1
  Fe  Fe2  1  0.00000000  0.00000000  0.00000000  1
  Fe  Fe3  1  0.24292800  0.75604800  0.62571600  1
  Fe  Fe4  1  0.24018000  0.76146200  0.87896700  1
  Fe  Fe5  1  0.76146200  0.24018000  0.87896700  1
  Fe  Fe6  1  0.75142400  0.75142400  0.62561500  1
  Fe  Fe7  1  0.75604800  0.24292800  0.62571600  1
  Fe  Fe8  1  0.24395200  0.75707200  0.37428400  1
  Fe  Fe9  1  0.24857600  0.24857600  0.37438500  1
  Fe  Fe10  1  0.75707200  0.24395200  0.37428400  1
  O  O0  1  0.85643200  0.38960400  0.18553500  1
  O  O1  1  0.38427100  0.38427100  0.18800000  1
  O  O2  1  0.62645700  0.62645700  0.06513700  1
  O  O3  1  0.86899300  0.86899300  0.18248000  1
  O  O4  1  0.63061200  0.10806500  0.06495600  1
  O  O5  1  0.14356800  0.61039600  0.81446500  1
  O  O6  1  0.10806500  0.63061200  0.06495600  1
  O  O7  1  0.89193500  0.36938800  0.93504400  1
  O  O8  1  0.38960400  0.85643200  0.18553500  1
  O  O9  1  0.38269500  0.38269500  0.69007600  1
  O  O10  1  0.87650700  0.87650700  0.93710000  1
  O  O11  1  0.13100700  0.13100700  0.81752000  1
  O  O12  1  0.12349300  0.12349300  0.06290000  1
  O  O13  1  0.37354300  0.37354300  0.93486300  1
  O  O14  1  0.61572900  0.61572900  0.81200000  1
  O  O15  1  0.11837100  0.64263500  0.56122900  1
  O  O16  1  0.61039600  0.14356800  0.81446500  1
  O  O17  1  0.85975200  0.37912400  0.69025800  1
  O  O18  1  0.36938800  0.89193500  0.93504400  1
  O  O19  1  0.37912400  0.85975200  0.69025800  1
  O  O20  1  0.62328600  0.62328600  0.56622200  1
  O  O21  1  0.87376800  0.87376800  0.68767600  1
  O  O22  1  0.37671400  0.37671400  0.43377800  1
  O  O23  1  0.61730500  0.61730500  0.30992400  1
  O  O24  1  0.12104400  0.12104400  0.56043000  1
  O  O25  1  0.14024800  0.62087600  0.30974200  1
  O  O26  1  0.64263500  0.11837100  0.56122900  1
  O  O27  1  0.62087600  0.14024800  0.30974200  1
  O  O28  1  0.88162900  0.35736500  0.43877100  1
  O  O29  1  0.35736500  0.88162900  0.43877100  1
  O  O30  1  0.87895600  0.87895600  0.43957000  1
  O  O31  1  0.12623200  0.12623200  0.31232400  1
loop_
_geom_bond_atom_site_label_1
_geom_bond_atom_site_label_2
_geom_bond_distance
_geom_bond_site_symmetry_2
Ga0 O1 1.996602 1_555
Ga0 O25 2.026664 1_555
Ga0 O27 2.026664 1_555
Ga0 O23 2.031541 1_555
Ga0 O8 2.053882 1_555
Ga0 O0 2.053882 1_555
Ga1 O2 2.011558 1_555
Ga1 O3 2.018312 1_555
Ga1 O0 2.028116 1_555
Ga1 O8 2.028116 1_555
Ga1 O6 2.029875 1_655
Ga1 O4 2.029875 1_565
Ga2 O3 1.890085 1_555
Ga2 O23 1.890410 1_555
Ga2 O27 1.902101 1_565
Ga2 O25 1.902101 1_655
Ga3 O31 1.874532 1_555
Ga3 O1 1.883660 1_555
Ga3 O8 1.931262 1_545
Ga3 O0 1.931262 1_455
Ga4 O10 1.827703 1_555
Ga4 O18 1.884269 1_555
Ga4 O7 1.884269 1_555
Ga4 O2 1.890112 1_556
Ga5 O12 1.827703 1_555
Ga5 O6 1.884269 1_555
Ga5 O4 1.884269 1_555
Ga5 O13 1.890112 1_554
Ga6 O11 1.890085 1_555
Ga6 O9 1.890410 1_555
Ga6 O19 1.902101 1_545
Ga6 O17 1.902101 1_455
Ga7 O13 2.011558 1_555
Ga7 O11 2.018312 1_555
Ga7 O5 2.028116 1_555
Ga7 O16 2.028116 1_555
Ga7 O18 2.029875 1_545
Ga7 O7 2.029875 1_455
Ga8 O14 1.996602 1_555
Ga8 O19 2.026664 1_555
Ga8 O17 2.026664 1_555
Ga8 O9 2.031541 1_555
Ga8 O16 2.053882 1_555
Ga8 O5 2.053882 1_555
Ga9 O21 1.874532 1_555
Ga9 O14 1.883660 1_555
Ga9 O16 1.931262 1_565
Ga9 O5 1.931262 1_655
Ga10 O22 1.858907 1_555
Ga10 O24 1.900521 1_555
Ga10 O15 1.907058 1_555
Ga10 O26 1.907058 1_555
Ga11 O20 1.858907 1_555
Ga11 O30 1.900521 1_555
Ga11 O29 1.907058 1_555
Ga11 O28 1.907058 1_555
Ga12 O15 2.028399 1_545
Ga12 O26 2.028399 1_455
Ga12 O28 2.028399 1_455
Ga12 O29 2.028399 1_545
Ga12 O30 2.042728 1_445
Ga12 O24 2.042728 1_555
Fe0 O12 2.028810 1_655
Fe0 O4 2.045529 1_555
Fe0 O3 2.084346 1_545
Fe0 O2 2.113036 1_555
Fe0 O0 2.141519 1_555
Fe0 O1 2.158075 1_555
Fe1 O12 2.028810 1_565
Fe1 O6 2.045529 1_555
Fe1 O3 2.084346 1_455
Fe1 O2 2.113036 1_555
Fe1 O8 2.141519 1_555
Fe1 O1 2.158075 1_555
Fe2 O12 2.105285 1_555
Fe2 O10 2.105285 1_444
Fe2 O7 2.115331 1_454
Fe2 O18 2.115331 1_544
Fe2 O4 2.115331 1_455
Fe2 O6 2.115331 1_545
Fe3 O21 2.084541 1_455
Fe3 O15 2.095466 1_555
Fe3 O24 2.097467 1_565
Fe3 O19 2.106251 1_555
Fe3 O20 2.108463 1_555
Fe3 O9 2.122913 1_555
Fe4 O10 2.028810 1_455
Fe4 O18 2.045529 1_555
Fe4 O11 2.084346 1_565
Fe4 O13 2.113036 1_555
Fe4 O5 2.141519 1_555
Fe4 O14 2.158075 1_555
Fe5 O10 2.028810 1_545
Fe5 O7 2.045529 1_555
Fe5 O11 2.084346 1_655
Fe5 O13 2.113036 1_555
Fe5 O16 2.141519 1_555
Fe5 O14 2.158075 1_555
Fe6 O21 2.081370 1_555
Fe6 O20 2.085475 1_555
Fe6 O15 2.099581 1_655
Fe6 O26 2.099581 1_565
Fe6 O17 2.124689 1_555
Fe6 O19 2.124689 1_555
Fe7 O21 2.084541 1_545
Fe7 O26 2.095466 1_555
Fe7 O24 2.097467 1_655
Fe7 O17 2.106251 1_555
Fe7 O20 2.108463 1_555
Fe7 O9 2.122913 1_555
Fe8 O31 2.084541 1_565
Fe8 O29 2.095466 1_555
Fe8 O30 2.097467 1_455
Fe8 O25 2.106251 1_555
Fe8 O22 2.108463 1_555
Fe8 O23 2.122913 1_555
Fe9 O31 2.081370 1_555
Fe9 O22 2.085475 1_555
Fe9 O29 2.099581 1_545
Fe9 O28 2.099581 1_455
Fe9 O27 2.124689 1_555
Fe9 O25 2.124689 1_555
Fe10 O31 2.084541 1_655
Fe10 O28 2.095466 1_555
Fe10 O30 2.097467 1_545
Fe10 O27 2.106251 1_555
Fe10 O22 2.108463 1_555
Fe10 O23 2.122913 1_555
