# generated using pymatgen
data_Li4Fe2OF8
_symmetry_space_group_name_H-M   'P 1'
_cell_length_a   5.10766416
_cell_length_b   5.10766416
_cell_length_c   14.02581461
_cell_angle_alpha   89.90339477
_cell_angle_beta   89.90339477
_cell_angle_gamma   60.10105694
_symmetry_Int_Tables_number   1
_chemical_formula_structural   Li4Fe2OF8
_chemical_formula_sum   'Li8 Fe4 O2 F16'
_cell_volume   317.20784403
_cell_formula_units_Z   2
loop_
 _symmetry_equiv_pos_site_id
 _symmetry_equiv_pos_as_xyz
  1  'x, y, z'
loop_
 _atom_site_type_symbol
 _atom_site_label
 _atom_site_symmetry_multiplicity
 _atom_site_fract_x
 _atom_site_fract_y
 _atom_site_fract_z
 _atom_site_occupancy
  Li  Li0  1  0.33114100  0.32017900  0.30966200  1
  Li  Li1  1  0.34282900  0.33145200  0.01596500  1
  Li  Li2  1  0.32017900  0.33114100  0.80966200  1
  Li  Li3  1  0.33145200  0.34282900  0.51596500  1
  Li  Li4  1  0.64880300  0.68703300  0.18986000  1
  Li  Li5  1  0.68703300  0.64880300  0.68986000  1
  Li  Li6  1  0.67598900  0.66556800  0.98390900  1
  Li  Li7  1  0.66556800  0.67598900  0.48390900  1
  Fe  Fe0  1  0.01512700  0.00388900  0.14913200  1
  Fe  Fe1  1  0.00388900  0.01512700  0.64913200  1
  Fe  Fe2  1  0.01605000  0.99698400  0.35043800  1
  Fe  Fe3  1  0.99698400  0.01605000  0.85043800  1
  O  O0  1  0.27034000  0.00272200  0.24971900  1
  O  O1  1  0.00272200  0.27034000  0.74971900  1
  F  F0  1  0.70101200  0.98250900  0.75161000  1
  F  F1  1  0.66161000  0.02021700  0.41235500  1
  F  F2  1  0.65423100  0.32133300  0.91833100  1
  F  F3  1  0.33194000  0.01839700  0.91750000  1
  F  F4  1  0.01839700  0.33194000  0.41750000  1
  F  F5  1  0.32133300  0.65423100  0.41833100  1
  F  F6  1  0.97862000  0.34746700  0.07903500  1
  F  F7  1  0.68548800  0.29901700  0.24744200  1
  F  F8  1  0.02021700  0.66161000  0.91235500  1
  F  F9  1  0.67066500  0.34706500  0.58151400  1
  F  F10  1  0.98250900  0.70101200  0.25161000  1
  F  F11  1  0.97505500  0.68256800  0.58664700  1
  F  F12  1  0.68256800  0.97505500  0.08664700  1
  F  F13  1  0.34706500  0.67066500  0.08151400  1
  F  F14  1  0.29901700  0.68548800  0.74744200  1
  F  F15  1  0.34746700  0.97862000  0.57903500  1
loop_
_geom_bond_atom_site_label_1
_geom_bond_atom_site_label_2
_geom_bond_distance
_geom_bond_site_symmetry_2
Li0 O0 1.984926 1_555
Li2 O1 1.984926 1_555
Li4 O0 1.983239 1_565
Li5 O1 1.983239 1_655
Fe0 O0 1.920438 1_555
Fe1 O1 1.920438 1_555
Fe2 O0 1.927449 1_565
Fe3 O1 1.927449 1_655
F0 Li5 1.945998 1_555
F0 Li2 2.040564 1_565
F0 Fe3 2.121819 1_565
F0 Fe1 2.176126 1_665
F1 Fe2 1.956155 1_645
F1 Li7 2.014344 1_545
F1 Li0 2.166480 1_555
F1 Li3 2.213675 1_555
F2 Fe3 1.918575 1_555
F2 Li6 2.037241 1_555
F2 Li1 2.078140 1_556
F2 Li2 2.271588 1_555
F3 Fe3 1.959021 1_455
F3 Li6 2.011466 1_545
F3 Li1 2.136235 1_556
F3 Li2 2.177032 1_555
F4 Fe2 1.959021 1_545
F4 Li7 2.011466 1_455
F4 Li3 2.136235 1_555
F4 Li0 2.177032 1_555
F5 Fe2 1.918575 1_555
F5 Li7 2.037241 1_555
F5 Li3 2.078140 1_555
F5 Li0 2.271588 1_555
F6 Fe0 1.936381 1_655
F6 Li1 2.023060 1_655
F6 Li6 2.074885 1_554
F6 Li4 2.312922 1_555
F7 Li0 1.961864 1_555
F7 Li4 2.059134 1_555
F7 Fe0 2.115969 1_655
F7 Fe2 2.172889 1_645
F8 Fe3 1.956155 1_465
F8 Li6 2.014344 1_455
F8 Li2 2.166480 1_555
F8 Li1 2.213675 1_556
F9 Fe1 1.947807 1_655
F9 Li3 1.972407 1_555
F9 Li7 2.155477 1_555
F9 Li5 2.197339 1_555
F10 Li4 1.945998 1_555
F10 Li0 2.040564 1_655
F10 Fe2 2.121819 1_655
F10 Fe0 2.176126 1_665
F11 Fe1 1.982388 1_665
F11 Li3 2.039177 1_655
F11 Li5 2.129443 1_555
F11 Li7 2.153405 1_555
F12 Fe0 1.982388 1_665
F12 Li1 2.039177 1_565
F12 Li4 2.129443 1_555
F12 Li6 2.153405 1_554
F13 Fe0 1.947807 1_565
F13 Li1 1.972407 1_555
F13 Li6 2.155477 1_554
F13 Li4 2.197339 1_555
F14 Li2 1.961864 1_555
F14 Li5 2.059134 1_555
F14 Fe1 2.115969 1_565
F14 Fe3 2.172889 1_465
F15 Fe1 1.936381 1_565
F15 Li3 2.023060 1_565
F15 Li7 2.074885 1_555
F15 Li5 2.312922 1_555
