# generated using pymatgen
data_Tm2Mn2O7
_symmetry_space_group_name_H-M   'P 1'
_cell_length_a   6.93018882
_cell_length_b   6.93018882
_cell_length_c   6.93018882
_cell_angle_alpha   60.00000000
_cell_angle_beta   60.00000000
_cell_angle_gamma   60.00000000
_symmetry_Int_Tables_number   1
_chemical_formula_structural   Tm2Mn2O7
_chemical_formula_sum   'Tm4 Mn4 O14'
_cell_volume   235.35325277
_cell_formula_units_Z   2
loop_
 _symmetry_equiv_pos_site_id
 _symmetry_equiv_pos_as_xyz
  1  'x, y, z'
loop_
 _atom_site_type_symbol
 _atom_site_label
 _atom_site_symmetry_multiplicity
 _atom_site_fract_x
 _atom_site_fract_y
 _atom_site_fract_z
 _atom_site_occupancy
  Tm  Tm0  1  0.12500000  0.62500000  0.12500000  1
  Tm  Tm1  1  0.12500000  0.12500000  0.62500000  1
  Tm  Tm2  1  0.62500000  0.12500000  0.12500000  1
  Tm  Tm3  1  0.12500000  0.12500000  0.12500000  1
  Mn  Mn0  1  0.62500000  0.62500000  0.62500000  1
  Mn  Mn1  1  0.12500000  0.62500000  0.62500000  1
  Mn  Mn2  1  0.62500000  0.62500000  0.12500000  1
  Mn  Mn3  1  0.62500000  0.12500000  0.62500000  1
  O  O0  1  0.29495893  0.70504107  0.70504107  1
  O  O1  1  0.54495893  0.95504107  0.95504107  1
  O  O2  1  0.70504107  0.70504107  0.29495893  1
  O  O3  1  0.29495893  0.29495893  0.70504107  1
  O  O4  1  -0.00000000  -0.00000000  -0.00000000  1
  O  O5  1  0.29495893  0.70504107  0.29495893  1
  O  O6  1  0.70504107  0.29495893  0.70504107  1
  O  O7  1  0.95504107  0.54495893  0.95504107  1
  O  O8  1  0.54495893  0.54495893  0.95504107  1
  O  O9  1  0.95504107  0.95504107  0.54495893  1
  O  O10  1  0.25000000  0.25000000  0.25000000  1
  O  O11  1  0.54495893  0.95504107  0.54495893  1
  O  O12  1  0.70504107  0.29495893  0.29495893  1
  O  O13  1  0.95504107  0.54495893  0.54495893  1
loop_
_geom_bond_atom_site_label_1
_geom_bond_atom_site_label_2
_geom_bond_distance
_geom_bond_site_symmetry_2
Mn0 O2 1.901868 1_555
Mn0 O6 1.901868 1_555
Mn0 O0 1.901868 1_555
Mn0 O8 1.901868 1_555
Mn0 O13 1.901868 1_555
Mn0 O11 1.901868 1_555
Mn1 O5 1.901868 1_555
Mn1 O3 1.901868 1_555
Mn1 O9 1.901868 1_455
Mn1 O7 1.901868 1_455
Mn1 O13 1.901868 1_455
Mn1 O0 1.901868 1_555
Mn2 O7 1.901868 1_554
Mn2 O8 1.901868 1_554
Mn2 O5 1.901868 1_555
Mn2 O12 1.901868 1_555
Mn2 O1 1.901868 1_554
Mn2 O2 1.901868 1_555
Mn3 O3 1.901868 1_555
Mn3 O9 1.901868 1_545
Mn3 O12 1.901868 1_555
Mn3 O1 1.901868 1_545
Mn3 O11 1.901868 1_545
Mn3 O6 1.901868 1_555
O0 Tm0 2.403408 1_556
O0 Tm1 2.403408 1_565
O1 Tm3 2.403408 1_566
O1 Tm2 2.403408 1_566
O2 Tm0 2.403408 1_655
O2 Tm2 2.403408 1_565
O3 Tm3 2.403408 1_556
O3 Tm1 2.403408 1_555
O4 Tm2 2.121928 1_455
O4 Tm0 2.121928 1_545
O4 Tm3 2.121928 1_555
O4 Tm1 2.121928 1_554
O5 Tm3 2.403408 1_565
O5 Tm0 2.403408 1_555
O6 Tm1 2.403408 1_655
O6 Tm2 2.403408 1_556
O7 Tm3 2.403408 1_656
O7 Tm0 2.403408 1_656
O8 Tm0 2.403408 1_556
O8 Tm2 2.403408 1_556
O9 Tm3 2.403408 1_665
O9 Tm1 2.403408 1_665
O10 Tm2 2.121928 1_555
O10 Tm1 2.121928 1_555
O10 Tm3 2.121928 1_555
O10 Tm0 2.121928 1_555
O11 Tm1 2.403408 1_565
O11 Tm2 2.403408 1_565
O12 Tm3 2.403408 1_655
O12 Tm2 2.403408 1_555
O13 Tm0 2.403408 1_655
O13 Tm1 2.403408 1_655
