# generated using pymatgen
data_LiH2BrO
_symmetry_space_group_name_H-M   'P 1'
_cell_length_a   5.77338129
_cell_length_b   5.77338129
_cell_length_c   8.04646200
_cell_angle_alpha   90.00000000
_cell_angle_beta   90.00000000
_cell_angle_gamma   90.51079960
_symmetry_Int_Tables_number   1
_chemical_formula_structural   LiH2BrO
_chemical_formula_sum   'Li4 H8 Br4 O4'
_cell_volume   268.19346176
_cell_formula_units_Z   4
loop_
 _symmetry_equiv_pos_site_id
 _symmetry_equiv_pos_as_xyz
  1  'x, y, z'
loop_
 _atom_site_type_symbol
 _atom_site_label
 _atom_site_symmetry_multiplicity
 _atom_site_fract_x
 _atom_site_fract_y
 _atom_site_fract_z
 _atom_site_occupancy
  Li  Li0  1  0.00000000  0.00000000  0.00000000  1
  Li  Li1  1  0.00000000  0.00000000  0.50000000  1
  Li  Li2  1  0.68283000  0.31717000  0.25000000  1
  Li  Li3  1  0.31717000  0.68283000  0.75000000  1
  H  H0  1  0.60058500  0.20983500  0.94126600  1
  H  H1  1  0.20983500  0.60058500  0.05873400  1
  H  H2  1  0.20983500  0.60058500  0.44126600  1
  H  H3  1  0.60058500  0.20983500  0.55873400  1
  H  H4  1  0.79016500  0.39941500  0.55873400  1
  H  H5  1  0.39941500  0.79016500  0.05873400  1
  H  H6  1  0.79016500  0.39941500  0.94126600  1
  H  H7  1  0.39941500  0.79016500  0.44126600  1
  Br  Br0  1  0.21969300  0.27725100  0.25000000  1
  Br  Br1  1  0.27725100  0.21969300  0.75000000  1
  Br  Br2  1  0.72274900  0.78030700  0.25000000  1
  Br  Br3  1  0.78030700  0.72274900  0.75000000  1
  O  O0  1  0.74465000  0.25535000  0.00033900  1
  O  O1  1  0.74465000  0.25535000  0.49966100  1
  O  O2  1  0.25535000  0.74465000  0.50033900  1
  O  O3  1  0.25535000  0.74465000  0.99966100  1
loop_
_geom_bond_atom_site_label_1
_geom_bond_atom_site_label_2
_geom_bond_distance
_geom_bond_site_symmetry_2
Li0 O0 2.094155 1_455
Li0 O3 2.094155 1_544
Li1 O1 2.094155 1_455
Li1 O2 2.094155 1_545
Li2 O0 2.071876 1_555
Li2 O1 2.071876 1_555
Li3 O2 2.071876 1_555
Li3 O3 2.071876 1_555
H0 O0 0.991406 1_556
H1 O3 0.991406 1_554
H2 O2 0.991406 1_555
H3 O1 0.991406 1_555
H4 O1 0.991406 1_555
H5 O3 0.991406 1_554
H6 O0 0.991406 1_556
H7 O2 0.991406 1_555
Br0 Li2 2.681733 1_555
Br0 Li1 2.860302 1_555
Br0 Li0 2.860302 1_555
Br0 Li2 3.110120 1_455
Br1 Li3 2.681733 1_555
Br1 Li1 2.860302 1_555
Br1 Li0 2.860302 1_556
Br1 Li3 3.110120 1_545
Br2 Li2 2.681733 1_555
Br2 Li0 2.860302 1_665
Br2 Li1 2.860302 1_665
Br2 Li2 3.110120 1_565
Br3 Li3 2.681733 1_555
Br3 Li1 2.860302 1_665
Br3 Li0 2.860302 1_666
Br3 Li3 3.110120 1_655
