# generated using pymatgen
data_Li2Mn2Si2O7
_symmetry_space_group_name_H-M   'P 1'
_cell_length_a   5.44137690
_cell_length_b   5.44137690
_cell_length_c   13.45136700
_cell_angle_alpha   90.00000000
_cell_angle_beta   90.00000000
_cell_angle_gamma   124.23039138
_symmetry_Int_Tables_number   1
_chemical_formula_structural   Li2Mn2Si2O7
_chemical_formula_sum   'Li4 Mn4 Si4 O14'
_cell_volume   329.28747805
_cell_formula_units_Z   2
loop_
 _symmetry_equiv_pos_site_id
 _symmetry_equiv_pos_as_xyz
  1  'x, y, z'
loop_
 _atom_site_type_symbol
 _atom_site_label
 _atom_site_symmetry_multiplicity
 _atom_site_fract_x
 _atom_site_fract_y
 _atom_site_fract_z
 _atom_site_occupancy
  Li  Li0  1  0.01640500  0.01640500  0.00000000  1
  Li  Li1  1  0.01640500  0.01640500  0.50000000  1
  Li  Li2  1  0.00679800  0.98386100  0.25000000  1
  Li  Li3  1  0.98386100  0.00679800  0.75000000  1
  Mn  Mn0  1  0.34307200  0.78308400  0.58794600  1
  Mn  Mn1  1  0.34307200  0.78308400  0.91205400  1
  Mn  Mn2  1  0.78308400  0.34307200  0.41205400  1
  Mn  Mn3  1  0.78308400  0.34307200  0.08794600  1
  Si  Si0  1  0.44133300  0.66839300  0.13785100  1
  Si  Si1  1  0.44133300  0.66839300  0.36214900  1
  Si  Si2  1  0.66839300  0.44133300  0.63785100  1
  Si  Si3  1  0.66839300  0.44133300  0.86214900  1
  O  O0  1  0.14698300  0.32989400  0.12276900  1
  O  O1  1  0.14698300  0.32989400  0.37723100  1
  O  O2  1  0.43483600  0.80336300  0.25000000  1
  O  O3  1  0.68532000  0.75320000  0.86693600  1
  O  O4  1  0.68532000  0.75320000  0.63306400  1
  O  O5  1  0.44433500  0.90486100  0.06067100  1
  O  O6  1  0.44433500  0.90486100  0.43932900  1
  O  O7  1  0.32989400  0.14698300  0.87723100  1
  O  O8  1  0.32989400  0.14698300  0.62276900  1
  O  O9  1  0.80336300  0.43483600  0.75000000  1
  O  O10  1  0.75320000  0.68532000  0.36693600  1
  O  O11  1  0.75320000  0.68532000  0.13306400  1
  O  O12  1  0.90486100  0.44433500  0.56067100  1
  O  O13  1  0.90486100  0.44433500  0.93932900  1
loop_
_geom_bond_atom_site_label_1
_geom_bond_atom_site_label_2
_geom_bond_distance
_geom_bond_site_symmetry_2
Li0 O0 2.185914 1_555
Li0 O7 2.185914 1_554
Li0 O11 2.365945 1_445
Li0 O3 2.365945 1_444
Li1 O1 2.185914 1_555
Li1 O8 2.185914 1_555
Li1 O4 2.365945 1_445
Li1 O10 2.365945 1_445
Li2 O10 2.120216 1_455
Li2 O11 2.120216 1_455
Li2 O1 2.332442 1_565
Li2 O0 2.332442 1_565
Li3 O3 2.120216 1_545
Li3 O4 2.120216 1_545
Li3 O8 2.332442 1_655
Li3 O7 2.332442 1_655
Mn0 O4 2.050275 1_555
Mn0 O12 2.067153 1_455
Mn0 O8 2.074883 1_565
Mn0 O6 2.080464 1_555
Mn1 O3 2.050275 1_555
Mn1 O13 2.067153 1_455
Mn1 O7 2.074883 1_565
Mn1 O5 2.080464 1_556
Mn2 O10 2.050275 1_555
Mn2 O6 2.067153 1_545
Mn2 O1 2.074883 1_655
Mn2 O12 2.080464 1_555
Mn3 O11 2.050275 1_555
Mn3 O5 2.067153 1_545
Mn3 O0 2.074883 1_655
Mn3 O13 2.080464 1_554
O0 Si0 1.637098 1_555
O1 Si1 1.637098 1_555
O2 Si1 1.686885 1_555
O2 Si0 1.686885 1_555
O3 Si3 1.648194 1_555
O4 Si2 1.648194 1_555
O5 Si0 1.646225 1_555
O6 Si1 1.646225 1_555
O7 Si3 1.637098 1_555
O8 Si2 1.637098 1_555
O9 Si3 1.686885 1_555
O9 Si2 1.686885 1_555
O10 Si1 1.648194 1_555
O11 Si0 1.648194 1_555
O12 Si2 1.646225 1_555
O13 Si3 1.646225 1_555
