# generated using pymatgen
data_Li3CuPO5
_symmetry_space_group_name_H-M   'P 1'
_cell_length_a   5.02822800
_cell_length_b   5.35379200
_cell_length_c   15.78701800
_cell_angle_alpha   90.00000000
_cell_angle_beta   90.00000000
_cell_angle_gamma   90.00000000
_symmetry_Int_Tables_number   1
_chemical_formula_structural   Li3CuPO5
_chemical_formula_sum   'Li12 Cu4 P4 O20'
_cell_volume   424.98789551
_cell_formula_units_Z   4
loop_
 _symmetry_equiv_pos_site_id
 _symmetry_equiv_pos_as_xyz
  1  'x, y, z'
loop_
 _atom_site_type_symbol
 _atom_site_label
 _atom_site_symmetry_multiplicity
 _atom_site_fract_x
 _atom_site_fract_y
 _atom_site_fract_z
 _atom_site_occupancy
  Li  Li0  1  0.00165400  0.66332300  0.59625900  1
  Li  Li1  1  0.00165400  0.16332300  0.90374100  1
  Li  Li2  1  0.50087800  0.32963300  0.99800700  1
  Li  Li3  1  0.50087800  0.82963300  0.50199300  1
  Li  Li4  1  0.49749000  0.33332700  0.80029200  1
  Li  Li5  1  0.49749000  0.83332700  0.69970800  1
  Li  Li6  1  0.50165400  0.33667700  0.40374100  1
  Li  Li7  1  0.50165400  0.83667700  0.09625900  1
  Li  Li8  1  0.00087800  0.67036700  0.00199300  1
  Li  Li9  1  0.00087800  0.17036700  0.49800700  1
  Li  Li10  1  0.99749000  0.16667300  0.30029200  1
  Li  Li11  1  0.99749000  0.66667300  0.19970800  1
  Cu  Cu0  1  0.00854200  0.16566400  0.70612700  1
  Cu  Cu1  1  0.00854200  0.66566400  0.79387300  1
  Cu  Cu2  1  0.50854200  0.33433600  0.20612700  1
  Cu  Cu3  1  0.50854200  0.83433600  0.29387300  1
  P  P0  1  0.99720100  0.16401400  0.09784500  1
  P  P1  1  0.99720100  0.66401400  0.40215500  1
  P  P2  1  0.49720100  0.33598600  0.59784500  1
  P  P3  1  0.49720100  0.83598600  0.90215500  1
  O  O0  1  0.10880600  0.33579400  0.80361700  1
  O  O1  1  0.10880600  0.83579400  0.69638300  1
  O  O2  1  0.09985500  0.39083700  0.40118900  1
  O  O3  1  0.09985500  0.89083700  0.09881100  1
  O  O4  1  0.10324600  0.30877200  0.01886700  1
  O  O5  1  0.10324600  0.80877200  0.48113300  1
  O  O6  1  0.09179700  0.29926000  0.18071200  1
  O  O7  1  0.09179700  0.79926000  0.31928800  1
  O  O8  1  0.18553100  0.33225500  0.59560700  1
  O  O9  1  0.18553100  0.83225500  0.90439300  1
  O  O10  1  0.60880600  0.16420600  0.30361700  1
  O  O11  1  0.60880600  0.66420600  0.19638300  1
  O  O12  1  0.59985500  0.60916300  0.59881100  1
  O  O13  1  0.59985500  0.10916300  0.90118900  1
  O  O14  1  0.60324600  0.19122800  0.51886700  1
  O  O15  1  0.60324600  0.69122800  0.98113300  1
  O  O16  1  0.59179700  0.20074000  0.68071200  1
  O  O17  1  0.59179700  0.70074000  0.81928800  1
  O  O18  1  0.68553100  0.16774500  0.09560700  1
  O  O19  1  0.68553100  0.66774500  0.40439300  1
loop_
_geom_bond_atom_site_label_1
_geom_bond_atom_site_label_2
_geom_bond_distance
_geom_bond_site_symmetry_2
Li0 O1 1.908243 1_555
Li0 O8 1.999148 1_555
Li0 O12 2.041436 1_455
Li0 O5 2.042209 1_555
Li1 O0 1.908243 1_555
Li1 O9 1.999148 1_545
Li1 O13 2.041436 1_455
Li1 O4 2.042209 1_556
Li2 O13 1.994273 1_555
Li2 O18 1.996840 1_556
Li2 O15 2.020801 1_555
Li2 O4 2.029399 1_556
Li3 O12 1.994273 1_555
Li3 O19 1.996840 1_555
Li3 O14 2.020801 1_565
Li3 O5 2.029399 1_555
Li4 O0 1.955141 1_555
Li4 O17 2.045506 1_555
Li4 O13 2.059721 1_555
Li4 O16 2.071853 1_555
Li5 O1 1.955141 1_555
Li5 O16 2.045506 1_565
Li5 O12 2.059721 1_555
Li5 O17 2.071853 1_555
Li6 O10 1.908243 1_555
Li6 O19 1.999148 1_555
Li6 O2 2.041436 1_555
Li6 O14 2.042209 1_555
Li7 O11 1.908243 1_555
Li7 O18 1.999148 1_565
Li7 O3 2.041436 1_555
Li7 O15 2.042209 1_554
Li8 O3 1.994273 1_555
Li8 O9 1.996840 1_554
Li8 O4 2.020801 1_555
Li8 O15 2.029399 1_454
Li9 O2 1.994273 1_555
Li9 O8 1.996840 1_555
Li9 O5 2.020801 1_545
Li9 O14 2.029399 1_455
Li10 O10 1.955141 1_555
Li10 O7 2.045506 1_645
Li10 O2 2.059721 1_655
Li10 O6 2.071853 1_655
Li11 O11 1.955141 1_555
Li11 O6 2.045506 1_655
Li11 O3 2.059721 1_655
Li11 O7 2.071853 1_655
Cu0 O1 1.843036 1_545
Cu0 O0 1.858105 1_555
Cu0 O16 2.141803 1_455
Cu0 O8 2.152146 1_555
Cu1 O0 1.843036 1_555
Cu1 O1 1.858105 1_555
Cu1 O17 2.141803 1_455
Cu1 O9 2.152146 1_555
Cu2 O11 1.843036 1_555
Cu2 O10 1.858105 1_555
Cu2 O6 2.141803 1_555
Cu2 O18 2.152146 1_555
Cu3 O10 1.843036 1_565
Cu3 O11 1.858105 1_555
Cu3 O7 2.141803 1_555
Cu3 O19 2.152146 1_555
O2 P1 1.551020 1_455
O3 P0 1.551020 1_465
O4 P0 1.561900 1_455
O5 P1 1.561900 1_455
O6 P0 1.569070 1_455
O7 P1 1.569070 1_455
O8 P2 1.567673 1_555
O9 P3 1.567673 1_555
O12 P2 1.551020 1_555
O13 P3 1.551020 1_545
O14 P2 1.561900 1_555
O15 P3 1.561900 1_555
O16 P2 1.569070 1_555
O17 P3 1.569070 1_555
O18 P0 1.567673 1_555
O19 P1 1.567673 1_555
