# generated using pymatgen
data_Na3SbS4O9
_symmetry_space_group_name_H-M   'P 1'
_cell_length_a   11.19643600
_cell_length_b   11.19643600
_cell_length_c   11.19643600
_cell_angle_alpha   90.00000000
_cell_angle_beta   90.00000000
_cell_angle_gamma   90.00000000
_symmetry_Int_Tables_number   1
_chemical_formula_structural   Na3SbS4O9
_chemical_formula_sum   'Na12 Sb4 S16 O36'
_cell_volume   1403.58722227
_cell_formula_units_Z   4
loop_
 _symmetry_equiv_pos_site_id
 _symmetry_equiv_pos_as_xyz
  1  'x, y, z'
loop_
 _atom_site_type_symbol
 _atom_site_label
 _atom_site_symmetry_multiplicity
 _atom_site_fract_x
 _atom_site_fract_y
 _atom_site_fract_z
 _atom_site_occupancy
  Na  Na0  1  0.26054900  0.76054900  0.73945100  1
  Na  Na1  1  0.76054900  0.73945100  0.26054900  1
  Na  Na2  1  0.73945100  0.26054900  0.76054900  1
  Na  Na3  1  0.23945100  0.23945100  0.23945100  1
  Na  Na4  1  0.09275500  0.59275500  0.90724500  1
  Na  Na5  1  0.59275500  0.90724500  0.09275500  1
  Na  Na6  1  0.90724500  0.09275500  0.59275500  1
  Na  Na7  1  0.40724500  0.40724500  0.40724500  1
  Na  Na8  1  0.89342500  0.39342500  0.10657500  1
  Na  Na9  1  0.39342500  0.10657500  0.89342500  1
  Na  Na10  1  0.10657500  0.89342500  0.39342500  1
  Na  Na11  1  0.60657500  0.60657500  0.60657500  1
  Sb  Sb0  1  0.51834300  0.01834300  0.48165700  1
  Sb  Sb1  1  0.01834300  0.48165700  0.51834300  1
  Sb  Sb2  1  0.48165700  0.51834300  0.01834300  1
  Sb  Sb3  1  0.98165700  0.98165700  0.98165700  1
  S  S0  1  0.63384300  0.13384300  0.36615700  1
  S  S1  1  0.13384300  0.36615700  0.63384300  1
  S  S2  1  0.36615700  0.63384300  0.13384300  1
  S  S3  1  0.86615700  0.86615700  0.86615700  1
  S  S4  1  0.62042100  0.01452200  0.74294800  1
  S  S5  1  0.25705200  0.12042100  0.48547800  1
  S  S6  1  0.51452200  0.75705200  0.37957900  1
  S  S7  1  0.12042100  0.48547800  0.25705200  1
  S  S8  1  0.75705200  0.37957900  0.51452200  1
  S  S9  1  0.01452200  0.74294800  0.62042100  1
  S  S10  1  0.37957900  0.51452200  0.75705200  1
  S  S11  1  0.74294800  0.62042100  0.01452200  1
  S  S12  1  0.48547800  0.25705200  0.12042100  1
  S  S13  1  0.87957900  0.98547800  0.24294800  1
  S  S14  1  0.24294800  0.87957900  0.98547800  1
  S  S15  1  0.98547800  0.24294800  0.87957900  1
  O  O0  1  0.59773300  0.10296200  0.84181900  1
  O  O1  1  0.15818100  0.09773300  0.39703800  1
  O  O2  1  0.60296200  0.65818100  0.40226700  1
  O  O3  1  0.09773300  0.39703800  0.15818100  1
  O  O4  1  0.65818100  0.40226700  0.60296200  1
  O  O5  1  0.10296200  0.84181900  0.59773300  1
  O  O6  1  0.40226700  0.60296200  0.65818100  1
  O  O7  1  0.84181900  0.59773300  0.10296200  1
  O  O8  1  0.39703800  0.15818100  0.09773300  1
  O  O9  1  0.90226700  0.89703800  0.34181900  1
  O  O10  1  0.34181900  0.90226700  0.89703800  1
  O  O11  1  0.89703800  0.34181900  0.90226700  1
  O  O12  1  0.55864700  0.83536600  0.28062400  1
  O  O13  1  0.71937600  0.05864700  0.66463400  1
  O  O14  1  0.33536600  0.21937600  0.44135300  1
  O  O15  1  0.05864700  0.66463400  0.71937600  1
  O  O16  1  0.21937600  0.44135300  0.33536600  1
  O  O17  1  0.83536600  0.28062400  0.55864700  1
  O  O18  1  0.44135300  0.33536600  0.21937600  1
  O  O19  1  0.28062400  0.55864700  0.83536600  1
  O  O20  1  0.66463400  0.71937600  0.05864700  1
  O  O21  1  0.94135300  0.16463400  0.78062400  1
  O  O22  1  0.78062400  0.94135300  0.16463400  1
  O  O23  1  0.16463400  0.78062400  0.94135300  1
  O  O24  1  0.15382500  0.00271000  0.94967900  1
  O  O25  1  0.05032100  0.65382500  0.49729000  1
  O  O26  1  0.50271000  0.55032100  0.84617500  1
  O  O27  1  0.65382500  0.49729000  0.05032100  1
  O  O28  1  0.55032100  0.84617500  0.50271000  1
  O  O29  1  0.00271000  0.94967900  0.15382500  1
  O  O30  1  0.84617500  0.50271000  0.55032100  1
  O  O31  1  0.94967900  0.15382500  0.00271000  1
  O  O32  1  0.49729000  0.05032100  0.65382500  1
  O  O33  1  0.34617500  0.99729000  0.44967900  1
  O  O34  1  0.44967900  0.34617500  0.99729000  1
  O  O35  1  0.99729000  0.44967900  0.34617500  1
loop_
_geom_bond_atom_site_label_1
_geom_bond_atom_site_label_2
_geom_bond_distance
_geom_bond_site_symmetry_2
Na0 O15 2.512773 1_555
Na0 O23 2.512773 1_555
Na0 O19 2.512773 1_555
Na0 O5 2.541430 1_555
Na0 O6 2.541430 1_555
Na0 O10 2.541430 1_555
Na1 O20 2.512773 1_555
Na1 O22 2.512773 1_555
Na1 O12 2.512773 1_555
Na1 O7 2.541430 1_555
Na1 O2 2.541430 1_555
Na1 O9 2.541430 1_555
Na2 O13 2.512773 1_555
Na2 O21 2.512773 1_555
Na2 O17 2.512773 1_555
Na2 O0 2.541430 1_555
Na2 O4 2.541430 1_555
Na2 O11 2.541430 1_555
Na3 O18 2.512773 1_555
Na3 O14 2.512773 1_555
Na3 O16 2.512773 1_555
Na3 O3 2.541430 1_555
Na3 O1 2.541430 1_555
Na3 O8 2.541430 1_555
Na4 O15 2.284312 1_555
Na4 O19 2.284312 1_555
Na4 O23 2.284312 1_555
Na5 O20 2.284312 1_555
Na5 O12 2.284312 1_555
Na5 O22 2.284312 1_555
Na6 O13 2.284312 1_555
Na6 O17 2.284312 1_555
Na6 O21 2.284312 1_555
Na7 O18 2.284312 1_555
Na7 O14 2.284312 1_555
Na7 O16 2.284312 1_555
Na8 O7 2.359713 1_555
Na8 O11 2.359713 1_554
Na8 O3 2.359713 1_655
Na9 O0 2.359713 1_555
Na9 O10 2.359713 1_545
Na9 O8 2.359713 1_556
Na10 O5 2.359713 1_555
Na10 O9 2.359713 1_455
Na10 O1 2.359713 1_565
Na11 O2 2.359713 1_555
Na11 O4 2.359713 1_555
Na11 O6 2.359713 1_555
S0 Sb0 2.239868 1_555
S1 Sb1 2.239868 1_555
S2 Sb2 2.239868 1_555
S3 Sb3 2.239868 1_555
O0 S4 1.506820 1_555
O1 S5 1.506820 1_555
O2 S6 1.506820 1_555
O3 S7 1.506820 1_555
O4 S8 1.506820 1_555
O5 S9 1.506820 1_555
O6 S10 1.506820 1_555
O7 S11 1.506820 1_555
O8 S12 1.506820 1_555
O9 S13 1.506820 1_555
O10 S14 1.506820 1_555
O11 S15 1.506820 1_555
O12 S6 1.496817 1_555
O13 S4 1.496817 1_555
O14 S5 1.496817 1_555
O15 S9 1.496817 1_555
O16 S7 1.496817 1_555
O17 S8 1.496817 1_555
O18 S12 1.496817 1_555
O19 S10 1.496817 1_555
O20 S11 1.496817 1_555
O21 S15 1.496817 1_555
O22 S13 1.496817 1_555
O23 S14 1.496817 1_555
O24 S14 1.748427 1_545
O24 Sb3 1.974756 1_445
O25 S9 1.748427 1_555
O25 Sb1 1.974756 1_555
O26 S10 1.748427 1_555
O26 Sb2 1.974756 1_556
O27 S11 1.748427 1_555
O27 Sb2 1.974756 1_555
O28 S6 1.748427 1_555
O28 Sb0 1.974756 1_565
O29 S13 1.748427 1_455
O29 Sb3 1.974756 1_454
O30 S8 1.748427 1_555
O30 Sb1 1.974756 1_655
O31 S15 1.748427 1_554
O31 Sb3 1.974756 1_544
O32 S4 1.748427 1_555
O32 Sb0 1.974756 1_555
O33 S5 1.748427 1_565
O33 Sb0 1.974756 1_565
O34 S12 1.748427 1_556
O34 Sb2 1.974756 1_556
O35 S7 1.748427 1_655
O35 Sb1 1.974756 1_655
