# generated using pymatgen
data_V4(OF3)3
_symmetry_space_group_name_H-M   'P 1'
_cell_length_a   5.28776900
_cell_length_b   7.20503413
_cell_length_c   5.49268879
_cell_angle_alpha   92.78757792
_cell_angle_beta   90.00000000
_cell_angle_gamma   90.00000000
_symmetry_Int_Tables_number   1
_chemical_formula_structural   V4(OF3)3
_chemical_formula_sum   'V4 O3 F9'
_cell_volume   209.01589151
_cell_formula_units_Z   1
loop_
 _symmetry_equiv_pos_site_id
 _symmetry_equiv_pos_as_xyz
  1  'x, y, z'
loop_
 _atom_site_type_symbol
 _atom_site_label
 _atom_site_symmetry_multiplicity
 _atom_site_fract_x
 _atom_site_fract_y
 _atom_site_fract_z
 _atom_site_occupancy
  V  V0  1  0.50099400  0.49951600  0.50007300  1
  V  V1  1  0.50099400  0.00048400  0.49992700  1
  V  V2  1  0.00488100  0.50995400  0.99978300  1
  V  V3  1  0.00488100  0.99004600  0.00021700  1
  O  O0  1  0.57177500  0.25000000  0.50000000  1
  O  O1  1  0.42812400  0.75000000  0.50000000  1
  O  O2  1  0.08744500  0.75000000  0.00000000  1
  F  F0  1  0.90044800  0.25000000  0.00000000  1
  F  F1  1  0.80293200  0.54502900  0.30496400  1
  F  F2  1  0.80293200  0.95497100  0.69503600  1
  F  F3  1  0.69809800  0.95369600  0.19648600  1
  F  F4  1  0.69809800  0.54630400  0.80351400  1
  F  F5  1  0.30116000  0.44798200  0.19699400  1
  F  F6  1  0.30116000  0.05201800  0.80300600  1
  F  F7  1  0.19803900  0.05025600  0.30397500  1
  F  F8  1  0.19803900  0.44974400  0.69602500  1
loop_
_geom_bond_atom_site_label_1
_geom_bond_atom_site_label_2
_geom_bond_distance
_geom_bond_site_symmetry_2
O0 V0 1.836299 1_555
O0 V1 1.836299 1_555
O1 V1 1.845440 1_565
O1 V0 1.845440 1_555
O2 V3 1.783735 1_555
O2 V2 1.783735 1_554
F0 V2 1.952744 1_654
F0 V3 1.952744 1_645
F1 V0 1.959403 1_555
F1 V2 1.993200 1_654
F2 V1 1.959403 1_565
F2 V3 1.993200 1_656
F3 V3 1.972248 1_655
F3 V1 1.980699 1_565
F4 V2 1.972248 1_655
F4 V0 1.980699 1_555
F5 V2 1.968295 1_554
F5 V0 1.991381 1_555
F6 V3 1.968295 1_546
F6 V1 1.991381 1_555
F7 V1 1.972520 1_555
F7 V3 1.986132 1_545
F8 V0 1.972520 1_555
F8 V2 1.986132 1_555
