# generated using pymatgen
data_Ba2La2Fe2Cu2O11
_symmetry_space_group_name_H-M   'P 1'
_cell_length_a   5.60291200
_cell_length_b   5.60291200
_cell_length_c   16.00790700
_cell_angle_alpha   90.00000000
_cell_angle_beta   90.00000000
_cell_angle_gamma   90.00000000
_symmetry_Int_Tables_number   1
_chemical_formula_structural   Ba2La2Fe2Cu2O11
_chemical_formula_sum   'Ba4 La4 Fe4 Cu4 O22'
_cell_volume   502.53018755
_cell_formula_units_Z   2
loop_
 _symmetry_equiv_pos_site_id
 _symmetry_equiv_pos_as_xyz
  1  'x, y, z'
loop_
 _atom_site_type_symbol
 _atom_site_label
 _atom_site_symmetry_multiplicity
 _atom_site_fract_x
 _atom_site_fract_y
 _atom_site_fract_z
 _atom_site_occupancy
  Ba  Ba0  1  0.50000000  0.00000000  0.62127600  1
  Ba  Ba1  1  0.00000000  0.50000000  0.87374500  1
  Ba  Ba2  1  0.00000000  0.50000000  0.62127600  1
  Ba  Ba3  1  0.50000000  0.00000000  0.87374500  1
  La  La0  1  0.50000000  0.00000000  0.12295600  1
  La  La1  1  0.00000000  0.50000000  0.37059500  1
  La  La2  1  0.00000000  0.50000000  0.12295600  1
  La  La3  1  0.50000000  0.00000000  0.37059500  1
  Fe  Fe0  1  0.00000000  0.00000000  0.25215300  1
  Fe  Fe1  1  0.50000000  0.50000000  0.48126700  1
  Fe  Fe2  1  0.00000000  0.00000000  0.73410000  1
  Fe  Fe3  1  0.50000000  0.50000000  0.00355300  1
  Cu  Cu0  1  0.50000000  0.50000000  0.24696700  1
  Cu  Cu1  1  0.00000000  0.00000000  0.49560200  1
  Cu  Cu2  1  0.50000000  0.50000000  0.76179400  1
  Cu  Cu3  1  0.00000000  0.00000000  0.01076700  1
  O  O0  1  0.50000000  0.50000000  0.12538200  1
  O  O1  1  0.24734500  0.75265500  0.25274300  1
  O  O2  1  0.24734500  0.24734500  0.25274300  1
  O  O3  1  0.00000000  0.00000000  0.37249000  1
  O  O4  1  0.00000000  0.00000000  0.13579400  1
  O  O5  1  0.75265500  0.75265500  0.25274300  1
  O  O6  1  0.75265500  0.24734500  0.25274300  1
  O  O7  1  0.74136400  0.25863600  0.49021300  1
  O  O8  1  0.74136400  0.74136400  0.49021300  1
  O  O9  1  0.50000000  0.50000000  0.36593500  1
  O  O10  1  0.25863600  0.25863600  0.49021300  1
  O  O11  1  0.25863600  0.74136400  0.49021300  1
  O  O12  1  0.24674700  0.75325300  0.75202100  1
  O  O13  1  0.24674700  0.24674700  0.75202100  1
  O  O14  1  0.00000000  0.00000000  0.61783500  1
  O  O15  1  0.75325300  0.75325300  0.75202100  1
  O  O16  1  0.75325300  0.24674700  0.75202100  1
  O  O17  1  0.75465200  0.24534900  0.01323000  1
  O  O18  1  0.75465200  0.75465200  0.01323000  1
  O  O19  1  0.50000000  0.50000000  0.88704700  1
  O  O20  1  0.24534900  0.24534800  0.01323000  1
  O  O21  1  0.24534800  0.75465200  0.01323000  1
loop_
_geom_bond_atom_site_label_1
_geom_bond_atom_site_label_2
_geom_bond_distance
_geom_bond_site_symmetry_2
Ba0 O14 2.801997 1_555
Ba0 O14 2.801997 1_655
Ba0 O13 2.881874 1_555
Ba0 O16 2.881874 1_555
Ba0 O15 2.881874 1_545
Ba0 O12 2.881874 1_545
Ba0 O7 2.886269 1_555
Ba0 O10 2.886269 1_555
Ba0 O8 2.886269 1_545
Ba0 O11 2.886269 1_545
Ba1 O12 2.778772 1_555
Ba1 O16 2.778772 1_455
Ba1 O13 2.778772 1_555
Ba1 O15 2.778772 1_455
Ba1 O19 2.809537 1_455
Ba1 O19 2.809537 1_555
Ba1 O17 2.985146 1_456
Ba1 O21 2.985149 1_556
Ba1 O18 2.985149 1_456
Ba1 O20 2.985151 1_556
Ba2 O14 2.801997 1_555
Ba2 O14 2.801997 1_565
Ba2 O13 2.881874 1_555
Ba2 O12 2.881874 1_555
Ba2 O15 2.881874 1_455
Ba2 O16 2.881874 1_455
Ba2 O11 2.886269 1_555
Ba2 O10 2.886269 1_555
Ba2 O8 2.886269 1_455
Ba2 O7 2.886269 1_455
Ba3 O15 2.778772 1_545
Ba3 O16 2.778772 1_555
Ba3 O13 2.778772 1_555
Ba3 O12 2.778772 1_545
Ba3 O19 2.809537 1_555
Ba3 O19 2.809537 1_545
Ba3 O20 2.985146 1_556
Ba3 O18 2.985149 1_546
Ba3 O21 2.985149 1_546
Ba3 O17 2.985151 1_556
La0 O20 2.647764 1_555
La0 O18 2.647767 1_545
La0 O21 2.647767 1_545
La0 O17 2.647770 1_555
La0 O0 2.801725 1_555
La0 O0 2.801725 1_545
La0 O4 2.808984 1_555
La0 O4 2.808984 1_655
La0 O6 2.870717 1_555
La0 O5 2.870717 1_545
La0 O2 2.870717 1_555
La0 O1 2.870717 1_545
La1 O1 2.735625 1_555
La1 O2 2.735625 1_555
La1 O5 2.735625 1_455
La1 O6 2.735625 1_455
La1 O11 2.755966 1_555
La1 O10 2.755966 1_555
La1 O8 2.755966 1_455
La1 O7 2.755966 1_455
La1 O3 2.801620 1_555
La1 O3 2.801620 1_565
La1 O9 2.802449 1_455
La1 O9 2.802449 1_555
La2 O17 2.647764 1_455
La2 O21 2.647767 1_555
La2 O18 2.647767 1_455
La2 O20 2.647770 1_555
La2 O0 2.801725 1_455
La2 O0 2.801725 1_555
La2 O4 2.808984 1_555
La2 O4 2.808984 1_565
La2 O1 2.870717 1_555
La2 O5 2.870717 1_455
La2 O2 2.870717 1_555
La2 O6 2.870717 1_455
La3 O6 2.735625 1_555
La3 O2 2.735625 1_555
La3 O5 2.735625 1_545
La3 O1 2.735625 1_545
La3 O7 2.755966 1_555
La3 O10 2.755966 1_555
La3 O8 2.755966 1_545
La3 O11 2.755966 1_545
La3 O3 2.801620 1_555
La3 O3 2.801620 1_655
La3 O9 2.802449 1_545
La3 O9 2.802449 1_555
Fe0 O4 1.862664 1_555
Fe0 O3 1.926344 1_555
Fe0 O2 1.959914 1_555
Fe0 O6 1.959914 1_455
Fe0 O1 1.959914 1_545
Fe0 O5 1.959914 1_445
Fe1 O9 1.846224 1_555
Fe1 O8 1.917853 1_555
Fe1 O11 1.917853 1_555
Fe1 O7 1.917853 1_555
Fe1 O10 1.917853 1_555
Fe2 O14 1.861159 1_555
Fe2 O13 1.976087 1_555
Fe2 O16 1.976087 1_455
Fe2 O12 1.976087 1_545
Fe2 O15 1.976087 1_445
Fe3 O19 1.865017 1_554
Fe3 O0 1.950227 1_555
Fe3 O17 2.023723 1_555
Fe3 O20 2.023723 1_555
Fe3 O18 2.023727 1_555
Fe3 O21 2.023727 1_555
Cu0 O9 1.904429 1_555
Cu0 O0 1.946321 1_555
Cu0 O5 2.004100 1_555
Cu0 O1 2.004100 1_555
Cu0 O6 2.004100 1_555
Cu0 O2 2.004100 1_555
Cu1 O14 1.956694 1_555
Cu1 O3 1.970765 1_555
Cu1 O10 2.051173 1_555
Cu1 O7 2.051173 1_455
Cu1 O11 2.051173 1_545
Cu1 O8 2.051173 1_445
Cu2 O19 2.005038 1_555
Cu2 O15 2.012793 1_555
Cu2 O12 2.012793 1_555
Cu2 O16 2.012793 1_555
Cu2 O13 2.012793 1_555
Cu3 O21 1.944467 1_545
Cu3 O18 1.944467 1_445
Cu3 O20 1.944471 1_555
Cu3 O17 1.944471 1_455
Cu3 O4 2.001421 1_555
