# generated using pymatgen
data_Ag2As3S6N
_symmetry_space_group_name_H-M   'P 1'
_cell_length_a   7.28843200
_cell_length_b   9.75456700
_cell_length_c   19.30447517
_cell_angle_alpha   61.06818403
_cell_angle_beta   90.00000000
_cell_angle_gamma   90.00000000
_symmetry_Int_Tables_number   1
_chemical_formula_structural   Ag2As3S6N
_chemical_formula_sum   'Ag8 As12 S24 N4'
_cell_volume   1201.17266235
_cell_formula_units_Z   4
loop_
 _symmetry_equiv_pos_site_id
 _symmetry_equiv_pos_as_xyz
  1  'x, y, z'
loop_
 _atom_site_type_symbol
 _atom_site_label
 _atom_site_symmetry_multiplicity
 _atom_site_fract_x
 _atom_site_fract_y
 _atom_site_fract_z
 _atom_site_occupancy
  Ag  Ag0  1  0.98069800  0.15818200  0.00095800  1
  Ag  Ag1  1  0.51930200  0.15818200  0.50095800  1
  Ag  Ag2  1  0.01930200  0.84181800  0.99904200  1
  Ag  Ag3  1  0.48069800  0.84181800  0.49904200  1
  Ag  Ag4  1  0.46470900  0.12494700  0.89983300  1
  Ag  Ag5  1  0.03529100  0.12494700  0.39983300  1
  Ag  Ag6  1  0.53529100  0.87505300  0.10016700  1
  Ag  Ag7  1  0.96470900  0.87505300  0.60016700  1
  As  As0  1  0.40062400  0.45260200  0.91520900  1
  As  As1  1  0.09937600  0.45260200  0.41520900  1
  As  As2  1  0.59937600  0.54739800  0.08479100  1
  As  As3  1  0.90062400  0.54739800  0.58479100  1
  As  As4  1  0.38395100  0.70577500  0.72077700  1
  As  As5  1  0.11604900  0.70577500  0.22077700  1
  As  As6  1  0.61604900  0.29422500  0.27922300  1
  As  As7  1  0.88395100  0.29422500  0.77922300  1
  As  As8  1  0.34621000  0.83237100  0.85244100  1
  As  As9  1  0.15379000  0.83237100  0.35244100  1
  As  As10  1  0.65379000  0.16762900  0.14755900  1
  As  As11  1  0.84621000  0.16762900  0.64755900  1
  S  S0  1  0.31266500  0.20414900  0.00255100  1
  S  S1  1  0.18733500  0.20414900  0.50255100  1
  S  S2  1  0.68733500  0.79585100  0.99744900  1
  S  S3  1  0.81266500  0.79585100  0.49744900  1
  S  S4  1  0.25105600  0.73478800  0.60951000  1
  S  S5  1  0.24894400  0.73478800  0.10951000  1
  S  S6  1  0.74894400  0.26521200  0.39049000  1
  S  S7  1  0.75105600  0.26521200  0.89049000  1
  S  S8  1  0.19570800  0.00837900  0.87292300  1
  S  S9  1  0.30429200  0.00837900  0.37292300  1
  S  S10  1  0.80429200  0.99162100  0.12707700  1
  S  S11  1  0.69570800  0.99162100  0.62707700  1
  S  S12  1  0.24269400  0.47124300  0.80811100  1
  S  S13  1  0.25730600  0.47124300  0.30811100  1
  S  S14  1  0.75730600  0.52875700  0.19188900  1
  S  S15  1  0.74269400  0.52875700  0.69188900  1
  S  S16  1  0.19543500  0.88094200  0.73533700  1
  S  S17  1  0.30456500  0.88094200  0.23533700  1
  S  S18  1  0.80456500  0.11905800  0.26466300  1
  S  S19  1  0.69543500  0.11905800  0.76466300  1
  S  S20  1  0.21273900  0.60586600  0.94959700  1
  S  S21  1  0.28726100  0.60586600  0.44959700  1
  S  S22  1  0.78726100  0.39413400  0.05040300  1
  S  S23  1  0.71273900  0.39413400  0.55040300  1
  N  N0  1  0.69297500  0.67719600  0.33500200  1
  N  N1  1  0.80702500  0.67719600  0.83500200  1
  N  N2  1  0.30702500  0.32280400  0.66499800  1
  N  N3  1  0.19297500  0.32280400  0.16499800  1
loop_
_geom_bond_atom_site_label_1
_geom_bond_atom_site_label_2
_geom_bond_distance
_geom_bond_site_symmetry_2
Ag0 S0 2.463617 1_655
Ag0 S7 2.506970 1_554
Ag0 S10 2.528468 1_545
Ag1 S1 2.463617 1_555
Ag1 S6 2.506970 1_555
Ag1 S11 2.528468 1_545
Ag2 S2 2.463617 1_455
Ag2 S5 2.506970 1_556
Ag2 S8 2.528468 1_565
Ag3 S3 2.463617 1_555
Ag3 S4 2.506970 1_555
Ag3 S9 2.528468 1_565
Ag4 S8 2.445044 1_555
Ag4 S7 2.453866 1_555
Ag4 S0 2.690557 1_556
Ag4 S19 3.128115 1_555
Ag5 S9 2.445044 1_555
Ag5 S6 2.453866 1_455
Ag5 S1 2.690557 1_555
Ag5 S18 3.128115 1_455
Ag6 S10 2.445044 1_555
Ag6 S5 2.453866 1_555
Ag6 S2 2.690557 1_554
Ag6 S17 3.128115 1_555
Ag7 S11 2.445044 1_555
Ag7 S4 2.453866 1_655
Ag7 S3 2.690557 1_555
Ag7 S16 3.128115 1_655
As0 S0 2.274603 1_556
As0 S12 2.295367 1_555
As0 S20 2.347604 1_555
As1 S1 2.274603 1_555
As1 S13 2.295367 1_555
As1 S21 2.347604 1_555
As2 S2 2.274603 1_554
As2 S14 2.295367 1_555
As2 S22 2.347604 1_555
As3 S3 2.274603 1_555
As3 S15 2.295367 1_555
As3 S23 2.347604 1_555
As4 S4 2.245843 1_555
As4 S16 2.313243 1_555
As4 S12 2.324731 1_555
As5 S5 2.245843 1_555
As5 S17 2.313243 1_555
As5 S13 2.324731 1_555
As6 S6 2.245843 1_555
As6 S18 2.313243 1_555
As6 S14 2.324731 1_555
As7 S7 2.245843 1_555
As7 S19 2.313243 1_555
As7 S15 2.324731 1_555
As8 S8 2.228019 1_565
As8 S20 2.310041 1_555
As8 S16 2.346540 1_555
As9 S9 2.228019 1_565
As9 S21 2.310041 1_555
As9 S17 2.346540 1_555
As10 S10 2.228019 1_545
As10 S22 2.310041 1_555
As10 S18 2.346540 1_555
As11 S11 2.228019 1_545
As11 S23 2.310041 1_555
As11 S19 2.346540 1_555
