# generated using pymatgen
data_LiCuP4O11
_symmetry_space_group_name_H-M   'P 1'
_cell_length_a   9.57924100
_cell_length_b   9.62337542
_cell_length_c   10.90971916
_cell_angle_alpha   109.56693821
_cell_angle_beta   109.29903064
_cell_angle_gamma   89.13234146
_symmetry_Int_Tables_number   1
_chemical_formula_structural   LiCuP4O11
_chemical_formula_sum   'Li4 Cu4 P16 O44'
_cell_volume   889.20235094
_cell_formula_units_Z   4
loop_
 _symmetry_equiv_pos_site_id
 _symmetry_equiv_pos_as_xyz
  1  'x, y, z'
loop_
 _atom_site_type_symbol
 _atom_site_label
 _atom_site_symmetry_multiplicity
 _atom_site_fract_x
 _atom_site_fract_y
 _atom_site_fract_z
 _atom_site_occupancy
  Li  Li0  1  0.61323200  0.55178400  0.06144400  1
  Li  Li1  1  0.77306900  0.63423800  0.69028800  1
  Li  Li2  1  0.22411600  0.36139900  0.30559700  1
  Li  Li3  1  0.27428600  0.19215100  0.78027600  1
  Cu  Cu0  1  0.77757900  0.79301500  0.03127200  1
  Cu  Cu1  1  0.72981700  0.25056800  0.49514000  1
  Cu  Cu2  1  0.27016800  0.74608100  0.50118300  1
  Cu  Cu3  1  0.21268200  0.22900700  0.99804400  1
  P  P0  1  0.91464500  0.23844200  0.07032300  1
  P  P1  1  0.93975000  0.57600200  0.22206700  1
  P  P2  1  0.91387400  0.10644200  0.29309000  1
  P  P3  1  0.73819800  0.59387100  0.38792800  1
  P  P4  1  0.75709700  0.91425200  0.56320400  1
  P  P5  1  0.40192100  0.76536000  0.10233100  1
  P  P6  1  0.40142400  0.09167000  0.23354500  1
  P  P7  1  0.41560700  0.56583600  0.26654900  1
  P  P8  1  0.58354200  0.43616700  0.73139400  1
  P  P9  1  0.60130400  0.90561800  0.76521800  1
  P  P10  1  0.60060200  0.23102100  0.89386400  1
  P  P11  1  0.24171500  0.08397200  0.43641400  1
  P  P12  1  0.26189400  0.40904000  0.61090900  1
  P  P13  1  0.08334400  0.89103400  0.70516900  1
  P  P14  1  0.06028900  0.42275700  0.77417700  1
  P  P15  1  0.08942500  0.76226100  0.93226800  1
  O  O0  1  0.98140000  0.40819400  0.15032300  1
  O  O1  1  0.96806100  0.17573700  0.19102600  1
  O  O2  1  0.81510400  0.61248200  0.11463800  1
  O  O3  1  0.86213000  0.53668700  0.32465100  1
  O  O4  1  0.89853500  0.23633400  0.40765700  1
  O  O5  1  0.80046800  0.97800600  0.20627900  1
  O  O6  1  0.73647700  0.24136600  0.03149800  1
  O  O7  1  0.92810500  0.96082900  0.64826000  1
  O  O8  1  0.91139900  0.34066800  0.69320800  1
  O  O9  1  0.96521200  0.16927400  0.95228100  1
  O  O10  1  0.75381200  0.76990300  0.43059800  1
  O  O11  1  0.74393200  0.54280700  0.50231800  1
  O  O12  1  0.53323600  0.72815700  0.06033800  1
  O  O13  1  0.58748000  0.53977300  0.25355600  1
  O  O14  1  0.68043500  0.03082400  0.51935500  1
  O  O15  1  0.69751000  0.84932800  0.65564000  1
  O  O16  1  0.54822600  0.18017400  0.30341500  1
  O  O17  1  0.67366200  0.58317800  0.79257600  1
  O  O18  1  0.70750000  0.91232200  0.90284400  1
  O  O19  1  0.56580200  0.32498000  0.59366500  1
  O  O20  1  0.41708800  0.91551300  0.22333900  1
  O  O21  1  0.64896200  0.36386900  0.85616200  1
  O  O22  1  0.34735700  0.64233300  0.14807000  1
  O  O23  1  0.59262600  0.08424100  0.77298300  1
  O  O24  1  0.43762000  0.67097000  0.40780900  1
  O  O25  1  0.29275300  0.08652000  0.09711000  1
  O  O26  1  0.32694300  0.41738900  0.20649500  1
  O  O27  1  0.45137200  0.82345000  0.69642700  1
  O  O28  1  0.30406600  0.14531700  0.34426900  1
  O  O29  1  0.31794500  0.97059800  0.48683900  1
  O  O30  1  0.41303500  0.46564700  0.73988500  1
  O  O31  1  0.46394700  0.25969900  0.92957500  1
  O  O32  1  0.25030200  0.45227200  0.49089300  1
  O  O33  1  0.24783300  0.23083600  0.57380300  1
  O  O34  1  0.03670100  0.83179900  0.04831200  1
  O  O35  1  0.08333700  0.66849400  0.30219400  1
  O  O36  1  0.07140000  0.03874100  0.35280600  1
  O  O37  1  0.26645700  0.76307700  0.96861100  1
  O  O38  1  0.19602300  0.02260200  0.78860500  1
  O  O39  1  0.10220000  0.76236200  0.59225200  1
  O  O40  1  0.13815900  0.46673200  0.67393800  1
  O  O41  1  0.18232000  0.36486400  0.86734400  1
  O  O42  1  0.03591500  0.82506100  0.81049700  1
  O  O43  1  0.02971200  0.59059400  0.85718100  1
loop_
_geom_bond_atom_site_label_1
_geom_bond_atom_site_label_2
_geom_bond_distance
_geom_bond_site_symmetry_2
Li0 O12 1.853758 1_555
Li0 O2 1.866239 1_555
Li0 O13 2.229763 1_555
Li0 O21 2.485604 1_554
Li1 O17 1.864772 1_555
Li1 O11 1.864931 1_555
Li1 O15 2.291086 1_555
Li2 O32 1.844340 1_555
Li2 O26 1.881410 1_555
Li2 O28 2.326894 1_555
Li2 O0 2.520726 1_455
Li3 O38 1.847679 1_555
Li3 O31 1.935689 1_555
Li3 O41 1.972863 1_555
Li3 O33 2.336319 1_555
Cu0 O18 2.040695 1_554
Cu0 O5 2.078723 1_555
Cu0 O2 2.190459 1_555
Cu0 O34 2.451879 1_655
Cu0 O12 2.576051 1_555
Cu0 O17 2.583631 1_554
Cu1 O4 2.113544 1_555
Cu1 O16 2.131063 1_555
Cu1 O19 2.168704 1_555
Cu1 O8 2.180130 1_555
Cu1 O14 2.291838 1_555
Cu2 O39 2.131979 1_555
Cu2 O27 2.153465 1_555
Cu2 O24 2.164481 1_555
Cu2 O35 2.204535 1_555
Cu2 O29 2.281655 1_555
Cu3 O25 2.012327 1_556
Cu3 O41 2.188637 1_555
Cu3 O9 2.294786 1_455
Cu3 O26 2.304246 1_556
Cu3 O38 2.433176 1_555
O0 P0 1.595930 1_555
O0 P1 1.649218 1_555
O1 P0 1.561258 1_555
O1 P2 1.686378 1_555
O2 P1 1.503476 1_555
O3 P3 1.567243 1_555
O3 P1 1.670540 1_555
O4 P2 1.488509 1_555
O5 P2 1.476920 1_565
O6 P10 1.603316 1_554
O6 P0 1.619186 1_555
O7 P4 1.576170 1_555
O7 P13 1.639139 1_655
O8 P14 1.473939 1_655
O9 P0 1.471238 1_556
O10 P3 1.594435 1_555
O10 P4 1.627491 1_555
O11 P3 1.471922 1_555
O12 P5 1.475733 1_555
O13 P3 1.617743 1_555
O13 P7 1.706347 1_555
O14 P4 1.459078 1_545
O15 P4 1.595763 1_555
O15 P9 1.688561 1_555
O16 P6 1.475419 1_555
O17 P8 1.488580 1_555
O18 P9 1.490267 1_555
O19 P8 1.480321 1_555
O20 P5 1.566440 1_555
O20 P6 1.669014 1_565
O21 P10 1.585660 1_555
O21 P8 1.669404 1_555
O22 P5 1.584537 1_555
O22 P7 1.644477 1_555
O23 P10 1.558575 1_555
O23 P9 1.694605 1_545
O24 P7 1.479993 1_555
O25 P6 1.493183 1_555
O26 P7 1.494462 1_555
O27 P9 1.475022 1_555
O28 P11 1.587732 1_555
O28 P6 1.705241 1_555
O29 P11 1.462396 1_565
O30 P12 1.592704 1_555
O30 P8 1.680833 1_555
O31 P10 1.481794 1_555
O32 P12 1.472128 1_555
O33 P12 1.621398 1_555
O33 P11 1.665251 1_555
O34 P15 1.466497 1_554
O35 P1 1.472899 1_455
O36 P11 1.566885 1_555
O36 P2 1.652464 1_455
O37 P5 1.593952 1_556
O37 P15 1.608412 1_555
O38 P13 1.488858 1_545
O39 P13 1.483927 1_555
O40 P12 1.564951 1_555
O40 P14 1.670380 1_555
O41 P14 1.511354 1_555
O42 P15 1.571985 1_555
O42 P13 1.665055 1_555
O43 P15 1.593686 1_555
O43 P14 1.641910 1_555
