# generated using pymatgen
data_Li4V(CO3)4
_symmetry_space_group_name_H-M   'P 1'
_cell_length_a   8.33440400
_cell_length_b   9.92564151
_cell_length_c   11.10862037
_cell_angle_alpha   90.29656610
_cell_angle_beta   91.16460294
_cell_angle_gamma   90.04070768
_symmetry_Int_Tables_number   1
_chemical_formula_structural   Li4V(CO3)4
_chemical_formula_sum   'Li16 V4 C16 O48'
_cell_volume   918.75047295
_cell_formula_units_Z   4
loop_
 _symmetry_equiv_pos_site_id
 _symmetry_equiv_pos_as_xyz
  1  'x, y, z'
loop_
 _atom_site_type_symbol
 _atom_site_label
 _atom_site_symmetry_multiplicity
 _atom_site_fract_x
 _atom_site_fract_y
 _atom_site_fract_z
 _atom_site_occupancy
  Li  Li0  1  0.57550200  0.85462600  0.14272700  1
  Li  Li1  1  0.08644600  0.63986900  0.12776900  1
  Li  Li2  1  0.69455200  0.10923000  0.21658000  1
  Li  Li3  1  0.19169900  0.39187800  0.20769500  1
  Li  Li4  1  0.52319200  0.33107100  0.32249100  1
  Li  Li5  1  0.02489700  0.16932600  0.33274700  1
  Li  Li6  1  0.09414100  0.59375100  0.41661500  1
  Li  Li7  1  0.40496000  0.09561900  0.58045000  1
  Li  Li8  1  0.97322700  0.82923700  0.67127500  1
  Li  Li9  1  0.47124700  0.66825600  0.66077300  1
  Li  Li10  1  0.80317900  0.59177300  0.77879100  1
  Li  Li11  1  0.30628300  0.90711300  0.78364500  1
  Li  Li12  1  0.93357100  0.32783000  0.86359100  1
  Li  Li13  1  0.43003900  0.17210800  0.87713300  1
  Li  Li14  1  0.96838800  0.88396000  0.96436200  1
  Li  Li15  1  0.46630100  0.61778400  0.95923800  1
  V  V0  1  0.73456600  0.59551600  0.28889500  1
  V  V1  1  0.23142500  0.90449800  0.28751800  1
  V  V2  1  0.76242800  0.09168900  0.71068500  1
  V  V3  1  0.26667800  0.40661600  0.71249800  1
  C  C0  1  0.76975900  0.64140300  0.02948300  1
  C  C1  1  0.26926100  0.86439000  0.02816600  1
  C  C2  1  0.84776800  0.37264200  0.21665700  1
  C  C3  1  0.34195300  0.12551000  0.21566300  1
  C  C4  1  0.87716400  0.87025700  0.28920900  1
  C  C5  1  0.37525900  0.63388900  0.28378800  1
  C  C6  1  0.70110000  0.14038400  0.49556200  1
  C  C7  1  0.21897000  0.35689200  0.49269900  1
  C  C8  1  0.79565300  0.64136600  0.50412400  1
  C  C9  1  0.27822100  0.85470200  0.50618600  1
  C  C10  1  0.62055500  0.36242900  0.71495800  1
  C  C11  1  0.12304200  0.13737200  0.71826500  1
  C  C12  1  0.64952600  0.86919000  0.77902300  1
  C  C13  1  0.15545900  0.62933400  0.78124400  1
  C  C14  1  0.73025700  0.09806100  0.96743600  1
  C  C15  1  0.23236900  0.40404300  0.96828100  1
  O  O0  1  0.60640600  0.16123600  0.99974200  1
  O  O1  1  0.10846000  0.33845300  0.99549600  1
  O  O2  1  0.78517000  0.99192000  0.01578600  1
  O  O3  1  0.28051900  0.51194400  0.02046700  1
  O  O4  1  0.68167700  0.66453800  0.12987900  1
  O  O5  1  0.17686100  0.83761700  0.12558800  1
  O  O6  1  0.89135100  0.25205200  0.20791500  1
  O  O7  1  0.93694000  0.47998400  0.20705500  1
  O  O8  1  0.38792900  0.24493000  0.20278500  1
  O  O9  1  0.43035100  0.01680100  0.21479200  1
  O  O10  1  0.69850800  0.40464400  0.24195700  1
  O  O11  1  0.19170800  0.09508600  0.23684800  1
  O  O12  1  0.90674900  0.74072600  0.29042300  1
  O  O13  1  0.74276100  0.92065800  0.26275600  1
  O  O14  1  0.40630100  0.76282300  0.28040600  1
  O  O15  1  0.23399700  0.58567400  0.26813100  1
  O  O16  1  0.99921800  0.95010500  0.31835500  1
  O  O17  1  0.49380500  0.55101600  0.30415800  1
  O  O18  1  0.64427500  0.17662200  0.39489700  1
  O  O19  1  0.16061100  0.32932600  0.39013800  1
  O  O20  1  0.86079000  0.54354300  0.43895200  1
  O  O21  1  0.30989900  0.96987400  0.45189300  1
  O  O22  1  0.67523600  0.69782900  0.44701200  1
  O  O23  1  0.18571300  0.77636500  0.44039800  1
  O  O24  1  0.81994700  0.19809100  0.55401200  1
  O  O25  1  0.30894700  0.27677100  0.55789600  1
  O  O26  1  0.63883300  0.04011200  0.55883500  1
  O  O27  1  0.19202300  0.47306700  0.54825000  1
  O  O28  1  0.84996400  0.67653700  0.60578600  1
  O  O29  1  0.33390100  0.82574600  0.60890200  1
  O  O30  1  0.50285200  0.44587800  0.68535600  1
  O  O31  1  0.00598000  0.05334200  0.69592900  1
  O  O32  1  0.75915100  0.40614300  0.73936400  1
  O  O33  1  0.58433800  0.23366200  0.71722000  1
  O  O34  1  0.26567800  0.09355400  0.73329200  1
  O  O35  1  0.09008800  0.26645800  0.72506100  1
  O  O36  1  0.80198600  0.90043200  0.76170400  1
  O  O37  1  0.30829800  0.60001200  0.76502500  1
  O  O38  1  0.55973800  0.97590100  0.78462500  1
  O  O39  1  0.60340700  0.74912600  0.78533700  1
  O  O40  1  0.06767400  0.52074400  0.77999800  1
  O  O41  1  0.10708400  0.74805700  0.79295600  1
  O  O42  1  0.81471000  0.14979500  0.87243400  1
  O  O43  1  0.32446500  0.35467700  0.87644100  1
  O  O44  1  0.70256800  0.56821900  0.94929800  1
  O  O45  1  0.20821300  0.94273200  0.95036600  1
  O  O46  1  0.90614300  0.69750300  0.02066200  1
  O  O47  1  0.40437600  0.80491100  0.01947900  1
loop_
_geom_bond_atom_site_label_1
_geom_bond_atom_site_label_2
_geom_bond_distance
_geom_bond_site_symmetry_2
Li0 O47 2.016121 1_555
Li0 O13 2.016122 1_555
Li0 O4 2.089965 1_555
Li0 O9 2.173535 1_565
Li0 O14 2.293106 1_555
Li1 O46 1.984098 1_455
Li1 O15 2.040714 1_555
Li1 O5 2.102392 1_555
Li1 O7 2.214289 1_455
Li1 O3 2.390589 1_555
Li1 O12 2.569690 1_455
Li2 O13 1.982534 1_545
Li2 O18 2.137109 1_555
Li2 O6 2.171093 1_555
Li2 O9 2.384498 1_555
Li2 O0 2.559260 1_554
Li2 O2 2.635212 1_545
Li3 O15 2.061818 1_555
Li3 O19 2.143415 1_555
Li3 O8 2.193462 1_555
Li3 O7 2.296771 1_455
Li3 O1 2.497822 1_554
Li3 O3 2.526056 1_555
Li4 O10 1.878026 1_555
Li4 O8 1.922532 1_555
Li4 O18 1.999354 1_555
Li4 O17 2.206967 1_555
Li5 O11 1.914224 1_555
Li5 O6 1.945857 1_455
Li5 O19 2.040968 1_555
Li5 O16 2.190957 1_445
Li6 O23 1.980538 1_555
Li6 O20 2.027769 1_455
Li6 O15 2.040270 1_555
Li6 O27 2.051754 1_555
Li6 O12 2.543204 1_455
Li7 O25 1.983596 1_555
Li7 O21 2.039375 1_545
Li7 O26 2.044437 1_555
Li7 O34 2.076328 1_555
Li7 O33 2.510769 1_555
Li8 O36 1.896762 1_555
Li8 O41 1.916306 1_655
Li8 O28 1.959034 1_555
Li8 O31 2.255484 1_665
Li9 O39 1.922905 1_555
Li9 O37 1.927471 1_555
Li9 O29 2.017665 1_555
Li9 O30 2.240542 1_555
Li10 O32 1.924948 1_555
Li10 O44 2.101016 1_555
Li10 O28 2.144789 1_555
Li10 O39 2.285651 1_555
Li10 O40 2.314679 1_655
Li11 O34 1.963628 1_565
Li11 O45 2.068400 1_555
Li11 O29 2.115540 1_555
Li11 O38 2.219334 1_555
Li11 O41 2.294411 1_555
Li12 O42 2.029029 1_555
Li12 O1 2.047955 1_655
Li12 O35 2.124594 1_655
Li12 O32 2.133764 1_555
Li12 O40 2.415674 1_655
Li13 O0 1.986894 1_555
Li13 O43 2.014986 1_555
Li13 O34 2.221314 1_555
Li13 O33 2.299058 1_555
Li13 O38 2.458582 1_545
Li14 O2 1.959033 1_556
Li14 O46 2.027113 1_556
Li14 O45 2.090832 1_655
Li15 O3 2.002905 1_556
Li15 O44 2.035044 1_555
Li15 O47 2.041199 1_556
Li15 O37 2.509985 1_555
C0 O44 1.267724 1_554
C0 O46 1.271178 1_555
C0 O4 1.366135 1_555
C1 O45 1.264952 1_554
C1 O47 1.276999 1_555
C1 O5 1.368007 1_555
C2 O6 1.254938 1_555
C2 O7 1.304664 1_555
C2 O10 1.319565 1_555
C3 O8 1.255235 1_555
C3 O9 1.307078 1_555
C3 O11 1.314063 1_555
C4 O13 1.257112 1_555
C4 O12 1.309368 1_555
C4 O16 1.323085 1_555
C5 O15 1.278830 1_555
C5 O17 1.303065 1_555
C5 O14 1.306344 1_555
C6 O18 1.259775 1_555
C6 O24 1.303838 1_555
C6 O26 1.332380 1_555
C7 O19 1.258381 1_555
C7 O25 1.305393 1_555
C7 O27 1.326479 1_555
C8 O28 1.255806 1_555
C8 O22 1.304764 1_555
C8 O20 1.330810 1_555
C9 O29 1.257764 1_555
C9 O23 1.305169 1_555
C9 O21 1.324178 1_555
C10 O32 1.257535 1_555
C10 O33 1.313531 1_555
C10 O30 1.321886 1_555
C11 O34 1.274227 1_555
C11 O31 1.302285 1_555
C11 O35 1.312671 1_555
C12 O39 1.254652 1_555
C12 O38 1.299253 1_555
C12 O36 1.325803 1_555
C13 O41 1.252729 1_555
C13 O40 1.302115 1_555
C13 O37 1.322536 1_555
C14 O0 1.265354 1_555
C14 O2 1.266644 1_546
C14 O42 1.381354 1_555
C15 O1 1.263126 1_555
C15 O3 1.275786 1_556
C15 O43 1.377417 1_555
O4 V0 1.940436 1_555
O5 V1 1.958875 1_555
O7 V0 2.245136 1_555
O9 V1 2.169116 1_545
O10 V0 1.983436 1_555
O11 V1 2.002323 1_545
O12 V0 2.032930 1_555
O14 V1 2.028397 1_555
O16 V1 2.023429 1_655
O17 V0 2.064855 1_555
O20 V0 2.022340 1_555
O21 V1 2.030176 1_555
O22 V0 2.092488 1_555
O23 V1 2.166743 1_555
O24 V2 2.103916 1_555
O25 V3 2.176451 1_555
O26 V2 2.021951 1_555
O27 V3 2.029314 1_555
O30 V3 2.035069 1_555
O31 V2 2.075103 1_455
O33 V2 2.049488 1_555
O35 V3 2.031837 1_555
O36 V2 2.009493 1_565
O37 V3 2.030964 1_555
O38 V2 2.216444 1_565
O40 V3 2.154249 1_555
O42 V2 1.925644 1_555
O43 V3 1.946495 1_555
