# generated using pymatgen
data_Li2MnO2F
_symmetry_space_group_name_H-M   'P 1'
_cell_length_a   5.20670310
_cell_length_b   5.20670310
_cell_length_c   9.78543751
_cell_angle_alpha   85.32313565
_cell_angle_beta   85.32313565
_cell_angle_gamma   120.34736297
_symmetry_Int_Tables_number   1
_chemical_formula_structural   Li2MnO2F
_chemical_formula_sum   'Li8 Mn4 O8 F4'
_cell_volume   225.83444598
_cell_formula_units_Z   4
loop_
 _symmetry_equiv_pos_site_id
 _symmetry_equiv_pos_as_xyz
  1  'x, y, z'
loop_
 _atom_site_type_symbol
 _atom_site_label
 _atom_site_symmetry_multiplicity
 _atom_site_fract_x
 _atom_site_fract_y
 _atom_site_fract_z
 _atom_site_occupancy
  Li  Li0  1  0.83629300  0.65950300  0.74543800  1
  Li  Li1  1  0.00070600  0.49394400  0.24993800  1
  Li  Li2  1  0.90904800  0.09095200  0.50000000  1
  Li  Li3  1  0.34049700  0.16370700  0.25456200  1
  Li  Li4  1  0.50605600  0.99929400  0.75006200  1
  Li  Li5  1  0.67052700  0.85711800  0.25549600  1
  Li  Li6  1  0.25123900  0.74876100  0.50000000  1
  Li  Li7  1  0.14288200  0.32947300  0.74450400  1
  Mn  Mn0  1  0.74887200  0.25112800  0.00000000  1
  Mn  Mn1  1  0.60453200  0.39546800  0.50000000  1
  Mn  Mn2  1  0.41250400  0.58749600  0.00000000  1
  Mn  Mn3  1  0.07719900  0.92280100  0.00000000  1
  O  O0  1  0.71610800  0.58478300  0.11011700  1
  O  O1  1  0.85483000  0.36884200  0.61897200  1
  O  O2  1  0.76041000  0.91930700  0.88013700  1
  O  O3  1  0.41521700  0.28389200  0.88988300  1
  O  O4  1  0.63115800  0.14517000  0.38102800  1
  O  O5  1  0.36945100  0.85131600  0.11761600  1
  O  O6  1  0.14868400  0.63054900  0.88238400  1
  O  O7  1  0.08069300  0.23959000  0.11986300  1
  F  F0  1  0.97211900  0.81069300  0.37217800  1
  F  F1  1  0.53865900  0.67698100  0.61557400  1
  F  F2  1  0.18930700  0.02788100  0.62782200  1
  F  F3  1  0.32301900  0.46134100  0.38442600  1
loop_
_geom_bond_atom_site_label_1
_geom_bond_atom_site_label_2
_geom_bond_distance
_geom_bond_site_symmetry_2
Li0 O1 2.065103 1_555
Li0 O2 2.114052 1_555
Li0 O6 2.243747 1_655
Li0 O3 2.310959 1_555
Li1 O7 2.072012 1_555
Li1 O4 2.081430 1_455
Li1 O5 2.101630 1_555
Li1 O0 2.285777 1_455
Li2 O1 2.040186 1_555
Li2 O4 2.040186 1_555
Li3 O4 2.065103 1_555
Li3 O7 2.114052 1_555
Li3 O5 2.243747 1_545
Li3 O0 2.310959 1_555
Li4 O2 2.072012 1_555
Li4 O1 2.081430 1_565
Li4 O6 2.101630 1_555
Li4 O3 2.285777 1_565
Li5 O4 2.090546 1_565
Li5 O5 2.140656 1_555
Li5 O0 2.169027 1_555
Li5 O7 2.257745 1_665
Li6 O1 2.152987 1_455
Li6 O4 2.152987 1_565
Li7 O1 2.090546 1_455
Li7 O6 2.140656 1_555
Li7 O3 2.169027 1_555
Li7 O2 2.257745 1_445
Mn0 O5 2.154944 1_545
Mn0 O6 2.154944 1_654
Mn0 O3 2.186999 1_554
Mn0 O0 2.186999 1_555
Mn0 O7 2.188173 1_655
Mn0 O2 2.188173 1_544
Mn1 O1 1.864571 1_555
Mn1 O4 1.864571 1_555
Mn2 O5 1.946439 1_555
Mn2 O6 1.946439 1_554
Mn2 O7 1.950012 1_555
Mn2 O2 1.950012 1_554
Mn2 O0 1.989473 1_555
Mn2 O3 1.989473 1_554
Mn3 O3 1.951951 1_564
Mn3 O0 1.951951 1_455
Mn3 O7 2.094112 1_565
Mn3 O2 2.094112 1_454
Mn3 O5 2.136979 1_555
Mn3 O6 2.136979 1_554
F0 Li3 2.028433 1_665
F0 Li5 2.111603 1_555
F0 Li6 2.117719 1_655
F0 Li2 2.125216 1_565
F0 Li1 2.171087 1_655
F0 Mn1 2.211126 1_555
F1 Mn1 2.064017 1_555
F1 Li6 2.104872 1_555
F1 Li0 2.114115 1_555
F1 Li7 2.132638 1_555
F1 Li2 2.165760 1_565
F1 Li4 2.277858 1_555
F2 Li0 2.028433 1_445
F2 Li7 2.111603 1_555
F2 Li6 2.117719 1_545
F2 Li2 2.125216 1_455
F2 Li4 2.171087 1_545
F2 Mn1 2.211126 1_555
F3 Mn1 2.064017 1_555
F3 Li6 2.104872 1_555
F3 Li3 2.114115 1_555
F3 Li5 2.132638 1_555
F3 Li2 2.165760 1_455
F3 Li1 2.277858 1_555
