# generated using pymatgen
data_HoErO3
_symmetry_space_group_name_H-M   'P 1'
_cell_length_a   6.37858195
_cell_length_b   6.37858195
_cell_length_c   12.67486200
_cell_angle_alpha   90.00000000
_cell_angle_beta   90.00000000
_cell_angle_gamma   119.99999953
_symmetry_Int_Tables_number   1
_chemical_formula_structural   HoErO3
_chemical_formula_sum   'Ho6 Er6 O18'
_cell_volume   446.60353172
_cell_formula_units_Z   6
loop_
 _symmetry_equiv_pos_site_id
 _symmetry_equiv_pos_as_xyz
  1  'x, y, z'
loop_
 _atom_site_type_symbol
 _atom_site_label
 _atom_site_symmetry_multiplicity
 _atom_site_fract_x
 _atom_site_fract_y
 _atom_site_fract_z
 _atom_site_occupancy
  Ho  Ho0  1  0.33333300  0.66666700  0.23329900  1
  Ho  Ho1  1  0.00000000  0.00000000  0.26482600  1
  Ho  Ho2  1  0.00000000  0.00000000  0.76482600  1
  Ho  Ho3  1  0.33333300  0.66666700  0.73329900  1
  Ho  Ho4  1  0.66666700  0.33333300  0.73329900  1
  Ho  Ho5  1  0.66666700  0.33333300  0.23329900  1
  Er  Er0  1  0.00000000  0.66720600  0.49654500  1
  Er  Er1  1  0.00000000  0.33279400  0.99654500  1
  Er  Er2  1  0.33279400  0.33279400  0.49654500  1
  Er  Er3  1  0.66720600  0.66720600  0.99654500  1
  Er  Er4  1  0.33279400  0.00000000  0.99654500  1
  Er  Er5  1  0.66720600  0.00000000  0.49654500  1
  O  O0  1  0.00000000  0.69481800  0.67034100  1
  O  O1  1  0.00000000  0.63509700  0.32447500  1
  O  O2  1  0.00000000  0.36490300  0.82447500  1
  O  O3  1  0.00000000  0.30518200  0.17034100  1
  O  O4  1  0.33333300  0.66666700  0.02235800  1
  O  O5  1  0.00000000  0.00000000  0.46108600  1
  O  O6  1  0.00000000  0.00000000  0.96108600  1
  O  O7  1  0.33333300  0.66666700  0.52235800  1
  O  O8  1  0.30518200  0.30518200  0.67034100  1
  O  O9  1  0.36490300  0.36490300  0.32447500  1
  O  O10  1  0.30518200  0.00000000  0.17034100  1
  O  O11  1  0.63509700  0.63509700  0.82447500  1
  O  O12  1  0.69481800  0.69481800  0.17034100  1
  O  O13  1  0.36490300  0.00000000  0.82447500  1
  O  O14  1  0.66666700  0.33333300  0.52235800  1
  O  O15  1  0.66666700  0.33333300  0.02235800  1
  O  O16  1  0.63509700  0.00000000  0.32447500  1
  O  O17  1  0.69481800  0.00000000  0.67034100  1
loop_
_geom_bond_atom_site_label_1
_geom_bond_atom_site_label_2
_geom_bond_distance
_geom_bond_site_symmetry_2
Ho0 O1 2.338503 1_555
Ho0 O16 2.338506 1_565
Ho0 O9 2.338509 1_555
Ho0 O10 2.360402 1_565
Ho0 O3 2.360406 1_555
Ho0 O12 2.360408 1_555
Ho0 O4 2.673648 1_555
Ho1 O3 2.285513 1_555
Ho1 O10 2.285513 1_555
Ho1 O12 2.285513 1_445
Ho1 O16 2.447275 1_455
Ho1 O1 2.447275 1_545
Ho1 O9 2.447275 1_555
Ho1 O5 2.487568 1_555
Ho2 O17 2.285513 1_455
Ho2 O0 2.285513 1_545
Ho2 O8 2.285513 1_555
Ho2 O2 2.447275 1_555
Ho2 O13 2.447275 1_555
Ho2 O11 2.447275 1_445
Ho2 O6 2.487568 1_555
Ho3 O13 2.338503 1_565
Ho3 O2 2.338506 1_555
Ho3 O11 2.338509 1_555
Ho3 O0 2.360402 1_555
Ho3 O17 2.360406 1_565
Ho3 O8 2.360408 1_555
Ho3 O7 2.673648 1_555
Ho4 O2 2.338503 1_655
Ho4 O13 2.338506 1_555
Ho4 O11 2.338509 1_555
Ho4 O17 2.360402 1_555
Ho4 O0 2.360406 1_655
Ho4 O8 2.360408 1_555
Ho4 O14 2.673648 1_555
Ho5 O16 2.338503 1_555
Ho5 O1 2.338506 1_655
Ho5 O9 2.338509 1_555
Ho5 O3 2.360402 1_655
Ho5 O10 2.360406 1_555
Ho5 O12 2.360408 1_555
Ho5 O15 2.673648 1_555
Er0 O7 2.152918 1_555
Er0 O14 2.152922 1_455
Er0 O5 2.169811 1_565
Er0 O1 2.190559 1_555
Er0 O0 2.209870 1_555
Er1 O15 2.152918 1_456
Er1 O4 2.152922 1_556
Er1 O6 2.169811 1_555
Er1 O2 2.190559 1_555
Er1 O3 2.209870 1_556
Er2 O14 2.152925 1_555
Er2 O7 2.152925 1_555
Er2 O5 2.169811 1_555
Er2 O9 2.190559 1_555
Er2 O8 2.209870 1_555
Er3 O4 2.152925 1_556
Er3 O15 2.152925 1_556
Er3 O6 2.169811 1_665
Er3 O11 2.190559 1_555
Er3 O12 2.209870 1_556
Er4 O4 2.152918 1_546
Er4 O15 2.152922 1_556
Er4 O6 2.169811 1_555
Er4 O13 2.190559 1_555
Er4 O10 2.209870 1_556
Er5 O14 2.152918 1_555
Er5 O7 2.152922 1_545
Er5 O5 2.169811 1_655
Er5 O16 2.190559 1_555
Er5 O17 2.209870 1_555
