# generated using pymatgen
data_Li24Ti7Cr5O36
_symmetry_space_group_name_H-M   'P 1'
_cell_length_a   5.05627100
_cell_length_b   9.79860805
_cell_length_c   13.45654808
_cell_angle_alpha   97.38080382
_cell_angle_beta   100.79342156
_cell_angle_gamma   94.54178102
_symmetry_Int_Tables_number   1
_chemical_formula_structural   Li24Ti7Cr5O36
_chemical_formula_sum   'Li24 Ti7 Cr5 O36'
_cell_volume   645.81806725
_cell_formula_units_Z   1
loop_
 _symmetry_equiv_pos_site_id
 _symmetry_equiv_pos_as_xyz
  1  'x, y, z'
loop_
 _atom_site_type_symbol
 _atom_site_label
 _atom_site_symmetry_multiplicity
 _atom_site_fract_x
 _atom_site_fract_y
 _atom_site_fract_z
 _atom_site_occupancy
  Li  Li0  1  0.15832900  0.00153100  0.83394900  1
  Li  Li1  1  0.04516700  0.00114000  0.61205200  1
  Li  Li2  1  0.99942500  0.75014500  0.25125600  1
  Li  Li3  1  0.33397100  0.74965400  0.91554900  1
  Li  Li4  1  0.04741200  0.49891800  0.11189300  1
  Li  Li5  1  0.38601100  0.50199000  0.78055200  1
  Li  Li6  1  0.16101000  0.50233000  0.33363500  1
  Li  Li7  1  0.49301500  0.49895300  0.00082700  1
  Li  Li8  1  0.28512000  0.50129500  0.55375200  1
  Li  Li9  1  0.33324400  0.24987100  0.41645500  1
  Li  Li10  1  0.49756800  0.99869800  0.50175600  1
  Li  Li11  1  0.28639600  0.00089800  0.05255800  1
  Li  Li12  1  0.62479600  0.99878700  0.72040900  1
  Li  Li13  1  0.38186400  0.00071100  0.27902200  1
  Li  Li14  1  0.71808100  0.00039000  0.94588700  1
  Li  Li15  1  0.66712900  0.75015000  0.58463400  1
  Li  Li16  1  0.71690900  0.49896300  0.44606500  1
  Li  Li17  1  0.83132000  0.49862600  0.66738200  1
  Li  Li18  1  0.62437100  0.49905900  0.22048000  1
  Li  Li19  1  0.95246100  0.49952700  0.88670900  1
  Li  Li20  1  0.66732800  0.25031300  0.08467800  1
  Li  Li21  1  0.83060200  0.00037200  0.16758300  1
  Li  Li22  1  0.99689000  0.24957900  0.74963800  1
  Li  Li23  1  0.95473000  0.00022200  0.38767000  1
  Ti  Ti0  1  0.23010900  0.75679300  0.69377900  1
  Ti  Ti1  1  0.23265300  0.25647300  0.19464700  1
  Ti  Ti2  1  0.43992100  0.24801200  0.63869000  1
  Ti  Ti3  1  0.55410700  0.24706100  0.86019300  1
  Ti  Ti4  1  0.43987900  0.75303400  0.13961900  1
  Ti  Ti5  1  0.55477400  0.74643800  0.36075500  1
  Ti  Ti6  1  0.88197500  0.74494800  0.02575700  1
  Cr  Cr0  1  0.10598900  0.24985700  0.97352900  1
  Cr  Cr1  1  0.10639900  0.75027300  0.47357000  1
  Cr  Cr2  1  0.78428700  0.74869800  0.80592100  1
  Cr  Cr3  1  0.78770300  0.25009000  0.30729200  1
  Cr  Cr4  1  0.88126800  0.24875000  0.52557200  1
  O  O0  1  0.99815400  0.86080900  0.92449600  1
  O  O1  1  0.06191100  0.63489100  0.78487900  1
  O  O2  1  0.99992800  0.36083600  0.42435400  1
  O  O3  1  0.13851200  0.36236100  0.64068000  1
  O  O4  1  0.26009900  0.36331500  0.88293100  1
  O  O5  1  0.33895300  0.86487800  0.59670200  1
  O  O6  1  0.06363700  0.13462400  0.28530400  1
  O  O7  1  0.18612300  0.13861300  0.52168900  1
  O  O8  1  0.40165300  0.13615600  0.95301400  1
  O  O9  1  0.14302700  0.86450000  0.14291700  1
  O  O10  1  0.26117800  0.86391900  0.38339500  1
  O  O11  1  0.48072500  0.86145500  0.81066200  1
  O  O12  1  0.33160000  0.13505700  0.73727800  1
  O  O13  1  0.19099800  0.63701400  0.02267300  1
  O  O14  1  0.40155700  0.63612000  0.45321700  1
  O  O15  1  0.52694700  0.63742000  0.69099400  1
  O  O16  1  0.33206400  0.63628800  0.23772200  1
  O  O17  1  0.66057200  0.63572100  0.90517600  1
  O  O18  1  0.33991900  0.36460400  0.09706300  1
  O  O19  1  0.66342500  0.36338000  0.76232200  1
  O  O20  1  0.48101300  0.36208500  0.31150100  1
  O  O21  1  0.60277100  0.36523800  0.54706500  1
  O  O22  1  0.81866300  0.36228800  0.97794400  1
  O  O23  1  0.66699900  0.86373000  0.26339800  1
  O  O24  1  0.52807000  0.13780400  0.19250000  1
  O  O25  1  0.73359200  0.13385900  0.61845800  1
  O  O26  1  0.85369700  0.13595200  0.85552600  1
  O  O27  1  0.59609600  0.86653500  0.04829800  1
  O  O28  1  0.81868100  0.86222500  0.47816600  1
  O  O29  1  0.93121900  0.86560600  0.71359000  1
  O  O30  1  0.66750500  0.13839500  0.40853300  1
  O  O31  1  0.73794400  0.63442800  0.11785800  1
  O  O32  1  0.85431300  0.63574800  0.35573600  1
  O  O33  1  0.00159300  0.63772600  0.56786700  1
  O  O34  1  0.93285100  0.36611900  0.21437700  1
  O  O35  1  0.00179700  0.13775600  0.06799400  1
loop_
_geom_bond_atom_site_label_1
_geom_bond_atom_site_label_2
_geom_bond_distance
_geom_bond_site_symmetry_2
Li0 O29 2.054917 1_445
Li0 O8 2.069422 1_555
Li0 O26 2.140617 1_455
Li0 O0 2.160150 1_445
Li0 O12 2.203232 1_555
Li0 O11 2.252675 1_545
Li1 O5 2.095264 1_545
Li1 O7 2.096297 1_555
Li1 O25 2.127691 1_455
Li1 O29 2.145331 1_445
Li1 O28 2.181846 1_445
Li1 O12 2.208128 1_555
Li2 O32 2.105356 1_555
Li2 O23 2.107849 1_555
Li2 O16 2.113373 1_655
Li2 O10 2.128812 1_655
Li2 O9 2.143706 1_655
Li2 O31 2.146322 1_555
Li3 O17 2.081138 1_555
Li3 O11 2.098473 1_555
Li3 O0 2.102304 1_455
Li3 O13 2.119311 1_556
Li3 O1 2.142369 1_555
Li3 O27 2.146279 1_556
Li4 O18 2.076217 1_555
Li4 O13 2.094708 1_555
Li4 O31 2.136980 1_455
Li4 O34 2.138111 1_455
Li4 O22 2.175549 1_454
Li4 O16 2.223779 1_555
Li5 O19 2.053618 1_555
Li5 O15 2.074597 1_555
Li5 O17 2.175324 1_555
Li5 O1 2.176906 1_555
Li5 O4 2.195939 1_555
Li5 O3 2.272801 1_555
Li6 O34 2.049406 1_455
Li6 O14 2.063920 1_555
Li6 O32 2.143881 1_455
Li6 O2 2.168934 1_455
Li6 O16 2.193246 1_555
Li6 O20 2.241122 1_555
Li7 O4 2.044714 1_554
Li7 O31 2.061075 1_555
Li7 O13 2.154439 1_555
Li7 O18 2.159011 1_555
Li7 O17 2.200508 1_554
Li7 O22 2.243304 1_554
Li8 O33 2.053933 1_555
Li8 O3 2.084519 1_555
Li8 O14 2.134584 1_555
Li8 O21 2.174284 1_555
Li8 O15 2.224397 1_555
Li8 O2 2.266074 1_455
Li9 O2 2.088419 1_455
Li9 O30 2.095454 1_555
Li9 O7 2.099973 1_555
Li9 O20 2.103801 1_555
Li9 O21 2.138362 1_555
Li9 O6 2.142731 1_555
Li10 O25 2.039065 1_565
Li10 O10 2.050876 1_555
Li10 O5 2.154674 1_555
Li10 O7 2.199315 1_565
Li10 O30 2.200979 1_565
Li10 O28 2.225537 1_555
Li11 O35 2.063546 1_555
Li11 O9 2.093906 1_545
Li11 O8 2.125238 1_554
Li11 O27 2.128265 1_545
Li11 O24 2.251328 1_555
Li11 O0 2.261139 1_444
Li12 O12 2.096149 1_565
Li12 O11 2.100587 1_555
Li12 O29 2.110596 1_555
Li12 O25 2.137829 1_565
Li12 O26 2.188482 1_565
Li12 O5 2.195229 1_555
Li13 O23 2.066837 1_545
Li13 O24 2.067246 1_555
Li13 O6 2.162117 1_555
Li13 O10 2.194704 1_545
Li13 O9 2.209621 1_545
Li13 O30 2.255636 1_555
Li14 O26 2.072720 1_555
Li14 O0 2.077771 1_545
Li14 O27 2.157427 1_546
Li14 O8 2.168074 1_555
Li14 O35 2.193776 1_656
Li14 O11 2.211713 1_545
Li15 O5 2.095953 1_555
Li15 O15 2.105497 1_555
Li15 O29 2.112508 1_555
Li15 O33 2.120961 1_655
Li15 O28 2.127898 1_555
Li15 O14 2.131712 1_555
Li16 O2 2.080082 1_555
Li16 O32 2.084218 1_555
Li16 O21 2.128084 1_555
Li16 O14 2.172908 1_555
Li16 O20 2.194114 1_555
Li16 O33 2.200222 1_655
Li17 O1 2.040263 1_655
Li17 O21 2.044847 1_555
Li17 O15 2.173159 1_555
Li17 O3 2.176850 1_655
Li17 O19 2.184510 1_555
Li17 O33 2.259898 1_655
Li18 O16 2.099853 1_555
Li18 O20 2.104237 1_555
Li18 O34 2.116293 1_555
Li18 O31 2.154800 1_555
Li18 O32 2.189253 1_555
Li18 O18 2.192169 1_555
Li19 O22 2.089133 1_555
Li19 O17 2.094027 1_555
Li19 O4 2.131793 1_655
Li19 O1 2.139614 1_655
Li19 O13 2.213584 1_656
Li19 O19 2.217773 1_555
Li20 O18 2.090815 1_555
Li20 O24 2.118244 1_555
Li20 O35 2.121514 1_655
Li20 O34 2.123312 1_555
Li20 O22 2.129738 1_554
Li20 O8 2.134537 1_554
Li21 O6 2.036741 1_655
Li21 O27 2.049964 1_545
Li21 O24 2.160585 1_555
Li21 O9 2.189538 1_645
Li21 O23 2.192474 1_545
Li21 O35 2.251849 1_655
Li22 O26 2.111982 1_555
Li22 O19 2.114736 1_555
Li22 O12 2.123512 1_655
Li22 O25 2.130871 1_555
Li22 O3 2.137282 1_655
Li22 O4 2.141933 1_655
Li23 O28 2.091422 1_545
Li23 O30 2.094626 1_555
Li23 O10 2.128232 1_645
Li23 O6 2.137854 1_655
Li23 O7 2.188658 1_655
Li23 O23 2.215356 1_545
Cr0 O22 1.896525 1_455
Cr0 O35 1.902078 1_556
Cr0 O8 1.972734 1_555
Cr0 O4 1.973894 1_555
Cr0 O26 1.988709 1_455
Cr0 O18 1.999837 1_556
Cr1 O28 1.895407 1_455
Cr1 O33 1.904197 1_555
Cr1 O10 1.972256 1_555
Cr1 O14 1.972853 1_555
Cr1 O32 1.989353 1_455
Cr1 O5 1.993044 1_555
Cr2 O1 1.899969 1_655
Cr2 O0 1.907192 1_555
Cr2 O15 1.965217 1_555
Cr2 O11 1.966678 1_555
Cr2 O17 1.995952 1_555
Cr2 O29 1.996123 1_555
Cr3 O2 1.885139 1_555
Cr3 O6 1.905991 1_655
Cr3 O24 1.973605 1_555
Cr3 O20 1.974491 1_555
Cr3 O34 1.992803 1_555
Cr3 O30 2.002763 1_555
Cr4 O30 1.886191 1_555
Cr4 O21 1.921370 1_555
Cr4 O7 1.955125 1_655
Cr4 O3 1.975707 1_655
Cr4 O25 1.991276 1_555
Cr4 O2 2.001855 1_555
O0 Ti6 2.020472 1_556
O1 Ti0 2.063651 1_555
O3 Ti2 1.963862 1_555
O4 Ti3 1.987502 1_555
O5 Ti0 1.914008 1_555
O6 Ti1 2.060867 1_555
O7 Ti2 1.966343 1_555
O8 Ti3 1.977871 1_555
O9 Ti4 1.928708 1_555
O9 Ti6 2.025171 1_455
O10 Ti5 1.992894 1_555
O11 Ti0 1.940257 1_555
O12 Ti2 1.959181 1_555
O12 Ti3 1.961398 1_555
O13 Ti6 1.958669 1_455
O13 Ti4 1.981050 1_555
O14 Ti5 1.972481 1_555
O15 Ti0 1.977397 1_555
O16 Ti5 1.955540 1_555
O16 Ti4 1.976692 1_555
O17 Ti6 1.927505 1_556
O18 Ti1 1.916852 1_555
O19 Ti3 1.974242 1_555
O19 Ti2 1.983206 1_555
O20 Ti1 1.938303 1_555
O21 Ti2 2.027785 1_555
O22 Ti3 2.020434 1_555
O23 Ti4 1.972757 1_555
O23 Ti5 1.980203 1_555
O24 Ti1 1.966389 1_555
O25 Ti2 1.966300 1_555
O26 Ti3 1.939880 1_555
O27 Ti6 1.986183 1_555
O27 Ti4 1.986568 1_555
O28 Ti5 2.018437 1_555
O29 Ti0 1.955729 1_655
O31 Ti6 1.948621 1_555
O31 Ti4 2.015684 1_555
O32 Ti5 1.937639 1_555
O33 Ti0 2.027902 1_555
O34 Ti1 1.964192 1_655
O35 Ti1 2.037366 1_555
