# generated using pymatgen
data_LiMn2P4H11O18
_symmetry_space_group_name_H-M   'P 1'
_cell_length_a   5.44044600
_cell_length_b   6.17249112
_cell_length_c   11.97586556
_cell_angle_alpha   75.08614571
_cell_angle_beta   83.61503931
_cell_angle_gamma   66.38208802
_symmetry_Int_Tables_number   1
_chemical_formula_structural   LiMn2P4H11O18
_chemical_formula_sum   'Li1 Mn2 P4 H11 O18'
_cell_volume   356.04920033
_cell_formula_units_Z   1
loop_
 _symmetry_equiv_pos_site_id
 _symmetry_equiv_pos_as_xyz
  1  'x, y, z'
loop_
 _atom_site_type_symbol
 _atom_site_label
 _atom_site_symmetry_multiplicity
 _atom_site_fract_x
 _atom_site_fract_y
 _atom_site_fract_z
 _atom_site_occupancy
  Li  Li0  1  0.47024100  0.98920500  0.53861800  1
  Mn  Mn0  1  0.00566000  0.29550100  0.90576900  1
  Mn  Mn1  1  0.99325900  0.70299700  0.10120400  1
  P  P0  1  0.14109100  0.63435700  0.63770800  1
  P  P1  1  0.49894000  0.21031800  0.09644300  1
  P  P2  1  0.49623200  0.78707400  0.91142000  1
  P  P3  1  0.83685900  0.38453700  0.36887800  1
  H  H0  1  0.98697400  0.50340700  0.49901700  1
  H  H1  1  0.00706300  0.92926200  0.29549600  1
  H  H2  1  0.25299400  0.67951900  0.30543400  1
  H  H3  1  0.47234500  0.49124200  0.51392900  1
  H  H4  1  0.36058100  0.58145500  0.81731500  1
  H  H5  1  0.63359600  0.07791200  0.80503900  1
  H  H6  1  0.36678800  0.92332700  0.20675000  1
  H  H7  1  0.63468800  0.41921200  0.18614200  1
  H  H8  1  0.74933200  0.31942000  0.69912600  1
  H  H9  1  0.97940000  0.01693600  0.48450100  1
  H  H10  1  0.98337600  0.06283400  0.70656100  1
  O  O0  1  0.06614100  0.38795700  0.43674600  1
  O  O1  1  0.23973900  0.31693900  0.03047100  1
  O  O2  1  0.12455400  0.56097600  0.77052100  1
  O  O3  1  0.13287200  0.82048600  0.24840600  1
  O  O4  1  0.16909600  0.88530400  0.59573300  1
  O  O5  1  0.46716300  0.03798700  0.82418400  1
  O  O6  1  0.46304700  0.40637300  0.16771700  1
  O  O7  1  0.40730700  0.43297300  0.59985300  1
  O  O8  1  0.76478100  0.14647400  0.03136300  1
  O  O9  1  0.22784300  0.85270200  0.97407500  1
  O  O10  1  0.56095900  0.55668000  0.40038800  1
  O  O11  1  0.53366700  0.59548400  0.83788300  1
  O  O12  1  0.85398500  0.10718600  0.41438200  1
  O  O13  1  0.53370400  0.96133500  0.18684000  1
  O  O14  1  0.86336900  0.17396200  0.75492100  1
  O  O15  1  0.88972500  0.42617800  0.23849000  1
  O  O16  1  0.75281800  0.67614800  0.98081600  1
  O  O17  1  0.89551200  0.64654200  0.57833400  1
loop_
_geom_bond_atom_site_label_1
_geom_bond_atom_site_label_2
_geom_bond_distance
_geom_bond_site_symmetry_2
Li0 O4 1.982490 1_555
Li0 O17 2.420473 1_555
Mn0 O1 2.128223 1_556
Mn0 O8 2.154341 1_456
Mn0 O2 2.230945 1_555
Mn0 O14 2.428913 1_455
Mn0 O9 2.454055 1_545
Mn0 O16 2.538225 1_455
Mn0 O11 2.561841 1_455
Mn0 O5 2.615560 1_555
Mn1 O16 2.129181 1_554
Mn1 O9 2.142252 1_654
Mn1 O15 2.249248 1_555
Mn1 O3 2.368077 1_655
Mn1 O8 2.462548 1_565
Mn1 O1 2.533793 1_655
Mn1 O6 2.543946 1_655
Mn1 O13 2.631048 1_555
H0 O0 1.098017 1_655
H0 O17 1.380237 1_555
H1 O3 0.989007 1_555
H2 O3 0.994172 1_555
H3 O7 1.069540 1_555
H3 O10 1.404285 1_555
H4 O11 1.040582 1_555
H4 O2 1.518385 1_555
H5 O5 1.018191 1_555
H5 O14 1.586886 1_555
H6 O13 1.015030 1_555
H6 O3 1.616922 1_555
H7 O6 1.020335 1_555
H7 O15 1.604747 1_555
H8 O14 0.987206 1_555
H9 O12 1.031078 1_555
H9 O4 1.605150 1_645
H10 O14 0.996862 1_555
O0 P3 1.572412 1_455
O1 P1 1.510776 1_555
O2 P0 1.540487 1_555
O4 P0 1.564123 1_555
O5 P2 1.588318 1_545
O6 P1 1.592619 1_555
O7 P0 1.596814 1_555
O8 P1 1.518290 1_555
O9 P2 1.515916 1_555
O10 P3 1.525427 1_555
O11 P2 1.587063 1_555
O12 P3 1.624712 1_555
O13 P1 1.589306 1_565
O15 P3 1.529657 1_555
O16 P2 1.519024 1_555
O17 P0 1.549052 1_655
