# generated using pymatgen
data_Li2Cr3NiO8
_symmetry_space_group_name_H-M   'P 1'
_cell_length_a   5.73448896
_cell_length_b   5.73498151
_cell_length_c   5.73477004
_cell_angle_alpha   60.65991248
_cell_angle_beta   60.65138847
_cell_angle_gamma   60.65677676
_symmetry_Int_Tables_number   1
_chemical_formula_structural   Li2Cr3NiO8
_chemical_formula_sum   'Li2 Cr3 Ni1 O8'
_cell_volume   135.33585879
_cell_formula_units_Z   1
loop_
 _symmetry_equiv_pos_site_id
 _symmetry_equiv_pos_as_xyz
  1  'x, y, z'
loop_
 _atom_site_type_symbol
 _atom_site_label
 _atom_site_symmetry_multiplicity
 _atom_site_fract_x
 _atom_site_fract_y
 _atom_site_fract_z
 _atom_site_occupancy
  Li  Li0  1  0.12737262  0.12738875  0.12738722  1
  Li  Li1  1  0.87262738  0.87261125  0.87261278  1
  Cr  Cr0  1  0.00000000  0.50000000  0.50000000  1
  Cr  Cr1  1  0.50000000  0.50000000  0.00000000  1
  Cr  Cr2  1  0.50000000  0.00000000  0.50000000  1
  Ni  Ni0  1  0.50000000  0.50000000  0.50000000  1
  O  O0  1  0.26292001  0.26304975  0.26307729  1
  O  O1  1  0.26480905  0.71180451  0.26493797  1
  O  O2  1  0.26486374  0.26491787  0.71173487  1
  O  O3  1  0.71176010  0.26486023  0.26493385  1
  O  O4  1  0.28823990  0.73513977  0.73506615  1
  O  O5  1  0.73513626  0.73508213  0.28826513  1
  O  O6  1  0.73519095  0.28819549  0.73506203  1
  O  O7  1  0.73707999  0.73695025  0.73692271  1
loop_
_geom_bond_atom_site_label_1
_geom_bond_atom_site_label_2
_geom_bond_distance
_geom_bond_site_symmetry_2
Li0 O0 1.895761 1_555
Li0 O3 1.961900 1_455
Li0 O1 1.962099 1_545
Li0 O2 1.962244 1_554
Li1 O7 1.895761 1_555
Li1 O4 1.961900 1_655
Li1 O6 1.962099 1_565
Li1 O5 1.962244 1_556
Cr0 O0 1.938861 1_555
Cr0 O7 1.938861 1_455
Cr0 O6 1.948127 1_455
Cr0 O1 1.948127 1_555
Cr0 O2 1.948229 1_555
Cr0 O5 1.948229 1_455
Cr1 O0 1.939600 1_555
Cr1 O7 1.939600 1_554
Cr1 O6 1.948651 1_554
Cr1 O1 1.948651 1_555
Cr1 O4 1.948653 1_554
Cr1 O3 1.948653 1_555
Cr2 O0 1.939617 1_555
Cr2 O7 1.939617 1_545
Cr2 O3 1.948231 1_555
Cr2 O4 1.948231 1_545
Cr2 O2 1.948327 1_555
Cr2 O5 1.948327 1_545
Ni0 O4 1.918924 1_555
Ni0 O3 1.918924 1_555
Ni0 O5 1.919019 1_555
Ni0 O2 1.919019 1_555
Ni0 O1 1.919251 1_555
Ni0 O6 1.919251 1_555
