# generated using pymatgen
data_Li4Cr3CoO8
_symmetry_space_group_name_H-M   'P 1'
_cell_length_a   5.06914141
_cell_length_b   9.88537254
_cell_length_c   5.93540894
_cell_angle_alpha   89.99832297
_cell_angle_beta   90.00196989
_cell_angle_gamma   100.23129325
_symmetry_Int_Tables_number   1
_chemical_formula_structural   Li4Cr3CoO8
_chemical_formula_sum   'Li8 Cr6 Co2 O16'
_cell_volume   292.69598842
_cell_formula_units_Z   2
loop_
 _symmetry_equiv_pos_site_id
 _symmetry_equiv_pos_as_xyz
  1  'x, y, z'
loop_
 _atom_site_type_symbol
 _atom_site_label
 _atom_site_symmetry_multiplicity
 _atom_site_fract_x
 _atom_site_fract_y
 _atom_site_fract_z
 _atom_site_occupancy
  Li  Li0  1  0.99946200  0.00029700  0.00030400  1
  Li  Li1  1  0.50054000  0.49969900  0.49969300  1
  Li  Li2  1  0.99947800  0.00030200  0.49969400  1
  Li  Li3  1  0.50053400  0.49969800  0.00030000  1
  Li  Li4  1  0.49047200  0.00084400  0.24999500  1
  Li  Li5  1  0.98850800  0.50047400  0.74999200  1
  Li  Li6  1  0.00953200  0.49915500  0.25000600  1
  Li  Li7  1  0.51149600  0.99952600  0.74999800  1
  Cr  Cr0  1  0.74998100  0.75000400  0.25001600  1
  Cr  Cr1  1  0.74998500  0.25000200  0.50115500  1
  Cr  Cr2  1  0.75000300  0.25000600  0.99885200  1
  Cr  Cr3  1  0.24998900  0.24999900  0.74995600  1
  Cr  Cr4  1  0.25002400  0.75000500  0.00057200  1
  Cr  Cr5  1  0.24999100  0.74999300  0.49940300  1
  Co  Co0  1  0.24999400  0.25000100  0.25001900  1
  Co  Co1  1  0.75000700  0.75000100  0.74999200  1
  O  O0  1  0.89089100  0.14174700  0.25002000  1
  O  O1  1  0.39093000  0.64219900  0.75001100  1
  O  O2  1  0.60909600  0.35825100  0.25000200  1
  O  O3  1  0.10909200  0.85779900  0.74998500  1
  O  O4  1  0.62309700  0.36371400  0.75002200  1
  O  O5  1  0.12383100  0.86337200  0.24999400  1
  O  O6  1  0.87689000  0.13628900  0.75001900  1
  O  O7  1  0.37617800  0.63662600  0.24999700  1
  O  O8  1  0.37786400  0.13557600  0.50219400  1
  O  O9  1  0.87724600  0.63445200  0.00177100  1
  O  O10  1  0.37785700  0.13558000  0.99780700  1
  O  O11  1  0.87728600  0.63441900  0.49816300  1
  O  O12  1  0.12213500  0.36442400  0.50219000  1
  O  O13  1  0.62272700  0.86557900  0.00184500  1
  O  O14  1  0.12212100  0.36441200  0.99780300  1
  O  O15  1  0.62276200  0.86555300  0.49822900  1
loop_
_geom_bond_atom_site_label_1
_geom_bond_atom_site_label_2
_geom_bond_distance
_geom_bond_site_symmetry_2
Li0 O13 2.125365 1_545
Li0 O10 2.134629 1_654
Li0 O6 2.167181 1_554
Li0 O0 2.174507 1_555
Li0 O5 2.174602 1_645
Li0 O3 2.186054 1_644
Li1 O11 2.125418 1_555
Li1 O12 2.134632 1_555
Li1 O4 2.167283 1_555
Li1 O2 2.174364 1_555
Li1 O7 2.174625 1_555
Li1 O1 2.186026 1_555
Li2 O15 2.125430 1_545
Li2 O8 2.134552 1_655
Li2 O6 2.167426 1_555
Li2 O0 2.174251 1_555
Li2 O5 2.174727 1_645
Li2 O3 2.185863 1_645
Li3 O9 2.125437 1_555
Li3 O14 2.134715 1_554
Li3 O4 2.167164 1_554
Li3 O2 2.174331 1_555
Li3 O7 2.174707 1_555
Li3 O1 2.185823 1_554
Li4 O5 2.098514 1_545
Li4 O10 2.147170 1_554
Li4 O8 2.147258 1_555
Li4 O13 2.173801 1_545
Li4 O15 2.174301 1_545
Li4 O0 2.248502 1_555
Li5 O4 2.090260 1_555
Li5 O11 2.137821 1_555
Li5 O9 2.137988 1_556
Li5 O12 2.180525 1_655
Li5 O14 2.180526 1_655
Li5 O1 2.260281 1_655
Li6 O7 2.098529 1_555
Li6 O12 2.147098 1_555
Li6 O14 2.147310 1_554
Li6 O11 2.173804 1_455
Li6 O9 2.174336 1_455
Li6 O2 2.248574 1_455
Li7 O6 2.090208 1_565
Li7 O15 2.137921 1_555
Li7 O13 2.137926 1_556
Li7 O8 2.180459 1_565
Li7 O10 2.180605 1_565
Li7 O3 2.260218 1_555
Cr0 O7 2.022921 1_555
Cr0 O5 2.023082 1_655
Cr0 O13 2.037840 1_555
Cr0 O15 2.037868 1_555
Cr0 O11 2.037905 1_555
Cr0 O9 2.038121 1_555
Cr1 O8 2.019849 1_555
Cr1 O12 2.019956 1_655
Cr1 O6 2.028793 1_555
Cr1 O4 2.028845 1_555
Cr1 O2 2.036820 1_555
Cr1 O0 2.036897 1_555
Cr2 O14 2.019759 1_655
Cr2 O10 2.019955 1_555
Cr2 O4 2.028618 1_555
Cr2 O6 2.028726 1_555
Cr2 O2 2.036906 1_556
Cr2 O0 2.036941 1_556
Cr3 O6 2.021208 1_455
Cr3 O4 2.021265 1_555
Cr3 O12 2.030374 1_555
Cr3 O8 2.030470 1_555
Cr3 O10 2.030733 1_555
Cr3 O14 2.030759 1_555
Cr4 O13 2.026807 1_555
Cr4 O9 2.027039 1_455
Cr4 O7 2.027630 1_555
Cr4 O5 2.027707 1_555
Cr4 O1 2.031796 1_554
Cr4 O3 2.031817 1_554
Cr5 O11 2.026815 1_455
Cr5 O15 2.027037 1_555
Cr5 O5 2.027574 1_555
Cr5 O7 2.027625 1_555
Cr5 O3 2.031872 1_555
Cr5 O1 2.031924 1_555
Co0 O2 1.940809 1_555
Co0 O0 1.940828 1_455
Co0 O8 2.049441 1_555
Co0 O12 2.049469 1_555
Co0 O14 2.049541 1_554
Co0 O10 2.049643 1_554
Co1 O1 1.939002 1_555
Co1 O3 1.939021 1_655
Co1 O15 2.053145 1_555
Co1 O9 2.053183 1_556
Co1 O11 2.053763 1_555
Co1 O13 2.053845 1_556
