# generated using pymatgen
data_Li3V3P8O29
_symmetry_space_group_name_H-M   'P 1'
_cell_length_a   9.74045600
_cell_length_b   9.76845699
_cell_length_c   14.26219904
_cell_angle_alpha   90.10989840
_cell_angle_beta   90.25264187
_cell_angle_gamma   119.73557351
_symmetry_Int_Tables_number   1
_chemical_formula_structural   Li3V3P8O29
_chemical_formula_sum   'Li6 V6 P16 O58'
_cell_volume   1178.32297126
_cell_formula_units_Z   2
loop_
 _symmetry_equiv_pos_site_id
 _symmetry_equiv_pos_as_xyz
  1  'x, y, z'
loop_
 _atom_site_type_symbol
 _atom_site_label
 _atom_site_symmetry_multiplicity
 _atom_site_fract_x
 _atom_site_fract_y
 _atom_site_fract_z
 _atom_site_occupancy
  Li  Li0  1  0.68430700  0.90979300  0.55384900  1
  Li  Li1  1  0.09689400  0.33043400  0.05635800  1
  Li  Li2  1  0.92002200  0.22129100  0.44162700  1
  Li  Li3  1  0.08402000  0.78368500  0.55126900  1
  Li  Li4  1  0.90333600  0.67221000  0.94750700  1
  Li  Li5  1  0.99777900  0.99926100  0.00730900  1
  V  V0  1  0.00223900  0.43637200  0.25027800  1
  V  V1  1  0.99993800  0.56454100  0.74905900  1
  V  V2  1  0.56203100  0.00151800  0.76063100  1
  V  V3  1  0.43434000  0.00007700  0.24243000  1
  V  V4  1  0.56017200  0.56437400  0.25225100  1
  V  V5  1  0.43670200  0.43296800  0.74695200  1
  P  P0  1  0.69306400  0.77284200  0.84063700  1
  P  P1  1  0.68272700  0.91354700  0.33865100  1
  P  P2  1  0.22791800  0.31105700  0.34703800  1
  P  P3  1  0.33080200  0.66305700  0.13166200  1
  P  P4  1  0.33577300  0.67097100  0.63394100  1
  P  P5  1  0.09168600  0.31471500  0.83867500  1
  P  P6  1  0.90468300  0.22472100  0.66057400  1
  P  P7  1  0.21664700  0.91549800  0.84450300  1
  P  P8  1  0.78228200  0.08527000  0.15672300  1
  P  P9  1  0.09411900  0.77603000  0.33787200  1
  P  P10  1  0.90647800  0.68463000  0.16138500  1
  P  P11  1  0.66702500  0.32998000  0.36591200  1
  P  P12  1  0.67012300  0.33952200  0.86786900  1
  P  P13  1  0.77147400  0.68675500  0.65590100  1
  P  P14  1  0.31366400  0.08419600  0.66064900  1
  P  P15  1  0.30401600  0.22440800  0.16113300  1
  O  O0  1  0.76380100  0.77020100  0.57118500  1
  O  O1  1  0.65621600  0.74419900  0.33380300  1
  O  O2  1  0.81121300  0.00929300  0.07517000  1
  O  O3  1  0.65239500  0.90827400  0.83387000  1
  O  O4  1  0.53839200  0.61369000  0.82904600  1
  O  O5  1  0.47842800  0.66669800  0.17856900  1
  O  O6  1  0.38058100  0.47142700  0.32512300  1
  O  O7  1  0.20083000  0.20833800  0.07935100  1
  O  O8  1  0.26213800  0.34583700  0.82780800  1
  O  O9  1  0.48065500  0.81990700  0.67782100  1
  O  O10  1  0.52358500  0.90656200  0.31834500  1
  O  O11  1  0.34101700  0.52658600  0.67851100  1
  O  O12  1  0.32201700  0.65020500  0.02785100  1
  O  O13  1  0.33237400  0.67218700  0.53000200  1
  O  O14  1  0.18283000  0.50851200  0.17317900  1
  O  O15  1  0.37946700  0.91882500  0.83326900  1
  O  O16  1  0.32797300  0.81116400  0.17224500  1
  O  O17  1  0.08285200  0.34005300  0.33786700  1
  O  O18  1  0.99798100  0.20622900  0.74940000  1
  O  O19  1  0.98432500  0.23822300  0.57008600  1
  O  O20  1  0.01934500  0.23878700  0.92924200  1
  O  O21  1  0.09122400  0.47306400  0.82267900  1
  O  O22  1  0.18162500  0.66656900  0.67573700  1
  O  O23  1  0.91784400  0.26194400  0.16355300  1
  O  O24  1  0.10182800  0.62211000  0.31709300  1
  O  O25  1  0.26213200  0.91835100  0.32825400  1
  O  O26  1  0.80039400  0.00981600  0.25472300  1
  O  O27  1  0.75582800  0.99818700  0.42901200  1
  O  O28  1  0.23518500  0.99453200  0.57470700  1
  O  O29  1  0.73739900  0.07842400  0.66641700  1
  O  O30  1  0.89716100  0.37829800  0.68264600  1
  O  O31  1  0.08102400  0.73952400  0.83500500  1
  O  O32  1  0.82190300  0.33514000  0.32430000  1
  O  O33  1  0.90933800  0.52796600  0.17578900  1
  O  O34  1  0.97891600  0.76480700  0.07143600  1
  O  O35  1  0.01263700  0.76189900  0.42757800  1
  O  O36  1  0.99885100  0.79401600  0.25024500  1
  O  O37  1  0.91713500  0.66057900  0.65837400  1
  O  O38  1  0.67337100  0.18968800  0.82695900  1
  O  O39  1  0.61903100  0.07690200  0.16499700  1
  O  O40  1  0.81819100  0.49271700  0.82606800  1
  O  O41  1  0.67922300  0.34966500  0.97162000  1
  O  O42  1  0.67302800  0.32489300  0.46953900  1
  O  O43  1  0.65925200  0.47302100  0.32239800  1
  O  O44  1  0.47340400  0.08987600  0.68296600  1
  O  O45  1  0.52817800  0.18168200  0.31658400  1
  O  O46  1  0.73509100  0.65094200  0.17155600  1
  O  O47  1  0.79547300  0.79343600  0.74763400  1
  O  O48  1  0.79397900  0.78932500  0.92334100  1
  O  O49  1  0.61924700  0.52649900  0.67399700  1
  O  O50  1  0.52169900  0.33301400  0.82143500  1
  O  O51  1  0.45934200  0.38425200  0.17050700  1
  O  O52  1  0.34550800  0.08977400  0.16461900  1
  O  O53  1  0.19480600  0.98834200  0.92973900  1
  O  O54  1  0.20250600  0.99859700  0.75054700  1
  O  O55  1  0.34528100  0.25602600  0.66625700  1
  O  O56  1  0.23013100  0.23511200  0.43534200  1
  O  O57  1  0.20613500  0.20296400  0.25585800  1
loop_
_geom_bond_atom_site_label_1
_geom_bond_atom_site_label_2
_geom_bond_distance
_geom_bond_site_symmetry_2
Li0 O0 1.888673 1_555
Li0 O27 1.954743 1_555
Li0 O29 2.167008 1_565
Li0 O9 2.478142 1_555
Li1 O7 1.936837 1_555
Li1 O20 1.992415 1_554
Li1 O23 2.167151 1_455
Li1 O14 2.243835 1_555
Li2 O19 1.913695 1_555
Li2 O27 1.969323 1_545
Li2 O17 2.062367 1_655
Li2 O32 2.449025 1_555
Li3 O35 1.865948 1_555
Li3 O28 1.872575 1_555
Li3 O37 2.124081 1_455
Li3 O22 2.536898 1_555
Li4 O48 1.941483 1_555
Li4 O34 1.950902 1_556
Li4 O31 2.214045 1_655
Li4 O40 2.301102 1_555
Li5 O2 2.107247 1_565
Li5 O7 2.259565 1_665
Li5 O53 2.267095 1_654
Li5 O48 2.347687 1_554
Li5 O34 2.389056 1_555
Li5 O20 2.506581 1_664
O0 P13 1.480976 1_555
O1 P1 1.543927 1_555
O1 V4 1.914703 1_555
O2 P8 1.479916 1_555
O3 P0 1.560927 1_555
O3 V2 1.867164 1_565
O4 P0 1.545132 1_555
O4 V5 1.927627 1_555
O5 P3 1.567545 1_555
O5 V4 1.877108 1_555
O6 P2 1.567846 1_555
O6 V4 1.846262 1_555
O7 P15 1.492561 1_555
O8 P5 1.541012 1_555
O8 V5 1.879049 1_555
O9 P4 1.565841 1_555
O9 V2 1.938871 1_565
O10 P1 1.543512 1_555
O10 V3 1.882986 1_565
O11 P4 1.571808 1_555
O11 V5 1.870478 1_555
O12 P3 1.484147 1_555
O13 P4 1.482824 1_555
O14 P3 1.599862 1_555
O14 V0 1.894809 1_555
O15 P7 1.578945 1_555
O15 V2 1.866137 1_565
O16 P3 1.570163 1_555
O16 V3 1.888916 1_565
O17 P2 1.577805 1_555
O17 V0 1.947072 1_555
O18 P5 1.613187 1_655
O18 P6 1.617706 1_555
O19 P6 1.480779 1_555
O20 P5 1.486047 1_555
O21 P5 1.566201 1_555
O21 V1 1.864173 1_455
O22 P4 1.598609 1_555
O22 V1 1.867996 1_455
O23 P8 1.571352 1_555
O23 V0 1.924158 1_655
O24 P9 1.569918 1_555
O24 V0 1.838557 1_555
O25 P9 1.541290 1_555
O25 V3 1.908583 1_565
O26 P1 1.605613 1_545
O26 P8 1.630557 1_555
O27 P1 1.501761 1_555
O28 P14 1.475580 1_565
O29 P6 1.547892 1_555
O29 V2 2.009690 1_555
O30 P6 1.569243 1_555
O30 V1 1.840531 1_555
O31 P7 1.569482 1_555
O31 V1 1.921532 1_455
O32 P11 1.600986 1_555
O32 V0 1.864174 1_655
O33 P10 1.558347 1_555
O33 V0 1.883178 1_655
O34 P10 1.490187 1_555
O35 P9 1.478783 1_555
O36 P10 1.608880 1_555
O36 P9 1.614373 1_655
O37 P13 1.561765 1_555
O37 V1 1.987326 1_555
O38 P12 1.589502 1_555
O38 V2 1.859176 1_555
O39 P8 1.556246 1_555
O39 V3 1.923686 1_555
O40 P12 1.595287 1_555
O40 V1 1.902761 1_555
O41 P12 1.482163 1_555
O42 P11 1.480751 1_555
O43 P11 1.565618 1_555
O43 V4 1.891524 1_555
O44 P14 1.560533 1_555
O44 V2 1.857828 1_555
O45 P11 1.570598 1_555
O45 V3 1.864621 1_555
O46 P10 1.540631 1_555
O46 V4 1.879978 1_555
O47 P13 1.613301 1_555
O47 P0 1.615096 1_555
O48 P0 1.488453 1_555
O49 P13 1.555039 1_555
O49 V5 1.867448 1_555
O50 P12 1.559788 1_555
O50 V5 1.888218 1_555
O51 P15 1.548841 1_555
O51 V4 1.920278 1_555
O52 P15 1.556540 1_555
O52 V3 1.869574 1_555
O53 P7 1.475988 1_555
O54 P7 1.608422 1_555
O54 P14 1.622846 1_565
O55 P14 1.550849 1_555
O55 V5 1.887204 1_555
O56 P2 1.468383 1_555
O57 P15 1.610079 1_555
O57 P2 1.618985 1_555
