# generated using pymatgen
data_Li5V5Cr2O12
_symmetry_space_group_name_H-M   'P 1'
_cell_length_a   5.22586467
_cell_length_b   5.22586467
_cell_length_c   9.98500403
_cell_angle_alpha   84.28063680
_cell_angle_beta   84.28063680
_cell_angle_gamma   120.36476315
_symmetry_Int_Tables_number   1
_chemical_formula_structural   Li5V5Cr2O12
_chemical_formula_sum   'Li5 V5 Cr2 O12'
_cell_volume   230.50740945
_cell_formula_units_Z   1
loop_
 _symmetry_equiv_pos_site_id
 _symmetry_equiv_pos_as_xyz
  1  'x, y, z'
loop_
 _atom_site_type_symbol
 _atom_site_label
 _atom_site_symmetry_multiplicity
 _atom_site_fract_x
 _atom_site_fract_y
 _atom_site_fract_z
 _atom_site_occupancy
  Li  Li0  1  0.84450400  0.67073500  0.76417300  1
  Li  Li1  1  0.67067600  0.83665500  0.23709700  1
  Li  Li2  1  0.32926500  0.15549600  0.23582700  1
  Li  Li3  1  0.16334500  0.32932400  0.76290300  1
  Li  Li4  1  0.08223400  0.91776600  0.00000000  1
  V  V0  1  0.99486300  0.50661500  0.24486600  1
  V  V1  1  0.49338500  0.00513700  0.75513400  1
  V  V2  1  0.58132600  0.41867400  0.50000000  1
  V  V3  1  0.41953300  0.58046700  0.00000000  1
  V  V4  1  0.91767300  0.08232700  0.50000000  1
  Cr  Cr0  1  0.74929700  0.25070300  0.00000000  1
  Cr  Cr1  1  0.24914200  0.75085800  0.50000000  1
  O  O0  1  0.03519900  0.22480500  0.12029600  1
  O  O1  1  0.77519500  0.96480100  0.87970400  1
  O  O2  1  0.87689800  0.37350100  0.61193900  1
  O  O3  1  0.62649900  0.12310200  0.38806100  1
  O  O4  1  0.69907700  0.52213600  0.11830900  1
  O  O5  1  0.47786400  0.30092300  0.88169100  1
  O  O6  1  0.53606500  0.71873800  0.61345600  1
  O  O7  1  0.28126200  0.46393500  0.38654400  1
  O  O8  1  0.38866200  0.86801600  0.11910600  1
  O  O9  1  0.13198400  0.61133800  0.88089400  1
  O  O10  1  0.20577300  0.02972000  0.61506700  1
  O  O11  1  0.97028000  0.79422700  0.38493300  1
loop_
_geom_bond_atom_site_label_1
_geom_bond_atom_site_label_2
_geom_bond_distance
_geom_bond_site_symmetry_2
Li0 O5 2.034500 1_555
Li0 O9 2.111866 1_655
Li0 O10 2.145375 1_665
Li0 O1 2.157850 1_555
Li0 O2 2.331769 1_555
Li0 O6 2.396415 1_555
Li1 O8 2.034364 1_555
Li1 O0 2.069444 1_665
Li1 O4 2.174971 1_555
Li1 O7 2.229340 1_555
Li1 O3 2.301316 1_565
Li1 O11 2.329362 1_555
Li2 O4 2.034500 1_555
Li2 O8 2.111866 1_545
Li2 O11 2.145375 1_445
Li2 O0 2.157850 1_555
Li2 O3 2.331769 1_555
Li2 O7 2.396415 1_555
Li3 O9 2.034364 1_555
Li3 O1 2.069444 1_445
Li3 O5 2.174971 1_555
Li3 O6 2.229340 1_555
Li3 O2 2.301316 1_455
Li3 O10 2.329362 1_555
Li4 O4 2.129736 1_455
Li4 O5 2.129736 1_564
Li4 O9 2.187500 1_554
Li4 O8 2.187500 1_555
Li4 O0 2.191297 1_565
Li4 O1 2.191297 1_454
Cr0 O5 2.031009 1_554
Cr0 O4 2.031009 1_555
Cr0 O1 2.055020 1_544
Cr0 O0 2.055020 1_655
Cr0 O8 2.057770 1_545
Cr0 O9 2.057770 1_654
Cr1 O11 2.027531 1_455
Cr1 O10 2.027531 1_565
Cr1 O7 2.028526 1_555
Cr1 O6 2.028526 1_555
Cr1 O2 2.042365 1_455
Cr1 O3 2.042365 1_565
O0 V3 2.057030 1_555
O0 V0 2.094538 1_455
O1 V3 2.057030 1_556
O1 V1 2.094538 1_565
O2 V4 2.056545 1_555
O2 V2 2.085909 1_555
O2 V1 2.178648 1_555
O3 V4 2.056545 1_555
O3 V2 2.085909 1_555
O3 V0 2.178648 1_555
O4 V3 2.084452 1_555
O4 V0 2.118583 1_555
O5 V3 2.084452 1_556
O5 V1 2.118583 1_555
O6 V4 2.039706 1_565
O6 V2 2.115152 1_555
O6 V1 2.233308 1_565
O7 V4 2.039706 1_455
O7 V2 2.115152 1_555
O7 V0 2.233308 1_455
O8 V3 2.064347 1_555
O8 V0 2.112263 1_455
O9 V3 2.064347 1_556
O9 V1 2.112263 1_565
O10 V2 2.086953 1_555
O10 V4 2.088703 1_455
O10 V1 2.193159 1_555
O11 V2 2.086953 1_555
O11 V4 2.088703 1_565
O11 V0 2.193159 1_555
