# generated using pymatgen
data_Bi4O5F2
_symmetry_space_group_name_H-M   'P 1'
_cell_length_a   5.42117900
_cell_length_b   5.82591300
_cell_length_c   14.09038324
_cell_angle_alpha   88.09588739
_cell_angle_beta   90.00000000
_cell_angle_gamma   90.00000000
_symmetry_Int_Tables_number   1
_chemical_formula_structural   Bi4O5F2
_chemical_formula_sum   'Bi8 O10 F4'
_cell_volume   444.77531771
_cell_formula_units_Z   2
loop_
 _symmetry_equiv_pos_site_id
 _symmetry_equiv_pos_as_xyz
  1  'x, y, z'
loop_
 _atom_site_type_symbol
 _atom_site_label
 _atom_site_symmetry_multiplicity
 _atom_site_fract_x
 _atom_site_fract_y
 _atom_site_fract_z
 _atom_site_occupancy
  Bi  Bi0  1  0.11362200  0.76669100  0.78636800  1
  Bi  Bi1  1  0.71454600  0.79050700  0.54640600  1
  Bi  Bi2  1  0.38637800  0.76669100  0.28636800  1
  Bi  Bi3  1  0.78545400  0.79050700  0.04640600  1
  Bi  Bi4  1  0.21454600  0.20949300  0.95359400  1
  Bi  Bi5  1  0.61362200  0.23330900  0.71363200  1
  Bi  Bi6  1  0.28545400  0.20949300  0.45359400  1
  Bi  Bi7  1  0.88637800  0.23330900  0.21363200  1
  O  O0  1  0.99038800  0.92133000  0.91467400  1
  O  O1  1  0.00000000  0.00000000  0.50000000  1
  O  O2  1  0.80391700  0.88105300  0.70756800  1
  O  O3  1  0.50961200  0.92133000  0.41467400  1
  O  O4  1  0.50000000  0.00000000  0.00000000  1
  O  O5  1  0.69608300  0.88105300  0.20756800  1
  O  O6  1  0.30391700  0.11894700  0.79243200  1
  O  O7  1  0.49038800  0.07867000  0.58532600  1
  O  O8  1  0.19608300  0.11894700  0.29243200  1
  O  O9  1  0.00961200  0.07867000  0.08532600  1
  F  F0  1  0.85530200  0.48081800  0.85870600  1
  F  F1  1  0.35530200  0.51918200  0.64129400  1
  F  F2  1  0.64469800  0.48081800  0.35870600  1
  F  F3  1  0.14469800  0.51918200  0.14129400  1
loop_
_geom_bond_atom_site_label_1
_geom_bond_atom_site_label_2
_geom_bond_distance
_geom_bond_site_symmetry_2
Bi0 O2 2.108670 1_455
Bi0 O0 2.152821 1_455
Bi0 O6 2.301038 1_565
Bi0 F0 2.379288 1_455
Bi1 O1 2.063701 1_665
Bi1 O7 2.158019 1_565
Bi1 O3 2.272988 1_555
Bi1 O2 2.397770 1_555
Bi2 O5 2.108670 1_555
Bi2 O3 2.152821 1_555
Bi2 O8 2.301038 1_565
Bi2 F2 2.379288 1_555
Bi3 O4 2.063701 1_565
Bi3 O9 2.158019 1_665
Bi3 O0 2.272988 1_554
Bi3 O5 2.397770 1_555
Bi4 O4 2.063701 1_556
Bi4 O0 2.158019 1_445
Bi4 O9 2.272988 1_556
Bi4 O6 2.397770 1_555
Bi5 O6 2.108670 1_555
Bi5 O7 2.152821 1_555
Bi5 O2 2.301038 1_545
Bi5 F1 2.379288 1_555
Bi6 O1 2.063701 1_555
Bi6 O3 2.158019 1_545
Bi6 O7 2.272988 1_555
Bi6 O8 2.397770 1_555
Bi7 O8 2.108670 1_655
Bi7 O9 2.152821 1_655
Bi7 O5 2.301038 1_545
Bi7 F3 2.379288 1_655
