# generated using pymatgen
data_Li3Cu3(PO4)2
_symmetry_space_group_name_H-M   'P 1'
_cell_length_a   5.44751600
_cell_length_b   6.19075035
_cell_length_c   10.20976216
_cell_angle_alpha   89.80569272
_cell_angle_beta   89.51634151
_cell_angle_gamma   89.13631265
_symmetry_Int_Tables_number   1
_chemical_formula_structural   Li3Cu3(PO4)2
_chemical_formula_sum   'Li6 Cu6 P4 O16'
_cell_volume   344.26295998
_cell_formula_units_Z   2
loop_
 _symmetry_equiv_pos_site_id
 _symmetry_equiv_pos_as_xyz
  1  'x, y, z'
loop_
 _atom_site_type_symbol
 _atom_site_label
 _atom_site_symmetry_multiplicity
 _atom_site_fract_x
 _atom_site_fract_y
 _atom_site_fract_z
 _atom_site_occupancy
  Li  Li0  1  0.15549200  0.00098000  0.25471600  1
  Li  Li1  1  0.15144400  0.99882200  0.75085200  1
  Li  Li2  1  0.33089400  0.24551000  0.50234100  1
  Li  Li3  1  0.67311900  0.24832300  0.74990000  1
  Li  Li4  1  0.67379100  0.25714600  0.25669900  1
  Li  Li5  1  0.84620800  0.50163500  0.50495100  1
  Cu  Cu0  1  0.34411200  0.26779900  0.98817500  1
  Cu  Cu1  1  0.78353500  0.50355600  0.99870700  1
  Cu  Cu2  1  0.66086300  0.72882400  0.26059200  1
  Cu  Cu3  1  0.65292800  0.74409700  0.76151300  1
  Cu  Cu4  1  0.34857900  0.76632500  0.50422600  1
  Cu  Cu5  1  0.34625700  0.73106700  0.99288000  1
  P  P0  1  0.83848000  0.00562300  0.00402200  1
  P  P1  1  0.82956600  0.00881200  0.50130900  1
  P  P2  1  0.16959600  0.49195200  0.74142300  1
  P  P3  1  0.17481700  0.49411200  0.25686500  1
  O  O0  1  0.83250500  0.01045000  0.34876200  1
  O  O1  1  0.09706300  0.01334600  0.55553400  1
  O  O2  1  0.83553300  0.00992700  0.85175100  1
  O  O3  1  0.10371600  0.00038900  0.05857000  1
  O  O4  1  0.68464700  0.20953700  0.55397100  1
  O  O5  1  0.69615600  0.20612600  0.06168200  1
  O  O6  1  0.31527400  0.28729400  0.78960200  1
  O  O7  1  0.31941300  0.29323500  0.30867600  1
  O  O8  1  0.16566200  0.49324800  0.10448400  1
  O  O9  1  0.90741000  0.49044500  0.31327500  1
  O  O10  1  0.17501700  0.49368100  0.58969300  1
  O  O11  1  0.89879500  0.48371800  0.79116200  1
  O  O12  1  0.29753300  0.71029700  0.30106400  1
  O  O13  1  0.28729000  0.70562000  0.79264000  1
  O  O14  1  0.70755500  0.79458500  0.55172000  1
  O  O15  1  0.69674700  0.80351900  0.05565400  1
loop_
_geom_bond_atom_site_label_1
_geom_bond_atom_site_label_2
_geom_bond_distance
_geom_bond_site_symmetry_2
Li0 O0 1.997475 1_455
Li0 O12 2.004853 1_545
Li0 O3 2.024748 1_555
Li0 O7 2.106692 1_555
Li1 O13 1.995990 1_555
Li1 O2 1.998632 1_465
Li1 O1 2.020008 1_565
Li1 O6 2.049661 1_565
Li2 O10 1.958066 1_555
Li2 O7 1.999596 1_555
Li2 O1 2.005360 1_555
Li2 O4 2.011093 1_555
Li3 O11 1.969617 1_555
Li3 O6 1.998922 1_555
Li3 O2 2.002004 1_555
Li3 O4 2.015896 1_555
Li4 O0 1.981826 1_555
Li4 O7 2.007184 1_555
Li4 O5 2.019407 1_555
Li4 O9 2.027991 1_555
Li5 O9 1.983653 1_555
Li5 O10 1.995639 1_655
Li5 O14 2.011484 1_555
Li5 O4 2.080732 1_555
Cu0 O6 2.037811 1_555
Cu0 O8 2.062510 1_556
Cu0 O5 2.094543 1_556
Cu0 O3 2.239079 1_556
Cu1 O15 1.996550 1_556
Cu1 O5 2.010880 1_556
Cu1 O11 2.208256 1_555
Cu1 O8 2.353104 1_656
Cu2 O12 2.023370 1_555
Cu2 O9 2.053785 1_555
Cu2 O15 2.149257 1_555
Cu2 O0 2.190509 1_565
Cu3 O13 2.031793 1_555
Cu3 O11 2.102934 1_555
Cu3 O2 2.149818 1_565
Cu3 O14 2.182119 1_555
Cu4 O14 2.028971 1_555
Cu4 O1 2.102481 1_565
Cu4 O12 2.125468 1_555
Cu4 O10 2.128019 1_555
Cu5 O15 2.075041 1_556
Cu5 O13 2.079034 1_555
Cu5 O8 2.108830 1_556
Cu5 O3 2.213960 1_566
O0 P1 1.557416 1_555
O1 P1 1.563861 1_455
O2 P0 1.555003 1_556
O3 P0 1.552718 1_455
O4 P1 1.557002 1_555
O5 P0 1.567369 1_555
O6 P2 1.564942 1_555
O7 P3 1.555572 1_555
O8 P3 1.557024 1_555
O9 P3 1.562352 1_655
O10 P2 1.549163 1_555
O11 P2 1.557601 1_655
O12 P3 1.574122 1_555
O13 P2 1.571663 1_555
O14 P1 1.575345 1_565
O15 P0 1.567556 1_565
