# generated using pymatgen
data_Li4V3Sb5O16
_symmetry_space_group_name_H-M   'P 1'
_cell_length_a   6.21614380
_cell_length_b   6.50962565
_cell_length_c   10.38593859
_cell_angle_alpha   88.65024955
_cell_angle_beta   89.95676535
_cell_angle_gamma   120.88356999
_symmetry_Int_Tables_number   1
_chemical_formula_structural   Li4V3Sb5O16
_chemical_formula_sum   'Li4 V3 Sb5 O16'
_cell_volume   360.53569374
_cell_formula_units_Z   1
loop_
 _symmetry_equiv_pos_site_id
 _symmetry_equiv_pos_as_xyz
  1  'x, y, z'
loop_
 _atom_site_type_symbol
 _atom_site_label
 _atom_site_symmetry_multiplicity
 _atom_site_fract_x
 _atom_site_fract_y
 _atom_site_fract_z
 _atom_site_occupancy
  Li  Li0  1  0.32558100  0.66146800  0.87815200  1
  Li  Li1  1  0.98386400  0.98321900  0.99304600  1
  Li  Li2  1  0.99983600  0.99146600  0.50060000  1
  Li  Li3  1  0.66120900  0.34816700  0.40351700  1
  V  V0  1  0.66736200  0.83958200  0.22140000  1
  V  V1  1  0.83679000  0.66326400  0.71810500  1
  V  V2  1  0.83894800  0.17993800  0.71265200  1
  Sb  Sb0  1  0.16029900  0.82902900  0.21586100  1
  Sb  Sb1  1  0.36499400  0.67507300  0.50640700  1
  Sb  Sb2  1  0.17975900  0.35361600  0.21677700  1
  Sb  Sb3  1  0.33588800  0.17452400  0.71653300  1
  Sb  Sb4  1  0.66463800  0.29573500  0.99302300  1
  O  O0  1  0.16267800  0.87272200  0.61781300  1
  O  O1  1  0.00397400  0.50614700  0.31425400  1
  O  O2  1  0.32720600  0.68520800  0.10957500  1
  O  O3  1  0.00253500  0.97291800  0.32328300  1
  O  O4  1  0.00292300  0.00971600  0.81393300  1
  O  O5  1  0.16405500  0.30259500  0.59947700  1
  O  O6  1  0.47779200  0.97134400  0.32148700  1
  O  O7  1  0.50995500  0.56191000  0.35805600  1
  O  O8  1  0.31145500  0.09754000  0.08032400  1
  O  O9  1  0.69378100  0.85030400  0.60937100  1
  O  O10  1  0.50456000  0.47779000  0.81722700  1
  O  O11  1  0.51893900  0.04474300  0.83291400  1
  O  O12  1  0.65850800  0.33107500  0.60955100  1
  O  O13  1  0.83858700  0.70915200  0.11954700  1
  O  O14  1  0.97698700  0.48136200  0.80911200  1
  O  O15  1  0.82689500  0.13069600  0.09584200  1
loop_
_geom_bond_atom_site_label_1
_geom_bond_atom_site_label_2
_geom_bond_distance
_geom_bond_site_symmetry_2
Li0 O14 2.004518 1_455
Li0 O10 2.113771 1_555
Li0 O11 2.180754 1_565
Li0 O2 2.411835 1_556
Li1 O4 1.862234 1_665
Li1 O13 1.989574 1_556
Li1 O8 2.000267 1_666
Li1 O15 2.005469 1_566
Li2 O3 1.849019 1_655
Li2 O0 1.965937 1_655
Li2 O9 1.973116 1_555
Li2 O5 2.043459 1_665
Li3 O1 2.039490 1_655
Li3 O7 2.087009 1_555
Li3 O12 2.139733 1_555
Li3 O6 2.296010 1_545
O0 Sb3 1.998814 1_565
O0 V1 2.035233 1_455
O0 Sb1 2.510945 1_555
O1 Sb0 2.051064 1_555
O1 Sb2 2.089098 1_555
O2 Sb0 2.053202 1_555
O2 Sb2 2.143181 1_555
O2 V0 2.169561 1_555
O3 Sb0 2.018513 1_555
O3 V0 2.098587 1_455
O3 Sb2 2.375926 1_565
O4 Sb3 2.030849 1_555
O4 V2 2.116480 1_455
O4 V1 2.204454 1_445
O5 Sb3 2.045085 1_555
O5 V2 2.097364 1_455
O5 Sb1 2.269864 1_555
O6 Sb0 2.032464 1_555
O6 V0 2.069449 1_555
O6 Sb1 2.516941 1_555
O7 V0 2.073744 1_555
O7 Sb1 2.112204 1_555
O7 Sb2 2.333593 1_555
O8 Sb0 2.028711 1_545
O8 Sb4 2.083428 1_554
O8 Sb2 2.639665 1_555
O9 Sb1 2.071052 1_555
O9 V1 2.143811 1_555
O9 V2 2.165971 1_565
O10 Sb3 2.016010 1_555
O10 V1 2.039866 1_555
O10 Sb4 2.615271 1_555
O11 Sb3 2.100079 1_555
O11 V2 2.106863 1_555
O11 Sb4 2.205926 1_555
O12 Sb3 2.034738 1_555
O12 V2 2.111324 1_555
O12 V1 2.198164 1_555
O13 V0 1.985223 1_555
O13 Sb0 2.011603 1_655
O13 Sb4 2.705529 1_554
O14 V2 1.988837 1_555
O14 V1 2.015662 1_555
O14 Sb4 2.521018 1_555
O15 V0 2.056092 1_545
O15 Sb4 2.090896 1_554
O15 Sb2 2.305864 1_655
