# generated using pymatgen
data_K4ZrH10C8O21
_symmetry_space_group_name_H-M   'P 1'
_cell_length_a   11.08178547
_cell_length_b   12.63443768
_cell_length_c   16.53605499
_cell_angle_alpha   90.00000000
_cell_angle_beta   96.55791583
_cell_angle_gamma   90.00000000
_symmetry_Int_Tables_number   1
_chemical_formula_structural   K4ZrH10C8O21
_chemical_formula_sum   'K16 Zr4 H40 C32 O84'
_cell_volume   2300.09939049
_cell_formula_units_Z   4
loop_
 _symmetry_equiv_pos_site_id
 _symmetry_equiv_pos_as_xyz
  1  'x, y, z'
loop_
 _atom_site_type_symbol
 _atom_site_label
 _atom_site_symmetry_multiplicity
 _atom_site_fract_x
 _atom_site_fract_y
 _atom_site_fract_z
 _atom_site_occupancy
  K  K0  1  0.50514910  0.57674945  0.81659446  1
  K  K1  1  0.49485090  0.07674945  0.68340554  1
  K  K2  1  0.49485090  0.42325055  0.18340554  1
  K  K3  1  0.50514910  0.92325055  0.31659446  1
  K  K4  1  0.86630922  0.34667568  0.76084240  1
  K  K5  1  0.13369078  0.84667568  0.73915760  1
  K  K6  1  0.13369078  0.65332432  0.23915760  1
  K  K7  1  0.86630922  0.15332332  0.26084240  1
  K  K8  1  0.59723232  0.15999207  0.09282674  1
  K  K9  1  0.40276768  0.65999207  0.40717326  1
  K  K10  1  0.40276768  0.84000793  0.90717326  1
  K  K11  1  0.59723232  0.34000793  0.59282674  1
  K  K12  1  0.01627103  0.73767343  0.00579230  1
  K  K13  1  0.98372897  0.23767343  0.49420770  1
  K  K14  1  0.98372897  0.26232657  0.99420770  1
  K  K15  1  0.01627103  0.76232657  0.50579230  1
  Zr  Zr0  1  0.25065653  0.34404909  0.82758185  1
  Zr  Zr1  1  0.74934347  0.84404909  0.67241815  1
  Zr  Zr2  1  0.74934347  0.65595091  0.17241815  1
  Zr  Zr3  1  0.25065653  0.15595091  0.32758185  1
  H  H0  1  0.89508680  0.38813241  0.34140154  1
  H  H1  1  0.10491320  0.88813241  0.15859846  1
  H  H2  1  0.10491320  0.61186759  0.65859846  1
  H  H3  1  0.89508680  0.11186759  0.84140154  1
  H  H4  1  0.78923673  0.37021475  0.39714182  1
  H  H5  1  0.21076327  0.87021475  0.10285818  1
  H  H6  1  0.21076327  0.62978525  0.60285818  1
  H  H7  1  0.78923673  0.12978525  0.89714182  1
  H  H8  1  0.68020003  0.20489841  0.77636513  1
  H  H9  1  0.31979997  0.70489841  0.72363487  1
  H  H10  1  0.31979997  0.79510159  0.22363487  1
  H  H11  1  0.68020003  0.29510159  0.27636513  1
  H  H12  1  0.63063024  0.32393543  0.77642492  1
  H  H13  1  0.36936976  0.82393543  0.72357508  1
  H  H14  1  0.36936976  0.67606457  0.22357508  1
  H  H15  1  0.63063024  0.17606457  0.27642492  1
  H  H16  1  0.17518711  0.50403027  0.50358817  1
  H  H17  1  0.82481289  0.00403027  0.99641183  1
  H  H18  1  0.82481289  0.49596973  0.49641183  1
  H  H19  1  0.17518711  0.99596973  0.00358817  1
  H  H20  1  0.09542192  0.55521339  0.43157220  1
  H  H21  1  0.90457808  0.05521339  0.06842780  1
  H  H22  1  0.90457808  0.44478661  0.56842780  1
  H  H23  1  0.09542192  0.94478661  0.93157220  1
  H  H24  1  0.55939789  0.05326473  0.91581938  1
  H  H25  1  0.44060211  0.55326473  0.58418062  1
  H  H26  1  0.44060211  0.94673527  0.08418062  1
  H  H27  1  0.55939789  0.44673527  0.41581938  1
  H  H28  1  0.48615269  0.15458637  0.88528163  1
  H  H29  1  0.51384731  0.65458637  0.61471837  1
  H  H30  1  0.51384731  0.84541363  0.11471837  1
  H  H31  1  0.48615269  0.34541363  0.38528163  1
  H  H32  1  0.26974957  0.63129836  0.01352336  1
  H  H33  1  0.73025043  0.13129836  0.48647664  1
  H  H34  1  0.73025043  0.36870164  0.98647664  1
  H  H35  1  0.26974957  0.86870164  0.51352336  1
  H  H36  1  0.25459109  0.58529178  0.10095125  1
  H  H37  1  0.74540891  0.08529178  0.39904875  1
  H  H38  1  0.74540891  0.41470822  0.89904875  1
  H  H39  1  0.25459109  0.91470822  0.60095125  1
  C  C0  1  0.17052811  0.38795933  0.64678173  1
  C  C1  1  0.82947189  0.88795933  0.85321827  1
  C  C2  1  0.82947189  0.61204067  0.35321827  1
  C  C3  1  0.17052811  0.11204067  0.14678173  1
  C  C4  1  0.31015478  0.40556520  0.65750439  1
  C  C5  1  0.68984522  0.90556520  0.84249561  1
  C  C6  1  0.68984522  0.59443480  0.34249561  1
  C  C7  1  0.31015478  0.09443480  0.15750439  1
  C  C8  1  0.44009329  0.35687958  0.97568647  1
  C  C9  1  0.55990671  0.85687958  0.52431353  1
  C  C10  1  0.55990671  0.64312042  0.02431353  1
  C  C11  1  0.44009329  0.14312042  0.47568647  1
  C  C12  1  0.31782084  0.33498392  0.01131447  1
  C  C13  1  0.68217916  0.83498392  0.48868553  1
  C  C14  1  0.68217916  0.66501608  0.98868553  1
  C  C15  1  0.31782084  0.16501608  0.51131447  1
  C  C16  1  0.17347048  0.58117728  0.86015797  1
  C  C17  1  0.82652952  0.08117728  0.63984203  1
  C  C18  1  0.82652952  0.41882272  0.13984203  1
  C  C19  1  0.17347048  0.91882272  0.36015797  1
  C  C20  1  0.05271460  0.51675949  0.87425057  1
  C  C21  1  0.94728540  0.01675949  0.62574943  1
  C  C22  1  0.94728540  0.48324051  0.12574943  1
  C  C23  1  0.05271460  0.98324051  0.37425057  1
  C  C24  1  0.11286950  0.13292288  0.82297126  1
  C  C25  1  0.88713050  0.63292288  0.67702874  1
  C  C26  1  0.88713050  0.86707712  0.17702874  1
  C  C27  1  0.11286950  0.36707712  0.32297126  1
  C  C28  1  0.24758182  0.10292915  0.81692989  1
  C  C29  1  0.75241818  0.60292915  0.68307011  1
  C  C30  1  0.75241818  0.89707085  0.18307011  1
  C  C31  1  0.24758182  0.39707085  0.31692989  1
  O  O0  1  0.12737046  0.36448964  0.71440120  1
  O  O1  1  0.87262954  0.86448964  0.78559880  1
  O  O2  1  0.87262954  0.63551036  0.28559880  1
  O  O3  1  0.12737046  0.13551036  0.21440120  1
  O  O4  1  0.10990302  0.39715835  0.57920157  1
  O  O5  1  0.89009698  0.89715835  0.92079843  1
  O  O6  1  0.89009698  0.60284165  0.42079843  1
  O  O7  1  0.10990302  0.10284165  0.07920157  1
  O  O8  1  0.36134143  0.38686823  0.73046498  1
  O  O9  1  0.63865857  0.88686823  0.76953502  1
  O  O10  1  0.63865857  0.61313177  0.26953502  1
  O  O11  1  0.36134143  0.11313177  0.23046498  1
  O  O12  1  0.36216757  0.43645129  0.59916830  1
  O  O13  1  0.63783243  0.93645129  0.90083170  1
  O  O14  1  0.63783243  0.56354871  0.40083170  1
  O  O15  1  0.36216757  0.06354871  0.09916830  1
  O  O16  1  0.42728762  0.36730290  0.89699988  1
  O  O17  1  0.57271238  0.86730290  0.60300012  1
  O  O18  1  0.57271238  0.63269710  0.10300012  1
  O  O19  1  0.42728762  0.13269710  0.39699988  1
  O  O20  1  0.53682509  0.36091400  0.02135152  1
  O  O21  1  0.46317491  0.86091400  0.47864848  1
  O  O22  1  0.46317491  0.63908600  0.97864848  1
  O  O23  1  0.53682509  0.13908600  0.52135152  1
  O  O24  1  0.22387387  0.33542295  0.95497514  1
  O  O25  1  0.77612613  0.83542295  0.54502486  1
  O  O26  1  0.77612613  0.66457705  0.04502486  1
  O  O27  1  0.22387387  0.16457705  0.45497514  1
  O  O28  1  0.31483972  0.31624423  0.08402568  1
  O  O29  1  0.68516028  0.81624423  0.41597432  1
  O  O30  1  0.68516028  0.68375577  0.91597432  1
  O  O31  1  0.31483972  0.18375577  0.58402568  1
  O  O32  1  0.25486041  0.52072714  0.83677387  1
  O  O33  1  0.74513959  0.02072714  0.66322613  1
  O  O34  1  0.74513959  0.47927286  0.16322613  1
  O  O35  1  0.25486041  0.97927286  0.33677387  1
  O  O36  1  0.17373185  0.67784181  0.87054229  1
  O  O37  1  0.82626815  0.17784181  0.62945771  1
  O  O38  1  0.82626815  0.32215819  0.12945771  1
  O  O39  1  0.17373185  0.82215819  0.37054229  1
  O  O40  1  0.66330562  0.42500703  0.82135979  1
  O  O41  1  0.33669438  0.92500703  0.67864021  1
  O  O42  1  0.33669438  0.57499297  0.17864021  1
  O  O43  1  0.66330562  0.07499297  0.32135979  1
  O  O44  1  0.96126514  0.55379192  0.89245047  1
  O  O45  1  0.03873486  0.05379192  0.60754953  1
  O  O46  1  0.03873486  0.44620808  0.10754953  1
  O  O47  1  0.96126514  0.94620808  0.39245047  1
  O  O48  1  0.09511033  0.23323179  0.83278176  1
  O  O49  1  0.90488967  0.73323179  0.66721824  1
  O  O50  1  0.90488967  0.76676821  0.16721824  1
  O  O51  1  0.09511033  0.26676821  0.33278176  1
  O  O52  1  0.03364538  0.06265007  0.81960118  1
  O  O53  1  0.96635462  0.56265007  0.68039882  1
  O  O54  1  0.96635462  0.93734993  0.18039882  1
  O  O55  1  0.03364538  0.43734993  0.31960118  1
  O  O56  1  0.31862771  0.18556983  0.81519243  1
  O  O57  1  0.68137229  0.68556983  0.68480757  1
  O  O58  1  0.68137229  0.81443017  0.18480757  1
  O  O59  1  0.31862771  0.31443017  0.31519243  1
  O  O60  1  0.27988282  0.00985587  0.81536537  1
  O  O61  1  0.72011718  0.50985587  0.68463463  1
  O  O62  1  0.72011718  0.99014413  0.18463463  1
  O  O63  1  0.27988282  0.49014413  0.31536537  1
  O  O64  1  0.17591990  0.65729983  0.65018997  1
  O  O65  1  0.82408010  0.15729983  0.84981003  1
  O  O66  1  0.82408010  0.34270017  0.34981003  1
  O  O67  1  0.17591990  0.84270017  0.15018997  1
  O  O68  1  0.37834243  0.75138836  0.75520886  1
  O  O69  1  0.62165757  0.25138836  0.74479114  1
  O  O70  1  0.62165757  0.24861164  0.24479114  1
  O  O71  1  0.37834243  0.74861164  0.25520886  1
  O  O72  1  0.16561353  0.93014800  0.97158673  1
  O  O73  1  0.83438647  0.43014800  0.52841327  1
  O  O74  1  0.83438647  0.06985200  0.02841327  1
  O  O75  1  0.16561353  0.56985200  0.47158673  1
  O  O76  1  0.46697652  0.62341686  0.56701600  1
  O  O77  1  0.53302348  0.12341686  0.93298400  1
  O  O78  1  0.53302348  0.37658314  0.43298400  1
  O  O79  1  0.46697652  0.87658314  0.06701600  1
  O  O80  1  0.20607797  0.60851470  0.04578424  1
  O  O81  1  0.79392203  0.10851470  0.45421576  1
  O  O82  1  0.79392203  0.39148530  0.95421576  1
  O  O83  1  0.20607797  0.89148530  0.54578424  1
loop_
_geom_bond_atom_site_label_1
_geom_bond_atom_site_label_2
_geom_bond_distance
_geom_bond_site_symmetry_2
K0 O40 2.592691 1_555
K0 O68 2.747318 1_555
K0 O30 2.785502 1_555
K0 O22 2.881379 1_555
K0 O32 2.918366 1_555
K0 O16 3.126809 1_555
K0 O8 3.131315 1_555
K0 O57 3.380110 1_555
K1 O41 2.592691 1_545
K1 O69 2.747318 1_555
K1 O31 2.785502 1_555
K1 O23 2.881379 1_555
K1 O33 2.918366 1_555
K1 O17 3.126809 1_545
K1 O9 3.131315 1_545
K1 O56 3.380110 1_555
K2 O42 2.592691 1_555
K2 O70 2.747318 1_555
K2 O28 2.785502 1_555
K2 O20 2.881379 1_555
K2 O34 2.918366 1_555
K2 O18 3.126809 1_555
K2 O10 3.131315 1_555
K2 O59 3.380110 1_555
K3 O43 2.592691 1_565
K3 O71 2.747318 1_555
K3 O29 2.785502 1_555
K3 O21 2.881379 1_555
K3 O35 2.918366 1_555
K3 O19 3.126809 1_565
K3 O11 3.131315 1_565
K3 O58 3.380110 1_555
K4 O40 2.748818 1_555
K4 O61 2.827880 1_555
K4 O65 2.874964 1_555
K4 O48 3.034701 1_655
K4 O37 3.040892 1_555
K4 O0 3.085040 1_655
K4 O53 3.283505 1_555
K5 O41 2.748818 1_555
K5 O60 2.827880 1_565
K5 O64 2.874964 1_555
K5 O49 3.034701 1_455
K5 O36 3.040892 1_555
K5 O1 3.085040 1_455
K5 O52 3.283505 1_565
K6 O42 2.748818 1_555
K6 O63 2.827880 1_555
K6 O67 2.874964 1_555
K6 O50 3.034701 1_455
K6 O39 3.040892 1_555
K6 O2 3.085040 1_455
K6 O55 3.283505 1_555
K7 O43 2.748814 1_555
K7 O62 2.827871 1_545
K7 O66 2.874975 1_555
K7 O51 3.034707 1_655
K7 O38 3.040901 1_555
K7 O3 3.085039 1_655
K7 O54 3.283495 1_545
K8 O77 2.697516 1_554
K8 O70 2.736085 1_555
K8 O20 2.847542 1_555
K8 O62 2.879586 1_545
K8 O15 2.888572 1_555
K8 O74 3.158769 1_555
K8 O38 3.264311 1_555
K9 O76 2.697516 1_555
K9 O71 2.736085 1_555
K9 O21 2.847542 1_555
K9 O63 2.879586 1_555
K9 O14 2.888572 1_555
K9 O75 3.158769 1_555
K9 O39 3.264311 1_555
K10 O79 2.697516 1_556
K10 O68 2.736085 1_555
K10 O22 2.847542 1_555
K10 O60 2.879586 1_565
K10 O13 2.888572 1_555
K10 O72 3.158769 1_555
K10 O36 3.264311 1_555
K11 O78 2.697516 1_555
K11 O69 2.736085 1_555
K11 O23 2.847542 1_555
K11 O61 2.879586 1_555
K11 O12 2.888572 1_555
K11 O73 3.158769 1_555
K11 O37 3.264311 1_555
K12 O80 2.684553 1_555
K12 O5 2.746224 1_454
K12 O26 2.958093 1_455
K12 O44 3.003461 1_454
K12 O36 3.083769 1_554
K12 O50 3.088144 1_455
K13 O81 2.684553 1_555
K13 O4 2.746224 1_655
K13 O27 2.958093 1_655
K13 O45 3.003461 1_655
K13 O37 3.083769 1_555
K13 O51 3.088144 1_655
K14 O82 2.684553 1_555
K14 O7 2.746224 1_656
K14 O24 2.958093 1_655
K14 O46 3.003461 1_656
K14 O38 3.083769 1_556
K14 O48 3.088144 1_655
K15 O83 2.684553 1_555
K15 O6 2.746224 1_455
K15 O25 2.958093 1_455
K15 O47 3.003461 1_455
K15 O39 3.083769 1_555
K15 O49 3.088144 1_455
H0 O66 0.996491 1_555
H1 O67 0.996491 1_555
H2 O64 0.996491 1_555
H3 O65 0.996491 1_555
H4 O66 0.975480 1_555
H5 O67 0.975480 1_555
H6 O64 0.975480 1_555
H7 O65 0.975480 1_555
H8 O69 0.980368 1_555
H8 K4 2.765694 1_555
H8 K1 2.912406 1_555
H9 O68 0.980368 1_555
H9 K5 2.765694 1_555
H9 K0 2.912406 1_555
H10 O71 0.980368 1_555
H10 K6 2.765694 1_555
H10 K3 2.912406 1_555
H11 O70 0.980368 1_555
H11 K7 2.765702 1_555
H11 K2 2.912406 1_555
H12 O69 1.054409 1_555
H12 O40 1.500821 1_555
H12 K4 2.669057 1_555
H13 O68 1.054409 1_555
H13 O41 1.500821 1_555
H13 K5 2.669057 1_555
H14 O71 1.054409 1_555
H14 O42 1.500821 1_555
H14 K6 2.669057 1_555
H15 O70 1.054409 1_555
H15 O43 1.500821 1_555
H15 K7 2.669059 1_555
H16 O75 0.984913 1_555
H17 O74 0.984913 1_556
H18 O73 0.984913 1_555
H19 O72 0.984913 1_554
H20 O75 0.979549 1_555
H21 O74 0.979549 1_555
H22 O73 0.979549 1_555
H23 O72 0.979549 1_555
H24 O77 0.985151 1_555
H25 O76 0.985151 1_555
H26 O79 0.985151 1_555
H27 O78 0.985151 1_555
H28 O77 0.976478 1_555
H29 O76 0.976478 1_555
H30 O79 0.976478 1_555
H31 O78 0.976478 1_555
H32 O80 0.975342 1_555
H33 O81 0.975342 1_555
H34 O82 0.975342 1_555
H35 O83 0.975342 1_555
H36 O80 1.046558 1_555
H36 O42 1.492699 1_555
H36 K6 2.907965 1_555
H37 O81 1.046558 1_555
H37 O43 1.492699 1_555
H37 K7 2.907962 1_555
H38 O82 1.046558 1_555
H38 O40 1.492699 1_555
H38 K4 2.907965 1_555
H39 O83 1.046558 1_555
H39 O41 1.492699 1_555
H39 K5 2.907965 1_555
C0 O4 1.241856 1_555
C0 O0 1.299652 1_555
C1 O5 1.241856 1_555
C1 O1 1.299652 1_555
C2 O6 1.241856 1_555
C2 O2 1.299652 1_555
C3 O7 1.241856 1_555
C3 O3 1.299652 1_555
C4 O12 1.241797 1_555
C4 O8 1.294928 1_555
C5 O13 1.241797 1_555
C5 O9 1.294928 1_555
C6 O14 1.241797 1_555
C6 O10 1.294928 1_555
C7 O15 1.241797 1_555
C7 O11 1.294928 1_555
C8 O20 1.239763 1_556
C8 O16 1.299360 1_555
C9 O21 1.239763 1_555
C9 O17 1.299360 1_555
C10 O22 1.239763 1_554
C10 O18 1.299360 1_555
C11 O23 1.239763 1_555
C11 O19 1.299360 1_555
C12 O28 1.229587 1_555
C12 O24 1.315413 1_554
C13 O29 1.229587 1_555
C13 O25 1.315413 1_555
C14 O30 1.229587 1_555
C14 O26 1.315413 1_556
C15 O31 1.229587 1_555
C15 O27 1.315413 1_555
C16 O36 1.233272 1_555
C16 O32 1.275151 1_555
C17 O37 1.233272 1_555
C17 O33 1.275151 1_555
C18 O38 1.233272 1_555
C18 O34 1.275151 1_555
C19 O39 1.233272 1_555
C19 O35 1.275151 1_555
C20 O44 1.185825 1_455
C20 K4 3.393664 1_455
C21 O45 1.185825 1_655
C21 K5 3.393664 1_645
C22 O46 1.185825 1_655
C22 K6 3.393664 1_655
C23 O47 1.185825 1_455
C23 K7 3.393656 1_465
C24 O52 1.245395 1_555
C24 O48 1.295573 1_555
C25 O53 1.245395 1_555
C25 O49 1.295573 1_555
C26 O54 1.245395 1_555
C26 O50 1.295573 1_555
C27 O55 1.245395 1_555
C27 O51 1.295573 1_555
C28 O60 1.230334 1_555
C28 O56 1.309978 1_555
C29 O61 1.230334 1_555
C29 O57 1.309978 1_555
C30 O62 1.230334 1_555
C30 O58 1.309978 1_555
C31 O63 1.230334 1_555
C31 O59 1.309978 1_555
O0 Zr0 2.202718 1_555
O1 Zr1 2.202718 1_555
O2 Zr2 2.202718 1_555
O3 Zr3 2.202718 1_555
O8 Zr0 2.196847 1_555
O9 Zr1 2.196847 1_555
O10 Zr2 2.196847 1_555
O11 Zr3 2.196847 1_555
O16 Zr0 2.173048 1_555
O17 Zr1 2.173048 1_555
O18 Zr2 2.173048 1_555
O19 Zr3 2.173048 1_555
O24 Zr0 2.163439 1_555
O25 Zr1 2.163439 1_555
O26 Zr2 2.163439 1_555
O27 Zr3 2.163439 1_555
O32 Zr0 2.237520 1_555
O33 Zr1 2.237520 1_545
O34 Zr2 2.237520 1_555
O35 Zr3 2.237520 1_565
O48 Zr0 2.229980 1_555
O49 Zr1 2.229980 1_555
O50 Zr2 2.229980 1_555
O51 Zr3 2.229980 1_555
O56 Zr0 2.157263 1_555
O57 Zr1 2.157263 1_555
O58 Zr2 2.157263 1_555
O59 Zr3 2.157263 1_555
