# generated using pymatgen
data_Ba2CaI6
_symmetry_space_group_name_H-M   'P 1'
_cell_length_a   8.31340200
_cell_length_b   8.31340200
_cell_length_c   24.64043800
_cell_angle_alpha   90.00000000
_cell_angle_beta   90.00000000
_cell_angle_gamma   90.00000000
_symmetry_Int_Tables_number   1
_chemical_formula_structural   Ba2CaI6
_chemical_formula_sum   'Ba8 Ca4 I24'
_cell_volume   1702.96603667
_cell_formula_units_Z   4
loop_
 _symmetry_equiv_pos_site_id
 _symmetry_equiv_pos_as_xyz
  1  'x, y, z'
loop_
 _atom_site_type_symbol
 _atom_site_label
 _atom_site_symmetry_multiplicity
 _atom_site_fract_x
 _atom_site_fract_y
 _atom_site_fract_z
 _atom_site_occupancy
  Ba  Ba0  1  0.00000000  0.50000000  0.16353600  1
  Ba  Ba1  1  0.00000000  0.00000000  0.33370500  1
  Ba  Ba2  1  0.00000000  0.00000000  0.66629500  1
  Ba  Ba3  1  0.00000000  0.50000000  0.83646400  1
  Ba  Ba4  1  0.50000000  0.50000000  0.33370500  1
  Ba  Ba5  1  0.50000000  0.00000000  0.16353600  1
  Ba  Ba6  1  0.50000000  0.00000000  0.83646400  1
  Ba  Ba7  1  0.50000000  0.50000000  0.66629500  1
  Ca  Ca0  1  0.00000000  0.00000000  0.00000000  1
  Ca  Ca1  1  0.00000000  0.50000000  0.50000000  1
  Ca  Ca2  1  0.50000000  0.00000000  0.50000000  1
  Ca  Ca3  1  0.50000000  0.50000000  0.00000000  1
  I  I0  1  0.20165600  0.69739000  0.58336300  1
  I  I1  1  0.20030400  0.79983100  0.08101600  1
  I  I2  1  0.20016900  0.20030400  0.91898400  1
  I  I3  1  0.19739000  0.70165600  0.41663700  1
  I  I4  1  0.24146600  0.25405400  0.24883800  1
  I  I5  1  0.24594600  0.25853400  0.75116200  1
  I  I6  1  0.25405400  0.75853400  0.75116200  1
  I  I7  1  0.25853400  0.75405400  0.24883800  1
  I  I8  1  0.29983100  0.70030400  0.91898400  1
  I  I9  1  0.30261000  0.20165600  0.41663700  1
  I  I10  1  0.29969600  0.29983100  0.08101600  1
  I  I11  1  0.29834400  0.19739000  0.58336300  1
  I  I12  1  0.70165600  0.80261000  0.58336300  1
  I  I13  1  0.70030400  0.70016900  0.08101600  1
  I  I14  1  0.70016900  0.29969600  0.91898400  1
  I  I15  1  0.69739000  0.79834400  0.41663700  1
  I  I16  1  0.74146600  0.24594600  0.24883800  1
  I  I17  1  0.74594600  0.24146600  0.75116200  1
  I  I18  1  0.75405400  0.74146600  0.75116200  1
  I  I19  1  0.75853400  0.74594600  0.24883800  1
  I  I20  1  0.80261000  0.29834400  0.41663700  1
  I  I21  1  0.79983100  0.79969600  0.91898400  1
  I  I22  1  0.79969600  0.20016900  0.08101600  1
  I  I23  1  0.79834400  0.30261000  0.58336300  1
loop_
_geom_bond_atom_site_label_1
_geom_bond_atom_site_label_2
_geom_bond_distance
_geom_bond_site_symmetry_2
Ba0 I4 3.553611 1_555
Ba0 I19 3.553611 1_455
Ba0 I13 3.620932 1_455
Ba0 I10 3.620932 1_555
Ba0 I1 3.622220 1_555
Ba0 I22 3.622220 1_455
Ba0 I7 3.673981 1_555
Ba0 I16 3.673981 1_455
Ba1 I19 3.586557 1_445
Ba1 I4 3.586557 1_555
Ba1 I20 3.608365 1_455
Ba1 I3 3.608365 1_545
Ba1 I7 3.629465 1_545
Ba1 I16 3.629465 1_455
Ba1 I15 3.648990 1_445
Ba1 I9 3.648990 1_555
Ba2 I17 3.586557 1_455
Ba2 I6 3.586557 1_545
Ba2 I12 3.608365 1_445
Ba2 I11 3.608365 1_555
Ba2 I5 3.629465 1_555
Ba2 I18 3.629465 1_445
Ba2 I23 3.648990 1_455
Ba2 I0 3.648990 1_545
Ba3 I18 3.553611 1_455
Ba3 I5 3.553611 1_555
Ba3 I2 3.620932 1_555
Ba3 I21 3.620932 1_455
Ba3 I14 3.622220 1_455
Ba3 I8 3.622220 1_555
Ba3 I17 3.673981 1_455
Ba3 I6 3.673981 1_555
Ba4 I16 3.586557 1_555
Ba4 I7 3.586557 1_555
Ba4 I15 3.608365 1_555
Ba4 I9 3.608365 1_555
Ba4 I19 3.629465 1_555
Ba4 I4 3.629465 1_555
Ba4 I3 3.648990 1_555
Ba4 I20 3.648990 1_555
Ba5 I16 3.553611 1_555
Ba5 I7 3.553611 1_545
Ba5 I22 3.620932 1_555
Ba5 I1 3.620932 1_545
Ba5 I13 3.622220 1_545
Ba5 I10 3.622220 1_555
Ba5 I4 3.673981 1_555
Ba5 I19 3.673981 1_545
Ba6 I17 3.553611 1_555
Ba6 I6 3.553611 1_545
Ba6 I8 3.620932 1_545
Ba6 I14 3.620932 1_555
Ba6 I2 3.622220 1_555
Ba6 I21 3.622220 1_545
Ba6 I5 3.673981 1_555
Ba6 I18 3.673981 1_545
Ba7 I5 3.586557 1_555
Ba7 I18 3.586557 1_555
Ba7 I0 3.608365 1_555
Ba7 I23 3.608365 1_555
Ba7 I6 3.629465 1_555
Ba7 I17 3.629465 1_555
Ba7 I12 3.648990 1_555
Ba7 I11 3.648990 1_555
Ca0 I2 3.086615 1_554
Ca0 I1 3.086615 1_545
Ca0 I21 3.086615 1_444
Ca0 I22 3.086615 1_455
Ca1 I23 3.118113 1_455
Ca1 I0 3.118113 1_555
Ca1 I20 3.118113 1_455
Ca1 I3 3.118113 1_555
Ca2 I12 3.118113 1_545
Ca2 I11 3.118113 1_555
Ca2 I15 3.118113 1_545
Ca2 I9 3.118113 1_555
Ca3 I8 3.086615 1_554
Ca3 I14 3.086615 1_554
Ca3 I10 3.086615 1_555
Ca3 I13 3.086615 1_555
