# generated using pymatgen
data_VFe2(PO4)3
_symmetry_space_group_name_H-M   'P 1'
_cell_length_a   8.43947482
_cell_length_b   8.43947482
_cell_length_c   8.43947559
_cell_angle_alpha   61.69571963
_cell_angle_beta   61.69571963
_cell_angle_gamma   61.69572487
_symmetry_Int_Tables_number   1
_chemical_formula_structural   VFe2(PO4)3
_chemical_formula_sum   'V2 Fe4 P6 O24'
_cell_volume   441.19817900
_cell_formula_units_Z   2
loop_
 _symmetry_equiv_pos_site_id
 _symmetry_equiv_pos_as_xyz
  1  'x, y, z'
loop_
 _atom_site_type_symbol
 _atom_site_label
 _atom_site_symmetry_multiplicity
 _atom_site_fract_x
 _atom_site_fract_y
 _atom_site_fract_z
 _atom_site_occupancy
  V  V0  1  0.00000000  0.00000000  0.00000000  1
  V  V1  1  0.50000000  0.50000000  0.50000000  1
  Fe  Fe0  1  0.64635600  0.64635600  0.64635600  1
  Fe  Fe1  1  0.14635600  0.14635600  0.14635600  1
  Fe  Fe2  1  0.85364400  0.85364400  0.85364400  1
  Fe  Fe3  1  0.35364400  0.35364400  0.35364400  1
  P  P0  1  0.95274300  0.25000000  0.54725700  1
  P  P1  1  0.54725700  0.95274300  0.25000000  1
  P  P2  1  0.25000000  0.54725700  0.95274300  1
  P  P3  1  0.75000000  0.45274300  0.04725700  1
  P  P4  1  0.45274300  0.04725700  0.75000000  1
  P  P5  1  0.04725700  0.75000000  0.45274300  1
  O  O0  1  0.50408200  0.10636700  0.32432500  1
  O  O1  1  0.32432500  0.50408200  0.10636700  1
  O  O2  1  0.10636700  0.32432500  0.50408200  1
  O  O3  1  0.93757100  0.09561900  0.75005400  1
  O  O4  1  0.99591800  0.17567500  0.39363300  1
  O  O5  1  0.74994600  0.40438100  0.56242900  1
  O  O6  1  0.75005400  0.93757100  0.09561900  1
  O  O7  1  0.56242900  0.74994600  0.40438100  1
  O  O8  1  0.82432500  0.60636700  0.00408200  1
  O  O9  1  0.40438100  0.56242900  0.74994600  1
  O  O10  1  0.90438100  0.24994600  0.06242900  1
  O  O11  1  0.60636700  0.00408200  0.82432500  1
  O  O12  1  0.39363300  0.99591800  0.17567500  1
  O  O13  1  0.09561900  0.75005400  0.93757100  1
  O  O14  1  0.59561900  0.43757100  0.25005400  1
  O  O15  1  0.17567500  0.39363300  0.99591800  1
  O  O16  1  0.43757100  0.25005400  0.59561900  1
  O  O17  1  0.24994600  0.06242900  0.90438100  1
  O  O18  1  0.25005400  0.59561900  0.43757100  1
  O  O19  1  0.00408200  0.82432500  0.60636700  1
  O  O20  1  0.06242900  0.90438100  0.24994600  1
  O  O21  1  0.89363300  0.67567500  0.49591800  1
  O  O22  1  0.67567500  0.49591800  0.89363300  1
  O  O23  1  0.49591800  0.89363300  0.67567500  1
loop_
_geom_bond_atom_site_label_1
_geom_bond_atom_site_label_2
_geom_bond_distance
_geom_bond_site_symmetry_2
Fe0 O21 1.925470 1_555
Fe0 O23 1.925470 1_555
Fe0 O22 1.925470 1_555
Fe0 O9 2.127851 1_555
Fe0 O5 2.127852 1_555
Fe0 O7 2.127852 1_555
Fe1 O15 1.925470 1_554
Fe1 O12 1.925470 1_545
Fe1 O4 1.925470 1_455
Fe1 O20 2.127851 1_545
Fe1 O10 2.127852 1_455
Fe1 O17 2.127852 1_554
Fe2 O8 1.925470 1_556
Fe2 O11 1.925470 1_565
Fe2 O19 1.925470 1_655
Fe2 O3 2.127851 1_565
Fe2 O13 2.127852 1_655
Fe2 O6 2.127852 1_556
Fe3 O2 1.925470 1_555
Fe3 O0 1.925470 1_555
Fe3 O1 1.925470 1_555
Fe3 O14 2.127851 1_555
Fe3 O18 2.127852 1_555
Fe3 O16 2.127852 1_555
O0 P1 1.521063 1_545
O1 P2 1.521063 1_554
O2 P0 1.521063 1_455
O3 P0 1.574456 1_555
O3 V0 2.101169 1_656
O4 P0 1.521063 1_555
O5 P0 1.574456 1_555
O5 V1 2.101169 1_555
O6 P1 1.574456 1_555
O6 V0 2.101169 1_665
O7 P1 1.574456 1_555
O7 V1 2.101169 1_555
O8 P3 1.521063 1_555
O9 P2 1.574456 1_555
O9 V1 2.101169 1_555
O10 P3 1.574456 1_555
O10 V0 2.101169 1_655
O11 P4 1.521063 1_555
O12 P1 1.521063 1_555
O13 P2 1.574456 1_555
O13 V0 2.101169 1_566
O14 P3 1.574456 1_555
O14 V1 2.101169 1_555
O15 P2 1.521063 1_555
O16 P4 1.574456 1_555
O16 V1 2.101169 1_555
O17 P4 1.574456 1_555
O17 V0 2.101169 1_556
O18 P5 1.574456 1_555
O18 V1 2.101169 1_555
O19 P5 1.521063 1_555
O20 P5 1.574456 1_555
O20 V0 2.101169 1_565
O21 P5 1.521063 1_655
O22 P3 1.521063 1_556
O23 P4 1.521063 1_565
