# generated using pymatgen
data_Li3Mn2(P2O7)2
_symmetry_space_group_name_H-M   'P 1'
_cell_length_a   9.84700147
_cell_length_b   9.89224507
_cell_length_c   11.38770939
_cell_angle_alpha   90.03761726
_cell_angle_beta   102.80155981
_cell_angle_gamma   89.95132331
_symmetry_Int_Tables_number   1
_chemical_formula_structural   Li3Mn2(P2O7)2
_chemical_formula_sum   'Li12 Mn8 P16 O56'
_cell_volume   1081.69168088
_cell_formula_units_Z   4
loop_
 _symmetry_equiv_pos_site_id
 _symmetry_equiv_pos_as_xyz
  1  'x, y, z'
loop_
 _atom_site_type_symbol
 _atom_site_label
 _atom_site_symmetry_multiplicity
 _atom_site_fract_x
 _atom_site_fract_y
 _atom_site_fract_z
 _atom_site_occupancy
  Li  Li0  1  0.11739518  0.71120970  0.45179866  1
  Li  Li1  1  0.08639816  0.10295798  0.02790214  1
  Li  Li2  1  0.15217534  0.40793391  0.04321866  1
  Li  Li3  1  0.41250782  0.61209197  0.97217916  1
  Li  Li4  1  0.33829683  0.92773691  0.46289212  1
  Li  Li5  1  0.38713142  0.22385222  0.55233321  1
  Li  Li6  1  0.61769148  0.78842186  0.45232096  1
  Li  Li7  1  0.58581371  0.39651705  0.02837962  1
  Li  Li8  1  0.65296161  0.09173196  0.04273699  1
  Li  Li9  1  0.91204307  0.88854364  0.97250978  1
  Li  Li10  1  0.83929629  0.57156898  0.46373982  1
  Li  Li11  1  0.88704988  0.27629874  0.55294765  1
  Mn  Mn0  1  0.20760703  0.91995322  0.68189924  1
  Mn  Mn1  1  0.25734995  0.21256281  0.82443877  1
  Mn  Mn2  1  0.23969579  0.71817808  0.17004211  1
  Mn  Mn3  1  0.29554826  0.42781435  0.33335454  1
  Mn  Mn4  1  0.70767422  0.57945393  0.68210898  1
  Mn  Mn5  1  0.75727040  0.28711848  0.82469626  1
  Mn  Mn6  1  0.73947523  0.78239425  0.17040898  1
  Mn  Mn7  1  0.79565038  0.07253535  0.33378128  1
  P  P0  1  0.02322899  0.44804662  0.75448110  1
  P  P1  1  0.11679001  0.70549389  0.88717744  1
  P  P2  1  0.05779692  0.93007246  0.24417856  1
  P  P3  1  0.12358017  0.15030438  0.42344220  1
  P  P4  1  0.38114787  0.64920111  0.57490753  1
  P  P5  1  0.43990460  0.43037668  0.75900594  1
  P  P6  1  0.52328708  0.05180812  0.75450893  1
  P  P7  1  0.38020688  0.20890453  0.10935957  1
  P  P8  1  0.61709552  0.79457175  0.88730247  1
  P  P9  1  0.47335157  0.95103161  0.24078963  1
  P  P10  1  0.55788560  0.57021587  0.24413563  1
  P  P11  1  0.62353443  0.34980964  0.42334994  1
  P  P12  1  0.88100846  0.85041709  0.57494588  1
  P  P13  1  0.93986059  0.06951203  0.75902995  1
  P  P14  1  0.87996051  0.29100150  0.10923361  1
  P  P15  1  0.97295525  0.54908153  0.24054747  1
  O  O0  1  0.01832216  0.41294722  0.62607415  1
  O  O1  1  0.03462886  0.84035530  0.56553471  1
  O  O2  1  0.08637423  0.08589364  0.73202075  1
  O  O3  1  0.11257094  0.35419993  0.85149626  1
  O  O4  1  0.09007696  0.59489829  0.77723049  1
  O  O5  1  0.18392776  0.82206988  0.83392200  1
  O  O6  1  0.22066670  0.63516243  0.99498208  1
  O  O7  1  0.01969883  0.27367568  0.07730897  1
  O  O8  1  0.11574799  0.07583350  0.29533134  1
  O  O9  1  0.06288475  0.93206609  0.11254010  1
  O  O10  1  0.12559360  0.53392154  0.21804476  1
  O  O11  1  0.19046556  0.28658413  0.41139841  1
  O  O12  1  0.16097224  0.82290972  0.31203879  1
  O  O13  1  0.22017111  0.06388959  0.51918550  1
  O  O14  1  0.28514510  0.57545621  0.47201784  1
  O  O15  1  0.34232410  0.31504957  0.69967951  1
  O  O16  1  0.32014750  0.79088961  0.58681821  1
  O  O17  1  0.37168015  0.04295125  0.78276902  1
  O  O18  1  0.37845324  0.57144322  0.69866044  1
  O  O19  1  0.43710058  0.44124869  0.89062316  1
  O  O20  1  0.48111403  0.76792909  0.92012973  1
  O  O21  1  0.26979940  0.15374533  0.00014659  1
  O  O22  1  0.32087926  0.33221103  0.16194482  1
  O  O23  1  0.39887465  0.09642910  0.21650451  1
  O  O24  1  0.41054060  0.58609428  0.26980480  1
  O  O25  1  0.39352873  0.85102198  0.14897589  1
  O  O26  1  0.51852013  0.08696428  0.62619637  1
  O  O27  1  0.47229275  0.34108691  0.43906122  1
  O  O28  1  0.53479652  0.65854389  0.56553101  1
  O  O29  1  0.47481655  0.91672846  0.37027995  1
  O  O30  1  0.61234258  0.14565185  0.85172562  1
  O  O31  1  0.58624710  0.41370579  0.73162630  1
  O  O32  1  0.59061444  0.90507051  0.77743877  1
  O  O33  1  0.68407909  0.67781464  0.83394441  1
  O  O34  1  0.72081126  0.86479910  0.99531778  1
  O  O35  1  0.52007108  0.22591248  0.07767777  1
  O  O36  1  0.56249174  0.56754498  0.11242925  1
  O  O37  1  0.61582252  0.42438266  0.29544538  1
  O  O38  1  0.62620324  0.96640628  0.21877606  1
  O  O39  1  0.68948369  0.21290542  0.41104943  1
  O  O40  1  0.66150300  0.67720858  0.31168348  1
  O  O41  1  0.72081357  0.43553804  0.51919877  1
  O  O42  1  0.78531633  0.92439545  0.47203588  1
  O  O43  1  0.84237459  0.18487838  0.69953801  1
  O  O44  1  0.81935705  0.70911680  0.58683964  1
  O  O45  1  0.87173180  0.45671295  0.78300350  1
  O  O46  1  0.93662638  0.05903026  0.89059992  1
  O  O47  1  0.87858832  0.92844774  0.69870615  1
  O  O48  1  0.98089975  0.73255157  0.92005067  1
  O  O49  1  0.76940599  0.34640444  0.00023034  1
  O  O50  1  0.82084394  0.16781198  0.16183744  1
  O  O51  1  0.89875738  0.40365632  0.21635646  1
  O  O52  1  0.89262467  0.64920879  0.14906906  1
  O  O53  1  0.91016603  0.91491536  0.26946719  1
  O  O54  1  0.97217813  0.15970576  0.43890600  1
  O  O55  1  0.97475285  0.58319777  0.37017158  1
loop_
_geom_bond_atom_site_label_1
_geom_bond_atom_site_label_2
_geom_bond_distance
_geom_bond_site_symmetry_2
Li0 O55 1.965558 1_455
Li0 O12 2.060060 1_555
Li0 O14 2.100728 1_555
Li0 O1 2.106584 1_555
Li0 O16 2.368993 1_555
Li1 O7 1.939209 1_555
Li1 O46 1.945997 1_454
Li1 O21 1.966844 1_555
Li1 O9 1.985469 1_545
Li2 O7 1.960701 1_555
Li2 O22 2.037801 1_555
Li2 O3 2.196099 1_554
Li2 O10 2.410903 1_555
Li2 O6 2.444908 1_554
Li3 O20 1.834283 1_555
Li3 O19 1.968320 1_555
Li3 O36 1.969959 1_556
Li3 O6 1.976014 1_555
Li4 O29 1.886578 1_555
Li4 O13 1.976009 1_565
Li4 O16 1.992683 1_555
Li4 O12 2.397247 1_555
Li5 O26 1.931660 1_555
Li5 O15 2.037015 1_555
Li5 O27 2.048169 1_555
Li5 O13 2.253440 1_555
Li5 O11 2.309353 1_555
Li6 O29 1.969568 1_555
Li6 O40 2.065050 1_555
Li6 O42 2.103164 1_555
Li6 O28 2.109338 1_555
Li6 O44 2.357187 1_555
Li7 O35 1.935615 1_555
Li7 O19 1.944974 1_554
Li7 O49 1.967700 1_555
Li7 O36 1.981368 1_555
Li8 O35 1.964593 1_555
Li8 O50 2.036161 1_555
Li8 O30 2.188952 1_554
Li8 O38 2.421375 1_545
Li8 O34 2.435812 1_544
Li9 O48 1.836928 1_555
Li9 O46 1.968690 1_565
Li9 O9 1.971034 1_656
Li9 O34 1.971324 1_555
Li10 O55 1.886256 1_555
Li10 O41 1.975128 1_555
Li10 O44 1.993505 1_555
Li10 O40 2.410665 1_555
Li11 O0 1.927719 1_655
Li11 O43 2.031288 1_555
Li11 O54 2.048974 1_555
Li11 O41 2.241925 1_555
Li11 O39 2.323088 1_555
Mn0 O5 2.042164 1_555
Mn0 O1 2.068313 1_555
Mn0 O16 2.134944 1_555
Mn0 O17 2.142248 1_565
Mn0 O2 2.177815 1_565
Mn0 O13 2.362497 1_565
Mn1 O21 2.061531 1_556
Mn1 O15 2.067986 1_555
Mn1 O3 2.069105 1_555
Mn1 O17 2.130786 1_555
Mn1 O2 2.174598 1_555
Mn2 O25 2.060074 1_555
Mn2 O6 2.125146 1_554
Mn2 O12 2.200215 1_555
Mn2 O24 2.231432 1_555
Mn2 O10 2.271663 1_555
Mn2 O9 2.725280 1_555
Mn3 O11 2.055244 1_555
Mn3 O27 2.069900 1_555
Mn3 O24 2.150601 1_555
Mn3 O10 2.156789 1_555
Mn3 O14 2.169195 1_555
Mn3 O22 2.231531 1_555
Mn4 O33 2.041030 1_555
Mn4 O28 2.066409 1_555
Mn4 O44 2.136492 1_555
Mn4 O45 2.140109 1_555
Mn4 O31 2.177003 1_555
Mn4 O41 2.363849 1_555
Mn5 O49 2.060747 1_556
Mn5 O43 2.069427 1_555
Mn5 O30 2.070839 1_555
Mn5 O45 2.133485 1_555
Mn5 O31 2.175926 1_555
Mn6 O52 2.056145 1_555
Mn6 O34 2.124466 1_554
Mn6 O40 2.193479 1_555
Mn6 O53 2.231071 1_555
Mn6 O38 2.264599 1_555
Mn6 O36 2.735827 1_555
Mn7 O39 2.049112 1_555
Mn7 O54 2.068165 1_555
Mn7 O53 2.144903 1_545
Mn7 O38 2.152722 1_545
Mn7 O42 2.170457 1_545
Mn7 O50 2.236488 1_555
O0 P0 1.493034 1_555
O1 P12 1.543123 1_455
O2 P13 1.549003 1_455
O3 P0 1.557431 1_555
O4 P0 1.592572 1_555
O4 P1 1.639045 1_555
O5 P1 1.521382 1_555
O6 P1 1.575079 1_555
O7 P14 1.508684 1_455
O8 P2 1.611531 1_545
O8 P3 1.620443 1_555
O9 P2 1.511094 1_555
O10 P15 1.586665 1_455
O11 P3 1.520454 1_555
O12 P2 1.550632 1_555
O13 P3 1.537671 1_555
O14 P4 1.519168 1_555
O15 P5 1.547387 1_555
O16 P4 1.542128 1_555
O17 P6 1.597835 1_555
O18 P4 1.611342 1_555
O18 P5 1.612846 1_555
O19 P5 1.508943 1_555
O20 P8 1.491545 1_555
O21 P7 1.558005 1_555
O22 P7 1.529901 1_555
O23 P9 1.609938 1_545
O23 P7 1.631723 1_555
O24 P10 1.550080 1_555
O25 P9 1.524966 1_555
O26 P6 1.492802 1_555
O27 P11 1.541337 1_555
O28 P4 1.543013 1_555
O29 P9 1.510304 1_555
O30 P6 1.557633 1_555
O31 P5 1.549073 1_555
O32 P6 1.592765 1_565
O32 P8 1.638537 1_555
O33 P8 1.521071 1_555
O34 P8 1.575451 1_555
O35 P7 1.508621 1_555
O36 P10 1.510745 1_555
O37 P10 1.612456 1_555
O37 P11 1.619805 1_555
O38 P9 1.587147 1_555
O39 P11 1.521188 1_555
O40 P10 1.551101 1_555
O41 P11 1.537845 1_555
O42 P12 1.519016 1_555
O43 P13 1.547202 1_555
O44 P12 1.542336 1_555
O45 P0 1.597737 1_655
O46 P13 1.509293 1_555
O47 P12 1.611234 1_555
O47 P13 1.612355 1_565
O48 P1 1.491163 1_655
O49 P14 1.557995 1_555
O50 P14 1.529524 1_555
O51 P15 1.609749 1_555
O51 P14 1.631806 1_555
O52 P15 1.525392 1_555
O53 P2 1.550699 1_655
O54 P3 1.542205 1_655
O55 P15 1.510272 1_555
