# generated using pymatgen
data_LiVF4
_symmetry_space_group_name_H-M   'P 1'
_cell_length_a   6.13808081
_cell_length_b   6.13808081
_cell_length_c   6.13808081
_cell_angle_alpha   125.21548589
_cell_angle_beta   119.49722031
_cell_angle_gamma   86.04146675
_symmetry_Int_Tables_number   1
_chemical_formula_structural   LiVF4
_chemical_formula_sum   'Li2 V2 F8'
_cell_volume   156.75652147
_cell_formula_units_Z   2
loop_
 _symmetry_equiv_pos_site_id
 _symmetry_equiv_pos_as_xyz
  1  'x, y, z'
loop_
 _atom_site_type_symbol
 _atom_site_label
 _atom_site_symmetry_multiplicity
 _atom_site_fract_x
 _atom_site_fract_y
 _atom_site_fract_z
 _atom_site_occupancy
  Li  Li0  1  0.50000000  0.50000000  0.00000000  1
  Li  Li1  1  0.00000000  0.00000000  0.00000000  1
  V  V0  1  0.50000000  0.50000000  0.50000000  1
  V  V1  1  0.00000000  0.50000000  0.00000000  1
  F  F0  1  0.71332500  0.71332500  0.50000000  1
  F  F1  1  0.78667500  0.28667500  0.00000000  1
  F  F2  1  0.75000000  0.28253400  0.53253400  1
  F  F3  1  0.75000000  0.73750500  0.98750500  1
  F  F4  1  0.25000000  0.26249500  0.01249500  1
  F  F5  1  0.25000000  0.71746600  0.46746600  1
  F  F6  1  0.21332500  0.71332500  0.00000000  1
  F  F7  1  0.28667500  0.28667500  0.50000000  1
loop_
_geom_bond_atom_site_label_1
_geom_bond_atom_site_label_2
_geom_bond_distance
_geom_bond_site_symmetry_2
F0 V0 1.914632 1_555
F0 Li0 2.119607 1_555
F0 Li1 2.119607 1_666
F1 V1 1.914632 1_655
F1 Li1 2.119607 1_655
F1 Li0 2.119607 1_555
F2 V0 1.974648 1_555
F2 V1 1.974648 1_656
F3 V1 2.046966 1_656
F3 V0 2.046966 1_555
F3 Li0 2.244906 1_556
F3 Li1 2.244906 1_666
F4 V1 2.046966 1_555
F4 V0 2.046966 1_555
F4 Li0 2.244906 1_555
F4 Li1 2.244906 1_555
F5 V0 1.974648 1_555
F5 V1 1.974648 1_555
F6 V1 1.914632 1_555
F6 Li0 2.119607 1_555
F6 Li1 2.119607 1_565
F7 V0 1.914632 1_555
F7 Li1 2.119607 1_555
F7 Li0 2.119607 1_556
