# generated using pymatgen
data_Li2CuSiO4
_symmetry_space_group_name_H-M   'P 1'
_cell_length_a   10.87600600
_cell_length_b   5.13526600
_cell_length_c   7.86366375
_cell_angle_alpha   51.58052241
_cell_angle_beta   90.00000000
_cell_angle_gamma   90.00000000
_symmetry_Int_Tables_number   1
_chemical_formula_structural   Li2CuSiO4
_chemical_formula_sum   'Li8 Cu4 Si4 O16'
_cell_volume   344.10143346
_cell_formula_units_Z   4
loop_
 _symmetry_equiv_pos_site_id
 _symmetry_equiv_pos_as_xyz
  1  'x, y, z'
loop_
 _atom_site_type_symbol
 _atom_site_label
 _atom_site_symmetry_multiplicity
 _atom_site_fract_x
 _atom_site_fract_y
 _atom_site_fract_z
 _atom_site_occupancy
  Li  Li0  1  0.66299000  0.68037800  0.50763800  1
  Li  Li1  1  0.42728100  0.46262900  0.74415900  1
  Li  Li2  1  0.92728100  0.53737100  0.75584100  1
  Li  Li3  1  0.16299000  0.31962200  0.99236200  1
  Li  Li4  1  0.83701000  0.68037800  0.00763800  1
  Li  Li5  1  0.07271900  0.46262900  0.24415900  1
  Li  Li6  1  0.57271900  0.53737100  0.25584100  1
  Li  Li7  1  0.33701000  0.31962200  0.49236200  1
  Cu  Cu0  1  0.83237400  0.17582900  0.51084400  1
  Cu  Cu1  1  0.33237400  0.82417100  0.98915600  1
  Cu  Cu2  1  0.66762600  0.17582900  0.01084400  1
  Cu  Cu3  1  0.16762600  0.82417100  0.48915600  1
  Si  Si0  1  0.09040100  0.06457000  0.74473800  1
  Si  Si1  1  0.59040100  0.93543000  0.75526200  1
  Si  Si2  1  0.40959900  0.06457000  0.24473800  1
  Si  Si3  1  0.90959900  0.93543000  0.25526200  1
  O  O0  1  0.16503900  0.17821000  0.52357600  1
  O  O1  1  0.65921800  0.25767800  0.53391500  1
  O  O2  1  0.44965400  0.05984500  0.74963300  1
  O  O3  1  0.08945500  0.38776000  0.74121900  1
  O  O4  1  0.58945500  0.61224000  0.75878100  1
  O  O5  1  0.94965400  0.94015500  0.75036700  1
  O  O6  1  0.15921800  0.74232200  0.96608500  1
  O  O7  1  0.66503900  0.82179000  0.97642400  1
  O  O8  1  0.33496100  0.17821000  0.02357600  1
  O  O9  1  0.84078200  0.25767800  0.03391500  1
  O  O10  1  0.05034600  0.05984500  0.24963300  1
  O  O11  1  0.41054500  0.38776000  0.24121900  1
  O  O12  1  0.91054500  0.61224000  0.25878100  1
  O  O13  1  0.55034600  0.94015500  0.25036700  1
  O  O14  1  0.34078200  0.74232200  0.46608500  1
  O  O15  1  0.83496100  0.82179000  0.47642400  1
loop_
_geom_bond_atom_site_label_1
_geom_bond_atom_site_label_2
_geom_bond_distance
_geom_bond_site_symmetry_2
Li0 O4 1.950250 1_555
Li0 O15 1.965783 1_555
Li0 O13 2.004800 1_555
Li0 O1 2.049089 1_555
Li1 O4 1.955581 1_555
Li1 O14 1.956062 1_555
Li1 O8 1.995189 1_556
Li1 O2 2.056379 1_555
Li2 O3 1.955581 1_655
Li2 O9 1.956062 1_556
Li2 O15 1.995189 1_555
Li2 O5 2.056379 1_555
Li3 O3 1.950250 1_555
Li3 O8 1.965783 1_556
Li3 O10 2.004800 1_556
Li3 O6 2.049089 1_555
Li4 O12 1.950250 1_555
Li4 O7 1.965783 1_554
Li4 O5 2.004800 1_554
Li4 O9 2.049089 1_555
Li5 O12 1.955581 1_455
Li5 O6 1.956062 1_554
Li5 O0 1.995189 1_555
Li5 O10 2.056379 1_555
Li6 O11 1.955581 1_555
Li6 O1 1.956062 1_555
Li6 O7 1.995189 1_554
Li6 O13 2.056379 1_555
Li7 O11 1.950250 1_555
Li7 O0 1.965783 1_555
Li7 O2 2.004800 1_555
Li7 O14 2.049089 1_555
Cu0 O5 1.950975 1_545
Cu0 O1 1.962388 1_555
Cu0 O15 1.997767 1_545
Cu0 O12 2.037974 1_555
Cu1 O2 1.950975 1_565
Cu1 O6 1.962388 1_555
Cu1 O8 1.997767 1_566
Cu1 O11 2.037974 1_556
Cu2 O13 1.950975 1_545
Cu2 O9 1.962388 1_555
Cu2 O7 1.997767 1_544
Cu2 O4 2.037974 1_554
Cu3 O10 1.950975 1_565
Cu3 O14 1.962388 1_555
Cu3 O0 1.997767 1_565
Cu3 O3 2.037974 1_555
O0 Si0 1.662159 1_555
O1 Si1 1.657858 1_545
O2 Si1 1.648712 1_545
O3 Si0 1.642646 1_555
O4 Si1 1.642646 1_555
O5 Si0 1.648712 1_665
O6 Si0 1.657858 1_565
O7 Si1 1.662159 1_555
O8 Si2 1.662159 1_555
O9 Si3 1.657858 1_545
O10 Si3 1.648712 1_445
O11 Si2 1.642646 1_555
O12 Si3 1.642646 1_555
O13 Si2 1.648712 1_565
O14 Si2 1.657858 1_565
O15 Si3 1.662159 1_555
