# generated using pymatgen
data_Ca2MnAl2Si3HO13
_symmetry_space_group_name_H-M   'P 1'
_cell_length_a   5.76304200
_cell_length_b   8.94559900
_cell_length_c   10.24761538
_cell_angle_alpha   64.45335284
_cell_angle_beta   90.00000000
_cell_angle_gamma   90.00000000
_symmetry_Int_Tables_number   1
_chemical_formula_structural   Ca2MnAl2Si3HO13
_chemical_formula_sum   'Ca4 Mn2 Al4 Si6 H2 O26'
_cell_volume   476.65422965
_cell_formula_units_Z   2
loop_
 _symmetry_equiv_pos_site_id
 _symmetry_equiv_pos_as_xyz
  1  'x, y, z'
loop_
 _atom_site_type_symbol
 _atom_site_label
 _atom_site_symmetry_multiplicity
 _atom_site_fract_x
 _atom_site_fract_y
 _atom_site_fract_z
 _atom_site_occupancy
  Ca  Ca0  1  0.25000000  0.24621200  0.15321100  1
  Ca  Ca1  1  0.75000000  0.75378800  0.84678900  1
  Ca  Ca2  1  0.25000000  0.40270000  0.42744300  1
  Ca  Ca3  1  0.75000000  0.59730000  0.57255700  1
  Mn  Mn0  1  0.75000000  0.70385800  0.22075100  1
  Mn  Mn1  1  0.25000000  0.29614200  0.77924900  1
  Al  Al0  1  0.50000000  0.00000000  0.00000000  1
  Al  Al1  1  0.00000000  0.00000000  0.00000000  1
  Al  Al2  1  0.50000000  0.00000000  0.50000000  1
  Al  Al3  1  0.00000000  0.00000000  0.50000000  1
  Si  Si0  1  0.25000000  0.66099800  0.04519900  1
  Si  Si1  1  0.75000000  0.33900200  0.95480100  1
  Si  Si2  1  0.75000000  0.31537500  0.27387400  1
  Si  Si3  1  0.25000000  0.68462500  0.72612600  1
  Si  Si4  1  0.25000000  0.81339700  0.31969600  1
  Si  Si5  1  0.75000000  0.18660300  0.68030400  1
  H  H0  1  0.75000000  0.94083700  0.33023200  1
  H  H1  1  0.25000000  0.05916300  0.66976800  1
  O  O0  1  0.49021100  0.77064400  0.03197900  1
  O  O1  1  0.99021100  0.22935600  0.96802100  1
  O  O2  1  0.50978900  0.22935600  0.96802100  1
  O  O3  1  0.00978900  0.77064400  0.03197900  1
  O  O4  1  0.47811400  0.69189600  0.35831700  1
  O  O5  1  0.97811400  0.30810400  0.64168300  1
  O  O6  1  0.52188600  0.30810400  0.64168300  1
  O  O7  1  0.02188600  0.69189600  0.35831700  1
  O  O8  1  0.51729200  0.20218200  0.33533200  1
  O  O9  1  0.01729200  0.79781800  0.66466800  1
  O  O10  1  0.48270800  0.79781800  0.66466800  1
  O  O11  1  0.98270800  0.20218200  0.33533200  1
  O  O12  1  0.75000000  0.94070900  0.13113400  1
  O  O13  1  0.25000000  0.05929100  0.86886600  1
  O  O14  1  0.25000000  0.95519600  0.14502800  1
  O  O15  1  0.75000000  0.04480400  0.85497200  1
  O  O16  1  0.25000000  0.93141000  0.40824500  1
  O  O17  1  0.75000000  0.06859000  0.59175500  1
  O  O18  1  0.25000000  0.48817700  0.18455700  1
  O  O19  1  0.75000000  0.51182300  0.81544300  1
  O  O20  1  0.75000000  0.46956700  0.31698900  1
  O  O21  1  0.25000000  0.53043300  0.68301100  1
  O  O22  1  0.75000000  0.38545900  0.09541300  1
  O  O23  1  0.25000000  0.61454100  0.90458700  1
  O  O24  1  0.75000000  0.91196500  0.43428000  1
  O  O25  1  0.25000000  0.08803500  0.56572000  1
loop_
_geom_bond_atom_site_label_1
_geom_bond_atom_site_label_2
_geom_bond_distance
_geom_bond_site_symmetry_2
Ca0 O8 2.318858 1_555
Ca0 O11 2.318858 1_455
Ca0 O18 2.321211 1_555
Ca0 O2 2.472358 1_554
Ca0 O1 2.472358 1_454
Ca0 O14 2.640559 1_545
Ca1 O9 2.318858 1_655
Ca1 O10 2.318858 1_555
Ca1 O19 2.321211 1_555
Ca1 O3 2.472358 1_656
Ca1 O0 2.472358 1_556
Ca1 O15 2.640559 1_565
Ca2 O18 2.266786 1_555
Ca2 O6 2.527621 1_555
Ca2 O5 2.527621 1_455
Ca2 O25 2.547779 1_555
Ca2 O4 2.709647 1_555
Ca2 O7 2.709647 1_555
Ca2 O8 2.818110 1_555
Ca2 O11 2.818110 1_455
Ca2 O20 3.059115 1_455
Ca2 O20 3.059115 1_555
Ca3 O19 2.266786 1_555
Ca3 O7 2.527621 1_655
Ca3 O4 2.527621 1_555
Ca3 O24 2.547779 1_555
Ca3 O5 2.709647 1_555
Ca3 O6 2.709647 1_555
Ca3 O9 2.818110 1_655
Ca3 O10 2.818110 1_555
Ca3 O21 3.059115 1_555
Ca3 O21 3.059115 1_655
Mn0 O20 1.892763 1_555
Mn0 O12 1.911637 1_555
Mn0 O4 2.079377 1_555
Mn0 O7 2.079377 1_655
Mn0 O3 2.311668 1_655
Mn0 O0 2.311668 1_555
Mn1 O21 1.892763 1_555
Mn1 O13 1.911637 1_555
Mn1 O6 2.079377 1_555
Mn1 O5 2.079377 1_455
Mn1 O2 2.311668 1_555
Mn1 O1 2.311668 1_455
Al0 O12 1.883666 1_545
Al0 O13 1.883666 1_554
Al0 O2 1.933972 1_554
Al0 O0 1.933972 1_545
Al0 O14 1.982786 1_545
Al0 O15 1.982786 1_554
Al1 O12 1.883666 1_445
Al1 O13 1.883666 1_554
Al1 O1 1.933972 1_454
Al1 O3 1.933972 1_545
Al1 O14 1.982786 1_545
Al1 O15 1.982786 1_454
Al2 O10 1.869836 1_545
Al2 O8 1.869836 1_555
Al2 O25 1.899210 1_555
Al2 O24 1.899210 1_545
Al2 O17 1.958054 1_555
Al2 O16 1.958054 1_545
Al3 O9 1.869836 1_545
Al3 O11 1.869836 1_455
Al3 O25 1.899210 1_555
Al3 O24 1.899210 1_445
Al3 O17 1.958054 1_455
Al3 O16 1.958054 1_545
H0 O24 0.982886 1_555
H1 O25 0.982886 1_555
O0 Si0 1.668000 1_555
O1 Si1 1.668000 1_555
O2 Si1 1.668000 1_555
O3 Si0 1.668000 1_555
O4 Si4 1.641714 1_555
O5 Si5 1.641714 1_555
O6 Si5 1.641714 1_555
O7 Si4 1.641714 1_555
O8 Si2 1.634166 1_555
O9 Si3 1.634166 1_555
O10 Si3 1.634166 1_555
O11 Si2 1.634166 1_555
O14 Si4 1.689559 1_555
O15 Si5 1.689559 1_555
O16 Si4 1.662567 1_555
O17 Si5 1.662567 1_555
O18 Si0 1.589118 1_555
O19 Si1 1.589118 1_555
O20 Si2 1.619696 1_555
O21 Si3 1.619696 1_555
O22 Si2 1.657912 1_555
O22 Si1 1.662980 1_554
O23 Si3 1.657912 1_555
O23 Si0 1.662980 1_556
