# generated using pymatgen
data_Na5Fe6(SiO3)12
_symmetry_space_group_name_H-M   'P 1'
_cell_length_a   9.42234833
_cell_length_b   9.42234833
_cell_length_c   9.63702518
_cell_angle_alpha   72.45196849
_cell_angle_beta   72.45196849
_cell_angle_gamma   56.29895649
_symmetry_Int_Tables_number   1
_chemical_formula_structural   Na5Fe6(SiO3)12
_chemical_formula_sum   'Na5 Fe6 Si12 O36'
_cell_volume   668.88708067
_cell_formula_units_Z   1
loop_
 _symmetry_equiv_pos_site_id
 _symmetry_equiv_pos_as_xyz
  1  'x, y, z'
loop_
 _atom_site_type_symbol
 _atom_site_label
 _atom_site_symmetry_multiplicity
 _atom_site_fract_x
 _atom_site_fract_y
 _atom_site_fract_z
 _atom_site_occupancy
  Na  Na0  1  0.71300700  0.62058200  0.33230900  1
  Na  Na1  1  0.95421100  0.04578900  0.50000000  1
  Na  Na2  1  0.37941800  0.28699300  0.66769100  1
  Na  Na3  1  0.61842300  0.71324900  0.83298800  1
  Na  Na4  1  0.28675100  0.38157700  0.16701200  1
  Fe  Fe0  1  0.31789400  0.01699300  0.33262600  1
  Fe  Fe1  1  0.34963900  0.65036100  0.50000000  1
  Fe  Fe2  1  0.98300700  0.68210600  0.66737400  1
  Fe  Fe3  1  0.01763100  0.30829500  0.83632400  1
  Fe  Fe4  1  0.65136200  0.34863800  0.00000000  1
  Fe  Fe5  1  0.69170500  0.98236900  0.16367600  1
  Si  Si0  1  0.26180000  0.94025200  0.69010600  1
  Si  Si1  1  0.07090600  0.39293200  0.47820400  1
  Si  Si2  1  0.72665300  0.40386600  0.64346600  1
  Si  Si3  1  0.94056300  0.26125100  0.18859500  1
  Si  Si4  1  0.39444900  0.06980000  0.97777400  1
  Si  Si5  1  0.59613400  0.27334700  0.35653400  1
  Si  Si6  1  0.40024900  0.72804300  0.14286200  1
  Si  Si7  1  0.60706800  0.92909400  0.52179600  1
  Si  Si8  1  0.05974800  0.73820000  0.30989400  1
  Si  Si9  1  0.27195700  0.59975100  0.85713800  1
  Si  Si10  1  0.93020000  0.60555100  0.02222600  1
  Si  Si11  1  0.73874900  0.05943700  0.81140500  1
  O  O0  1  0.43965600  0.95065000  0.65589100  1
  O  O1  1  0.23522000  0.22598200  0.40938600  1
  O  O2  1  0.57098700  0.91363700  0.37127200  1
  O  O3  1  0.89294700  0.38456500  0.50916600  1
  O  O4  1  0.55902500  0.56753800  0.57553800  1
  O  O5  1  0.24805400  0.90333700  0.53852500  1
  O  O6  1  0.71856200  0.22559900  0.67589100  1
  O  O7  1  0.90072700  0.89101600  0.74328200  1
  O  O8  1  0.23678300  0.58172600  0.70678400  1
  O  O9  1  0.94835600  0.44013800  0.15759700  1
  O  O10  1  0.41827400  0.76321700  0.29321600  1
  O  O11  1  0.10898400  0.09927300  0.25671800  1
  O  O12  1  0.77440100  0.28143800  0.32410900  1
  O  O13  1  0.09666300  0.75194600  0.46147500  1
  O  O14  1  0.43246200  0.44097500  0.42446200  1
  O  O15  1  0.22508800  0.23266000  0.91066300  1
  O  O16  1  0.61543500  0.10705300  0.49083400  1
  O  O17  1  0.91258000  0.57011100  0.87265800  1
  O  O18  1  0.08636300  0.42901300  0.62872800  1
  O  O19  1  0.38989300  0.89061800  0.00894000  1
  O  O20  1  0.77401800  0.76478000  0.59061400  1
  O  O21  1  0.56595400  0.55837900  0.07709500  1
  O  O22  1  0.89939700  0.25237000  0.03873100  1
  O  O23  1  0.22734500  0.71225000  0.17817800  1
  O  O24  1  0.88550600  0.90313500  0.25418100  1
  O  O25  1  0.57943900  0.23826900  0.20629700  1
  O  O26  1  0.04935000  0.56034400  0.34410900  1
  O  O27  1  0.76173100  0.42056100  0.79370300  1
  O  O28  1  0.09686500  0.11449400  0.74581900  1
  O  O29  1  0.28775000  0.77265500  0.82182200  1
  O  O30  1  0.74763000  0.10060300  0.96126900  1
  O  O31  1  0.44162100  0.43404600  0.92290500  1
  O  O32  1  0.10938200  0.61010600  0.99106000  1
  O  O33  1  0.42988900  0.08742000  0.12734200  1
  O  O34  1  0.76734000  0.77491200  0.08933700  1
  O  O35  1  0.55986200  0.05164400  0.84240300  1
loop_
_geom_bond_atom_site_label_1
_geom_bond_atom_site_label_2
_geom_bond_distance
_geom_bond_site_symmetry_2
Na0 O2 2.403757 1_555
Na0 O10 2.417459 1_555
Na0 O4 2.428312 1_555
Na0 O34 2.430938 1_555
Na0 O9 2.435950 1_555
Na0 O3 2.449033 1_555
Na0 O26 2.925888 1_655
Na0 O12 2.936947 1_555
Na1 O5 2.408415 1_645
Na1 O13 2.408415 1_645
Na1 O7 2.432854 1_545
Na1 O11 2.432854 1_655
Na1 O12 2.441589 1_555
Na1 O6 2.441589 1_555
Na2 O18 2.403757 1_555
Na2 O8 2.417459 1_555
Na2 O14 2.428312 1_555
Na2 O15 2.430938 1_555
Na2 O35 2.435950 1_555
Na2 O16 2.449033 1_555
Na2 O0 2.925888 1_545
Na2 O6 2.936947 1_555
Na3 O27 2.400214 1_555
Na3 O19 2.412162 1_556
Na3 O17 2.413909 1_555
Na3 O20 2.425288 1_555
Na3 O21 2.436622 1_556
Na3 O0 2.450273 1_555
Na3 O29 2.874557 1_555
Na3 O35 2.944649 1_565
Na4 O25 2.400214 1_555
Na4 O32 2.412159 1_554
Na4 O33 2.413909 1_555
Na4 O1 2.425288 1_555
Na4 O31 2.436622 1_554
Na4 O26 2.450273 1_555
Na4 O23 2.874557 1_555
Na4 O9 2.944649 1_455
Fe0 O11 1.960533 1_555
Fe0 O1 1.964765 1_555
Fe0 O33 2.047994 1_555
Fe0 O5 2.056801 1_545
Fe0 O2 2.124547 1_545
Fe0 O10 2.139570 1_545
Fe1 O14 1.961178 1_555
Fe1 O4 1.961178 1_555
Fe1 O8 2.056297 1_555
Fe1 O10 2.056297 1_555
Fe1 O13 2.126778 1_555
Fe1 O5 2.126778 1_555
Fe2 O7 1.960533 1_555
Fe2 O20 1.964765 1_555
Fe2 O17 2.047994 1_555
Fe2 O13 2.056801 1_655
Fe2 O18 2.124547 1_655
Fe2 O8 2.139570 1_655
Fe3 O28 1.925484 1_555
Fe3 O15 1.957747 1_555
Fe3 O22 2.011187 1_456
Fe3 O18 2.092749 1_555
Fe3 O27 2.146215 1_455
Fe3 O17 2.188654 1_455
Fe4 O21 1.966004 1_555
Fe4 O31 1.966004 1_554
Fe4 O25 2.053325 1_555
Fe4 O27 2.053325 1_554
Fe4 O22 2.096038 1_555
Fe4 O30 2.096038 1_554
Fe5 O24 1.925484 1_555
Fe5 O34 1.957747 1_555
Fe5 O30 2.011187 1_564
Fe5 O2 2.092749 1_555
Fe5 O25 2.146215 1_565
Fe5 O33 2.188654 1_565
O0 Si0 1.660185 1_555
O0 Si7 1.665231 1_555
O1 Si1 1.618215 1_555
O2 Si7 1.649473 1_555
O3 Si1 1.654596 1_655
O3 Si2 1.663166 1_555
O4 Si2 1.616530 1_555
O5 Si0 1.655940 1_555
O6 Si2 1.654105 1_555
O6 Si11 1.667118 1_555
O7 Si11 1.617083 1_565
O8 Si9 1.654878 1_555
O9 Si3 1.660167 1_555
O9 Si10 1.665218 1_555
O10 Si6 1.654878 1_555
O11 Si3 1.617083 1_455
O12 Si5 1.654105 1_555
O12 Si3 1.667118 1_555
O13 Si8 1.655940 1_555
O14 Si5 1.616530 1_555
O15 Si4 1.620497 1_555
O16 Si7 1.654596 1_545
O16 Si5 1.663166 1_555
O17 Si10 1.647041 1_556
O18 Si1 1.649473 1_555
O19 Si4 1.646007 1_564
O19 Si6 1.655184 1_555
O20 Si7 1.618215 1_555
O21 Si6 1.624649 1_555
O22 Si3 1.640119 1_555
O23 Si6 1.642036 1_555
O23 Si8 1.647637 1_555
O24 Si8 1.611162 1_655
O25 Si5 1.647367 1_555
O26 Si8 1.660185 1_555
O26 Si1 1.665231 1_555
O27 Si2 1.647367 1_555
O28 Si0 1.611162 1_545
O29 Si9 1.642036 1_555
O29 Si0 1.647637 1_555
O30 Si11 1.640119 1_555
O31 Si9 1.624649 1_555
O32 Si10 1.646002 1_456
O32 Si9 1.655186 1_555
O33 Si4 1.647041 1_554
O34 Si10 1.620497 1_555
O35 Si11 1.660167 1_555
O35 Si4 1.665218 1_555
