# generated using pymatgen
data_H3SNO3
_symmetry_space_group_name_H-M   'P 1'
_cell_length_a   8.13646600
_cell_length_b   8.18131100
_cell_length_c   9.38100200
_cell_angle_alpha   90.00000000
_cell_angle_beta   90.00000000
_cell_angle_gamma   90.00000000
_symmetry_Int_Tables_number   1
_chemical_formula_structural   H3SNO3
_chemical_formula_sum   'H24 S8 N8 O24'
_cell_volume   624.46477351
_cell_formula_units_Z   8
loop_
 _symmetry_equiv_pos_site_id
 _symmetry_equiv_pos_as_xyz
  1  'x, y, z'
loop_
 _atom_site_type_symbol
 _atom_site_label
 _atom_site_symmetry_multiplicity
 _atom_site_fract_x
 _atom_site_fract_y
 _atom_site_fract_z
 _atom_site_occupancy
  H  H0  1  0.64535000  0.40739000  0.42982400  1
  H  H1  1  0.85465000  0.90739000  0.57017600  1
  H  H2  1  0.14535000  0.59261000  0.07017600  1
  H  H3  1  0.35465000  0.09261000  0.92982400  1
  H  H4  1  0.35465000  0.59261000  0.57017600  1
  H  H5  1  0.14535000  0.09261000  0.42982400  1
  H  H6  1  0.85465000  0.40739000  0.92982400  1
  H  H7  1  0.64535000  0.90739000  0.07017600  1
  H  H8  1  0.74993200  0.57117300  0.36711000  1
  H  H9  1  0.75006800  0.07117300  0.63289000  1
  H  H10  1  0.24993200  0.42882700  0.13289000  1
  H  H11  1  0.25006800  0.92882700  0.86711000  1
  H  H12  1  0.25006800  0.42882700  0.63289000  1
  H  H13  1  0.24993200  0.92882700  0.36711000  1
  H  H14  1  0.75006800  0.57117300  0.86711000  1
  H  H15  1  0.74993200  0.07117300  0.13289000  1
  H  H16  1  0.80570300  0.48585100  0.52409400  1
  H  H17  1  0.69429700  0.98585100  0.47590600  1
  H  H18  1  0.30570300  0.51414900  0.97590600  1
  H  H19  1  0.19429700  0.01414900  0.02409400  1
  H  H20  1  0.19429700  0.51414900  0.47590600  1
  H  H21  1  0.30570300  0.01414900  0.52409400  1
  H  H22  1  0.69429700  0.48585100  0.02409400  1
  H  H23  1  0.80570300  0.98585100  0.97590600  1
  S  S0  1  0.90739400  0.33215600  0.32934000  1
  S  S1  1  0.59260600  0.83215600  0.67066000  1
  S  S2  1  0.40739400  0.66784400  0.17066000  1
  S  S3  1  0.09260600  0.16784400  0.82934000  1
  S  S4  1  0.09260600  0.66784400  0.67066000  1
  S  S5  1  0.40739400  0.16784400  0.32934000  1
  S  S6  1  0.59260600  0.33215600  0.82934000  1
  S  S7  1  0.90739400  0.83215600  0.17066000  1
  N  N0  1  0.76044500  0.46180800  0.42239500  1
  N  N1  1  0.73955500  0.96180800  0.57760500  1
  N  N2  1  0.26044500  0.53819200  0.07760500  1
  N  N3  1  0.23955500  0.03819200  0.92239500  1
  N  N4  1  0.23955500  0.53819200  0.57760500  1
  N  N5  1  0.26044500  0.03819200  0.42239500  1
  N  N6  1  0.73955500  0.46180800  0.92239500  1
  N  N7  1  0.76044500  0.96180800  0.07760500  1
  O  O0  1  0.04822600  0.44124400  0.32250400  1
  O  O1  1  0.45177400  0.94124400  0.67749600  1
  O  O2  1  0.54822600  0.55875600  0.17749600  1
  O  O3  1  0.95177400  0.05875600  0.82250400  1
  O  O4  1  0.95177400  0.55875600  0.67749600  1
  O  O5  1  0.54822600  0.05875600  0.32250400  1
  O  O6  1  0.45177400  0.44124400  0.82250400  1
  O  O7  1  0.04822600  0.94124400  0.17749600  1
  O  O8  1  0.92488500  0.19427300  0.42553300  1
  O  O9  1  0.57511500  0.69427300  0.57446700  1
  O  O10  1  0.42488500  0.80572700  0.07446700  1
  O  O11  1  0.07511500  0.30572700  0.92553300  1
  O  O12  1  0.07511500  0.80572700  0.57446700  1
  O  O13  1  0.42488500  0.30572700  0.42553300  1
  O  O14  1  0.57511500  0.19427300  0.92553300  1
  O  O15  1  0.92488500  0.69427300  0.07446700  1
  O  O16  1  0.82570600  0.29850000  0.19530100  1
  O  O17  1  0.67429400  0.79850000  0.80469900  1
  O  O18  1  0.32570600  0.70150000  0.30469900  1
  O  O19  1  0.17429400  0.20150000  0.69530100  1
  O  O20  1  0.17429400  0.70150000  0.80469900  1
  O  O21  1  0.32570600  0.20150000  0.19530100  1
  O  O22  1  0.67429400  0.29850000  0.69530100  1
  O  O23  1  0.82570600  0.79850000  0.30469900  1
loop_
_geom_bond_atom_site_label_1
_geom_bond_atom_site_label_2
_geom_bond_distance
_geom_bond_site_symmetry_2
H0 N0 1.039249 1_555
H1 N1 1.039249 1_555
H2 N2 1.039249 1_555
H3 N3 1.039249 1_555
H4 N4 1.039249 1_555
H5 N5 1.039249 1_555
H6 N6 1.039249 1_555
H7 N7 1.039249 1_555
H8 N0 1.037723 1_555
H9 N1 1.037723 1_545
H10 N2 1.037723 1_555
H11 N3 1.037723 1_565
H12 N4 1.037723 1_555
H13 N5 1.037723 1_565
H14 N6 1.037723 1_555
H15 N7 1.037723 1_545
H16 N0 1.041385 1_555
H17 N1 1.041385 1_555
H18 N2 1.041385 1_556
H19 N3 1.041385 1_554
H20 N4 1.041385 1_555
H21 N5 1.041385 1_555
H22 N6 1.041385 1_554
H23 N7 1.041385 1_556
N0 S0 1.821193 1_555
N1 S1 1.821193 1_555
N2 S2 1.821193 1_555
N3 S3 1.821193 1_555
N4 S4 1.821193 1_555
N5 S5 1.821193 1_555
N6 S6 1.821193 1_555
N7 S7 1.821193 1_555
O0 S0 1.453846 1_455
O1 S1 1.453846 1_555
O2 S2 1.453846 1_555
O3 S3 1.453846 1_655
O4 S4 1.453846 1_655
O5 S5 1.453846 1_555
O6 S6 1.453846 1_555
O7 S7 1.453846 1_455
O8 S0 1.451580 1_555
O9 S1 1.451580 1_555
O10 S2 1.451580 1_555
O11 S3 1.451580 1_555
O12 S4 1.451580 1_555
O13 S5 1.451580 1_555
O14 S6 1.451580 1_555
O15 S7 1.451580 1_555
O16 S0 1.448684 1_555
O17 S1 1.448684 1_555
O18 S2 1.448684 1_555
O19 S3 1.448684 1_555
O20 S4 1.448684 1_555
O21 S5 1.448684 1_555
O22 S6 1.448684 1_555
O23 S7 1.448684 1_555
