# generated using pymatgen
data_Mn6OF11
_symmetry_space_group_name_H-M   'P 1'
_cell_length_a   4.91211600
_cell_length_b   5.93234275
_cell_length_c   8.25577488
_cell_angle_alpha   87.86923280
_cell_angle_beta   89.04293859
_cell_angle_gamma   89.06508295
_symmetry_Int_Tables_number   1
_chemical_formula_structural   Mn6OF11
_chemical_formula_sum   'Mn6 O1 F11'
_cell_volume   240.34667725
_cell_formula_units_Z   1
loop_
 _symmetry_equiv_pos_site_id
 _symmetry_equiv_pos_as_xyz
  1  'x, y, z'
loop_
 _atom_site_type_symbol
 _atom_site_label
 _atom_site_symmetry_multiplicity
 _atom_site_fract_x
 _atom_site_fract_y
 _atom_site_fract_z
 _atom_site_occupancy
  Mn  Mn0  1  0.51611700  0.48748800  0.99309500  1
  Mn  Mn1  1  0.49800200  0.16754600  0.33608500  1
  Mn  Mn2  1  0.50113200  0.83432200  0.66776700  1
  Mn  Mn3  1  0.01014200  0.66138700  0.32811800  1
  Mn  Mn4  1  0.98146800  0.33766800  0.68186600  1
  Mn  Mn5  1  0.98225300  0.01930100  0.99706000  1
  O  O0  1  0.78910000  0.30612100  0.89870900  1
  F  F0  1  0.80485700  0.63208000  0.56234300  1
  F  F1  1  0.81052400  0.96114500  0.23289800  1
  F  F2  1  0.69591600  0.78900500  0.90211400  1
  F  F3  1  0.69284500  0.46565700  0.22797100  1
  F  F4  1  0.69969800  0.12904200  0.56396600  1
  F  F5  1  0.30633800  0.86747800  0.43338600  1
  F  F6  1  0.30652100  0.53470400  0.76977600  1
  F  F7  1  0.30882900  0.20800400  0.10066200  1
  F  F8  1  0.18827900  0.36621600  0.44516500  1
  F  F9  1  0.19250800  0.03671600  0.76707800  1
  F  F10  1  0.21547200  0.69612100  0.09194300  1
loop_
_geom_bond_atom_site_label_1
_geom_bond_atom_site_label_2
_geom_bond_distance
_geom_bond_site_symmetry_2
Mn0 O0 1.882355 1_555
Mn4 O0 2.014227 1_555
Mn5 O0 2.079653 1_555
F0 Mn2 2.097305 1_555
F0 Mn4 2.151219 1_555
F0 Mn3 2.168381 1_655
F1 Mn5 2.127486 1_564
F1 Mn1 2.134051 1_565
F1 Mn3 2.146295 1_655
F2 Mn0 2.114983 1_555
F2 Mn5 2.153691 1_565
F2 Mn2 2.178448 1_555
F3 Mn0 2.136427 1_554
F3 Mn3 2.152801 1_655
F3 Mn1 2.179357 1_555
F4 Mn4 2.141345 1_555
F4 Mn1 2.143855 1_555
F4 Mn2 2.158446 1_545
F5 Mn3 2.132185 1_555
F5 Mn1 2.150240 1_565
F5 Mn2 2.173907 1_555
F6 Mn0 2.133817 1_555
F6 Mn4 2.145967 1_455
F6 Mn2 2.167858 1_555
F7 Mn0 2.118904 1_554
F7 Mn1 2.171874 1_555
F7 Mn5 2.175721 1_454
F8 Mn1 2.118798 1_555
F8 Mn3 2.148966 1_555
F8 Mn4 2.189540 1_455
F9 Mn2 2.093885 1_545
F9 Mn5 2.146093 1_455
F9 Mn4 2.151185 1_455
F10 Mn0 2.086617 1_554
F10 Mn3 2.184651 1_555
F10 Mn5 2.334169 1_464
