# generated using pymatgen
data_Mn6O5F7
_symmetry_space_group_name_H-M   'P 1'
_cell_length_a   5.73949098
_cell_length_b   5.73949098
_cell_length_c   7.90982613
_cell_angle_alpha   68.52442100
_cell_angle_beta   68.52442100
_cell_angle_gamma   67.41616152
_symmetry_Int_Tables_number   1
_chemical_formula_structural   Mn6O5F7
_chemical_formula_sum   'Mn6 O5 F7'
_cell_volume   216.03193189
_cell_formula_units_Z   1
loop_
 _symmetry_equiv_pos_site_id
 _symmetry_equiv_pos_as_xyz
  1  'x, y, z'
loop_
 _atom_site_type_symbol
 _atom_site_label
 _atom_site_symmetry_multiplicity
 _atom_site_fract_x
 _atom_site_fract_y
 _atom_site_fract_z
 _atom_site_occupancy
  Mn  Mn0  1  0.33842900  0.66157100  0.00000000  1
  Mn  Mn1  1  0.00303600  0.32668500  0.83478700  1
  Mn  Mn2  1  0.30929100  0.69070900  0.50000000  1
  Mn  Mn3  1  0.01355300  0.33696500  0.32508100  1
  Mn  Mn4  1  0.66303500  0.98644700  0.67491900  1
  Mn  Mn5  1  0.67331500  0.99696400  0.16521300  1
  O  O0  1  0.30506500  0.02245100  0.83654800  1
  O  O1  1  0.01381400  0.98618600  0.50000000  1
  O  O2  1  0.69947300  0.62621400  0.83724200  1
  O  O3  1  0.37378600  0.30052700  0.16275800  1
  O  O4  1  0.97754900  0.69493500  0.16345200  1
  F  F0  1  0.62843300  0.37156700  0.50000000  1
  F  F1  1  0.56279300  0.89974600  0.46049700  1
  F  F2  1  0.22873100  0.55989800  0.78837600  1
  F  F3  1  0.89597900  0.22663700  0.12944200  1
  F  F4  1  0.77336300  0.10402100  0.87055800  1
  F  F5  1  0.44010200  0.77126900  0.21162400  1
  F  F6  1  0.10025400  0.43720700  0.53950300  1
loop_
_geom_bond_atom_site_label_1
_geom_bond_atom_site_label_2
_geom_bond_distance
_geom_bond_site_symmetry_2
Mn0 O2 1.976755 1_554
Mn0 O3 1.976755 1_555
Mn0 O0 1.978435 1_564
Mn0 O4 1.978435 1_455
Mn1 O2 1.921076 1_455
Mn1 O0 1.931113 1_555
Mn2 O1 1.882305 1_555
Mn3 O4 1.960220 1_455
Mn3 O3 1.971748 1_555
Mn3 O1 1.981726 1_545
Mn4 O0 1.960220 1_565
Mn4 O2 1.971748 1_555
Mn4 O1 1.981726 1_655
Mn5 O3 1.921076 1_565
Mn5 O4 1.931113 1_555
F0 Mn2 2.033061 1_555
F0 Mn3 2.112892 1_655
F0 Mn4 2.112892 1_545
F1 Mn2 2.094614 1_555
F1 Mn5 2.098033 1_555
F1 Mn4 2.237756 1_555
F2 Mn2 2.054481 1_555
F2 Mn1 2.056252 1_555
F2 Mn0 2.303915 1_556
F3 Mn5 2.051100 1_545
F3 Mn1 2.093272 1_654
F3 Mn3 2.249739 1_655
F4 Mn1 2.051100 1_655
F4 Mn5 2.093272 1_546
F4 Mn4 2.249739 1_545
F5 Mn2 2.054481 1_555
F5 Mn5 2.056252 1_555
F5 Mn0 2.303915 1_555
F6 Mn2 2.094614 1_555
F6 Mn1 2.098033 1_555
F6 Mn3 2.237756 1_555
