# generated using pymatgen
data_Li2CoH8(CO5)2
_symmetry_space_group_name_H-M   'P 1'
_cell_length_a   5.50775307
_cell_length_b   5.50775307
_cell_length_c   13.89554530
_cell_angle_alpha   82.39891352
_cell_angle_beta   82.39891352
_cell_angle_gamma   78.20564042
_symmetry_Int_Tables_number   1
_chemical_formula_structural   Li2CoH8(CO5)2
_chemical_formula_sum   'Li4 Co2 H16 C4 O20'
_cell_volume   406.58812745
_cell_formula_units_Z   2
loop_
 _symmetry_equiv_pos_site_id
 _symmetry_equiv_pos_as_xyz
  1  'x, y, z'
loop_
 _atom_site_type_symbol
 _atom_site_label
 _atom_site_symmetry_multiplicity
 _atom_site_fract_x
 _atom_site_fract_y
 _atom_site_fract_z
 _atom_site_occupancy
  Li  Li0  1  0.41314900  0.74917100  0.55768100  1
  Li  Li1  1  0.25082900  0.58685100  0.94231900  1
  Li  Li2  1  0.74917100  0.41314900  0.05768100  1
  Li  Li3  1  0.58685100  0.25082900  0.44231900  1
  Co  Co0  1  0.04487300  0.95512700  0.75000000  1
  Co  Co1  1  0.95512700  0.04487300  0.25000000  1
  H  H0  1  0.76788200  0.84232300  0.94043600  1
  H  H1  1  0.87779300  0.80833900  0.54749200  1
  H  H2  1  0.84232300  0.76788200  0.44043600  1
  H  H3  1  0.80833900  0.87779300  0.04749200  1
  H  H4  1  0.77840900  0.47122200  0.87391100  1
  H  H5  1  0.47122200  0.77840900  0.37391100  1
  H  H6  1  0.74268600  0.36771300  0.62015000  1
  H  H7  1  0.63228700  0.25731400  0.87985000  1
  H  H8  1  0.36771300  0.74268600  0.12015000  1
  H  H9  1  0.25731400  0.63228700  0.37985000  1
  H  H10  1  0.52877800  0.22159100  0.62608900  1
  H  H11  1  0.22159100  0.52877800  0.12608900  1
  H  H12  1  0.19166100  0.12220700  0.95250800  1
  H  H13  1  0.15767700  0.23211800  0.55956400  1
  H  H14  1  0.12220700  0.19166100  0.45250800  1
  H  H15  1  0.23211800  0.15767700  0.05956400  1
  C  C0  1  0.48284500  0.95812200  0.78839800  1
  C  C1  1  0.95812200  0.48284500  0.28839800  1
  C  C2  1  0.04187800  0.51715500  0.71160200  1
  C  C3  1  0.51715500  0.04187800  0.21160200  1
  O  O0  1  0.85457400  0.75916400  0.99732300  1
  O  O1  1  0.68506900  0.99136000  0.81848400  1
  O  O2  1  0.75916400  0.85457400  0.49732300  1
  O  O3  1  0.99136000  0.68506900  0.31848400  1
  O  O4  1  0.45970800  0.94723900  0.69807500  1
  O  O5  1  0.28698600  0.93950000  0.85215400  1
  O  O6  1  0.94723900  0.45970800  0.19807500  1
  O  O7  1  0.63131100  0.41041500  0.91043300  1
  O  O8  1  0.93950000  0.28698600  0.35215400  1
  O  O9  1  0.41041500  0.63131100  0.41043300  1
  O  O10  1  0.58958500  0.36868900  0.58956700  1
  O  O11  1  0.06050000  0.71301400  0.64784600  1
  O  O12  1  0.36868900  0.58958500  0.08956700  1
  O  O13  1  0.05276100  0.54029200  0.80192500  1
  O  O14  1  0.71301400  0.06050000  0.14784600  1
  O  O15  1  0.54029200  0.05276100  0.30192500  1
  O  O16  1  0.00864000  0.31493100  0.68151600  1
  O  O17  1  0.24083600  0.14542600  0.50267700  1
  O  O18  1  0.31493100  0.00864000  0.18151600  1
  O  O19  1  0.14542600  0.24083600  0.00267700  1
loop_
_geom_bond_atom_site_label_1
_geom_bond_atom_site_label_2
_geom_bond_distance
_geom_bond_site_symmetry_2
Li0 O10 2.137279 1_555
Li0 O2 2.138460 1_555
Li0 O11 2.197788 1_555
Li0 O9 2.229715 1_555
Li0 O17 2.269788 1_565
Li0 O4 2.423094 1_555
Li1 O7 2.137279 1_555
Li1 O19 2.138460 1_556
Li1 O5 2.197788 1_555
Li1 O12 2.229715 1_556
Li1 O0 2.269788 1_455
Li1 O13 2.423094 1_555
Li2 O12 2.137279 1_555
Li2 O0 2.138460 1_554
Li2 O14 2.197788 1_555
Li2 O7 2.229715 1_554
Li2 O19 2.269788 1_655
Li2 O6 2.423094 1_555
Li3 O9 2.137279 1_555
Li3 O17 2.138460 1_555
Li3 O8 2.197788 1_555
Li3 O10 2.229715 1_555
Li3 O2 2.269788 1_545
Li3 O15 2.423094 1_555
Co0 O11 2.054772 1_555
Co0 O5 2.054772 1_555
Co0 O1 2.064525 1_455
Co0 O16 2.064525 1_565
Co0 O13 2.296612 1_555
Co0 O4 2.296612 1_555
Co1 O14 2.054772 1_555
Co1 O8 2.054772 1_555
Co1 O3 2.064525 1_545
Co1 O18 2.064525 1_655
Co1 O15 2.296612 1_555
Co1 O6 2.296612 1_555
H0 O0 0.988578 1_555
H1 O2 0.991591 1_555
H2 O2 0.988578 1_555
H3 O0 0.991591 1_554
H4 O7 0.991610 1_555
H5 O9 0.991610 1_555
H6 O10 0.991982 1_555
H7 O7 0.991982 1_555
H8 O12 0.991982 1_555
H9 O9 0.991982 1_555
H10 O10 0.991610 1_555
H11 O12 0.991610 1_555
H12 O19 0.991591 1_556
H13 O17 0.988578 1_555
H14 O17 0.991591 1_555
H15 O19 0.988578 1_555
C0 O4 1.288570 1_555
C0 O1 1.294459 1_555
C0 O5 1.314319 1_555
C1 O6 1.288570 1_555
C1 O3 1.294459 1_555
C1 O8 1.314319 1_555
C2 O13 1.288570 1_555
C2 O16 1.294459 1_555
C2 O11 1.314319 1_555
C3 O15 1.288570 1_555
C3 O18 1.294459 1_555
C3 O14 1.314319 1_555
