# generated using pymatgen
data_Li6V3P8O29
_symmetry_space_group_name_H-M   'P 1'
_cell_length_a   9.83724204
_cell_length_b   9.81250604
_cell_length_c   13.92268631
_cell_angle_alpha   90.06568315
_cell_angle_beta   89.91563983
_cell_angle_gamma   59.89017109
_symmetry_Int_Tables_number   1
_chemical_formula_structural   Li6V3P8O29
_chemical_formula_sum   'Li12 V6 P16 O58'
_cell_volume   1162.58244308
_cell_formula_units_Z   2
loop_
 _symmetry_equiv_pos_site_id
 _symmetry_equiv_pos_as_xyz
  1  'x, y, z'
loop_
 _atom_site_type_symbol
 _atom_site_label
 _atom_site_symmetry_multiplicity
 _atom_site_fract_x
 _atom_site_fract_y
 _atom_site_fract_z
 _atom_site_occupancy
  Li  Li0  1  0.90705400  0.76586900  0.05997100  1
  Li  Li1  1  0.90751400  0.31764700  0.55886800  1
  Li  Li2  1  0.66197000  0.67412800  0.88482800  1
  Li  Li3  1  0.76467700  0.32431700  0.06111200  1
  Li  Li4  1  0.32413400  0.90604800  0.06087900  1
  Li  Li5  1  0.69076500  0.22178900  0.44271100  1
  Li  Li6  1  0.31846200  0.77102200  0.56161100  1
  Li  Li7  1  0.33984300  0.32931900  0.61488700  1
  Li  Li8  1  0.08079000  0.69705000  0.44015100  1
  Li  Li9  1  0.22470400  0.08595400  0.43926000  1
  Li  Li10  1  0.09686600  0.23509600  0.94051300  1
  Li  Li11  1  0.98889300  0.97392500  0.99204000  1
  V  V0  1  0.56555200  0.43352200  0.24879300  1
  V  V1  1  0.43219200  0.56427300  0.75604500  1
  V  V2  1  0.56814400  0.00192000  0.74880500  1
  V  V3  1  0.43912800  0.99849000  0.24940900  1
  V  V4  1  0.99990600  0.56905100  0.24986400  1
  V  V5  1  0.00054800  0.43738800  0.74906700  1
  P  P0  1  0.90939500  0.77745900  0.84217000  1
  P  P1  1  0.76958300  0.91453900  0.34415400  1
  P  P2  1  0.91080200  0.32197200  0.34090000  1
  P  P3  1  0.66764000  0.66688700  0.12597800  1
  P  P4  1  0.66338300  0.66570000  0.62890400  1
  P  P5  1  0.77594700  0.31609100  0.84468500  1
  P  P6  1  0.68086700  0.22995100  0.65889000  1
  P  P7  1  0.31670700  0.91186200  0.84300600  1
  P  P8  1  0.69227300  0.08223000  0.15673900  1
  P  P9  1  0.31976100  0.76756500  0.34291100  1
  P  P10  1  0.22512200  0.68983800  0.15763600  1
  P  P11  1  0.33313400  0.33322300  0.37180400  1
  P  P12  1  0.33202400  0.33072100  0.87275100  1
  P  P13  1  0.09217100  0.68042100  0.65702300  1
  P  P14  1  0.23128300  0.09056800  0.65592700  1
  P  P15  1  0.08757400  0.22901800  0.15729300  1
  O  O0  1  0.00456200  0.75235600  0.56759400  1
  O  O1  1  0.91793300  0.74808700  0.34124000  1
  O  O2  1  0.79452500  0.99573700  0.07253400  1
  O  O3  1  0.74399700  0.91959300  0.83564400  1
  O  O4  1  0.89613400  0.62553900  0.83119000  1
  O  O5  1  0.81206300  0.67821900  0.16339100  1
  O  O6  1  0.89933000  0.48250000  0.32156400  1
  O  O7  1  0.99943000  0.22844900  0.06846400  1
  O  O8  1  0.92284500  0.33510900  0.84072700  1
  O  O9  1  0.65379100  0.81587700  0.67520500  1
  O  O10  1  0.62205200  0.89891900  0.32275100  1
  O  O11  1  0.81864500  0.51866800  0.67109600  1
  O  O12  1  0.66533900  0.66884200  0.01759700  1
  O  O13  1  0.66232000  0.66070400  0.52270500  1
  O  O14  1  0.67839200  0.51132600  0.16403600  1
  O  O15  1  0.48003300  0.89736200  0.83403000  1
  O  O16  1  0.51288600  0.81116200  0.16585900  1
  O  O17  1  0.74672500  0.33785300  0.34216800  1
  O  O18  1  0.78760300  0.21547800  0.75066000  1
  O  O19  1  0.75871800  0.24779300  0.57042700  1
  O  O20  1  0.77962300  0.22944000  0.93399400  1
  O  O21  1  0.62756200  0.48225100  0.83301200  1
  O  O22  1  0.51997300  0.65693900  0.67323900  1
  O  O23  1  0.66096800  0.25502900  0.16164300  1
  O  O24  1  0.47989500  0.61841000  0.32088400  1
  O  O25  1  0.33759400  0.91517000  0.34162900  1
  O  O26  1  0.79300400  0.00086600  0.25201400  1
  O  O27  1  0.75710400  0.00684300  0.43132300  1
  O  O28  1  0.24697200  0.99412000  0.56794800  1
  O  O29  1  0.66449700  0.08349200  0.65949900  1
  O  O30  1  0.51421900  0.37546100  0.67355300  1
  O  O31  1  0.33577000  0.74791900  0.84093300  1
  O  O32  1  0.48616800  0.32835600  0.33392700  1
  O  O33  1  0.37915500  0.53366900  0.16775200  1
  O  O34  1  0.20955900  0.79522400  0.07552000  1
  O  O35  1  0.24816600  0.75182600  0.43467800  1
  O  O36  1  0.20375400  0.78778300  0.25670200  1
  O  O37  1  0.25620300  0.66619400  0.65980700  1
  O  O38  1  0.47431000  0.18335200  0.82530300  1
  O  O39  1  0.53625300  0.08375900  0.16632200  1
  O  O40  1  0.33732600  0.47654400  0.82930700  1
  O  O41  1  0.32643100  0.32741300  0.97875800  1
  O  O42  1  0.33070500  0.33163100  0.47993300  1
  O  O43  1  0.18596200  0.48649700  0.33309800  1
  O  O44  1  0.37231900  0.11649100  0.66961400  1
  O  O45  1  0.32968600  0.18500900  0.33138100  1
  O  O46  1  0.08256300  0.66159300  0.16015500  1
  O  O47  1  0.00384500  0.78523400  0.75009900  1
  O  O48  1  0.99091500  0.78087700  0.93228300  1
  O  O49  1  0.11800700  0.51106800  0.67505800  1
  O  O50  1  0.17948200  0.33492100  0.82989700  1
  O  O51  1  0.09347800  0.38000700  0.17165900  1
  O  O52  1  0.25480000  0.08170900  0.15947900  1
  O  O53  1  0.22477200  0.00468100  0.93065800  1
  O  O54  1  0.21552600  0.00246100  0.74896500  1
  O  O55  1  0.07900300  0.25272600  0.65446800  1
  O  O56  1  0.00228000  0.24524400  0.43069400  1
  O  O57  1  0.99960500  0.20918300  0.25024100  1
loop_
_geom_bond_atom_site_label_1
_geom_bond_atom_site_label_2
_geom_bond_distance
_geom_bond_site_symmetry_2
Li0 O2 1.958827 1_555
Li0 O48 1.995207 1_554
Li0 O46 2.052146 1_655
Li0 O5 2.119294 1_555
Li1 O19 1.909050 1_555
Li1 O56 1.971302 1_655
Li1 O55 1.988371 1_655
Li1 O11 2.314156 1_555
Li2 O12 1.849168 1_556
Li2 O15 2.139039 1_555
Li2 O21 2.194751 1_555
Li2 O4 2.232363 1_555
Li3 O20 1.969452 1_554
Li3 O7 2.012384 1_555
Li3 O23 2.038637 1_555
Li3 O14 2.137490 1_555
Li4 O34 1.929783 1_555
Li4 O52 2.032989 1_565
Li4 O53 2.058948 1_564
Li4 O16 2.174269 1_555
Li5 O27 1.875502 1_555
Li5 O19 1.961472 1_555
Li5 O17 2.046953 1_555
Li5 O32 2.310674 1_555
Li6 O28 1.936352 1_555
Li6 O35 1.941743 1_555
Li6 O37 1.983713 1_555
Li6 O22 2.320505 1_555
Li7 O42 1.880822 1_555
Li7 O44 2.092585 1_555
Li7 O30 2.144106 1_555
Li7 O49 2.175092 1_555
Li8 O0 1.894917 1_555
Li8 O35 1.973163 1_555
Li8 O1 1.979124 1_455
Li8 O43 2.324699 1_555
Li9 O56 1.953121 1_555
Li9 O28 1.968994 1_545
Li9 O25 2.003100 1_545
Li9 O45 2.296320 1_555
Li10 O53 1.964283 1_555
Li10 O8 2.036745 1_455
Li10 O7 2.038236 1_456
Li10 O50 2.188677 1_555
Li11 O48 2.058988 1_555
Li11 O2 2.130780 1_556
Li11 O34 2.308860 1_656
Li11 O20 2.451181 1_565
Li11 O53 2.627362 1_665
O0 P13 1.478537 1_555
O1 P1 1.551532 1_555
O1 V4 1.981305 1_555
O2 P8 1.498080 1_565
O3 P0 1.524694 1_555
O3 V2 1.926972 1_565
O4 P0 1.567568 1_555
O4 V5 1.964679 1_655
O5 P3 1.569298 1_555
O5 V4 2.008738 1_555
O6 P2 1.545676 1_555
O6 V4 1.881166 1_555
O7 P15 1.513078 1_655
O8 P5 1.548046 1_555
O8 V5 1.997459 1_655
O9 P4 1.566565 1_555
O9 V2 1.882153 1_565
O10 P1 1.562979 1_555
O10 V3 1.865230 1_555
O11 P4 1.597838 1_555
O11 V5 1.895360 1_655
O12 P3 1.509157 1_555
O13 P4 1.479558 1_555
O14 P3 1.569079 1_555
O14 V0 2.013956 1_555
O15 P7 1.545083 1_555
O15 V2 2.025794 1_565
O16 P3 1.569531 1_555
O16 V3 1.978099 1_555
O17 P2 1.541867 1_555
O17 V0 2.019582 1_555
O18 P5 1.607653 1_555
O18 P6 1.615512 1_555
O19 P6 1.505438 1_555
O20 P5 1.497351 1_555
O21 P5 1.558505 1_555
O21 V1 1.986419 1_555
O22 P4 1.580469 1_555
O22 V1 1.920645 1_555
O23 P8 1.565344 1_555
O23 V0 1.939907 1_555
O24 P9 1.549830 1_555
O24 V0 1.862355 1_555
O25 P9 1.543976 1_555
O25 V3 2.032865 1_555
O26 P8 1.609793 1_555
O26 P1 1.616706 1_545
O27 P1 1.481147 1_545
O28 P14 1.506690 1_565
O29 P6 1.524325 1_555
O29 V2 1.960893 1_555
O30 P6 1.554898 1_555
O30 V1 1.973626 1_555
O31 P7 1.523513 1_555
O31 V1 1.954659 1_555
O32 P11 1.572315 1_555
O32 V0 1.971872 1_555
O33 P10 1.528250 1_555
O33 V0 1.949803 1_555
O34 P10 1.498087 1_555
O35 P9 1.503061 1_555
O36 P9 1.599914 1_555
O36 P10 1.632071 1_555
O37 P13 1.548855 1_555
O37 V1 2.016299 1_555
O38 P12 1.565557 1_555
O38 V2 1.870787 1_555
O39 P8 1.532953 1_555
O39 V3 1.937047 1_545
O40 P12 1.578856 1_555
O40 V1 1.859458 1_555
O41 P12 1.477847 1_555
O42 P11 1.505824 1_555
O43 P11 1.570968 1_555
O43 V4 1.967198 1_455
O44 P14 1.542940 1_555
O44 V2 2.006655 1_555
O45 P11 1.575024 1_555
O45 V3 1.955993 1_545
O46 P10 1.560314 1_555
O46 V4 1.945803 1_455
O47 P0 1.606282 1_455
O47 P13 1.609048 1_555
O48 P0 1.499377 1_555
O49 P13 1.570523 1_555
O49 V5 1.938020 1_555
O50 P12 1.596904 1_555
O50 V5 1.899605 1_555
O51 P15 1.524516 1_555
O51 V4 1.937290 1_455
O52 P15 1.552731 1_555
O52 V3 2.011438 1_545
O53 P7 1.518048 1_545
O54 P14 1.608045 1_555
O54 P7 1.616792 1_545
O55 P14 1.544329 1_555
O55 V5 2.049899 1_555
O56 P2 1.505087 1_455
O57 P2 1.613916 1_555
O57 P15 1.621011 1_655
