# generated using pymatgen
data_Gd2AsO5
_symmetry_space_group_name_H-M   'P 1'
_cell_length_a   8.49649300
_cell_length_b   8.49649300
_cell_length_c   5.84241600
_cell_angle_alpha   90.00000000
_cell_angle_beta   90.00000000
_cell_angle_gamma   90.00000000
_symmetry_Int_Tables_number   1
_chemical_formula_structural   Gd2AsO5
_chemical_formula_sum   'Gd8 As4 O20'
_cell_volume   421.76630886
_cell_formula_units_Z   4
loop_
 _symmetry_equiv_pos_site_id
 _symmetry_equiv_pos_as_xyz
  1  'x, y, z'
loop_
 _atom_site_type_symbol
 _atom_site_label
 _atom_site_symmetry_multiplicity
 _atom_site_fract_x
 _atom_site_fract_y
 _atom_site_fract_z
 _atom_site_occupancy
  Gd  Gd0  1  0.35802600  0.34861700  0.24878700  1
  Gd  Gd1  1  0.65138300  0.35802600  0.75121300  1
  Gd  Gd2  1  0.34861700  0.64197400  0.75121300  1
  Gd  Gd3  1  0.64197400  0.65138300  0.24878700  1
  Gd  Gd4  1  0.85802600  0.84861700  0.75121300  1
  Gd  Gd5  1  0.15138300  0.85802600  0.24878700  1
  Gd  Gd6  1  0.84861700  0.14197400  0.24878700  1
  Gd  Gd7  1  0.14197400  0.15138300  0.75121300  1
  As  As0  1  0.00000000  0.50000000  0.54410800  1
  As  As1  1  0.00000000  0.50000000  0.13970000  1
  As  As2  1  0.50000000  0.00000000  0.45589200  1
  As  As3  1  0.50000000  0.00000000  0.86030000  1
  O  O0  1  0.91356200  0.30578400  0.60577700  1
  O  O1  1  0.08868300  0.30541800  0.09905800  1
  O  O2  1  0.80541800  0.41131700  0.09905800  1
  O  O3  1  0.19421600  0.41356200  0.60577700  1
  O  O4  1  0.50000000  0.50000000  0.50000000  1
  O  O5  1  0.50000000  0.50000000  0.00000000  1
  O  O6  1  0.80578400  0.58643800  0.60577700  1
  O  O7  1  0.19458200  0.58868300  0.09905800  1
  O  O8  1  0.91131700  0.69458200  0.09905800  1
  O  O9  1  0.08643800  0.69421600  0.60577700  1
  O  O10  1  0.41356200  0.80578400  0.39422300  1
  O  O11  1  0.58868300  0.80541800  0.90094200  1
  O  O12  1  0.30541800  0.91131700  0.90094200  1
  O  O13  1  0.69421600  0.91356200  0.39422300  1
  O  O14  1  0.00000000  0.00000000  0.50000000  1
  O  O15  1  0.00000000  0.00000000  0.00000000  1
  O  O16  1  0.30578400  0.08643800  0.39422300  1
  O  O17  1  0.69458200  0.08868300  0.90094200  1
  O  O18  1  0.41131700  0.19458200  0.90094200  1
  O  O19  1  0.58643800  0.19421600  0.39422300  1
loop_
_geom_bond_atom_site_label_1
_geom_bond_atom_site_label_2
_geom_bond_distance
_geom_bond_site_symmetry_2
Gd0 O5 2.285213 1_555
Gd0 O4 2.294255 1_555
Gd0 O16 2.425123 1_555
Gd0 O18 2.459252 1_554
Gd0 O1 2.477308 1_555
Gd0 O19 2.491847 1_555
Gd0 O3 2.567431 1_555
Gd0 O7 2.618049 1_555
Gd1 O5 2.285213 1_556
Gd1 O4 2.294255 1_555
Gd1 O0 2.425123 1_555
Gd1 O2 2.459252 1_556
Gd1 O17 2.477308 1_555
Gd1 O6 2.491847 1_555
Gd1 O19 2.567431 1_555
Gd1 O18 2.618049 1_555
Gd2 O5 2.285213 1_556
Gd2 O4 2.294255 1_555
Gd2 O9 2.425123 1_555
Gd2 O7 2.459252 1_556
Gd2 O12 2.477308 1_555
Gd2 O3 2.491847 1_555
Gd2 O10 2.567431 1_555
Gd2 O11 2.618049 1_555
Gd3 O5 2.285213 1_555
Gd3 O4 2.294255 1_555
Gd3 O13 2.425123 1_555
Gd3 O11 2.459252 1_554
Gd3 O8 2.477308 1_555
Gd3 O10 2.491847 1_555
Gd3 O6 2.567431 1_555
Gd3 O2 2.618049 1_555
Gd4 O15 2.285213 1_666
Gd4 O14 2.294255 1_665
Gd4 O6 2.425123 1_555
Gd4 O8 2.459252 1_556
Gd4 O11 2.477308 1_555
Gd4 O9 2.491847 1_655
Gd4 O13 2.567431 1_555
Gd4 O17 2.618049 1_565
Gd5 O15 2.285213 1_565
Gd5 O14 2.294255 1_565
Gd5 O10 2.425123 1_555
Gd5 O12 2.459252 1_554
Gd5 O7 2.477308 1_555
Gd5 O16 2.491847 1_565
Gd5 O9 2.567431 1_555
Gd5 O8 2.618049 1_455
Gd6 O15 2.285213 1_655
Gd6 O14 2.294255 1_655
Gd6 O19 2.425123 1_555
Gd6 O17 2.459252 1_554
Gd6 O2 2.477308 1_555
Gd6 O13 2.491847 1_545
Gd6 O0 2.567431 1_555
Gd6 O1 2.618049 1_655
Gd7 O15 2.285213 1_556
Gd7 O14 2.294255 1_555
Gd7 O3 2.425123 1_555
Gd7 O1 2.459252 1_556
Gd7 O18 2.477308 1_555
Gd7 O0 2.491847 1_455
Gd7 O16 2.567431 1_555
Gd7 O12 2.618049 1_545
As0 O9 1.841792 1_555
As0 O3 1.841792 1_555
As0 O0 1.841792 1_455
As0 O6 1.841792 1_455
As1 O8 1.832326 1_455
As1 O7 1.832326 1_555
As1 O2 1.832326 1_455
As1 O1 1.832326 1_555
As2 O13 1.841792 1_545
As2 O16 1.841792 1_555
As2 O19 1.841792 1_555
As2 O10 1.841792 1_545
As3 O17 1.832326 1_555
As3 O11 1.832326 1_545
As3 O18 1.832326 1_555
As3 O12 1.832326 1_545
