# generated using pymatgen
data_Li3NiAsCO7
_symmetry_space_group_name_H-M   'P 1'
_cell_length_a   5.07671061
_cell_length_b   10.74935052
_cell_length_c   10.74911771
_cell_angle_alpha   104.64400168
_cell_angle_beta   93.70528492
_cell_angle_gamma   86.30237866
_symmetry_Int_Tables_number   1
_chemical_formula_structural   Li3NiAsCO7
_chemical_formula_sum   'Li12 Ni4 As4 C4 O28'
_cell_volume   565.64729149
_cell_formula_units_Z   4
loop_
 _symmetry_equiv_pos_site_id
 _symmetry_equiv_pos_as_xyz
  1  'x, y, z'
loop_
 _atom_site_type_symbol
 _atom_site_label
 _atom_site_symmetry_multiplicity
 _atom_site_fract_x
 _atom_site_fract_y
 _atom_site_fract_z
 _atom_site_occupancy
  Li  Li0  1  0.77873000  0.17350800  0.07647200  1
  Li  Li1  1  0.77876700  0.67354000  0.57649600  1
  Li  Li2  1  0.22125100  0.82650100  0.92356900  1
  Li  Li3  1  0.22117900  0.32646300  0.42355100  1
  Li  Li4  1  0.24801500  0.14365900  0.87536900  1
  Li  Li5  1  0.24791100  0.64365800  0.37527800  1
  Li  Li6  1  0.24807000  0.37469800  0.10641800  1
  Li  Li7  1  0.24807800  0.87476000  0.60645700  1
  Li  Li8  1  0.75197500  0.62535100  0.89363300  1
  Li  Li9  1  0.75197200  0.12528000  0.39358500  1
  Li  Li10  1  0.75204300  0.85636000  0.12468600  1
  Li  Li11  1  0.75204400  0.35633700  0.62469100  1
  Ni  Ni0  1  0.79265200  0.03538900  0.71438300  1
  Ni  Ni1  1  0.20744200  0.96457000  0.28547100  1
  Ni  Ni2  1  0.79265000  0.53516700  0.21442400  1
  Ni  Ni3  1  0.20716400  0.46449200  0.78535800  1
  As  As0  1  0.72067000  0.33346000  0.91653600  1
  As  As1  1  0.72064400  0.83341300  0.41654700  1
  As  As2  1  0.27933900  0.66650400  0.08343000  1
  As  As3  1  0.27939000  0.16660500  0.58347700  1
  C  C0  1  0.68922100  0.39148300  0.35845000  1
  C  C1  1  0.68937500  0.89159900  0.85846800  1
  C  C2  1  0.31073700  0.60855200  0.64154700  1
  C  C3  1  0.31063100  0.10847200  0.14157200  1
  O  O0  1  0.37392600  0.18089200  0.06914800  1
  O  O1  1  0.37400100  0.68095900  0.56910000  1
  O  O2  1  0.62602400  0.81915900  0.93091500  1
  O  O3  1  0.62593800  0.31910800  0.43095600  1
  O  O4  1  0.93332400  0.40875100  0.34118000  1
  O  O5  1  0.93344000  0.90889000  0.84122200  1
  O  O6  1  0.06662300  0.59123600  0.65880200  1
  O  O7  1  0.06655800  0.09115600  0.15885100  1
  O  O8  1  0.50521200  0.44952200  0.30026400  1
  O  O9  1  0.50533700  0.94969700  0.80033500  1
  O  O10  1  0.49476600  0.55046200  0.69969600  1
  O  O11  1  0.49468700  0.05036200  0.19971900  1
  O  O12  1  0.37876100  0.34718300  0.90294200  1
  O  O13  1  0.37872400  0.84709500  0.40294100  1
  O  O14  1  0.62128100  0.65277000  0.09703300  1
  O  O15  1  0.62131200  0.15298700  0.59712300  1
  O  O16  1  0.16647800  0.57459000  0.17533900  1
  O  O17  1  0.16662400  0.07472500  0.67542200  1
  O  O18  1  0.83343300  0.42538300  0.82462400  1
  O  O19  1  0.83341500  0.92531900  0.32461200  1
  O  O20  1  0.83283700  0.17419800  0.87967400  1
  O  O21  1  0.83283000  0.67415600  0.37971100  1
  O  O22  1  0.83305400  0.37019200  0.07578500  1
  O  O23  1  0.83308100  0.87027600  0.57578700  1
  O  O24  1  0.16699400  0.62976800  0.92417900  1
  O  O25  1  0.16706700  0.12971900  0.42423400  1
  O  O26  1  0.16717600  0.82577800  0.12029800  1
  O  O27  1  0.16714800  0.32585000  0.62024000  1
loop_
_geom_bond_atom_site_label_1
_geom_bond_atom_site_label_2
_geom_bond_distance
_geom_bond_site_symmetry_2
Li0 O7 1.940407 1_655
Li0 O0 2.048666 1_555
Li0 O22 2.151610 1_555
Li0 O20 2.152613 1_554
Li1 O6 1.939825 1_655
Li1 O1 2.048454 1_555
Li1 O23 2.152216 1_555
Li1 O21 2.152225 1_555
Li2 O5 1.940375 1_455
Li2 O2 2.048512 1_555
Li2 O24 2.151852 1_555
Li2 O26 2.151939 1_556
Li3 O4 1.940097 1_455
Li3 O3 2.048429 1_555
Li3 O27 2.151162 1_555
Li3 O25 2.152032 1_555
Li4 O0 2.084913 1_556
Li4 O17 2.111530 1_555
Li4 O20 2.113799 1_455
Li4 O12 2.269073 1_555
Li4 O9 2.374606 1_545
Li5 O1 2.085545 1_555
Li5 O16 2.111637 1_555
Li5 O21 2.113340 1_455
Li5 O13 2.268175 1_555
Li5 O8 2.375934 1_555
Li6 O0 2.085240 1_555
Li6 O16 2.111246 1_555
Li6 O22 2.113125 1_455
Li6 O12 2.268619 1_554
Li6 O8 2.372602 1_555
Li7 O1 2.085239 1_555
Li7 O17 2.111908 1_565
Li7 O23 2.113052 1_455
Li7 O13 2.268736 1_555
Li7 O9 2.373354 1_555
Li8 O2 2.085377 1_555
Li8 O18 2.111991 1_555
Li8 O24 2.113014 1_655
Li8 O14 2.267985 1_556
Li8 O10 2.373625 1_555
Li9 O3 2.085646 1_555
Li9 O19 2.111869 1_545
Li9 O25 2.113502 1_655
Li9 O15 2.268926 1_555
Li9 O11 2.373294 1_555
Li10 O2 2.084987 1_554
Li10 O19 2.111337 1_555
Li10 O26 2.113655 1_655
Li10 O14 2.269662 1_555
Li10 O11 2.375019 1_565
Li11 O3 2.084727 1_555
Li11 O18 2.111518 1_555
Li11 O27 2.113455 1_655
Li11 O15 2.267278 1_555
Li11 O10 2.375769 1_555
Ni0 O23 2.016752 1_545
Ni0 O20 2.019095 1_555
Ni0 O17 2.062647 1_655
Ni0 O15 2.113147 1_555
Ni0 O9 2.146494 1_545
Ni0 O5 2.214685 1_545
Ni1 O25 2.017931 1_565
Ni1 O26 2.018166 1_555
Ni1 O19 2.063232 1_455
Ni1 O13 2.113722 1_555
Ni1 O11 2.145606 1_565
Ni1 O7 2.213740 1_565
Ni2 O22 2.015963 1_555
Ni2 O21 2.020076 1_555
Ni2 O16 2.062670 1_655
Ni2 O14 2.114251 1_555
Ni2 O8 2.145958 1_555
Ni2 O4 2.213207 1_555
Ni3 O27 2.016800 1_555
Ni3 O24 2.019098 1_555
Ni3 O18 2.061752 1_455
Ni3 O12 2.113854 1_555
Ni3 O10 2.147490 1_555
Ni3 O6 2.214074 1_555
As0 O18 1.708754 1_555
As0 O20 1.724099 1_555
As0 O22 1.724155 1_556
As0 O12 1.732372 1_555
As1 O19 1.708818 1_555
As1 O21 1.724077 1_555
As1 O23 1.724142 1_555
As1 O13 1.732414 1_555
As2 O16 1.708861 1_555
As2 O24 1.724119 1_554
As2 O26 1.724212 1_555
As2 O14 1.732546 1_555
As3 O17 1.708680 1_555
As3 O25 1.724009 1_555
As3 O27 1.724040 1_555
As3 O15 1.732413 1_555
C0 O4 1.296710 1_555
C0 O3 1.298877 1_555
C0 O8 1.303718 1_555
C1 O5 1.296520 1_555
C1 O2 1.299038 1_555
C1 O9 1.303849 1_555
C2 O6 1.296850 1_555
C2 O1 1.298623 1_555
C2 O10 1.303867 1_555
C3 O7 1.296710 1_555
C3 O0 1.298592 1_555
C3 O11 1.304064 1_555
