# generated using pymatgen
data_LiCo2OF3
_symmetry_space_group_name_H-M   'P 1'
_cell_length_a   6.12846700
_cell_length_b   6.16936700
_cell_length_c   8.49632974
_cell_angle_alpha   89.49982819
_cell_angle_beta   90.00000000
_cell_angle_gamma   90.00000000
_symmetry_Int_Tables_number   1
_chemical_formula_structural   LiCo2OF3
_chemical_formula_sum   'Li4 Co8 O4 F12'
_cell_volume   321.22346940
_cell_formula_units_Z   4
loop_
 _symmetry_equiv_pos_site_id
 _symmetry_equiv_pos_as_xyz
  1  'x, y, z'
loop_
 _atom_site_type_symbol
 _atom_site_label
 _atom_site_symmetry_multiplicity
 _atom_site_fract_x
 _atom_site_fract_y
 _atom_site_fract_z
 _atom_site_occupancy
  Li  Li0  1  0.00329700  0.76577500  0.74898200  1
  Li  Li1  1  0.00329700  0.23422500  0.25101800  1
  Li  Li2  1  0.76553900  0.50000000  0.00000000  1
  Li  Li3  1  0.76824200  0.00000000  0.00000000  1
  Co  Co0  1  0.20868900  0.00000000  0.50000000  1
  Co  Co1  1  0.21413200  0.50000000  0.50000000  1
  Co  Co2  1  0.24793800  0.77948900  0.13202200  1
  Co  Co3  1  0.24793800  0.22051100  0.86797800  1
  Co  Co4  1  0.49217100  0.76349100  0.75496400  1
  Co  Co5  1  0.49217100  0.23650900  0.24503600  1
  Co  Co6  1  0.77094700  0.73957100  0.37414900  1
  Co  Co7  1  0.77094700  0.26042900  0.62585100  1
  O  O0  1  0.01152400  0.74212200  0.50919000  1
  O  O1  1  0.01152400  0.25787800  0.49081000  1
  O  O2  1  0.26419600  0.97829200  0.73499700  1
  O  O3  1  0.26419600  0.02170800  0.26500300  1
  F  F0  1  0.25030500  0.51200700  0.75491900  1
  F  F1  1  0.25030500  0.48799300  0.24508100  1
  F  F2  1  0.49074500  0.72586900  0.50464100  1
  F  F3  1  0.49074500  0.27413100  0.49535900  1
  F  F4  1  0.51891900  0.75148900  0.99872700  1
  F  F5  1  0.51891900  0.24851100  0.00127300  1
  F  F6  1  0.75154000  0.00910700  0.23740900  1
  F  F7  1  0.75154000  0.99089300  0.76259100  1
  F  F8  1  0.73502100  0.52438900  0.76397800  1
  F  F9  1  0.73502100  0.47561100  0.23602200  1
  F  F10  1  0.98509600  0.75154600  0.99626800  1
  F  F11  1  0.98509600  0.24845400  0.00373200  1
loop_
_geom_bond_atom_site_label_1
_geom_bond_atom_site_label_2
_geom_bond_distance
_geom_bond_site_symmetry_2
Li0 O0 2.044463 1_555
Li0 O2 2.070480 1_555
Li1 O1 2.044463 1_555
Li1 O3 2.070480 1_555
Co0 O1 1.998766 1_555
Co0 O0 1.998766 1_545
Co0 O2 2.028656 1_545
Co0 O3 2.028656 1_555
Co0 F2 2.418379 1_545
Co0 F3 2.418379 1_555
Co1 O0 1.944518 1_555
Co1 O1 1.944518 1_555
Co1 F0 2.179094 1_555
Co1 F1 2.179094 1_555
Co1 F2 2.194999 1_555
Co1 F3 2.194999 1_555
Co2 O3 1.883882 1_565
Co2 F10 1.989543 1_454
Co2 F4 2.018359 1_554
Co2 F1 2.031459 1_555
Co3 O2 1.883882 1_545
Co3 F11 1.989543 1_456
Co3 F5 2.018359 1_556
Co3 F0 2.031459 1_555
Co4 O2 1.932088 1_555
Co4 F4 2.078243 1_555
Co4 F8 2.096394 1_555
Co4 F7 2.121464 1_555
Co4 F2 2.141485 1_555
Co4 F0 2.145757 1_555
Co5 O3 1.932088 1_555
Co5 F5 2.078243 1_555
Co5 F9 2.096394 1_555
Co5 F6 2.121464 1_555
Co5 F3 2.141485 1_555
Co5 F1 2.145757 1_555
Co6 O0 1.868353 1_655
Co6 F6 2.023683 1_565
Co6 F9 2.027564 1_555
Co6 F2 2.045370 1_555
Co7 O1 1.868353 1_655
Co7 F7 2.023683 1_545
Co7 F8 2.027564 1_555
Co7 F3 2.045370 1_555
F0 Li0 2.178018 1_555
F1 Li1 2.178018 1_555
F4 Li3 2.164638 1_566
F4 Li2 2.165964 1_556
F5 Li3 2.164638 1_555
F5 Li2 2.165964 1_555
F6 Li3 2.020971 1_555
F6 Li1 2.079791 1_655
F7 Li3 2.020971 1_566
F7 Li0 2.079791 1_655
F8 Li2 2.018332 1_556
F8 Li0 2.221208 1_655
F9 Li2 2.018332 1_555
F9 Li1 2.221208 1_655
F10 Li3 2.029171 1_566
F10 Li2 2.054014 1_556
F10 Li0 2.105048 1_655
F11 Li3 2.029171 1_555
F11 Li2 2.054014 1_555
F11 Li1 2.105048 1_655
