# generated using pymatgen
data_Li4Co7(OF7)2
_symmetry_space_group_name_H-M   'P 1'
_cell_length_a   6.20193555
_cell_length_b   6.19164746
_cell_length_c   10.58859365
_cell_angle_alpha   91.01050942
_cell_angle_beta   71.79392661
_cell_angle_gamma   121.49368442
_symmetry_Int_Tables_number   1
_chemical_formula_structural   Li4Co7(OF7)2
_chemical_formula_sum   'Li4 Co7 O2 F14'
_cell_volume   323.99059960
_cell_formula_units_Z   1
loop_
 _symmetry_equiv_pos_site_id
 _symmetry_equiv_pos_as_xyz
  1  'x, y, z'
loop_
 _atom_site_type_symbol
 _atom_site_label
 _atom_site_symmetry_multiplicity
 _atom_site_fract_x
 _atom_site_fract_y
 _atom_site_fract_z
 _atom_site_occupancy
  Li  Li0  1  0.98433300  0.00709900  0.99132500  1
  Li  Li1  1  0.28295300  0.60842400  0.12435800  1
  Li  Li2  1  0.26566700  0.11790100  0.63367500  1
  Li  Li3  1  0.96704700  0.51657600  0.50064200  1
  Co  Co0  1  0.62500000  0.06250000  0.31250000  1
  Co  Co1  1  0.62966100  0.32878400  0.06656400  1
  Co  Co2  1  0.12500000  0.06250000  0.31250000  1
  Co  Co3  1  0.62500000  0.06250000  0.81250000  1
  Co  Co4  1  0.62500000  0.56250000  0.31250000  1
  Co  Co5  1  0.62500000  0.56250000  0.81250000  1
  Co  Co6  1  0.62033900  0.79621600  0.55843600  1
  O  O0  1  0.85328700  0.71735000  0.42221200  1
  O  O1  1  0.39671300  0.40765000  0.20278800  1
  F  F0  1  0.85727800  0.18026600  0.43369300  1
  F  F1  1  0.87488400  0.42117100  0.19091500  1
  F  F2  1  0.83336600  0.41989900  0.69778200  1
  F  F3  1  0.82874900  0.18366500  0.94380200  1
  F  F4  1  0.38561600  0.17708300  0.43486300  1
  F  F5  1  0.86438400  0.94791700  0.19013700  1
  F  F6  1  0.83874000  0.67317100  0.94032200  1
  F  F7  1  0.38281800  0.19272200  0.93580400  1
  F  F8  1  0.37511600  0.70382900  0.43408500  1
  F  F9  1  0.86718200  0.93227800  0.68919600  1
  F  F10  1  0.41126000  0.45182900  0.68467800  1
  F  F11  1  0.39272200  0.94473400  0.19130700  1
  F  F12  1  0.42125100  0.94133500  0.68119800  1
  F  F13  1  0.41663400  0.70510100  0.92721800  1
loop_
_geom_bond_atom_site_label_1
_geom_bond_atom_site_label_2
_geom_bond_distance
_geom_bond_site_symmetry_2
Li1 O1 2.012883 1_555
Li3 O0 2.012883 1_555
Co0 F1 2.061365 1_555
Co0 F8 2.061365 1_545
Co0 F5 2.062108 1_545
Co0 F4 2.062108 1_555
Co0 F0 2.068422 1_555
Co0 F11 2.068422 1_545
Co1 O1 1.953544 1_555
Co1 F3 2.033870 1_554
Co1 F6 2.035587 1_554
Co1 F1 2.165576 1_555
Co1 F11 2.192149 1_545
Co1 F7 2.215009 1_554
Co2 O0 1.964159 1_445
Co2 O1 1.964159 1_555
Co2 F0 2.199063 1_455
Co2 F11 2.199063 1_545
Co2 F4 2.207403 1_555
Co2 F5 2.207403 1_445
Co3 F3 2.040362 1_555
Co3 F12 2.040362 1_545
Co3 F2 2.041687 1_555
Co3 F13 2.041687 1_545
Co3 F7 2.147910 1_555
Co3 F9 2.147910 1_545
Co4 O0 1.960492 1_555
Co4 O1 1.960492 1_555
Co4 F4 2.187014 1_555
Co4 F5 2.187014 1_555
Co4 F8 2.226065 1_555
Co4 F1 2.226065 1_555
Co5 F13 2.024465 1_555
Co5 F2 2.024465 1_555
Co5 F10 2.048891 1_555
Co5 F6 2.048891 1_555
Co5 F7 2.118885 1_555
Co5 F9 2.118885 1_555
Co6 O0 1.953544 1_555
Co6 F12 2.033870 1_555
Co6 F10 2.035587 1_555
Co6 F8 2.165576 1_555
Co6 F0 2.192149 1_565
Co6 F9 2.215009 1_555
F0 Li3 2.017524 1_555
F1 Li1 2.023490 1_655
F2 Li3 1.961426 1_555
F3 Li0 1.950490 1_555
F4 Li2 1.970563 1_555
F5 Li0 1.970563 1_564
F6 Li0 1.922644 1_565
F7 Li0 1.980541 1_455
F8 Li3 2.023490 1_455
F9 Li2 1.980541 1_665
F10 Li2 1.922644 1_555
F11 Li1 2.017524 1_555
F12 Li2 1.950490 1_565
F13 Li1 1.961426 1_556
