# generated using pymatgen
data_Sr3TeO6
_symmetry_space_group_name_H-M   'P 1'
_cell_length_a   6.06038112
_cell_length_b   6.06038112
_cell_length_c   6.06038108
_cell_angle_alpha   59.59511291
_cell_angle_beta   59.59511291
_cell_angle_gamma   59.59510587
_symmetry_Int_Tables_number   1
_chemical_formula_structural   Sr3TeO6
_chemical_formula_sum   'Sr3 Te1 O6'
_cell_volume   155.94430453
_cell_formula_units_Z   1
loop_
 _symmetry_equiv_pos_site_id
 _symmetry_equiv_pos_as_xyz
  1  'x, y, z'
loop_
 _atom_site_type_symbol
 _atom_site_label
 _atom_site_symmetry_multiplicity
 _atom_site_fract_x
 _atom_site_fract_y
 _atom_site_fract_z
 _atom_site_occupancy
  Sr  Sr0  1  0.35339800  0.35339800  0.35339800  1
  Sr  Sr1  1  0.61855500  0.61855500  0.61855500  1
  Sr  Sr2  1  0.11830800  0.11830800  0.11830800  1
  Te  Te0  1  0.84748500  0.84748500  0.84748500  1
  O  O0  1  0.15263700  0.61942600  0.98499700  1
  O  O1  1  0.05138200  0.71560400  0.53820700  1
  O  O2  1  0.53820700  0.05138200  0.71560400  1
  O  O3  1  0.61942600  0.98499700  0.15263700  1
  O  O4  1  0.98499700  0.15263700  0.61942600  1
  O  O5  1  0.71560400  0.53820700  0.05138200  1
loop_
_geom_bond_atom_site_label_1
_geom_bond_atom_site_label_2
_geom_bond_distance
_geom_bond_site_symmetry_2
O0 Te0 1.957477 1_455
O0 Sr0 2.486948 1_556
O0 Sr1 2.560144 1_555
O0 Sr2 2.811584 1_556
O1 Te0 1.962439 1_455
O1 Sr0 2.402026 1_555
O1 Sr2 2.503454 1_565
O1 Sr1 2.728097 1_455
O2 Te0 1.962439 1_545
O2 Sr0 2.402026 1_555
O2 Sr2 2.503454 1_556
O2 Sr1 2.728097 1_545
O3 Te0 1.957477 1_554
O3 Sr0 2.486948 1_565
O3 Sr1 2.560144 1_555
O3 Sr2 2.811584 1_565
O4 Te0 1.957477 1_545
O4 Sr0 2.486948 1_655
O4 Sr1 2.560143 1_555
O4 Sr2 2.811584 1_655
O5 Te0 1.962440 1_554
O5 Sr0 2.402026 1_555
O5 Sr2 2.503454 1_655
O5 Sr1 2.728097 1_554
