# generated using pymatgen
data_TiMn2O6
_symmetry_space_group_name_H-M   'P 1'
_cell_length_a   6.53459873
_cell_length_b   6.53459873
_cell_length_c   5.82630610
_cell_angle_alpha   78.15430582
_cell_angle_beta   78.15430582
_cell_angle_gamma   26.15300380
_symmetry_Int_Tables_number   1
_chemical_formula_structural   TiMn2O6
_chemical_formula_sum   'Ti1 Mn2 O6'
_cell_volume   107.19592384
_cell_formula_units_Z   1
loop_
 _symmetry_equiv_pos_site_id
 _symmetry_equiv_pos_as_xyz
  1  'x, y, z'
loop_
 _atom_site_type_symbol
 _atom_site_label
 _atom_site_symmetry_multiplicity
 _atom_site_fract_x
 _atom_site_fract_y
 _atom_site_fract_z
 _atom_site_occupancy
  Ti  Ti0  1  0.00000000  0.00000000  0.50000000  1
  Mn  Mn0  1  0.66738100  0.66738100  0.16501200  1
  Mn  Mn1  1  0.33261900  0.33261900  0.83498800  1
  O  O0  1  0.15886300  0.15886300  0.38550900  1
  O  O1  1  0.82228300  0.82228300  0.05751200  1
  O  O2  1  0.84113700  0.84113700  0.61449100  1
  O  O3  1  0.48807500  0.48807500  0.72761900  1
  O  O4  1  0.51192500  0.51192500  0.27238100  1
  O  O5  1  0.17771700  0.17771700  0.94248800  1
loop_
_geom_bond_atom_site_label_1
_geom_bond_atom_site_label_2
_geom_bond_distance
_geom_bond_site_symmetry_2
Mn0 O1 1.939149 1_555
Mn0 O4 1.945761 1_555
Mn0 O0 1.946616 1_655
Mn0 O0 1.946616 1_565
Mn0 O5 1.952476 1_654
Mn0 O5 1.952476 1_564
Mn1 O5 1.939149 1_555
Mn1 O3 1.945761 1_555
Mn1 O2 1.946616 1_455
Mn1 O2 1.946616 1_545
Mn1 O1 1.952476 1_456
Mn1 O1 1.952476 1_546
O0 Ti0 1.991573 1_555
O2 Ti0 1.991573 1_665
O3 Ti0 1.970482 1_565
O3 Ti0 1.970482 1_655
O4 Ti0 1.970482 1_565
O4 Ti0 1.970482 1_655
