# generated using pymatgen
data_K2InH2Cl5O
_symmetry_space_group_name_H-M   'P 1'
_cell_length_a   7.34490900
_cell_length_b   10.05580700
_cell_length_c   14.15542900
_cell_angle_alpha   90.00000000
_cell_angle_beta   90.00000000
_cell_angle_gamma   90.00000000
_symmetry_Int_Tables_number   1
_chemical_formula_structural   K2InH2Cl5O
_chemical_formula_sum   'K8 In4 H8 Cl20 O4'
_cell_volume   1045.50565125
_cell_formula_units_Z   4
loop_
 _symmetry_equiv_pos_site_id
 _symmetry_equiv_pos_as_xyz
  1  'x, y, z'
loop_
 _atom_site_type_symbol
 _atom_site_label
 _atom_site_symmetry_multiplicity
 _atom_site_fract_x
 _atom_site_fract_y
 _atom_site_fract_z
 _atom_site_occupancy
  K  K0  1  0.35899600  0.00027700  0.14747500  1
  K  K1  1  0.35899600  0.49972300  0.14747500  1
  K  K2  1  0.85899600  0.99972300  0.35252500  1
  K  K3  1  0.85899600  0.50027700  0.35252500  1
  K  K4  1  0.14100400  0.49972300  0.64747500  1
  K  K5  1  0.14100400  0.00027700  0.64747500  1
  K  K6  1  0.64100400  0.99972300  0.85252500  1
  K  K7  1  0.64100400  0.50027700  0.85252500  1
  In  In0  1  0.81320500  0.25000000  0.11335700  1
  In  In1  1  0.31320500  0.75000000  0.38664300  1
  In  In2  1  0.68679500  0.25000000  0.61335700  1
  In  In3  1  0.18679500  0.75000000  0.88664300  1
  H  H0  1  0.95714000  0.82981000  0.04724300  1
  H  H1  1  0.95714000  0.67019000  0.04724300  1
  H  H2  1  0.45714000  0.17019000  0.45275700  1
  H  H3  1  0.45714000  0.32981000  0.45275700  1
  H  H4  1  0.54286000  0.67019000  0.54724300  1
  H  H5  1  0.54286000  0.82981000  0.54724300  1
  H  H6  1  0.04286000  0.17019000  0.95275700  1
  H  H7  1  0.04286000  0.32981000  0.95275700  1
  Cl  Cl0  1  0.54165900  0.25000000  0.00241700  1
  Cl  Cl1  1  0.81538500  0.99863800  0.10597700  1
  Cl  Cl2  1  0.81538500  0.50136200  0.10597700  1
  Cl  Cl3  1  0.09001600  0.25000000  0.21776300  1
  Cl  Cl4  1  0.10518600  0.75000000  0.24398000  1
  Cl  Cl5  1  0.60518600  0.25000000  0.25602000  1
  Cl  Cl6  1  0.59001600  0.75000000  0.28223700  1
  Cl  Cl7  1  0.31538500  0.49863800  0.39402300  1
  Cl  Cl8  1  0.31538500  0.00136200  0.39402300  1
  Cl  Cl9  1  0.04165900  0.75000000  0.49758300  1
  Cl  Cl10  1  0.95834100  0.25000000  0.50241700  1
  Cl  Cl11  1  0.68461500  0.99863800  0.60597700  1
  Cl  Cl12  1  0.68461500  0.50136200  0.60597700  1
  Cl  Cl13  1  0.40998400  0.25000000  0.71776300  1
  Cl  Cl14  1  0.39481400  0.75000000  0.74398000  1
  Cl  Cl15  1  0.89481400  0.25000000  0.75602000  1
  Cl  Cl16  1  0.90998400  0.75000000  0.78223700  1
  Cl  Cl17  1  0.18461500  0.49863800  0.89402300  1
  Cl  Cl18  1  0.18461500  0.00136200  0.89402300  1
  Cl  Cl19  1  0.45834100  0.75000000  0.99758300  1
  O  O0  1  0.99644700  0.75000000  0.01199700  1
  O  O1  1  0.49644700  0.25000000  0.48800300  1
  O  O2  1  0.50355300  0.75000000  0.51199700  1
  O  O3  1  0.00355300  0.25000000  0.98800300  1
loop_
_geom_bond_atom_site_label_1
_geom_bond_atom_site_label_2
_geom_bond_distance
_geom_bond_site_symmetry_2
In0 O3 2.259046 1_654
In1 O2 2.259046 1_555
In2 O1 2.259046 1_555
In3 O0 2.259046 1_456
H0 O0 0.988113 1_555
H1 O0 0.988113 1_555
H2 O1 0.988113 1_555
H3 O1 0.988113 1_555
H4 O2 0.988113 1_555
H5 O2 0.988113 1_555
H6 O3 0.988113 1_555
H7 O3 0.988113 1_555
Cl0 In0 2.538527 1_555
Cl0 K6 3.371702 1_544
Cl0 K7 3.371702 1_554
Cl0 K1 3.510305 1_555
Cl0 K0 3.510305 1_555
Cl1 In0 2.529856 1_565
Cl1 K0 3.403256 1_565
Cl1 K2 3.504679 1_555
Cl2 In0 2.529856 1_555
Cl2 K1 3.403256 1_555
Cl2 K3 3.504679 1_555
Cl3 In0 2.513549 1_455
Cl3 K1 3.346494 1_555
Cl3 K0 3.346494 1_555
Cl3 K2 3.584991 1_445
Cl3 K3 3.584991 1_455
Cl4 In1 2.532315 1_555
Cl4 K0 3.416928 1_565
Cl4 K1 3.416928 1_555
Cl4 K2 3.454929 1_455
Cl4 K3 3.454929 1_455
Cl5 In0 2.532315 1_555
Cl5 K2 3.416928 1_545
Cl5 K3 3.416928 1_555
Cl5 K1 3.454929 1_555
Cl5 K0 3.454929 1_555
Cl6 In1 2.513549 1_555
Cl6 K2 3.346494 1_555
Cl6 K3 3.346494 1_555
Cl6 K1 3.584991 1_555
Cl6 K0 3.584991 1_565
Cl7 In1 2.529856 1_555
Cl7 K3 3.403256 1_455
Cl7 K1 3.504679 1_555
Cl8 In1 2.529856 1_545
Cl8 K2 3.403256 1_445
Cl8 K0 3.504679 1_555
Cl9 In1 2.538527 1_555
Cl9 K4 3.371702 1_555
Cl9 K5 3.371702 1_565
Cl9 K2 3.510305 1_455
Cl9 K3 3.510305 1_455
Cl10 In2 2.538527 1_555
Cl10 K2 3.371702 1_545
Cl10 K3 3.371702 1_555
Cl10 K4 3.510305 1_655
Cl10 K5 3.510305 1_655
Cl11 In2 2.529856 1_565
Cl11 K5 3.403256 1_665
Cl11 K6 3.504679 1_555
Cl12 In2 2.529856 1_555
Cl12 K4 3.403256 1_655
Cl12 K7 3.504679 1_555
Cl13 In2 2.513549 1_555
Cl13 K4 3.346494 1_555
Cl13 K5 3.346494 1_555
Cl13 K6 3.584991 1_545
Cl13 K7 3.584991 1_555
Cl14 In3 2.532315 1_555
Cl14 K4 3.416928 1_555
Cl14 K5 3.416928 1_565
Cl14 K7 3.454929 1_555
Cl14 K6 3.454929 1_555
Cl15 In2 2.532315 1_555
Cl15 K7 3.416928 1_555
Cl15 K6 3.416928 1_545
Cl15 K4 3.454929 1_655
Cl15 K5 3.454929 1_655
Cl16 In3 2.513549 1_655
Cl16 K7 3.346494 1_555
Cl16 K6 3.346494 1_555
Cl16 K5 3.584991 1_665
Cl16 K4 3.584991 1_655
Cl17 In3 2.529856 1_555
Cl17 K7 3.403256 1_555
Cl17 K4 3.504679 1_555
Cl18 In3 2.529856 1_545
Cl18 K6 3.403256 1_545
Cl18 K5 3.504679 1_555
Cl19 In3 2.538527 1_555
Cl19 K1 3.371702 1_556
Cl19 K0 3.371702 1_566
Cl19 K6 3.510305 1_555
Cl19 K7 3.510305 1_555
