# generated using pymatgen
data_Li4Mn2Nb3Fe3O16
_symmetry_space_group_name_H-M   'P 1'
_cell_length_a   6.05850015
_cell_length_b   6.05850015
_cell_length_c   9.92249305
_cell_angle_alpha   88.67708434
_cell_angle_beta   88.67708434
_cell_angle_gamma   61.09337734
_symmetry_Int_Tables_number   1
_chemical_formula_structural   Li4Mn2Nb3Fe3O16
_chemical_formula_sum   'Li4 Mn2 Nb3 Fe3 O16'
_cell_volume   318.71740326
_cell_formula_units_Z   1
loop_
 _symmetry_equiv_pos_site_id
 _symmetry_equiv_pos_as_xyz
  1  'x, y, z'
loop_
 _atom_site_type_symbol
 _atom_site_label
 _atom_site_symmetry_multiplicity
 _atom_site_fract_x
 _atom_site_fract_y
 _atom_site_fract_z
 _atom_site_occupancy
  Li  Li0  1  0.33731200  0.33731200  0.09719700  1
  Li  Li1  1  0.98604000  0.98604000  0.00144600  1
  Li  Li2  1  0.97858500  0.97858500  0.50622300  1
  Li  Li3  1  0.66564600  0.66564600  0.62280900  1
  Mn  Mn0  1  0.34770800  0.34770800  0.51163500  1
  Mn  Mn1  1  0.67056800  0.67056800  0.00468900  1
  Nb  Nb0  1  0.16888200  0.16888200  0.78479200  1
  Nb  Nb1  1  0.84342600  0.34380500  0.28588900  1
  Nb  Nb2  1  0.34380500  0.84342600  0.28588900  1
  Fe  Fe0  1  0.65824700  0.17388500  0.78739200  1
  Fe  Fe1  1  0.17388500  0.65824700  0.78739200  1
  Fe  Fe2  1  0.83175400  0.83175400  0.28049000  1
  O  O0  1  0.68838700  0.16623700  0.38793500  1
  O  O1  1  0.48402400  0.48402400  0.67326900  1
  O  O2  1  0.32609300  0.32609300  0.89919000  1
  O  O3  1  0.99780300  0.99780300  0.68922400  1
  O  O4  1  0.01388900  0.01388900  0.18165200  1
  O  O5  1  0.16623700  0.68838700  0.38793500  1
  O  O6  1  0.47751900  0.02974500  0.66984200  1
  O  O7  1  0.02974500  0.47751900  0.66984200  1
  O  O8  1  0.82927600  0.82927600  0.89956400  1
  O  O9  1  0.16376600  0.16376600  0.39436000  1
  O  O10  1  0.97174500  0.51360900  0.16001300  1
  O  O11  1  0.51360900  0.97174500  0.16001300  1
  O  O12  1  0.65594900  0.65594900  0.40032300  1
  O  O13  1  0.84141900  0.31412900  0.90226700  1
  O  O14  1  0.52722700  0.52722700  0.15957000  1
  O  O15  1  0.31412900  0.84141900  0.90226700  1
loop_
_geom_bond_atom_site_label_1
_geom_bond_atom_site_label_2
_geom_bond_distance
_geom_bond_site_symmetry_2
Li0 O2 1.971339 1_554
Li0 O10 2.028451 1_455
Li0 O11 2.028451 1_545
Li0 O14 2.091994 1_555
Li1 O4 1.819229 1_665
Li1 O8 1.945959 1_554
Li1 O13 1.988208 1_564
Li1 O15 1.988208 1_654
Li2 O3 1.832203 1_555
Li2 O5 1.965329 1_655
Li2 O0 1.965329 1_565
Li2 O9 2.202564 1_665
Li3 O1 1.947288 1_555
Li3 O6 1.993779 1_565
Li3 O7 1.993779 1_655
Li3 O12 2.212642 1_555
Mn0 O1 2.172108 1_555
Mn0 O5 2.174148 1_555
Mn0 O0 2.174148 1_555
Mn0 O9 2.271197 1_555
Mn0 O7 2.290514 1_555
Mn0 O6 2.290514 1_555
Mn1 O8 1.933481 1_554
Mn1 O14 2.115651 1_555
Mn1 O15 2.158565 1_554
Mn1 O13 2.158565 1_554
Mn1 O10 2.234665 1_555
Mn1 O11 2.234665 1_555
Nb0 O6 1.982432 1_555
Nb0 O7 1.982432 1_555
Nb0 O2 2.019835 1_555
Nb0 O3 2.043813 1_445
Nb0 O15 2.078910 1_545
Nb0 O13 2.078910 1_455
Nb1 O10 1.972756 1_555
Nb1 O0 1.986854 1_555
Nb1 O9 2.027433 1_655
Nb1 O12 2.029469 1_555
Nb1 O4 2.044993 1_655
Nb1 O14 2.112879 1_555
Nb2 O11 1.972756 1_555
Nb2 O5 1.986854 1_555
Nb2 O9 2.027433 1_565
Nb2 O12 2.029469 1_555
Nb2 O4 2.044993 1_565
Nb2 O14 2.112879 1_555
Fe0 O1 1.991616 1_555
Fe0 O3 2.037821 1_545
Fe0 O13 2.065777 1_555
Fe0 O2 2.068973 1_555
Fe0 O6 2.086233 1_555
Fe0 O8 2.127430 1_545
Fe1 O1 1.991616 1_555
Fe1 O3 2.037821 1_455
Fe1 O15 2.065777 1_555
Fe1 O2 2.068973 1_555
Fe1 O7 2.086233 1_555
Fe1 O8 2.127430 1_455
Fe2 O10 2.083919 1_555
Fe2 O11 2.083919 1_555
Fe2 O5 2.086374 1_655
Fe2 O0 2.086374 1_565
Fe2 O4 2.115257 1_665
Fe2 O12 2.159299 1_555
