# generated using pymatgen
data_Li3Cr3FeO8
_symmetry_space_group_name_H-M   'P 1'
_cell_length_a   5.14531155
_cell_length_b   7.79461858
_cell_length_c   7.75117187
_cell_angle_alpha   81.86831959
_cell_angle_beta   70.76188175
_cell_angle_gamma   84.04967228
_symmetry_Int_Tables_number   1
_chemical_formula_structural   Li3Cr3FeO8
_chemical_formula_sum   'Li6 Cr6 Fe2 O16'
_cell_volume   290.01391295
_cell_formula_units_Z   2
loop_
 _symmetry_equiv_pos_site_id
 _symmetry_equiv_pos_as_xyz
  1  'x, y, z'
loop_
 _atom_site_type_symbol
 _atom_site_label
 _atom_site_symmetry_multiplicity
 _atom_site_fract_x
 _atom_site_fract_y
 _atom_site_fract_z
 _atom_site_occupancy
  Li  Li0  1  0.00036900  0.00628900  0.00019600  1
  Li  Li1  1  0.00048300  0.62156000  0.12200900  1
  Li  Li2  1  0.99467100  0.50958800  0.50438800  1
  Li  Li3  1  0.00537700  0.24035700  0.24566400  1
  Li  Li4  1  0.99953700  0.12841300  0.62794400  1
  Li  Li5  1  0.99959800  0.74376100  0.74976200  1
  Cr  Cr0  1  0.49204800  0.81400500  0.06716600  1
  Cr  Cr1  1  0.50991600  0.43570700  0.18606800  1
  Cr  Cr2  1  0.49006000  0.31432200  0.56397300  1
  Cr  Cr3  1  0.50330200  0.18932500  0.93595200  1
  Cr  Cr4  1  0.49670200  0.56067800  0.81404100  1
  Cr  Cr5  1  0.50796600  0.93600200  0.68278700  1
  Fe  Fe0  1  0.49682600  0.05953800  0.31407500  1
  Fe  Fe1  1  0.50317200  0.69043900  0.43594400  1
  O  O0  1  0.28432700  0.03637800  0.15694000  1
  O  O1  1  0.28424900  0.40502000  0.03220100  1
  O  O2  1  0.28866700  0.64916000  0.28525800  1
  O  O3  1  0.27528300  0.26969400  0.39799800  1
  O  O4  1  0.29097000  0.90133400  0.51870400  1
  O  O5  1  0.28147800  0.54313400  0.63664100  1
  O  O6  1  0.28315700  0.14734700  0.77361900  1
  O  O7  1  0.71849600  0.20684900  0.11341000  1
  O  O8  1  0.27244400  0.78159700  0.90222200  1
  O  O9  1  0.72469500  0.48031200  0.35204000  1
  O  O10  1  0.71134100  0.10086600  0.46474200  1
  O  O11  1  0.70899800  0.84868300  0.23126000  1
  O  O12  1  0.71576000  0.34497700  0.71782400  1
  O  O13  1  0.71567800  0.71360900  0.59304100  1
  O  O14  1  0.72757900  0.96841300  0.84773300  1
  O  O15  1  0.71684800  0.60264200  0.97639500  1
loop_
_geom_bond_atom_site_label_1
_geom_bond_atom_site_label_2
_geom_bond_distance
_geom_bond_site_symmetry_2
Li0 O7 2.096830 1_455
Li0 O6 2.124106 1_554
Li0 O14 2.175198 1_444
Li0 O8 2.184300 1_544
Li0 O11 2.225861 1_445
Li0 O0 2.233207 1_555
Li1 O9 2.122764 1_455
Li1 O15 2.145381 1_454
Li1 O8 2.146209 1_554
Li1 O1 2.148687 1_555
Li1 O11 2.266542 1_455
Li1 O2 2.285986 1_555
Li2 O13 2.060973 1_555
Li2 O5 2.109429 1_655
Li2 O2 2.117085 1_655
Li2 O9 2.144553 1_555
Li2 O12 2.158573 1_555
Li2 O3 2.313656 1_655
Li3 O0 2.060734 1_555
Li3 O7 2.109689 1_455
Li3 O10 2.116690 1_455
Li3 O3 2.144285 1_555
Li3 O1 2.158799 1_555
Li3 O9 2.314157 1_455
Li4 O3 2.122428 1_655
Li4 O6 2.145701 1_655
Li4 O14 2.146055 1_545
Li4 O12 2.148975 1_555
Li4 O4 2.266135 1_645
Li4 O10 2.285655 1_555
Li5 O5 2.097016 1_655
Li5 O15 2.124469 1_555
Li5 O8 2.175335 1_655
Li5 O14 2.183922 1_555
Li5 O4 2.225709 1_655
Li5 O13 2.233027 1_555
Cr0 O15 1.985869 1_554
Cr0 O11 2.008078 1_555
Cr0 O8 2.019326 1_554
Cr0 O0 2.024329 1_565
Cr0 O2 2.025409 1_555
Cr0 O14 2.043302 1_554
Cr1 O1 1.969444 1_555
Cr1 O15 2.004181 1_554
Cr1 O2 2.011875 1_555
Cr1 O7 2.034722 1_555
Cr1 O9 2.034758 1_555
Cr1 O3 2.060600 1_555
Cr2 O12 1.969412 1_555
Cr2 O6 2.004202 1_555
Cr2 O10 2.012052 1_555
Cr2 O5 2.034434 1_555
Cr2 O3 2.034826 1_555
Cr2 O9 2.060513 1_555
Cr3 O12 2.000573 1_555
Cr3 O0 2.013396 1_556
Cr3 O1 2.015290 1_556
Cr3 O6 2.026301 1_555
Cr3 O14 2.040927 1_545
Cr3 O7 2.055437 1_556
Cr4 O1 2.000733 1_556
Cr4 O13 2.013385 1_555
Cr4 O12 2.015263 1_555
Cr4 O15 2.026407 1_555
Cr4 O8 2.040857 1_555
Cr4 O5 2.055204 1_555
Cr5 O6 1.985904 1_565
Cr5 O4 2.008169 1_555
Cr5 O14 2.019382 1_555
Cr5 O13 2.024384 1_555
Cr5 O10 2.025275 1_565
Cr5 O8 2.043280 1_555
Fe0 O7 1.906773 1_555
Fe0 O0 1.921519 1_555
Fe0 O10 1.927558 1_555
Fe0 O4 1.941305 1_545
Fe0 O11 1.941572 1_545
Fe0 O3 1.957428 1_555
Fe1 O5 1.906928 1_555
Fe1 O13 1.921321 1_555
Fe1 O2 1.927518 1_555
Fe1 O11 1.941665 1_555
Fe1 O4 1.941776 1_555
Fe1 O9 1.957164 1_555
