# generated using pymatgen
data_Co2OF3
_symmetry_space_group_name_H-M   'P 1'
_cell_length_a   4.70945000
_cell_length_b   5.66789918
_cell_length_c   13.32128766
_cell_angle_alpha   78.98913348
_cell_angle_beta   87.90697405
_cell_angle_gamma   87.81308263
_symmetry_Int_Tables_number   1
_chemical_formula_structural   Co2OF3
_chemical_formula_sum   'Co10 O5 F15'
_cell_volume   348.62591790
_cell_formula_units_Z   5
loop_
 _symmetry_equiv_pos_site_id
 _symmetry_equiv_pos_as_xyz
  1  'x, y, z'
loop_
 _atom_site_type_symbol
 _atom_site_label
 _atom_site_symmetry_multiplicity
 _atom_site_fract_x
 _atom_site_fract_y
 _atom_site_fract_z
 _atom_site_occupancy
  Co  Co0  1  0.48438800  0.51155300  0.00587900  1
  Co  Co1  1  0.50747000  0.69631800  0.39736000  1
  Co  Co2  1  0.48784200  0.30085200  0.60424100  1
  Co  Co3  1  0.49928700  0.10037100  0.19935500  1
  Co  Co4  1  0.53984000  0.88831700  0.78638600  1
  Co  Co5  1  0.99939700  0.19910000  0.40059300  1
  Co  Co6  1  0.97563000  0.41353600  0.80624500  1
  Co  Co7  1  0.99671100  0.60229500  0.20125900  1
  Co  Co8  1  0.02023800  0.78706900  0.59521400  1
  Co  Co9  1  0.00139900  0.00308300  0.99862900  1
  O  O0  1  0.70305200  0.96729000  0.66261600  1
  O  O1  1  0.70173700  0.58077400  0.86218900  1
  O  O2  1  0.70000500  0.78197600  0.25834500  1
  O  O3  1  0.29513700  0.42431600  0.13951100  1
  O  O4  1  0.29844600  0.61982300  0.54063000  1
  F  F0  1  0.79966800  0.27913000  0.26064500  1
  F  F1  1  0.80278700  0.08605800  0.85851900  1
  F  F2  1  0.80074000  0.68837400  0.05980600  1
  F  F3  1  0.80251300  0.88010500  0.46174100  1
  F  F4  1  0.81001600  0.47206100  0.66308900  1
  F  F5  1  0.69040400  0.18577800  0.05833700  1
  F  F6  1  0.69392900  0.37910700  0.46297200  1
  F  F7  1  0.28969300  0.21463400  0.74781600  1
  F  F8  1  0.30856900  0.83015300  0.92975000  1
  F  F9  1  0.30699900  0.01871200  0.33987000  1
  F  F10  1  0.19767900  0.92271000  0.13859700  1
  F  F11  1  0.19284000  0.32484800  0.93811500  1
  F  F12  1  0.19302600  0.11680100  0.54152800  1
  F  F13  1  0.20482000  0.70716500  0.74013200  1
  F  F14  1  0.19573900  0.51769200  0.34063200  1
loop_
_geom_bond_atom_site_label_1
_geom_bond_atom_site_label_2
_geom_bond_distance
_geom_bond_site_symmetry_2
Co0 O3 1.946610 1_555
Co0 F2 2.051161 1_555
Co0 F8 2.054906 1_554
Co0 F5 2.063731 1_555
Co0 F11 2.094338 1_554
Co0 O1 2.113351 1_554
Co1 O2 2.013645 1_555
Co1 F6 2.025547 1_555
Co1 F9 2.050232 1_565
Co1 F14 2.058660 1_555
Co1 F3 2.071259 1_555
Co1 O4 2.092554 1_555
Co2 O4 2.032008 1_555
Co2 F12 2.059619 1_555
Co2 F6 2.064169 1_555
Co2 F7 2.077277 1_555
Co2 F4 2.085219 1_555
Co2 O0 2.134483 1_545
Co3 F9 2.028619 1_555
Co3 F5 2.033650 1_555
Co3 O2 2.037181 1_545
Co3 F10 2.047214 1_545
Co3 F0 2.050386 1_555
Co3 O3 2.072011 1_555
Co4 O0 1.778032 1_555
Co4 O1 1.980382 1_555
Co4 F1 2.077782 1_565
Co4 F13 2.087944 1_555
Co4 F8 2.139445 1_555
Co4 F7 2.141844 1_565
Co5 F9 1.978766 1_655
Co5 F6 1.981285 1_555
Co5 F14 2.067911 1_655
Co5 F3 2.074228 1_545
Co5 F12 2.081333 1_655
Co5 F0 2.082925 1_555
Co6 O1 1.795550 1_555
Co6 F11 2.034627 1_655
Co6 F1 2.042751 1_555
Co6 F7 2.046517 1_655
Co6 F4 2.049963 1_555
Co6 F13 2.053823 1_655
Co7 O2 1.917704 1_555
Co7 O3 1.947756 1_655
Co7 F14 2.075642 1_655
Co7 F0 2.089148 1_555
Co7 F2 2.093326 1_555
Co7 F10 2.094061 1_655
Co8 O4 1.800793 1_555
Co8 O0 2.053505 1_455
Co8 F3 2.055381 1_455
Co8 F12 2.056544 1_565
Co8 F4 2.106734 1_455
Co8 F13 2.108583 1_555
Co9 F5 1.990922 1_456
Co9 F8 2.008391 1_545
Co9 F2 2.063006 1_446
Co9 F11 2.073523 1_555
Co9 F10 2.075534 1_546
Co9 F1 2.082865 1_455
