# generated using pymatgen
data_BaCe2O4
_symmetry_space_group_name_H-M   'P 1'
_cell_length_a   3.64377103
_cell_length_b   10.65639547
_cell_length_c   12.56304439
_cell_angle_alpha   90.00000000
_cell_angle_beta   90.00000000
_cell_angle_gamma   90.00000000
_symmetry_Int_Tables_number   1
_chemical_formula_structural   BaCe2O4
_chemical_formula_sum   'Ba4 Ce8 O16'
_cell_volume   487.81629366
_cell_formula_units_Z   4
loop_
 _symmetry_equiv_pos_site_id
 _symmetry_equiv_pos_as_xyz
  1  'x, y, z'
loop_
 _atom_site_type_symbol
 _atom_site_label
 _atom_site_symmetry_multiplicity
 _atom_site_fract_x
 _atom_site_fract_y
 _atom_site_fract_z
 _atom_site_occupancy
  Ba  Ba0  1  0.25000000  0.24990030  0.35197710  1
  Ba  Ba1  1  0.25000000  0.74990030  0.14802290  1
  Ba  Ba2  1  0.75000000  0.75009970  0.64802290  1
  Ba  Ba3  1  0.75000000  0.25009970  0.85197710  1
  Ce  Ce0  1  0.25000000  0.07631669  0.61192995  1
  Ce  Ce1  1  0.25000000  0.57631669  0.88807005  1
  Ce  Ce2  1  0.75000000  0.92368331  0.38807005  1
  Ce  Ce3  1  0.75000000  0.42368331  0.11192995  1
  Ce  Ce4  1  0.25000000  0.58036085  0.38802624  1
  Ce  Ce5  1  0.25000000  0.08036085  0.11197376  1
  Ce  Ce6  1  0.75000000  0.41963915  0.61197376  1
  Ce  Ce7  1  0.75000000  0.91963915  0.88802624  1
  O  O0  1  0.25000000  0.28660712  0.67379388  1
  O  O1  1  0.25000000  0.78660712  0.82620612  1
  O  O2  1  0.75000000  0.71339288  0.32620612  1
  O  O3  1  0.75000000  0.21339288  0.17379388  1
  O  O4  1  0.25000000  0.37788769  0.98348951  1
  O  O5  1  0.25000000  0.87788769  0.51651049  1
  O  O6  1  0.75000000  0.62211231  0.01651049  1
  O  O7  1  0.75000000  0.12211231  0.48348951  1
  O  O8  1  0.25000000  0.48607137  0.21644994  1
  O  O9  1  0.25000000  0.98607137  0.28355006  1
  O  O10  1  0.75000000  0.51392863  0.78355006  1
  O  O11  1  0.75000000  0.01392863  0.71644994  1
  O  O12  1  0.25000000  0.06904804  0.92368038  1
  O  O13  1  0.25000000  0.56904804  0.57631962  1
  O  O14  1  0.75000000  0.93095196  0.07631962  1
  O  O15  1  0.75000000  0.43095196  0.42368038  1
loop_
_geom_bond_atom_site_label_1
_geom_bond_atom_site_label_2
_geom_bond_distance
_geom_bond_site_symmetry_2
Ba0 O15 2.802347 1_555
Ba0 O15 2.802347 1_455
Ba0 O7 2.811300 1_455
Ba0 O7 2.811300 1_555
Ba0 O3 2.912320 1_455
Ba0 O3 2.912320 1_555
Ba0 O9 2.939956 1_545
Ba0 O8 3.038569 1_555
Ba1 O14 2.802347 1_455
Ba1 O14 2.802347 1_555
Ba1 O6 2.811300 1_555
Ba1 O6 2.811300 1_455
Ba1 O2 2.912320 1_455
Ba1 O2 2.912320 1_555
Ba1 O8 2.939956 1_555
Ba1 O9 3.038569 1_555
Ba2 O13 2.802347 1_555
Ba2 O13 2.802347 1_655
Ba2 O5 2.811300 1_655
Ba2 O5 2.811300 1_555
Ba2 O1 2.912320 1_555
Ba2 O1 2.912320 1_655
Ba2 O11 2.939956 1_565
Ba2 O10 3.038569 1_555
Ba3 O12 2.802347 1_555
Ba3 O12 2.802347 1_655
Ba3 O4 2.811300 1_655
Ba3 O4 2.811300 1_555
Ba3 O0 2.912320 1_555
Ba3 O0 2.912320 1_655
Ba3 O10 2.939956 1_555
Ba3 O11 3.038569 1_555
Ce0 O11 2.342108 1_455
Ce0 O11 2.342108 1_555
Ce0 O0 2.371886 1_555
Ce0 O5 2.430698 1_545
Ce0 O7 2.482165 1_455
Ce0 O7 2.482165 1_555
Ce1 O10 2.342108 1_455
Ce1 O10 2.342108 1_555
Ce1 O1 2.371886 1_555
Ce1 O4 2.430698 1_555
Ce1 O6 2.482165 1_456
Ce1 O6 2.482165 1_556
Ce2 O9 2.342108 1_555
Ce2 O9 2.342108 1_655
Ce2 O2 2.371886 1_555
Ce2 O7 2.430698 1_565
Ce2 O5 2.482165 1_655
Ce2 O5 2.482165 1_555
Ce3 O8 2.342108 1_555
Ce3 O8 2.342108 1_655
Ce3 O3 2.371886 1_555
Ce3 O6 2.430698 1_555
Ce3 O4 2.482165 1_654
Ce3 O4 2.482165 1_554
Ce4 O13 2.368608 1_555
Ce4 O8 2.378206 1_555
Ce4 O2 2.435602 1_455
Ce4 O2 2.435602 1_555
Ce4 O15 2.460666 1_455
Ce4 O15 2.460666 1_555
Ce5 O12 2.368608 1_554
Ce5 O9 2.378206 1_545
Ce5 O3 2.435602 1_555
Ce5 O3 2.435602 1_455
Ce5 O14 2.460666 1_445
Ce5 O14 2.460666 1_545
Ce6 O15 2.368608 1_555
Ce6 O10 2.378206 1_555
Ce6 O0 2.435602 1_555
Ce6 O0 2.435602 1_655
Ce6 O13 2.460666 1_555
Ce6 O13 2.460666 1_655
Ce7 O14 2.368608 1_556
Ce7 O11 2.378206 1_565
Ce7 O1 2.435602 1_655
Ce7 O1 2.435602 1_555
Ce7 O12 2.460666 1_565
Ce7 O12 2.460666 1_665
