# generated using pymatgen
data_NaCrAsCO7
_symmetry_space_group_name_H-M   'P 1'
_cell_length_a   6.47245500
_cell_length_b   5.37264500
_cell_length_c   9.26561281
_cell_angle_alpha   87.27337488
_cell_angle_beta   90.00000000
_cell_angle_gamma   90.00000000
_symmetry_Int_Tables_number   1
_chemical_formula_structural   NaCrAsCO7
_chemical_formula_sum   'Na2 Cr2 As2 C2 O14'
_cell_volume   321.83952593
_cell_formula_units_Z   2
loop_
 _symmetry_equiv_pos_site_id
 _symmetry_equiv_pos_as_xyz
  1  'x, y, z'
loop_
 _atom_site_type_symbol
 _atom_site_label
 _atom_site_symmetry_multiplicity
 _atom_site_fract_x
 _atom_site_fract_y
 _atom_site_fract_z
 _atom_site_occupancy
  Na  Na0  1  0.51527300  0.76943000  0.78272900  1
  Na  Na1  1  0.01527300  0.23057000  0.21727100  1
  Cr  Cr0  1  0.23754000  0.20767100  0.66642400  1
  Cr  Cr1  1  0.73754000  0.79232900  0.33357600  1
  As  As0  1  0.74531200  0.28301700  0.56544300  1
  As  As1  1  0.24531200  0.71698300  0.43455700  1
  C  C0  1  0.25566800  0.27359400  0.92048400  1
  C  C1  1  0.75566800  0.72640600  0.07951600  1
  O  O0  1  0.74923900  0.67842400  0.95161600  1
  O  O1  1  0.24972600  0.05142800  0.86542500  1
  O  O2  1  0.26608900  0.45072100  0.81067500  1
  O  O3  1  0.94977100  0.20739700  0.68012100  1
  O  O4  1  0.54386500  0.19185600  0.67498400  1
  O  O5  1  0.25917000  0.87720400  0.58993500  1
  O  O6  1  0.73049500  0.59708800  0.52340400  1
  O  O7  1  0.23049500  0.40291200  0.47659600  1
  O  O8  1  0.75917000  0.12279600  0.41006500  1
  O  O9  1  0.04386500  0.80814400  0.32501600  1
  O  O10  1  0.44977100  0.79260300  0.31987900  1
  O  O11  1  0.76608900  0.54927900  0.18932500  1
  O  O12  1  0.74972600  0.94857200  0.13457500  1
  O  O13  1  0.24923900  0.32157600  0.04838400  1
loop_
_geom_bond_atom_site_label_1
_geom_bond_atom_site_label_2
_geom_bond_distance
_geom_bond_site_symmetry_2
Na0 O0 2.215448 1_555
Na0 O2 2.357562 1_555
Na0 O1 2.438663 1_565
Na0 O4 2.442574 1_565
Na0 O5 2.485079 1_555
Na0 O6 2.963610 1_555
Na1 O13 2.215448 1_555
Na1 O11 2.357562 1_455
Na1 O12 2.438663 1_445
Na1 O9 2.442574 1_545
Na1 O8 2.485079 1_455
Na1 O7 2.963610 1_555
Cr0 O3 1.866886 1_455
Cr0 O2 1.921405 1_555
Cr0 O5 1.947802 1_545
Cr0 O4 1.985918 1_555
Cr0 O1 1.990844 1_555
Cr0 O7 2.005118 1_555
Cr1 O10 1.866886 1_555
Cr1 O11 1.921405 1_555
Cr1 O8 1.947802 1_565
Cr1 O9 1.985918 1_655
Cr1 O12 1.990844 1_555
Cr1 O6 2.005118 1_555
As0 O4 1.709614 1_555
As0 O8 1.714527 1_555
As0 O6 1.716298 1_555
As0 O3 1.733288 1_555
As1 O9 1.709614 1_555
As1 O5 1.714527 1_555
As1 O7 1.716298 1_555
As1 O10 1.733288 1_555
C0 O13 1.225418 1_556
C0 O1 1.320757 1_555
C0 O2 1.361341 1_555
C1 O0 1.225418 1_554
C1 O12 1.320757 1_555
C1 O11 1.361341 1_555
