# generated using pymatgen
data_Na6MnO4
_symmetry_space_group_name_H-M   'P 1'
_cell_length_a   7.58982500
_cell_length_b   9.38492481
_cell_length_c   9.38501142
_cell_angle_alpha   107.94273382
_cell_angle_beta   89.99951548
_cell_angle_gamma   90.00037019
_symmetry_Int_Tables_number   1
_chemical_formula_structural   Na6MnO4
_chemical_formula_sum   'Na24 Mn4 O16'
_cell_volume   635.98150917
_cell_formula_units_Z   4
loop_
 _symmetry_equiv_pos_site_id
 _symmetry_equiv_pos_as_xyz
  1  'x, y, z'
loop_
 _atom_site_type_symbol
 _atom_site_label
 _atom_site_symmetry_multiplicity
 _atom_site_fract_x
 _atom_site_fract_y
 _atom_site_fract_z
 _atom_site_occupancy
  Na  Na0  1  0.25001100  0.45860900  0.20859200  1
  Na  Na1  1  0.25001100  0.95860900  0.70859200  1
  Na  Na2  1  0.25000600  0.20861100  0.95859000  1
  Na  Na3  1  0.25000600  0.70861100  0.45859000  1
  Na  Na4  1  0.75002000  0.54138900  0.79138600  1
  Na  Na5  1  0.75002000  0.04138900  0.29138600  1
  Na  Na6  1  0.75001200  0.79139400  0.04138000  1
  Na  Na7  1  0.75001200  0.29139400  0.54138000  1
  Na  Na8  1  0.03700700  0.64350100  0.10650800  1
  Na  Na9  1  0.03700700  0.14350100  0.60650800  1
  Na  Na10  1  0.03700600  0.85649500  0.89348500  1
  Na  Na11  1  0.03700600  0.35649500  0.39348500  1
  Na  Na12  1  0.46302200  0.64350500  0.10648800  1
  Na  Na13  1  0.46302200  0.14350500  0.60648800  1
  Na  Na14  1  0.46300400  0.85649800  0.89349700  1
  Na  Na15  1  0.46300400  0.35649800  0.39349700  1
  Na  Na16  1  0.53702100  0.14350100  0.10649300  1
  Na  Na17  1  0.53702000  0.64350100  0.60649300  1
  Na  Na18  1  0.53700900  0.35650100  0.89349000  1
  Na  Na19  1  0.53700900  0.85650100  0.39349000  1
  Na  Na20  1  0.96301500  0.14349800  0.10647800  1
  Na  Na21  1  0.96301500  0.64349800  0.60647800  1
  Na  Na22  1  0.96300100  0.35649800  0.89349800  1
  Na  Na23  1  0.96300100  0.85649800  0.39349800  1
  Mn  Mn0  1  0.25000200  0.00002600  0.25001800  1
  Mn  Mn1  1  0.74999600  0.00000700  0.75001200  1
  Mn  Mn2  1  0.25000200  0.50002600  0.75001800  1
  Mn  Mn3  1  0.74999600  0.50000700  0.25001200  1
  O  O0  1  0.99840300  0.59323000  0.34322500  1
  O  O1  1  0.99840300  0.09323000  0.84322500  1
  O  O2  1  0.25001200  0.71743900  0.71901800  1
  O  O3  1  0.25001200  0.21743900  0.21901800  1
  O  O4  1  0.25000400  0.46904000  0.96743300  1
  O  O5  1  0.25000400  0.96904000  0.46743300  1
  O  O6  1  0.50159400  0.59323300  0.34322400  1
  O  O7  1  0.50159400  0.09323300  0.84322400  1
  O  O8  1  0.49840200  0.40678000  0.65677800  1
  O  O9  1  0.49840200  0.90678000  0.15677800  1
  O  O10  1  0.75001000  0.28257800  0.28096700  1
  O  O11  1  0.75001000  0.78257800  0.78096700  1
  O  O12  1  0.75000600  0.53097600  0.03258000  1
  O  O13  1  0.75000600  0.03097600  0.53258000  1
  O  O14  1  0.00161700  0.40678100  0.65677200  1
  O  O15  1  0.00161700  0.90678100  0.15677200  1
loop_
_geom_bond_atom_site_label_1
_geom_bond_atom_site_label_2
_geom_bond_distance
_geom_bond_site_symmetry_2
Na0 O4 2.295328 1_554
Na0 O3 2.295394 1_555
Na0 O6 2.419766 1_555
Na0 O0 2.419905 1_455
Na1 O5 2.295328 1_555
Na1 O2 2.295394 1_555
Na1 O7 2.419766 1_565
Na1 O1 2.419905 1_465
Na2 O7 2.295349 1_555
Na2 O1 2.295453 1_455
Na2 O4 2.419828 1_555
Na2 O3 2.419880 1_556
Na3 O6 2.295349 1_555
Na3 O0 2.295453 1_455
Na3 O5 2.419828 1_555
Na3 O2 2.419880 1_555
Na4 O11 2.295550 1_555
Na4 O12 2.295598 1_556
Na4 O14 2.419731 1_655
Na4 O8 2.419843 1_555
Na5 O10 2.295550 1_555
Na5 O13 2.295598 1_555
Na5 O15 2.419731 1_645
Na5 O9 2.419843 1_545
Na6 O15 2.295567 1_655
Na6 O9 2.295610 1_555
Na6 O11 2.419771 1_554
Na6 O12 2.419837 1_555
Na7 O14 2.295567 1_655
Na7 O8 2.295610 1_555
Na7 O10 2.419771 1_555
Na7 O13 2.419837 1_555
Na8 O4 2.383503 1_554
Na8 O15 2.383631 1_555
Na8 O0 2.426865 1_455
Na8 O12 2.426951 1_455
Na9 O5 2.383503 1_545
Na9 O14 2.383631 1_555
Na9 O1 2.426865 1_455
Na9 O13 2.426951 1_455
Na10 O2 2.383519 1_555
Na10 O15 2.383689 1_556
Na10 O11 2.426886 1_455
Na10 O1 2.426966 1_465
Na11 O3 2.383519 1_555
Na11 O14 2.383689 1_555
Na11 O10 2.426886 1_455
Na11 O0 2.426966 1_455
Na12 O9 2.383544 1_555
Na12 O4 2.383568 1_554
Na12 O12 2.426821 1_555
Na12 O6 2.427019 1_555
Na13 O8 2.383544 1_555
Na13 O5 2.383568 1_545
Na13 O13 2.426821 1_555
Na13 O7 2.427019 1_555
Na14 O2 2.383522 1_555
Na14 O9 2.383650 1_556
Na14 O11 2.426989 1_555
Na14 O7 2.427008 1_565
Na15 O3 2.383522 1_555
Na15 O8 2.383650 1_555
Na15 O10 2.426989 1_555
Na15 O6 2.427008 1_555
Na16 O10 2.383539 1_555
Na16 O7 2.383581 1_554
Na16 O9 2.426960 1_545
Na16 O3 2.427019 1_555
Na17 O11 2.383545 1_555
Na17 O6 2.383580 1_555
Na17 O8 2.426959 1_555
Na17 O2 2.427012 1_555
Na18 O7 2.383538 1_555
Na18 O12 2.383619 1_556
Na18 O8 2.426863 1_555
Na18 O4 2.427047 1_555
Na19 O6 2.383538 1_555
Na19 O13 2.383619 1_565
Na19 O9 2.426863 1_555
Na19 O5 2.427047 1_555
Na20 O1 2.383397 1_554
Na20 O10 2.383697 1_555
Na20 O15 2.426953 1_645
Na20 O3 2.426998 1_655
Na21 O0 2.383397 1_555
Na21 O11 2.383697 1_555
Na21 O14 2.426953 1_655
Na21 O2 2.426998 1_655
Na22 O1 2.383521 1_555
Na22 O12 2.383598 1_556
Na22 O14 2.427012 1_655
Na22 O4 2.427030 1_655
Na23 O0 2.383521 1_555
Na23 O13 2.383598 1_565
Na23 O15 2.427012 1_655
Na23 O5 2.427030 1_655
Mn0 O5 2.147920 1_545
Mn0 O3 2.147940 1_555
Mn0 O15 2.147967 1_545
Mn0 O9 2.148050 1_545
Mn1 O11 2.147908 1_545
Mn1 O7 2.147937 1_555
Mn1 O1 2.147968 1_555
Mn1 O13 2.148010 1_555
Mn2 O4 2.147920 1_555
Mn2 O2 2.147940 1_555
Mn2 O14 2.147967 1_555
Mn2 O8 2.148050 1_555
Mn3 O10 2.147908 1_555
Mn3 O6 2.147937 1_555
Mn3 O0 2.147968 1_555
Mn3 O12 2.148010 1_555
