# generated using pymatgen
data_Li(WO3)2
_symmetry_space_group_name_H-M   'P 1'
_cell_length_a   6.56812905
_cell_length_b   6.56812905
_cell_length_c   6.56812905
_cell_angle_alpha   109.85308285
_cell_angle_beta   109.41294217
_cell_angle_gamma   109.14841985
_symmetry_Int_Tables_number   1
_chemical_formula_structural   Li(WO3)2
_chemical_formula_sum   'Li2 W4 O12'
_cell_volume   218.11541646
_cell_formula_units_Z   2
loop_
 _symmetry_equiv_pos_site_id
 _symmetry_equiv_pos_as_xyz
  1  'x, y, z'
loop_
 _atom_site_type_symbol
 _atom_site_label
 _atom_site_symmetry_multiplicity
 _atom_site_fract_x
 _atom_site_fract_y
 _atom_site_fract_z
 _atom_site_occupancy
  Li  Li0  1  0.00000000  0.50000000  0.50000000  1
  Li  Li1  1  0.50000000  0.50000000  0.00000000  1
  W  W0  1  0.00000000  0.50000000  0.00000000  1
  W  W1  1  0.00000000  0.00000000  0.50000000  1
  W  W2  1  0.50000000  0.00000000  0.00000000  1
  W  W3  1  0.50000000  0.50000000  0.50000000  1
  O  O0  1  0.20115200  0.29472300  0.49587400  1
  O  O1  1  0.08018500  0.79027200  0.28991400  1
  O  O2  1  0.20115200  0.70527700  0.90642900  1
  O  O3  1  0.29332000  0.49438500  0.20106500  1
  O  O4  1  0.50035800  0.79027200  0.71008600  1
  O  O5  1  0.29332000  0.09225400  0.79893500  1
  O  O6  1  0.70668000  0.90774600  0.20106500  1
  O  O7  1  0.49964200  0.20972800  0.28991400  1
  O  O8  1  0.70668000  0.50561500  0.79893500  1
  O  O9  1  0.79884800  0.29472300  0.09357100  1
  O  O10  1  0.91981500  0.20972800  0.71008600  1
  O  O11  1  0.79884800  0.70527700  0.50412600  1
loop_
_geom_bond_atom_site_label_1
_geom_bond_atom_site_label_2
_geom_bond_distance
_geom_bond_site_symmetry_2
Li0 O2 2.175261 1_555
Li0 O9 2.175261 1_455
Li0 O11 2.175261 1_455
Li0 O0 2.175261 1_555
Li1 O3 2.186360 1_555
Li1 O8 2.186360 1_554
Li1 O5 2.186365 1_554
Li1 O6 2.186365 1_555
O0 W3 1.968527 1_555
O0 W1 1.968535 1_555
O1 W1 1.935708 1_565
O1 W0 1.935715 1_555
O2 W2 1.968531 1_566
O2 W0 1.968531 1_556
O3 W0 1.960981 1_555
O3 W3 1.960981 1_555
O4 W3 1.935713 1_555
O4 W2 1.935713 1_566
O5 W2 1.960976 1_556
O5 W1 1.960984 1_555
O6 W2 1.960976 1_565
O6 W1 1.960984 1_665
O7 W3 1.935713 1_555
O7 W2 1.935713 1_555
O8 W3 1.960981 1_555
O8 W0 1.960981 1_656
O9 W2 1.968531 1_555
O9 W0 1.968531 1_655
O10 W1 1.935708 1_655
O10 W0 1.935715 1_656
O11 W3 1.968527 1_555
O11 W1 1.968535 1_665
