# generated using pymatgen
data_Li2VF4
_symmetry_space_group_name_H-M   'P 1'
_cell_length_a   8.20699820
_cell_length_b   8.20699820
_cell_length_c   8.20699856
_cell_angle_alpha   98.92065983
_cell_angle_beta   98.92065983
_cell_angle_gamma   98.92066989
_symmetry_Int_Tables_number   1
_chemical_formula_structural   Li2VF4
_chemical_formula_sum   'Li12 V6 F24'
_cell_volume   530.32568671
_cell_formula_units_Z   6
loop_
 _symmetry_equiv_pos_site_id
 _symmetry_equiv_pos_as_xyz
  1  'x, y, z'
loop_
 _atom_site_type_symbol
 _atom_site_label
 _atom_site_symmetry_multiplicity
 _atom_site_fract_x
 _atom_site_fract_y
 _atom_site_fract_z
 _atom_site_occupancy
  Li  Li0  1  0.71936900  0.16950100  0.88823100  1
  Li  Li1  1  0.83049900  0.11176900  0.28063100  1
  Li  Li2  1  0.56069000  0.24308500  0.47278500  1
  Li  Li3  1  0.11176900  0.28063100  0.83049900  1
  Li  Li4  1  0.52721500  0.43931000  0.75691500  1
  Li  Li5  1  0.24308500  0.47278500  0.56069000  1
  Li  Li6  1  0.75691500  0.52721500  0.43931000  1
  Li  Li7  1  0.47278500  0.56069000  0.24308500  1
  Li  Li8  1  0.88823100  0.71936900  0.16950100  1
  Li  Li9  1  0.43931000  0.75691500  0.52721500  1
  Li  Li10  1  0.16950100  0.88823100  0.71936900  1
  Li  Li11  1  0.28063100  0.83049900  0.11176900  1
  V  V0  1  0.18006500  0.08497200  0.44497700  1
  V  V1  1  0.44497700  0.18006500  0.08497200  1
  V  V2  1  0.91502800  0.55502300  0.81993500  1
  V  V3  1  0.08497200  0.44497700  0.18006500  1
  V  V4  1  0.55502300  0.81993500  0.91502800  1
  V  V5  1  0.81993500  0.91502800  0.55502300  1
  F  F0  1  0.70637400  0.09292800  0.44921300  1
  F  F1  1  0.66664600  0.05729200  0.08194300  1
  F  F2  1  0.91805700  0.33335400  0.94270900  1
  F  F3  1  0.05729200  0.08194300  0.66664600  1
  F  F4  1  0.55078700  0.29362600  0.90707200  1
  F  F5  1  0.32320000  0.04830200  0.25211900  1
  F  F6  1  0.71192200  0.43101600  0.63160700  1
  F  F7  1  0.36839300  0.28807800  0.56898400  1
  F  F8  1  0.56898400  0.36839300  0.28807800  1
  F  F9  1  0.04830200  0.25211900  0.32320000  1
  F  F10  1  0.09292800  0.44921300  0.70637400  1
  F  F11  1  0.25211900  0.32320000  0.04830200  1
  F  F12  1  0.74788200  0.67680000  0.95169800  1
  F  F13  1  0.90707200  0.55078700  0.29362600  1
  F  F14  1  0.95169800  0.74788100  0.67680000  1
  F  F15  1  0.43101600  0.63160700  0.71192200  1
  F  F16  1  0.63160700  0.71192200  0.43101600  1
  F  F17  1  0.28807800  0.56898400  0.36839300  1
  F  F18  1  0.67680000  0.95169800  0.74788100  1
  F  F19  1  0.44921300  0.70637400  0.09292800  1
  F  F20  1  0.94270900  0.91805700  0.33335400  1
  F  F21  1  0.08194300  0.66664600  0.05729100  1
  F  F22  1  0.33335400  0.94270900  0.91805700  1
  F  F23  1  0.29362600  0.90707200  0.55078700  1
loop_
_geom_bond_atom_site_label_1
_geom_bond_atom_site_label_2
_geom_bond_distance
_geom_bond_site_symmetry_2
F0 Li1 1.852152 1_555
F0 Li2 1.854822 1_555
F0 V5 2.078122 1_545
F1 Li1 1.890653 1_555
F1 Li0 2.026459 1_554
F1 V4 2.177200 1_544
F1 V1 2.213650 1_555
F2 Li0 1.890653 1_555
F2 Li3 2.026464 1_655
F2 V3 2.177194 1_656
F2 V2 2.213654 1_555
F3 Li3 1.890653 1_555
F3 Li10 2.026459 1_545
F3 V5 2.177200 1_445
F3 V0 2.213650 1_555
F4 Li0 1.852152 1_555
F4 Li4 1.854822 1_555
F4 V1 2.078122 1_556
F5 Li11 1.920151 1_545
F5 V0 2.124681 1_555
F5 V1 2.144775 1_555
F6 Li6 1.930561 1_555
F6 Li4 1.963145 1_555
F6 Li2 1.974690 1_555
F6 V2 2.095284 1_555
F7 Li2 1.930561 1_555
F7 Li5 1.963145 1_555
F7 Li4 1.974690 1_555
F7 V0 2.095284 1_555
F8 Li7 1.930561 1_555
F8 Li2 1.963145 1_555
F8 Li6 1.974690 1_555
F8 V1 2.095284 1_555
F9 Li1 1.920151 1_455
F9 V3 2.124681 1_555
F9 V0 2.144775 1_555
F10 Li3 1.852152 1_555
F10 Li5 1.854822 1_555
F10 V2 2.078122 1_455
F11 Li3 1.920151 1_554
F11 V1 2.124681 1_555
F11 V3 2.144775 1_555
F12 Li8 1.920148 1_556
F12 V4 2.124687 1_555
F12 V2 2.144768 1_555
F13 Li8 1.852152 1_555
F13 Li6 1.854822 1_555
F13 V3 2.078122 1_655
F14 Li10 1.920151 1_655
F14 V2 2.124681 1_555
F14 V5 2.144775 1_555
F15 Li4 1.930561 1_555
F15 Li9 1.963145 1_555
F15 Li5 1.974690 1_555
F15 V4 2.095284 1_555
F16 Li9 1.930561 1_555
F16 Li6 1.963145 1_555
F16 Li7 1.974690 1_555
F16 V5 2.095284 1_555
F17 Li5 1.930561 1_555
F17 Li7 1.963145 1_555
F17 Li9 1.974690 1_555
F17 V3 2.095284 1_555
F18 Li0 1.920151 1_565
F18 V5 2.124681 1_555
F18 V4 2.144775 1_555
F19 Li11 1.852152 1_555
F19 Li7 1.854822 1_555
F19 V4 2.078122 1_554
F20 Li8 1.890653 1_555
F20 Li1 2.026464 1_565
F20 V0 2.177194 1_665
F20 V5 2.213655 1_555
F21 Li11 1.890653 1_555
F21 Li8 2.026464 1_455
F21 V2 2.177194 1_454
F21 V3 2.213654 1_555
F22 Li10 1.890653 1_555
F22 Li11 2.026464 1_556
F22 V1 2.177194 1_566
F22 V4 2.213655 1_555
F23 Li10 1.852152 1_555
F23 Li9 1.854822 1_555
F23 V0 2.078122 1_565
