# generated using pymatgen
data_Li2Co(CO3)2
_symmetry_space_group_name_H-M   'P 1'
_cell_length_a   5.18325576
_cell_length_b   6.58423673
_cell_length_c   15.64750809
_cell_angle_alpha   89.82540724
_cell_angle_beta   89.80462922
_cell_angle_gamma   112.95197135
_symmetry_Int_Tables_number   1
_chemical_formula_structural   Li2Co(CO3)2
_chemical_formula_sum   'Li8 Co4 C8 O24'
_cell_volume   491.72949946
_cell_formula_units_Z   4
loop_
 _symmetry_equiv_pos_site_id
 _symmetry_equiv_pos_as_xyz
  1  'x, y, z'
loop_
 _atom_site_type_symbol
 _atom_site_label
 _atom_site_symmetry_multiplicity
 _atom_site_fract_x
 _atom_site_fract_y
 _atom_site_fract_z
 _atom_site_occupancy
  Li  Li0  1  0.19705900  0.84159300  0.27861500  1
  Li  Li1  1  0.19684800  0.84144300  0.77861900  1
  Li  Li2  1  0.35493900  0.74575300  0.03951300  1
  Li  Li3  1  0.35511200  0.74576600  0.53953600  1
  Li  Li4  1  0.86209800  0.26274800  0.20902300  1
  Li  Li5  1  0.86222400  0.26280200  0.70903600  1
  Li  Li6  1  0.65083600  0.24852600  0.45948600  1
  Li  Li7  1  0.65082900  0.24867700  0.95951400  1
  Co  Co0  1  0.00483300  0.00469300  0.50083500  1
  Co  Co1  1  0.50384400  0.49957300  0.75228300  1
  Co  Co2  1  0.00469500  0.00471400  0.00081200  1
  Co  Co3  1  0.50375100  0.49946300  0.25226600  1
  C  C0  1  0.70542000  0.86222400  0.37013800  1
  C  C1  1  0.70535400  0.86236300  0.87011400  1
  C  C2  1  0.80216400  0.64535200  0.12132700  1
  C  C3  1  0.80237800  0.64546000  0.62136700  1
  C  C4  1  0.20371900  0.35328400  0.38041300  1
  C  C5  1  0.20375900  0.35342400  0.88043000  1
  C  C6  1  0.30251400  0.14007500  0.13221500  1
  C  C7  1  0.30270500  0.14020600  0.63222100  1
  O  O0  1  0.96454000  0.88220900  0.37183500  1
  O  O1  1  0.96443000  0.88233900  0.87181500  1
  O  O2  1  0.60189900  0.90509200  0.44127700  1
  O  O3  1  0.60180000  0.90521100  0.94124800  1
  O  O4  1  0.55634800  0.80874000  0.30177900  1
  O  O5  1  0.55624700  0.80886600  0.80174100  1
  O  O6  1  0.95564700  0.70310500  0.05329900  1
  O  O7  1  0.95585800  0.70314500  0.55334800  1
  O  O8  1  0.90341100  0.60084000  0.19257700  1
  O  O9  1  0.90360200  0.60102800  0.69263800  1
  O  O10  1  0.54264300  0.62332700  0.12299500  1
  O  O11  1  0.54280500  0.62339500  0.62301100  1
  O  O12  1  0.46413300  0.37485400  0.37980400  1
  O  O13  1  0.46422200  0.37505500  0.87983600  1
  O  O14  1  0.10232800  0.38702100  0.30848200  1
  O  O15  1  0.10237800  0.38713500  0.80849000  1
  O  O16  1  0.44180200  0.17815800  0.20340800  1
  O  O17  1  0.44203900  0.17837800  0.70340300  1
  O  O18  1  0.05445500  0.30650100  0.44976700  1
  O  O19  1  0.05447300  0.30661100  0.94977900  1
  O  O20  1  0.41097800  0.10274900  0.06165300  1
  O  O21  1  0.41112800  0.10279500  0.56166000  1
  O  O22  1  0.04713000  0.12865100  0.12940800  1
  O  O23  1  0.04730800  0.12876200  0.62941100  1
loop_
_geom_bond_atom_site_label_1
_geom_bond_atom_site_label_2
_geom_bond_distance
_geom_bond_site_symmetry_2
Li0 O0 1.973192 1_455
Li0 O4 1.991126 1_555
Li0 O8 2.187955 1_455
Li0 O16 2.384601 1_565
Li1 O1 1.973263 1_455
Li1 O5 1.990704 1_555
Li1 O9 2.185525 1_455
Li1 O17 2.386815 1_565
Li2 O10 1.979045 1_555
Li2 O6 1.987987 1_455
Li2 O3 2.008173 1_554
Li2 O20 2.280924 1_565
Li3 O11 1.978720 1_555
Li3 O7 1.987882 1_455
Li3 O2 2.007700 1_555
Li3 O21 2.281131 1_565
Li4 O14 1.966814 1_655
Li4 O22 1.977450 1_655
Li4 O16 2.029554 1_555
Li4 O8 2.166070 1_555
Li5 O15 1.966633 1_655
Li5 O23 1.977487 1_655
Li5 O17 2.029170 1_555
Li5 O9 2.166754 1_555
Li6 O12 1.952590 1_555
Li6 O18 1.979950 1_655
Li6 O21 2.016874 1_555
Li6 O2 2.194506 1_545
Li7 O13 1.952423 1_555
Li7 O19 1.980155 1_655
Li7 O20 2.017061 1_556
Li7 O3 2.194697 1_545
Co0 O18 2.060062 1_555
Co0 O7 2.068149 1_445
Co0 O2 2.146913 1_445
Co0 O23 2.153203 1_555
Co0 O0 2.156361 1_445
Co0 O21 2.171295 1_555
Co1 O5 2.097495 1_555
Co1 O15 2.105660 1_555
Co1 O9 2.124653 1_555
Co1 O13 2.133968 1_555
Co1 O17 2.154819 1_555
Co1 O11 2.157746 1_555
Co2 O19 2.060184 1_554
Co2 O6 2.068259 1_445
Co2 O3 2.146828 1_444
Co2 O22 2.153207 1_555
Co2 O1 2.156081 1_444
Co2 O20 2.171388 1_555
Co3 O4 2.097470 1_555
Co3 O14 2.105528 1_555
Co3 O8 2.124555 1_555
Co3 O12 2.133956 1_555
Co3 O16 2.155192 1_555
Co3 O10 2.157845 1_555
C0 O4 1.288761 1_555
C0 O0 1.297816 1_555
C0 O2 1.312494 1_555
C1 O5 1.289037 1_555
C1 O1 1.297608 1_555
C1 O3 1.312461 1_555
C2 O6 1.290891 1_555
C2 O10 1.295675 1_555
C2 O8 1.313857 1_555
C3 O7 1.290745 1_555
C3 O11 1.295860 1_555
C3 O9 1.313880 1_555
C4 O18 1.295191 1_555
C4 O14 1.298433 1_555
C4 O12 1.300997 1_555
C5 O19 1.295184 1_555
C5 O15 1.298475 1_555
C5 O13 1.301131 1_555
C6 O22 1.297145 1_555
C6 O16 1.300418 1_555
C6 O20 1.304118 1_555
C7 O23 1.297169 1_555
C7 O17 1.300373 1_555
C7 O21 1.304199 1_555
