# generated using pymatgen
data_V6O7F5
_symmetry_space_group_name_H-M   'P 1'
_cell_length_a   5.61496800
_cell_length_b   5.62936007
_cell_length_c   7.39209879
_cell_angle_alpha   71.90979678
_cell_angle_beta   72.51004462
_cell_angle_gamma   71.80766807
_symmetry_Int_Tables_number   1
_chemical_formula_structural   V6O7F5
_chemical_formula_sum   'V6 O7 F5'
_cell_volume   205.57016021
_cell_formula_units_Z   1
loop_
 _symmetry_equiv_pos_site_id
 _symmetry_equiv_pos_as_xyz
  1  'x, y, z'
loop_
 _atom_site_type_symbol
 _atom_site_label
 _atom_site_symmetry_multiplicity
 _atom_site_fract_x
 _atom_site_fract_y
 _atom_site_fract_z
 _atom_site_occupancy
  V  V0  1  0.68651400  0.67983300  0.83789400  1
  V  V1  1  0.33405700  0.33862500  0.67012200  1
  V  V2  1  0.68812800  0.61640900  0.31415200  1
  V  V3  1  0.33769000  0.32991500  0.15768200  1
  V  V4  1  0.98162200  0.98920500  0.51267400  1
  V  V5  1  0.97966600  0.03148600  0.00388000  1
  O  O0  1  0.04588900  0.63973900  0.66430900  1
  O  O1  1  0.22637800  0.23122400  0.96691800  1
  O  O2  1  0.76805600  0.76830200  0.04533900  1
  O  O3  1  0.44022400  0.43723600  0.36331400  1
  O  O4  1  0.63521100  0.03227700  0.66866100  1
  O  O5  1  0.97019000  0.35328900  0.33535500  1
  O  O6  1  0.68486800  0.31947600  0.99566000  1
  F  F0  1  0.36985000  0.95217100  0.33782500  1
  F  F1  1  0.57787100  0.57373700  0.62179800  1
  F  F2  1  0.88493700  0.89000500  0.30459200  1
  F  F3  1  0.09557400  0.10540700  0.70315400  1
  F  F4  1  0.29327200  0.71166200  0.99667500  1
loop_
_geom_bond_atom_site_label_1
_geom_bond_atom_site_label_2
_geom_bond_distance
_geom_bond_site_symmetry_2
O0 V4 1.920209 1_455
O0 V1 1.943500 1_555
O0 V0 2.026919 1_455
O1 V5 1.952491 1_456
O1 V3 1.980133 1_556
O1 V1 2.037562 1_555
O2 V2 1.878691 1_555
O2 V0 1.961585 1_554
O2 V5 2.073417 1_565
O3 V2 1.852556 1_555
O3 V3 2.078590 1_555
O3 V1 2.102204 1_555
O4 V4 1.924255 1_545
O4 V0 1.975521 1_545
O4 V1 2.003309 1_555
O5 V2 1.807503 1_555
O5 V4 2.054982 1_545
O5 V3 2.075832 1_655
O6 V5 1.922387 1_556
O6 V3 1.951113 1_556
O6 V0 2.002825 1_555
F0 V3 2.115161 1_565
F0 V4 2.157768 1_455
F0 V2 2.169154 1_555
F1 V1 2.073005 1_555
F1 V2 2.126047 1_555
F1 V0 2.164777 1_555
F2 V4 2.048701 1_555
F2 V5 2.076741 1_565
F2 V2 2.132261 1_555
F3 V4 2.048113 1_445
F3 V5 2.064811 1_456
F3 V1 2.068451 1_555
F4 V3 2.086206 1_556
F4 V5 2.090121 1_466
F4 V0 2.147318 1_555
