# generated using pymatgen
data_Na2(NiO2)5
_symmetry_space_group_name_H-M   'P 1'
_cell_length_a   4.89244000
_cell_length_b   6.40725929
_cell_length_c   6.96707436
_cell_angle_alpha   113.06551903
_cell_angle_beta   96.43953990
_cell_angle_gamma   104.49646582
_symmetry_Int_Tables_number   1
_chemical_formula_structural   Na2(NiO2)5
_chemical_formula_sum   'Na2 Ni5 O10'
_cell_volume   189.04577470
_cell_formula_units_Z   1
loop_
 _symmetry_equiv_pos_site_id
 _symmetry_equiv_pos_as_xyz
  1  'x, y, z'
loop_
 _atom_site_type_symbol
 _atom_site_label
 _atom_site_symmetry_multiplicity
 _atom_site_fract_x
 _atom_site_fract_y
 _atom_site_fract_z
 _atom_site_occupancy
  Na  Na0  1  0.62091570  0.23335529  0.73027971  1
  Na  Na1  1  0.37908430  0.76664471  0.26972029  1
  Ni  Ni0  1  0.60367541  0.70441895  0.69903120  1
  Ni  Ni1  1  -0.00000000  0.50000000  0.50000000  1
  Ni  Ni2  1  0.39632459  0.29558105  0.30096880  1
  Ni  Ni3  1  0.79691057  0.09680668  0.10310160  1
  Ni  Ni4  1  0.20308943  0.90319332  0.89689840  1
  O  O0  1  0.67503874  0.60081018  0.42453394  1
  O  O1  1  0.32496126  0.39918982  0.57546606  1
  O  O2  1  0.68456460  0.17843755  0.36832730  1
  O  O3  1  0.08482479  0.39713236  0.23233148  1
  O  O4  1  0.31543540  0.82156245  0.63167270  1
  O  O5  1  0.91517521  0.60286764  0.76766852  1
  O  O6  1  0.11469255  0.99110472  0.16877215  1
  O  O7  1  0.48231245  0.20421976  0.03112356  1
  O  O8  1  0.88530745  0.00889528  0.83122785  1
  O  O9  1  0.51768755  0.79578024  0.96887644  1
loop_
_geom_bond_atom_site_label_1
_geom_bond_atom_site_label_2
_geom_bond_distance
_geom_bond_site_symmetry_2
Na0 O7 2.334509 1_556
Na0 O5 2.339233 1_555
Na0 O1 2.388899 1_555
Na0 O8 2.399174 1_555
Na0 O4 2.458113 1_545
Na0 O2 2.472998 1_555
Na1 O9 2.334509 1_554
Na1 O3 2.339233 1_555
Na1 O0 2.388899 1_555
Na1 O6 2.399174 1_555
Na1 O2 2.458113 1_565
Na1 O4 2.472998 1_555
Ni0 O4 1.851945 1_555
Ni0 O0 1.868435 1_555
Ni0 O9 1.868831 1_555
Ni0 O1 1.872851 1_555
Ni0 O8 1.874662 1_565
Ni0 O5 1.884509 1_555
Ni1 O5 1.852510 1_455
Ni1 O3 1.852510 1_555
Ni1 O0 1.952947 1_455
Ni1 O1 1.952947 1_555
Ni1 O4 2.019343 1_555
Ni1 O2 2.019343 1_455
Ni2 O2 1.851945 1_555
Ni2 O1 1.868435 1_555
Ni2 O7 1.868831 1_555
Ni2 O0 1.872851 1_555
Ni2 O6 1.874662 1_545
Ni2 O3 1.884509 1_555
Ni3 O9 1.855214 1_544
Ni3 O3 1.870447 1_655
Ni3 O8 1.887291 1_554
Ni3 O2 1.898593 1_555
Ni3 O6 1.922393 1_645
Ni3 O7 1.929180 1_555
Ni4 O7 1.855214 1_566
Ni4 O5 1.870447 1_455
Ni4 O6 1.887291 1_556
Ni4 O4 1.898593 1_555
Ni4 O8 1.922393 1_465
Ni4 O9 1.929180 1_555
