# generated using pymatgen
data_Li8Mn7Ni(PO4)12
_symmetry_space_group_name_H-M   'P 1'
_cell_length_a   8.56084100
_cell_length_b   8.77755817
_cell_length_c   11.97581452
_cell_angle_alpha   90.37906100
_cell_angle_beta   90.02739485
_cell_angle_gamma   90.09141158
_symmetry_Int_Tables_number   1
_chemical_formula_structural   Li8Mn7Ni(PO4)12
_chemical_formula_sum   'Li8 Mn7 Ni1 P12 O48'
_cell_volume   899.88103513
_cell_formula_units_Z   1
loop_
 _symmetry_equiv_pos_site_id
 _symmetry_equiv_pos_as_xyz
  1  'x, y, z'
loop_
 _atom_site_type_symbol
 _atom_site_label
 _atom_site_symmetry_multiplicity
 _atom_site_fract_x
 _atom_site_fract_y
 _atom_site_fract_z
 _atom_site_occupancy
  Li  Li0  1  0.78283500  0.27686700  0.18110400  1
  Li  Li1  1  0.78564400  0.22067700  0.81877200  1
  Li  Li2  1  0.71599100  0.77799100  0.31718400  1
  Li  Li3  1  0.71404600  0.72046100  0.68023800  1
  Li  Li4  1  0.28486300  0.28182700  0.32174100  1
  Li  Li5  1  0.28239400  0.22828400  0.68073500  1
  Li  Li6  1  0.21511100  0.77825900  0.18144200  1
  Li  Li7  1  0.21742800  0.72083700  0.81523400  1
  Mn  Mn0  1  0.75234500  0.03630100  0.61248200  1
  Mn  Mn1  1  0.75271700  0.46402700  0.38659100  1
  Mn  Mn2  1  0.74945900  0.96359700  0.11430800  1
  Mn  Mn3  1  0.74875700  0.53451600  0.88558300  1
  Mn  Mn4  1  0.25256600  0.46469400  0.11422400  1
  Mn  Mn5  1  0.25143600  0.03772200  0.88485400  1
  Mn  Mn6  1  0.24653000  0.96314200  0.38691000  1
  Ni  Ni0  1  0.24888100  0.53644700  0.61694500  1
  P  P0  1  0.96355400  0.75156100  0.50072800  1
  P  P1  1  0.53462500  0.25324500  0.99999300  1
  P  P2  1  0.46414300  0.74880700  0.99948700  1
  P  P3  1  0.03509500  0.24773000  0.50064300  1
  P  P4  1  0.89469500  0.60322200  0.14749900  1
  P  P5  1  0.89487600  0.89314900  0.85320700  1
  P  P6  1  0.60681400  0.38937200  0.64654600  1
  P  P7  1  0.60545500  0.10518400  0.35355400  1
  P  P8  1  0.39376400  0.89619800  0.64734600  1
  P  P9  1  0.39604600  0.60760500  0.35357700  1
  P  P10  1  0.10582900  0.39580000  0.85656600  1
  P  P11  1  0.10646700  0.10773400  0.14631700  1
  O  O0  1  0.94029200  0.35297000  0.42345800  1
  O  O1  1  0.93978900  0.13728900  0.57396700  1
  O  O2  1  0.92604000  0.10557000  0.15716700  1
  O  O3  1  0.92327100  0.39365400  0.84659900  1
  O  O4  1  0.85250000  0.84315300  0.58227000  1
  O  O5  1  0.85309500  0.66716200  0.41734100  1
  O  O6  1  0.84393300  0.56109700  0.02810100  1
  O  O7  1  0.84489500  0.93877000  0.97088100  1
  O  O8  1  0.84428300  0.76329400  0.18214600  1
  O  O9  1  0.84034700  0.73021600  0.82020600  1
  O  O10  1  0.82377200  0.48037200  0.22625300  1
  O  O11  1  0.82159600  0.01332600  0.77291900  1
  O  O12  1  0.67857400  0.98459700  0.27397000  1
  O  O13  1  0.68462700  0.51102100  0.72656100  1
  O  O14  1  0.66853700  0.22760500  0.67743100  1
  O  O15  1  0.65634700  0.26763900  0.32052800  1
  O  O16  1  0.65667600  0.43848100  0.52864200  1
  O  O17  1  0.65443500  0.06235800  0.47255600  1
  O  O18  1  0.64167300  0.16983300  0.08154500  1
  O  O19  1  0.64126200  0.33939900  0.91476900  1
  O  O20  1  0.57633500  0.90109800  0.65637600  1
  O  O21  1  0.57716400  0.60468000  0.33927100  1
  O  O22  1  0.55725500  0.85692600  0.07480600  1
  O  O23  1  0.55775300  0.64032200  0.92377000  1
  O  O24  1  0.44017400  0.36234000  0.07515400  1
  O  O25  1  0.44151400  0.14331400  0.92469100  1
  O  O26  1  0.43050800  0.38964600  0.65957200  1
  O  O27  1  0.42423900  0.10309200  0.34274600  1
  O  O28  1  0.35433300  0.66045300  0.08202800  1
  O  O29  1  0.35545300  0.83528700  0.91796000  1
  O  O30  1  0.34486600  0.94129300  0.52803700  1
  O  O31  1  0.34366400  0.55881100  0.46739600  1
  O  O32  1  0.34280300  0.77200600  0.32033100  1
  O  O33  1  0.34414900  0.73686000  0.68107900  1
  O  O34  1  0.32257400  0.48858000  0.26947400  1
  O  O35  1  0.32260800  0.02100700  0.72647100  1
  O  O36  1  0.17905600  0.98637100  0.22621400  1
  O  O37  1  0.17604100  0.51584100  0.78081600  1
  O  O38  1  0.16207800  0.27032000  0.18025100  1
  O  O39  1  0.15513800  0.23191700  0.82148200  1
  O  O40  1  0.15171700  0.43012800  0.97821300  1
  O  O41  1  0.15669100  0.06141100  0.02831600  1
  O  O42  1  0.14229500  0.33318100  0.58074800  1
  O  O43  1  0.14272500  0.15801700  0.41596800  1
  O  O44  1  0.07570000  0.89566700  0.84181700  1
  O  O45  1  0.07669300  0.60139700  0.15744500  1
  O  O46  1  0.05469600  0.86006000  0.42283600  1
  O  O47  1  0.05347000  0.64690700  0.57561100  1
loop_
_geom_bond_atom_site_label_1
_geom_bond_atom_site_label_2
_geom_bond_distance
_geom_bond_site_symmetry_2
Li0 O10 1.894993 1_555
Li0 O18 1.935149 1_555
Li0 O2 1.961219 1_555
Li0 O15 1.992561 1_555
Li1 O11 1.922894 1_555
Li1 O3 1.947235 1_555
Li1 O14 1.968210 1_555
Li1 O19 1.981166 1_555
Li2 O12 1.916590 1_555
Li2 O5 1.944333 1_555
Li2 O21 1.948458 1_555
Li2 O8 1.958972 1_555
Li3 O13 1.939831 1_555
Li3 O4 1.988761 1_555
Li3 O9 1.995555 1_555
Li3 O20 1.999283 1_555
Li4 O34 1.950084 1_555
Li4 O43 1.987054 1_555
Li4 O27 1.989765 1_555
Li4 O38 1.995491 1_555
Li5 O26 1.917661 1_555
Li5 O42 1.933082 1_555
Li5 O35 1.934862 1_555
Li5 O39 2.007515 1_555
Li6 O36 1.925785 1_555
Li6 O45 1.970952 1_555
Li6 O28 1.973885 1_555
Li6 O32 1.991042 1_555
Li7 O37 1.876474 1_555
Li7 O33 1.944746 1_555
Li7 O29 1.974167 1_555
Li7 O44 1.981983 1_555
Mn0 O17 1.888725 1_555
Mn0 O1 1.890787 1_555
Mn0 O4 1.933172 1_545
Mn0 O14 1.981541 1_555
Mn0 O20 1.989583 1_545
Mn0 O11 2.021928 1_555
Mn1 O16 1.904226 1_555
Mn1 O0 1.932302 1_555
Mn1 O5 2.009815 1_555
Mn1 O10 2.020438 1_555
Mn1 O21 2.029377 1_555
Mn1 O15 2.062734 1_555
Mn2 O7 1.913712 1_554
Mn2 O22 1.948431 1_555
Mn2 O12 2.013725 1_555
Mn2 O2 2.021477 1_565
Mn2 O18 2.072867 1_565
Mn2 O8 2.105465 1_555
Mn3 O6 1.903725 1_556
Mn3 O23 1.935286 1_555
Mn3 O19 1.976208 1_555
Mn3 O13 1.991027 1_555
Mn3 O3 1.994399 1_555
Mn3 O9 2.047585 1_555
Mn4 O40 1.865969 1_554
Mn4 O24 1.898774 1_555
Mn4 O34 1.962987 1_555
Mn4 O28 1.965831 1_555
Mn4 O45 1.993215 1_555
Mn4 O38 2.037261 1_555
Mn5 O41 1.910507 1_556
Mn5 O25 1.929534 1_555
Mn5 O35 1.997045 1_555
Mn5 O44 2.017058 1_545
Mn5 O29 2.030144 1_545
Mn5 O39 2.045023 1_555
Mn6 O30 1.898787 1_555
Mn6 O46 1.924030 1_555
Mn6 O43 1.958056 1_565
Mn6 O36 2.020719 1_555
Mn6 O27 2.026480 1_565
Mn6 O32 2.029054 1_555
Ni0 O31 1.977385 1_555
Ni0 O47 1.998591 1_555
Ni0 O42 2.046459 1_555
Ni0 O37 2.068435 1_555
Ni0 O33 2.080043 1_555
Ni0 O26 2.086376 1_555
O0 P3 1.542530 1_655
O1 P3 1.544650 1_655
O2 P11 1.550221 1_655
O3 P10 1.567418 1_655
O4 P0 1.580113 1_555
O5 P0 1.557992 1_555
O6 P4 1.536894 1_555
O7 P5 1.524157 1_555
O8 P4 1.525434 1_555
O9 P5 1.552309 1_555
O10 P4 1.559762 1_555
O11 P5 1.563889 1_545
O12 P7 1.552374 1_565
O13 P6 1.576617 1_555
O14 P6 1.562479 1_555
O15 P7 1.544425 1_555
O16 P6 1.539414 1_555
O17 P7 1.534662 1_555
O18 P1 1.529860 1_554
O19 P1 1.567113 1_555
O20 P8 1.567149 1_555
O21 P9 1.560274 1_555
O22 P2 1.528144 1_554
O23 P2 1.537173 1_555
O24 P1 1.540371 1_554
O25 P1 1.537874 1_555
O26 P6 1.517446 1_555
O27 P7 1.556759 1_555
O28 P2 1.571943 1_554
O29 P2 1.551274 1_555
O30 P8 1.543011 1_555
O31 P9 1.500066 1_555
O32 P9 1.567855 1_555
O33 P8 1.518365 1_555
O34 P9 1.576372 1_555
O35 P8 1.567832 1_545
O36 P11 1.565735 1_565
O37 P10 1.518422 1_555
O38 P11 1.555124 1_555
O39 P10 1.555023 1_555
O40 P10 1.536461 1_555
O41 P11 1.529949 1_555
O42 P3 1.520701 1_555
O43 P3 1.577981 1_555
O44 P5 1.554203 1_455
O45 P4 1.562661 1_455
O46 P0 1.547905 1_455
O47 P0 1.501027 1_455
