# generated using pymatgen
data_Li2V3TeO8
_symmetry_space_group_name_H-M   'P 1'
_cell_length_a   5.88958104
_cell_length_b   5.89066208
_cell_length_c   10.25440102
_cell_angle_alpha   90.00860410
_cell_angle_beta   89.99569288
_cell_angle_gamma   120.00607028
_symmetry_Int_Tables_number   1
_chemical_formula_structural   Li2V3TeO8
_chemical_formula_sum   'Li4 V6 Te2 O16'
_cell_volume   308.07954755
_cell_formula_units_Z   2
loop_
 _symmetry_equiv_pos_site_id
 _symmetry_equiv_pos_as_xyz
  1  'x, y, z'
loop_
 _atom_site_type_symbol
 _atom_site_label
 _atom_site_symmetry_multiplicity
 _atom_site_fract_x
 _atom_site_fract_y
 _atom_site_fract_z
 _atom_site_occupancy
  Li  Li0  1  0.33331200  0.66668500  0.89943600  1
  Li  Li1  1  0.00001500  0.00003400  0.98990900  1
  Li  Li2  1  0.99998500  0.00001800  0.48990900  1
  Li  Li3  1  0.66668800  0.33337400  0.39943600  1
  V  V0  1  0.17782200  0.82177800  0.21940000  1
  V  V1  1  0.17833700  0.35615200  0.21938900  1
  V  V2  1  0.64394800  0.82227900  0.21936900  1
  V  V3  1  0.35605200  0.17833100  0.71936900  1
  V  V4  1  0.82217800  0.64395500  0.71940000  1
  V  V5  1  0.82166300  0.17781500  0.71938900  1
  Te  Te0  1  0.33338000  0.66666000  0.50555800  1
  Te  Te1  1  0.66662000  0.33328000  0.00555800  1
  O  O0  1  0.16096800  0.83996300  0.60209000  1
  O  O1  1  0.02156000  0.51091100  0.32920400  1
  O  O2  1  0.33333000  0.66661100  0.10297400  1
  O  O3  1  0.99997900  0.00010100  0.30396600  1
  O  O4  1  0.00002100  0.00012400  0.80396600  1
  O  O5  1  0.16004900  0.32107400  0.60215400  1
  O  O6  1  0.48923300  0.97843500  0.32925800  1
  O  O7  1  0.48928500  0.51071600  0.32908300  1
  O  O8  1  0.32100700  0.15986600  0.10212800  1
  O  O9  1  0.67899300  0.83885800  0.60212800  1
  O  O10  1  0.51076700  0.48920100  0.82925800  1
  O  O11  1  0.51071500  0.02143100  0.82908300  1
  O  O12  1  0.66667000  0.33328100  0.60297400  1
  O  O13  1  0.83903200  0.67899500  0.10209000  1
  O  O14  1  0.97844000  0.48935000  0.82920400  1
  O  O15  1  0.83995100  0.16102500  0.10215400  1
loop_
_geom_bond_atom_site_label_1
_geom_bond_atom_site_label_2
_geom_bond_distance
_geom_bond_site_symmetry_2
Li0 O14 1.947946 1_455
Li0 O11 1.948203 1_565
Li0 O10 1.948280 1_555
Li0 O2 2.087160 1_556
Li1 O4 1.906734 1_555
Li1 O8 2.001101 1_556
Li1 O13 2.001438 1_446
Li1 O15 2.001638 1_456
Li2 O3 1.906734 1_555
Li2 O9 2.001101 1_545
Li2 O0 2.001434 1_645
Li2 O5 2.001643 1_655
Li3 O1 1.947946 1_655
Li3 O7 1.948199 1_555
Li3 O6 1.948280 1_545
Li3 O12 2.087160 1_555
O0 Te0 2.022252 1_555
O0 V3 2.109090 1_565
O0 V4 2.111244 1_455
O1 V0 1.944993 1_555
O1 V1 1.947606 1_555
O1 Te0 2.408223 1_555
O2 V1 1.983349 1_555
O2 V2 1.983517 1_555
O2 V0 1.984048 1_555
O3 V2 2.012411 1_545
O3 V1 2.012817 1_655
O3 V0 2.013095 1_645
O4 V3 2.012411 1_555
O4 V5 2.012808 1_455
O4 V4 2.013109 1_445
O5 Te0 2.022223 1_555
O5 V5 2.108799 1_455
O5 V3 2.110851 1_555
O6 V2 1.945276 1_555
O6 V0 1.947222 1_555
O6 Te0 2.408004 1_555
O7 V1 1.944323 1_555
O7 V2 1.947363 1_555
O7 Te0 2.409290 1_555
O8 Te1 2.021820 1_555
O8 V0 2.108171 1_545
O8 V1 2.111873 1_555
O9 Te0 2.021820 1_555
O9 V4 2.108171 1_555
O9 V5 2.111878 1_565
O10 V3 1.945272 1_555
O10 V4 1.947222 1_555
O10 Te1 2.408000 1_556
O11 V5 1.944323 1_555
O11 V3 1.947363 1_555
O11 Te1 2.409290 1_556
O12 V5 1.983349 1_555
O12 V3 1.983517 1_555
O12 V4 1.984044 1_555
O13 Te1 2.022252 1_555
O13 V2 2.109089 1_555
O13 V0 2.111244 1_655
O14 V4 1.944993 1_555
O14 V5 1.947602 1_555
O14 Te1 2.408223 1_556
O15 Te1 2.022223 1_555
O15 V1 2.108800 1_655
O15 V2 2.110851 1_545
