# generated using pymatgen
data_S(NO2)2
_symmetry_space_group_name_H-M   'P 1'
_cell_length_a   6.02273900
_cell_length_b   7.81652300
_cell_length_c   10.71314500
_cell_angle_alpha   90.00000000
_cell_angle_beta   90.00000000
_cell_angle_gamma   90.00000000
_symmetry_Int_Tables_number   1
_chemical_formula_structural   S(NO2)2
_chemical_formula_sum   'S4 N8 O16'
_cell_volume   504.34141927
_cell_formula_units_Z   4
loop_
 _symmetry_equiv_pos_site_id
 _symmetry_equiv_pos_as_xyz
  1  'x, y, z'
loop_
 _atom_site_type_symbol
 _atom_site_label
 _atom_site_symmetry_multiplicity
 _atom_site_fract_x
 _atom_site_fract_y
 _atom_site_fract_z
 _atom_site_occupancy
  S  S0  1  0.75000000  0.25147100  0.08346400  1
  S  S1  1  0.75000000  0.75147100  0.41653600  1
  S  S2  1  0.25000000  0.74852900  0.91653600  1
  S  S3  1  0.25000000  0.24852900  0.58346400  1
  N  N0  1  0.75000000  0.81496400  0.08299900  1
  N  N1  1  0.75000000  0.31496400  0.41700100  1
  N  N2  1  0.25000000  0.18503600  0.91700100  1
  N  N3  1  0.25000000  0.68503600  0.58299900  1
  N  N4  1  0.25000000  0.49983700  0.18884400  1
  N  N5  1  0.25000000  0.99983700  0.31115600  1
  N  N6  1  0.75000000  0.50016300  0.81115600  1
  N  N7  1  0.75000000  0.00016300  0.68884400  1
  O  O0  1  0.75000000  0.44009900  0.08278400  1
  O  O1  1  0.75000000  0.94009900  0.41721600  1
  O  O2  1  0.25000000  0.55990100  0.91721600  1
  O  O3  1  0.25000000  0.05990100  0.58278400  1
  O  O4  1  0.75000000  0.18599700  0.95249700  1
  O  O5  1  0.75000000  0.68599700  0.54750300  1
  O  O6  1  0.25000000  0.81400300  0.04750300  1
  O  O7  1  0.25000000  0.31400300  0.45249700  1
  O  O8  1  0.95109500  0.18601100  0.14800100  1
  O  O9  1  0.54890500  0.68601100  0.35199900  1
  O  O10  1  0.45109500  0.81398900  0.85199900  1
  O  O11  1  0.04890500  0.31398900  0.64800100  1
  O  O12  1  0.04890500  0.81398900  0.85199900  1
  O  O13  1  0.45109500  0.31398900  0.64800100  1
  O  O14  1  0.54890500  0.18601100  0.14800100  1
  O  O15  1  0.95109500  0.68601100  0.35199900  1
loop_
_geom_bond_atom_site_label_1
_geom_bond_atom_site_label_2
_geom_bond_distance
_geom_bond_site_symmetry_2
O0 S0 1.474433 1_555
O1 S1 1.474433 1_555
O2 S2 1.474433 1_555
O3 S3 1.474433 1_555
O4 S0 1.493492 1_556
O5 S1 1.493492 1_555
O6 S2 1.493492 1_554
O7 S3 1.493492 1_555
O8 S0 1.485496 1_555
O9 S1 1.485496 1_555
O10 S2 1.485496 1_555
O11 S3 1.485496 1_555
O12 S2 1.485496 1_555
O13 S3 1.485496 1_555
O14 S0 1.485496 1_555
O15 S1 1.485496 1_555
