# generated using pymatgen
data_BaLaFe2Cu2O11
_symmetry_space_group_name_H-M   'P 1'
_cell_length_a   5.39324100
_cell_length_b   5.40960600
_cell_length_c   8.21936900
_cell_angle_alpha   90.00000000
_cell_angle_beta   90.00000000
_cell_angle_gamma   90.00000000
_symmetry_Int_Tables_number   1
_chemical_formula_structural   BaLaFe2Cu2O11
_chemical_formula_sum   'Ba1 La1 Fe2 Cu2 O11'
_cell_volume   239.80262932
_cell_formula_units_Z   1
loop_
 _symmetry_equiv_pos_site_id
 _symmetry_equiv_pos_as_xyz
  1  'x, y, z'
loop_
 _atom_site_type_symbol
 _atom_site_label
 _atom_site_symmetry_multiplicity
 _atom_site_fract_x
 _atom_site_fract_y
 _atom_site_fract_z
 _atom_site_occupancy
  Ba  Ba0  1  0.00000000  0.50000000  0.75200200  1
  La  La0  1  0.50000000  0.00000000  0.75975800  1
  Fe  Fe0  1  0.50000000  0.50000000  0.04330200  1
  Fe  Fe1  1  0.00000000  0.00000000  0.50379300  1
  Cu  Cu0  1  0.00000000  0.00000000  0.01553500  1
  Cu  Cu1  1  0.50000000  0.50000000  0.48726100  1
  O  O0  1  0.74444700  0.76439100  0.98743600  1
  O  O1  1  0.25555300  0.76439100  0.98743600  1
  O  O2  1  0.50000000  0.50000000  0.73357400  1
  O  O3  1  0.25204700  0.23137700  0.50188700  1
  O  O4  1  0.00000000  0.00000000  0.73728100  1
  O  O5  1  0.25204700  0.76862300  0.50188700  1
  O  O6  1  0.74795300  0.23137700  0.50188700  1
  O  O7  1  0.74795300  0.76862300  0.50188700  1
  O  O8  1  0.50000000  0.50000000  0.26219900  1
  O  O9  1  0.74444700  0.23560900  0.98743600  1
  O  O10  1  0.25555300  0.23560900  0.98743600  1
loop_
_geom_bond_atom_site_label_1
_geom_bond_atom_site_label_2
_geom_bond_distance
_geom_bond_site_symmetry_2
Ba0 O2 2.700871 1_455
Ba0 O2 2.700871 1_555
Ba0 O4 2.707508 1_565
Ba0 O4 2.707508 1_555
Ba0 O9 2.773067 1_455
Ba0 O0 2.773067 1_455
Ba0 O1 2.773067 1_555
Ba0 O10 2.773067 1_555
Ba0 O7 2.861070 1_455
Ba0 O5 2.861070 1_555
Ba0 O6 2.861070 1_455
Ba0 O3 2.861070 1_555
La0 O10 2.620035 1_555
La0 O0 2.620035 1_545
La0 O1 2.620035 1_545
La0 O9 2.620035 1_555
La0 O4 2.702942 1_655
La0 O4 2.702942 1_555
La0 O2 2.713352 1_555
La0 O2 2.713352 1_545
La0 O7 2.801317 1_545
La0 O5 2.801317 1_545
La0 O3 2.801317 1_555
La0 O6 2.801317 1_555
Fe0 O8 1.799195 1_555
Fe0 O9 1.998636 1_554
Fe0 O10 1.998636 1_554
Fe0 O1 1.998636 1_554
Fe0 O0 1.998636 1_554
Fe0 O2 2.545769 1_554
Fe1 O5 1.847898 1_545
Fe1 O7 1.847898 1_445
Fe1 O6 1.847898 1_455
Fe1 O3 1.847898 1_555
Fe1 O4 1.919124 1_555
Cu0 O10 1.891407 1_554
Cu0 O0 1.891407 1_444
Cu0 O1 1.891407 1_544
Cu0 O9 1.891407 1_454
Cu0 O4 2.287072 1_554
Cu1 O8 1.849868 1_555
Cu1 O7 1.978477 1_555
Cu1 O5 1.978477 1_555
Cu1 O3 1.978477 1_555
Cu1 O6 1.978477 1_555
Cu1 O2 2.024537 1_555
