# generated using pymatgen
data_TiCu(PO4)2
_symmetry_space_group_name_H-M   'P 1'
_cell_length_a   5.98457400
_cell_length_b   4.92435400
_cell_length_c   9.85679893
_cell_angle_alpha   89.23006907
_cell_angle_beta   90.00000000
_cell_angle_gamma   90.00000000
_symmetry_Int_Tables_number   1
_chemical_formula_structural   TiCu(PO4)2
_chemical_formula_sum   'Ti2 Cu2 P4 O16'
_cell_volume   290.45522420
_cell_formula_units_Z   2
loop_
 _symmetry_equiv_pos_site_id
 _symmetry_equiv_pos_as_xyz
  1  'x, y, z'
loop_
 _atom_site_type_symbol
 _atom_site_label
 _atom_site_symmetry_multiplicity
 _atom_site_fract_x
 _atom_site_fract_y
 _atom_site_fract_z
 _atom_site_occupancy
  Ti  Ti0  1  0.75000000  0.47294100  0.77660900  1
  Ti  Ti1  1  0.25000000  0.52705900  0.22339100  1
  Cu  Cu0  1  0.25000000  0.91881400  0.71563100  1
  Cu  Cu1  1  0.75000000  0.08118600  0.28436900  1
  P  P0  1  0.25000000  0.43334500  0.89881800  1
  P  P1  1  0.75000000  0.90993200  0.59702900  1
  P  P2  1  0.25000000  0.09006800  0.40297100  1
  P  P3  1  0.75000000  0.56665500  0.10118200  1
  O  O0  1  0.75000000  0.64896000  0.94789100  1
  O  O1  1  0.25000000  0.74299600  0.88760100  1
  O  O2  1  0.04040000  0.30445300  0.82918500  1
  O  O3  1  0.45960000  0.30445300  0.82918500  1
  O  O4  1  0.94435900  0.75171100  0.67248700  1
  O  O5  1  0.55564100  0.75171100  0.67248700  1
  O  O6  1  0.75000000  0.21269100  0.63208800  1
  O  O7  1  0.25000000  0.13772000  0.55414600  1
  O  O8  1  0.75000000  0.86228000  0.44585400  1
  O  O9  1  0.25000000  0.78730900  0.36791200  1
  O  O10  1  0.05564100  0.24828900  0.32751300  1
  O  O11  1  0.44435900  0.24828900  0.32751300  1
  O  O12  1  0.54040000  0.69554700  0.17081500  1
  O  O13  1  0.95960000  0.69554700  0.17081500  1
  O  O14  1  0.75000000  0.25700400  0.11239900  1
  O  O15  1  0.25000000  0.35104000  0.05210900  1
loop_
_geom_bond_atom_site_label_1
_geom_bond_atom_site_label_2
_geom_bond_distance
_geom_bond_site_symmetry_2
Cu0 O1 1.892994 1_555
Cu0 O7 1.910366 1_565
Cu0 O4 2.052583 1_455
Cu0 O5 2.052583 1_555
Cu0 O3 2.547476 1_565
Cu0 O2 2.547476 1_565
Cu1 O14 1.892994 1_555
Cu1 O8 1.910366 1_545
Cu1 O10 2.052583 1_655
Cu1 O11 2.052583 1_555
Cu1 O12 2.547476 1_545
Cu1 O13 2.547476 1_545
O0 P3 1.559104 1_556
O0 Ti0 1.908132 1_555
O1 P0 1.527352 1_555
O2 P0 1.568148 1_555
O2 Ti0 1.991424 1_455
O3 P0 1.568148 1_555
O3 Ti0 1.991424 1_555
O4 P1 1.580383 1_555
O4 Ti0 2.062245 1_555
O5 P1 1.580383 1_555
O5 Ti0 2.062245 1_555
O6 P1 1.534935 1_545
O6 Ti0 1.928914 1_555
O7 P2 1.511576 1_555
O8 P1 1.511576 1_555
O9 P2 1.534935 1_565
O9 Ti1 1.928914 1_555
O10 P2 1.580383 1_555
O10 Ti1 2.062245 1_555
O11 P2 1.580383 1_555
O11 Ti1 2.062245 1_555
O12 P3 1.568148 1_555
O12 Ti1 1.991424 1_555
O13 P3 1.568148 1_555
O13 Ti1 1.991424 1_655
O14 P3 1.527352 1_555
O15 P0 1.559104 1_554
O15 Ti1 1.908132 1_555
