# generated using pymatgen
data_Li2Fe3(Si3O8)2
_symmetry_space_group_name_H-M   'P 1'
_cell_length_a   7.02028300
_cell_length_b   9.75345096
_cell_length_c   10.29413348
_cell_angle_alpha   80.00302142
_cell_angle_beta   70.32554078
_cell_angle_gamma   82.50027738
_symmetry_Int_Tables_number   1
_chemical_formula_structural   Li2Fe3(Si3O8)2
_chemical_formula_sum   'Li4 Fe6 Si12 O32'
_cell_volume   651.65605729
_cell_formula_units_Z   2
loop_
 _symmetry_equiv_pos_site_id
 _symmetry_equiv_pos_as_xyz
  1  'x, y, z'
loop_
 _atom_site_type_symbol
 _atom_site_label
 _atom_site_symmetry_multiplicity
 _atom_site_fract_x
 _atom_site_fract_y
 _atom_site_fract_z
 _atom_site_occupancy
  Li  Li0  1  0.85866300  0.88822000  0.46890000  1
  Li  Li1  1  0.83634800  0.57866600  0.81461400  1
  Li  Li2  1  0.16365200  0.42133400  0.18538600  1
  Li  Li3  1  0.14133700  0.11178000  0.53110000  1
  Fe  Fe0  1  0.42047600  0.85782100  0.47372100  1
  Fe  Fe1  1  0.84941400  0.89262500  0.09045300  1
  Fe  Fe2  1  0.34763100  0.87649500  0.11061800  1
  Fe  Fe3  1  0.65236900  0.12350500  0.88938200  1
  Fe  Fe4  1  0.15058600  0.10737500  0.90954700  1
  Fe  Fe5  1  0.57952400  0.14217900  0.52627900  1
  Si  Si0  1  0.99454600  0.86100700  0.75816300  1
  Si  Si1  1  0.54869900  0.86703400  0.76699000  1
  Si  Si2  1  0.21731700  0.67965400  0.93329300  1
  Si  Si3  1  0.25271500  0.61713800  0.34983800  1
  Si  Si4  1  0.64474600  0.59995800  0.13440800  1
  Si  Si5  1  0.79225100  0.59886300  0.38681000  1
  Si  Si6  1  0.20774900  0.40113700  0.61319000  1
  Si  Si7  1  0.35525400  0.40004200  0.86559200  1
  Si  Si8  1  0.74728500  0.38286200  0.65016200  1
  Si  Si9  1  0.78268300  0.32034600  0.06670700  1
  Si  Si10  1  0.45130100  0.13296600  0.23301000  1
  Si  Si11  1  0.00545400  0.13899300  0.24183700  1
  O  O0  1  0.94571400  0.97732600  0.86647500  1
  O  O1  1  0.45105800  0.97502300  0.88283200  1
  O  O2  1  0.13460500  0.91240300  0.60264900  1
  O  O3  1  0.54146800  0.93376000  0.61434400  1
  O  O4  1  0.78735300  0.80832400  0.74671400  1
  O  O5  1  0.07123400  0.70835400  0.83355100  1
  O  O6  1  0.26865800  0.78242000  0.34146100  1
  O  O7  1  0.44241200  0.71851600  0.82939800  1
  O  O8  1  0.65183000  0.76165200  0.07033200  1
  O  O9  1  0.71475000  0.75882900  0.40755600  1
  O  O10  1  0.13251200  0.76742400  0.06272000  1
  O  O11  1  0.24097100  0.50773100  0.98319200  1
  O  O12  1  0.24244900  0.44305500  0.74911100  1
  O  O13  1  0.03955700  0.56679500  0.34882800  1
  O  O14  1  0.40742400  0.56086700  0.20495000  1
  O  O15  1  0.30501300  0.52132000  0.48243900  1
  O  O16  1  0.69498700  0.47868000  0.51756100  1
  O  O17  1  0.59257600  0.43913300  0.79505000  1
  O  O18  1  0.96044300  0.43320500  0.65117200  1
  O  O19  1  0.75755100  0.55694500  0.25088900  1
  O  O20  1  0.75902900  0.49226900  0.01680800  1
  O  O21  1  0.86748800  0.23257600  0.93728000  1
  O  O22  1  0.28525000  0.24117100  0.59244400  1
  O  O23  1  0.34817000  0.23834800  0.92966800  1
  O  O24  1  0.55758800  0.28148400  0.17060200  1
  O  O25  1  0.73134200  0.21758000  0.65853900  1
  O  O26  1  0.92876600  0.29164600  0.16644900  1
  O  O27  1  0.21264700  0.19167600  0.25328600  1
  O  O28  1  0.45853200  0.06624000  0.38565600  1
  O  O29  1  0.86539500  0.08759700  0.39735100  1
  O  O30  1  0.54894200  0.02497700  0.11716800  1
  O  O31  1  0.05428600  0.02267400  0.13352500  1
loop_
_geom_bond_atom_site_label_1
_geom_bond_atom_site_label_2
_geom_bond_distance
_geom_bond_site_symmetry_2
Li0 O29 1.956915 1_565
Li0 O9 2.012780 1_555
Li0 O3 2.263919 1_555
Li1 O20 2.021559 1_556
Li1 O4 2.245319 1_555
Li1 O18 2.263124 1_555
Li1 O5 2.281144 1_655
Li1 O17 2.399293 1_555
Li2 O11 2.021559 1_554
Li2 O27 2.245319 1_555
Li2 O13 2.263124 1_555
Li2 O26 2.281144 1_455
Li2 O14 2.399293 1_555
Li3 O2 1.956915 1_545
Li3 O22 2.012780 1_555
Li3 O28 2.263919 1_555
Fe0 O2 2.060439 1_555
Fe0 O28 2.089108 1_565
Fe0 O9 2.103374 1_555
Fe0 O3 2.174859 1_555
Fe0 O6 2.249403 1_555
Fe1 O8 2.084864 1_555
Fe1 O10 2.151283 1_655
Fe1 O0 2.211445 1_554
Fe1 O31 2.230467 1_665
Fe1 O30 2.283289 1_565
Fe2 O30 2.175204 1_565
Fe2 O10 2.181379 1_555
Fe2 O8 2.219858 1_555
Fe2 O1 2.280883 1_554
Fe2 O6 2.298885 1_555
Fe2 O31 2.313576 1_565
Fe3 O1 2.175204 1_545
Fe3 O21 2.181379 1_555
Fe3 O23 2.219858 1_555
Fe3 O30 2.280883 1_556
Fe3 O25 2.298885 1_555
Fe3 O0 2.313576 1_545
Fe4 O23 2.084864 1_555
Fe4 O21 2.151283 1_455
Fe4 O31 2.211445 1_556
Fe4 O0 2.230467 1_445
Fe4 O1 2.283289 1_545
Fe5 O29 2.060439 1_555
Fe5 O3 2.089108 1_545
Fe5 O22 2.103374 1_555
Fe5 O28 2.174859 1_555
Fe5 O25 2.249403 1_555
O0 Si0 1.651695 1_555
O1 Si1 1.642704 1_555
O2 Si0 1.603446 1_455
O3 Si1 1.607895 1_555
O4 Si0 1.650822 1_555
O4 Si1 1.653505 1_555
O5 Si2 1.648827 1_555
O5 Si0 1.667280 1_455
O6 Si3 1.615880 1_555
O7 Si2 1.631639 1_555
O7 Si1 1.644413 1_555
O8 Si4 1.600605 1_555
O9 Si5 1.609898 1_555
O10 Si2 1.609737 1_554
O11 Si7 1.667309 1_555
O11 Si2 1.670008 1_555
O12 Si7 1.618311 1_555
O12 Si6 1.624299 1_555
O13 Si3 1.638464 1_555
O13 Si5 1.645772 1_455
O14 Si4 1.644237 1_555
O14 Si3 1.656269 1_555
O15 Si3 1.635980 1_555
O15 Si6 1.641413 1_555
O16 Si8 1.635980 1_555
O16 Si5 1.641413 1_555
O17 Si7 1.644237 1_555
O17 Si8 1.656269 1_555
O18 Si8 1.638464 1_555
O18 Si6 1.645772 1_655
O19 Si4 1.618311 1_555
O19 Si5 1.624299 1_555
O20 Si4 1.667309 1_555
O20 Si9 1.670008 1_555
O21 Si9 1.609737 1_556
O22 Si6 1.609898 1_555
O23 Si7 1.600605 1_555
O24 Si9 1.631639 1_555
O24 Si10 1.644413 1_555
O25 Si8 1.615880 1_555
O26 Si9 1.648827 1_555
O26 Si11 1.667280 1_655
O27 Si11 1.650822 1_555
O27 Si10 1.653505 1_555
O28 Si10 1.607895 1_555
O29 Si11 1.603446 1_655
O30 Si10 1.642704 1_555
O31 Si11 1.651695 1_555
