# generated using pymatgen
data_Li3CoPCO7
_symmetry_space_group_name_H-M   'P 1'
_cell_length_a   6.44108800
_cell_length_b   8.46663701
_cell_length_c   9.93353490
_cell_angle_alpha   95.49998379
_cell_angle_beta   90.25876106
_cell_angle_gamma   90.44556646
_symmetry_Int_Tables_number   1
_chemical_formula_structural   Li3CoPCO7
_chemical_formula_sum   'Li12 Co4 P4 C4 O28'
_cell_volume   539.20111920
_cell_formula_units_Z   4
loop_
 _symmetry_equiv_pos_site_id
 _symmetry_equiv_pos_as_xyz
  1  'x, y, z'
loop_
 _atom_site_type_symbol
 _atom_site_label
 _atom_site_symmetry_multiplicity
 _atom_site_fract_x
 _atom_site_fract_y
 _atom_site_fract_z
 _atom_site_occupancy
  Li  Li0  1  0.74187400  0.89405500  0.39319400  1
  Li  Li1  1  0.74492200  0.89909200  0.88128000  1
  Li  Li2  1  0.50856800  0.72370100  0.13711500  1
  Li  Li3  1  0.99788500  0.72662000  0.61356900  1
  Li  Li4  1  0.51101800  0.72371000  0.60975500  1
  Li  Li5  1  0.25221900  0.65116000  0.39846900  1
  Li  Li6  1  0.47274400  0.28216900  0.37502200  1
  Li  Li7  1  0.02822900  0.28366800  0.37630300  1
  Li  Li8  1  0.47640300  0.27740300  0.87140800  1
  Li  Li9  1  0.01878100  0.27457600  0.87146900  1
  Li  Li10  1  0.25080000  0.10015800  0.11461800  1
  Li  Li11  1  0.25027500  0.10349000  0.61034500  1
  Co  Co0  1  0.99581000  0.73046000  0.14363000  1
  Co  Co1  1  0.25279700  0.66721400  0.89380900  1
  Co  Co2  1  0.75079500  0.33089300  0.10326400  1
  Co  Co3  1  0.75148000  0.33172400  0.60411500  1
  P  P0  1  0.75252300  0.59048700  0.36216000  1
  P  P1  1  0.75103700  0.58626800  0.86542200  1
  P  P2  1  0.24858300  0.40904100  0.14074200  1
  P  P3  1  0.25148200  0.41573900  0.63935700  1
  C  C0  1  0.24238900  0.96260200  0.34764700  1
  C  C1  1  0.24686000  0.96140600  0.84805800  1
  C  C2  1  0.75079100  0.03837100  0.15132600  1
  C  C3  1  0.74908400  0.03845100  0.65062400  1
  O  O0  1  0.25046100  0.93063600  0.47044500  1
  O  O1  1  0.75599400  0.89322800  0.18869200  1
  O  O2  1  0.25299700  0.92921800  0.97295100  1
  O  O3  1  0.23654200  0.84671200  0.24811800  1
  O  O4  1  0.74617800  0.89263900  0.68069900  1
  O  O5  1  0.23998600  0.84173300  0.75491300  1
  O  O6  1  0.94193800  0.69355900  0.41114800  1
  O  O7  1  0.56015800  0.68995100  0.40510700  1
  O  O8  1  0.93917500  0.69068100  0.92677100  1
  O  O9  1  0.56472800  0.69120400  0.91720000  1
  O  O10  1  0.24714200  0.57757100  0.08888700  1
  O  O11  1  0.76258700  0.56807800  0.20083200  1
  O  O12  1  0.25433200  0.57902900  0.58665900  1
  O  O13  1  0.76063300  0.56795900  0.70886400  1
  O  O14  1  0.24900100  0.42775300  0.29602000  1
  O  O15  1  0.75031600  0.42309100  0.41243900  1
  O  O16  1  0.24991700  0.43355900  0.79799000  1
  O  O17  1  0.74903800  0.41981700  0.91616400  1
  O  O18  1  0.06186300  0.30495900  0.08313600  1
  O  O19  1  0.43752300  0.31155900  0.08296700  1
  O  O20  1  0.43815600  0.30898400  0.58862800  1
  O  O21  1  0.06371700  0.30879600  0.58623600  1
  O  O22  1  0.74113900  0.15790900  0.24306000  1
  O  O23  1  0.24574600  0.10835100  0.31498600  1
  O  O24  1  0.75227200  0.15620500  0.74629200  1
  O  O25  1  0.75365700  0.06496000  0.02622300  1
  O  O26  1  0.24902500  0.10593200  0.81511000  1
  O  O27  1  0.74843000  0.07346600  0.52676600  1
loop_
_geom_bond_atom_site_label_1
_geom_bond_atom_site_label_2
_geom_bond_distance
_geom_bond_site_symmetry_2
Li0 O27 1.918808 1_565
Li0 O1 2.033217 1_555
Li0 O7 2.092651 1_555
Li0 O6 2.159619 1_555
Li1 O25 1.912801 1_566
Li1 O4 1.988041 1_555
Li1 O9 2.159806 1_555
Li1 O8 2.250641 1_555
Li2 O10 2.107689 1_555
Li2 O1 2.163004 1_555
Li2 O9 2.207308 1_554
Li2 O11 2.235562 1_555
Li2 O3 2.279527 1_555
Li3 O6 2.033555 1_555
Li3 O12 2.081694 1_655
Li3 O4 2.216864 1_555
Li3 O5 2.246600 1_655
Li3 O13 2.293638 1_555
Li4 O12 2.048876 1_555
Li4 O7 2.051904 1_555
Li4 O4 2.144763 1_555
Li4 O13 2.358117 1_555
Li4 O5 2.428778 1_555
Li5 O7 2.007703 1_555
Li5 O12 2.021514 1_555
Li5 O6 2.035604 1_455
Li5 O14 2.060122 1_555
Li5 O3 2.336080 1_555
Li5 O0 2.405517 1_555
Li6 O14 2.101173 1_555
Li6 O23 2.109412 1_555
Li6 O20 2.125133 1_555
Li6 O15 2.152672 1_555
Li6 O22 2.366042 1_555
Li7 O14 2.077513 1_555
Li7 O21 2.087151 1_555
Li7 O23 2.098559 1_555
Li7 O15 2.164270 1_455
Li7 O22 2.445836 1_455
Li8 O26 2.090278 1_555
Li8 O19 2.110012 1_556
Li8 O17 2.143025 1_555
Li8 O16 2.147844 1_555
Li8 O24 2.357715 1_555
Li9 O26 2.106829 1_555
Li9 O18 2.110462 1_556
Li9 O17 2.159518 1_455
Li9 O16 2.174403 1_555
Li9 O24 2.283069 1_455
Li10 O2 1.919710 1_544
Li10 O23 1.985338 1_555
Li10 O18 2.172278 1_555
Li10 O19 2.196981 1_555
Li11 O0 1.919182 1_545
Li11 O26 2.032216 1_555
Li11 O20 2.140008 1_555
Li11 O21 2.152322 1_555
Co0 O3 2.053355 1_655
Co0 O1 2.099202 1_555
Co0 O10 2.120758 1_655
Co0 O11 2.143595 1_555
Co0 O8 2.176900 1_554
Co1 O9 2.027910 1_555
Co1 O8 2.055992 1_455
Co1 O16 2.111443 1_555
Co1 O5 2.117874 1_555
Co1 O10 2.148169 1_556
Co1 O2 2.281342 1_555
Co2 O18 2.026009 1_655
Co2 O19 2.030733 1_555
Co2 O17 2.071087 1_554
Co2 O22 2.113417 1_555
Co2 O11 2.145154 1_555
Co2 O25 2.307811 1_555
Co3 O21 2.028946 1_655
Co3 O20 2.029564 1_555
Co3 O15 2.122749 1_555
Co3 O24 2.146021 1_555
Co3 O13 2.164557 1_555
Co3 O27 2.247000 1_555
C0 O0 1.275476 1_555
C0 O23 1.305713 1_565
C0 O3 1.324681 1_555
C1 O2 1.295966 1_555
C1 O26 1.296602 1_565
C1 O5 1.305342 1_555
C2 O25 1.284185 1_555
C2 O22 1.297400 1_555
C2 O1 1.317948 1_545
C3 O27 1.292886 1_555
C3 O4 1.297719 1_545
C3 O24 1.309729 1_555
O6 P0 1.543868 1_555
O7 P0 1.542249 1_555
O8 P1 1.579486 1_555
O9 P1 1.558376 1_555
O10 P2 1.562839 1_555
O11 P0 1.597259 1_555
O12 P3 1.524513 1_555
O13 P1 1.549588 1_555
O14 P2 1.535383 1_555
O15 P0 1.547184 1_555
O16 P3 1.568618 1_555
O17 P1 1.541507 1_555
O18 P2 1.559193 1_555
O19 P2 1.556514 1_555
O20 P3 1.565785 1_555
O21 P3 1.564152 1_555
