# generated using pymatgen
data_Li2Fe(PO3)5
_symmetry_space_group_name_H-M   'P 1'
_cell_length_a   9.61331800
_cell_length_b   5.35174000
_cell_length_c   13.15257353
_cell_angle_alpha   70.72630632
_cell_angle_beta   90.00000000
_cell_angle_gamma   90.00000000
_symmetry_Int_Tables_number   1
_chemical_formula_structural   Li2Fe(PO3)5
_chemical_formula_sum   'Li4 Fe2 P10 O30'
_cell_volume   638.74754063
_cell_formula_units_Z   2
loop_
 _symmetry_equiv_pos_site_id
 _symmetry_equiv_pos_as_xyz
  1  'x, y, z'
loop_
 _atom_site_type_symbol
 _atom_site_label
 _atom_site_symmetry_multiplicity
 _atom_site_fract_x
 _atom_site_fract_y
 _atom_site_fract_z
 _atom_site_occupancy
  Li  Li0  1  0.40413000  0.04145100  0.07861200  1
  Li  Li1  1  0.36397900  0.90321300  0.44019800  1
  Li  Li2  1  0.59587000  0.04145100  0.57861200  1
  Li  Li3  1  0.63602100  0.90321300  0.94019800  1
  Fe  Fe0  1  0.99123600  0.03756000  0.49311300  1
  Fe  Fe1  1  0.00876400  0.03756000  0.99311300  1
  P  P0  1  0.80646300  0.39182900  0.08046100  1
  P  P1  1  0.51840700  0.46507700  0.14415200  1
  P  P2  1  0.98799900  0.02566600  0.24511900  1
  P  P3  1  0.52521000  0.52107300  0.36078800  1
  P  P4  1  0.81945900  0.62735800  0.40997000  1
  P  P5  1  0.19353700  0.39182900  0.58046100  1
  P  P6  1  0.48159300  0.46507700  0.64415200  1
  P  P7  1  0.01200100  0.02566600  0.74511900  1
  P  P8  1  0.47479000  0.52107300  0.86078800  1
  P  P9  1  0.18054100  0.62735800  0.90997000  1
  O  O0  1  0.84639600  0.22351900  0.01131000  1
  O  O1  1  0.83025700  0.68383500  0.03454900  1
  O  O2  1  0.50831800  0.73991000  0.06500900  1
  O  O3  1  0.64994200  0.31283800  0.11098000  1
  O  O4  1  0.06682900  0.98099300  0.15329500  1
  O  O5  1  0.39838400  0.27956200  0.16329100  1
  O  O6  1  0.88381600  0.27214400  0.19617800  1
  O  O7  1  0.58550000  0.48808700  0.25220100  1
  O  O8  1  0.88951900  0.76833300  0.29374800  1
  O  O9  1  0.40647800  0.70885600  0.34087200  1
  O  O10  1  0.06111800  0.07504700  0.33828400  1
  O  O11  1  0.66073200  0.68030700  0.38682500  1
  O  O12  1  0.51664500  0.25025900  0.44252800  1
  O  O13  1  0.85494000  0.33645800  0.44531500  1
  O  O14  1  0.85932400  0.77122400  0.48760300  1
  O  O15  1  0.15360400  0.22351900  0.51131000  1
  O  O16  1  0.16974300  0.68383500  0.53454900  1
  O  O17  1  0.49168200  0.73991000  0.56500900  1
  O  O18  1  0.35005800  0.31283800  0.61098000  1
  O  O19  1  0.93317100  0.98099300  0.65329500  1
  O  O20  1  0.60161600  0.27956200  0.66329100  1
  O  O21  1  0.11618400  0.27214400  0.69617800  1
  O  O22  1  0.41450000  0.48808700  0.75220100  1
  O  O23  1  0.11048100  0.76833300  0.79374800  1
  O  O24  1  0.59352200  0.70885600  0.84087200  1
  O  O25  1  0.93888200  0.07504700  0.83828400  1
  O  O26  1  0.33926800  0.68030700  0.88682500  1
  O  O27  1  0.48335500  0.25025900  0.94252800  1
  O  O28  1  0.14506000  0.33645800  0.94531500  1
  O  O29  1  0.14067600  0.77122400  0.98760300  1
loop_
_geom_bond_atom_site_label_1
_geom_bond_atom_site_label_2
_geom_bond_distance
_geom_bond_site_symmetry_2
Li0 O27 1.926655 1_554
Li0 O5 1.950457 1_555
Li0 O2 1.957053 1_545
Li1 O9 1.962790 1_555
Li1 O17 2.004647 1_555
Li1 O16 2.333064 1_555
Li1 O12 2.375291 1_565
Li2 O12 1.926655 1_555
Li2 O20 1.950457 1_555
Li2 O17 1.957053 1_545
Li3 O24 1.962790 1_555
Li3 O2 2.004647 1_556
Li3 O1 2.333064 1_556
Li3 O27 2.375291 1_565
Fe0 O15 1.908233 1_655
Fe0 O14 1.926968 1_545
Fe0 O13 2.001728 1_555
Fe0 O10 2.090163 1_655
Fe0 O19 2.102572 1_545
Fe0 O16 2.478781 1_645
Fe1 O0 1.908233 1_456
Fe1 O29 1.926968 1_545
Fe1 O28 2.001728 1_555
Fe1 O25 2.090163 1_455
Fe1 O4 2.102572 1_546
Fe1 O1 2.478781 1_446
O0 P0 1.525376 1_555
O1 P0 1.495375 1_555
O2 P1 1.498522 1_555
O3 P0 1.578573 1_555
O3 P1 1.639439 1_555
O4 P2 1.510183 1_465
O5 P1 1.488417 1_555
O6 P2 1.611486 1_555
O6 P0 1.623602 1_555
O7 P1 1.601965 1_555
O7 P3 1.604144 1_555
O8 P4 1.611877 1_555
O8 P2 1.618792 1_565
O9 P3 1.485799 1_555
O10 P2 1.509708 1_455
O11 P4 1.563448 1_555
O11 P3 1.653321 1_555
O12 P3 1.494828 1_555
O13 P4 1.509426 1_555
O14 P4 1.516987 1_555
O15 P5 1.525376 1_555
O16 P5 1.495375 1_555
O17 P6 1.498522 1_555
O18 P5 1.578573 1_555
O18 P6 1.639439 1_555
O19 P7 1.510183 1_665
O20 P6 1.488417 1_555
O21 P7 1.611486 1_555
O21 P5 1.623602 1_555
O22 P6 1.601965 1_555
O22 P8 1.604144 1_555
O23 P9 1.611877 1_555
O23 P7 1.618792 1_565
O24 P8 1.485799 1_555
O25 P7 1.509708 1_655
O26 P9 1.563448 1_555
O26 P8 1.653321 1_555
O27 P8 1.494828 1_555
O28 P9 1.509426 1_555
O29 P9 1.516987 1_555
