# generated using pymatgen
data_Li5Mn8(BO3)8
_symmetry_space_group_name_H-M   'P 1'
_cell_length_a   5.27627900
_cell_length_b   9.12995095
_cell_length_c   11.43078061
_cell_angle_alpha   112.68593301
_cell_angle_beta   102.55386890
_cell_angle_gamma   88.71000108
_symmetry_Int_Tables_number   1
_chemical_formula_structural   Li5Mn8(BO3)8
_chemical_formula_sum   'Li5 Mn8 B8 O24'
_cell_volume   494.74654075
_cell_formula_units_Z   1
loop_
 _symmetry_equiv_pos_site_id
 _symmetry_equiv_pos_as_xyz
  1  'x, y, z'
loop_
 _atom_site_type_symbol
 _atom_site_label
 _atom_site_symmetry_multiplicity
 _atom_site_fract_x
 _atom_site_fract_y
 _atom_site_fract_z
 _atom_site_occupancy
  Li  Li0  1  0.71155100  0.74762300  0.32681800  1
  Li  Li1  1  0.46123800  0.45476100  0.07034100  1
  Li  Li2  1  0.24034500  0.26130800  0.34920200  1
  Li  Li3  1  0.22580500  0.23173700  0.61121100  1
  Li  Li4  1  0.02312500  0.99170200  0.84252000  1
  Mn  Mn0  1  0.97066600  0.66308800  0.11526200  1
  Mn  Mn1  1  0.97685800  0.34734800  0.86921800  1
  Mn  Mn2  1  0.74424800  0.43784100  0.37227000  1
  Mn  Mn3  1  0.74536700  0.03738100  0.61434900  1
  Mn  Mn4  1  0.47915200  0.13694200  0.12145800  1
  Mn  Mn5  1  0.53145100  0.83265600  0.86651100  1
  Mn  Mn6  1  0.25982700  0.93822900  0.37202600  1
  Mn  Mn7  1  0.22210900  0.57699300  0.61916100  1
  B  B0  1  0.96931800  0.32582900  0.12617100  1
  B  B1  1  0.77551600  0.10760200  0.38055500  1
  B  B2  1  0.73556000  0.38834000  0.62586400  1
  B  B3  1  0.45485900  0.80321600  0.11487400  1
  B  B4  1  0.51370500  0.17881600  0.87478600  1
  B  B5  1  0.24902000  0.61506100  0.37300500  1
  B  B6  1  0.26141300  0.89562100  0.63707600  1
  B  B7  1  0.03175800  0.68377600  0.86283500  1
  O  O0  1  0.01774200  0.89545200  0.65564800  1
  O  O1  1  0.72397900  0.34513900  0.15462400  1
  O  O2  1  0.86761400  0.47557500  0.57852500  1
  O  O3  1  0.88970100  0.28686100  0.67880900  1
  O  O4  1  0.58808900  0.67790300  0.12829900  1
  O  O5  1  0.53925100  0.89180000  0.05189400  1
  O  O6  1  0.95614000  0.57790700  0.91049500  1
  O  O7  1  0.90830900  0.81858100  0.87459000  1
  O  O8  1  0.67315200  0.98682700  0.40837200  1
  O  O9  1  0.60514100  0.19913700  0.33075100  1
  O  O10  1  0.76204600  0.15553400  0.84341800  1
  O  O11  1  0.50188200  0.61453500  0.36658400  1
  O  O12  1  0.47538700  0.38979900  0.61473100  1
  O  O13  1  0.23987100  0.85099900  0.16666700  1
  O  O14  1  0.43491100  0.78672200  0.67107000  1
  O  O15  1  0.34964500  0.99452300  0.58550900  1
  O  O16  1  0.14213500  0.23484600  0.16646500  1
  O  O17  1  0.04624600  0.41630000  0.05934500  1
  O  O18  1  0.41237400  0.06240700  0.90724400  1
  O  O19  1  0.37917800  0.30772000  0.87619100  1
  O  O20  1  0.15027900  0.51878100  0.42799100  1
  O  O21  1  0.07509100  0.70769000  0.32615700  1
  O  O22  1  0.25256200  0.65188400  0.80850900  1
  O  O23  1  0.04093400  0.13637400  0.40631600  1
loop_
_geom_bond_atom_site_label_1
_geom_bond_atom_site_label_2
_geom_bond_distance
_geom_bond_site_symmetry_2
Li0 O11 1.900543 1_555
Li0 O21 1.945488 1_655
Li0 O8 2.042393 1_555
Li0 O4 2.059319 1_555
Li1 O4 1.965934 1_555
Li1 O1 1.988059 1_555
Li1 O19 2.055543 1_554
Li1 O17 2.194184 1_555
Li2 O23 1.939422 1_555
Li2 O16 1.958549 1_555
Li2 O9 2.026409 1_555
Li2 O20 2.250671 1_555
Li3 O12 1.958577 1_555
Li3 O3 2.061735 1_455
Li3 O23 2.160360 1_555
Li3 O15 2.175472 1_545
Li4 O7 1.893734 1_455
Li4 O0 1.965385 1_555
Li4 O10 2.009120 1_465
Li4 O18 2.052530 1_565
Mn0 O4 2.053803 1_555
Mn0 O13 2.067716 1_655
Mn0 O17 2.145641 1_655
Mn0 O6 2.147067 1_554
Mn0 O21 2.226281 1_655
Mn1 O17 1.965382 1_656
Mn1 O3 1.975570 1_555
Mn1 O6 1.977755 1_555
Mn1 O10 1.996035 1_555
Mn1 O19 2.134817 1_655
Mn2 O11 2.047884 1_555
Mn2 O9 2.153209 1_555
Mn2 O20 2.157870 1_655
Mn2 O2 2.194849 1_555
Mn2 O1 2.276279 1_555
Mn3 O0 2.015040 1_645
Mn3 O15 2.063817 1_545
Mn3 O8 2.163667 1_545
Mn3 O3 2.202400 1_555
Mn3 O10 2.398531 1_555
Mn4 O16 2.048668 1_555
Mn4 O5 2.108783 1_545
Mn4 O9 2.183025 1_555
Mn4 O1 2.183429 1_555
Mn4 O18 2.221140 1_554
Mn5 O5 1.965756 1_556
Mn5 O7 1.973989 1_555
Mn5 O22 2.042059 1_555
Mn5 O14 2.053905 1_555
Mn5 O18 2.079901 1_565
Mn6 O23 2.077489 1_565
Mn6 O13 2.147086 1_555
Mn6 O8 2.152428 1_555
Mn6 O21 2.161979 1_555
Mn6 O15 2.232597 1_555
Mn7 O22 1.972350 1_555
Mn7 O2 1.984972 1_455
Mn7 O20 1.988591 1_555
Mn7 O14 2.051845 1_555
Mn7 O12 2.137566 1_555
B0 O16 1.346120 1_655
B0 O1 1.393216 1_555
B0 O17 1.437739 1_655
B1 O23 1.376416 1_655
B1 O9 1.393307 1_555
B1 O8 1.407344 1_545
B2 O12 1.351053 1_555
B2 O2 1.390661 1_555
B2 O3 1.439003 1_555
B3 O4 1.370763 1_555
B3 O13 1.377671 1_555
B3 O5 1.405464 1_555
B4 O19 1.357168 1_555
B4 O18 1.403229 1_555
B4 O10 1.422529 1_555
B5 O11 1.351825 1_555
B5 O21 1.394596 1_555
B5 O20 1.424192 1_555
B6 O0 1.347971 1_555
B6 O15 1.388637 1_555
B6 O14 1.442188 1_555
B7 O7 1.353321 1_455
B7 O6 1.381411 1_455
B7 O22 1.409767 1_555
