# generated using pymatgen
data_Li5V3P8O29
_symmetry_space_group_name_H-M   'P 1'
_cell_length_a   9.75594100
_cell_length_b   9.80913619
_cell_length_c   14.04892099
_cell_angle_alpha   90.26483675
_cell_angle_beta   90.17809577
_cell_angle_gamma   119.66634605
_symmetry_Int_Tables_number   1
_chemical_formula_structural   Li5V3P8O29
_chemical_formula_sum   'Li10 V6 P16 O58'
_cell_volume   1168.18296873
_cell_formula_units_Z   2
loop_
 _symmetry_equiv_pos_site_id
 _symmetry_equiv_pos_as_xyz
  1  'x, y, z'
loop_
 _atom_site_type_symbol
 _atom_site_label
 _atom_site_symmetry_multiplicity
 _atom_site_fract_x
 _atom_site_fract_y
 _atom_site_fract_z
 _atom_site_occupancy
  Li  Li0  1  0.68400400  0.91374200  0.56229400  1
  Li  Li1  1  0.22942900  0.32438200  0.56088500  1
  Li  Li2  1  0.10376600  0.33753400  0.05690900  1
  Li  Li3  1  0.23284800  0.90279500  0.05675600  1
  Li  Li4  1  0.09368600  0.77232900  0.56226800  1
  Li  Li5  1  0.90690000  0.67328600  0.93732300  1
  Li  Li6  1  0.65990300  0.32819400  0.10941800  1
  Li  Li7  1  0.76771000  0.68008100  0.43775700  1
  Li  Li8  1  0.31660200  0.09154800  0.44320300  1
  Li  Li9  1  0.96736600  0.01418000  0.99205900  1
  V  V0  1  0.00095200  0.42775000  0.25592600  1
  V  V1  1  0.00067300  0.56558600  0.74746500  1
  V  V2  1  0.57031000  0.00153400  0.75450200  1
  V  V3  1  0.43381300  0.99890000  0.25034900  1
  V  V4  1  0.56296100  0.56986900  0.24237700  1
  V  V5  1  0.43626700  0.43248900  0.75605600  1
  P  P0  1  0.69258400  0.77641500  0.83969900  1
  P  P1  1  0.68547500  0.91485700  0.34309200  1
  P  P2  1  0.23717000  0.32023500  0.34457100  1
  P  P3  1  0.32275300  0.66129000  0.12800200  1
  P  P4  1  0.33800900  0.66724200  0.63036900  1
  P  P5  1  0.08698300  0.31436500  0.84374300  1
  P  P6  1  0.91341600  0.22856100  0.66072700  1
  P  P7  1  0.22531200  0.91158600  0.84282800  1
  P  P8  1  0.78098800  0.08881500  0.15891400  1
  P  P9  1  0.08690500  0.76855800  0.34109600  1
  P  P10  1  0.91052700  0.68041600  0.15696300  1
  P  P11  1  0.66596100  0.33902600  0.36949100  1
  P  P12  1  0.67126700  0.33697400  0.87206200  1
  P  P13  1  0.76494700  0.67843300  0.65486800  1
  P  P14  1  0.31872800  0.08808000  0.66143100  1
  P  P15  1  0.30999700  0.22210600  0.16032000  1
  O  O0  1  0.74853100  0.75093300  0.56446800  1
  O  O1  1  0.66580900  0.74962200  0.33563300  1
  O  O2  1  0.80278500  0.00820800  0.07573200  1
  O  O3  1  0.65620000  0.91225000  0.83691900  1
  O  O4  1  0.53582500  0.61751500  0.83088100  1
  O  O5  1  0.47401700  0.66334900  0.17107100  1
  O  O6  1  0.38346100  0.47817000  0.32564800  1
  O  O7  1  0.20752700  0.21635700  0.08032600  1
  O  O8  1  0.25838900  0.34229500  0.82948700  1
  O  O9  1  0.48935300  0.81634600  0.66841900  1
  O  O10  1  0.52409100  0.90562900  0.31680600  1
  O  O11  1  0.33742600  0.51885200  0.67622100  1
  O  O12  1  0.30650400  0.64033000  0.02282700  1
  O  O13  1  0.33367500  0.65512200  0.52429400  1
  O  O14  1  0.18015500  0.51087700  0.17533800  1
  O  O15  1  0.37933600  0.90859200  0.83005900  1
  O  O16  1  0.32218600  0.81102400  0.16444000  1
  O  O17  1  0.08742700  0.33902700  0.33627100  1
  O  O18  1  0.98897500  0.20109500  0.75716500  1
  O  O19  1  0.01136900  0.24077600  0.57772100  1
  O  O20  1  0.02243100  0.23012200  0.93512100  1
  O  O21  1  0.08821600  0.46940000  0.83126600  1
  O  O22  1  0.18778000  0.67174100  0.66832200  1
  O  O23  1  0.92326200  0.26269500  0.16373200  1
  O  O24  1  0.09845800  0.61902800  0.32141300  1
  O  O25  1  0.25221400  0.91659000  0.34200300  1
  O  O26  1  0.79906800  0.01287900  0.25681500  1
  O  O27  1  0.74697100  0.99336500  0.43621200  1
  O  O28  1  0.23984200  0.00004300  0.57103000  1
  O  O29  1  0.74579500  0.08417800  0.66004600  1
  O  O30  1  0.90298100  0.38031900  0.67869200  1
  O  O31  1  0.08064900  0.74238000  0.83203000  1
  O  O32  1  0.81550800  0.33868600  0.32208200  1
  O  O33  1  0.90109000  0.51883900  0.17088700  1
  O  O34  1  0.00201300  0.76519100  0.06990300  1
  O  O35  1  0.99754200  0.75365500  0.43119600  1
  O  O36  1  0.99732800  0.78794000  0.25060800  1
  O  O37  1  0.91506100  0.66295400  0.65560900  1
  O  O38  1  0.67457200  0.19339700  0.83020100  1
  O  O39  1  0.62808200  0.10002800  0.16671800  1
  O  O40  1  0.81462400  0.49169000  0.83580300  1
  O  O41  1  0.66263900  0.34086400  0.97826500  1
  O  O42  1  0.67787700  0.34659600  0.47492600  1
  O  O43  1  0.66689000  0.48663300  0.32588800  1
  O  O44  1  0.47703700  0.09371100  0.67934200  1
  O  O45  1  0.51565700  0.18773300  0.33108300  1
  O  O46  1  0.74326500  0.65572900  0.15722200  1
  O  O47  1  0.78691300  0.79508000  0.74164700  1
  O  O48  1  0.79731900  0.79058500  0.92138000  1
  O  O49  1  0.61811500  0.52006100  0.67772800  1
  O  O50  1  0.51819400  0.33373200  0.82710600  1
  O  O51  1  0.47570200  0.37098200  0.16813500  1
  O  O52  1  0.33810100  0.07832800  0.15958700  1
  O  O53  1  0.20864100  0.98191200  0.93316400  1
  O  O54  1  0.20717500  0.00290600  0.75118800  1
  O  O55  1  0.34089100  0.25585100  0.66080900  1
  O  O56  1  0.24324400  0.24492800  0.43574100  1
  O  O57  1  0.21780500  0.20122800  0.25960100  1
loop_
_geom_bond_atom_site_label_1
_geom_bond_atom_site_label_2
_geom_bond_distance
_geom_bond_site_symmetry_2
Li0 O27 1.915607 1_555
Li0 O0 1.985754 1_555
Li0 O29 2.005089 1_565
Li0 O9 2.230852 1_555
Li1 O19 1.879399 1_555
Li1 O56 1.951776 1_555
Li1 O55 2.080369 1_555
Li1 O11 2.312090 1_555
Li2 O7 1.933509 1_555
Li2 O20 1.953084 1_554
Li2 O23 2.153869 1_455
Li2 O14 2.219586 1_555
Li3 O53 1.965769 1_554
Li3 O34 1.980773 1_555
Li3 O52 2.079363 1_565
Li3 O16 2.154007 1_555
Li4 O28 1.970075 1_565
Li4 O37 2.020884 1_455
Li4 O35 2.029839 1_455
Li4 O22 2.222125 1_555
Li5 O48 1.932741 1_555
Li5 O34 2.070919 1_656
Li5 O40 2.097326 1_555
Li5 O31 2.099635 1_655
Li6 O41 1.846705 1_554
Li6 O51 2.199700 1_555
Li6 O39 2.254766 1_555
Li6 O33 2.322963 1_555
Li7 O0 1.950983 1_555
Li7 O35 1.989213 1_555
Li7 O1 2.045373 1_555
Li7 O43 2.270128 1_555
Li8 O56 1.963070 1_555
Li8 O28 1.987298 1_555
Li8 O25 2.065429 1_545
Li8 O45 2.315513 1_555
Li9 O2 1.970436 1_556
Li9 O20 2.075371 1_655
Li9 O48 2.217300 1_545
Li9 O7 2.513950 1_656
Li9 O53 2.659451 1_645
O0 P13 1.504722 1_555
O1 P1 1.537954 1_555
O1 V4 2.012802 1_555
O2 P8 1.481726 1_555
O3 P0 1.539951 1_555
O3 V2 1.881388 1_565
O4 P0 1.555974 1_555
O4 V5 1.890360 1_555
O5 P3 1.584017 1_555
O5 V4 1.840664 1_555
O6 P2 1.524828 1_555
O6 V4 1.925498 1_555
O7 P15 1.483974 1_555
O8 P5 1.568628 1_555
O8 V5 1.832552 1_555
O9 P4 1.566888 1_555
O9 V2 1.984871 1_565
O10 P1 1.574315 1_555
O10 V3 1.812434 1_555
O11 P4 1.591914 1_555
O11 V5 1.927740 1_555
O12 P3 1.488006 1_555
O13 P4 1.493228 1_555
O14 P3 1.592947 1_555
O14 V0 1.900766 1_555
O15 P7 1.528499 1_555
O15 V2 1.941394 1_565
O16 P3 1.555781 1_555
O16 V3 2.005870 1_555
O17 P2 1.564438 1_555
O17 V0 1.863657 1_555
O18 P5 1.599010 1_655
O18 P6 1.626454 1_555
O19 P6 1.477275 1_455
O20 P5 1.492377 1_555
O21 P5 1.525762 1_555
O21 V1 1.951250 1_555
O22 P4 1.582079 1_555
O22 V1 1.947922 1_555
O23 P8 1.579600 1_555
O23 V0 1.906087 1_655
O24 P9 1.549402 1_555
O24 V0 1.866425 1_555
O25 P9 1.546335 1_555
O25 V3 2.014081 1_555
O26 P1 1.608150 1_545
O26 P8 1.617311 1_555
O27 P1 1.480853 1_555
O28 P14 1.508949 1_555
O29 P6 1.545080 1_555
O29 V2 1.999838 1_555
O30 P6 1.561006 1_555
O30 V1 1.846075 1_655
O31 P7 1.564356 1_555
O31 V1 1.914011 1_555
O32 P11 1.607191 1_555
O32 V0 1.831273 1_655
O33 P10 1.554761 1_555
O33 V0 2.009767 1_655
O34 P10 1.505184 1_455
O35 P9 1.505364 1_655
O36 P9 1.604916 1_655
O36 P10 1.629872 1_555
O37 P13 1.545306 1_555
O37 V1 2.017300 1_655
O38 P12 1.538770 1_555
O38 V2 1.946123 1_555
O39 P8 1.553298 1_555
O39 V3 2.029799 1_545
O40 P12 1.558593 1_555
O40 V1 2.019925 1_655
O41 P12 1.496045 1_555
O42 P11 1.484079 1_555
O43 P11 1.570662 1_555
O43 V4 1.972841 1_555
O44 P14 1.537763 1_555
O44 V2 1.891519 1_555
O45 P11 1.573940 1_555
O45 V3 1.966187 1_545
O46 P10 1.526533 1_555
O46 V4 1.946954 1_555
O47 P13 1.607550 1_555
O47 P0 1.619078 1_555
O48 P0 1.493601 1_555
O49 P13 1.540485 1_555
O49 V5 1.899621 1_555
O50 P12 1.605306 1_555
O50 V5 1.828673 1_555
O51 P15 1.555167 1_555
O51 V4 1.987534 1_555
O52 P15 1.564289 1_555
O52 V3 1.956216 1_545
O53 P7 1.489045 1_555
O54 P14 1.609574 1_555
O54 P7 1.630143 1_545
O55 P14 1.550170 1_555
O55 V5 2.008330 1_555
O56 P2 1.497111 1_555
O57 P2 1.609603 1_555
O57 P15 1.620013 1_555
