# generated using pymatgen
data_Fe2HgO4
_symmetry_space_group_name_H-M   'P 1'
_cell_length_a   6.30779190
_cell_length_b   6.29627090
_cell_length_c   6.31162133
_cell_angle_alpha   60.04554120
_cell_angle_beta   120.17705684
_cell_angle_gamma   119.89348308
_symmetry_Int_Tables_number   1
_chemical_formula_structural   Fe2HgO4
_chemical_formula_sum   'Fe4 Hg2 O8'
_cell_volume   177.21429386
_cell_formula_units_Z   2
loop_
 _symmetry_equiv_pos_site_id
 _symmetry_equiv_pos_as_xyz
  1  'x, y, z'
loop_
 _atom_site_type_symbol
 _atom_site_label
 _atom_site_symmetry_multiplicity
 _atom_site_fract_x
 _atom_site_fract_y
 _atom_site_fract_z
 _atom_site_occupancy
  Fe  Fe0  1  0.00007600  0.50021400  0.99975000  1
  Fe  Fe1  1  0.50017600  0.50019800  0.49993000  1
  Fe  Fe2  1  0.99998300  0.99981500  0.49996100  1
  Fe  Fe3  1  0.99977400  0.49983400  0.50016200  1
  Hg  Hg0  1  0.37491100  0.12492300  0.12511500  1
  Hg  Hg1  1  0.62495000  0.87496600  0.87508000  1
  O  O0  1  0.80978200  0.27049100  0.26873500  1
  O  O1  1  0.23128200  0.27050100  0.69024100  1
  O  O2  1  0.22949300  0.26886000  0.27048800  1
  O  O3  1  0.22950000  0.69016900  0.27053800  1
  O  O4  1  0.77056300  0.30984500  0.72946400  1
  O  O5  1  0.77056800  0.73131800  0.72943700  1
  O  O6  1  0.19014100  0.72944800  0.73121000  1
  O  O7  1  0.76880100  0.72941700  0.30988900  1
loop_
_geom_bond_atom_site_label_1
_geom_bond_atom_site_label_2
_geom_bond_distance
_geom_bond_site_symmetry_2
Fe0 O5 2.064314 1_455
Fe0 O2 2.065287 1_556
Fe0 O6 2.066014 1_555
Fe0 O4 2.066921 1_455
Fe0 O3 2.067666 1_556
Fe0 O0 2.069088 1_456
Fe1 O3 2.064712 1_555
Fe1 O4 2.064861 1_555
Fe1 O7 2.066328 1_555
Fe1 O5 2.066919 1_555
Fe1 O2 2.067764 1_555
Fe1 O1 2.068722 1_555
Fe2 O6 2.064202 1_655
Fe2 O0 2.065856 1_565
Fe2 O7 2.066486 1_555
Fe2 O5 2.067191 1_555
Fe2 O2 2.067978 1_665
Fe2 O1 2.068707 1_665
Fe3 O7 2.064225 1_555
Fe3 O4 2.065616 1_555
Fe3 O1 2.065752 1_655
Fe3 O6 2.067142 1_655
Fe3 O0 2.067958 1_555
Fe3 O3 2.069387 1_655
Hg0 O2 2.238237 1_555
Hg0 O0 2.238307 1_555
Hg0 O1 2.238310 1_554
Hg0 O3 2.238625 1_545
Hg1 O7 2.237964 1_556
Hg1 O6 2.237977 1_555
Hg1 O5 2.239182 1_555
Hg1 O4 2.239281 1_565
