# generated using pymatgen
data_Sr(ZnGe)2
_symmetry_space_group_name_H-M   'P 1'
_cell_length_a   4.38984920
_cell_length_b   4.38984912
_cell_length_c   6.10976571
_cell_angle_alpha   111.05405474
_cell_angle_beta   111.05405448
_cell_angle_gamma   89.99999919
_symmetry_Int_Tables_number   1
_chemical_formula_structural   Sr(ZnGe)2
_chemical_formula_sum   'Sr1 Zn2 Ge2'
_cell_volume   101.41235342
_cell_formula_units_Z   1
loop_
 _symmetry_equiv_pos_site_id
 _symmetry_equiv_pos_as_xyz
  1  'x, y, z'
loop_
 _atom_site_type_symbol
 _atom_site_label
 _atom_site_symmetry_multiplicity
 _atom_site_fract_x
 _atom_site_fract_y
 _atom_site_fract_z
 _atom_site_occupancy
  Sr  Sr0  1  -0.00000000  -0.00000000  -0.00000000  1
  Zn  Zn0  1  0.75000000  0.25000000  0.50000000  1
  Zn  Zn1  1  0.25000000  0.75000000  0.50000000  1
  Ge  Ge0  1  0.62041523  0.62041523  0.24082946  1
  Ge  Ge1  1  0.37958477  0.37958477  0.75917054  1
loop_
_geom_bond_atom_site_label_1
_geom_bond_atom_site_label_2
_geom_bond_distance
_geom_bond_site_symmetry_2
Sr0 Zn1 3.426537 1_545
Sr0 Zn0 3.426537 1_454
Sr0 Zn0 3.426537 1_455
Sr0 Zn1 3.426537 1_544
Sr0 Zn0 3.426537 1_444
Sr0 Zn1 3.426537 1_555
Sr0 Zn1 3.426537 1_444
Sr0 Zn0 3.426537 1_555
Ge0 Ge1 2.534727 1_554
Ge0 Zn0 2.584156 1_565
Ge0 Zn1 2.584156 1_655
Ge0 Zn0 2.584160 1_555
Ge0 Zn1 2.584160 1_555
Ge0 Sr0 3.352846 1_665
Ge0 Sr0 3.352849 1_655
Ge0 Sr0 3.352849 1_565
Ge0 Sr0 3.352852 1_555
Ge1 Zn1 2.584156 1_545
Ge1 Zn0 2.584156 1_455
Ge1 Zn1 2.584160 1_555
Ge1 Zn0 2.584160 1_555
Ge1 Sr0 3.352846 1_556
Ge1 Sr0 3.352849 1_566
Ge1 Sr0 3.352849 1_656
Ge1 Sr0 3.352852 1_666
