# generated using pymatgen
data_Na2Li5Ti3Fe(PO4)6
_symmetry_space_group_name_H-M   'P 1'
_cell_length_a   9.00900926
_cell_length_b   9.01936739
_cell_length_c   8.98353646
_cell_angle_alpha   57.24967217
_cell_angle_beta   57.19882098
_cell_angle_gamma   57.13371630
_symmetry_Int_Tables_number   1
_chemical_formula_structural   Na2Li5Ti3Fe(PO4)6
_chemical_formula_sum   'Na2 Li5 Ti3 Fe1 P6 O24'
_cell_volume   482.79778954
_cell_formula_units_Z   1
loop_
 _symmetry_equiv_pos_site_id
 _symmetry_equiv_pos_as_xyz
  1  'x, y, z'
loop_
 _atom_site_type_symbol
 _atom_site_label
 _atom_site_symmetry_multiplicity
 _atom_site_fract_x
 _atom_site_fract_y
 _atom_site_fract_z
 _atom_site_occupancy
  Na  Na0  1  0.02154100  0.99151000  0.97352800  1
  Na  Na1  1  0.49321500  0.50485400  0.49927600  1
  Li  Li0  1  0.34372200  0.71294700  0.10283500  1
  Li  Li1  1  0.11172000  0.34323000  0.70665300  1
  Li  Li2  1  0.89835500  0.65319600  0.28372400  1
  Li  Li3  1  0.65140500  0.28567100  0.89940300  1
  Li  Li4  1  0.71139300  0.10649200  0.34087800  1
  Ti  Ti0  1  0.14599100  0.14530600  0.15021800  1
  Ti  Ti1  1  0.63456200  0.66197400  0.65306400  1
  Ti  Ti2  1  0.85334900  0.85581300  0.84906500  1
  Fe  Fe0  1  0.34480400  0.34449400  0.34754000  1
  P  P0  1  0.03949300  0.75485400  0.45422700  1
  P  P1  1  0.54881400  0.95560800  0.24431300  1
  P  P2  1  0.23910900  0.54872900  0.95949000  1
  P  P3  1  0.75148700  0.45746400  0.03974100  1
  P  P4  1  0.45637400  0.04031000  0.75801700  1
  P  P5  1  0.95399800  0.25033000  0.54718600  1
  O  O0  1  0.99534700  0.82336800  0.60062400  1
  O  O1  1  0.12472800  0.88158700  0.24706800  1
  O  O2  1  0.10929100  0.74628300  0.87136500  1
  O  O3  1  0.39473800  0.99164700  0.19026200  1
  O  O4  1  0.46422800  0.84379300  0.79878500  1
  O  O5  1  0.18510600  0.55143900  0.48927900  1
  O  O6  1  0.52584200  0.80619300  0.44622600  1
  O  O7  1  0.21128900  0.55545800  0.14398600  1
  O  O8  1  0.18900900  0.38891400  0.00151400  1
  O  O9  1  0.75393300  0.86982800  0.11467700  1
  O  O10  1  0.13274500  0.23787900  0.54554100  1
  O  O11  1  0.44764200  0.51306100  0.81896400  1
  O  O12  1  0.54679100  0.48916500  0.18440300  1
  O  O13  1  0.85158700  0.77730900  0.45884100  1
  O  O14  1  0.24914600  0.13133900  0.87902900  1
  O  O15  1  0.81480100  0.60649200  0.99825700  1
  O  O16  1  0.77171500  0.46218100  0.85203900  1
  O  O17  1  0.49328000  0.17571800  0.55027900  1
  O  O18  1  0.80554300  0.45614200  0.51564000  1
  O  O19  1  0.54912500  0.14220100  0.21676800  1
  O  O20  1  0.60188000  0.00869300  0.82142100  1
  O  O21  1  0.87929000  0.25120500  0.12418900  1
  O  O22  1  0.86499600  0.12373500  0.75210600  1
  O  O23  1  0.99061500  0.19228800  0.39548200  1
loop_
_geom_bond_atom_site_label_1
_geom_bond_atom_site_label_2
_geom_bond_distance
_geom_bond_site_symmetry_2
Na0 O2 2.423174 1_555
Na0 O22 2.452604 1_465
Na0 O14 2.505620 1_565
Na0 O9 2.584309 1_456
Na0 O1 2.593152 1_556
Na0 O21 2.693199 1_466
Na1 O5 2.617796 1_555
Na1 O6 2.648453 1_555
Na1 O12 2.670971 1_555
Na1 O18 2.677394 1_555
Na1 O11 2.709525 1_555
Na1 O17 2.747593 1_555
Li0 O12 1.949917 1_555
Li0 O1 1.997618 1_555
Li0 O7 2.090736 1_555
Li0 O4 2.173063 1_554
Li1 O5 1.938570 1_555
Li1 O14 1.972389 1_555
Li1 O10 2.007290 1_555
Li1 O16 2.419558 1_455
Li2 O18 1.979333 1_555
Li2 O9 1.996983 1_555
Li2 O13 2.140282 1_555
Li2 O7 2.228570 1_655
Li3 O11 1.961050 1_555
Li3 O22 1.966952 1_555
Li3 O16 2.128513 1_555
Li3 O19 2.260134 1_556
Li4 O17 1.929779 1_555
Li4 O21 1.996118 1_555
Li4 O19 2.085737 1_555
Li4 O13 2.347174 1_545
Fe0 O10 2.049364 1_555
Fe0 O19 2.104387 1_555
Fe0 O7 2.132047 1_555
Fe0 O12 2.186416 1_555
Fe0 O5 2.201621 1_555
Fe0 O17 2.203057 1_555
O0 P0 1.521696 1_655
O0 Ti2 1.977460 1_555
O1 P0 1.569195 1_555
O1 Ti0 2.127481 1_565
O2 P2 1.544204 1_555
O2 Ti2 2.036355 1_455
O3 P1 1.529037 1_555
O3 Ti0 2.008781 1_565
O4 P4 1.571737 1_565
O4 Ti1 2.042721 1_555
O5 P0 1.548012 1_555
O6 P1 1.549299 1_555
O6 Ti1 2.019395 1_555
O7 P2 1.567106 1_554
O8 P2 1.535155 1_554
O8 Ti0 1.987448 1_555
O9 P1 1.568797 1_555
O9 Ti2 2.097568 1_554
O10 P5 1.544584 1_455
O11 P2 1.562200 1_555
O11 Ti1 2.104925 1_555
O12 P3 1.550672 1_555
O13 P0 1.571435 1_655
O13 Ti1 2.120565 1_555
O14 P4 1.563470 1_555
O14 Ti0 2.136998 1_556
O15 P3 1.526693 1_556
O15 Ti2 2.013966 1_555
O16 P3 1.573610 1_556
O16 Ti1 2.111958 1_555
O17 P4 1.545101 1_555
O18 P5 1.568996 1_555
O18 Ti1 2.158470 1_555
O19 P1 1.564401 1_545
O20 P4 1.533501 1_555
O20 Ti2 1.985949 1_545
O21 P3 1.567365 1_555
O21 Ti0 2.148544 1_655
O22 P5 1.567086 1_555
O22 Ti2 2.123192 1_545
O23 P5 1.528920 1_555
O23 Ti0 2.004613 1_655
