# generated using pymatgen
data_Na2Ti3Fe(PO4)6
_symmetry_space_group_name_H-M   'P 1'
_cell_length_a   8.93107501
_cell_length_b   8.93107501
_cell_length_c   8.93107422
_cell_angle_alpha   56.97524329
_cell_angle_beta   56.97524329
_cell_angle_gamma   56.97524464
_symmetry_Int_Tables_number   1
_chemical_formula_structural   Na2Ti3Fe(PO4)6
_chemical_formula_sum   'Na2 Ti3 Fe1 P6 O24'
_cell_volume   468.59181715
_cell_formula_units_Z   1
loop_
 _symmetry_equiv_pos_site_id
 _symmetry_equiv_pos_as_xyz
  1  'x, y, z'
loop_
 _atom_site_type_symbol
 _atom_site_label
 _atom_site_symmetry_multiplicity
 _atom_site_fract_x
 _atom_site_fract_y
 _atom_site_fract_z
 _atom_site_occupancy
  Na  Na0  1  0.99983300  0.99983300  0.99983300  1
  Na  Na1  1  0.50278100  0.50278100  0.50278100  1
  Ti  Ti0  1  0.85495100  0.85495100  0.85495100  1
  Ti  Ti1  1  0.35315100  0.35315100  0.35315100  1
  Ti  Ti2  1  0.14554200  0.14554200  0.14554200  1
  Fe  Fe0  1  0.64705800  0.64705800  0.64705800  1
  P  P0  1  0.96336000  0.25057600  0.53631100  1
  P  P1  1  0.46214100  0.03339700  0.75313100  1
  P  P2  1  0.75313100  0.46214100  0.03339700  1
  P  P3  1  0.25057600  0.53631100  0.96336000  1
  P  P4  1  0.53631100  0.96336000  0.25057600  1
  P  P5  1  0.03339700  0.75313100  0.46214100  1
  O  O0  1  0.00521400  0.19582100  0.37670400  1
  O  O1  1  0.90563700  0.09581300  0.73099300  1
  O  O2  1  0.90522800  0.26664500  0.10055000  1
  O  O3  1  0.62407200  0.99858900  0.80019000  1
  O  O4  1  0.50987600  0.14741800  0.25565700  1
  O  O5  1  0.80167200  0.44602300  0.52157300  1
  O  O6  1  0.46486600  0.19841900  0.55815200  1
  O  O7  1  0.76001600  0.47779000  0.85085100  1
  O  O8  1  0.80019000  0.62407200  0.99858900  1
  O  O9  1  0.26664500  0.10055000  0.90522800  1
  O  O10  1  0.85085100  0.76001600  0.47779000  1
  O  O11  1  0.55815200  0.46486600  0.19841900  1
  O  O12  1  0.44602300  0.52157300  0.80167200  1
  O  O13  1  0.14741800  0.25565700  0.50987600  1
  O  O14  1  0.73099300  0.90563700  0.09581300  1
  O  O15  1  0.19582100  0.37670400  0.00521400  1
  O  O16  1  0.25565700  0.50987600  0.14741800  1
  O  O17  1  0.52157300  0.80167200  0.44602300  1
  O  O18  1  0.19841900  0.55815200  0.46486600  1
  O  O19  1  0.47779000  0.85085100  0.76001600  1
  O  O20  1  0.37670400  0.00521400  0.19582100  1
  O  O21  1  0.09581300  0.73099300  0.90563700  1
  O  O22  1  0.10055000  0.90522800  0.26664500  1
  O  O23  1  0.99858900  0.80019000  0.62407200  1
loop_
_geom_bond_atom_site_label_1
_geom_bond_atom_site_label_2
_geom_bond_distance
_geom_bond_site_symmetry_2
Na0 O1 2.525814 1_565
Na0 O21 2.525814 1_655
Na0 O14 2.525814 1_556
Na0 O22 2.552386 1_656
Na0 O2 2.552386 1_566
Na0 O9 2.552386 1_665
Na1 O12 2.516263 1_555
Na1 O5 2.516263 1_555
Na1 O17 2.516263 1_555
Na1 O11 2.665297 1_555
Na1 O18 2.665298 1_555
Na1 O6 2.665298 1_555
Fe0 O7 1.988910 1_555
Fe0 O19 1.988910 1_555
Fe0 O10 1.988910 1_555
Fe0 O17 2.047070 1_555
Fe0 O5 2.047070 1_555
Fe0 O12 2.047070 1_555
O0 P0 1.546152 1_455
O0 Ti2 1.900365 1_555
O1 P0 1.542561 1_555
O1 Ti0 1.994329 1_545
O2 P2 1.553969 1_555
O2 Ti2 1.968188 1_655
O3 P1 1.547544 1_565
O3 Ti0 1.915406 1_555
O4 P4 1.551322 1_545
O4 Ti1 1.924981 1_555
O5 P0 1.535828 1_555
O6 P1 1.549375 1_555
O6 Ti1 1.996924 1_555
O7 P2 1.527424 1_556
O8 P2 1.547544 1_556
O8 Ti0 1.915406 1_555
O9 P1 1.553969 1_555
O9 Ti2 1.968187 1_556
O10 P5 1.527424 1_655
O11 P2 1.549375 1_555
O11 Ti1 1.996924 1_555
O12 P3 1.535828 1_555
O13 P0 1.551322 1_455
O13 Ti1 1.924981 1_555
O14 P4 1.542561 1_555
O14 Ti0 1.994329 1_554
O15 P3 1.546152 1_554
O15 Ti2 1.900365 1_555
O16 P3 1.551321 1_554
O16 Ti1 1.924981 1_555
O17 P4 1.535827 1_555
O18 P5 1.549375 1_555
O18 Ti1 1.996924 1_555
O19 P1 1.527424 1_565
O20 P4 1.546152 1_545
O20 Ti2 1.900365 1_555
O21 P3 1.542562 1_555
O21 Ti0 1.994329 1_455
O22 P5 1.553969 1_555
O22 Ti2 1.968188 1_565
O23 P5 1.547544 1_655
O23 Ti0 1.915406 1_555
