# generated using pymatgen
data_Li3(CoO2)4
_symmetry_space_group_name_H-M   'P 1'
_cell_length_a   5.80301056
_cell_length_b   5.68327225
_cell_length_c   5.87235919
_cell_angle_alpha   120.45107368
_cell_angle_beta   60.26881008
_cell_angle_gamma   92.08755613
_symmetry_Int_Tables_number   1
_chemical_formula_structural   Li3(CoO2)4
_chemical_formula_sum   'Li3 Co4 O8'
_cell_volume   138.87533283
_cell_formula_units_Z   1
loop_
 _symmetry_equiv_pos_site_id
 _symmetry_equiv_pos_as_xyz
  1  'x, y, z'
loop_
 _atom_site_type_symbol
 _atom_site_label
 _atom_site_symmetry_multiplicity
 _atom_site_fract_x
 _atom_site_fract_y
 _atom_site_fract_z
 _atom_site_occupancy
  Li  Li0  1  0.99738400  0.50186600  0.00401300  1
  Li  Li1  1  0.49861100  0.00238000  0.00420200  1
  Li  Li2  1  0.49101300  0.50932100  0.51791600  1
  Co  Co0  1  0.99947600  0.00063000  0.50107500  1
  Co  Co1  1  0.99773900  0.00212300  0.00288700  1
  Co  Co2  1  0.99905900  0.50089700  0.50181700  1
  Co  Co3  1  0.49941600  0.50082500  0.00324800  1
  O  O0  1  0.21126900  0.26299600  0.50256800  1
  O  O1  1  0.21186200  0.27027200  0.05542400  1
  O  O2  1  0.22194700  0.76001400  0.50876600  1
  O  O3  1  0.22180200  0.77672400  0.04997800  1
  O  O4  1  0.77822400  0.22337800  0.94980700  1
  O  O5  1  0.77618700  0.24179600  0.49471300  1
  O  O6  1  0.78610800  0.73176500  0.94823100  1
  O  O7  1  0.78698900  0.73883600  0.50082700  1
loop_
_geom_bond_atom_site_label_1
_geom_bond_atom_site_label_2
_geom_bond_distance
_geom_bond_site_symmetry_2
Li0 O4 1.991987 1_554
Li0 O3 1.995508 1_655
Li0 O6 2.065549 1_554
Li0 O1 2.065782 1_655
Li0 O7 2.102434 1_555
Li0 O0 2.121377 1_654
Li1 O4 2.014068 1_554
Li1 O3 2.017008 1_545
Li1 O6 2.094625 1_544
Li1 O1 2.097938 1_555
Li1 O0 2.117808 1_555
Li1 O7 2.137799 1_544
Li2 O0 2.110660 1_555
Li2 O7 2.111873 1_555
Li2 O2 2.189440 1_555
Li2 O5 2.195106 1_555
Li2 O3 2.242992 1_556
Li2 O4 2.394906 1_554
Co0 O4 1.891103 1_555
Co0 O0 1.896814 1_655
Co0 O7 1.897384 1_545
Co0 O3 1.901065 1_645
Co0 O2 1.946226 1_645
Co0 O5 1.946340 1_555
Co1 O6 1.930219 1_544
Co1 O1 1.930624 1_655
Co1 O4 2.051549 1_554
Co1 O3 2.060367 1_645
Co1 O5 2.075303 1_555
Co1 O2 2.084384 1_644
Co2 O0 1.864750 1_655
Co2 O7 1.865332 1_555
Co2 O1 1.881244 1_655
Co2 O6 1.881344 1_555
Co2 O5 1.922321 1_555
Co2 O2 1.922479 1_655
Co3 O6 2.081453 1_554
Co3 O1 2.082250 1_555
Co3 O4 2.093600 1_554
Co3 O3 2.106816 1_555
Co3 O2 2.138787 1_555
Co3 O5 2.150271 1_554
