# generated using pymatgen
data_Li5V3P8O29
_symmetry_space_group_name_H-M   'P 1'
_cell_length_a   9.76095743
_cell_length_b   9.78640856
_cell_length_c   14.12276677
_cell_angle_alpha   90.18456732
_cell_angle_beta   90.05871767
_cell_angle_gamma   60.22989633
_symmetry_Int_Tables_number   1
_chemical_formula_structural   Li5V3P8O29
_chemical_formula_sum   'Li10 V6 P16 O58'
_cell_volume   1171.02255096
_cell_formula_units_Z   2
loop_
 _symmetry_equiv_pos_site_id
 _symmetry_equiv_pos_as_xyz
  1  'x, y, z'
loop_
 _atom_site_type_symbol
 _atom_site_label
 _atom_site_symmetry_multiplicity
 _atom_site_fract_x
 _atom_site_fract_y
 _atom_site_fract_z
 _atom_site_occupancy
  Li  Li0  1  0.76641611  0.90510610  0.55637688  1
  Li  Li1  1  0.89273726  0.35421877  0.55940257  1
  Li  Li2  1  0.76396065  0.32906284  0.05983629  1
  Li  Li3  1  0.32990927  0.90537043  0.06355274  1
  Li  Li4  1  0.32281365  0.77181815  0.56267674  1
  Li  Li5  1  0.68973131  0.08064270  0.93911305  1
  Li  Li6  1  0.33086310  0.33919049  0.10461108  1
  Li  Li7  1  0.09946796  0.66851267  0.44042798  1
  Li  Li8  1  0.04263696  0.93679544  0.99746269  1
  Li  Li9  1  0.99187807  0.04936290  0.50146833  1
  V  V0  1  0.56181665  0.43691670  0.25214618  1
  V  V1  1  0.43525571  0.56515886  0.74506475  1
  V  V2  1  0.56257752  0.99903670  0.74879789  1
  V  V3  1  0.43365589  0.00521532  0.25354148  1
  V  V4  1  0.99323158  0.56831855  0.24569411  1
  V  V5  1  0.00081176  0.43290749  0.75890155  1
  P  P0  1  0.91813226  0.77964596  0.83958438  1
  P  P1  1  0.77671639  0.91470750  0.33960140  1
  P  P2  1  0.91356807  0.31336983  0.34538723  1
  P  P3  1  0.66026539  0.66939930  0.12915681  1
  P  P4  1  0.67559148  0.66180179  0.63055109  1
  P  P5  1  0.76993210  0.31601037  0.84466607  1
  P  P6  1  0.69649873  0.22046266  0.66112240  1
  P  P7  1  0.31292977  0.91052529  0.84357793  1
  P  P8  1  0.68651435  0.09048094  0.15551147  1
  P  P9  1  0.31322566  0.77368531  0.34557496  1
  P  P10  1  0.21791716  0.69008349  0.16330963  1
  P  P11  1  0.32746173  0.34097833  0.36621063  1
  P  P12  1  0.33678360  0.33416008  0.86631978  1
  P  P13  1  0.08625021  0.68009038  0.65532456  1
  P  P14  1  0.21347220  0.08868983  0.66367705  1
  P  P15  1  0.08555030  0.22047693  0.16226453  1
  O  O0  1  -0.00017702  0.75867780  0.56514064  1
  O  O1  1  0.92124959  0.74235455  0.33286023  1
  O  O2  1  0.76959698  0.00553833  0.06726161  1
  O  O3  1  0.74449348  0.91608242  0.83648643  1
  O  O4  1  0.92252575  0.61805425  0.83062636  1
  O  O5  1  0.81068489  0.66328978  0.17784539  1
  O  O6  1  0.91880413  0.46792594  0.32556153  1
  O  O7  1  0.98464228  0.22129454  0.08318573  1
  O  O8  1  0.91750668  0.33809283  0.83823471  1
  O  O9  1  0.67775542  0.81206410  0.66606944  1
  O  O10  1  0.62231925  0.90942522  0.32966221  1
  O  O11  1  0.81207904  0.51595685  0.68599919  1
  O  O12  1  0.66751655  0.66565647  0.02429262  1
  O  O13  1  0.71160554  0.63199640  0.52684027  1
  O  O14  1  0.65852914  0.52106866  0.16947544  1
  O  O15  1  0.46998342  0.91158854  0.82678094  1
  O  O16  1  0.51423614  0.82148587  0.16942976  1
  O  O17  1  0.74730508  0.34134061  0.33157588  1
  O  O18  1  0.79062201  0.19693093  0.75962428  1
  O  O19  1  0.80420541  0.20747555  0.58180998  1
  O  O20  1  0.77144339  0.23330106  0.93472451  1
  O  O21  1  0.62072697  0.47277307  0.82751273  1
  O  O22  1  0.51471739  0.67473346  0.65936919  1
  O  O23  1  0.66271722  0.25886413  0.15794351  1
  O  O24  1  0.47081236  0.61982992  0.33175385  1
  O  O25  1  0.33477417  0.91644906  0.33467458  1
  O  O26  1  0.79355468  0.00223190  0.24776881  1
  O  O27  1  0.79268091  0.98669179  0.42973734  1
  O  O28  1  0.19062652  0.99862501  0.58462695  1
  O  O29  1  0.65928744  0.08323404  0.65968815  1
  O  O30  1  0.54203562  0.37969280  0.66881403  1
  O  O31  1  0.34290745  0.74264494  0.82312208  1
  O  O32  1  0.47801143  0.33430014  0.32102075  1
  O  O33  1  0.36971047  0.52689697  0.16681886  1
  O  O34  1  0.20995932  0.79617593  0.08512775  1
  O  O35  1  0.22949357  0.77595619  0.43628535  1
  O  O36  1  0.19624871  0.78138792  0.26159502  1
  O  O37  1  0.25448550  0.65740929  0.65404653  1
  O  O38  1  0.48931690  0.18376958  0.83012039  1
  O  O39  1  0.52082602  0.10620483  0.17000635  1
  O  O40  1  0.32958195  0.47949494  0.81994344  1
  O  O41  1  0.33385608  0.33428073  0.97240988  1
  O  O42  1  0.31599826  0.35838425  0.47056129  1
  O  O43  1  0.18265480  0.48952995  0.31947319  1
  O  O44  1  0.37412840  0.08056600  0.66821069  1
  O  O45  1  0.32927799  0.19051226  0.32443008  1
  O  O46  1  0.07620296  0.65865543  0.16107875  1
  O  O47  1  0.99465215  0.79722544  0.74170284  1
  O  O48  1  0.00391645  0.79526697  0.92159422  1
  O  O49  1  0.08855698  0.52433085  0.67582944  1
  O  O50  1  0.18847857  0.32744391  0.82463030  1
  O  O51  1  0.09502775  0.37649336  0.17108978  1
  O  O52  1  0.25638399  0.08305250  0.15671327  1
  O  O53  1  0.23932352  0.96929043  0.93837835  1
  O  O54  1  0.19188730  0.01932854  0.76352759  1
  O  O55  1  0.07498767  0.26229430  0.66459745  1
  O  O56  1  0.98316768  0.24088256  0.43894778  1
  O  O57  1  0.02108383  0.19660287  0.26230006  1
loop_
_geom_bond_atom_site_label_1
_geom_bond_atom_site_label_2
_geom_bond_distance
_geom_bond_site_symmetry_2
Li0 O0 2.004460 1_655
Li0 O27 2.028635 1_555
Li0 O29 2.106577 1_565
Li0 O9 2.184558 1_555
Li1 O56 1.980400 1_555
Li1 O19 2.035956 1_555
Li1 O55 2.143603 1_655
Li1 O11 2.251429 1_555
Li1 O13 2.441492 1_555
Li2 O7 1.898901 1_555
Li2 O20 1.981731 1_554
Li2 O23 2.012815 1_555
Li2 O14 2.247595 1_555
Li3 O53 1.937248 1_554
Li3 O34 1.962377 1_555
Li3 O52 2.004416 1_565
Li3 O16 2.163925 1_555
Li4 O28 1.959599 1_555
Li4 O35 1.994512 1_555
Li4 O37 2.028838 1_555
Li4 O22 2.124149 1_555
Li5 O2 1.964702 1_556
Li5 O20 2.013937 1_555
Li5 O3 2.027724 1_545
Li5 O38 2.293047 1_555
Li6 O41 1.867395 1_554
Li6 O33 2.229512 1_555
Li6 O39 2.302521 1_555
Li6 O51 2.341270 1_555
Li7 O0 1.991981 1_555
Li7 O35 2.011376 1_555
Li7 O1 2.146973 1_455
Li7 O43 2.283990 1_555
Li8 O48 1.928400 1_555
Li8 O34 1.966967 1_556
Li8 O53 2.257101 1_555
Li8 O2 2.597663 1_466
Li9 O56 2.037664 1_555
Li9 O19 2.053189 1_555
Li9 O28 2.105197 1_645
Li9 O27 2.521729 1_545
O0 P13 1.511676 1_555
O1 P1 1.574989 1_555
O1 V4 1.926097 1_555
O2 P8 1.492644 1_555
O3 P0 1.552508 1_555
O3 V2 1.978936 1_555
O4 P0 1.565265 1_555
O4 V5 1.872932 1_655
O5 P3 1.594721 1_555
O5 V4 1.820605 1_555
O6 P2 1.564717 1_555
O6 V4 1.866261 1_555
O7 P15 1.485750 1_655
O8 P5 1.561867 1_555
O8 V5 1.880241 1_655
O9 P4 1.562239 1_555
O9 V2 1.980710 1_555
O10 P1 1.539643 1_555
O10 V3 1.927139 1_565
O11 P4 1.594384 1_555
O11 V5 1.904996 1_655
O12 P3 1.482202 1_555
O13 P4 1.500144 1_555
O14 P3 1.568918 1_555
O14 V0 1.926915 1_555
O15 P7 1.556616 1_555
O15 V2 1.881069 1_555
O16 P3 1.568422 1_555
O16 V3 1.961243 1_565
O17 P2 1.518316 1_555
O17 V0 1.931890 1_555
O18 P5 1.612166 1_555
O18 P6 1.619153 1_555
O19 P6 1.498293 1_555
O20 P5 1.505919 1_555
O21 P5 1.521924 1_555
O21 V1 1.956467 1_555
O22 P4 1.565595 1_555
O22 V1 2.013073 1_555
O23 P8 1.546009 1_555
O23 V0 2.014893 1_555
O24 P9 1.539495 1_555
O24 V0 1.915057 1_555
O25 P9 1.520929 1_555
O25 V3 1.959702 1_565
O26 P1 1.609383 1_545
O26 P8 1.625894 1_555
O27 P1 1.497944 1_555
O28 P14 1.503765 1_565
O29 P6 1.555676 1_555
O29 V2 1.983773 1_545
O30 P6 1.542530 1_555
O30 V1 1.910883 1_555
O31 P7 1.545337 1_555
O31 V1 1.865391 1_555
O32 P11 1.573949 1_555
O32 V0 1.856749 1_555
O33 P10 1.548804 1_555
O33 V0 2.026381 1_555
O34 P10 1.493413 1_555
O35 P9 1.514456 1_555
O36 P10 1.604620 1_555
O36 P9 1.621234 1_555
O37 P13 1.544112 1_555
O37 V1 2.000433 1_555
O38 P12 1.570002 1_555
O38 V2 1.950208 1_545
O39 P8 1.560291 1_555
O39 V3 1.984239 1_555
O40 P12 1.537366 1_555
O40 V1 1.936935 1_555
O41 P12 1.498573 1_555
O42 P11 1.480939 1_555
O43 P11 1.584531 1_555
O43 V4 1.919464 1_455
O44 P14 1.531523 1_555
O44 V2 1.964583 1_545
O45 P11 1.576485 1_555
O45 V3 1.866655 1_555
O46 P10 1.559279 1_555
O46 V4 1.893496 1_455
O47 P13 1.605322 1_655
O47 P0 1.621615 1_555
O48 P0 1.479841 1_455
O49 P13 1.541650 1_555
O49 V5 1.918399 1_555
O50 P12 1.593425 1_555
O50 V5 1.845989 1_555
O51 P15 1.579351 1_555
O51 V4 1.938725 1_455
O52 P15 1.538838 1_555
O52 V3 2.034036 1_555
O53 P7 1.492024 1_555
O54 P7 1.601104 1_545
O54 P14 1.625583 1_555
O55 P14 1.559861 1_555
O55 V5 1.968000 1_555
O56 P2 1.495429 1_555
O57 P2 1.608443 1_455
O57 P15 1.611347 1_555
