# generated using pymatgen
data_Li32Mn3Cr13O48
_symmetry_space_group_name_H-M   'P 1'
_cell_length_a   5.01830900
_cell_length_b   8.74955660
_cell_length_c   19.50341578
_cell_angle_alpha   82.12576657
_cell_angle_beta   85.42048871
_cell_angle_gamma   89.28797842
_symmetry_Int_Tables_number   1
_chemical_formula_structural   Li32Mn3Cr13O48
_chemical_formula_sum   'Li32 Mn3 Cr13 O48'
_cell_volume   845.57203186
_cell_formula_units_Z   1
loop_
 _symmetry_equiv_pos_site_id
 _symmetry_equiv_pos_as_xyz
  1  'x, y, z'
loop_
 _atom_site_type_symbol
 _atom_site_label
 _atom_site_symmetry_multiplicity
 _atom_site_fract_x
 _atom_site_fract_y
 _atom_site_fract_z
 _atom_site_occupancy
  Li  Li0  1  0.00615600  0.82986300  0.25004600  1
  Li  Li1  1  0.12274200  0.62399800  0.37494700  1
  Li  Li2  1  0.24880600  0.74956400  0.00010600  1
  Li  Li3  1  0.25844400  0.07995400  0.00012600  1
  Li  Li4  1  0.00936700  0.83194100  0.74961600  1
  Li  Li5  1  0.23823000  0.41905200  0.50004200  1
  Li  Li6  1  0.12521800  0.62502200  0.87499200  1
  Li  Li7  1  0.25078500  0.75054100  0.50028200  1
  Li  Li8  1  0.25955700  0.08073700  0.49977300  1
  Li  Li9  1  0.37565400  0.87524700  0.12495900  1
  Li  Li10  1  0.24060800  0.42133400  0.99957400  1
  Li  Li11  1  0.49285200  0.66894200  0.25030800  1
  Li  Li12  1  0.37505800  0.87483600  0.62492800  1
  Li  Li13  1  0.50093400  0.00010500  0.25009200  1
  Li  Li14  1  0.51086700  0.33109200  0.24977300  1
  Li  Li15  1  0.49229300  0.67065800  0.75004700  1
  Li  Li16  1  0.62515600  0.12479300  0.37510200  1
  Li  Li17  1  0.50021400  0.00040500  0.74993400  1
  Li  Li18  1  0.75228600  0.24950000  0.99990900  1
  Li  Li19  1  0.50655700  0.32869300  0.75008200  1
  Li  Li20  1  0.75929900  0.58025400  0.00016300  1
  Li  Li21  1  0.62431100  0.12395600  0.87502700  1
  Li  Li22  1  0.74239600  0.91921100  0.49972700  1
  Li  Li23  1  0.75017200  0.25064100  0.49968900  1
  Li  Li24  1  0.87602700  0.37561100  0.12484600  1
  Li  Li25  1  0.75821200  0.58036700  0.50037000  1
  Li  Li26  1  0.99019200  0.16991800  0.25016800  1
  Li  Li27  1  0.73873000  0.91985400  0.00017000  1
  Li  Li28  1  0.87490100  0.37455000  0.62523700  1
  Li  Li29  1  0.00116100  0.49970500  0.24991800  1
  Li  Li30  1  0.99119900  0.16819500  0.75016100  1
  Li  Li31  1  0.00137300  0.50030700  0.74999100  1
  Mn  Mn0  1  0.12456100  0.29200600  0.87522600  1
  Mn  Mn1  1  0.62563700  0.79171500  0.37487800  1
  Mn  Mn2  1  0.87646900  0.70871600  0.62421300  1
  Cr  Cr0  1  0.13103200  0.28804500  0.37475000  1
  Cr  Cr1  1  0.11763400  0.95554700  0.37563500  1
  Cr  Cr2  1  0.12388100  0.96286400  0.87470100  1
  Cr  Cr3  1  0.36873700  0.21070600  0.12497500  1
  Cr  Cr4  1  0.38173200  0.53963100  0.12519200  1
  Cr  Cr5  1  0.36601600  0.21036200  0.62573100  1
  Cr  Cr6  1  0.38533100  0.54216200  0.62434000  1
  Cr  Cr7  1  0.62095200  0.46226300  0.37462900  1
  Cr  Cr8  1  0.61721600  0.45552900  0.87569600  1
  Cr  Cr9  1  0.63169000  0.78855300  0.87450500  1
  Cr  Cr10  1  0.88175000  0.03980800  0.12514700  1
  Cr  Cr11  1  0.86870200  0.71056700  0.12496400  1
  Cr  Cr12  1  0.87437000  0.03697500  0.62543800  1
  O  O0  1  0.03383400  0.89803400  0.06841800  1
  O  O1  1  0.07879900  0.21653600  0.06883000  1
  O  O2  1  0.07263900  0.57275300  0.06819500  1
  O  O3  1  0.03689000  0.89067500  0.56905000  1
  O  O4  1  0.17123600  0.03341000  0.18168000  1
  O  O5  1  0.17738300  0.67682900  0.18197000  1
  O  O6  1  0.07706100  0.21352800  0.56902500  1
  O  O7  1  0.07014500  0.57210400  0.56770300  1
  O  O8  1  0.21477600  0.35194300  0.18163800  1
  O  O9  1  0.28216900  0.14406300  0.31887900  1
  O  O10  1  0.16937700  0.03464200  0.68147000  1
  O  O11  1  0.17682900  0.67597700  0.68170200  1
  O  O12  1  0.33098100  0.46480200  0.31835900  1
  O  O13  1  0.32350200  0.82407200  0.31804100  1
  O  O14  1  0.21678100  0.35425300  0.68137600  1
  O  O15  1  0.28784800  0.14519700  0.81920400  1
  O  O16  1  0.53467200  0.39813400  0.06850300  1
  O  O17  1  0.41990400  0.28584800  0.43134100  1
  O  O18  1  0.43171200  0.92747600  0.43218900  1
  O  O19  1  0.31743300  0.46316600  0.81898200  1
  O  O20  1  0.32631600  0.82305100  0.81751200  1
  O  O21  1  0.57233500  0.07325500  0.06796700  1
  O  O22  1  0.57885100  0.71667700  0.06870100  1
  O  O23  1  0.46595700  0.60800400  0.43032100  1
  O  O24  1  0.53033700  0.39834500  0.56833100  1
  O  O25  1  0.42762400  0.28468100  0.93104400  1
  O  O26  1  0.42235800  0.92582600  0.93234300  1
  O  O27  1  0.67696700  0.17693800  0.18200600  1
  O  O28  1  0.67170700  0.53315700  0.18136800  1
  O  O29  1  0.57699700  0.07538400  0.56801900  1
  O  O30  1  0.57493000  0.71748200  0.56859100  1
  O  O31  1  0.46833500  0.60253100  0.93142900  1
  O  O32  1  0.71527500  0.85277000  0.18136000  1
  O  O33  1  0.78956200  0.64651600  0.31841400  1
  O  O34  1  0.67473800  0.17824700  0.68254500  1
  O  O35  1  0.67940700  0.53723800  0.68056800  1
  O  O36  1  0.82485600  0.32369900  0.31776800  1
  O  O37  1  0.81744000  0.96366200  0.31907200  1
  O  O38  1  0.71332500  0.85484200  0.68087900  1
  O  O39  1  0.78207000  0.64353900  0.81911900  1
  O  O40  1  0.92447100  0.42671700  0.43210100  1
  O  O41  1  0.92744500  0.78444400  0.43076800  1
  O  O42  1  0.82312500  0.32434400  0.81820400  1
  O  O43  1  0.83040400  0.96445800  0.81873500  1
  O  O44  1  0.96830500  0.10216000  0.43143600  1
  O  O45  1  0.93223500  0.42750400  0.93254500  1
  O  O46  1  0.92124800  0.78704300  0.93129400  1
  O  O47  1  0.96394700  0.10974500  0.93088300  1
loop_
_geom_bond_atom_site_label_1
_geom_bond_atom_site_label_2
_geom_bond_distance
_geom_bond_site_symmetry_2
Li0 O32 2.048650 1_455
Li0 O37 2.068919 1_455
Li0 O5 2.137843 1_555
Li0 O13 2.148072 1_555
Li0 O33 2.181441 1_455
Li0 O4 2.201263 1_565
Li1 O33 2.068036 1_455
Li1 O41 2.081038 1_455
Li1 O23 2.098118 1_555
Li1 O12 2.109769 1_555
Li1 O40 2.133171 1_455
Li1 O13 2.155038 1_555
Li2 O26 2.043214 1_554
Li2 O2 2.054738 1_555
Li2 O46 2.197502 1_454
Li2 O0 2.199152 1_555
Li2 O22 2.202802 1_555
Li2 O31 2.205459 1_554
Li3 O1 2.062864 1_555
Li3 O47 2.070876 1_454
Li3 O26 2.128418 1_544
Li3 O21 2.131817 1_555
Li3 O0 2.191360 1_545
Li3 O25 2.222300 1_554
Li4 O43 2.043830 1_455
Li4 O38 2.069180 1_455
Li4 O20 2.143465 1_555
Li4 O11 2.147524 1_555
Li4 O10 2.185360 1_565
Li4 O39 2.245770 1_455
Li5 O17 2.047260 1_555
Li5 O24 2.048062 1_555
Li5 O7 2.127101 1_555
Li5 O40 2.132066 1_455
Li5 O6 2.213013 1_555
Li5 O23 2.251913 1_555
Li6 O19 2.085892 1_555
Li6 O39 2.103195 1_455
Li6 O31 2.109502 1_555
Li6 O46 2.115208 1_455
Li6 O45 2.126265 1_455
Li6 O20 2.146604 1_555
Li7 O18 2.064887 1_555
Li7 O7 2.066551 1_555
Li7 O3 2.154610 1_555
Li7 O30 2.175633 1_555
Li7 O23 2.186466 1_555
Li7 O41 2.188174 1_455
Li8 O44 2.045377 1_455
Li8 O6 2.054001 1_555
Li8 O18 2.134401 1_545
Li8 O29 2.152016 1_555
Li8 O17 2.204000 1_555
Li8 O3 2.242558 1_545
Li9 O22 2.090911 1_555
Li9 O32 2.094084 1_555
Li9 O4 2.096223 1_565
Li9 O0 2.105128 1_555
Li9 O21 2.133274 1_565
Li9 O5 2.139539 1_555
Li10 O16 2.064162 1_556
Li10 O25 2.075203 1_555
Li10 O45 2.099610 1_455
Li10 O2 2.129515 1_556
Li10 O31 2.193406 1_555
Li10 O1 2.211910 1_556
Li11 O28 2.059955 1_555
Li11 O33 2.063275 1_555
Li11 O13 2.143132 1_555
Li11 O5 2.143940 1_555
Li11 O12 2.196822 1_555
Li11 O32 2.203057 1_555
Li12 O30 2.076784 1_555
Li12 O3 2.082045 1_555
Li12 O38 2.083054 1_555
Li12 O10 2.107455 1_565
Li12 O11 2.140619 1_555
Li12 O29 2.160747 1_565
Li13 O13 2.051272 1_545
Li13 O27 2.054576 1_555
Li13 O37 2.155342 1_545
Li13 O9 2.187472 1_555
Li13 O32 2.196484 1_545
Li13 O4 2.199237 1_555
Li14 O12 2.045150 1_555
Li14 O8 2.061342 1_555
Li14 O27 2.132003 1_555
Li14 O36 2.133838 1_555
Li14 O28 2.185032 1_555
Li14 O9 2.237623 1_555
Li15 O39 2.049981 1_555
Li15 O35 2.069709 1_555
Li15 O20 2.116854 1_555
Li15 O11 2.145526 1_555
Li15 O38 2.203864 1_555
Li15 O19 2.248539 1_555
Li16 O37 2.081541 1_545
Li16 O9 2.106401 1_555
Li16 O44 2.108502 1_555
Li16 O17 2.111107 1_555
Li16 O18 2.122494 1_545
Li16 O36 2.148179 1_555
Li17 O20 2.048481 1_545
Li17 O34 2.050715 1_555
Li17 O15 2.184353 1_555
Li17 O38 2.187660 1_545
Li17 O10 2.204805 1_555
Li17 O43 2.207168 1_545
Li18 O21 2.058572 1_556
Li18 O45 2.062069 1_555
Li18 O47 2.150872 1_555
Li18 O25 2.185597 1_555
Li18 O1 2.192854 1_656
Li18 O16 2.209457 1_556
Li19 O14 2.044809 1_555
Li19 O19 2.071873 1_555
Li19 O34 2.109507 1_555
Li19 O42 2.147583 1_555
Li19 O15 2.194120 1_555
Li19 O35 2.256914 1_555
Li20 O31 2.049632 1_554
Li20 O22 2.061225 1_555
Li20 O2 2.131702 1_655
Li20 O45 2.133052 1_554
Li20 O16 2.192975 1_555
Li20 O46 2.221395 1_554
Li21 O15 2.073922 1_555
Li21 O25 2.087994 1_555
Li21 O47 2.088373 1_555
Li21 O43 2.103602 1_545
Li21 O26 2.147951 1_545
Li21 O42 2.152259 1_555
Li22 O41 2.066274 1_555
Li22 O3 2.071671 1_655
Li22 O18 2.114276 1_555
Li22 O29 2.150370 1_565
Li22 O30 2.198315 1_555
Li22 O44 2.200305 1_565
Li23 O40 2.041829 1_555
Li23 O29 2.042273 1_555
Li23 O6 2.201322 1_655
Li23 O17 2.201445 1_555
Li23 O44 2.205418 1_555
Li23 O24 2.209580 1_555
Li24 O28 2.089840 1_555
Li24 O1 2.090488 1_655
Li24 O8 2.094909 1_655
Li24 O16 2.100880 1_555
Li24 O2 2.124993 1_655
Li24 O27 2.144001 1_555
Li25 O30 2.066423 1_555
Li25 O23 2.072819 1_555
Li25 O7 2.116512 1_655
Li25 O40 2.135760 1_555
Li25 O24 2.196773 1_555
Li25 O41 2.223005 1_555
Li26 O9 2.053336 1_655
Li26 O4 2.062182 1_655
Li26 O36 2.126199 1_555
Li26 O27 2.133239 1_555
Li26 O8 2.194067 1_655
Li26 O37 2.236655 1_545
Li27 O46 2.049035 1_554
Li27 O0 2.058991 1_655
Li27 O21 2.128204 1_565
Li27 O26 2.141892 1_554
Li27 O22 2.191713 1_555
Li27 O47 2.247562 1_564
Li28 O35 2.090535 1_555
Li28 O14 2.100703 1_655
Li28 O6 2.103841 1_655
Li28 O24 2.121135 1_555
Li28 O7 2.131188 1_655
Li28 O34 2.132103 1_555
Li29 O36 2.047922 1_455
Li29 O5 2.055284 1_555
Li29 O33 2.184489 1_455
Li29 O8 2.191657 1_555
Li29 O28 2.200058 1_455
Li29 O12 2.200697 1_555
Li30 O10 2.042419 1_655
Li30 O15 2.075651 1_655
Li30 O34 2.137301 1_555
Li30 O42 2.151400 1_555
Li30 O43 2.197203 1_545
Li30 O14 2.221776 1_655
Li31 O11 2.048678 1_555
Li31 O42 2.055092 1_455
Li31 O19 2.154062 1_555
Li31 O35 2.182829 1_455
Li31 O39 2.188878 1_455
Li31 O14 2.189901 1_555
Mn0 O15 1.931495 1_555
Mn0 O25 1.935232 1_555
Mn0 O45 1.936282 1_455
Mn0 O42 1.943429 1_455
Mn0 O47 1.946528 1_455
Mn0 O19 1.949156 1_555
Mn1 O33 1.927727 1_555
Mn1 O41 1.930905 1_555
Mn1 O18 1.941341 1_555
Mn1 O13 1.944112 1_555
Mn1 O37 1.947955 1_555
Mn1 O23 1.952562 1_555
Mn2 O30 1.925873 1_555
Mn2 O38 1.934690 1_555
Mn2 O7 1.936262 1_655
Mn2 O3 1.940224 1_655
Mn2 O11 1.944815 1_655
Mn2 O35 1.961772 1_555
Cr0 O17 1.889189 1_555
Cr0 O9 1.889469 1_555
Cr0 O36 1.964423 1_455
Cr0 O44 1.982554 1_455
Cr0 O40 1.988274 1_455
Cr0 O12 2.001130 1_555
Cr1 O44 1.902619 1_465
Cr1 O37 1.932027 1_455
Cr1 O41 1.933637 1_455
Cr1 O13 1.947197 1_555
Cr1 O18 1.988694 1_555
Cr1 O9 2.003826 1_565
Cr2 O43 1.900702 1_455
Cr2 O47 1.927739 1_465
Cr2 O26 1.941505 1_555
Cr2 O15 1.952172 1_565
Cr2 O20 1.983580 1_555
Cr2 O46 2.003313 1_455
Cr3 O1 1.885725 1_555
Cr3 O8 1.886654 1_555
Cr3 O21 1.969997 1_555
Cr3 O27 1.972412 1_555
Cr3 O16 1.997095 1_555
Cr3 O4 2.001236 1_555
Cr4 O28 1.885921 1_555
Cr4 O16 1.886833 1_555
Cr4 O5 1.967533 1_555
Cr4 O2 1.975249 1_555
Cr4 O22 1.997112 1_555
Cr4 O8 2.000565 1_555
Cr5 O14 1.882779 1_555
Cr5 O6 1.890318 1_555
Cr5 O34 1.971036 1_555
Cr5 O29 1.981294 1_555
Cr5 O10 1.981873 1_555
Cr5 O24 2.005069 1_555
Cr6 O24 1.879663 1_555
Cr6 O35 1.904273 1_555
Cr6 O30 1.963327 1_555
Cr6 O11 1.964374 1_555
Cr6 O7 1.994992 1_555
Cr6 O14 2.009774 1_555
Cr7 O12 1.889428 1_555
Cr7 O23 1.905463 1_555
Cr7 O40 1.959203 1_555
Cr7 O36 1.975625 1_555
Cr7 O33 1.979506 1_555
Cr7 O17 2.004145 1_555
Cr8 O31 1.903565 1_555
Cr8 O19 1.932398 1_555
Cr8 O25 1.932422 1_555
Cr8 O42 1.944389 1_555
Cr8 O45 1.996082 1_555
Cr8 O39 1.999683 1_555
Cr9 O39 1.888865 1_555
Cr9 O46 1.894966 1_555
Cr9 O20 1.960533 1_555
Cr9 O31 1.986560 1_555
Cr9 O43 1.988108 1_555
Cr9 O26 1.992295 1_555
Cr10 O0 1.887602 1_645
Cr10 O4 1.888412 1_655
Cr10 O27 1.969106 1_555
Cr10 O21 1.978920 1_555
Cr10 O32 1.993529 1_545
Cr10 O1 1.993609 1_655
Cr11 O22 1.886688 1_555
Cr11 O32 1.888551 1_555
Cr11 O2 1.970134 1_655
Cr11 O5 1.973973 1_655
Cr11 O0 1.996397 1_655
Cr11 O28 1.998389 1_555
Cr12 O10 1.907311 1_655
Cr12 O3 1.931252 1_645
Cr12 O29 1.935280 1_555
Cr12 O38 1.944780 1_545
Cr12 O34 1.985011 1_555
Cr12 O6 2.006516 1_655
