# generated using pymatgen
data_Li2VO3
_symmetry_space_group_name_H-M   'P 1'
_cell_length_a   5.00204068
_cell_length_b   8.92502855
_cell_length_c   5.16902312
_cell_angle_alpha   73.42430022
_cell_angle_beta   101.26908715
_cell_angle_gamma   96.34721748
_symmetry_Int_Tables_number   1
_chemical_formula_structural   Li2VO3
_chemical_formula_sum   'Li8 V4 O12'
_cell_volume   216.53973067
_cell_formula_units_Z   4
loop_
 _symmetry_equiv_pos_site_id
 _symmetry_equiv_pos_as_xyz
  1  'x, y, z'
loop_
 _atom_site_type_symbol
 _atom_site_label
 _atom_site_symmetry_multiplicity
 _atom_site_fract_x
 _atom_site_fract_y
 _atom_site_fract_z
 _atom_site_occupancy
  Li  Li0  1  0.00061600  0.50046300  0.49939500  1
  Li  Li1  1  0.50061500  0.00046400  0.99939400  1
  Li  Li2  1  0.25025500  0.75005700  0.74923700  1
  Li  Li3  1  0.75025100  0.25007500  0.24921200  1
  Li  Li4  1  0.49217800  0.67079400  0.32464000  1
  Li  Li5  1  0.99217100  0.17078200  0.82466700  1
  Li  Li6  1  0.00933800  0.83044400  0.17226900  1
  Li  Li7  1  0.50933000  0.33043100  0.67229600  1
  V  V0  1  0.74909100  0.58911800  0.90873800  1
  V  V1  1  0.25150900  0.41108100  0.09019700  1
  V  V2  1  0.24909700  0.08908600  0.40877700  1
  V  V3  1  0.75151500  0.91113200  0.59015800  1
  O  O0  1  0.10228300  0.61141600  0.11775800  1
  O  O1  1  0.60227000  0.11143000  0.61777600  1
  O  O2  1  0.39834800  0.88881600  0.38100100  1
  O  O3  1  0.89832800  0.38882800  0.88101500  1
  O  O4  1  0.64212600  0.78866200  0.93905600  1
  O  O5  1  0.14212600  0.28869700  0.43904600  1
  O  O6  1  0.85841000  0.71149600  0.55993400  1
  O  O7  1  0.35841100  0.21152500  0.05992600  1
  O  O8  1  0.39837300  0.53550500  0.73876300  1
  O  O9  1  0.89840400  0.03550200  0.23875500  1
  O  O10  1  0.10216300  0.96466400  0.76034800  1
  O  O11  1  0.60219400  0.46466100  0.26033300  1
loop_
_geom_bond_atom_site_label_1
_geom_bond_atom_site_label_2
_geom_bond_distance
_geom_bond_site_symmetry_2
Li0 O0 2.072894 1_555
Li0 O3 2.075093 1_455
Li0 O8 2.169861 1_555
Li0 O11 2.173206 1_455
Li0 O6 2.207009 1_455
Li0 O5 2.211110 1_555
Li1 O1 2.072808 1_555
Li1 O2 2.075017 1_546
Li1 O9 2.169964 1_556
Li1 O10 2.173285 1_545
Li1 O7 2.207221 1_556
Li1 O4 2.211386 1_545
Li2 O6 2.052081 1_455
Li2 O4 2.053172 1_555
Li2 O8 2.146426 1_555
Li2 O10 2.147974 1_555
Li2 O2 2.169959 1_555
Li2 O0 2.170540 1_556
Li3 O7 2.052011 1_555
Li3 O5 2.053245 1_655
Li3 O9 2.146650 1_555
Li3 O11 2.147737 1_555
Li3 O3 2.169750 1_554
Li3 O1 2.170744 1_555
Li4 O6 2.049693 1_555
Li4 O11 2.107664 1_555
Li4 O0 2.123130 1_555
Li4 O2 2.161091 1_555
Li4 O4 2.203440 1_554
Li4 O8 2.247863 1_555
Li5 O7 2.049729 1_656
Li5 O10 2.107519 1_645
Li5 O1 2.123105 1_555
Li5 O3 2.161290 1_555
Li5 O5 2.203693 1_655
Li5 O9 2.247628 1_556
Li6 O4 2.050793 1_454
Li6 O9 2.105564 1_465
Li6 O2 2.120817 1_555
Li6 O0 2.164099 1_555
Li6 O6 2.216452 1_455
Li6 O10 2.234349 1_554
Li7 O5 2.050745 1_555
Li7 O8 2.105699 1_555
Li7 O3 2.120808 1_555
Li7 O1 2.163878 1_555
Li7 O7 2.216212 1_556
Li7 O11 2.234619 1_555
O0 V0 1.904474 1_454
O0 V1 2.063100 1_555
O1 V2 1.904420 1_555
O1 V3 2.062953 1_545
O2 V3 1.904694 1_555
O2 V2 2.063051 1_565
O3 V1 1.904712 1_656
O3 V0 2.063078 1_555
O4 V3 1.968583 1_555
O4 V0 1.971108 1_555
O5 V1 1.968164 1_555
O5 V2 1.971592 1_555
O6 V0 1.967834 1_555
O6 V3 1.971568 1_555
O7 V2 1.968165 1_555
O7 V1 1.970993 1_555
O8 V0 1.878923 1_555
O8 V1 2.064698 1_556
O9 V2 1.878835 1_655
O9 V3 2.064510 1_545
O10 V3 1.878830 1_455
O10 V2 2.065421 1_565
O11 V1 1.879003 1_555
O11 V0 2.065511 1_554
