# generated using pymatgen
data_Li3FeOF4
_symmetry_space_group_name_H-M   'P 1'
_cell_length_a   5.29856269
_cell_length_b   7.49639278
_cell_length_c   5.39980545
_cell_angle_alpha   106.91706056
_cell_angle_beta   94.55849247
_cell_angle_gamma   110.67773419
_symmetry_Int_Tables_number   1
_chemical_formula_structural   Li3FeOF4
_chemical_formula_sum   'Li6 Fe2 O2 F8'
_cell_volume   187.96034705
_cell_formula_units_Z   2
loop_
 _symmetry_equiv_pos_site_id
 _symmetry_equiv_pos_as_xyz
  1  'x, y, z'
loop_
 _atom_site_type_symbol
 _atom_site_label
 _atom_site_symmetry_multiplicity
 _atom_site_fract_x
 _atom_site_fract_y
 _atom_site_fract_z
 _atom_site_occupancy
  Li  Li0  1  0.50977100  0.28405600  0.42609700  1
  Li  Li1  1  0.00976500  0.78405400  0.42608600  1
  Li  Li2  1  0.95058300  0.20510300  0.63005400  1
  Li  Li3  1  0.45059400  0.70510200  0.63005400  1
  Li  Li4  1  0.47299600  0.88039600  0.17821700  1
  Li  Li5  1  0.97297500  0.38038400  0.17821100  1
  Fe  Fe0  1  0.99099200  0.97659200  0.98463400  1
  Fe  Fe1  1  0.49097100  0.47659800  0.98467200  1
  O  O0  1  0.19535100  0.24473800  0.99359000  1
  O  O1  1  0.69537300  0.74475700  0.99358900  1
  F  F0  1  0.72676900  0.51043600  0.32222400  1
  F  F1  1  0.22677700  0.01043600  0.32221300  1
  F  F2  1  0.77241100  0.13999700  0.25644000  1
  F  F3  1  0.27241700  0.63999100  0.25643400  1
  F  F4  1  0.71546500  0.33836000  0.79375300  1
  F  F5  1  0.21547700  0.83834900  0.79374000  1
  F  F6  1  0.78330300  0.92275800  0.61574100  1
  F  F7  1  0.28330000  0.42276100  0.61574700  1
loop_
_geom_bond_atom_site_label_1
_geom_bond_atom_site_label_2
_geom_bond_distance
_geom_bond_site_symmetry_2
Li2 O0 2.146506 1_655
Li3 O1 2.146479 1_555
Li4 O1 1.964441 1_554
Li5 O0 1.964452 1_654
Fe0 O0 1.900888 1_665
Fe0 O1 1.901225 1_555
Fe1 O1 1.901084 1_555
Fe1 O0 1.901275 1_555
F0 Li1 1.948057 1_655
F0 Li0 1.948073 1_555
F0 Li5 1.968563 1_555
F0 Fe1 2.023050 1_554
F1 Li0 1.948054 1_555
F1 Li1 1.948107 1_545
F1 Li4 1.968540 1_545
F1 Fe0 2.023119 1_444
F2 Li5 1.927962 1_555
F2 Li4 1.928007 1_545
F2 Li2 1.999588 1_555
F2 Li0 2.151815 1_555
F2 Fe0 2.285123 1_544
F3 Li4 1.928054 1_555
F3 Li5 1.928101 1_455
F3 Li3 1.999617 1_555
F3 Li1 2.151879 1_555
F3 Fe1 2.284844 1_554
F4 Li2 1.967553 1_555
F4 Fe1 1.998826 1_555
F4 Li0 2.041388 1_555
F4 Li5 2.266335 1_556
F5 Li3 1.967478 1_555
F5 Fe0 1.998753 1_455
F5 Li1 2.041434 1_555
F5 Li4 2.266384 1_556
F6 Li3 1.959499 1_555
F6 Li2 1.959713 1_565
F6 Li1 2.006609 1_655
F6 Fe0 2.052273 1_555
F7 Li2 1.959521 1_455
F7 Li3 1.959700 1_555
F7 Li0 2.006642 1_555
F7 Fe1 2.052380 1_555
