# generated using pymatgen
data_FeCu3(PO4)4
_symmetry_space_group_name_H-M   'P 1'
_cell_length_a   6.01179600
_cell_length_b   5.08736500
_cell_length_c   9.94181544
_cell_angle_alpha   87.96332015
_cell_angle_beta   90.00000000
_cell_angle_gamma   90.00000000
_symmetry_Int_Tables_number   1
_chemical_formula_structural   FeCu3(PO4)4
_chemical_formula_sum   'Fe1 Cu3 P4 O16'
_cell_volume   303.87039509
_cell_formula_units_Z   1
loop_
 _symmetry_equiv_pos_site_id
 _symmetry_equiv_pos_as_xyz
  1  'x, y, z'
loop_
 _atom_site_type_symbol
 _atom_site_label
 _atom_site_symmetry_multiplicity
 _atom_site_fract_x
 _atom_site_fract_y
 _atom_site_fract_z
 _atom_site_occupancy
  Fe  Fe0  1  0.00000000  0.05313000  0.71321400  1
  Cu  Cu0  1  0.50000000  0.88296600  0.30710100  1
  Cu  Cu1  1  0.50000000  0.64004800  0.80551400  1
  Cu  Cu2  1  0.00000000  0.37289400  0.19239800  1
  P  P0  1  0.00000000  0.91720600  0.39469100  1
  P  P1  1  0.00000000  0.57057600  0.89566900  1
  P  P2  1  0.50000000  0.44106100  0.10835500  1
  P  P3  1  0.50000000  0.08128000  0.60304800  1
  O  O0  1  0.00000000  0.86256600  0.54733300  1
  O  O1  1  0.20108600  0.77550600  0.32901800  1
  O  O2  1  0.79891400  0.77550600  0.32901800  1
  O  O3  1  0.50000000  0.77710900  0.63069800  1
  O  O4  1  0.50000000  0.73889700  0.13407200  1
  O  O5  1  0.19296700  0.73582400  0.82451000  1
  O  O6  1  0.80703300  0.73582400  0.82451000  1
  O  O7  1  0.00000000  0.61579900  0.04857900  1
  O  O8  1  0.50000000  0.40805600  0.95343200  1
  O  O9  1  0.69812800  0.28593600  0.17396700  1
  O  O10  1  0.30187200  0.28593600  0.17396700  1
  O  O11  1  0.00000000  0.27966800  0.86855800  1
  O  O12  1  0.00000000  0.21893000  0.36700500  1
  O  O13  1  0.70690700  0.21306400  0.66441100  1
  O  O14  1  0.29309300  0.21306400  0.66441100  1
  O  O15  1  0.50000000  0.11915600  0.44651700  1
loop_
_geom_bond_atom_site_label_1
_geom_bond_atom_site_label_2
_geom_bond_distance
_geom_bond_site_symmetry_2
Fe0 O0 1.942481 1_545
Fe0 O11 1.959567 1_555
Fe0 O14 1.993505 1_555
Fe0 O13 1.993505 1_455
Fe0 O6 2.246985 1_445
Fe0 O5 2.246985 1_545
Cu0 O15 1.866364 1_565
Cu0 O1 1.888683 1_555
Cu0 O2 1.888683 1_555
Cu0 O4 1.893666 1_555
Cu1 O3 1.849504 1_555
Cu1 O8 1.852609 1_555
Cu1 O6 1.920070 1_555
Cu1 O5 1.920070 1_555
Cu2 O7 1.856306 1_555
Cu2 O10 1.878435 1_555
Cu2 O9 1.878435 1_455
Cu2 O12 1.878897 1_555
O0 P0 1.533039 1_555
O1 P0 1.562313 1_555
O2 P0 1.562313 1_655
O3 P3 1.562007 1_565
O4 P2 1.545554 1_555
O5 P1 1.584529 1_555
O6 P1 1.584529 1_655
O7 P1 1.545577 1_554
O8 P2 1.555262 1_556
O9 P2 1.558987 1_555
O10 P2 1.558987 1_555
O11 P1 1.513694 1_555
O12 P0 1.549805 1_545
O13 P3 1.548538 1_555
O14 P3 1.548538 1_555
O15 P3 1.561275 1_555
