# generated using pymatgen
data_WN2
_symmetry_space_group_name_H-M   'P 1'
_cell_length_a   5.88918000
_cell_length_b   6.00730500
_cell_length_c   8.13412700
_cell_angle_alpha   90.00000000
_cell_angle_beta   90.00000000
_cell_angle_gamma   90.00000000
_symmetry_Int_Tables_number   1
_chemical_formula_structural   WN2
_chemical_formula_sum   'W4 N8'
_cell_volume   287.76996216
_cell_formula_units_Z   4
loop_
 _symmetry_equiv_pos_site_id
 _symmetry_equiv_pos_as_xyz
  1  'x, y, z'
loop_
 _atom_site_type_symbol
 _atom_site_label
 _atom_site_symmetry_multiplicity
 _atom_site_fract_x
 _atom_site_fract_y
 _atom_site_fract_z
 _atom_site_occupancy
  W  W0  1  0.05145100  0.37414600  0.12425300  1
  W  W1  1  0.44854900  0.87414600  0.62425300  1
  W  W2  1  0.55145100  0.37414600  0.37574700  1
  W  W3  1  0.94854900  0.87414600  0.87574700  1
  N  N0  1  0.01023100  0.09604600  0.02812000  1
  N  N1  1  0.15211400  0.90480800  0.70225800  1
  N  N2  1  0.34788600  0.40480800  0.20225800  1
  N  N3  1  0.48976900  0.59604600  0.52812000  1
  N  N4  1  0.65211400  0.90480800  0.79774200  1
  N  N5  1  0.51023100  0.09604600  0.47188000  1
  N  N6  1  0.98976900  0.59604600  0.97188000  1
  N  N7  1  0.84788600  0.40480800  0.29774200  1
loop_
_geom_bond_atom_site_label_1
_geom_bond_atom_site_label_2
_geom_bond_distance
_geom_bond_site_symmetry_2
N0 W3 1.856089 1_444
N0 W0 1.860483 1_555
N1 W3 1.860795 1_455
N1 W1 1.866600 1_555
N2 W2 1.860795 1_555
N2 W0 1.866600 1_555
N3 W2 1.856089 1_555
N3 W1 1.860483 1_555
N4 W1 1.860795 1_555
N4 W3 1.866600 1_555
N5 W1 1.856089 1_545
N5 W2 1.860483 1_555
N6 W0 1.856089 1_656
N6 W3 1.860483 1_555
N7 W0 1.860795 1_655
N7 W2 1.866600 1_555
