# generated using pymatgen
data_Mn12O7F17
_symmetry_space_group_name_H-M   'P 1'
_cell_length_a   5.25262100
_cell_length_b   5.55749491
_cell_length_c   15.08342985
_cell_angle_alpha   83.21871826
_cell_angle_beta   89.65586079
_cell_angle_gamma   89.84281901
_symmetry_Int_Tables_number   1
_chemical_formula_structural   Mn12O7F17
_chemical_formula_sum   'Mn12 O7 F17'
_cell_volume   437.21752342
_cell_formula_units_Z   1
loop_
 _symmetry_equiv_pos_site_id
 _symmetry_equiv_pos_as_xyz
  1  'x, y, z'
loop_
 _atom_site_type_symbol
 _atom_site_label
 _atom_site_symmetry_multiplicity
 _atom_site_fract_x
 _atom_site_fract_y
 _atom_site_fract_z
 _atom_site_occupancy
  Mn  Mn0  1  0.89363800  0.04525500  0.00547000  1
  Mn  Mn1  1  0.01720200  0.38654200  0.82484900  1
  Mn  Mn2  1  0.00056500  0.88595900  0.66800900  1
  Mn  Mn3  1  0.02505500  0.42602100  0.49213200  1
  Mn  Mn4  1  0.97389000  0.89974200  0.33005300  1
  Mn  Mn5  1  0.95652500  0.50344400  0.16761200  1
  Mn  Mn6  1  0.50443900  0.03434700  0.83591600  1
  Mn  Mn7  1  0.56963700  0.49723900  0.99622800  1
  Mn  Mn8  1  0.52345100  0.58498100  0.33807100  1
  Mn  Mn9  1  0.50579700  0.08597600  0.49193000  1
  Mn  Mn10  1  0.51958600  0.54827400  0.67588300  1
  Mn  Mn11  1  0.47520600  0.06308900  0.16896900  1
  O  O0  1  0.76260000  0.27907700  0.07963500  1
  O  O1  1  0.70107600  0.81994200  0.25439800  1
  O  O2  1  0.72351400  0.27417200  0.91384100  1
  O  O3  1  0.83168600  0.60062900  0.74062100  1
  O  O4  1  0.82594000  0.64894100  0.41017400  1
  O  O5  1  0.34155500  0.38118100  0.42823200  1
  O  O6  1  0.33542500  0.34397800  0.76303300  1
  F  F0  1  0.84126400  0.10334300  0.75652600  1
  F  F1  1  0.85921200  0.78952500  0.92750800  1
  F  F2  1  0.83810000  0.14345800  0.42125800  1
  F  F3  1  0.67178800  0.83703500  0.58701000  1
  F  F4  1  0.60679000  0.77429800  0.07630300  1
  F  F5  1  0.64697700  0.33282400  0.25037100  1
  F  F6  1  0.71365300  0.34732700  0.57357900  1
  F  F7  1  0.27923200  0.37123400  0.08784400  1
  F  F8  1  0.37500500  0.69574700  0.91010400  1
  F  F9  1  0.20846400  0.61354800  0.59469000  1
  F  F10  1  0.21200500  0.63574700  0.26094500  1
  F  F11  1  0.17719400  0.12402000  0.57152700  1
  F  F12  1  0.20677800  0.18328800  0.92308700  1
  F  F13  1  0.13296700  0.13978900  0.24274100  1
  F  F14  1  0.30252800  0.88273800  0.40113100  1
  F  F15  1  0.09685500  0.86164700  0.09579100  1
  F  F16  1  0.34440000  0.85564500  0.73452300  1
loop_
_geom_bond_atom_site_label_1
_geom_bond_atom_site_label_2
_geom_bond_distance
_geom_bond_site_symmetry_2
Mn0 O0 1.934658 1_555
Mn0 O2 1.980032 1_554
Mn1 O3 1.905443 1_455
Mn1 O6 1.936606 1_555
Mn1 O2 2.086609 1_455
Mn2 O3 2.021590 1_455
Mn3 O5 1.946799 1_555
Mn3 O4 1.950288 1_455
Mn4 O4 1.898423 1_555
Mn4 O1 1.922232 1_555
Mn5 O0 2.183407 1_555
Mn5 O1 2.667862 1_555
Mn6 O6 2.124690 1_555
Mn6 O2 2.208327 1_555
Mn7 O0 1.930903 1_556
Mn7 O2 2.020055 1_555
Mn8 O5 1.916162 1_555
Mn8 O1 1.942103 1_555
Mn8 O4 1.987150 1_555
Mn9 O5 1.997216 1_555
Mn10 O6 1.895007 1_555
Mn10 O3 1.953086 1_555
Mn11 O1 2.119506 1_545
Mn11 O0 2.266902 1_555
F0 Mn2 2.074665 1_645
F0 Mn6 2.140310 1_555
F0 Mn1 2.189885 1_655
F1 Mn0 1.958068 1_566
F1 Mn7 2.371396 1_555
F1 Mn6 2.608739 1_565
F2 Mn9 2.045796 1_555
F2 Mn4 2.158407 1_545
F2 Mn3 2.233973 1_655
F3 Mn9 2.066592 1_565
F3 Mn10 2.120749 1_555
F3 Mn2 2.157609 1_655
F4 Mn7 2.076389 1_554
F4 Mn0 2.300516 1_565
F4 Mn11 2.349316 1_565
F4 Mn5 2.657622 1_555
F5 Mn8 2.134742 1_555
F5 Mn5 2.192161 1_555
F5 Mn11 2.241461 1_555
F6 Mn3 2.056410 1_655
F6 Mn10 2.247047 1_555
F6 Mn9 2.294696 1_555
F7 Mn7 2.116317 1_554
F7 Mn11 2.236115 1_555
F7 Mn5 2.244584 1_455
F8 Mn7 1.902909 1_555
F8 Mn6 2.180837 1_565
F9 Mn10 2.053755 1_555
F9 Mn3 2.193481 1_555
F9 Mn2 2.253728 1_555
F10 Mn8 2.012942 1_555
F10 Mn5 2.143790 1_455
F10 Mn4 2.266905 1_455
F11 Mn2 2.065139 1_545
F11 Mn3 2.102172 1_555
F11 Mn9 2.120932 1_555
F12 Mn1 2.019758 1_555
F12 Mn0 2.143644 1_456
F12 Mn6 2.254708 1_555
F13 Mn4 1.946863 1_445
F13 Mn11 2.176053 1_555
F13 Mn5 2.385172 1_455
F14 Mn4 2.033603 1_455
F14 Mn9 2.163544 1_565
F14 Mn8 2.310305 1_555
F15 Mn0 1.928679 1_465
F15 Mn5 2.273537 1_455
F15 Mn11 2.598366 1_565
F16 Mn2 2.068056 1_555
F16 Mn6 2.100145 1_565
F16 Mn10 2.210310 1_555
