# generated using pymatgen
data_Li2ZnFe(PO4)2
_symmetry_space_group_name_H-M   'P 1'
_cell_length_a   7.70105575
_cell_length_b   7.70186276
_cell_length_c   10.35713849
_cell_angle_alpha   90.18628124
_cell_angle_beta   90.19465707
_cell_angle_gamma   103.63540392
_symmetry_Int_Tables_number   1
_chemical_formula_structural   Li2ZnFe(PO4)2
_chemical_formula_sum   'Li8 Zn4 Fe4 P8 O32'
_cell_volume   596.98493790
_cell_formula_units_Z   4
loop_
 _symmetry_equiv_pos_site_id
 _symmetry_equiv_pos_as_xyz
  1  'x, y, z'
loop_
 _atom_site_type_symbol
 _atom_site_label
 _atom_site_symmetry_multiplicity
 _atom_site_fract_x
 _atom_site_fract_y
 _atom_site_fract_z
 _atom_site_occupancy
  Li  Li0  1  0.00000400  0.00001300  0.99999000  1
  Li  Li1  1  0.49998300  0.50000400  0.99999800  1
  Li  Li2  1  0.24999000  0.75000000  0.99993300  1
  Li  Li3  1  0.75001900  0.24996100  0.00004000  1
  Li  Li4  1  0.24998500  0.24997700  0.49998500  1
  Li  Li5  1  0.74997000  0.75000500  0.50003300  1
  Li  Li6  1  0.49999200  0.99997900  0.50000000  1
  Li  Li7  1  0.99999800  0.49997800  0.49999100  1
  Zn  Zn0  1  0.61341300  0.36342600  0.28264600  1
  Zn  Zn1  1  0.11337600  0.86340000  0.28267100  1
  Zn  Zn2  1  0.38655100  0.63657700  0.71738000  1
  Zn  Zn3  1  0.88663700  0.13662600  0.71735200  1
  Fe  Fe0  1  0.11246500  0.36240300  0.21995700  1
  Fe  Fe1  1  0.88740700  0.63748700  0.78011500  1
  Fe  Fe2  1  0.61232300  0.86235900  0.22007200  1
  Fe  Fe3  1  0.38761300  0.13759700  0.77992400  1
  P  P0  1  0.33362400  0.08355900  0.09558100  1
  P  P1  1  0.83361000  0.58360700  0.09561800  1
  P  P2  1  0.66640000  0.91643900  0.90443000  1
  P  P3  1  0.16644500  0.41640300  0.90439900  1
  P  P4  1  0.83413100  0.08420000  0.40690000  1
  P  P5  1  0.33413200  0.58412600  0.40696800  1
  P  P6  1  0.16585500  0.91579800  0.59309800  1
  P  P7  1  0.66585500  0.41590900  0.59299900  1
  O  O0  1  0.72771100  0.97779500  0.04371100  1
  O  O1  1  0.22776700  0.47765100  0.04371000  1
  O  O2  1  0.27230900  0.02223500  0.95631200  1
  O  O3  1  0.77226400  0.52238400  0.95631900  1
  O  O4  1  0.49535100  0.24532700  0.09981600  1
  O  O5  1  0.99535900  0.74532500  0.09985900  1
  O  O6  1  0.50468200  0.75468200  0.90019400  1
  O  O7  1  0.00466200  0.25470400  0.90015500  1
  O  O8  1  0.49524500  0.74527600  0.40519500  1
  O  O9  1  0.99539600  0.24530200  0.40515100  1
  O  O10  1  0.50478200  0.25472000  0.59481500  1
  O  O11  1  0.00458500  0.75467200  0.59490000  1
  O  O12  1  0.22757100  0.97762100  0.45384100  1
  O  O13  1  0.72769700  0.47770300  0.45374400  1
  O  O14  1  0.77240000  0.02234600  0.54615100  1
  O  O15  1  0.27228700  0.52226100  0.54620800  1
  O  O16  1  0.16453800  0.11812600  0.16633100  1
  O  O17  1  0.66454100  0.61809900  0.16637700  1
  O  O18  1  0.36820100  0.91455400  0.16638500  1
  O  O19  1  0.86818200  0.41448900  0.16627200  1
  O  O20  1  0.63184900  0.08543700  0.83361000  1
  O  O21  1  0.13189200  0.58551100  0.83371900  1
  O  O22  1  0.83551400  0.88183100  0.83374300  1
  O  O23  1  0.33548700  0.38185000  0.83366700  1
  O  O24  1  0.86842200  0.91436700  0.33594200  1
  O  O25  1  0.36854900  0.41427000  0.33611000  1
  O  O26  1  0.66428900  0.11875300  0.33609000  1
  O  O27  1  0.16421800  0.61852700  0.33609200  1
  O  O28  1  0.13154000  0.08565600  0.66399200  1
  O  O29  1  0.63138600  0.58579400  0.66376900  1
  O  O30  1  0.33573300  0.88130300  0.66387900  1
  O  O31  1  0.83581400  0.38159500  0.66386300  1
loop_
_geom_bond_atom_site_label_1
_geom_bond_atom_site_label_2
_geom_bond_distance
_geom_bond_site_symmetry_2
Li0 O2 2.114055 1_555
Li0 O0 2.114067 1_446
Li0 O22 2.197556 1_445
Li0 O16 2.198330 1_556
Li0 O7 2.213272 1_555
Li0 O5 2.213436 1_446
Li1 O1 2.113311 1_556
Li1 O3 2.113692 1_555
Li1 O23 2.198197 1_555
Li1 O17 2.198687 1_556
Li1 O6 2.212972 1_555
Li1 O4 2.213132 1_556
Li2 O2 2.113445 1_565
Li2 O1 2.114763 1_556
Li2 O21 2.197185 1_555
Li2 O18 2.199587 1_556
Li2 O6 2.212725 1_555
Li2 O5 2.213231 1_456
Li3 O0 2.113053 1_545
Li3 O3 2.115166 1_554
Li3 O19 2.197611 1_555
Li3 O20 2.199212 1_554
Li3 O4 2.212813 1_555
Li3 O7 2.213013 1_654
Li4 O15 2.116504 1_555
Li4 O12 2.116728 1_545
Li4 O9 2.182522 1_455
Li4 O10 2.183830 1_555
Li4 O25 2.189826 1_555
Li4 O28 2.190735 1_555
Li5 O14 2.116537 1_565
Li5 O13 2.116825 1_555
Li5 O11 2.182865 1_655
Li5 O8 2.183393 1_555
Li5 O29 2.188445 1_555
Li5 O24 2.191580 1_555
Li6 O14 2.116909 1_565
Li6 O12 2.117035 1_555
Li6 O8 2.183373 1_555
Li6 O10 2.183616 1_565
Li6 O30 2.189980 1_555
Li6 O26 2.190585 1_565
Li7 O15 2.116270 1_655
Li7 O13 2.116438 1_555
Li7 O9 2.183569 1_555
Li7 O11 2.184035 1_655
Li7 O31 2.189006 1_555
Li7 O27 2.189719 1_655
Fe0 O19 2.087895 1_455
Fe0 O16 2.087907 1_555
Fe0 O1 2.135043 1_555
Fe0 O9 2.223708 1_455
Fe0 O25 2.259509 1_555
Fe0 O27 2.259988 1_555
Fe1 O22 2.087839 1_555
Fe1 O21 2.088801 1_655
Fe1 O3 2.133910 1_555
Fe1 O11 2.224361 1_655
Fe1 O31 2.259186 1_555
Fe1 O29 2.260206 1_555
Fe2 O18 2.087069 1_555
Fe2 O17 2.088425 1_555
Fe2 O0 2.136732 1_555
Fe2 O8 2.223050 1_555
Fe2 O24 2.258023 1_555
Fe2 O26 2.261022 1_565
Fe3 O20 2.087786 1_555
Fe3 O23 2.088218 1_555
Fe3 O2 2.136582 1_555
Fe3 O10 2.223240 1_555
Fe3 O28 2.258211 1_555
Fe3 O30 2.260551 1_545
O0 P2 1.553365 1_554
O1 P3 1.553481 1_554
O2 P0 1.553200 1_556
O3 P1 1.553365 1_556
O4 P0 1.540476 1_555
O4 Zn0 2.197016 1_555
O5 P1 1.540344 1_555
O5 Zn1 2.196689 1_655
O6 P2 1.540381 1_555
O6 Zn2 2.197055 1_555
O7 P3 1.540417 1_555
O7 Zn3 2.196636 1_455
O8 P5 1.534431 1_555
O9 P4 1.534922 1_555
O10 P7 1.534434 1_555
O11 P6 1.535069 1_555
O12 P6 1.560537 1_555
O12 Zn1 2.074781 1_555
O13 P7 1.560694 1_555
O13 Zn0 2.074505 1_555
O14 P4 1.560563 1_555
O14 Zn3 2.075305 1_555
O15 P5 1.560685 1_555
O15 Zn2 2.075205 1_555
O16 P0 1.572279 1_555
O16 Zn1 2.260576 1_545
O17 P1 1.571999 1_555
O17 Zn0 2.259851 1_555
O18 P0 1.572028 1_565
O18 Zn1 2.260860 1_555
O19 P1 1.572044 1_555
O19 Zn0 2.261012 1_555
O20 P2 1.571986 1_545
O20 Zn3 2.260461 1_555
O21 P3 1.572050 1_555
O21 Zn2 2.260115 1_555
O22 P2 1.572276 1_555
O22 Zn3 2.261308 1_565
O23 P3 1.571858 1_555
O23 Zn2 2.260309 1_555
O24 P4 1.574395 1_565
O24 Zn1 2.090889 1_655
O25 P5 1.574422 1_555
O25 Zn0 2.090387 1_555
O26 P4 1.574266 1_555
O26 Zn0 2.089120 1_555
O27 P5 1.574636 1_555
O27 Zn1 2.090410 1_555
O28 P6 1.574322 1_545
O28 Zn3 2.090772 1_455
O29 P7 1.574341 1_555
O29 Zn2 2.090396 1_555
O30 P6 1.574204 1_555
O30 Zn2 2.089486 1_555
O31 P7 1.574635 1_555
O31 Zn3 2.091241 1_555
