# generated using pymatgen
data_Li2MnFe(BO3)2
_symmetry_space_group_name_H-M   'P 1'
_cell_length_a   5.17081659
_cell_length_b   11.05133545
_cell_length_c   5.24091680
_cell_angle_alpha   103.14175918
_cell_angle_beta   60.67927473
_cell_angle_gamma   101.13698250
_symmetry_Int_Tables_number   1
_chemical_formula_structural   Li2MnFe(BO3)2
_chemical_formula_sum   'Li4 Mn2 Fe2 B4 O12'
_cell_volume   253.10028442
_cell_formula_units_Z   2
loop_
 _symmetry_equiv_pos_site_id
 _symmetry_equiv_pos_as_xyz
  1  'x, y, z'
loop_
 _atom_site_type_symbol
 _atom_site_label
 _atom_site_symmetry_multiplicity
 _atom_site_fract_x
 _atom_site_fract_y
 _atom_site_fract_z
 _atom_site_occupancy
  Li  Li0  1  0.39182100  0.15962600  0.53967700  1
  Li  Li1  1  0.60821100  0.84040500  0.46030800  1
  Li  Li2  1  0.09875600  0.33332000  0.96635200  1
  Li  Li3  1  0.90126900  0.66671500  0.03353500  1
  Mn  Mn0  1  0.22409800  0.61671300  0.36324300  1
  Mn  Mn1  1  0.77585300  0.38350900  0.63670500  1
  Fe  Fe0  1  0.71937200  0.11651200  0.86420700  1
  Fe  Fe1  1  0.28094800  0.88332100  0.13585400  1
  B  B0  1  0.05570000  0.12737700  0.21026900  1
  B  B1  1  0.94420300  0.87257900  0.79000000  1
  B  B2  1  0.43957100  0.36637800  0.29360600  1
  B  B3  1  0.56044900  0.63362600  0.70617500  1
  O  O0  1  0.79655700  0.15417600  0.47535100  1
  O  O1  1  0.20333700  0.84577700  0.52496200  1
  O  O2  1  0.29303600  0.08690300  0.21693000  1
  O  O3  1  0.70689100  0.91299000  0.78316100  1
  O  O4  1  0.08255500  0.14635300  0.94691100  1
  O  O5  1  0.91728200  0.85364500  0.05338200  1
  O  O6  1  0.69761700  0.33743700  0.03300200  1
  O  O7  1  0.30234500  0.66252200  0.96670300  1
  O  O8  1  0.40256100  0.34825300  0.56254100  1
  O  O9  1  0.59750200  0.65175400  0.43725100  1
  O  O10  1  0.21029900  0.41123900  0.28078200  1
  O  O11  1  0.78976600  0.58887000  0.71909100  1
loop_
_geom_bond_atom_site_label_1
_geom_bond_atom_site_label_2
_geom_bond_distance
_geom_bond_site_symmetry_2
Li0 O2 1.958935 1_555
Li0 O4 1.960353 1_555
Li0 O0 1.961023 1_555
Li0 O8 2.052103 1_555
Li1 O3 1.958856 1_555
Li1 O5 1.958883 1_555
Li1 O1 1.960945 1_555
Li1 O9 2.052229 1_555
Li2 O6 1.935479 1_456
Li2 O8 1.943318 1_555
Li2 O10 1.970659 1_556
Li2 O4 2.032852 1_555
Li3 O7 1.934983 1_654
Li3 O9 1.942967 1_555
Li3 O11 1.970440 1_554
Li3 O5 2.032230 1_555
Mn0 O7 2.077210 1_554
Mn0 O9 2.098745 1_555
Mn0 O11 2.123318 1_455
Mn0 O10 2.206714 1_555
Mn0 O1 2.485643 1_555
Mn1 O6 2.077269 1_556
Mn1 O8 2.098584 1_555
Mn1 O10 2.123651 1_655
Mn1 O11 2.205460 1_555
Mn1 O0 2.488276 1_555
Fe0 O0 2.002692 1_555
Fe0 O4 2.077572 1_655
Fe0 O2 2.095074 1_556
Fe0 O3 2.186273 1_545
Fe0 O6 2.404733 1_556
Fe1 O1 2.002692 1_555
Fe1 O5 2.079377 1_455
Fe1 O3 2.093915 1_554
Fe1 O2 2.187069 1_565
Fe1 O7 2.403523 1_554
B0 O4 1.378757 1_554
B0 O0 1.398682 1_455
B0 O2 1.403024 1_555
B1 O5 1.378571 1_556
B1 O1 1.398554 1_655
B1 O3 1.403053 1_555
B2 O8 1.383017 1_555
B2 O6 1.389052 1_555
B2 O10 1.405709 1_555
B3 O9 1.382885 1_555
B3 O7 1.388930 1_555
B3 O11 1.405577 1_555
