# generated using pymatgen
data_Li5Mn7O15
_symmetry_space_group_name_H-M   'P 1'
_cell_length_a   5.90812757
_cell_length_b   5.90812757
_cell_length_c   10.01213039
_cell_angle_alpha   74.12041695
_cell_angle_beta   74.12041695
_cell_angle_gamma   61.89235392
_symmetry_Int_Tables_number   1
_chemical_formula_structural   Li5Mn7O15
_chemical_formula_sum   'Li5 Mn7 O15'
_cell_volume   292.15788915
_cell_formula_units_Z   1
loop_
 _symmetry_equiv_pos_site_id
 _symmetry_equiv_pos_as_xyz
  1  'x, y, z'
loop_
 _atom_site_type_symbol
 _atom_site_label
 _atom_site_symmetry_multiplicity
 _atom_site_fract_x
 _atom_site_fract_y
 _atom_site_fract_z
 _atom_site_occupancy
  Li  Li0  1  0.81601000  0.81601000  0.06790100  1
  Li  Li1  1  0.24237600  0.24237600  0.23584400  1
  Li  Li2  1  0.30256600  0.30256600  0.59187400  1
  Li  Li3  1  0.68215600  0.68215600  0.43476900  1
  Li  Li4  1  0.18640000  0.18640000  0.93485900  1
  Mn  Mn0  1  0.49206500  0.49206500  0.00799500  1
  Mn  Mn1  1  0.24691100  0.77037900  0.24029300  1
  Mn  Mn2  1  0.77037800  0.24691100  0.24029300  1
  Mn  Mn3  1  0.00072500  0.00072500  0.49450400  1
  Mn  Mn4  1  0.75032500  0.24579300  0.75076600  1
  Mn  Mn5  1  0.74710100  0.74710100  0.75162400  1
  Mn  Mn6  1  0.24579300  0.75032500  0.75076600  1
  O  O0  1  0.60158000  0.60158000  0.14066700  1
  O  O1  1  0.60944900  0.16775800  0.13070100  1
  O  O2  1  0.16775800  0.60944900  0.13070100  1
  O  O3  1  0.33230000  0.87131300  0.37963600  1
  O  O4  1  0.11845000  0.11845000  0.12906800  1
  O  O5  1  0.87131300  0.33230000  0.37963600  1
  O  O6  1  0.89143200  0.89143200  0.36683300  1
  O  O7  1  0.10673200  0.10673200  0.62569700  1
  O  O8  1  0.09653800  0.65650100  0.63422800  1
  O  O9  1  0.87527300  0.87527300  0.85934800  1
  O  O10  1  0.65650100  0.09653800  0.63422800  1
  O  O11  1  0.83552700  0.39932800  0.86859100  1
  O  O12  1  0.62082900  0.62082900  0.64231700  1
  O  O13  1  0.39932800  0.83552700  0.86859100  1
  O  O14  1  0.39075200  0.39075200  0.87431000  1
loop_
_geom_bond_atom_site_label_1
_geom_bond_atom_site_label_2
_geom_bond_distance
_geom_bond_site_symmetry_2
Li0 O9 1.980033 1_554
Li0 O1 2.027042 1_565
Li0 O2 2.027042 1_655
Li0 O0 2.059827 1_555
Li1 O4 1.891248 1_555
Li1 O1 2.027216 1_555
Li1 O2 2.027216 1_555
Li1 O3 2.180586 1_545
Li1 O5 2.180586 1_455
Li2 O7 1.903835 1_555
Li2 O10 1.959224 1_555
Li2 O8 1.959224 1_555
Li3 O12 1.969847 1_555
Li3 O3 1.984010 1_555
Li3 O5 1.984010 1_555
Li3 O6 2.010026 1_555
Li4 O4 1.844103 1_556
Li4 O14 1.963485 1_555
Li4 O13 2.039306 1_545
Li4 O11 2.039306 1_455
Mn0 O1 1.894080 1_555
Mn0 O2 1.894080 1_555
Mn0 O14 1.929386 1_554
Mn0 O0 1.984158 1_555
Mn0 O13 2.046205 1_554
Mn0 O11 2.046205 1_554
Mn1 O2 1.896662 1_555
Mn1 O3 1.918432 1_555
Mn1 O4 1.945192 1_565
Mn1 O0 1.952396 1_555
Mn1 O6 2.037634 1_455
Mn2 O1 1.896657 1_555
Mn2 O5 1.918435 1_555
Mn2 O4 1.945197 1_655
Mn2 O0 1.952395 1_555
Mn2 O6 2.037634 1_545
Mn3 O5 1.892579 1_455
Mn3 O3 1.892579 1_545
Mn3 O6 1.940125 1_445
Mn3 O7 1.944179 1_555
Mn3 O10 2.050650 1_455
Mn3 O8 2.050650 1_545
Mn4 O11 1.951586 1_555
Mn4 O10 1.955470 1_555
Mn4 O9 2.032991 1_545
Mn4 O7 2.041307 1_655
Mn4 O14 2.050353 1_555
Mn4 O12 2.052946 1_555
Mn5 O12 1.931019 1_555
Mn5 O9 1.935034 1_555
Mn5 O13 1.967921 1_555
Mn5 O11 1.967921 1_555
Mn5 O8 1.976204 1_655
Mn5 O10 1.976204 1_565
Mn6 O13 1.951586 1_555
Mn6 O8 1.955470 1_555
Mn6 O9 2.032991 1_455
Mn6 O7 2.041307 1_565
Mn6 O14 2.050353 1_555
Mn6 O12 2.052946 1_555
