# generated using pymatgen
data_Na2SiBiBO7
_symmetry_space_group_name_H-M   'P 1'
_cell_length_a   6.90897800
_cell_length_b   5.43829000
_cell_length_c   9.41480136
_cell_angle_alpha   89.08505936
_cell_angle_beta   90.00000000
_cell_angle_gamma   90.00000000
_symmetry_Int_Tables_number   1
_chemical_formula_structural   Na2SiBiBO7
_chemical_formula_sum   'Na4 Si2 Bi2 B2 O14'
_cell_volume   353.69747482
_cell_formula_units_Z   2
loop_
 _symmetry_equiv_pos_site_id
 _symmetry_equiv_pos_as_xyz
  1  'x, y, z'
loop_
 _atom_site_type_symbol
 _atom_site_label
 _atom_site_symmetry_multiplicity
 _atom_site_fract_x
 _atom_site_fract_y
 _atom_site_fract_z
 _atom_site_occupancy
  Na  Na0  1  0.99928000  0.76553200  0.79053900  1
  Na  Na1  1  0.50072000  0.76553200  0.79053900  1
  Na  Na2  1  0.49928000  0.23446800  0.20946100  1
  Na  Na3  1  0.00072000  0.23446800  0.20946100  1
  Si  Si0  1  0.75000000  0.28253700  0.57299400  1
  Si  Si1  1  0.25000000  0.71746300  0.42700600  1
  Bi  Bi0  1  0.25000000  0.22012400  0.65381600  1
  Bi  Bi1  1  0.75000000  0.77987600  0.34618400  1
  B  B0  1  0.25000000  0.27157500  0.93091400  1
  B  B1  1  0.75000000  0.72842500  0.06908600  1
  O  O0  1  0.75000000  0.69732300  0.93071800  1
  O  O1  1  0.25000000  0.04235700  0.85891400  1
  O  O2  1  0.25000000  0.47247900  0.82688600  1
  O  O3  1  0.93806600  0.19767600  0.66707800  1
  O  O4  1  0.56193400  0.19767600  0.66707800  1
  O  O5  1  0.25000000  0.84075600  0.58651300  1
  O  O6  1  0.75000000  0.58844900  0.54838100  1
  O  O7  1  0.25000000  0.41155100  0.45161900  1
  O  O8  1  0.75000000  0.15924400  0.41348700  1
  O  O9  1  0.43806600  0.80232400  0.33292200  1
  O  O10  1  0.06193400  0.80232400  0.33292200  1
  O  O11  1  0.75000000  0.52752100  0.17311400  1
  O  O12  1  0.75000000  0.95764300  0.14108600  1
  O  O13  1  0.25000000  0.30267700  0.06928200  1
loop_
_geom_bond_atom_site_label_1
_geom_bond_atom_site_label_2
_geom_bond_distance
_geom_bond_site_symmetry_2
Na0 O0 2.197712 1_555
Na0 O2 2.374904 1_655
Na0 O1 2.390047 1_665
Na0 O5 2.613917 1_655
Na0 O3 2.639279 1_565
Na1 O0 2.197712 1_555
Na1 O2 2.374904 1_555
Na1 O1 2.390047 1_565
Na1 O5 2.613917 1_555
Na1 O4 2.639279 1_565
Na2 O13 2.197712 1_555
Na2 O11 2.374904 1_555
Na2 O12 2.390047 1_545
Na2 O8 2.613917 1_555
Na2 O9 2.639279 1_545
Na3 O13 2.197712 1_555
Na3 O11 2.374904 1_455
Na3 O12 2.390047 1_445
Na3 O8 2.613917 1_455
Na3 O10 2.639279 1_545
Bi0 O1 2.145596 1_555
Bi0 O2 2.147056 1_555
Bi0 O7 2.155070 1_555
Bi0 O4 2.162095 1_555
Bi0 O3 2.162095 1_455
Bi0 O5 2.167877 1_545
Bi1 O12 2.145596 1_555
Bi1 O11 2.147056 1_555
Bi1 O6 2.155070 1_555
Bi1 O10 2.162095 1_655
Bi1 O9 2.162095 1_555
Bi1 O8 2.167877 1_565
B0 O13 1.316318 1_556
B0 O1 1.428420 1_555
B0 O2 1.455601 1_555
B1 O0 1.316318 1_554
B1 O12 1.428420 1_555
B1 O11 1.455601 1_555
O3 Si0 1.634879 1_555
O4 Si0 1.634879 1_555
O5 Si1 1.654362 1_555
O6 Si0 1.676030 1_555
O7 Si1 1.676030 1_555
O8 Si0 1.654362 1_555
O9 Si1 1.634879 1_555
O10 Si1 1.634879 1_555
