# generated using pymatgen
data_Li4Mn3Cu(PO4)4
_symmetry_space_group_name_H-M   'P 1'
_cell_length_a   4.78720490
_cell_length_b   10.44421000
_cell_length_c   6.16439100
_cell_angle_alpha   90.00000000
_cell_angle_beta   90.00000000
_cell_angle_gamma   91.08149770
_symmetry_Int_Tables_number   1
_chemical_formula_structural   Li4Mn3Cu(PO4)4
_chemical_formula_sum   'Li4 Mn3 Cu1 P4 O16'
_cell_volume   308.15585027
_cell_formula_units_Z   1
loop_
 _symmetry_equiv_pos_site_id
 _symmetry_equiv_pos_as_xyz
  1  'x, y, z'
loop_
 _atom_site_type_symbol
 _atom_site_label
 _atom_site_symmetry_multiplicity
 _atom_site_fract_x
 _atom_site_fract_y
 _atom_site_fract_z
 _atom_site_occupancy
  Li  Li0  1  0.99759100  0.99433800  0.99903200  1
  Li  Li1  1  0.99759100  0.99433800  0.50096800  1
  Li  Li2  1  0.50101000  0.50289300  0.49988200  1
  Li  Li3  1  0.50101000  0.50289300  0.00011800  1
  Mn  Mn0  1  0.47882400  0.21793900  0.75000000  1
  Mn  Mn1  1  0.51981200  0.78057600  0.25000000  1
  Mn  Mn2  1  0.97406500  0.28046700  0.25000000  1
  Cu  Cu0  1  0.04834300  0.71347200  0.75000000  1
  P  P0  1  0.08111500  0.59371700  0.25000000  1
  P  P1  1  0.41037100  0.09328400  0.25000000  1
  P  P2  1  0.58508000  0.90102500  0.75000000  1
  P  P3  1  0.92102800  0.41178600  0.75000000  1
  O  O0  1  0.20727200  0.45761400  0.25000000  1
  O  O1  1  0.21617800  0.66618100  0.05043900  1
  O  O2  1  0.21617800  0.66618100  0.44956100  1
  O  O3  1  0.24133000  0.40674200  0.75000000  1
  O  O4  1  0.25999900  0.89381600  0.75000000  1
  O  O5  1  0.28028300  0.16315000  0.04945100  1
  O  O6  1  0.28028300  0.16315000  0.45054900  1
  O  O7  1  0.28428900  0.95526500  0.25000000  1
  O  O8  1  0.70262600  0.04152600  0.75000000  1
  O  O9  1  0.71457400  0.83635600  0.54618600  1
  O  O10  1  0.71457400  0.83635600  0.95381400  1
  O  O11  1  0.73161700  0.09773500  0.25000000  1
  O  O12  1  0.76114600  0.59303900  0.25000000  1
  O  O13  1  0.78299600  0.34233400  0.55000800  1
  O  O14  1  0.78299600  0.34233400  0.94999200  1
  O  O15  1  0.80782100  0.55150000  0.75000000  1
loop_
_geom_bond_atom_site_label_1
_geom_bond_atom_site_label_2
_geom_bond_distance
_geom_bond_site_symmetry_2
Li0 O7 2.113006 1_656
Li0 O10 2.133412 1_555
Li0 O8 2.149348 1_565
Li0 O5 2.224075 1_666
Li0 O4 2.255368 1_655
Li0 O11 2.287514 1_566
Li1 O7 2.113006 1_655
Li1 O9 2.133412 1_555
Li1 O8 2.149348 1_565
Li1 O6 2.224075 1_665
Li1 O4 2.255368 1_655
Li1 O11 2.287514 1_565
Li2 O0 2.132752 1_555
Li2 O15 2.182676 1_555
Li2 O12 2.183058 1_555
Li2 O13 2.194371 1_555
Li2 O3 2.209968 1_555
Li2 O2 2.225244 1_555
Li3 O0 2.132752 1_555
Li3 O15 2.182676 1_554
Li3 O12 2.183058 1_555
Li3 O14 2.194371 1_554
Li3 O3 2.209968 1_554
Li3 O1 2.225244 1_555
Mn0 O8 2.148760 1_555
Mn0 O5 2.148895 1_556
Mn0 O6 2.148895 1_555
Mn0 O14 2.292753 1_555
Mn0 O13 2.292753 1_555
Mn0 O3 2.294696 1_555
Mn1 O9 2.126445 1_555
Mn1 O10 2.126445 1_554
Mn1 O7 2.162790 1_555
Mn1 O1 2.233397 1_555
Mn1 O2 2.233397 1_555
Mn1 O12 2.292725 1_555
Mn2 O0 2.142777 1_655
Mn2 O13 2.167171 1_555
Mn2 O14 2.167171 1_554
Mn2 O11 2.214910 1_555
Mn2 O6 2.290505 1_655
Mn2 O5 2.290505 1_655
Cu0 O15 2.028301 1_455
Cu0 O1 2.081940 1_556
Cu0 O2 2.081940 1_555
Cu0 O4 2.121880 1_555
Cu0 O10 2.419946 1_455
Cu0 O9 2.419946 1_455
O0 P0 1.554921 1_555
O1 P0 1.576610 1_555
O2 P0 1.576610 1_555
O3 P3 1.535249 1_455
O4 P2 1.556630 1_555
O5 P1 1.570281 1_555
O6 P1 1.570281 1_555
O7 P1 1.552220 1_565
O8 P2 1.561668 1_545
O9 P2 1.560385 1_555
O10 P2 1.560385 1_555
O11 P1 1.537696 1_555
O12 P0 1.531640 1_655
O13 P3 1.569897 1_555
O14 P3 1.569897 1_555
O15 P3 1.566151 1_555
