# generated using pymatgen
data_Na6Ti2O7
_symmetry_space_group_name_H-M   'P 1'
_cell_length_a   5.97287072
_cell_length_b   5.97287072
_cell_length_c   12.48096246
_cell_angle_alpha   79.63890870
_cell_angle_beta   79.63890870
_cell_angle_gamma   94.38679658
_symmetry_Int_Tables_number   1
_chemical_formula_structural   Na6Ti2O7
_chemical_formula_sum   'Na12 Ti4 O14'
_cell_volume   428.12411166
_cell_formula_units_Z   2
loop_
 _symmetry_equiv_pos_site_id
 _symmetry_equiv_pos_as_xyz
  1  'x, y, z'
loop_
 _atom_site_type_symbol
 _atom_site_label
 _atom_site_symmetry_multiplicity
 _atom_site_fract_x
 _atom_site_fract_y
 _atom_site_fract_z
 _atom_site_occupancy
  Na  Na0  1  0.75921800  0.04948900  0.58125900  1
  Na  Na1  1  0.48911800  0.04875600  0.86565700  1
  Na  Na2  1  0.50000000  0.50000000  0.50000000  1
  Na  Na3  1  0.43553900  0.56446100  0.75000000  1
  Na  Na4  1  0.04948900  0.75921800  0.08125900  1
  Na  Na5  1  0.04875600  0.48911800  0.36565700  1
  Na  Na6  1  0.95124400  0.51088200  0.63434300  1
  Na  Na7  1  0.95051100  0.24078200  0.91874100  1
  Na  Na8  1  0.56446100  0.43553900  0.25000000  1
  Na  Na9  1  0.51088200  0.95124400  0.13434300  1
  Na  Na10  1  0.24078200  0.95051100  0.41874100  1
  Na  Na11  1  0.50000000  0.50000000  0.00000000  1
  Ti  Ti0  1  0.92704300  0.76457300  0.86044300  1
  Ti  Ti1  1  0.23542700  0.07295700  0.63955700  1
  Ti  Ti2  1  0.76457300  0.92704300  0.36044300  1
  Ti  Ti3  1  0.07295700  0.23542700  0.13955700  1
  O  O0  1  0.20149300  0.69611100  0.89253200  1
  O  O1  1  0.69611100  0.20149300  0.39253200  1
  O  O2  1  0.47414700  0.22994600  0.67708800  1
  O  O3  1  0.74864300  0.84727600  0.97855000  1
  O  O4  1  0.96249300  0.03750700  0.75000000  1
  O  O5  1  0.15272400  0.25135700  0.52145000  1
  O  O6  1  0.22994600  0.47414700  0.17708800  1
  O  O7  1  0.77005400  0.52585300  0.82291200  1
  O  O8  1  0.84727600  0.74864300  0.47855000  1
  O  O9  1  0.03750700  0.96249300  0.25000000  1
  O  O10  1  0.25135700  0.15272400  0.02145000  1
  O  O11  1  0.52585300  0.77005400  0.32291200  1
  O  O12  1  0.30388900  0.79850700  0.60746800  1
  O  O13  1  0.79850700  0.30388900  0.10746800  1
loop_
_geom_bond_atom_site_label_1
_geom_bond_atom_site_label_2
_geom_bond_distance
_geom_bond_site_symmetry_2
Na0 O2 2.345923 1_555
Na0 O8 2.424757 1_545
Na0 O1 2.473295 1_555
Na0 O5 2.479282 1_655
Na0 O4 2.606442 1_555
Na0 O12 2.937775 1_545
Na1 O10 2.399835 1_556
Na1 O2 2.427468 1_555
Na1 O3 2.509471 1_545
Na1 O0 2.546645 1_545
Na2 O8 2.401182 1_555
Na2 O5 2.401182 1_555
Na2 O2 2.463225 1_555
Na2 O11 2.463225 1_555
Na2 O12 2.639053 1_555
Na2 O1 2.639053 1_555
Na3 O12 2.348176 1_555
Na3 O0 2.348176 1_555
Na3 O2 2.349974 1_555
Na3 O7 2.349974 1_555
Na4 O6 2.345923 1_555
Na4 O3 2.424757 1_454
Na4 O0 2.473295 1_554
Na4 O10 2.479282 1_565
Na4 O9 2.606442 1_555
Na4 O13 2.937775 1_455
Na5 O5 2.399835 1_555
Na5 O6 2.427468 1_555
Na5 O8 2.509471 1_455
Na5 O1 2.546645 1_455
Na6 O8 2.399835 1_555
Na6 O7 2.427468 1_555
Na6 O5 2.509471 1_655
Na6 O12 2.546645 1_655
Na7 O7 2.345923 1_555
Na7 O10 2.424757 1_656
Na7 O13 2.473295 1_556
Na7 O3 2.479282 1_545
Na7 O4 2.606442 1_555
Na7 O0 2.937775 1_655
Na8 O13 2.348176 1_555
Na8 O1 2.348176 1_555
Na8 O11 2.349974 1_555
Na8 O6 2.349974 1_555
Na9 O3 2.399835 1_554
Na9 O11 2.427468 1_555
Na9 O10 2.509471 1_565
Na9 O13 2.546645 1_565
Na10 O11 2.345923 1_555
Na10 O5 2.424757 1_565
Na10 O12 2.473295 1_555
Na10 O8 2.479282 1_455
Na10 O9 2.606442 1_555
Na10 O1 2.937775 1_565
Na11 O3 2.401182 1_554
Na11 O10 2.401182 1_555
Na11 O6 2.463225 1_555
Na11 O7 2.463225 1_554
Na11 O13 2.639053 1_555
Na11 O0 2.639053 1_554
O0 Ti0 1.815091 1_455
O1 Ti2 1.815091 1_545
O2 Ti1 1.823566 1_555
O3 Ti0 1.824778 1_555
O4 Ti1 1.906930 1_655
O4 Ti0 1.906930 1_545
O5 Ti1 1.824778 1_555
O6 Ti3 1.823566 1_555
O7 Ti0 1.823566 1_555
O8 Ti2 1.824778 1_555
O9 Ti3 1.906930 1_565
O9 Ti2 1.906930 1_455
O10 Ti3 1.824778 1_555
O11 Ti2 1.823566 1_555
O12 Ti1 1.815091 1_565
O13 Ti3 1.815091 1_655
