# generated using pymatgen
data_K2W4O13
_symmetry_space_group_name_H-M   'P 1'
_cell_length_a   3.88632800
_cell_length_b   15.99132014
_cell_length_c   16.01435701
_cell_angle_alpha   119.89317885
_cell_angle_beta   90.03057925
_cell_angle_gamma   90.00753132
_symmetry_Int_Tables_number   1
_chemical_formula_structural   K2W4O13
_chemical_formula_sum   'K6 W12 O39'
_cell_volume   862.83999751
_cell_formula_units_Z   3
loop_
 _symmetry_equiv_pos_site_id
 _symmetry_equiv_pos_as_xyz
  1  'x, y, z'
loop_
 _atom_site_type_symbol
 _atom_site_label
 _atom_site_symmetry_multiplicity
 _atom_site_fract_x
 _atom_site_fract_y
 _atom_site_fract_z
 _atom_site_occupancy
  K  K0  1  0.50024900  0.99797100  0.99909200  1
  K  K1  1  0.47281200  0.19398300  0.50474600  1
  K  K2  1  0.47305200  0.31416600  0.81015900  1
  K  K3  1  0.52692200  0.68566500  0.18267200  1
  K  K4  1  0.52755700  0.81449000  0.50162800  1
  K  K5  1  0.52781200  0.49882000  0.31461300  1
  W  W0  1  0.96926400  0.72954100  0.81984100  1
  W  W1  1  0.97826300  0.36303300  0.45475900  1
  W  W2  1  0.97543100  0.54838900  0.90879000  1
  W  W3  1  0.97230300  0.09033500  0.26792000  1
  W  W4  1  0.02573000  0.82274600  0.08799400  1
  W  W5  1  0.97656000  0.08674600  0.63796800  1
  W  W6  1  0.02326600  0.91126600  0.36114400  1
  W  W7  1  0.97242800  0.17749100  0.91067700  1
  W  W8  1  0.02829500  0.90949800  0.73410200  1
  W  W9  1  0.02261600  0.45077000  0.08775400  1
  W  W10  1  0.02727300  0.63736600  0.54950500  1
  W  W11  1  0.02656100  0.26724200  0.17814800  1
  O  O0  1  0.00351000  0.81829800  0.96854600  1
  O  O1  1  0.48993700  0.73485100  0.82905600  1
  O  O2  1  0.99551300  0.65479800  0.68899200  1
  O  O3  1  0.00099800  0.50031700  0.50040300  1
  O  O4  1  0.99051700  0.62260500  0.84457600  1
  O  O5  1  0.48840200  0.36200700  0.44122000  1
  O  O6  1  0.48775200  0.55868400  0.92234000  1
  O  O7  1  0.98358100  0.36150800  0.56361100  1
  O  O8  1  0.00291000  0.15048800  0.18201000  1
  O  O9  1  0.99011100  0.22127300  0.37755000  1
  O  O10  1  0.98139300  0.43103100  0.80693900  1
  O  O11  1  0.49033900  0.09519000  0.26689000  1
  O  O12  1  0.99643100  0.96895700  0.15196500  1
  O  O13  1  0.98513300  0.19490500  0.63027400  1
  O  O14  1  0.99867200  0.03913100  0.34988700  1
  O  O15  1  0.99878100  0.31030100  0.96072100  1
  O  O16  1  0.50913800  0.82969900  0.09599600  1
  O  O17  1  0.48795300  0.07794700  0.63751100  1
  O  O18  1  0.98936300  0.15721800  0.77820300  1
  O  O19  1  0.99979700  0.99905100  0.49998400  1
  O  O20  1  0.01087500  0.84285400  0.22210700  1
  O  O21  1  0.51203200  0.92098000  0.36293600  1
  O  O22  1  0.49043400  0.17150900  0.90436100  1
  O  O23  1  0.00130900  0.69093100  0.04000300  1
  O  O24  1  0.00110700  0.96097700  0.65157600  1
  O  O25  1  0.01500600  0.80362800  0.36989900  1
  O  O26  1  0.00393600  0.03185200  0.84895300  1
  O  O27  1  0.51026500  0.90496900  0.73383100  1
  O  O28  1  0.00108800  0.50191200  0.00199200  1
  O  O29  1  0.01557900  0.56569200  0.19669700  1
  O  O30  1  0.01206900  0.77893600  0.62047400  1
  O  O31  1  0.99816200  0.84919600  0.81749700  1
  O  O32  1  0.01371100  0.63062500  0.43397100  1
  O  O33  1  0.51208200  0.44149300  0.07915400  1
  O  O34  1  0.51309900  0.63870800  0.55720300  1
  O  O35  1  0.01038900  0.37831600  0.15631700  1
  O  O36  1  0.00239700  0.34931500  0.30918800  1
  O  O37  1  0.50947000  0.26583700  0.17034500  1
  O  O38  1  0.99616200  0.18224000  0.03089200  1
loop_
_geom_bond_atom_site_label_1
_geom_bond_atom_site_label_2
_geom_bond_distance
_geom_bond_site_symmetry_2
K0 O0 3.289071 1_555
K0 O0 3.304763 1_655
K0 O31 3.312494 1_555
K0 O31 3.319813 1_455
K0 O12 3.324849 1_556
K0 O26 3.329986 1_565
K0 O8 3.339322 1_566
K0 O38 3.340434 1_566
K0 O12 3.343595 1_456
K0 O26 3.348074 1_665
K0 O8 3.349151 1_666
K0 O38 3.359625 1_466
K1 O13 2.758250 1_455
K1 O13 2.823432 1_555
K1 O9 2.956517 1_455
K1 O7 3.027607 1_455
K1 O9 3.044922 1_555
K1 O7 3.079782 1_555
K1 O14 3.090356 1_455
K1 O14 3.216251 1_555
K2 O10 2.691285 1_455
K2 O10 2.737385 1_555
K2 O18 2.968509 1_455
K2 O18 3.051138 1_555
K2 O15 3.060723 1_455
K2 O13 3.169933 1_455
K2 O15 3.183596 1_555
K2 O13 3.229134 1_555
K3 O29 2.787062 1_655
K3 O29 2.847688 1_555
K3 O20 2.944469 1_655
K3 O23 2.970247 1_655
K3 O20 3.026519 1_555
K3 O23 3.096234 1_555
K3 O16 3.228525 1_555
K3 O25 3.240633 1_655
K3 O25 3.297881 1_555
K4 O25 2.776366 1_655
K4 O25 2.842254 1_555
K4 O30 2.926812 1_655
K4 O24 3.004645 1_655
K4 O30 3.006891 1_555
K4 O24 3.136753 1_555
K4 O32 3.196383 1_655
K4 O32 3.260002 1_555
K5 O32 2.764304 1_655
K5 O32 2.842079 1_555
K5 O35 2.965433 1_655
K5 O36 2.986548 1_655
K5 O35 3.050837 1_555
K5 O36 3.111973 1_555
K5 O29 3.212306 1_655
K5 O37 3.262449 1_555
K5 O29 3.268286 1_555
O0 W4 1.880382 1_556
O0 W0 2.081795 1_455
O1 W0 1.867334 1_555
O1 W0 2.027489 1_455
O2 W0 1.825853 1_555
O2 W10 2.112440 1_655
O3 W10 1.927156 1_555
O3 W1 1.939596 1_455
O4 W2 1.919899 1_555
O4 W0 1.939892 1_555
O5 W1 1.915095 1_555
O5 W1 1.993684 1_455
O6 W2 1.905568 1_555
O6 W2 2.000576 1_455
O7 W1 1.755587 1_555
O8 W11 1.900845 1_555
O8 W3 2.037532 1_455
O9 W3 1.951155 1_555
O9 W1 1.968781 1_555
O10 W2 1.769710 1_555
O11 W3 1.875093 1_555
O11 W3 2.015137 1_455
O12 W3 1.905795 1_565
O12 W4 2.035157 1_655
O13 W5 1.794502 1_555
O14 W3 1.864200 1_555
O14 W6 2.142431 1_645
O15 W7 1.861884 1_555
O15 W9 2.153541 1_656
O16 W4 1.882476 1_555
O16 W4 2.011357 1_655
O17 W5 1.903815 1_555
O17 W5 1.992194 1_455
O18 W5 1.947603 1_555
O18 W7 1.981096 1_555
O19 W5 1.941412 1_565
O19 W6 1.952359 1_655
O20 W6 1.930985 1_555
O20 W4 2.007796 1_555
O21 W6 1.904861 1_555
O21 W6 1.992014 1_655
O22 W7 1.875718 1_555
O22 W7 2.015625 1_455
O23 W4 1.851482 1_555
O23 W2 2.201544 1_454
O24 W8 1.876114 1_555
O24 W5 2.130368 1_465
O25 W6 1.795554 1_555
O26 W8 1.906122 1_545
O26 W7 2.030186 1_455
O27 W8 1.874426 1_555
O27 W8 2.014452 1_655
O28 W9 1.918756 1_555
O28 W2 1.973751 1_454
O29 W9 1.796130 1_555
O30 W10 1.963628 1_555
O30 W8 1.971611 1_555
O31 W0 1.935671 1_555
O31 W8 2.002758 1_655
O32 W10 1.799650 1_555
O33 W9 1.907728 1_555
O33 W9 1.989197 1_655
O34 W10 1.891456 1_555
O34 W10 2.001573 1_655
O35 W9 1.954069 1_555
O35 W11 1.974871 1_555
O36 W11 1.841216 1_555
O36 W1 2.232045 1_455
O37 W11 1.880358 1_555
O37 W11 2.012827 1_655
O38 W7 1.890666 1_554
O38 W11 2.056042 1_655
