# generated using pymatgen
data_Na3CaAl3Si3SO16
_symmetry_space_group_name_H-M   'P 1'
_cell_length_a   7.82868000
_cell_length_b   7.85365750
_cell_length_c   12.81586616
_cell_angle_alpha   89.88251408
_cell_angle_beta   89.88620295
_cell_angle_gamma   70.48950312
_symmetry_Int_Tables_number   1
_chemical_formula_structural   Na3CaAl3Si3SO16
_chemical_formula_sum   'Na6 Ca2 Al6 Si6 S2 O32'
_cell_volume   742.72065775
_cell_formula_units_Z   2
loop_
 _symmetry_equiv_pos_site_id
 _symmetry_equiv_pos_as_xyz
  1  'x, y, z'
loop_
 _atom_site_type_symbol
 _atom_site_label
 _atom_site_symmetry_multiplicity
 _atom_site_fract_x
 _atom_site_fract_y
 _atom_site_fract_z
 _atom_site_occupancy
  Na  Na0  1  0.19487300  0.80524200  0.82136100  1
  Na  Na1  1  0.70403200  0.29770100  0.29437400  1
  Na  Na2  1  0.18230300  0.81219400  0.17324300  1
  Na  Na3  1  0.10130000  0.50387800  0.49870400  1
  Na  Na4  1  0.00340800  0.37494000  0.00171400  1
  Na  Na5  1  0.62962100  0.99517400  0.00103900  1
  Ca  Ca0  1  0.67889200  0.32883400  0.69954700  1
  Ca  Ca1  1  0.49595100  0.86025100  0.50041200  1
  Al  Al0  1  0.62862100  0.62801500  0.87471300  1
  Al  Al1  1  0.37536500  0.36951800  0.87376200  1
  Al  Al2  1  0.11696300  0.13049000  0.62941200  1
  Al  Al3  1  0.49868600  0.99767000  0.24858500  1
  Al  Al4  1  0.87128300  0.87894300  0.63002400  1
  Al  Al5  1  0.00312400  0.49923500  0.24976700  1
  Si  Si0  1  0.00767600  0.50507600  0.75001400  1
  Si  Si1  1  0.12470300  0.11905200  0.37724300  1
  Si  Si2  1  0.49348300  0.99387100  0.74970400  1
  Si  Si3  1  0.87729400  0.87258600  0.37801400  1
  Si  Si4  1  0.62808200  0.62115700  0.12320900  1
  Si  Si5  1  0.38048400  0.37216400  0.12277000  1
  S  S0  1  0.50952500  0.50028500  0.50366800  1
  S  S1  1  0.99013000  0.01034000  0.99563900  1
  O  O0  1  0.55388000  0.86109300  0.84973300  1
  O  O1  1  0.00540800  0.70191400  0.70783000  1
  O  O2  1  0.80542400  0.51198500  0.78824400  1
  O  O3  1  0.41269200  0.60651400  0.59685600  1
  O  O4  1  0.70027200  0.50388900  0.50925000  1
  O  O5  1  0.06264400  0.36252400  0.65212400  1
  O  O6  1  0.46591400  0.53471100  0.83880400  1
  O  O7  1  0.05593500  0.33372300  0.34995500  1
  O  O8  1  0.49124600  0.20924000  0.20172500  1
  O  O9  1  0.65771000  0.93966100  0.35357400  1
  O  O10  1  0.19819500  0.08334800  0.49827200  1
  O  O11  1  0.14234700  0.44211400  0.84944700  1
  O  O12  1  0.50839100  0.31255400  0.50958000  1
  O  O13  1  0.29396300  0.99659300  0.30615400  1
  O  O14  1  0.88555800  0.11341400  0.90458300  1
  O  O15  1  0.90360700  0.09611200  0.09536800  1
  O  O16  1  0.18149300  0.00986000  0.99130900  1
  O  O17  1  0.55087300  0.83649100  0.14964100  1
  O  O18  1  0.49225900  0.19473400  0.78472000  1
  O  O19  1  0.94855600  0.04792900  0.35954700  1
  O  O20  1  0.92053300  0.07688200  0.64969200  1
  O  O21  1  0.63410200  0.92863600  0.64933100  1
  O  O22  1  0.70146300  0.59333100  0.00413500  1
  O  O23  1  0.99112500  0.81899600  0.99217600  1
  O  O24  1  0.90069000  0.80604200  0.49885400  1
  O  O25  1  0.29860600  0.99376200  0.70451900  1
  O  O26  1  0.42164900  0.59855700  0.40763200  1
  O  O27  1  0.99555200  0.70816900  0.30365100  1
  O  O28  1  0.45681700  0.54360700  0.14179500  1
  O  O29  1  0.16448600  0.45015500  0.14961500  1
  O  O30  1  0.79122100  0.50910300  0.20108000  1
  O  O31  1  0.41159000  0.29773900  0.00388100  1
loop_
_geom_bond_atom_site_label_1
_geom_bond_atom_site_label_2
_geom_bond_distance
_geom_bond_site_symmetry_2
Na0 O1 2.406873 1_555
Na0 O25 2.425509 1_555
Na0 O6 2.460722 1_555
Na0 O23 2.687061 1_455
Na0 O16 2.690399 1_565
Na1 O30 2.323271 1_555
Na1 O8 2.334913 1_555
Na1 O19 2.387783 1_555
Na2 O28 2.490489 1_555
Na2 O27 2.526000 1_455
Na2 O13 2.573819 1_555
Na2 O15 2.734648 1_465
Na2 O23 2.754564 1_454
Na2 O16 2.797353 1_564
Na2 O29 2.909345 1_555
Na2 O17 2.969446 1_555
Na3 O5 2.324453 1_555
Na3 O24 2.368253 1_455
Na3 O7 2.424096 1_555
Na4 O11 2.374904 1_554
Na4 O22 2.412931 1_455
Na4 O29 2.458379 1_555
Na4 O16 2.741012 1_554
Na4 O14 2.810738 1_454
Na4 O15 2.823951 1_455
Na5 O0 2.377108 1_554
Na5 O31 2.419134 1_565
Na5 O17 2.461495 1_555
Na5 O23 2.705656 1_554
Na5 O14 2.762846 1_564
Na5 O15 2.800124 1_565
Ca0 O2 2.303330 1_555
Ca0 O20 2.324297 1_555
Ca0 O18 2.335010 1_555
Ca0 O6 2.603604 1_555
Ca0 O3 2.791842 1_555
Ca0 O12 2.802401 1_555
Ca0 O4 2.829193 1_555
Ca1 O21 2.345430 1_555
Ca1 O10 2.403407 1_565
Ca1 O9 2.459117 1_555
Al0 O6 1.731604 1_555
Al0 O22 1.746046 1_556
Al0 O0 1.754579 1_555
Al0 O2 1.769130 1_555
Al1 O6 1.731201 1_555
Al1 O11 1.748361 1_555
Al1 O31 1.752227 1_556
Al1 O18 1.785262 1_555
Al2 O20 1.743566 1_455
Al2 O5 1.752271 1_555
Al2 O25 1.755844 1_545
Al2 O10 1.790863 1_555
Al3 O17 1.742503 1_555
Al3 O8 1.748246 1_565
Al3 O13 1.765624 1_555
Al3 O9 1.786946 1_555
Al4 O20 1.741021 1_565
Al4 O1 1.747341 1_655
Al4 O24 1.766670 1_555
Al4 O21 1.782084 1_555
Al5 O29 1.749909 1_555
Al5 O30 1.750827 1_455
Al5 O27 1.764215 1_455
Al5 O7 1.773567 1_555
O0 Si2 1.619253 1_555
O1 Si0 1.631155 1_555
O2 Si0 1.640026 1_655
O3 S0 1.508332 1_555
O4 S0 1.504832 1_555
O5 Si0 1.641425 1_555
O7 Si1 1.626846 1_555
O8 Si5 1.634043 1_555
O9 Si3 1.651463 1_555
O10 Si1 1.646066 1_555
O11 Si0 1.623105 1_555
O12 S0 1.479150 1_555
O13 Si1 1.630461 1_565
O14 S1 1.498187 1_555
O15 S1 1.497155 1_554
O16 S1 1.497783 1_455
O17 Si4 1.630603 1_555
O18 Si2 1.637926 1_545
O19 Si3 1.665808 1_545
O19 Si1 1.667738 1_655
O21 Si2 1.658151 1_555
O22 Si4 1.618825 1_555
O23 S1 1.500914 1_565
O24 Si3 1.624475 1_555
O25 Si2 1.633178 1_555
O26 S0 1.492845 1_555
O27 Si3 1.623509 1_555
O28 Si5 1.663995 1_555
O28 Si4 1.664020 1_555
O29 Si5 1.630848 1_555
O30 Si4 1.628585 1_555
O31 Si5 1.621607 1_555
