# generated using pymatgen
data_LiVPO5
_symmetry_space_group_name_H-M   'P 1'
_cell_length_a   10.44463000
_cell_length_b   8.59316900
_cell_length_c   9.30783407
_cell_angle_alpha   89.92455632
_cell_angle_beta   90.00000000
_cell_angle_gamma   90.00000000
_symmetry_Int_Tables_number   1
_chemical_formula_structural   LiVPO5
_chemical_formula_sum   'Li8 V8 P8 O40'
_cell_volume   835.40038065
_cell_formula_units_Z   8
loop_
 _symmetry_equiv_pos_site_id
 _symmetry_equiv_pos_as_xyz
  1  'x, y, z'
loop_
 _atom_site_type_symbol
 _atom_site_label
 _atom_site_symmetry_multiplicity
 _atom_site_fract_x
 _atom_site_fract_y
 _atom_site_fract_z
 _atom_site_occupancy
  Li  Li0  1  0.00113300  0.24865100  0.18924600  1
  Li  Li1  1  0.89282300  0.03741800  0.86006300  1
  Li  Li2  1  0.39282300  0.96258200  0.13993700  1
  Li  Li3  1  0.50113300  0.75134900  0.81075400  1
  Li  Li4  1  0.95170400  0.68524600  0.46182800  1
  Li  Li5  1  0.60232700  0.54122900  0.13478300  1
  Li  Li6  1  0.10232700  0.45877100  0.86521700  1
  Li  Li7  1  0.45170400  0.31475400  0.53817200  1
  V  V0  1  0.37730300  0.11473000  0.84495900  1
  V  V1  1  0.09904700  0.09509600  0.64117900  1
  V  V2  1  0.59904700  0.90490400  0.35882100  1
  V  V3  1  0.87730300  0.88527000  0.15504100  1
  V  V4  1  0.10729500  0.61060600  0.16212700  1
  V  V5  1  0.38956100  0.60693400  0.35374900  1
  V  V6  1  0.88956100  0.39306600  0.64625100  1
  V  V7  1  0.60729500  0.38939400  0.83787300  1
  P  P0  1  0.85743900  0.09778600  0.44235600  1
  P  P1  1  0.62537900  0.07938100  0.04179500  1
  P  P2  1  0.12537900  0.92061900  0.95820500  1
  P  P3  1  0.35743900  0.90221400  0.55764400  1
  P  P4  1  0.64762900  0.60152000  0.55474400  1
  P  P5  1  0.87155300  0.57499700  0.95508000  1
  P  P6  1  0.37155300  0.42500300  0.04492000  1
  P  P7  1  0.14762900  0.39848000  0.44525600  1
  O  O0  1  0.01251900  0.24764300  0.73086000  1
  O  O1  1  0.49926700  0.26644000  0.74890200  1
  O  O2  1  0.36956800  0.24862500  0.01307300  1
  O  O3  1  0.13241400  0.22343700  0.47081000  1
  O  O4  1  0.25193100  0.17915800  0.74290900  1
  O  O5  1  0.90699100  0.07301700  0.28663300  1
  O  O6  1  0.57200600  0.05337400  0.19562800  1
  O  O7  1  0.71551700  0.04923900  0.45254300  1
  O  O8  1  0.43923800  0.99713500  0.44742700  1
  O  O9  1  0.26396200  0.98117000  0.97861400  1
  O  O10  1  0.02808100  0.00798500  0.05830700  1
  O  O11  1  0.52808100  0.99201500  0.94169300  1
  O  O12  1  0.76396200  0.01883000  0.02138600  1
  O  O13  1  0.93923800  0.00286500  0.55257300  1
  O  O14  1  0.21551700  0.95076100  0.54745700  1
  O  O15  1  0.07200600  0.94662600  0.80437200  1
  O  O16  1  0.40699100  0.92698300  0.71336700  1
  O  O17  1  0.75193100  0.82084200  0.25709100  1
  O  O18  1  0.63241400  0.77656300  0.52919000  1
  O  O19  1  0.86956800  0.75137500  0.98692700  1
  O  O20  1  0.51251900  0.75235700  0.26914000  1
  O  O21  1  0.99926700  0.73356000  0.25109800  1
  O  O22  1  0.12719600  0.74623700  0.99206600  1
  O  O23  1  0.36637800  0.72610600  0.52855300  1
  O  O24  1  0.25999900  0.67973800  0.25851800  1
  O  O25  1  0.60406000  0.57619500  0.71457500  1
  O  O26  1  0.92566900  0.55063400  0.80148400  1
  O  O27  1  0.79220500  0.56180200  0.53799500  1
  O  O28  1  0.05824900  0.49747200  0.54322000  1
  O  O29  1  0.23374400  0.48382100  0.02330900  1
  O  O30  1  0.46891200  0.51410300  0.94471900  1
  O  O31  1  0.96891200  0.48589700  0.05528100  1
  O  O32  1  0.73374400  0.51617900  0.97669100  1
  O  O33  1  0.55824900  0.50252800  0.45678000  1
  O  O34  1  0.29220500  0.43819800  0.46200500  1
  O  O35  1  0.42566900  0.44936600  0.19851600  1
  O  O36  1  0.10406000  0.42380500  0.28542500  1
  O  O37  1  0.75999900  0.32026200  0.74148200  1
  O  O38  1  0.86637800  0.27389400  0.47144700  1
  O  O39  1  0.62719600  0.25376300  0.00793400  1
loop_
_geom_bond_atom_site_label_1
_geom_bond_atom_site_label_2
_geom_bond_distance
_geom_bond_site_symmetry_2
Li0 O5 2.015627 1_455
Li0 O36 2.055741 1_555
Li0 O31 2.411982 1_455
Li0 O10 2.418305 1_555
Li1 O12 2.022634 1_556
Li1 O15 2.093078 1_645
Li1 O10 2.337384 1_656
Li1 O0 2.503381 1_655
Li2 O9 2.022634 1_554
Li2 O6 2.093078 1_565
Li2 O11 2.337384 1_554
Li2 O20 2.503381 1_555
Li3 O16 2.015627 1_555
Li3 O25 2.055741 1_555
Li3 O30 2.411982 1_555
Li3 O11 2.418305 1_555
Li4 O21 2.065008 1_555
Li4 O27 2.097885 1_555
Li4 O28 2.100645 1_655
Li5 O32 2.023982 1_554
Li5 O35 2.092441 1_555
Li5 O30 2.264252 1_554
Li5 O20 2.396102 1_555
Li6 O29 2.023982 1_556
Li6 O26 2.092441 1_455
Li6 O31 2.264252 1_456
Li6 O0 2.396102 1_555
Li7 O1 2.065008 1_555
Li7 O34 2.097885 1_555
Li7 O33 2.100645 1_555
O0 V1 1.798553 1_555
O0 V6 1.956660 1_455
O1 V7 1.754285 1_555
O1 V0 2.029436 1_555
O2 P6 1.544883 1_555
O2 V0 1.945157 1_554
O3 P7 1.530825 1_555
O3 V1 1.961580 1_555
O4 V0 1.709407 1_555
O4 V1 1.992491 1_555
O5 P0 1.553983 1_555
O5 V3 2.050475 1_545
O6 P1 1.552438 1_555
O6 V2 2.002419 1_545
O7 P0 1.542790 1_555
O7 V2 1.944740 1_545
O8 P3 1.563804 1_555
O8 V2 2.023881 1_555
O9 P2 1.549900 1_555
O9 V0 2.064580 1_565
O10 P2 1.570459 1_544
O10 V3 2.097676 1_445
O11 P1 1.570459 1_566
O11 V0 2.097676 1_565
O12 P1 1.549900 1_555
O12 V3 2.064580 1_545
O13 P0 1.563804 1_555
O13 V1 2.023881 1_655
O14 P3 1.542790 1_555
O14 V1 1.944740 1_565
O15 P2 1.552438 1_555
O15 V1 2.002419 1_565
O16 P3 1.553983 1_555
O16 V0 2.050475 1_565
O17 V3 1.709407 1_555
O17 V2 1.992491 1_555
O18 P4 1.530825 1_555
O18 V2 1.961580 1_555
O19 P5 1.544883 1_555
O19 V3 1.945157 1_556
O20 V2 1.798553 1_555
O20 V5 1.956660 1_555
O21 V4 1.754285 1_655
O21 V3 2.029436 1_555
O22 P2 1.530991 1_555
O22 V4 1.975426 1_556
O23 P3 1.540542 1_555
O23 V5 1.938816 1_555
O24 V5 1.734029 1_555
O24 V4 1.924342 1_555
O25 P4 1.570599 1_555
O25 V7 1.972326 1_555
O26 P5 1.551767 1_555
O26 V6 2.017030 1_555
O27 P4 1.556008 1_555
O27 V6 2.036635 1_555
O28 P7 1.558395 1_555
O28 V6 2.196946 1_455
O29 P6 1.538644 1_555
O29 V4 2.145804 1_555
O30 P6 1.577412 1_556
O30 V7 2.056534 1_555
O31 P5 1.577412 1_554
O31 V4 2.056534 1_655
O32 P5 1.538644 1_555
O32 V7 2.145804 1_555
O33 P4 1.558395 1_555
O33 V5 2.196946 1_555
O34 P7 1.556008 1_555
O34 V5 2.036635 1_555
O35 P6 1.551767 1_555
O35 V5 2.017030 1_555
O36 P7 1.570599 1_555
O36 V4 1.972326 1_555
O37 V6 1.734029 1_555
O37 V7 1.924342 1_555
O38 P0 1.540542 1_555
O38 V6 1.938816 1_555
O39 P1 1.530991 1_555
O39 V7 1.975426 1_554
