# generated using pymatgen
data_LiNi7O7F
_symmetry_space_group_name_H-M   'P 1'
_cell_length_a   2.98097900
_cell_length_b   5.19270700
_cell_length_c   9.89749973
_cell_angle_alpha   80.50222823
_cell_angle_beta   90.00000000
_cell_angle_gamma   90.00000000
_symmetry_Int_Tables_number   1
_chemical_formula_structural   LiNi7O7F
_chemical_formula_sum   'Li1 Ni7 O7 F1'
_cell_volume   151.10671089
_cell_formula_units_Z   1
loop_
 _symmetry_equiv_pos_site_id
 _symmetry_equiv_pos_as_xyz
  1  'x, y, z'
loop_
 _atom_site_type_symbol
 _atom_site_label
 _atom_site_symmetry_multiplicity
 _atom_site_fract_x
 _atom_site_fract_y
 _atom_site_fract_z
 _atom_site_occupancy
  Li  Li0  1  0.50000000  0.25201800  0.26877600  1
  Ni  Ni0  1  0.50000000  0.99767400  0.99280500  1
  Ni  Ni1  1  0.00000000  0.00013200  0.49360900  1
  Ni  Ni2  1  0.50000000  0.75027800  0.74405300  1
  Ni  Ni3  1  0.50000000  0.49554000  0.49668500  1
  Ni  Ni4  1  0.00000000  0.72802800  0.25637900  1
  Ni  Ni5  1  0.00000000  0.51304800  0.99863500  1
  Ni  Ni6  1  0.00000000  0.25287700  0.74527000  1
  O  O0  1  0.50000000  0.86619000  0.37256200  1
  O  O1  1  0.00000000  0.87889700  0.87447400  1
  O  O2  1  0.50000000  0.64507600  0.11857200  1
  O  O3  1  0.50000000  0.37051500  0.88139900  1
  O  O4  1  0.00000000  0.62393000  0.62774000  1
  O  O5  1  0.00000000  0.37298600  0.37871800  1
  O  O6  1  0.50000000  0.12119500  0.62631100  1
  F  F0  1  0.00000000  0.13161500  0.12401300  1
loop_
_geom_bond_atom_site_label_1
_geom_bond_atom_site_label_2
_geom_bond_distance
_geom_bond_site_symmetry_2
Li0 O5 2.006435 1_655
Li0 O5 2.006435 1_555
Li0 O0 2.095227 1_545
Li0 O2 2.318310 1_555
Ni0 O2 2.037071 1_556
Ni0 O1 2.052322 1_555
Ni0 O1 2.052322 1_655
Ni0 O3 2.063882 1_565
Ni1 O5 2.077273 1_555
Ni1 O0 2.101347 1_545
Ni1 O0 2.101347 1_445
Ni1 O6 2.148094 1_455
Ni1 O6 2.148094 1_555
Ni1 O4 2.173186 1_545
Ni2 O4 2.055858 1_555
Ni2 O4 2.055858 1_655
Ni2 O6 2.080150 1_565
Ni2 O1 2.149050 1_555
Ni2 O1 2.149050 1_655
Ni2 O3 2.202729 1_555
Ni3 O5 2.057912 1_555
Ni3 O5 2.057912 1_655
Ni3 O0 2.105538 1_555
Ni3 O6 2.145131 1_555
Ni3 O4 2.152659 1_655
Ni3 O4 2.152659 1_555
Ni4 O5 2.031848 1_555
Ni4 O0 2.081070 1_455
Ni4 O0 2.081070 1_555
Ni4 O2 2.112187 1_455
Ni4 O2 2.112187 1_555
Ni5 O1 2.085364 1_555
Ni5 O2 2.090291 1_456
Ni5 O2 2.090291 1_556
Ni5 O3 2.097421 1_455
Ni5 O3 2.097421 1_555
Ni6 O4 2.079885 1_555
Ni6 O6 2.083526 1_555
Ni6 O6 2.083526 1_455
Ni6 O1 2.141728 1_545
Ni6 O3 2.163710 1_455
Ni6 O3 2.163710 1_555
F0 Ni5 2.156807 1_554
F0 Ni0 2.165600 1_544
F0 Ni0 2.165600 1_444
F0 Li0 2.227326 1_455
F0 Li0 2.227326 1_555
F0 Ni4 2.280844 1_545
