# generated using pymatgen
data_K3Ti8O17
_symmetry_space_group_name_H-M   'P 1'
_cell_length_a   7.60500736
_cell_length_b   8.05706554
_cell_length_c   12.07939017
_cell_angle_alpha   94.75420456
_cell_angle_beta   90.00336256
_cell_angle_gamma   103.64341764
_symmetry_Int_Tables_number   1
_chemical_formula_structural   K3Ti8O17
_chemical_formula_sum   'K6 Ti16 O34'
_cell_volume   716.64618469
_cell_formula_units_Z   2
loop_
 _symmetry_equiv_pos_site_id
 _symmetry_equiv_pos_as_xyz
  1  'x, y, z'
loop_
 _atom_site_type_symbol
 _atom_site_label
 _atom_site_symmetry_multiplicity
 _atom_site_fract_x
 _atom_site_fract_y
 _atom_site_fract_z
 _atom_site_occupancy
  K  K0  1  0.25628430  0.02565024  0.56000713  1
  K  K1  1  0.77855074  0.11434303  0.82004330  1
  K  K2  1  0.27996857  0.11848660  0.83990840  1
  K  K3  1  0.72003143  0.88151340  0.16009160  1
  K  K4  1  0.22144926  0.88565697  0.17995670  1
  K  K5  1  0.74371570  0.97434976  0.43999287  1
  Ti  Ti0  1  0.55621007  0.22126001  0.07164562  1
  Ti  Ti1  1  0.05448599  0.22115114  0.07148620  1
  Ti  Ti2  1  0.07652630  0.30162396  0.32517753  1
  Ti  Ti3  1  0.57458134  0.30182532  0.32522123  1
  Ti  Ti4  1  0.09784352  0.39495449  0.57765898  1
  Ti  Ti5  1  0.59959203  0.39457297  0.57721092  1
  Ti  Ti6  1  0.62128542  0.48641833  0.83066017  1
  Ti  Ti7  1  0.12179075  0.48615302  0.83047230  1
  Ti  Ti8  1  0.37871458  0.51358167  0.16933983  1
  Ti  Ti9  1  0.87820925  0.51384698  0.16952770  1
  Ti  Ti10  1  0.90215648  0.60504551  0.42234102  1
  Ti  Ti11  1  0.40040797  0.60542703  0.42278908  1
  Ti  Ti12  1  0.42541866  0.69817468  0.67477877  1
  Ti  Ti13  1  0.92347370  0.69837604  0.67482247  1
  Ti  Ti14  1  0.94551401  0.77884886  0.92851380  1
  Ti  Ti15  1  0.44378993  0.77873999  0.92835438  1
  O  O0  1  -0.00000000  -0.00000000  0.00000000  1
  O  O1  1  0.50000000  -0.00000000  0.00000000  1
  O  O2  1  0.53558514  0.12145582  0.22720249  1
  O  O3  1  0.02536348  0.12165026  0.22689152  1
  O  O4  1  0.55228207  0.21312664  0.46571338  1
  O  O5  1  0.05449792  0.21356317  0.46564077  1
  O  O6  1  0.56863872  0.29997170  0.70834861  1
  O  O7  1  0.08125254  0.29939114  0.70817775  1
  O  O8  1  0.58679874  0.34563687  0.93670756  1
  O  O9  1  0.08590146  0.34521212  0.93630018  1
  O  O10  1  0.31799565  0.27251265  0.08905085  1
  O  O11  1  0.81891126  0.27484794  0.08854336  1
  O  O12  1  0.84245774  0.36967021  0.32655396  1
  O  O13  1  0.34255775  0.36991380  0.32506108  1
  O  O14  1  0.86324696  0.45290917  0.56745257  1
  O  O15  1  0.36320690  0.45291654  0.56613077  1
  O  O16  1  0.88555157  0.54226342  0.81194609  1
  O  O17  1  0.38613934  0.54466511  0.81303240  1
  O  O18  1  0.61386066  0.45533489  0.18696760  1
  O  O19  1  0.11444843  0.45773658  0.18805391  1
  O  O20  1  0.63679310  0.54708346  0.43386923  1
  O  O21  1  0.13675304  0.54709083  0.43254743  1
  O  O22  1  0.65744225  0.63008620  0.67493892  1
  O  O23  1  0.15754226  0.63032979  0.67344604  1
  O  O24  1  0.68200435  0.72748735  0.91094915  1
  O  O25  1  0.18108874  0.72515206  0.91145664  1
  O  O26  1  0.91409854  0.65478788  0.06369982  1
  O  O27  1  0.41320126  0.65436313  0.06329244  1
  O  O28  1  0.91874746  0.70060886  0.29182225  1
  O  O29  1  0.43136128  0.70002830  0.29165139  1
  O  O30  1  0.94550208  0.78643683  0.53435923  1
  O  O31  1  0.44771793  0.78687336  0.53428662  1
  O  O32  1  0.46441486  0.87854418  0.77279751  1
  O  O33  1  0.97463652  0.87834974  0.77310848  1
loop_
_geom_bond_atom_site_label_1
_geom_bond_atom_site_label_2
_geom_bond_distance
_geom_bond_site_symmetry_2
K0 O31 2.671982 1_545
K0 O30 2.673717 1_445
K0 O4 2.706969 1_555
K0 O5 2.707126 1_555
K1 O33 2.705481 1_545
K1 O32 2.705807 1_545
K1 O7 2.839615 1_655
K1 O6 2.840119 1_555
K1 O9 2.900189 1_655
K1 O8 2.903838 1_555
K1 O1 3.077882 1_556
K1 O0 3.077946 1_656
K2 O32 2.716949 1_545
K2 O33 2.721763 1_445
K2 O9 2.791137 1_555
K2 O8 2.791406 1_555
K2 O6 2.890379 1_555
K2 O7 2.891995 1_555
K2 O1 2.917242 1_556
K2 O0 2.920945 1_556
K3 O2 2.716949 1_565
K3 O3 2.721763 1_665
K3 O26 2.791137 1_555
K3 O27 2.791406 1_555
K3 O29 2.890379 1_555
K3 O28 2.891995 1_555
K3 O1 2.917242 1_565
K3 O0 2.920945 1_665
K4 O3 2.705481 1_565
K4 O2 2.705807 1_565
K4 O28 2.839615 1_455
K4 O29 2.840119 1_555
K4 O26 2.900189 1_455
K4 O27 2.903838 1_555
K4 O1 3.077882 1_565
K4 O0 3.077946 1_565
K5 O4 2.671982 1_565
K5 O5 2.673717 1_665
K5 O31 2.706969 1_555
K5 O30 2.707126 1_555
O0 Ti1 1.867850 1_555
O0 Ti14 1.867850 1_444
O1 Ti15 1.869348 1_544
O1 Ti0 1.869348 1_555
O2 Ti3 1.764419 1_555
O2 Ti0 2.095945 1_555
O3 Ti2 1.764086 1_555
O3 Ti1 2.093175 1_555
O4 Ti5 1.872440 1_555
O4 Ti3 1.887695 1_555
O5 Ti4 1.876265 1_555
O5 Ti2 1.885155 1_555
O6 Ti5 1.805871 1_555
O6 Ti6 1.986980 1_555
O7 Ti4 1.802720 1_555
O7 Ti7 1.988517 1_555
O8 Ti6 1.759793 1_555
O8 Ti0 1.968749 1_556
O9 Ti7 1.758582 1_555
O9 Ti1 1.969960 1_556
O10 Ti1 1.956124 1_555
O10 Ti0 1.958387 1_555
O10 Ti8 2.047185 1_555
O11 Ti1 1.946842 1_655
O11 Ti0 1.948813 1_555
O11 Ti9 2.036273 1_555
O12 Ti3 1.980517 1_555
O12 Ti2 1.982042 1_655
O12 Ti10 2.090784 1_555
O12 Ti9 2.288540 1_555
O13 Ti2 1.967470 1_555
O13 Ti3 1.967589 1_555
O13 Ti11 2.102996 1_555
O13 Ti8 2.272569 1_555
O14 Ti4 1.954177 1_655
O14 Ti5 1.954441 1_555
O14 Ti10 2.201749 1_555
O14 Ti13 2.225031 1_555
O15 Ti4 1.968851 1_555
O15 Ti5 1.969700 1_555
O15 Ti11 2.185570 1_555
O15 Ti12 2.231602 1_555
O16 Ti7 1.970311 1_655
O16 Ti6 1.970519 1_555
O16 Ti13 2.140816 1_555
O16 Ti14 2.229143 1_555
O17 Ti6 1.968754 1_555
O17 Ti7 1.969170 1_555
O17 Ti12 2.139185 1_555
O17 Ti15 2.205430 1_555
O18 Ti8 1.968754 1_555
O18 Ti9 1.969170 1_555
O18 Ti3 2.139185 1_555
O18 Ti0 2.205430 1_555
O19 Ti9 1.970311 1_455
O19 Ti8 1.970519 1_555
O19 Ti2 2.140816 1_555
O19 Ti1 2.229143 1_555
O20 Ti10 1.968851 1_555
O20 Ti11 1.969700 1_555
O20 Ti5 2.185570 1_555
O20 Ti3 2.231602 1_555
O21 Ti10 1.954177 1_455
O21 Ti11 1.954441 1_555
O21 Ti4 2.201749 1_555
O21 Ti2 2.225031 1_555
O22 Ti13 1.967470 1_555
O22 Ti12 1.967589 1_555
O22 Ti5 2.102996 1_555
O22 Ti6 2.272569 1_555
O23 Ti12 1.980517 1_555
O23 Ti13 1.982042 1_455
O23 Ti4 2.090784 1_555
O23 Ti7 2.288540 1_555
O24 Ti14 1.956124 1_555
O24 Ti15 1.958387 1_555
O24 Ti6 2.047185 1_555
O25 Ti14 1.946842 1_455
O25 Ti15 1.948813 1_555
O25 Ti7 2.036273 1_555
O26 Ti9 1.758582 1_555
O26 Ti14 1.969960 1_554
O27 Ti8 1.759793 1_555
O27 Ti15 1.968749 1_554
O28 Ti10 1.802720 1_555
O28 Ti9 1.988517 1_555
O29 Ti11 1.805871 1_555
O29 Ti8 1.986980 1_555
O30 Ti10 1.876265 1_555
O30 Ti13 1.885155 1_555
O31 Ti11 1.872440 1_555
O31 Ti12 1.887695 1_555
O32 Ti12 1.764419 1_555
O32 Ti15 2.095945 1_555
O33 Ti13 1.764086 1_555
O33 Ti14 2.093175 1_555
