# generated using pymatgen
data_Li9Mn14O32
_symmetry_space_group_name_H-M   'P 1'
_cell_length_a   5.87159718
_cell_length_b   5.87159718
_cell_length_c   19.43612154
_cell_angle_alpha   81.12011535
_cell_angle_beta   81.12011535
_cell_angle_gamma   59.92842711
_symmetry_Int_Tables_number   1
_chemical_formula_structural   Li9Mn14O32
_chemical_formula_sum   'Li9 Mn14 O32'
_cell_volume   570.60200591
_cell_formula_units_Z   1
loop_
 _symmetry_equiv_pos_site_id
 _symmetry_equiv_pos_as_xyz
  1  'x, y, z'
loop_
 _atom_site_type_symbol
 _atom_site_label
 _atom_site_symmetry_multiplicity
 _atom_site_fract_x
 _atom_site_fract_y
 _atom_site_fract_z
 _atom_site_occupancy
  Li  Li0  1  0.09473700  0.09473700  0.22263200  1
  Li  Li1  1  0.39906600  0.39906600  0.28271100  1
  Li  Li2  1  0.35162800  0.35162800  0.46632900  1
  Li  Li3  1  0.87506200  0.87506200  0.37536200  1
  Li  Li4  1  0.65398900  0.65398900  0.52819100  1
  Li  Li5  1  0.24994700  0.24994700  0.74958600  1
  Li  Li6  1  0.59516700  0.59516700  0.71440500  1
  Li  Li7  1  0.90519800  0.90519800  0.78511000  1
  Li  Li8  1  0.84379600  0.84379600  0.96765000  1
  Mn  Mn0  1  0.49959400  0.49959400  0.00063800  1
  Mn  Mn1  1  0.12501900  0.62470500  0.12494800  1
  Mn  Mn2  1  0.62470500  0.12501900  0.12494800  1
  Mn  Mn3  1  0.62571500  0.62571500  0.12452900  1
  Mn  Mn4  1  0.37471800  0.87483700  0.37538900  1
  Mn  Mn5  1  0.75018800  0.75018800  0.25337500  1
  Mn  Mn6  1  0.87483700  0.37471800  0.37538900  1
  Mn  Mn7  1  0.12693100  0.62077300  0.62544800  1
  Mn  Mn8  1  0.12634400  0.12634400  0.62574300  1
  Mn  Mn9  1  0.62077300  0.12693100  0.62544800  1
  Mn  Mn10  1  0.99977200  0.99977200  0.49756100  1
  Mn  Mn11  1  0.37238500  0.37238500  0.87440400  1
  Mn  Mn12  1  0.37240500  0.88117500  0.87431900  1
  Mn  Mn13  1  0.88117500  0.37240500  0.87431900  1
  O  O0  1  0.33210700  0.33210700  0.06532800  1
  O  O1  1  0.33087600  0.76977300  0.06593500  1
  O  O2  1  0.76977300  0.33087600  0.06593500  1
  O  O3  1  0.44058300  0.44058300  0.17881600  1
  O  O4  1  0.02152900  0.56525200  0.31090400  1
  O  O5  1  0.47483600  0.92090200  0.18249200  1
  O  O6  1  0.81118100  0.81118100  0.07040100  1
  O  O7  1  0.06927500  0.06927500  0.32355700  1
  O  O8  1  0.91997900  0.91997900  0.18516400  1
  O  O9  1  0.17306600  0.17306600  0.43439900  1
  O  O10  1  0.18514200  0.72778600  0.43921900  1
  O  O11  1  0.92090200  0.47483600  0.18249200  1
  O  O12  1  0.57722000  0.57722000  0.31585900  1
  O  O13  1  0.56525200  0.02152900  0.31090400  1
  O  O14  1  0.27272000  0.83141900  0.56680100  1
  O  O15  1  0.68085900  0.68085900  0.42693000  1
  O  O16  1  0.72778600  0.18514200  0.43921900  1
  O  O17  1  0.30917400  0.30917400  0.57217200  1
  O  O18  1  0.42691800  0.42691800  0.67719500  1
  O  O19  1  0.42810900  0.96745200  0.67724600  1
  O  O20  1  0.83141900  0.27272000  0.56680100  1
  O  O21  1  0.07218000  0.07218000  0.82283800  1
  O  O22  1  0.83108600  0.83108600  0.56511100  1
  O  O23  1  0.07235200  0.53340300  0.82282400  1
  O  O24  1  0.53340300  0.07235200  0.82282400  1
  O  O25  1  0.93988000  0.93988000  0.67780800  1
  O  O26  1  0.19066300  0.19066300  0.92696600  1
  O  O27  1  0.55957400  0.55957400  0.82240100  1
  O  O28  1  0.96745200  0.42810900  0.67724600  1
  O  O29  1  0.22774500  0.66875900  0.93487900  1
  O  O30  1  0.66879900  0.66879900  0.93476900  1
  O  O31  1  0.66875900  0.22774500  0.93487900  1
loop_
_geom_bond_atom_site_label_1
_geom_bond_atom_site_label_2
_geom_bond_distance
_geom_bond_site_symmetry_2
Li0 O7 1.932321 1_555
Li0 O11 2.014138 1_455
Li0 O5 2.014138 1_545
Li0 O8 2.037814 1_445
Li1 O13 1.946458 1_555
Li1 O4 1.946458 1_555
Li1 O3 1.987988 1_555
Li1 O12 2.028848 1_555
Li2 O10 1.935813 1_555
Li2 O16 1.935813 1_555
Li2 O9 2.021627 1_555
Li2 O17 2.025313 1_555
Li3 O15 2.049983 1_555
Li3 O7 2.051538 1_665
Li3 O16 2.095586 1_565
Li3 O10 2.095586 1_655
Li3 O4 2.102701 1_655
Li3 O13 2.102701 1_565
Li4 O15 1.938170 1_555
Li4 O20 2.011347 1_555
Li4 O14 2.011347 1_555
Li4 O22 2.054703 1_555
Li5 O18 2.078090 1_555
Li5 O28 2.085535 1_455
Li5 O19 2.085535 1_545
Li5 O21 2.092895 1_555
Li5 O23 2.101790 1_555
Li5 O24 2.101790 1_555
Li6 O28 1.960738 1_555
Li6 O19 1.960738 1_555
Li6 O18 1.973343 1_555
Li6 O27 2.065469 1_555
Li7 O23 1.961399 1_655
Li7 O24 1.961399 1_565
Li7 O21 1.966611 1_665
Li7 O25 2.052248 1_555
Li8 O6 1.965271 1_556
Li8 O31 1.995265 1_565
Li8 O29 1.995265 1_655
Li8 O30 1.995872 1_555
Mn0 O0 1.928940 1_555
Mn0 O1 1.940909 1_555
Mn0 O2 1.940909 1_555
Mn0 O30 1.953699 1_554
Mn0 O31 1.953706 1_554
Mn0 O29 1.953706 1_554
Mn1 O11 1.949582 1_455
Mn1 O1 1.950444 1_555
Mn1 O0 1.964424 1_555
Mn1 O8 1.981071 1_455
Mn1 O3 1.984958 1_555
Mn1 O6 1.985258 1_455
Mn2 O5 1.949582 1_545
Mn2 O2 1.950444 1_555
Mn2 O0 1.964424 1_555
Mn2 O8 1.981071 1_545
Mn2 O3 1.984958 1_555
Mn2 O6 1.985258 1_545
Mn3 O5 1.952937 1_555
Mn3 O11 1.952937 1_555
Mn3 O1 1.962952 1_555
Mn3 O2 1.962952 1_555
Mn3 O3 1.988091 1_555
Mn3 O6 1.989876 1_555
Mn4 O15 1.919326 1_555
Mn4 O7 1.919760 1_565
Mn4 O10 1.931261 1_555
Mn4 O13 1.940054 1_565
Mn4 O9 1.976516 1_565
Mn4 O12 1.980757 1_555
Mn5 O4 1.846356 1_655
Mn5 O13 1.846356 1_565
Mn5 O12 1.951889 1_555
Mn5 O8 1.981258 1_555
Mn5 O11 2.038112 1_555
Mn5 O5 2.038112 1_555
Mn6 O15 1.919326 1_555
Mn6 O7 1.919760 1_655
Mn6 O16 1.931261 1_555
Mn6 O4 1.940054 1_655
Mn6 O9 1.976516 1_655
Mn6 O12 1.980757 1_555
Mn7 O28 1.894477 1_455
Mn7 O18 1.895770 1_555
Mn7 O17 1.960976 1_555
Mn7 O14 1.971383 1_555
Mn7 O25 1.983397 1_455
Mn7 O22 1.987396 1_455
Mn8 O19 1.901183 1_545
Mn8 O28 1.901183 1_455
Mn8 O17 1.963082 1_555
Mn8 O14 1.966406 1_545
Mn8 O20 1.966406 1_455
Mn8 O25 1.984582 1_445
Mn9 O19 1.894477 1_545
Mn9 O18 1.895770 1_555
Mn9 O17 1.960976 1_555
Mn9 O20 1.971383 1_555
Mn9 O25 1.983397 1_545
Mn9 O22 1.987396 1_545
Mn10 O16 1.859287 1_565
Mn10 O10 1.859287 1_655
Mn10 O9 1.960617 1_665
Mn10 O22 1.966199 1_555
Mn10 O20 2.006034 1_565
Mn10 O14 2.006034 1_655
Mn11 O23 1.893635 1_555
Mn11 O24 1.893635 1_555
Mn11 O26 1.946416 1_555
Mn11 O27 1.990559 1_555
Mn11 O31 1.993311 1_555
Mn11 O29 1.993311 1_555
Mn12 O24 1.892053 1_565
Mn12 O21 1.892949 1_565
Mn12 O26 1.944625 1_565
Mn12 O27 1.989454 1_555
Mn12 O29 1.990540 1_555
Mn12 O30 1.992027 1_555
Mn13 O23 1.892053 1_655
Mn13 O21 1.892949 1_655
Mn13 O26 1.944625 1_655
Mn13 O27 1.989454 1_555
Mn13 O31 1.990540 1_555
Mn13 O30 1.992027 1_555
