# generated using pymatgen
data_Li5Mn6(BO3)6
_symmetry_space_group_name_H-M   'P 1'
_cell_length_a   5.29730100
_cell_length_b   5.93024738
_cell_length_c   13.24580739
_cell_angle_alpha   97.77036803
_cell_angle_beta   90.74756336
_cell_angle_gamma   113.16558958
_symmetry_Int_Tables_number   1
_chemical_formula_structural   Li5Mn6(BO3)6
_chemical_formula_sum   'Li5 Mn6 B6 O18'
_cell_volume   378.04180011
_cell_formula_units_Z   1
loop_
 _symmetry_equiv_pos_site_id
 _symmetry_equiv_pos_as_xyz
  1  'x, y, z'
loop_
 _atom_site_type_symbol
 _atom_site_label
 _atom_site_symmetry_multiplicity
 _atom_site_fract_x
 _atom_site_fract_y
 _atom_site_fract_z
 _atom_site_occupancy
  Li  Li0  1  0.26007300  0.69744900  0.35442900  1
  Li  Li1  1  0.39796100  0.65667600  0.97898300  1
  Li  Li2  1  0.60254100  0.34161200  0.02248500  1
  Li  Li3  1  0.73501300  0.32424600  0.64287800  1
  Li  Li4  1  0.93873200  0.01265800  0.68704000  1
  Mn  Mn0  1  0.56245400  0.96192300  0.20434300  1
  Mn  Mn1  1  0.11528600  0.37808000  0.13759700  1
  Mn  Mn2  1  0.77941300  0.71921600  0.46320900  1
  Mn  Mn3  1  0.22793700  0.28978100  0.52591400  1
  Mn  Mn4  1  0.88546800  0.62205500  0.86214600  1
  Mn  Mn5  1  0.44820800  0.04106500  0.80278400  1
  B  B0  1  0.34797000  0.83750800  0.57677600  1
  B  B1  1  0.98416200  0.82686500  0.08739000  1
  B  B2  1  0.67660700  0.50183900  0.24589000  1
  B  B3  1  0.32017000  0.49158100  0.75351700  1
  B  B4  1  0.01478000  0.17330800  0.91135200  1
  B  B5  1  0.65598600  0.16522400  0.42652600  1
  O  O0  1  0.12214700  0.90146800  0.57276200  1
  O  O1  1  0.21260300  0.76478000  0.09573700  1
  O  O2  1  0.95348100  0.00461200  0.15920900  1
  O  O3  1  0.55455300  0.94984900  0.65385700  1
  O  O4  1  0.77922900  0.70323400  0.00930600  1
  O  O5  1  0.37029200  0.66755100  0.49622800  1
  O  O6  1  0.46278800  0.58393900  0.24062200  1
  O  O7  1  0.29507900  0.65824300  0.83451000  1
  O  O8  1  0.87288000  0.58735300  0.32580600  1
  O  O9  1  0.11498300  0.38165900  0.67537700  1
  O  O10  1  0.69403300  0.32981300  0.16514500  1
  O  O11  1  0.54883200  0.43093200  0.75497800  1
  O  O12  1  0.64327900  0.35516400  0.50173500  1
  O  O13  1  0.22298500  0.28688800  0.98822500  1
  O  O14  1  0.45776500  0.05488300  0.34885000  1
  O  O15  1  0.03926400  0.00566300  0.83048700  1
  O  O16  1  0.78407100  0.23026400  0.91005800  1
  O  O17  1  0.86340200  0.08368500  0.44342700  1
loop_
_geom_bond_atom_site_label_1
_geom_bond_atom_site_label_2
_geom_bond_distance
_geom_bond_site_symmetry_2
Li0 O8 1.906856 1_455
Li0 O14 1.973083 1_565
Li0 O5 2.010723 1_555
Li0 O6 2.053115 1_555
Li1 O4 1.956225 1_556
Li1 O7 1.985142 1_555
Li1 O1 2.008375 1_556
Li1 O13 2.039463 1_555
Li2 O13 1.943412 1_554
Li2 O10 1.961911 1_555
Li2 O16 1.962005 1_554
Li2 O4 2.007909 1_555
Li3 O9 1.936809 1_655
Li3 O11 1.962879 1_555
Li3 O12 1.975872 1_555
Li3 O3 2.070169 1_545
Li4 O3 1.951819 1_545
Li4 O15 1.976838 1_655
Li4 O0 1.985609 1_645
Li4 O9 2.042500 1_655
Mn0 O14 2.063535 1_565
Mn0 O2 2.091126 1_565
Mn0 O10 2.152777 1_565
Mn0 O1 2.154498 1_555
Mn0 O6 2.213807 1_555
Mn1 O2 2.099058 1_455
Mn1 O6 2.111184 1_555
Mn1 O13 2.124966 1_554
Mn1 O10 2.177530 1_455
Mn1 O1 2.291995 1_555
Mn2 O8 2.027900 1_555
Mn2 O17 2.082741 1_565
Mn2 O5 2.126174 1_555
Mn2 O12 2.126964 1_555
Mn2 O0 2.129187 1_655
Mn3 O17 2.035551 1_455
Mn3 O12 2.115307 1_555
Mn3 O9 2.137772 1_555
Mn3 O5 2.158439 1_555
Mn3 O0 2.319939 1_545
Mn4 O4 2.082332 1_556
Mn4 O11 2.094844 1_555
Mn4 O7 2.136313 1_655
Mn4 O15 2.196226 1_665
Mn4 O16 2.348461 1_555
Mn5 O16 2.091818 1_555
Mn5 O3 2.116968 1_545
Mn5 O15 2.134322 1_555
Mn5 O7 2.192378 1_545
Mn5 O11 2.337854 1_555
B0 O3 1.377370 1_555
B0 O0 1.392300 1_555
B0 O5 1.405142 1_555
B1 O2 1.382083 1_565
B1 O4 1.387525 1_555
B1 O1 1.403649 1_655
B2 O8 1.367479 1_555
B2 O6 1.402086 1_555
B2 O10 1.405266 1_555
B3 O9 1.381442 1_555
B3 O11 1.393196 1_555
B3 O7 1.402068 1_555
B4 O13 1.381194 1_555
B4 O16 1.390607 1_455
B4 O15 1.403437 1_555
B5 O14 1.355919 1_555
B5 O17 1.389978 1_555
B5 O12 1.422564 1_555
