# generated using pymatgen
data_MnPO4
_symmetry_space_group_name_H-M   'P 1'
_cell_length_a   5.78579123
_cell_length_b   7.41861300
_cell_length_c   8.14421601
_cell_angle_alpha   89.99978788
_cell_angle_beta   98.95387838
_cell_angle_gamma   90.00011602
_symmetry_Int_Tables_number   1
_chemical_formula_structural   MnPO4
_chemical_formula_sum   'Mn4 P4 O16'
_cell_volume   345.31060203
_cell_formula_units_Z   4
loop_
 _symmetry_equiv_pos_site_id
 _symmetry_equiv_pos_as_xyz
  1  'x, y, z'
loop_
 _atom_site_type_symbol
 _atom_site_label
 _atom_site_symmetry_multiplicity
 _atom_site_fract_x
 _atom_site_fract_y
 _atom_site_fract_z
 _atom_site_occupancy
  Mn  Mn0  1  0.12485800  0.31384100  0.44589200  1
  Mn  Mn1  1  0.37513500  0.81381200  0.05410200  1
  Mn  Mn2  1  0.62487300  0.18617500  0.94590100  1
  Mn  Mn3  1  0.87513100  0.68617400  0.55410700  1
  P  P0  1  0.07537200  0.03536100  0.76822800  1
  P  P1  1  0.42463100  0.53535800  0.73177000  1
  P  P2  1  0.57536900  0.46463900  0.26823000  1
  P  P3  1  0.92463400  0.96464000  0.23177200  1
  O  O0  1  0.02250100  0.15741100  0.26522400  1
  O  O1  1  0.12974100  0.12575400  0.61131300  1
  O  O2  1  0.08268600  0.85216700  0.13851100  1
  O  O3  1  0.18012000  0.51045100  0.61038000  1
  O  O4  1  0.31987800  0.01044300  0.88962200  1
  O  O5  1  0.37026000  0.62574800  0.88868200  1
  O  O6  1  0.41731200  0.35216900  0.36148900  1
  O  O7  1  0.52250500  0.34259200  0.76522600  1
  O  O8  1  0.47749700  0.65740600  0.23477900  1
  O  O9  1  0.58268300  0.64783000  0.63850900  1
  O  O10  1  0.62974100  0.37425300  0.11131500  1
  O  O11  1  0.68012200  0.98954900  0.11038000  1
  O  O12  1  0.81987600  0.48955400  0.38962100  1
  O  O13  1  0.91731500  0.14782900  0.86148800  1
  O  O14  1  0.87026100  0.87425100  0.38868500  1
  O  O15  1  0.97749800  0.84259300  0.73477400  1
loop_
_geom_bond_atom_site_label_1
_geom_bond_atom_site_label_2
_geom_bond_distance
_geom_bond_site_symmetry_2
Mn0 O0 1.895059 1_555
Mn0 O1 1.936734 1_555
Mn0 O6 1.943848 1_555
Mn0 O3 1.972549 1_555
Mn0 O12 2.184312 1_455
Mn1 O8 1.895003 1_555
Mn1 O5 1.936616 1_554
Mn1 O2 1.943876 1_555
Mn1 O4 1.972613 1_564
Mn1 O11 2.184444 1_555
Mn2 O7 1.895048 1_555
Mn2 O10 1.936661 1_556
Mn2 O13 1.943845 1_555
Mn2 O11 1.972578 1_546
Mn2 O4 2.184458 1_555
Mn3 O15 1.895014 1_555
Mn3 O14 1.936693 1_555
Mn3 O9 1.943829 1_555
Mn3 O12 1.972591 1_555
Mn3 O3 2.184389 1_655
O0 P3 1.546608 1_445
O1 P0 1.518857 1_555
O2 P3 1.524976 1_455
O3 P1 1.605465 1_555
O4 P0 1.605467 1_555
O5 P1 1.518835 1_555
O6 P2 1.524968 1_555
O7 P1 1.546592 1_555
O8 P2 1.546590 1_555
O9 P1 1.524966 1_555
O10 P2 1.518845 1_555
O11 P3 1.605479 1_555
O12 P2 1.605457 1_555
O13 P0 1.524970 1_655
O14 P3 1.518838 1_555
O15 P0 1.546603 1_665
