# generated using pymatgen
data_Li5(CoO2)4
_symmetry_space_group_name_H-M   'P 1'
_cell_length_a   8.20267200
_cell_length_b   8.21225092
_cell_length_c   8.35746589
_cell_angle_alpha   89.84030586
_cell_angle_beta   89.84774976
_cell_angle_gamma   89.92564053
_symmetry_Int_Tables_number   1
_chemical_formula_structural   Li5(CoO2)4
_chemical_formula_sum   'Li20 Co16 O32'
_cell_volume   562.97432249
_cell_formula_units_Z   4
loop_
 _symmetry_equiv_pos_site_id
 _symmetry_equiv_pos_as_xyz
  1  'x, y, z'
loop_
 _atom_site_type_symbol
 _atom_site_label
 _atom_site_symmetry_multiplicity
 _atom_site_fract_x
 _atom_site_fract_y
 _atom_site_fract_z
 _atom_site_occupancy
  Li  Li0  1  0.08987700  0.10488700  0.91069300  1
  Li  Li1  1  0.38401600  0.10447500  0.59750500  1
  Li  Li2  1  0.88853300  0.10226300  0.12203800  1
  Li  Li3  1  0.23734000  0.23940700  0.75932100  1
  Li  Li4  1  0.72812900  0.25376100  0.24577500  1
  Li  Li5  1  0.39372400  0.38689400  0.87970200  1
  Li  Li6  1  0.12869200  0.38363900  0.58714500  1
  Li  Li7  1  0.88687000  0.37779600  0.39391700  1
  Li  Li8  1  0.59407700  0.40366100  0.08682400  1
  Li  Li9  1  0.91289000  0.58560100  0.58562100  1
  Li  Li10  1  0.11003600  0.59481100  0.38075200  1
  Li  Li11  1  0.36883800  0.60108500  0.08629000  1
  Li  Li12  1  0.60173700  0.62757700  0.89304600  1
  Li  Li13  1  0.77326700  0.73289000  0.73853700  1
  Li  Li14  1  0.25323400  0.75510900  0.25647600  1
  Li  Li15  1  0.87499800  0.89647300  0.90659200  1
  Li  Li16  1  0.60580200  0.89156400  0.63597700  1
  Li  Li17  1  0.40034500  0.88305100  0.40370400  1
  Li  Li18  1  0.09657800  0.88105300  0.10656300  1
  Li  Li19  1  0.61116200  0.09346200  0.41009500  1
  Co  Co0  1  0.37154200  0.12114700  0.12447400  1
  Co  Co1  1  0.11949200  0.12131500  0.37096400  1
  Co  Co2  1  0.37749000  0.37205100  0.37170500  1
  Co  Co3  1  0.11996900  0.62188300  0.87174000  1
  Co  Co4  1  0.62491900  0.62347100  0.37803100  1
  Co  Co5  1  0.11769800  0.86983300  0.62585700  1
  Co  Co6  1  0.36148000  0.87545800  0.87248000  1
  Co  Co7  1  0.62470500  0.37369400  0.62910000  1
  Co  Co8  1  0.86981600  0.61935200  0.12962300  1
  Co  Co9  1  0.62174500  0.12333700  0.87655900  1
  Co  Co10  1  0.87025400  0.12531000  0.62408400  1
  Co  Co11  1  0.11877500  0.36889700  0.12588000  1
  Co  Co12  1  0.86932100  0.37003400  0.87849100  1
  Co  Co13  1  0.37635000  0.62015100  0.62320200  1
  Co  Co14  1  0.62100100  0.87119700  0.12623000  1
  Co  Co15  1  0.86843700  0.87388600  0.37290900  1
  O  O0  1  0.61235900  0.11147500  0.11206600  1
  O  O1  1  0.38523000  0.12789800  0.89119700  1
  O  O2  1  0.87336400  0.11611600  0.38208100  1
  O  O3  1  0.10888700  0.12820400  0.60508100  1
  O  O4  1  0.36046400  0.11878000  0.36076200  1
  O  O5  1  0.63107800  0.13547900  0.64122700  1
  O  O6  1  0.13103500  0.13023000  0.13792700  1
  O  O7  1  0.85876000  0.13333500  0.86216900  1
  O  O8  1  0.12008100  0.35774000  0.35761100  1
  O  O9  1  0.63280700  0.36147800  0.86317800  1
  O  O10  1  0.86345000  0.36245000  0.64200200  1
  O  O11  1  0.35817500  0.36057000  0.12297000  1
  O  O12  1  0.10434400  0.36557600  0.89434600  1
  O  O13  1  0.63217300  0.38528600  0.39591000  1
  O  O14  1  0.38527400  0.37649800  0.62619300  1
  O  O15  1  0.87480600  0.37824700  0.11609100  1
  O  O16  1  0.86577600  0.60575200  0.89679100  1
  O  O17  1  0.11063000  0.60862700  0.13404600  1
  O  O18  1  0.61922100  0.61137700  0.61397700  1
  O  O19  1  0.38868800  0.62467600  0.38810300  1
  O  O20  1  0.13899200  0.61839700  0.61442800  1
  O  O21  1  0.36954000  0.61782100  0.85639200  1
  O  O22  1  0.62976800  0.63298800  0.14081400  1
  O  O23  1  0.86246000  0.63434200  0.36362000  1
  O  O24  1  0.37628300  0.85908600  0.62889200  1
  O  O25  1  0.10937700  0.87447600  0.87579000  1
  O  O26  1  0.85850200  0.85948200  0.13930100  1
  O  O27  1  0.63246200  0.86111300  0.36044200  1
  O  O28  1  0.38444800  0.88268200  0.12285700  1
  O  O29  1  0.10413600  0.88592100  0.37024300  1
  O  O30  1  0.62930900  0.88194700  0.88787500  1
  O  O31  1  0.86171200  0.88902900  0.60401700  1
loop_
_geom_bond_atom_site_label_1
_geom_bond_atom_site_label_2
_geom_bond_distance
_geom_bond_site_symmetry_2
Li0 O25 1.921747 1_545
Li0 O6 1.941563 1_556
Li0 O7 1.953310 1_455
Li0 O12 2.148232 1_555
Li0 O1 2.435277 1_555
Li1 O4 1.991619 1_555
Li1 O24 2.032522 1_545
Li1 O5 2.076324 1_555
Li1 O14 2.247455 1_555
Li1 O3 2.265671 1_555
Li1 O1 2.462629 1_555
Li2 O6 2.007465 1_655
Li2 O26 2.013984 1_545
Li2 O2 2.179808 1_555
Li2 O7 2.200282 1_554
Li2 O0 2.268275 1_555
Li2 O15 2.269512 1_555
Li3 O1 1.877100 1_555
Li3 O12 1.879936 1_555
Li3 O3 1.903187 1_555
Li3 O14 1.991796 1_555
Li4 O13 1.833211 1_555
Li4 O0 1.879277 1_555
Li4 O15 1.912445 1_555
Li4 O2 1.997807 1_555
Li5 O21 1.915965 1_555
Li5 O9 1.976432 1_555
Li5 O11 2.063937 1_556
Li5 O14 2.121970 1_555
Li5 O1 2.130063 1_555
Li5 O12 2.383158 1_555
Li6 O8 1.932154 1_555
Li6 O20 1.943932 1_555
Li6 O3 2.109074 1_555
Li6 O14 2.131372 1_555
Li6 O10 2.229203 1_455
Li6 O12 2.578522 1_555
Li7 O8 1.942926 1_655
Li7 O10 2.085211 1_555
Li7 O13 2.090045 1_555
Li7 O23 2.130515 1_555
Li7 O2 2.154540 1_555
Li7 O15 2.324284 1_555
Li8 O9 1.927352 1_554
Li8 O22 1.960348 1_555
Li8 O11 1.989695 1_555
Li8 O15 2.325382 1_555
Li8 O0 2.412681 1_555
Li9 O20 1.890562 1_655
Li9 O10 1.934144 1_555
Li9 O23 1.942479 1_555
Li9 O18 2.428899 1_555
Li10 O8 1.958611 1_555
Li10 O20 1.978028 1_555
Li10 O23 2.061444 1_455
Li10 O17 2.064634 1_555
Li10 O19 2.300129 1_555
Li10 O29 2.392468 1_555
Li11 O21 1.925886 1_554
Li11 O11 1.999962 1_555
Li11 O17 2.155074 1_555
Li11 O22 2.205578 1_555
Li11 O28 2.337215 1_555
Li11 O19 2.536039 1_555
Li12 O21 1.931717 1_555
Li12 O22 2.084649 1_556
Li12 O30 2.101762 1_555
Li12 O16 2.173298 1_555
Li12 O9 2.214482 1_555
Li12 O18 2.340478 1_555
Li13 O16 1.846832 1_555
Li13 O31 1.850534 1_555
Li13 O18 1.921510 1_555
Li13 O30 2.108896 1_555
Li14 O28 1.868984 1_555
Li14 O29 1.884118 1_555
Li14 O19 1.894428 1_555
Li14 O17 1.969564 1_555
Li15 O25 1.947246 1_655
Li15 O26 1.971922 1_556
Li15 O7 1.983640 1_565
Li15 O30 2.025478 1_555
Li15 O16 2.390409 1_555
Li16 O24 1.902911 1_555
Li16 O5 2.014672 1_565
Li16 O31 2.115450 1_555
Li16 O30 2.115797 1_555
Li16 O18 2.311268 1_555
Li16 O27 2.326697 1_555
Li17 O24 1.901494 1_555
Li17 O27 1.945286 1_555
Li17 O4 1.994617 1_565
Li17 O19 2.128493 1_555
Li17 O28 2.351145 1_555
Li17 O29 2.446559 1_555
Li18 O25 1.932156 1_554
Li18 O26 1.979315 1_455
Li18 O6 2.083468 1_565
Li18 O29 2.205208 1_555
Li18 O17 2.251189 1_555
Li18 O28 2.365645 1_555
Li19 O27 1.961318 1_545
Li19 O5 1.970449 1_555
Li19 O4 2.108291 1_555
Li19 O2 2.171014 1_555
Li19 O0 2.494738 1_555
Co0 O1 1.953174 1_554
Co0 O28 1.961139 1_545
Co0 O11 1.969121 1_555
Co0 O4 1.976660 1_555
Co0 O6 1.977026 1_555
Co0 O0 1.979291 1_555
Co1 O29 1.937404 1_545
Co1 O8 1.944487 1_555
Co1 O6 1.950823 1_555
Co1 O3 1.959298 1_555
Co1 O4 1.978311 1_555
Co1 O2 2.021298 1_455
Co2 O19 2.081685 1_555
Co2 O4 2.087065 1_555
Co2 O11 2.087644 1_555
Co2 O13 2.102369 1_555
Co2 O8 2.118470 1_555
Co2 O14 2.128419 1_555
Co3 O21 2.051057 1_555
Co3 O25 2.076430 1_555
Co3 O16 2.099311 1_455
Co3 O12 2.116814 1_555
Co3 O20 2.155983 1_555
Co3 O17 2.195750 1_556
Co4 O19 1.939343 1_555
Co4 O23 1.954011 1_555
Co4 O27 1.957741 1_555
Co4 O13 1.962156 1_555
Co4 O18 1.974566 1_555
Co4 O22 1.984150 1_555
Co5 O20 2.074448 1_555
Co5 O25 2.090193 1_555
Co5 O31 2.113815 1_455
Co5 O24 2.123025 1_555
Co5 O3 2.129567 1_565
Co5 O29 2.143175 1_555
Co6 O24 2.043865 1_555
Co6 O25 2.068056 1_555
Co6 O1 2.088824 1_565
Co6 O28 2.102489 1_556
Co6 O21 2.121355 1_555
Co6 O30 2.201742 1_555
Co7 O13 1.951739 1_555
Co7 O18 1.956115 1_555
Co7 O5 1.959260 1_555
Co7 O9 1.959889 1_555
Co7 O10 1.963638 1_555
Co7 O14 1.964293 1_555
Co8 O16 1.949771 1_554
Co8 O23 1.960599 1_555
Co8 O22 1.974055 1_555
Co8 O26 1.975941 1_555
Co8 O17 1.977606 1_655
Co8 O15 1.983920 1_555
Co9 O1 1.943903 1_555
Co9 O7 1.949376 1_555
Co9 O9 1.960762 1_555
Co9 O5 1.970317 1_555
Co9 O0 1.971684 1_556
Co9 O30 1.985244 1_545
Co10 O31 1.949465 1_545
Co10 O10 1.954332 1_555
Co10 O3 1.963609 1_655
Co10 O5 1.968408 1_555
Co10 O7 1.993039 1_555
Co10 O2 2.024243 1_555
Co11 O8 1.938652 1_555
Co11 O12 1.939238 1_554
Co11 O6 1.964756 1_555
Co11 O11 1.964910 1_555
Co11 O17 1.971135 1_555
Co11 O15 2.004449 1_455
Co12 O12 1.933009 1_655
Co12 O16 1.942407 1_555
Co12 O9 1.945975 1_555
Co12 O7 1.951044 1_555
Co12 O10 1.978319 1_555
Co12 O15 1.987698 1_556
Co13 O20 1.948618 1_555
Co13 O21 1.949571 1_555
Co13 O24 1.962902 1_555
Co13 O19 1.967418 1_555
Co13 O18 1.994694 1_555
Co13 O14 2.002272 1_555
Co14 O28 1.942811 1_555
Co14 O26 1.953723 1_555
Co14 O22 1.960924 1_555
Co14 O27 1.961438 1_555
Co14 O0 1.977632 1_565
Co14 O30 1.994741 1_554
Co15 O29 1.936080 1_655
Co15 O31 1.936457 1_555
Co15 O27 1.941691 1_555
Co15 O26 1.958199 1_555
Co15 O23 1.969622 1_555
Co15 O2 1.991410 1_565
