# generated using pymatgen
data_Li5VP3O11
_symmetry_space_group_name_H-M   'P 1'
_cell_length_a   5.37486700
_cell_length_b   8.52924315
_cell_length_c   9.64476359
_cell_angle_alpha   84.75141499
_cell_angle_beta   88.35088471
_cell_angle_gamma   85.09856193
_symmetry_Int_Tables_number   1
_chemical_formula_structural   Li5VP3O11
_chemical_formula_sum   'Li10 V2 P6 O22'
_cell_volume   438.58830363
_cell_formula_units_Z   2
loop_
 _symmetry_equiv_pos_site_id
 _symmetry_equiv_pos_as_xyz
  1  'x, y, z'
loop_
 _atom_site_type_symbol
 _atom_site_label
 _atom_site_symmetry_multiplicity
 _atom_site_fract_x
 _atom_site_fract_y
 _atom_site_fract_z
 _atom_site_occupancy
  Li  Li0  1  0.78030100  0.67100700  0.65757800  1
  Li  Li1  1  0.70648100  0.37880700  0.16669500  1
  Li  Li2  1  0.67289100  0.61680600  0.32142200  1
  Li  Li3  1  0.83150900  0.38065500  0.84115500  1
  Li  Li4  1  0.48871400  0.99619600  0.16170100  1
  Li  Li5  1  0.51128600  0.00380400  0.83829900  1
  Li  Li6  1  0.16849100  0.61934500  0.15884500  1
  Li  Li7  1  0.32710900  0.38319400  0.67857800  1
  Li  Li8  1  0.29351900  0.62119300  0.83330500  1
  Li  Li9  1  0.21969900  0.32899300  0.34242200  1
  V  V0  1  0.00000000  0.00000000  0.00000000  1
  V  V1  1  0.50000000  0.00000000  0.50000000  1
  P  P0  1  0.96421100  0.05000400  0.68594200  1
  P  P1  1  0.78663600  0.70628200  0.98459500  1
  P  P2  1  0.72984500  0.32842900  0.51954400  1
  P  P3  1  0.27015500  0.67157100  0.48045600  1
  P  P4  1  0.21336400  0.29371800  0.01540500  1
  P  P5  1  0.03578900  0.94999600  0.31405800  1
  O  O0  1  0.06080700  0.74392100  0.94300100  1
  O  O1  1  0.94833300  0.18829600  0.55775900  1
  O  O2  1  0.87415200  0.13363300  0.81471300  1
  O  O3  1  0.78868000  0.60351600  0.12677800  1
  O  O4  1  0.81938800  0.40049800  0.37825100  1
  O  O5  1  0.75980000  0.01100100  0.31353100  1
  O  O6  1  0.77510000  0.93087900  0.66083800  1
  O  O7  1  0.71015600  0.43482100  0.63974300  1
  O  O8  1  0.66638900  0.62325900  0.86977100  1
  O  O9  1  0.65178800  0.87299900  0.00486000  1
  O  O10  1  0.52058700  0.74766700  0.48507400  1
  O  O11  1  0.47941300  0.25233300  0.51492600  1
  O  O12  1  0.34821200  0.12700100  0.99514000  1
  O  O13  1  0.33361100  0.37674100  0.13022900  1
  O  O14  1  0.28984400  0.56517900  0.36025700  1
  O  O15  1  0.22490000  0.06912100  0.33916200  1
  O  O16  1  0.24020000  0.98899900  0.68646900  1
  O  O17  1  0.18061200  0.59950200  0.62174900  1
  O  O18  1  0.21132000  0.39648400  0.87322200  1
  O  O19  1  0.12584800  0.86636700  0.18528700  1
  O  O20  1  0.05166700  0.81170400  0.44224100  1
  O  O21  1  0.93919300  0.25607900  0.05699900  1
loop_
_geom_bond_atom_site_label_1
_geom_bond_atom_site_label_2
_geom_bond_distance
_geom_bond_site_symmetry_2
Li0 O7 2.103999 1_555
Li0 O8 2.132392 1_555
Li0 O17 2.211867 1_655
Li0 O6 2.217387 1_555
Li0 O10 2.218764 1_555
Li1 O21 1.918930 1_555
Li1 O3 2.004164 1_555
Li1 O13 2.046526 1_555
Li1 O4 2.173773 1_555
Li2 O3 1.970796 1_555
Li2 O4 1.978844 1_555
Li2 O10 2.121088 1_555
Li2 O14 2.157155 1_555
Li3 O7 2.066325 1_555
Li3 O18 2.091031 1_655
Li3 O2 2.137537 1_555
Li3 O8 2.218581 1_555
Li3 O21 2.314584 1_556
Li4 O12 1.998403 1_564
Li4 O9 2.053713 1_555
Li4 O5 2.114565 1_565
Li4 O15 2.287213 1_565
Li4 O19 2.319329 1_555
Li5 O9 1.998403 1_546
Li5 O12 2.053713 1_555
Li5 O16 2.114565 1_545
Li5 O6 2.287213 1_545
Li5 O2 2.319329 1_555
Li6 O14 2.066325 1_555
Li6 O3 2.091031 1_455
Li6 O19 2.137537 1_555
Li6 O13 2.218581 1_555
Li6 O0 2.314584 1_554
Li7 O18 1.970796 1_555
Li7 O17 1.978844 1_555
Li7 O11 2.121088 1_555
Li7 O7 2.157155 1_555
Li8 O0 1.918930 1_555
Li8 O18 2.004164 1_555
Li8 O8 2.046526 1_555
Li8 O17 2.173773 1_555
Li9 O14 2.103999 1_555
Li9 O13 2.132392 1_555
Li9 O4 2.211867 1_455
Li9 O15 2.217387 1_555
Li9 O11 2.218764 1_555
O0 P1 1.568070 1_455
O0 V0 2.294981 1_566
O1 P2 1.627256 1_555
O1 P0 1.627596 1_555
O2 P0 1.534290 1_555
O2 V0 2.124942 1_656
O3 P1 1.558280 1_554
O4 P2 1.525151 1_555
O5 P5 1.529479 1_645
O5 V1 2.245017 1_555
O6 P0 1.536161 1_565
O6 V1 2.180826 1_565
O7 P2 1.532189 1_555
O8 P1 1.551929 1_555
O9 P1 1.565917 1_554
O9 V0 2.238422 1_665
O10 P3 1.546961 1_555
O10 V1 2.163341 1_565
O11 P2 1.546961 1_555
O11 V1 2.163341 1_555
O12 P4 1.565917 1_556
O12 V0 2.238422 1_556
O13 P4 1.551929 1_555
O14 P3 1.532189 1_555
O15 P5 1.536161 1_545
O15 V1 2.180826 1_555
O16 P0 1.529479 1_465
O16 V1 2.245017 1_565
O17 P3 1.525151 1_555
O18 P4 1.558280 1_556
O19 P5 1.534290 1_555
O19 V0 2.124942 1_565
O20 P3 1.627256 1_555
O20 P5 1.627596 1_555
O21 P4 1.568070 1_655
O21 V0 2.294981 1_655
