# generated using pymatgen
data_Tm2GeO5
_symmetry_space_group_name_H-M   'P 1'
_cell_length_a   3.62622659
_cell_length_b   10.09695298
_cell_length_c   10.91803331
_cell_angle_alpha   90.00000000
_cell_angle_beta   90.00000000
_cell_angle_gamma   90.00000000
_symmetry_Int_Tables_number   1
_chemical_formula_structural   Tm2GeO5
_chemical_formula_sum   'Tm8 Ge4 O20'
_cell_volume   399.75111789
_cell_formula_units_Z   4
loop_
 _symmetry_equiv_pos_site_id
 _symmetry_equiv_pos_as_xyz
  1  'x, y, z'
loop_
 _atom_site_type_symbol
 _atom_site_label
 _atom_site_symmetry_multiplicity
 _atom_site_fract_x
 _atom_site_fract_y
 _atom_site_fract_z
 _atom_site_occupancy
  Tm  Tm0  1  0.25000000  0.11093915  0.77929965  1
  Tm  Tm1  1  0.25000000  0.13595989  0.44440957  1
  Tm  Tm2  1  0.75000000  0.36404011  0.94440957  1
  Tm  Tm3  1  0.75000000  0.38906085  0.27929965  1
  Tm  Tm4  1  0.25000000  0.61093915  0.72070035  1
  Tm  Tm5  1  0.25000000  0.63595989  0.05559043  1
  Tm  Tm6  1  0.75000000  0.86404011  0.55559043  1
  Tm  Tm7  1  0.75000000  0.88906085  0.22070035  1
  Ge  Ge0  1  0.25000000  0.17487708  0.12073654  1
  Ge  Ge1  1  0.75000000  0.32512292  0.62073654  1
  Ge  Ge2  1  0.25000000  0.67487708  0.37926346  1
  Ge  Ge3  1  0.75000000  0.82512292  0.87926346  1
  O  O0  1  0.25000000  0.99243697  0.60536501  1
  O  O1  1  0.25000000  0.00625621  0.15481173  1
  O  O2  1  0.75000000  0.23283073  0.11828875  1
  O  O3  1  0.75000000  0.24333553  0.77020945  1
  O  O4  1  0.25000000  0.22375970  0.96131672  1
  O  O5  1  0.75000000  0.27624030  0.46131672  1
  O  O6  1  0.25000000  0.25666447  0.27020945  1
  O  O7  1  0.25000000  0.26716927  0.61828875  1
  O  O8  1  0.75000000  0.49374379  0.65481173  1
  O  O9  1  0.75000000  0.50756303  0.10536501  1
  O  O10  1  0.25000000  0.49243697  0.89463499  1
  O  O11  1  0.25000000  0.50625621  0.34518827  1
  O  O12  1  0.75000000  0.73283073  0.38171125  1
  O  O13  1  0.75000000  0.74333553  0.72979055  1
  O  O14  1  0.25000000  0.72375970  0.53868328  1
  O  O15  1  0.75000000  0.77624030  0.03868328  1
  O  O16  1  0.25000000  0.75666447  0.22979055  1
  O  O17  1  0.25000000  0.76716927  0.88171125  1
  O  O18  1  0.75000000  0.99374379  0.84518827  1
  O  O19  1  0.75000000  0.00756303  0.39463499  1
loop_
_geom_bond_atom_site_label_1
_geom_bond_atom_site_label_2
_geom_bond_distance
_geom_bond_site_symmetry_2
Ge0 O1 1.742731 1_555
Ge0 O4 1.809178 1_554
Ge0 O6 1.828992 1_555
Ge0 O2 1.905387 1_455
Ge0 O2 1.905387 1_555
Ge1 O8 1.742731 1_555
Ge1 O5 1.809178 1_555
Ge1 O3 1.828992 1_555
Ge1 O7 1.905387 1_555
Ge1 O7 1.905387 1_655
Ge2 O11 1.742731 1_555
Ge2 O14 1.809178 1_555
Ge2 O16 1.828992 1_555
Ge2 O12 1.905387 1_455
Ge2 O12 1.905387 1_555
Ge3 O18 1.742731 1_555
Ge3 O15 1.809178 1_556
Ge3 O13 1.828992 1_555
Ge3 O17 1.905387 1_555
Ge3 O17 1.905387 1_655
O0 Tm0 2.244534 1_565
O0 Tm1 2.277758 1_565
O0 Tm6 2.294211 1_555
O0 Tm6 2.294211 1_455
O1 Tm7 2.281472 1_445
O1 Tm7 2.281472 1_545
O2 Tm2 2.314979 1_554
O2 Tm3 2.361913 1_555
O3 Tm0 2.254831 1_555
O3 Tm0 2.254831 1_655
O3 Tm2 2.258906 1_555
O4 Tm0 2.290608 1_555
O4 Tm2 2.308172 1_555
O4 Tm2 2.308172 1_455
O5 Tm3 2.290608 1_555
O5 Tm1 2.308172 1_555
O5 Tm1 2.308172 1_655
O6 Tm3 2.254831 1_555
O6 Tm3 2.254831 1_455
O6 Tm1 2.258906 1_555
O7 Tm1 2.314979 1_555
O7 Tm0 2.361913 1_555
O8 Tm4 2.281472 1_655
O8 Tm4 2.281472 1_555
O9 Tm3 2.244534 1_555
O9 Tm2 2.277758 1_554
O9 Tm5 2.294211 1_655
O9 Tm5 2.294211 1_555
O10 Tm4 2.244534 1_555
O10 Tm5 2.277758 1_556
O10 Tm2 2.294211 1_555
O10 Tm2 2.294211 1_455
O11 Tm3 2.281472 1_455
O11 Tm3 2.281472 1_555
O12 Tm6 2.314979 1_555
O12 Tm7 2.361913 1_555
O13 Tm4 2.254831 1_655
O13 Tm4 2.254831 1_555
O13 Tm6 2.258906 1_555
O14 Tm4 2.290608 1_555
O14 Tm6 2.308172 1_555
O14 Tm6 2.308172 1_455
O15 Tm7 2.290608 1_555
O15 Tm5 2.308172 1_555
O15 Tm5 2.308172 1_655
O16 Tm7 2.254831 1_555
O16 Tm7 2.254831 1_455
O16 Tm5 2.258906 1_555
O17 Tm5 2.314979 1_556
O17 Tm4 2.361913 1_555
O18 Tm0 2.281472 1_665
O18 Tm0 2.281472 1_565
O19 Tm7 2.244534 1_545
O19 Tm6 2.277758 1_545
O19 Tm1 2.294211 1_655
O19 Tm1 2.294211 1_555
