# generated using pymatgen
data_Ti3Cu2Te(PO4)6
_symmetry_space_group_name_H-M   'P 1'
_cell_length_a   8.76566804
_cell_length_b   8.76566804
_cell_length_c   8.76566742
_cell_angle_alpha   59.83031264
_cell_angle_beta   59.83031264
_cell_angle_gamma   59.83031229
_symmetry_Int_Tables_number   1
_chemical_formula_structural   Ti3Cu2Te(PO4)6
_chemical_formula_sum   'Ti3 Cu2 Te1 P6 O24'
_cell_volume   474.42131360
_cell_formula_units_Z   1
loop_
 _symmetry_equiv_pos_site_id
 _symmetry_equiv_pos_as_xyz
  1  'x, y, z'
loop_
 _atom_site_type_symbol
 _atom_site_label
 _atom_site_symmetry_multiplicity
 _atom_site_fract_x
 _atom_site_fract_y
 _atom_site_fract_z
 _atom_site_occupancy
  Ti  Ti0  1  0.14190800  0.14190800  0.14190800  1
  Ti  Ti1  1  0.35729200  0.35729200  0.35729200  1
  Ti  Ti2  1  0.64206100  0.64206100  0.64206100  1
  Cu  Cu0  1  0.00431600  0.00431600  0.00431600  1
  Cu  Cu1  1  0.50024600  0.50024600  0.50024600  1
  Te  Te0  1  0.85724300  0.85724300  0.85724300  1
  P  P0  1  0.53188900  0.25894800  0.96159300  1
  P  P1  1  0.96159300  0.53188900  0.25894800  1
  P  P2  1  0.25894800  0.96159300  0.53188900  1
  P  P3  1  0.74899100  0.04376600  0.45008600  1
  P  P4  1  0.04376600  0.45008600  0.74899100  1
  P  P5  1  0.45008600  0.74899100  0.04376600  1
  O  O0  1  0.31905100  0.12064600  0.48583700  1
  O  O1  1  0.48583700  0.31905100  0.12064600  1
  O  O2  1  0.91652800  0.06037700  0.26378700  1
  O  O3  1  0.12064600  0.48583700  0.31905100  1
  O  O4  1  0.80029600  0.02236600  0.60549300  1
  O  O5  1  0.58431500  0.23057500  0.42713400  1
  O  O6  1  0.06037700  0.26378700  0.91652800  1
  O  O7  1  0.23057500  0.42713400  0.58431500  1
  O  O8  1  0.37435900  0.19748600  0.00069200  1
  O  O9  1  0.42713400  0.58431500  0.23057500  1
  O  O10  1  0.72355100  0.09695400  0.95121100  1
  O  O11  1  0.00069200  0.37435900  0.19748600  1
  O  O12  1  0.02236600  0.60549300  0.80029600  1
  O  O13  1  0.26378700  0.91652800  0.06037700  1
  O  O14  1  0.55108200  0.42306000  0.77204200  1
  O  O15  1  0.60549300  0.80029600  0.02236600  1
  O  O16  1  0.77204200  0.55108200  0.42306000  1
  O  O17  1  0.95121100  0.72355100  0.09695400  1
  O  O18  1  0.42306000  0.77204200  0.55108200  1
  O  O19  1  0.19748600  0.00069200  0.37435900  1
  O  O20  1  0.87351800  0.50112600  0.70017700  1
  O  O21  1  0.09695400  0.95121100  0.72355100  1
  O  O22  1  0.50112600  0.70017700  0.87351800  1
  O  O23  1  0.70017700  0.87351800  0.50112600  1
loop_
_geom_bond_atom_site_label_1
_geom_bond_atom_site_label_2
_geom_bond_distance
_geom_bond_site_symmetry_2
Cu0 O2 2.234018 1_455
Cu0 O13 2.234018 1_545
Cu0 O6 2.234018 1_554
Cu0 O21 2.386610 1_544
Cu0 O10 2.386610 1_454
Cu0 O17 2.386610 1_445
Cu1 O14 2.340164 1_555
Cu1 O18 2.340164 1_555
Cu1 O16 2.340164 1_555
Cu1 O9 2.416329 1_555
Cu1 O5 2.416330 1_555
Cu1 O7 2.416330 1_555
O0 P2 1.530739 1_545
O0 Ti1 1.911781 1_555
O1 P0 1.530739 1_554
O1 Ti1 1.911780 1_555
O2 P3 1.552456 1_555
O2 Ti0 2.021239 1_655
O3 P1 1.530739 1_455
O3 Ti1 1.911781 1_555
O4 P3 1.538598 1_555
O4 Te0 2.093918 1_545
O5 P3 1.546125 1_555
O5 Ti1 1.971806 1_555
O6 P4 1.552456 1_555
O6 Ti0 2.021239 1_556
O7 P4 1.546125 1_555
O7 Ti1 1.971806 1_555
O8 P0 1.549504 1_554
O8 Ti0 1.943666 1_555
O9 P5 1.546125 1_555
O9 Ti1 1.971806 1_555
O10 P0 1.557414 1_555
O10 Te0 2.182047 1_545
O11 P1 1.549504 1_455
O11 Ti0 1.943666 1_555
O12 P4 1.538598 1_555
O12 Te0 2.093918 1_455
O13 P5 1.552456 1_555
O13 Ti0 2.021239 1_565
O14 P0 1.555083 1_555
O14 Ti2 2.011568 1_555
O15 P5 1.538598 1_555
O15 Te0 2.093918 1_554
O16 P1 1.555083 1_555
O16 Ti2 2.011568 1_555
O17 P1 1.557414 1_555
O17 Te0 2.182047 1_554
O18 P2 1.555083 1_555
O18 Ti2 2.011568 1_555
O19 P2 1.549503 1_545
O19 Ti0 1.943666 1_555
O20 P4 1.545522 1_655
O20 Ti2 1.946544 1_555
O21 P2 1.557414 1_555
O21 Te0 2.182047 1_455
O22 P5 1.545522 1_556
O22 Ti2 1.946544 1_555
O23 P3 1.545522 1_565
O23 Ti2 1.946544 1_555
