# generated using pymatgen
data_Li4Ti3V3O12
_symmetry_space_group_name_H-M   'P 1'
_cell_length_a   5.18987900
_cell_length_b   6.05010809
_cell_length_c   7.91346186
_cell_angle_alpha   77.74817966
_cell_angle_beta   77.10510488
_cell_angle_gamma   72.97901866
_symmetry_Int_Tables_number   1
_chemical_formula_structural   Li4Ti3V3O12
_chemical_formula_sum   'Li4 Ti3 V3 O12'
_cell_volume   228.70781456
_cell_formula_units_Z   1
loop_
 _symmetry_equiv_pos_site_id
 _symmetry_equiv_pos_as_xyz
  1  'x, y, z'
loop_
 _atom_site_type_symbol
 _atom_site_label
 _atom_site_symmetry_multiplicity
 _atom_site_fract_x
 _atom_site_fract_y
 _atom_site_fract_z
 _atom_site_occupancy
  Li  Li0  1  0.50242400  0.16561100  0.33455100  1
  Li  Li1  1  0.49757600  0.83438900  0.66544900  1
  Li  Li2  1  0.99704600  0.33368100  0.16693500  1
  Li  Li3  1  0.00295400  0.66631900  0.83306500  1
  Ti  Ti0  1  0.50672200  0.33201200  0.66777200  1
  Ti  Ti1  1  0.50000000  0.00000000  0.00000000  1
  Ti  Ti2  1  0.49327800  0.66798800  0.33222800  1
  V  V0  1  0.00000000  0.50000000  0.50000000  1
  V  V1  1  0.99672100  0.16890700  0.83182000  1
  V  V2  1  0.00327900  0.83109300  0.16818000  1
  O  O0  1  0.75592200  0.48235200  0.73577800  1
  O  O1  1  0.27505000  0.64122600  0.57859100  1
  O  O2  1  0.72495000  0.35877400  0.42140900  1
  O  O3  1  0.72757600  0.01498100  0.76379400  1
  O  O4  1  0.24407800  0.51764800  0.26422200  1
  O  O5  1  0.25996600  0.19003500  0.59477100  1
  O  O6  1  0.75545100  0.13864100  0.07647700  1
  O  O7  1  0.74003400  0.80996500  0.40522900  1
  O  O8  1  0.26307200  0.31283800  0.90640200  1
  O  O9  1  0.27242400  0.98501900  0.23620600  1
  O  O10  1  0.73692800  0.68716200  0.09359800  1
  O  O11  1  0.24454900  0.86135900  0.92352300  1
loop_
_geom_bond_atom_site_label_1
_geom_bond_atom_site_label_2
_geom_bond_distance
_geom_bond_site_symmetry_2
Li0 O2 2.158085 1_555
Li0 O7 2.169557 1_545
Li0 O5 2.170130 1_555
Li0 O6 2.177359 1_555
Li0 O9 2.182512 1_545
Li0 O4 2.191319 1_555
Li1 O1 2.158085 1_555
Li1 O5 2.169557 1_565
Li1 O7 2.170130 1_555
Li1 O11 2.177359 1_555
Li1 O3 2.182512 1_565
Li1 O0 2.191319 1_555
Li2 O2 2.192597 1_555
Li2 O10 2.205802 1_555
Li2 O9 2.210591 1_645
Li2 O8 2.216011 1_654
Li2 O6 2.258825 1_555
Li2 O4 2.261602 1_655
Li3 O1 2.192597 1_555
Li3 O8 2.205802 1_555
Li3 O3 2.210591 1_465
Li3 O10 2.216011 1_456
Li3 O11 2.258825 1_555
Li3 O0 2.261602 1_455
O0 Ti0 1.999178 1_555
O0 V0 2.009239 1_655
O0 V1 2.039713 1_555
O1 Ti0 1.986211 1_555
O1 Ti2 2.024277 1_555
O1 V0 2.119049 1_555
O2 Ti2 1.986211 1_555
O2 Ti0 2.024277 1_555
O2 V0 2.119049 1_655
O3 Ti1 1.975484 1_556
O3 Ti0 2.013265 1_555
O3 V1 2.101934 1_555
O4 Ti2 1.999178 1_555
O4 V0 2.009239 1_555
O4 V2 2.039713 1_555
O5 Ti0 1.973930 1_555
O5 V1 2.063588 1_455
O5 V0 2.067131 1_555
O6 Ti1 2.012976 1_555
O6 V2 2.021270 1_645
O6 V1 2.061942 1_554
O7 Ti2 1.973930 1_555
O7 V2 2.063588 1_655
O7 V0 2.067131 1_655
O8 Ti1 2.022849 1_556
O8 Ti0 2.026226 1_555
O8 V1 2.074715 1_455
O9 Ti1 1.975484 1_565
O9 Ti2 2.013265 1_555
O9 V2 2.101934 1_555
O10 Ti1 2.022849 1_565
O10 Ti2 2.026226 1_555
O10 V2 2.074715 1_655
O11 Ti1 2.012976 1_566
O11 V1 2.021270 1_465
O11 V2 2.061942 1_556
