# generated using pymatgen
data_Mn6O7F5
_symmetry_space_group_name_H-M   'P 1'
_cell_length_a   4.72254598
_cell_length_b   4.72254598
_cell_length_c   9.11144300
_cell_angle_alpha   90.00000000
_cell_angle_beta   90.00000000
_cell_angle_gamma   96.82714989
_symmetry_Int_Tables_number   1
_chemical_formula_structural   Mn6O7F5
_chemical_formula_sum   'Mn6 O7 F5'
_cell_volume   201.76653122
_cell_formula_units_Z   1
loop_
 _symmetry_equiv_pos_site_id
 _symmetry_equiv_pos_as_xyz
  1  'x, y, z'
loop_
 _atom_site_type_symbol
 _atom_site_label
 _atom_site_symmetry_multiplicity
 _atom_site_fract_x
 _atom_site_fract_y
 _atom_site_fract_z
 _atom_site_occupancy
  Mn  Mn0  1  0.01036600  0.98963400  0.00818300  1
  Mn  Mn1  1  0.01036600  0.98963400  0.32515000  1
  Mn  Mn2  1  0.99942000  0.00058000  0.66666700  1
  Mn  Mn3  1  0.50219500  0.49780500  0.83437500  1
  Mn  Mn4  1  0.48034100  0.51965900  0.16666700  1
  Mn  Mn5  1  0.50219500  0.49780500  0.49895800  1
  O  O0  1  0.19119500  0.80880500  0.16666700  1
  O  O1  1  0.29986000  0.30988100  0.00200000  1
  O  O2  1  0.29986000  0.30988100  0.33133300  1
  O  O3  1  0.30681600  0.29886100  0.66666700  1
  O  O4  1  0.69011900  0.70014000  0.00200000  1
  O  O5  1  0.69011900  0.70014000  0.33133300  1
  O  O6  1  0.70113900  0.69318400  0.66666700  1
  F  F0  1  0.19391000  0.80609000  0.50125500  1
  F  F1  1  0.19391000  0.80609000  0.83207800  1
  F  F2  1  0.79096100  0.20903900  0.16666700  1
  F  F3  1  0.81861200  0.18138800  0.49130800  1
  F  F4  1  0.81861200  0.18138800  0.84202500  1
loop_
_geom_bond_atom_site_label_1
_geom_bond_atom_site_label_2
_geom_bond_distance
_geom_bond_site_symmetry_2
Mn0 O4 1.915198 1_455
Mn0 O1 1.915198 1_565
Mn0 O0 1.927981 1_555
Mn1 O5 1.915198 1_455
Mn1 O2 1.915198 1_565
Mn1 O0 1.927974 1_555
Mn2 O3 1.898819 1_655
Mn2 O6 1.898819 1_545
Mn3 O1 1.957477 1_556
Mn3 O4 1.957477 1_556
Mn3 O6 1.965432 1_555
Mn3 O3 1.965432 1_555
Mn4 O2 1.938610 1_555
Mn4 O5 1.938610 1_555
Mn4 O1 1.938617 1_555
Mn4 O4 1.938617 1_555
Mn4 O0 2.042674 1_555
Mn5 O2 1.957477 1_555
Mn5 O5 1.957477 1_555
Mn5 O3 1.965439 1_555
Mn5 O6 1.965439 1_555
F0 Mn2 2.039433 1_465
F0 Mn1 2.062994 1_555
F0 Mn5 2.177982 1_555
F1 Mn2 2.039426 1_465
F1 Mn0 2.062994 1_556
F1 Mn3 2.177982 1_555
F2 Mn1 2.118402 1_645
F2 Mn0 2.118408 1_645
F2 Mn4 2.194377 1_555
F3 Mn1 2.031522 1_645
F3 Mn2 2.045587 1_555
F3 Mn5 2.236417 1_555
F4 Mn0 2.031522 1_646
F4 Mn2 2.045580 1_555
F4 Mn3 2.236417 1_555
