# generated using pymatgen
data_LiFe2(BO3)2
_symmetry_space_group_name_H-M   'P 1'
_cell_length_a   9.07275600
_cell_length_b   5.26593600
_cell_length_c   10.21963558
_cell_angle_alpha   88.67427247
_cell_angle_beta   90.00000000
_cell_angle_gamma   90.00000000
_symmetry_Int_Tables_number   1
_chemical_formula_structural   LiFe2(BO3)2
_chemical_formula_sum   'Li4 Fe8 B8 O24'
_cell_volume   488.12825862
_cell_formula_units_Z   4
loop_
 _symmetry_equiv_pos_site_id
 _symmetry_equiv_pos_as_xyz
  1  'x, y, z'
loop_
 _atom_site_type_symbol
 _atom_site_label
 _atom_site_symmetry_multiplicity
 _atom_site_fract_x
 _atom_site_fract_y
 _atom_site_fract_z
 _atom_site_occupancy
  Li  Li0  1  0.99568700  0.35531800  0.08515700  1
  Li  Li1  1  0.51380500  0.14717400  0.33347200  1
  Li  Li2  1  0.48619500  0.14717400  0.83347200  1
  Li  Li3  1  0.00431300  0.35531800  0.58515700  1
  Fe  Fe0  1  0.82561000  0.83931700  0.12641200  1
  Fe  Fe1  1  0.84791700  0.15756900  0.37219000  1
  Fe  Fe2  1  0.67557600  0.65923600  0.86485400  1
  Fe  Fe3  1  0.65732700  0.34441100  0.61523400  1
  Fe  Fe4  1  0.32442400  0.65923600  0.36485400  1
  Fe  Fe5  1  0.17439000  0.83931700  0.62641200  1
  Fe  Fe6  1  0.34267300  0.34441100  0.11523400  1
  Fe  Fe7  1  0.15208300  0.15756900  0.87219000  1
  B  B0  1  0.84510800  0.84669900  0.62736900  1
  B  B1  1  0.65489800  0.65504500  0.36456900  1
  B  B2  1  0.81975400  0.17390000  0.87956200  1
  B  B3  1  0.67926200  0.33254000  0.12309300  1
  B  B4  1  0.34510200  0.65504500  0.86456900  1
  B  B5  1  0.32073800  0.33254000  0.62309300  1
  B  B6  1  0.15489200  0.84669900  0.12736900  1
  B  B7  1  0.18024600  0.17390000  0.37956200  1
  O  O0  1  0.97758300  0.71613300  0.62162200  1
  O  O1  1  0.80762500  0.92239000  0.92494200  1
  O  O2  1  0.95072300  0.29837400  0.88588500  1
  O  O3  1  0.77745600  0.79304400  0.31859200  1
  O  O4  1  0.72195400  0.71235100  0.67314000  1
  O  O5  1  0.81293000  0.20722000  0.15656300  1
  O  O6  1  0.83630300  0.10071500  0.58739600  1
  O  O7  1  0.69362800  0.57526700  0.06667500  1
  O  O8  1  0.52194300  0.78117700  0.36852700  1
  O  O9  1  0.66643000  0.40057400  0.40440400  1
  O  O10  1  0.68898800  0.29192800  0.83614400  1
  O  O11  1  0.47805700  0.78117700  0.86852700  1
  O  O12  1  0.54717100  0.22319000  0.14496000  1
  O  O13  1  0.27804600  0.71235100  0.17314000  1
  O  O14  1  0.30637200  0.57526700  0.56667500  1
  O  O15  1  0.45282900  0.22319000  0.64496000  1
  O  O16  1  0.33357000  0.40057400  0.90440400  1
  O  O17  1  0.19237500  0.92239000  0.42494200  1
  O  O18  1  0.22254400  0.79304400  0.81859200  1
  O  O19  1  0.31101200  0.29192800  0.33614400  1
  O  O20  1  0.18707000  0.20722000  0.65656300  1
  O  O21  1  0.02241700  0.71613300  0.12162200  1
  O  O22  1  0.16369700  0.10071500  0.08739600  1
  O  O23  1  0.04927700  0.29837400  0.38588500  1
loop_
_geom_bond_atom_site_label_1
_geom_bond_atom_site_label_2
_geom_bond_distance
_geom_bond_site_symmetry_2
Li0 O21 1.959735 1_655
Li0 O5 1.965636 1_555
Li0 O22 2.029821 1_655
Li0 O2 2.105202 1_554
Li1 O8 1.953559 1_545
Li1 O12 1.981839 1_555
Li1 O19 1.991973 1_555
Li1 O9 2.065988 1_555
Li2 O11 1.953559 1_545
Li2 O15 1.981839 1_555
Li2 O10 1.991973 1_555
Li2 O16 2.065988 1_555
Li3 O0 1.959735 1_455
Li3 O20 1.965636 1_555
Li3 O6 2.029821 1_455
Li3 O23 2.105202 1_555
Fe0 O21 1.900777 1_655
Fe0 O7 1.944029 1_555
Fe0 O5 1.972091 1_565
Fe0 O3 2.021246 1_555
Fe0 O1 2.101331 1_554
Fe1 O23 1.977801 1_655
Fe1 O3 2.107626 1_545
Fe1 O9 2.115804 1_555
Fe1 O6 2.215244 1_555
Fe1 O5 2.235720 1_555
Fe2 O11 1.904278 1_555
Fe2 O1 1.942188 1_555
Fe2 O10 1.966815 1_555
Fe2 O4 2.017071 1_555
Fe2 O7 2.105754 1_556
Fe3 O15 1.983219 1_555
Fe3 O6 2.093180 1_555
Fe3 O4 2.121592 1_555
Fe3 O9 2.169592 1_555
Fe3 O10 2.286235 1_555
Fe4 O8 1.904278 1_555
Fe4 O17 1.942188 1_555
Fe4 O19 1.966815 1_555
Fe4 O13 2.017071 1_555
Fe4 O14 2.105754 1_555
Fe5 O0 1.900777 1_455
Fe5 O14 1.944029 1_555
Fe5 O20 1.972091 1_565
Fe5 O18 2.021246 1_555
Fe5 O17 2.101331 1_555
Fe6 O12 1.983219 1_555
Fe6 O22 2.093180 1_555
Fe6 O13 2.121592 1_555
Fe6 O16 2.169592 1_554
Fe6 O19 2.286235 1_555
Fe7 O2 1.977801 1_455
Fe7 O18 2.107626 1_545
Fe7 O16 2.115804 1_555
Fe7 O22 2.215244 1_556
Fe7 O20 2.235720 1_555
B0 O0 1.386594 1_555
B0 O6 1.391846 1_565
B0 O4 1.397306 1_555
B1 O8 1.378089 1_555
B1 O9 1.395388 1_555
B1 O3 1.403377 1_555
B2 O2 1.359307 1_555
B2 O1 1.397461 1_545
B2 O10 1.406408 1_555
B3 O12 1.346031 1_555
B3 O7 1.396094 1_555
B3 O5 1.418728 1_555
B4 O11 1.378089 1_555
B4 O16 1.395388 1_555
B4 O18 1.403377 1_555
B5 O15 1.346031 1_555
B5 O14 1.396094 1_555
B5 O20 1.418728 1_555
B6 O21 1.386594 1_555
B6 O22 1.391846 1_565
B6 O13 1.397306 1_555
B7 O23 1.359307 1_555
B7 O17 1.397461 1_545
B7 O19 1.406408 1_555
