# generated using pymatgen
data_Rb3PbO3
_symmetry_space_group_name_H-M   'P 1'
_cell_length_a   7.35154555
_cell_length_b   7.35154555
_cell_length_c   7.31064099
_cell_angle_alpha   85.66203668
_cell_angle_beta   85.66203668
_cell_angle_gamma   115.28626926
_symmetry_Int_Tables_number   1
_chemical_formula_structural   Rb3PbO3
_chemical_formula_sum   'Rb6 Pb2 O6'
_cell_volume   353.66223573
_cell_formula_units_Z   2
loop_
 _symmetry_equiv_pos_site_id
 _symmetry_equiv_pos_as_xyz
  1  'x, y, z'
loop_
 _atom_site_type_symbol
 _atom_site_label
 _atom_site_symmetry_multiplicity
 _atom_site_fract_x
 _atom_site_fract_y
 _atom_site_fract_z
 _atom_site_occupancy
  Rb  Rb0  1  0.63907700  0.63907700  0.64276000  1
  Rb  Rb1  1  0.19589500  0.80410500  0.50000000  1
  Rb  Rb2  1  0.80410500  0.19589500  0.50000000  1
  Rb  Rb3  1  0.74372800  0.25627200  0.00000000  1
  Rb  Rb4  1  0.25627200  0.74372800  0.00000000  1
  Rb  Rb5  1  0.36092300  0.36092300  0.35724000  1
  Pb  Pb0  1  0.80587400  0.80587400  0.14137400  1
  Pb  Pb1  1  0.19412600  0.19412600  0.85862600  1
  O  O0  1  0.91692100  0.91692100  0.82715400  1
  O  O1  1  0.83848900  0.54736300  0.27841500  1
  O  O2  1  0.54736300  0.83848900  0.27841500  1
  O  O3  1  0.45263700  0.16151100  0.72158500  1
  O  O4  1  0.16151100  0.45263700  0.72158500  1
  O  O5  1  0.08307900  0.08307900  0.17284600  1
loop_
_geom_bond_atom_site_label_1
_geom_bond_atom_site_label_2
_geom_bond_distance
_geom_bond_site_symmetry_2
O0 Pb1 2.225520 1_665
O0 Pb0 2.339460 1_556
O0 Rb0 2.725875 1_555
O0 Rb1 3.409603 1_655
O0 Rb2 3.409603 1_565
O1 Pb0 2.193290 1_555
O1 Rb2 2.848009 1_555
O1 Rb3 2.967738 1_555
O1 Rb1 3.155972 1_655
O1 Rb5 3.162332 1_555
O1 Rb0 3.197471 1_555
O1 Rb4 3.237603 1_655
O2 Pb0 2.193290 1_555
O2 Rb1 2.848009 1_555
O2 Rb4 2.967738 1_555
O2 Rb2 3.155972 1_565
O2 Rb5 3.162332 1_555
O2 Rb0 3.197471 1_555
O2 Rb3 3.237603 1_565
O3 Pb1 2.193290 1_555
O3 Rb2 2.848009 1_555
O3 Rb3 2.967738 1_556
O3 Rb1 3.155972 1_545
O3 Rb0 3.162332 1_555
O3 Rb5 3.197471 1_555
O3 Rb4 3.237603 1_546
O4 Pb1 2.193290 1_555
O4 Rb1 2.848009 1_555
O4 Rb4 2.967738 1_556
O4 Rb2 3.155972 1_455
O4 Rb0 3.162332 1_555
O4 Rb5 3.197471 1_555
O4 Rb3 3.237603 1_456
O5 Pb0 2.225520 1_445
O5 Pb1 2.339460 1_554
O5 Rb5 2.725875 1_555
O5 Rb2 3.409603 1_455
O5 Rb1 3.409603 1_545
