# generated using pymatgen
data_V3NiO8
_symmetry_space_group_name_H-M   'P 1'
_cell_length_a   6.35694992
_cell_length_b   6.35694992
_cell_length_c   6.46274230
_cell_angle_alpha   73.86425058
_cell_angle_beta   73.86425058
_cell_angle_gamma   34.51664942
_symmetry_Int_Tables_number   1
_chemical_formula_structural   V3NiO8
_chemical_formula_sum   'V3 Ni1 O8'
_cell_volume   141.58262630
_cell_formula_units_Z   1
loop_
 _symmetry_equiv_pos_site_id
 _symmetry_equiv_pos_as_xyz
  1  'x, y, z'
loop_
 _atom_site_type_symbol
 _atom_site_label
 _atom_site_symmetry_multiplicity
 _atom_site_fract_x
 _atom_site_fract_y
 _atom_site_fract_z
 _atom_site_occupancy
  V  V0  1  0.60034100  0.60034100  0.28191300  1
  V  V1  1  0.39955800  0.39955800  0.72407500  1
  V  V2  1  0.70556900  0.70556900  0.69892000  1
  Ni  Ni0  1  0.29545300  0.29545300  0.30724700  1
  O  O0  1  0.86839300  0.86839300  0.68978000  1
  O  O1  1  0.74877800  0.74877800  0.37176300  1
  O  O2  1  0.64196200  0.64196200  0.98913400  1
  O  O3  1  0.55188300  0.55188300  0.64119300  1
  O  O4  1  0.45328100  0.45328100  0.35210600  1
  O  O5  1  0.36607900  0.36607900  0.98974200  1
  O  O6  1  0.24390300  0.24390300  0.66189800  1
  O  O7  1  0.12480100  0.12480100  0.29222900  1
loop_
_geom_bond_atom_site_label_1
_geom_bond_atom_site_label_2
_geom_bond_distance
_geom_bond_site_symmetry_2
Ni0 O1 1.978485 1_545
Ni0 O1 1.978485 1_455
Ni0 O5 1.980329 1_554
Ni0 O4 2.019770 1_555
Ni0 O7 2.102265 1_555
Ni0 O6 2.193200 1_555
O0 V1 1.948857 1_565
O0 V1 1.948857 1_655
O0 V2 1.960549 1_555
O1 V2 2.024851 1_555
O1 V0 2.048019 1_555
O2 V2 1.808633 1_555
O2 V0 1.810826 1_556
O3 V1 1.769405 1_555
O3 V2 2.006547 1_555
O3 V0 2.223154 1_555
O4 V0 1.709519 1_555
O4 V1 2.300379 1_555
O5 V1 1.645265 1_555
O6 V2 1.940615 1_545
O6 V2 1.940615 1_455
O6 V1 2.043314 1_555
O7 V0 1.913399 1_455
O7 V0 1.913399 1_545
