# generated using pymatgen
data_Fe2P2H4NO8
_symmetry_space_group_name_H-M   'P 1'
_cell_length_a   10.49325311
_cell_length_b   12.95089943
_cell_length_c   12.95089943
_cell_angle_alpha   74.61603477
_cell_angle_beta   66.32716233
_cell_angle_gamma   66.32716233
_symmetry_Int_Tables_number   1
_chemical_formula_structural   Fe2P2H4NO8
_chemical_formula_sum   'Fe16 P16 H32 N8 O64'
_cell_volume   1464.84833073
_cell_formula_units_Z   8
loop_
 _symmetry_equiv_pos_site_id
 _symmetry_equiv_pos_as_xyz
  1  'x, y, z'
loop_
 _atom_site_type_symbol
 _atom_site_label
 _atom_site_symmetry_multiplicity
 _atom_site_fract_x
 _atom_site_fract_y
 _atom_site_fract_z
 _atom_site_occupancy
  Fe  Fe0  1  0.59158026  0.98632229  0.86336710  1
  Fe  Fe1  1  0.90841974  0.13663290  0.01367771  1
  Fe  Fe2  1  0.40841974  0.01367771  0.13663290  1
  Fe  Fe3  1  0.09158026  0.86336710  0.98632229  1
  Fe  Fe4  1  0.90643223  0.00950277  0.65192576  1
  Fe  Fe5  1  0.59356777  0.34807424  0.99049723  1
  Fe  Fe6  1  0.09356777  0.99049723  0.34807424  1
  Fe  Fe7  1  0.40643223  0.65192576  0.00950277  1
  Fe  Fe8  1  0.75000000  0.29652722  0.70347278  1
  Fe  Fe9  1  0.25000000  0.70347278  0.29652722  1
  Fe  Fe10  1  0.25000000  0.18770316  0.81229684  1
  Fe  Fe11  1  0.75000000  0.81229684  0.18770316  1
  Fe  Fe12  1  0.74817520  0.69196940  0.80455931  1
  Fe  Fe13  1  0.75182480  0.19544069  0.30803060  1
  Fe  Fe14  1  0.25182480  0.30803060  0.19544069  1
  Fe  Fe15  1  0.24817520  0.80455931  0.69196940  1
  P  P0  1  0.42336299  0.89331708  0.81497520  1
  P  P1  1  0.07663701  0.18502480  0.10668292  1
  P  P2  1  0.57663701  0.10668292  0.18502480  1
  P  P3  1  0.92336299  0.81497520  0.89331708  1
  P  P4  1  0.04887093  0.07471868  0.75417735  1
  P  P5  1  0.45112907  0.24582265  0.92528132  1
  P  P6  1  0.95112907  0.92528132  0.24582265  1
  P  P7  1  0.54887093  0.75417735  0.07471868  1
  P  P8  1  0.96914485  0.24144626  0.41433741  1
  P  P9  1  0.53085515  0.58566259  0.75855374  1
  P  P10  1  0.03085515  0.75855374  0.58566259  1
  P  P11  1  0.46914485  0.41433741  0.24144626  1
  P  P12  1  0.58316389  0.18407718  0.62211834  1
  P  P13  1  0.91683611  0.37788166  0.81592282  1
  P  P14  1  0.41683611  0.81592282  0.37788166  1
  P  P15  1  0.08316389  0.62211834  0.18407718  1
  H  H0  1  0.29108273  0.10005632  0.55270761  1
  H  H1  1  0.20891727  0.44729239  0.89994368  1
  H  H2  1  0.70891727  0.89994368  0.44729239  1
  H  H3  1  0.79108273  0.55270761  0.10005632  1
  H  H4  1  0.25175992  0.15641109  0.43198195  1
  H  H5  1  0.24824008  0.56801805  0.84358891  1
  H  H6  1  0.74824008  0.84358891  0.56801805  1
  H  H7  1  0.75175992  0.43198195  0.15641109  1
  H  H8  1  0.49261703  0.12196466  0.36967181  1
  H  H9  1  0.00738297  0.63032819  0.87803534  1
  H  H10  1  0.50738297  0.87803534  0.63032819  1
  H  H11  1  0.99261703  0.36967181  0.12196466  1
  H  H12  1  0.30387585  0.93532985  0.50660221  1
  H  H13  1  0.19612415  0.49339779  0.06467015  1
  H  H14  1  0.69612415  0.06467015  0.49339779  1
  H  H15  1  0.80387585  0.50660221  0.93532985  1
  H  H16  1  0.83246779  0.71770933  0.43740469  1
  H  H17  1  0.66753221  0.56259531  0.28229067  1
  H  H18  1  0.16753221  0.28229067  0.56259531  1
  H  H19  1  0.33246779  0.43740469  0.71770933  1
  H  H20  1  0.94449260  0.36637783  0.51356546  1
  H  H21  1  0.55550740  0.48643454  0.63362217  1
  H  H22  1  0.05550740  0.63362217  0.48643454  1
  H  H23  1  0.44449260  0.51356546  0.36637783  1
  H  H24  1  0.65722915  0.74815694  0.44607046  1
  H  H25  1  0.84277085  0.55392954  0.25184306  1
  H  H26  1  0.34277085  0.25184306  0.55392954  1
  H  H27  1  0.15722915  0.44607046  0.74815694  1
  H  H28  1  0.70898866  0.68511110  0.57080606  1
  H  H29  1  0.79101134  0.42919394  0.31488890  1
  H  H30  1  0.29101134  0.31488890  0.42919394  1
  H  H31  1  0.20898866  0.57080606  0.68511110  1
  N  N0  1  0.31944818  0.14848777  0.47536299  1
  N  N1  1  0.18055182  0.52463701  0.85151223  1
  N  N2  1  0.68055182  0.85151223  0.52463701  1
  N  N3  1  0.81944818  0.47536299  0.14848777  1
  N  N4  1  0.72541745  0.73972170  0.49343842  1
  N  N5  1  0.77458255  0.50656158  0.26027830  1
  N  N6  1  0.27458255  0.26027830  0.50656158  1
  N  N7  1  0.22541745  0.49343842  0.73972170  1
  O  O0  1  0.59068244  0.85345592  0.79649402  1
  O  O1  1  0.90931756  0.20350598  0.14654408  1
  O  O2  1  0.40931756  0.14654408  0.20350598  1
  O  O3  1  0.09068244  0.79649402  0.85345592  1
  O  O4  1  0.36739150  0.01565669  0.83736024  1
  O  O5  1  0.13260850  0.16263976  0.98434331  1
  O  O6  1  0.63260850  0.98434331  0.16263976  1
  O  O7  1  0.86739150  0.83736024  0.01565669  1
  O  O8  1  0.33561641  0.81938928  0.90597402  1
  O  O9  1  0.16438359  0.09402598  0.18061072  1
  O  O10  1  0.66438359  0.18061072  0.09402598  1
  O  O11  1  0.83561641  0.90597402  0.81938928  1
  O  O12  1  0.41095339  0.88455780  0.69697529  1
  O  O13  1  0.08904661  0.30302471  0.11544220  1
  O  O14  1  0.58904661  0.11544220  0.30302471  1
  O  O15  1  0.91095339  0.69697529  0.88455780  1
  O  O16  1  0.11826552  0.97409340  0.68059862  1
  O  O17  1  0.38173448  0.31940138  0.02590660  1
  O  O18  1  0.88173448  0.02590660  0.31940138  1
  O  O19  1  0.61826552  0.68059862  0.97409340  1
  O  O20  1  0.89997311  0.13733116  0.72805477  1
  O  O21  1  0.60002689  0.27194523  0.86266884  1
  O  O22  1  0.10002689  0.86266884  0.27194523  1
  O  O23  1  0.39997311  0.72805477  0.13733116  1
  O  O24  1  0.01322641  0.03342116  0.88465562  1
  O  O25  1  0.48677359  0.11534438  0.96657884  1
  O  O26  1  0.98677359  0.96657884  0.11534438  1
  O  O27  1  0.51322641  0.88465562  0.03342116  1
  O  O28  1  0.14871276  0.14657900  0.71555343  1
  O  O29  1  0.35128724  0.28444657  0.85342100  1
  O  O30  1  0.85128724  0.85342100  0.28444657  1
  O  O31  1  0.64871276  0.71555343  0.14657900  1
  O  O32  1  0.00232188  0.11369426  0.46099055  1
  O  O33  1  0.49767812  0.53900945  0.88630574  1
  O  O34  1  -0.00232188  0.88630574  0.53900945  1
  O  O35  1  0.50232188  0.46099055  0.11369426  1
  O  O36  1  0.10874000  0.27286071  0.34992946  1
  O  O37  1  0.39126000  0.65007054  0.72713929  1
  O  O38  1  0.89126000  0.72713929  0.65007054  1
  O  O39  1  0.60874000  0.34992946  0.27286071  1
  O  O40  1  0.89559711  0.31250437  0.52468538  1
  O  O41  1  0.60440289  0.47531462  0.68749563  1
  O  O42  1  0.10440289  0.68749563  0.47531462  1
  O  O43  1  0.39559711  0.52468538  0.31250437  1
  O  O44  1  0.85528000  0.28501321  0.35486936  1
  O  O45  1  0.64472000  0.64513064  0.71498679  1
  O  O46  1  0.14472000  0.71498679  0.64513064  1
  O  O47  1  0.35528000  0.35486936  0.28501321  1
  O  O48  1  0.66362305  0.07762962  0.69063317  1
  O  O49  1  0.83637695  0.30936683  0.92237038  1
  O  O50  1  0.33637695  0.92237038  0.30936683  1
  O  O51  1  0.16362305  0.69063317  0.07762962  1
  O  O52  1  0.65821293  0.14685552  0.49198172  1
  O  O53  1  0.84178707  0.50801828  0.85314448  1
  O  O54  1  0.34178707  0.85314448  0.50801828  1
  O  O55  1  0.15821293  0.49198172  0.14685552  1
  O  O56  1  0.61771914  0.28891231  0.61565313  1
  O  O57  1  0.88228086  0.38434687  0.71108769  1
  O  O58  1  0.38228086  0.71108769  0.38434687  1
  O  O59  1  0.11771914  0.61565313  0.28891231  1
  O  O60  1  0.41912742  0.20653082  0.64877732  1
  O  O61  1  0.08087258  0.35122268  0.79346918  1
  O  O62  1  0.58087258  0.79346918  0.35122268  1
  O  O63  1  0.91912742  0.64877732  0.20653082  1
loop_
_geom_bond_atom_site_label_1
_geom_bond_atom_site_label_2
_geom_bond_distance
_geom_bond_site_symmetry_2
Fe0 O25 2.077781 1_565
Fe0 O0 2.126352 1_555
Fe0 O48 2.220479 1_565
Fe0 O11 2.228907 1_555
Fe0 O27 2.266424 1_556
Fe0 O4 2.375412 1_565
Fe1 O24 2.077781 1_654
Fe1 O1 2.126352 1_555
Fe1 O49 2.220479 1_554
Fe1 O10 2.228907 1_555
Fe1 O26 2.266424 1_545
Fe1 O5 2.375412 1_654
Fe2 O27 2.077781 1_545
Fe2 O2 2.126352 1_555
Fe2 O50 2.220479 1_545
Fe2 O9 2.228907 1_555
Fe2 O25 2.266424 1_554
Fe2 O6 2.375412 1_545
Fe3 O26 2.077781 1_456
Fe3 O3 2.126352 1_555
Fe3 O51 2.220479 1_556
Fe3 O8 2.228907 1_555
Fe3 O24 2.266424 1_565
Fe3 O7 2.375412 1_456
Fe4 O20 2.107029 1_555
Fe4 O34 2.118431 1_645
Fe4 O48 2.219271 1_555
Fe4 O11 2.239789 1_545
Fe4 O16 2.245672 1_645
Fe4 O32 2.503959 1_655
Fe5 O21 2.107029 1_555
Fe5 O35 2.118431 1_556
Fe5 O49 2.219271 1_555
Fe5 O10 2.239789 1_556
Fe5 O17 2.245672 1_556
Fe5 O33 2.503959 1_555
Fe6 O22 2.107029 1_555
Fe6 O32 2.118431 1_565
Fe6 O50 2.219271 1_555
Fe6 O9 2.239789 1_565
Fe6 O18 2.245672 1_465
Fe6 O34 2.503959 1_555
Fe7 O23 2.107029 1_555
Fe7 O33 2.118431 1_554
Fe7 O51 2.219271 1_555
Fe7 O8 2.239789 1_554
Fe7 O19 2.245672 1_554
Fe7 O35 2.503959 1_555
Fe8 O20 2.068149 1_555
Fe8 O21 2.068149 1_555
Fe8 O56 2.160359 1_555
Fe8 O57 2.160359 1_555
Fe8 O40 2.212966 1_555
Fe8 O41 2.212966 1_555
Fe9 O23 2.068149 1_555
Fe9 O22 2.068149 1_555
Fe9 O59 2.160359 1_555
Fe9 O58 2.160359 1_555
Fe9 O42 2.212966 1_555
Fe9 O43 2.212966 1_555
Fe10 O5 2.078632 1_555
Fe10 O4 2.078632 1_555
Fe10 O61 2.179278 1_555
Fe10 O60 2.179278 1_555
Fe10 O28 2.204771 1_555
Fe10 O29 2.204771 1_555
Fe11 O6 2.078632 1_555
Fe11 O7 2.078632 1_555
Fe11 O62 2.179278 1_555
Fe11 O63 2.179278 1_555
Fe11 O31 2.204771 1_555
Fe11 O30 2.204771 1_555
Fe12 O38 2.029327 1_555
Fe12 O19 2.070472 1_555
Fe12 O0 2.088830 1_555
Fe12 O45 2.192167 1_555
Fe12 O53 2.204115 1_555
Fe12 O15 2.353882 1_555
Fe13 O39 2.029327 1_555
Fe13 O18 2.070472 1_555
Fe13 O1 2.088830 1_555
Fe13 O44 2.192167 1_555
Fe13 O52 2.204115 1_555
Fe13 O14 2.353882 1_555
Fe14 O36 2.029327 1_555
Fe14 O17 2.070472 1_555
Fe14 O2 2.088830 1_555
Fe14 O47 2.192167 1_555
Fe14 O55 2.204115 1_555
Fe14 O13 2.353882 1_555
Fe15 O37 2.029327 1_555
Fe15 O16 2.070472 1_555
Fe15 O3 2.088830 1_555
Fe15 O46 2.192167 1_555
Fe15 O54 2.204115 1_555
Fe15 O12 2.353882 1_555
H0 N0 1.030790 1_555
H1 N1 1.030790 1_555
H2 N2 1.030790 1_555
H3 N3 1.030790 1_555
H4 N0 1.030528 1_555
H5 N1 1.030528 1_555
H6 N2 1.030528 1_555
H7 N3 1.030528 1_555
H8 O14 1.022110 1_555
H9 O15 1.022110 1_455
H10 O12 1.022110 1_555
H11 O13 1.022110 1_655
H12 O54 0.973122 1_555
H13 O55 0.973122 1_555
H14 O52 0.973122 1_555
H15 O53 0.973122 1_555
H16 N4 1.033303 1_555
H17 N5 1.033303 1_555
H18 N6 1.033303 1_555
H19 N7 1.033303 1_555
H20 O40 0.972420 1_555
H21 O41 0.972420 1_555
H22 O42 0.972420 1_555
H23 O43 0.972420 1_555
H24 N4 1.074422 1_555
H24 O62 1.589190 1_555
H25 N5 1.074422 1_555
H25 O63 1.589190 1_555
H26 N6 1.074422 1_555
H26 O60 1.589190 1_555
H27 N7 1.074422 1_555
H27 O61 1.589190 1_555
H28 N4 1.056930 1_555
H28 O45 1.722150 1_555
H29 N5 1.056930 1_555
H29 O44 1.722150 1_555
H30 N6 1.056930 1_555
H30 O47 1.722150 1_555
H31 N7 1.056930 1_555
H31 O46 1.722150 1_555
O0 P0 1.551329 1_555
O1 P1 1.551329 1_655
O2 P2 1.551329 1_555
O3 P3 1.551329 1_455
O4 P0 1.516264 1_545
O5 P1 1.516264 1_556
O6 P2 1.516264 1_565
O7 P3 1.516264 1_554
O8 P0 1.546355 1_555
O9 P1 1.546355 1_555
O10 P2 1.546355 1_555
O11 P3 1.546355 1_555
O12 P0 1.621382 1_555
O13 P1 1.621382 1_555
O14 P2 1.621382 1_555
O15 P3 1.621382 1_555
O16 P4 1.573598 1_565
O17 P5 1.573598 1_554
O18 P6 1.573598 1_545
O19 P7 1.573598 1_556
O20 P4 1.573111 1_655
O21 P5 1.573111 1_555
O22 P6 1.573111 1_455
O23 P7 1.573111 1_555
O24 P4 1.566841 1_555
O25 P5 1.566841 1_555
O26 P6 1.566841 1_555
O27 P7 1.566841 1_555
O28 P4 1.526130 1_555
O29 P5 1.526130 1_555
O30 P6 1.526130 1_555
O31 P7 1.526130 1_555
O32 P8 1.549072 1_455
O33 P9 1.549072 1_555
O34 P10 1.549072 1_555
O35 P11 1.549072 1_555
O36 P8 1.524564 1_455
O37 P9 1.524564 1_555
O38 P10 1.524564 1_655
O39 P11 1.524564 1_555
O40 P8 1.651249 1_555
O41 P9 1.651249 1_555
O42 P10 1.651249 1_555
O43 P11 1.651249 1_555
O44 P8 1.518589 1_555
O45 P9 1.518589 1_555
O46 P10 1.518589 1_555
O47 P11 1.518589 1_555
O48 P12 1.555177 1_555
O49 P13 1.555177 1_555
O50 P14 1.555177 1_555
O51 P15 1.555177 1_555
O52 P12 1.659357 1_555
O53 P13 1.659357 1_555
O54 P14 1.659357 1_555
O55 P15 1.659357 1_555
O56 P12 1.514099 1_555
O57 P13 1.514099 1_555
O58 P14 1.514099 1_555
O59 P15 1.514099 1_555
O60 P12 1.529919 1_555
O61 P13 1.529919 1_455
O62 P14 1.529919 1_555
O63 P15 1.529919 1_655
