# generated using pymatgen
data_In15SnO24
_symmetry_space_group_name_H-M   'P 1'
_cell_length_a   8.81713588
_cell_length_b   8.81713588
_cell_length_c   10.19902199
_cell_angle_alpha   54.81679000
_cell_angle_beta   54.81679000
_cell_angle_gamma   70.55427568
_symmetry_Int_Tables_number   1
_chemical_formula_structural   In15SnO24
_chemical_formula_sum   'In15 Sn1 O24'
_cell_volume   529.65226198
_cell_formula_units_Z   1
loop_
 _symmetry_equiv_pos_site_id
 _symmetry_equiv_pos_as_xyz
  1  'x, y, z'
loop_
 _atom_site_type_symbol
 _atom_site_label
 _atom_site_symmetry_multiplicity
 _atom_site_fract_x
 _atom_site_fract_y
 _atom_site_fract_z
 _atom_site_occupancy
  In  In0  1  0.50147721  0.00000811  0.24930644  1
  In  In1  1  0.21819320  0.71620883  0.78369755  1
  In  In2  1  0.28379117  0.78180680  0.21630245  1
  In  In3  1  0.24873572  0.25062770  0.96693343  1
  In  In4  1  0.25186275  0.25068284  0.46598482  1
  In  In5  1  0.53308771  0.46691229  0.50000000  1
  In  In6  1  -0.00000811  0.49852279  0.75069356  1
  In  In7  1  0.00037222  0.49950431  0.24847272  1
  In  In8  1  0.50049569  0.99962778  0.75152728  1
  In  In9  1  0.46718058  0.53281942  -0.00000000  1
  In  In10  1  0.74931716  0.74813725  0.53401518  1
  In  In11  1  0.74937230  0.75126428  0.03306657  1
  In  In12  1  0.78286423  0.28231419  0.71763646  1
  In  In13  1  0.71768581  0.21713577  0.28236354  1
  In  In14  1  0.96712806  0.03287194  -0.00000000  1
  Sn  Sn0  1  0.03492840  0.96507160  0.50000000  1
  O  O0  1  0.23721230  0.45578000  0.02167974  1
  O  O1  1  0.25143556  0.04600303  0.22414214  1
  O  O2  1  0.03905161  0.73402543  0.47883883  1
  O  O3  1  0.72634612  0.03682365  0.97923221  1
  O  O4  1  0.53484496  0.22778646  0.75980305  1
  O  O5  1  0.22433436  0.53454165  0.26136153  1
  O  O6  1  0.54422000  0.76278770  0.97832026  1
  O  O7  1  0.95399697  0.74856444  0.77585786  1
  O  O8  1  0.27045568  0.50991383  0.70550181  1
  O  O9  1  0.99291718  0.21836294  0.48598947  1
  O  O10  1  0.22777354  0.99122078  0.98851906  1
  O  O11  1  0.50659618  0.27065768  0.20692929  1
  O  O12  1  0.78163706  0.00708282  0.51401053  1
  O  O13  1  0.49008617  0.72954432  0.29449819  1
  O  O14  1  0.72934232  0.49340382  0.79307071  1
  O  O15  1  0.00877922  0.77222646  0.01148094  1
  O  O16  1  0.04461583  0.26373748  0.71186680  1
  O  O17  1  0.45896284  0.23218030  0.52266598  1
  O  O18  1  0.77221354  0.46515504  0.24019695  1
  O  O19  1  0.46545835  0.77566564  0.73863847  1
  O  O20  1  0.26597457  0.96094839  0.52116117  1
  O  O21  1  0.96317635  0.27365388  0.02076779  1
  O  O22  1  0.76781970  0.54103716  0.47733402  1
  O  O23  1  0.73626252  0.95538417  0.28813320  1
loop_
_geom_bond_atom_site_label_1
_geom_bond_atom_site_label_2
_geom_bond_distance
_geom_bond_site_symmetry_2
In0 O3 2.174462 1_554
In0 O11 2.178117 1_555
In0 O13 2.179194 1_545
In0 O23 2.195424 1_545
In0 O20 2.204317 1_545
In0 O1 2.242236 1_555
In1 O19 2.137272 1_555
In1 O20 2.156496 1_555
In1 O15 2.195953 1_556
In1 O8 2.201590 1_555
In1 O0 2.232043 1_556
In1 O7 2.293471 1_455
In2 O5 2.137272 1_555
In2 O2 2.156496 1_555
In2 O10 2.195953 1_554
In2 O13 2.201590 1_555
In2 O6 2.232043 1_554
In2 O1 2.293471 1_565
In3 O0 2.137802 1_556
In3 O1 2.174054 1_556
In3 O21 2.208414 1_456
In3 O4 2.208593 1_555
In3 O10 2.228978 1_545
In3 O8 2.247463 1_555
In4 O16 2.133778 1_555
In4 O17 2.145841 1_555
In4 O5 2.199646 1_555
In4 O11 2.223734 1_555
In4 O20 2.251813 1_545
In4 O9 2.272672 1_455
In5 O8 2.153384 1_555
In5 O13 2.153384 1_555
In5 O22 2.222449 1_555
In5 O17 2.222449 1_555
In5 O18 2.248160 1_555
In5 O4 2.248160 1_555
In6 O21 2.174462 1_456
In6 O14 2.178117 1_455
In6 O8 2.179194 1_555
In6 O16 2.195424 1_555
In6 O2 2.204317 1_555
In6 O7 2.242236 1_455
In7 O22 2.180921 1_455
In7 O5 2.182727 1_555
In7 O18 2.185546 1_455
In7 O0 2.187456 1_555
In7 O15 2.200989 1_555
In7 O9 2.241055 1_455
In8 O17 2.180921 1_565
In8 O19 2.182727 1_555
In8 O4 2.185546 1_565
In8 O6 2.187456 1_555
In8 O10 2.200989 1_555
In8 O12 2.241055 1_565
In9 O14 2.146287 1_554
In9 O11 2.146287 1_555
In9 O6 2.202050 1_554
In9 O0 2.202050 1_555
In9 O19 2.266750 1_554
In9 O5 2.266750 1_555
In10 O23 2.133778 1_555
In10 O22 2.145841 1_555
In10 O19 2.199646 1_555
In10 O14 2.223734 1_555
In10 O2 2.251813 1_655
In10 O12 2.272672 1_565
In11 O6 2.137802 1_554
In11 O7 2.174054 1_554
In11 O3 2.208414 1_564
In11 O18 2.208593 1_555
In11 O15 2.228978 1_655
In11 O13 2.247463 1_555
In12 O4 2.139222 1_555
In12 O3 2.140758 1_555
In12 O14 2.219375 1_555
In12 O22 2.226757 1_555
In12 O16 2.227016 1_655
In12 O9 2.264346 1_555
In13 O18 2.139222 1_555
In13 O21 2.140758 1_555
In13 O11 2.219375 1_555
In13 O17 2.226757 1_555
In13 O23 2.227016 1_545
In13 O12 2.264346 1_555
In14 O15 2.146523 1_645
In14 O10 2.146523 1_644
In14 O23 2.228228 1_545
In14 O16 2.228228 1_654
In14 O21 2.239125 1_555
In14 O3 2.239125 1_554
O1 Sn0 2.114984 1_545
O2 Sn0 2.155518 1_555
O7 Sn0 2.114984 1_655
O9 Sn0 2.070678 1_645
O12 Sn0 2.070678 1_645
O20 Sn0 2.155518 1_555
