# generated using pymatgen
data_Cu6OF11
_symmetry_space_group_name_H-M   'P 1'
_cell_length_a   5.54772546
_cell_length_b   5.83613003
_cell_length_c   6.94050569
_cell_angle_alpha   76.19187362
_cell_angle_beta   72.94332115
_cell_angle_gamma   69.63346733
_symmetry_Int_Tables_number   1
_chemical_formula_structural   Cu6OF11
_chemical_formula_sum   'Cu6 O1 F11'
_cell_volume   199.04777476
_cell_formula_units_Z   1
loop_
 _symmetry_equiv_pos_site_id
 _symmetry_equiv_pos_as_xyz
  1  'x, y, z'
loop_
 _atom_site_type_symbol
 _atom_site_label
 _atom_site_symmetry_multiplicity
 _atom_site_fract_x
 _atom_site_fract_y
 _atom_site_fract_z
 _atom_site_occupancy
  Cu  Cu0  1  -0.00063694  0.00395530  0.99763658  1
  Cu  Cu1  1  0.98137289  0.98526717  0.49753976  1
  Cu  Cu2  1  0.67133152  0.68045148  0.34106614  1
  Cu  Cu3  1  0.66563999  0.66861956  0.82103155  1
  Cu  Cu4  1  0.33362205  0.33755323  0.17010034  1
  Cu  Cu5  1  0.32568188  0.33417912  0.66617775  1
  O  O0  1  0.80457918  0.72530205  0.53945287  1
  F  F0  1  0.89167991  0.93058475  0.79252758  1
  F  F1  1  0.57077499  0.59857373  0.12491613  1
  F  F2  1  0.35714064  0.95312482  0.83263470  1
  F  F3  1  0.31188091  0.71830080  0.50291883  1
  F  F4  1  0.97912020  0.38296324  0.83915965  1
  F  F5  1  0.03246072  0.61932725  0.16401833  1
  F  F6  1  0.68028406  0.27527138  0.49761544  1
  F  F7  1  0.63982721  0.05743451  0.16652335  1
  F  F8  1  0.43983666  0.41264466  0.87253700  1
  F  F9  1  0.21563710  0.24196719  0.46440964  1
  F  F10  1  0.09977003  0.07447777  0.20973336  1
loop_
_geom_bond_atom_site_label_1
_geom_bond_atom_site_label_2
_geom_bond_distance
_geom_bond_site_symmetry_2
Cu0 F0 1.880074 1_445
Cu0 F10 1.891151 1_556
Cu0 F2 1.938554 1_545
Cu0 F7 1.954377 1_456
Cu0 F4 2.203023 1_455
Cu0 F5 2.237458 1_546
Cu1 F10 1.914290 1_665
Cu1 F6 1.920099 1_565
Cu1 F0 1.934465 1_555
Cu1 F3 1.953154 1_655
Cu1 O0 2.001544 1_555
Cu1 F9 2.236472 1_665
Cu2 O0 1.847877 1_555
Cu2 F3 1.945503 1_555
Cu2 F1 1.951617 1_555
Cu2 F5 1.979542 1_655
Cu2 F7 2.218766 1_565
Cu2 F6 2.344828 1_555
Cu3 O0 1.872976 1_555
Cu3 F2 1.922903 1_555
Cu3 F4 1.956987 1_555
Cu3 F1 1.994861 1_556
Cu3 F8 2.171118 1_555
Cu3 F0 2.234648 1_555
Cu4 F5 1.895610 1_555
Cu4 F7 1.902778 1_555
Cu4 F9 1.959071 1_555
Cu4 F8 1.959158 1_554
Cu4 F1 2.252742 1_555
Cu4 F10 2.256445 1_555
Cu5 F4 1.909711 1_455
Cu5 F8 1.925906 1_555
Cu5 F9 1.926998 1_555
Cu5 F6 1.930803 1_555
Cu5 F2 2.220933 1_545
Cu5 F3 2.243717 1_555
