# generated using pymatgen
data_Na3Ni2O5
_symmetry_space_group_name_H-M   'P 1'
_cell_length_a   5.27970100
_cell_length_b   6.30534305
_cell_length_c   6.90540695
_cell_angle_alpha   107.61089347
_cell_angle_beta   96.48226080
_cell_angle_gamma   107.23584858
_symmetry_Int_Tables_number   1
_chemical_formula_structural   Na3Ni2O5
_chemical_formula_sum   'Na6 Ni4 O10'
_cell_volume   204.02429174
_cell_formula_units_Z   2
loop_
 _symmetry_equiv_pos_site_id
 _symmetry_equiv_pos_as_xyz
  1  'x, y, z'
loop_
 _atom_site_type_symbol
 _atom_site_label
 _atom_site_symmetry_multiplicity
 _atom_site_fract_x
 _atom_site_fract_y
 _atom_site_fract_z
 _atom_site_occupancy
  Na  Na0  1  0.61992800  0.71152300  0.20146800  1
  Na  Na1  1  0.38007200  0.28847700  0.79853200  1
  Na  Na2  1  0.20530300  0.90290100  0.38869800  1
  Na  Na3  1  0.00000000  0.50000000  0.00000000  1
  Na  Na4  1  0.00000000  0.00000000  0.00000000  1
  Na  Na5  1  0.79469700  0.09709900  0.61130200  1
  Ni  Ni0  1  0.60242200  0.20484200  0.20394200  1
  Ni  Ni1  1  0.39757800  0.79515800  0.79605800  1
  Ni  Ni2  1  0.20243900  0.40524900  0.40557900  1
  Ni  Ni3  1  0.79756100  0.59475100  0.59442100  1
  O  O0  1  0.65089200  0.12114800  0.92021300  1
  O  O1  1  0.67001200  0.65580000  0.85118000  1
  O  O2  1  0.47605800  0.71947300  0.52446900  1
  O  O3  1  0.52394200  0.28052700  0.47553100  1
  O  O4  1  0.34910800  0.87885200  0.07978700  1
  O  O5  1  0.32998800  0.34420000  0.14882000  1
  O  O6  1  0.87707500  0.51553100  0.31766600  1
  O  O7  1  0.89810200  0.10993500  0.30583400  1
  O  O8  1  0.10189800  0.89006500  0.69416600  1
  O  O9  1  0.12292500  0.48446900  0.68233400  1
loop_
_geom_bond_atom_site_label_1
_geom_bond_atom_site_label_2
_geom_bond_distance
_geom_bond_site_symmetry_2
Na0 O4 2.241168 1_555
Na0 O5 2.259105 1_555
Na0 O6 2.315727 1_555
Na0 O7 2.337997 1_565
Na0 O1 2.393652 1_554
Na0 O2 2.427316 1_555
Na1 O0 2.241168 1_555
Na1 O1 2.259105 1_555
Na1 O9 2.315727 1_555
Na1 O8 2.337997 1_545
Na1 O5 2.393652 1_556
Na1 O3 2.427316 1_555
Na2 O8 2.256378 1_555
Na2 O4 2.321205 1_555
Na2 O3 2.322429 1_565
Na2 O2 2.365053 1_555
Na2 O6 2.405051 1_455
Na2 O7 2.481810 1_465
Na3 O9 2.339203 1_554
Na3 O6 2.339203 1_455
Na3 O4 2.402554 1_555
Na3 O0 2.402554 1_454
Na3 O5 2.505479 1_555
Na3 O1 2.505479 1_454
Na4 O5 2.192503 1_555
Na4 O1 2.192503 1_444
Na4 O8 2.195860 1_544
Na4 O7 2.195860 1_455
Na4 O4 2.268073 1_545
Na4 O0 2.268073 1_454
Na5 O7 2.256378 1_555
Na5 O0 2.321205 1_555
Na5 O2 2.322429 1_545
Na5 O3 2.365053 1_555
Na5 O9 2.405051 1_655
Na5 O8 2.481810 1_645
Ni0 O3 1.915137 1_555
Ni0 O6 1.919811 1_555
Ni0 O0 1.936567 1_554
Ni0 O4 1.947915 1_545
Ni0 O5 1.952863 1_555
Ni0 O7 1.962293 1_555
Ni1 O2 1.915137 1_555
Ni1 O9 1.919811 1_555
Ni1 O4 1.936567 1_556
Ni1 O0 1.947915 1_565
Ni1 O1 1.952863 1_555
Ni1 O8 1.962293 1_555
Ni2 O7 1.929888 1_455
Ni2 O2 1.933450 1_555
Ni2 O5 1.937916 1_555
Ni2 O9 1.950861 1_555
Ni2 O6 2.128580 1_455
Ni2 O3 2.137495 1_555
Ni3 O8 1.929888 1_655
Ni3 O3 1.933450 1_555
Ni3 O1 1.937916 1_555
Ni3 O6 1.950861 1_555
Ni3 O9 2.128580 1_655
Ni3 O2 2.137495 1_555
