# generated using pymatgen
data_Ni3O4
_symmetry_space_group_name_H-M   'P 1'
_cell_length_a   9.73772747
_cell_length_b   9.73772747
_cell_length_c   5.09446699
_cell_angle_alpha   87.87857236
_cell_angle_beta   87.87857236
_cell_angle_gamma   17.14191735
_symmetry_Int_Tables_number   1
_chemical_formula_structural   Ni3O4
_chemical_formula_sum   'Ni6 O8'
_cell_volume   142.28129189
_cell_formula_units_Z   2
loop_
 _symmetry_equiv_pos_site_id
 _symmetry_equiv_pos_as_xyz
  1  'x, y, z'
loop_
 _atom_site_type_symbol
 _atom_site_label
 _atom_site_symmetry_multiplicity
 _atom_site_fract_x
 _atom_site_fract_y
 _atom_site_fract_z
 _atom_site_occupancy
  Ni  Ni0  1  0.00000000  0.00000000  0.00000000  1
  Ni  Ni1  1  0.62623000  0.62623000  0.13267200  1
  Ni  Ni2  1  0.25719000  0.25719000  0.25129800  1
  Ni  Ni3  1  0.50000000  0.50000000  0.50000000  1
  Ni  Ni4  1  0.74281000  0.74281000  0.74870200  1
  Ni  Ni5  1  0.37377000  0.37377000  0.86732800  1
  O  O0  1  0.81044700  0.81044700  0.04640700  1
  O  O1  1  0.44847300  0.44847300  0.14849000  1
  O  O2  1  0.05754300  0.05754300  0.29071700  1
  O  O3  1  0.69921500  0.69921500  0.40142700  1
  O  O4  1  0.30078500  0.30078500  0.59857300  1
  O  O5  1  0.94245700  0.94245700  0.70928300  1
  O  O6  1  0.55152700  0.55152700  0.85151000  1
  O  O7  1  0.18955300  0.18955300  0.95359300  1
loop_
_geom_bond_atom_site_label_1
_geom_bond_atom_site_label_2
_geom_bond_distance
_geom_bond_site_symmetry_2
Ni0 O5 1.882659 1_444
Ni0 O2 1.882659 1_555
Ni0 O6 1.899174 1_544
Ni0 O6 1.899174 1_454
Ni0 O1 1.899174 1_545
Ni0 O1 1.899174 1_455
Ni1 O3 1.998559 1_555
Ni1 O6 2.067756 1_554
Ni1 O7 2.083810 1_564
Ni1 O7 2.083810 1_654
Ni1 O2 2.103425 1_655
Ni1 O2 2.103425 1_565
Ni2 O3 1.968170 1_455
Ni2 O3 1.968170 1_545
Ni2 O4 1.986468 1_555
Ni2 O7 2.035870 1_554
Ni2 O0 2.041427 1_545
Ni2 O0 2.041427 1_455
Ni3 O6 2.079548 1_555
Ni3 O1 2.079548 1_555
Ni3 O2 2.093430 1_565
Ni3 O2 2.093430 1_655
Ni3 O5 2.093430 1_455
Ni3 O5 2.093430 1_545
Ni4 O4 1.968170 1_565
Ni4 O4 1.968170 1_655
Ni4 O3 1.986468 1_555
Ni4 O0 2.035870 1_556
Ni4 O7 2.041427 1_655
Ni4 O7 2.041427 1_565
Ni5 O4 1.998559 1_555
Ni5 O1 2.067756 1_556
Ni5 O0 2.083810 1_456
Ni5 O0 2.083810 1_546
Ni5 O5 2.103425 1_455
Ni5 O5 2.103425 1_545
