# generated using pymatgen
data_LiLa3Ti3CrO12
_symmetry_space_group_name_H-M   'P 1'
_cell_length_a   5.52255339
_cell_length_b   5.54122880
_cell_length_c   7.83695780
_cell_angle_alpha   90.09187978
_cell_angle_beta   90.05340686
_cell_angle_gamma   90.33767550
_symmetry_Int_Tables_number   1
_chemical_formula_structural   LiLa3Ti3CrO12
_chemical_formula_sum   'Li1 La3 Ti3 Cr1 O12'
_cell_volume   239.81990182
_cell_formula_units_Z   1
loop_
 _symmetry_equiv_pos_site_id
 _symmetry_equiv_pos_as_xyz
  1  'x, y, z'
loop_
 _atom_site_type_symbol
 _atom_site_label
 _atom_site_symmetry_multiplicity
 _atom_site_fract_x
 _atom_site_fract_y
 _atom_site_fract_z
 _atom_site_occupancy
  Li  Li0  1  0.02878500  0.97060800  0.25887200  1
  La  La0  1  0.49308100  0.53256000  0.25370900  1
  La  La1  1  0.50233700  0.47145500  0.74836700  1
  La  La2  1  0.99136700  0.97309600  0.74644900  1
  Ti  Ti0  1  0.99960100  0.49878400  0.00677000  1
  Ti  Ti1  1  0.99938400  0.49707600  0.49040500  1
  Ti  Ti2  1  0.50097400  0.00414800  0.01315500  1
  Cr  Cr0  1  0.49809400  0.00308800  0.49517700  1
  O  O0  1  0.93104400  0.47497900  0.24899600  1
  O  O1  1  0.21817200  0.78382600  0.04643000  1
  O  O2  1  0.20935600  0.78475200  0.45084600  1
  O  O3  1  0.28797500  0.28993400  0.02683300  1
  O  O4  1  0.28706000  0.29540700  0.47283700  1
  O  O5  1  0.58495700  0.99781200  0.24704700  1
  O  O6  1  0.42257300  0.00166900  0.74969500  1
  O  O7  1  0.71372800  0.71596500  0.53309000  1
  O  O8  1  0.71661300  0.72071400  0.96463200  1
  O  O9  1  0.77553400  0.23034900  0.54899900  1
  O  O10  1  0.77259700  0.22943200  0.94845200  1
  O  O11  1  0.06676600  0.52434400  0.74924000  1
loop_
_geom_bond_atom_site_label_1
_geom_bond_atom_site_label_2
_geom_bond_distance
_geom_bond_site_symmetry_2
Li0 O2 2.081548 1_555
Li0 O1 2.224298 1_555
Li0 O5 2.458252 1_455
La0 O0 2.441798 1_555
La0 O4 2.442084 1_555
La0 O3 2.494502 1_555
La0 O2 2.611186 1_555
La0 O5 2.625198 1_555
La0 O1 2.628661 1_555
La0 O7 2.699048 1_555
La0 O8 2.782260 1_554
La0 O5 3.009613 1_545
La1 O11 2.424980 1_555
La1 O7 2.457092 1_555
La1 O8 2.479934 1_555
La1 O10 2.551661 1_555
La1 O9 2.554201 1_555
La1 O6 2.637676 1_555
La1 O4 2.646226 1_555
La1 O3 2.678347 1_556
La2 O6 2.385794 1_665
La2 O9 2.422998 1_565
La2 O10 2.449491 1_565
La2 O11 2.523805 1_655
La2 O7 2.671844 1_555
La2 O8 2.677568 1_555
La2 O2 2.813807 1_655
La2 O1 2.865944 1_656
La2 O11 3.080449 1_665
La2 O6 3.146239 1_565
La2 O4 3.230915 1_665
La2 O3 3.246681 1_666
Cr0 O5 2.003522 1_545
Cr0 O4 2.008848 1_555
Cr0 O7 2.015173 1_545
Cr0 O9 2.021307 1_555
Cr0 O2 2.025333 1_545
Cr0 O6 2.038182 1_555
O0 Ti1 1.932394 1_555
O0 Ti0 1.940592 1_555
O1 Ti2 1.994237 1_565
O1 Ti0 2.005902 1_455
O2 Ti1 1.990552 1_455
O3 Ti0 1.980435 1_455
O3 Ti2 1.981066 1_555
O4 Ti1 1.952582 1_455
O5 Ti2 1.890781 1_565
O6 Ti2 2.109245 1_556
O7 Ti1 2.023355 1_555
O8 Ti2 2.012578 1_566
O8 Ti0 2.021575 1_556
O9 Ti1 1.976178 1_555
O10 Ti0 1.995712 1_556
O10 Ti2 2.011725 1_556
O11 Ti0 2.057347 1_456
O11 Ti1 2.067118 1_455
