# generated using pymatgen
data_NaNb2O4
_symmetry_space_group_name_H-M   'P 1'
_cell_length_a   5.14026596
_cell_length_b   5.92468104
_cell_length_c   12.03050335
_cell_angle_alpha   90.00000000
_cell_angle_beta   90.00000000
_cell_angle_gamma   90.00000000
_symmetry_Int_Tables_number   1
_chemical_formula_structural   NaNb2O4
_chemical_formula_sum   'Na4 Nb8 O16'
_cell_volume   366.38219761
_cell_formula_units_Z   4
loop_
 _symmetry_equiv_pos_site_id
 _symmetry_equiv_pos_as_xyz
  1  'x, y, z'
loop_
 _atom_site_type_symbol
 _atom_site_label
 _atom_site_symmetry_multiplicity
 _atom_site_fract_x
 _atom_site_fract_y
 _atom_site_fract_z
 _atom_site_occupancy
  Na  Na0  1  0.81186987  0.25000000  0.00386486  1
  Na  Na1  1  0.81186987  0.75000000  0.49613514  1
  Na  Na2  1  0.18813013  0.25000000  0.50386486  1
  Na  Na3  1  0.18813013  0.75000000  0.99613514  1
  Nb  Nb0  1  0.65493248  0.00000000  0.25000000  1
  Nb  Nb1  1  0.65493248  0.50000000  0.25000000  1
  Nb  Nb2  1  0.83836184  0.25000000  0.74709452  1
  Nb  Nb3  1  0.83836184  0.75000000  0.75290548  1
  Nb  Nb4  1  0.16163816  0.25000000  0.24709452  1
  Nb  Nb5  1  0.16163816  0.75000000  0.25290548  1
  Nb  Nb6  1  0.34506752  0.00000000  0.75000000  1
  Nb  Nb7  1  0.34506752  0.50000000  0.75000000  1
  O  O0  1  0.50374549  0.25000000  0.64609388  1
  O  O1  1  0.50374549  0.75000000  0.85390612  1
  O  O2  1  0.51249359  0.25000000  0.85163396  1
  O  O3  1  0.51249359  0.75000000  0.64836604  1
  O  O4  1  0.98996598  0.50253290  0.14589129  1
  O  O5  1  0.98996598  0.99746710  0.14589129  1
  O  O6  1  0.98996598  0.00253290  0.35410871  1
  O  O7  1  0.98996598  0.49746710  0.35410871  1
  O  O8  1  0.01003402  0.50253290  0.64589129  1
  O  O9  1  0.01003402  0.00253290  0.85410871  1
  O  O10  1  0.01003402  0.49746710  0.85410871  1
  O  O11  1  0.01003402  0.99746710  0.64589129  1
  O  O12  1  0.48750641  0.75000000  0.14836604  1
  O  O13  1  0.48750641  0.25000000  0.35163396  1
  O  O14  1  0.49625451  0.25000000  0.14609388  1
  O  O15  1  0.49625451  0.75000000  0.35390612  1
loop_
_geom_bond_atom_site_label_1
_geom_bond_atom_site_label_2
_geom_bond_distance
_geom_bond_site_symmetry_2
Na0 O14 2.357929 1_555
Na0 O2 2.392114 1_554
Na0 O4 2.448693 1_555
Na0 O5 2.448693 1_545
Na0 O9 2.536361 1_654
Na0 O10 2.536361 1_654
Na1 O15 2.357929 1_555
Na1 O3 2.392114 1_555
Na1 O7 2.448693 1_555
Na1 O6 2.448693 1_565
Na1 O11 2.536361 1_655
Na1 O8 2.536361 1_655
Na2 O0 2.357929 1_555
Na2 O13 2.392114 1_555
Na2 O8 2.448693 1_555
Na2 O11 2.448693 1_545
Na2 O6 2.536361 1_455
Na2 O7 2.536361 1_455
Na3 O1 2.357929 1_555
Na3 O12 2.392114 1_556
Na3 O10 2.448693 1_555
Na3 O9 2.448693 1_565
Na3 O5 2.536361 1_456
Na3 O4 2.536361 1_456
Nb0 O15 2.102796 1_545
Nb0 O14 2.102796 1_555
Nb0 O12 2.104646 1_545
Nb0 O13 2.104646 1_555
Nb0 O5 2.129500 1_545
Nb0 O6 2.129500 1_555
Nb1 O14 2.102796 1_555
Nb1 O15 2.102796 1_555
Nb1 O12 2.104646 1_555
Nb1 O13 2.104646 1_555
Nb1 O4 2.129500 1_555
Nb1 O7 2.129500 1_555
Nb2 O2 2.094637 1_555
Nb2 O0 2.105920 1_555
Nb2 O8 2.121230 1_655
Nb2 O11 2.121230 1_645
Nb2 O9 2.141454 1_655
Nb2 O10 2.141454 1_655
Nb3 O3 2.094637 1_555
Nb3 O1 2.105920 1_555
Nb3 O10 2.121230 1_655
Nb3 O9 2.121230 1_665
Nb3 O11 2.141454 1_655
Nb3 O8 2.141454 1_655
Nb4 O13 2.094637 1_555
Nb4 O14 2.105920 1_555
Nb4 O4 2.121230 1_455
Nb4 O5 2.121230 1_445
Nb4 O7 2.141454 1_455
Nb4 O6 2.141454 1_455
Nb5 O12 2.094637 1_555
Nb5 O15 2.105920 1_555
Nb5 O7 2.121230 1_455
Nb5 O6 2.121230 1_465
Nb5 O5 2.141454 1_455
Nb5 O4 2.141454 1_455
Nb6 O1 2.102796 1_545
Nb6 O0 2.102796 1_555
Nb6 O3 2.104646 1_545
Nb6 O2 2.104646 1_555
Nb6 O11 2.129500 1_545
Nb6 O9 2.129500 1_555
Nb7 O1 2.102796 1_555
Nb7 O0 2.102796 1_555
Nb7 O2 2.104646 1_555
Nb7 O3 2.104646 1_555
Nb7 O8 2.129500 1_555
Nb7 O10 2.129500 1_555
