# generated using pymatgen
data_Li6Cr2O7
_symmetry_space_group_name_H-M   'P 1'
_cell_length_a   5.76827300
_cell_length_b   5.03727400
_cell_length_c   9.25612386
_cell_angle_alpha   80.15904206
_cell_angle_beta   90.00000000
_cell_angle_gamma   90.00000000
_symmetry_Int_Tables_number   1
_chemical_formula_structural   Li6Cr2O7
_chemical_formula_sum   'Li12 Cr4 O14'
_cell_volume   264.99204606
_cell_formula_units_Z   2
loop_
 _symmetry_equiv_pos_site_id
 _symmetry_equiv_pos_as_xyz
  1  'x, y, z'
loop_
 _atom_site_type_symbol
 _atom_site_label
 _atom_site_symmetry_multiplicity
 _atom_site_fract_x
 _atom_site_fract_y
 _atom_site_fract_z
 _atom_site_occupancy
  Li  Li0  1  0.78366400  0.36695900  0.86310500  1
  Li  Li1  1  0.23106900  0.36883200  0.86831700  1
  Li  Li2  1  0.50469000  0.94021200  0.86955200  1
  Li  Li3  1  0.73106900  0.13116800  0.63168300  1
  Li  Li4  1  0.28366400  0.13304100  0.63689500  1
  Li  Li5  1  0.00469000  0.55978800  0.63044800  1
  Li  Li6  1  0.99531000  0.44021200  0.36955200  1
  Li  Li7  1  0.71633600  0.86695900  0.36310500  1
  Li  Li8  1  0.26893100  0.86883200  0.36831700  1
  Li  Li9  1  0.49531000  0.05978800  0.13044800  1
  Li  Li10  1  0.76893100  0.63116800  0.13168300  1
  Li  Li11  1  0.21633600  0.63304100  0.13689500  1
  Cr  Cr0  1  0.00706400  0.87055700  0.86685300  1
  Cr  Cr1  1  0.50706400  0.62944300  0.63314700  1
  Cr  Cr2  1  0.49293600  0.37055700  0.36685300  1
  Cr  Cr3  1  0.99293600  0.12944300  0.13314700  1
  O  O0  1  0.00000000  0.50000000  0.00000000  1
  O  O1  1  0.77764600  0.99393300  0.99584800  1
  O  O2  1  0.00819700  0.19888200  0.74640400  1
  O  O3  1  0.50819700  0.30111800  0.75359600  1
  O  O4  1  0.27168600  0.75211200  0.76079800  1
  O  O5  1  0.77168600  0.74788800  0.73920200  1
  O  O6  1  0.27764600  0.50606700  0.50415200  1
  O  O7  1  0.72235400  0.49393300  0.49584800  1
  O  O8  1  0.50000000  0.00000000  0.50000000  1
  O  O9  1  0.22831400  0.25211200  0.26079800  1
  O  O10  1  0.72831400  0.24788800  0.23920200  1
  O  O11  1  0.49180300  0.69888200  0.24640400  1
  O  O12  1  0.99180300  0.80111800  0.25359600  1
  O  O13  1  0.22235400  0.00606700  0.00415200  1
loop_
_geom_bond_atom_site_label_1
_geom_bond_atom_site_label_2
_geom_bond_distance
_geom_bond_site_symmetry_2
Li0 O3 1.943497 1_555
Li0 O2 1.968178 1_655
Li0 O0 1.975397 1_656
Li0 O5 2.061500 1_555
Li0 O1 2.062147 1_545
Li1 O3 1.980679 1_555
Li1 O0 1.993501 1_556
Li1 O2 1.997302 1_555
Li1 O4 2.028813 1_555
Li1 O13 2.034006 1_556
Li2 O3 1.946910 1_565
Li2 O1 2.006727 1_555
Li2 O4 2.010860 1_555
Li2 O13 2.110884 1_566
Li2 O5 2.272831 1_555
Li3 O2 1.980679 1_655
Li3 O8 1.993501 1_555
Li3 O3 1.997302 1_555
Li3 O5 2.028813 1_545
Li3 O7 2.034006 1_555
Li4 O2 1.943497 1_555
Li4 O3 1.968178 1_555
Li4 O8 1.975397 1_555
Li4 O4 2.061500 1_545
Li4 O6 2.062147 1_555
Li5 O2 1.946910 1_555
Li5 O6 2.006727 1_555
Li5 O5 2.010860 1_455
Li5 O7 2.110884 1_455
Li5 O4 2.272831 1_555
Li6 O12 1.946910 1_555
Li6 O7 2.006727 1_555
Li6 O9 2.010860 1_655
Li6 O6 2.110884 1_655
Li6 O10 2.272831 1_555
Li7 O12 1.943497 1_555
Li7 O11 1.968178 1_555
Li7 O8 1.975397 1_565
Li7 O10 2.061500 1_565
Li7 O7 2.062147 1_555
Li8 O12 1.980679 1_455
Li8 O8 1.993501 1_565
Li8 O11 1.997302 1_555
Li8 O9 2.028813 1_565
Li8 O6 2.034006 1_555
Li9 O11 1.946910 1_545
Li9 O13 2.006727 1_555
Li9 O10 2.010860 1_555
Li9 O1 2.110884 1_544
Li9 O9 2.272831 1_555
Li10 O11 1.980679 1_555
Li10 O0 1.993501 1_655
Li10 O12 1.997302 1_555
Li10 O10 2.028813 1_555
Li10 O1 2.034006 1_554
Li11 O11 1.943497 1_555
Li11 O12 1.968178 1_455
Li11 O0 1.975397 1_555
Li11 O9 2.061500 1_555
Li11 O13 2.062147 1_565
Cr0 O2 1.829754 1_565
Cr0 O1 1.953651 1_455
Cr0 O4 1.962084 1_555
Cr0 O5 1.967454 1_455
Cr0 O13 1.979835 1_566
Cr0 O0 2.053865 1_556
Cr1 O3 1.829754 1_555
Cr1 O6 1.953651 1_555
Cr1 O5 1.962084 1_555
Cr1 O4 1.967454 1_555
Cr1 O7 1.979835 1_555
Cr1 O8 2.053865 1_565
Cr2 O11 1.829754 1_555
Cr2 O7 1.953651 1_555
Cr2 O9 1.962084 1_555
Cr2 O10 1.967454 1_555
Cr2 O6 1.979835 1_555
Cr2 O8 2.053865 1_555
Cr3 O12 1.829754 1_545
Cr3 O13 1.953651 1_655
Cr3 O10 1.962084 1_555
Cr3 O9 1.967454 1_655
Cr3 O1 1.979835 1_544
Cr3 O0 2.053865 1_655
