# generated using pymatgen
data_KAs
_symmetry_space_group_name_H-M   'P 1'
_cell_length_a   6.44796365
_cell_length_b   6.70952004
_cell_length_c   11.64504492
_cell_angle_alpha   90.00000000
_cell_angle_beta   90.00000000
_cell_angle_gamma   90.00000000
_symmetry_Int_Tables_number   1
_chemical_formula_structural   KAs
_chemical_formula_sum   'K8 As8'
_cell_volume   503.79656611
_cell_formula_units_Z   8
loop_
 _symmetry_equiv_pos_site_id
 _symmetry_equiv_pos_as_xyz
  1  'x, y, z'
loop_
 _atom_site_type_symbol
 _atom_site_label
 _atom_site_symmetry_multiplicity
 _atom_site_fract_x
 _atom_site_fract_y
 _atom_site_fract_z
 _atom_site_occupancy
  K  K0  1  0.08233120  0.60179559  0.96243380  1
  K  K1  1  0.58233120  0.39820441  0.53756620  1
  K  K2  1  0.41766880  0.10179559  0.03756620  1
  K  K3  1  0.91766880  0.89820441  0.46243380  1
  K  K4  1  0.34837698  0.85681349  0.66779130  1
  K  K5  1  0.84837698  0.14318651  0.83220870  1
  K  K6  1  0.15162302  0.35681349  0.33220870  1
  K  K7  1  0.65162302  0.64318651  0.16779130  1
  As  As0  1  0.84299444  0.68520391  0.71716879  1
  As  As1  1  0.34299444  0.31479609  0.78283121  1
  As  As2  1  0.65700556  0.18520391  0.28283121  1
  As  As3  1  0.15700556  0.81479609  0.21716879  1
  As  As4  1  0.58108845  0.57084727  0.86230127  1
  As  As5  1  0.08108745  0.42915273  0.63769873  1
  As  As6  1  0.91891155  0.07084727  0.13769873  1
  As  As7  1  0.41891255  0.92915273  0.36230127  1
loop_
_geom_bond_atom_site_label_1
_geom_bond_atom_site_label_2
_geom_bond_distance
_geom_bond_site_symmetry_2
As0 As5 2.482895 1_655
As0 As4 2.509378 1_555
As0 K0 3.294267 1_655
As0 K1 3.302612 1_555
As0 K3 3.327730 1_555
As0 K5 3.352345 1_565
As0 K4 3.439167 1_555
As0 K4 3.503633 1_655
As1 As4 2.482899 1_555
As1 As5 2.509382 1_555
As1 K1 3.294267 1_555
As1 K0 3.302612 1_555
As1 K2 3.327730 1_556
As1 K4 3.352345 1_545
As1 K5 3.439167 1_455
As1 K5 3.503633 1_555
As2 As7 2.482895 1_545
As2 As6 2.509378 1_555
As2 K2 3.294267 1_555
As2 K3 3.302612 1_545
As2 K1 3.327730 1_555
As2 K7 3.352345 1_555
As2 K6 3.439167 1_655
As2 K6 3.503633 1_555
As3 As6 2.482899 1_465
As3 As7 2.509382 1_555
As3 K3 3.294267 1_455
As3 K2 3.302612 1_565
As3 K0 3.327730 1_554
As3 K6 3.352345 1_555
As3 K7 3.439167 1_555
As3 K7 3.503633 1_455
As4 K4 3.326186 1_555
As4 K5 3.365499 1_555
As4 K0 3.427133 1_555
As4 K0 3.442176 1_655
As4 K7 3.619094 1_556
As5 K5 3.326183 1_455
As5 K4 3.365503 1_555
As5 K1 3.427127 1_455
As5 K1 3.442182 1_555
As5 K6 3.619094 1_555
As6 K6 3.326186 1_655
As6 K7 3.365499 1_545
As6 K2 3.427133 1_655
As6 K2 3.442176 1_555
As6 K5 3.619094 1_554
As7 K7 3.326183 1_555
As7 K6 3.365503 1_565
As7 K3 3.427127 1_555
As7 K3 3.442182 1_455
As7 K4 3.619094 1_555
