# generated using pymatgen
data_V6O5F19
_symmetry_space_group_name_H-M   'P 1'
_cell_length_a   5.33867000
_cell_length_b   5.48393893
_cell_length_c   14.81947971
_cell_angle_alpha   100.59683911
_cell_angle_beta   90.02610104
_cell_angle_gamma   90.87188160
_symmetry_Int_Tables_number   1
_chemical_formula_structural   V6O5F19
_chemical_formula_sum   'V6 O5 F19'
_cell_volume   426.41788736
_cell_formula_units_Z   1
loop_
 _symmetry_equiv_pos_site_id
 _symmetry_equiv_pos_as_xyz
  1  'x, y, z'
loop_
 _atom_site_type_symbol
 _atom_site_label
 _atom_site_symmetry_multiplicity
 _atom_site_fract_x
 _atom_site_fract_y
 _atom_site_fract_z
 _atom_site_occupancy
  V  V0  1  0.96588300  0.03681200  0.99670500  1
  V  V1  1  0.55804600  0.80430400  0.66075000  1
  V  V2  1  0.99113300  0.64968200  0.33266700  1
  V  V3  1  0.46019300  0.53362900  0.00334100  1
  V  V4  1  0.05438300  0.35629900  0.67236900  1
  V  V5  1  0.47437500  0.12505700  0.33611700  1
  O  O0  1  0.29454100  0.89490200  0.35631400  1
  O  O1  1  0.23104900  0.72519700  0.01843200  1
  O  O2  1  0.78848200  0.26123700  0.98158500  1
  O  O3  1  0.28595300  0.56374900  0.68792700  1
  O  O4  1  0.78561400  0.60224600  0.64196400  1
  F  F0  1  0.20269700  0.37774100  0.35864000  1
  F  F1  1  0.27292800  0.24268500  0.02872500  1
  F  F2  1  0.70583300  0.45014100  0.30956300  1
  F  F3  1  0.09238600  0.93734700  0.88540600  1
  F  F4  1  0.40207800  0.77229600  0.55316700  1
  F  F5  1  0.09541200  0.59421000  0.21761400  1
  F  F6  1  0.56306100  0.89475700  0.78166300  1
  F  F7  1  0.92752300  0.75041800  0.45050100  1
  F  F8  1  0.59672800  0.57198600  0.11442900  1
  F  F9  1  0.20777600  0.08102500  0.69318700  1
  F  F10  1  0.71144500  0.09121700  0.64419600  1
  F  F11  1  0.77928000  0.94035600  0.30797000  1
  F  F12  1  0.43705300  0.40609900  0.88450000  1
  F  F13  1  0.05663800  0.26323900  0.55153300  1
  F  F14  1  0.42070600  0.11664100  0.21794100  1
  F  F15  1  0.90117800  0.40593100  0.78023700  1
  F  F16  1  0.59232700  0.25309800  0.44663700  1
  F  F17  1  0.92963900  0.03032200  0.11524900  1
  F  F18  1  0.71565600  0.76737500  0.97066900  1
loop_
_geom_bond_atom_site_label_1
_geom_bond_atom_site_label_2
_geom_bond_distance
_geom_bond_site_symmetry_2
O0 V5 1.645203 1_565
O0 V2 2.077214 1_455
O1 V3 1.613424 1_555
O1 V0 2.302940 1_464
O2 V0 1.612014 1_555
O2 V3 2.304363 1_556
O3 V4 1.654157 1_555
O3 V1 2.037199 1_555
O4 V1 1.645952 1_555
O4 V4 2.088745 1_655
F0 V2 1.977331 1_455
F0 V5 2.006673 1_555
F1 V3 1.964493 1_555
F1 V0 1.983115 1_454
F2 V2 1.856223 1_555
F2 V5 2.247519 1_555
F3 V0 1.776362 1_465
F4 V1 1.776913 1_555
F5 V2 1.767720 1_455
F6 V1 1.769238 1_555
F7 V2 1.766720 1_555
F8 V3 1.775566 1_555
F9 V4 1.803700 1_555
F9 V1 2.418602 1_545
F10 V1 1.819181 1_545
F10 V4 2.309668 1_655
F11 V5 1.935208 1_565
F11 V2 2.055035 1_555
F12 V3 1.774888 1_556
F13 V4 1.769570 1_555
F14 V5 1.766554 1_555
F15 V4 1.773797 1_655
F16 V5 1.770521 1_555
F17 V0 1.774263 1_554
F18 V0 1.961238 1_565
F18 V3 1.978200 1_556
