# generated using pymatgen
data_LiVPO4
_symmetry_space_group_name_H-M   'P 1'
_cell_length_a   7.51603144
_cell_length_b   7.51603144
_cell_length_c   9.77954100
_cell_angle_alpha   90.00000000
_cell_angle_beta   90.00000000
_cell_angle_gamma   119.99999506
_symmetry_Int_Tables_number   1
_chemical_formula_structural   LiVPO4
_chemical_formula_sum   'Li6 V6 P6 O24'
_cell_volume   478.43869949
_cell_formula_units_Z   6
loop_
 _symmetry_equiv_pos_site_id
 _symmetry_equiv_pos_as_xyz
  1  'x, y, z'
loop_
 _atom_site_type_symbol
 _atom_site_label
 _atom_site_symmetry_multiplicity
 _atom_site_fract_x
 _atom_site_fract_y
 _atom_site_fract_z
 _atom_site_occupancy
  Li  Li0  1  0.20203500  0.94954800  0.25378800  1
  Li  Li1  1  0.05045200  0.25248700  0.25378800  1
  Li  Li2  1  0.25248700  0.05045200  0.75378800  1
  Li  Li3  1  0.74751300  0.79796500  0.25378800  1
  Li  Li4  1  0.79796500  0.74751300  0.75378800  1
  Li  Li5  1  0.94954800  0.20203500  0.75378800  1
  V  V0  1  0.05471700  0.57472500  0.47610200  1
  V  V1  1  0.52000800  0.94528300  0.47610200  1
  V  V2  1  0.42527500  0.47999200  0.47610200  1
  V  V3  1  0.47999200  0.42527500  0.97610200  1
  V  V4  1  0.57472500  0.05471700  0.97610200  1
  V  V5  1  0.94528300  0.52000800  0.97610200  1
  P  P0  1  0.33333300  0.66666700  0.17658600  1
  P  P1  1  0.00000000  0.00000000  0.00206700  1
  P  P2  1  0.00000000  0.00000000  0.50206700  1
  P  P3  1  0.33333300  0.66666700  0.76827000  1
  P  P4  1  0.66666700  0.33333300  0.67658600  1
  P  P5  1  0.66666700  0.33333300  0.26827000  1
  O  O0  1  0.10259500  0.87766300  0.44592700  1
  O  O1  1  0.17039500  0.71949600  0.12749900  1
  O  O2  1  0.37699900  0.87973800  0.81537600  1
  O  O3  1  0.12026200  0.49726000  0.81537600  1
  O  O4  1  0.28050400  0.45089900  0.12749900  1
  O  O5  1  0.33333300  0.66666700  0.34084900  1
  O  O6  1  0.00000000  0.00000000  0.16035400  1
  O  O7  1  0.00000000  0.00000000  0.66035400  1
  O  O8  1  0.33333300  0.66666700  0.60561800  1
  O  O9  1  0.12233700  0.22493100  0.44592700  1
  O  O10  1  0.54910100  0.82960500  0.12749900  1
  O  O11  1  0.22493100  0.12233700  0.94592700  1
  O  O12  1  0.50274000  0.62300100  0.81537600  1
  O  O13  1  0.77506900  0.89740500  0.44592700  1
  O  O14  1  0.45089900  0.28050400  0.62749900  1
  O  O15  1  0.49726000  0.12026200  0.31537600  1
  O  O16  1  0.62300100  0.50274000  0.31537600  1
  O  O17  1  0.82960500  0.54910100  0.62749900  1
  O  O18  1  0.66666700  0.33333300  0.84084900  1
  O  O19  1  0.66666700  0.33333300  0.10561800  1
  O  O20  1  0.89740500  0.77506900  0.94592700  1
  O  O21  1  0.71949600  0.17039500  0.62749900  1
  O  O22  1  0.87973800  0.37699900  0.31537600  1
  O  O23  1  0.87766300  0.10259500  0.94592700  1
loop_
_geom_bond_atom_site_label_1
_geom_bond_atom_site_label_2
_geom_bond_distance
_geom_bond_site_symmetry_2
Li0 O6 1.964784 1_565
Li0 O0 1.994357 1_555
Li0 O15 2.021292 1_565
Li0 O1 2.039711 1_555
Li1 O6 1.964784 1_555
Li1 O9 1.994359 1_555
Li1 O22 2.021298 1_455
Li1 O4 2.039711 1_555
Li2 O7 1.964784 1_555
Li2 O11 1.994359 1_555
Li2 O2 2.021298 1_545
Li2 O14 2.039711 1_555
Li3 O6 1.964784 1_665
Li3 O13 1.994356 1_555
Li3 O16 2.021292 1_555
Li3 O10 2.039711 1_555
Li4 O7 1.964784 1_665
Li4 O20 1.994356 1_555
Li4 O12 2.021292 1_555
Li4 O17 2.039711 1_555
Li5 O7 1.964784 1_655
Li5 O23 1.994357 1_555
Li5 O3 2.021292 1_655
Li5 O21 2.039711 1_555
O0 P2 1.565413 1_565
O0 V0 2.140436 1_555
O1 P0 1.540821 1_555
O1 V5 2.183136 1_454
O2 P3 1.535898 1_555
O2 V4 2.110528 1_565
O3 P3 1.535903 1_555
O3 V5 2.110531 1_455
O4 P0 1.540828 1_555
O4 V3 2.183136 1_554
O5 P0 1.606417 1_555
O5 V0 2.272709 1_555
O5 V1 2.272710 1_555
O5 V2 2.272715 1_555
O6 P1 1.547974 1_555
O7 P2 1.547974 1_555
O8 P3 1.590662 1_555
O8 V0 2.240520 1_555
O8 V1 2.240522 1_555
O8 V2 2.240526 1_555
O9 P2 1.565407 1_555
O9 V2 2.140439 1_555
O10 P0 1.540827 1_555
O10 V4 2.183136 1_564
O11 P1 1.565407 1_556
O11 V3 2.140439 1_555
O12 P3 1.535912 1_555
O12 V3 2.110526 1_555
O13 P2 1.565407 1_665
O13 V1 2.140443 1_555
O14 P4 1.540828 1_555
O14 V2 2.183136 1_555
O15 P5 1.535903 1_555
O15 V1 2.110531 1_545
O16 P5 1.535912 1_555
O16 V2 2.110526 1_555
O17 P4 1.540827 1_555
O17 V0 2.183136 1_655
O18 P4 1.606417 1_555
O18 V4 2.272709 1_555
O18 V5 2.272710 1_555
O18 V3 2.272715 1_555
O19 P5 1.590662 1_555
O19 V4 2.240520 1_554
O19 V5 2.240522 1_554
O19 V3 2.240526 1_554
O20 P1 1.565407 1_666
O20 V5 2.140443 1_555
O21 P4 1.540821 1_555
O21 V1 2.183136 1_545
O22 P5 1.535898 1_555
O22 V0 2.110528 1_655
O23 P1 1.565413 1_656
O23 V4 2.140436 1_555
