# generated using pymatgen
data_RbNaCr2O7
_symmetry_space_group_name_H-M   'P 1'
_cell_length_a   11.23381100
_cell_length_b   10.13066800
_cell_length_c   13.12206003
_cell_angle_alpha   86.50230800
_cell_angle_beta   90.00000000
_cell_angle_gamma   90.00000000
_symmetry_Int_Tables_number   1
_chemical_formula_structural   RbNaCr2O7
_chemical_formula_sum   'Rb8 Na8 Cr16 O56'
_cell_volume   1490.58752625
_cell_formula_units_Z   8
loop_
 _symmetry_equiv_pos_site_id
 _symmetry_equiv_pos_as_xyz
  1  'x, y, z'
loop_
 _atom_site_type_symbol
 _atom_site_label
 _atom_site_symmetry_multiplicity
 _atom_site_fract_x
 _atom_site_fract_y
 _atom_site_fract_z
 _atom_site_occupancy
  Rb  Rb0  1  0.18402400  0.58623900  0.85129500  1
  Rb  Rb1  1  0.68402400  0.91376100  0.14870500  1
  Rb  Rb2  1  0.99135100  0.73884700  0.41697100  1
  Rb  Rb3  1  0.00864900  0.26115300  0.58302900  1
  Rb  Rb4  1  0.50864900  0.23884700  0.41697100  1
  Rb  Rb5  1  0.49135100  0.76115300  0.58302900  1
  Rb  Rb6  1  0.31597600  0.08623900  0.85129500  1
  Rb  Rb7  1  0.81597600  0.41376100  0.14870500  1
  Na  Na0  1  0.07631100  0.98397900  0.15213900  1
  Na  Na1  1  0.15622000  0.32083100  0.28193300  1
  Na  Na2  1  0.34378000  0.82083100  0.28193300  1
  Na  Na3  1  0.84378000  0.67916900  0.71806700  1
  Na  Na4  1  0.42368900  0.48397900  0.15213900  1
  Na  Na5  1  0.57631100  0.51602100  0.84786100  1
  Na  Na6  1  0.92368900  0.01602100  0.84786100  1
  Na  Na7  1  0.65622000  0.17916900  0.71806700  1
  Cr  Cr0  1  0.10374600  0.61391200  0.15793100  1
  Cr  Cr1  1  0.13555100  0.89083000  0.66414300  1
  Cr  Cr2  1  0.89625400  0.38608800  0.84206900  1
  Cr  Cr3  1  0.26960700  0.53092800  0.43943900  1
  Cr  Cr4  1  0.23039300  0.03092800  0.43943900  1
  Cr  Cr5  1  0.76960700  0.96907200  0.56056100  1
  Cr  Cr6  1  0.63555100  0.60917000  0.33585700  1
  Cr  Cr7  1  0.86444900  0.10917000  0.33585700  1
  Cr  Cr8  1  0.39625400  0.11391200  0.15793100  1
  Cr  Cr9  1  0.90405400  0.74589100  0.99661000  1
  Cr  Cr10  1  0.59594600  0.24589100  0.99661000  1
  Cr  Cr11  1  0.40405400  0.75410900  0.00339000  1
  Cr  Cr12  1  0.60374600  0.88608800  0.84206900  1
  Cr  Cr13  1  0.73039300  0.46907200  0.56056100  1
  Cr  Cr14  1  0.36444900  0.39083000  0.66414300  1
  Cr  Cr15  1  0.09594600  0.25410900  0.00339000  1
  O  O0  1  0.13441600  0.47795300  0.45904900  1
  O  O1  1  0.72845800  0.30698300  0.56390300  1
  O  O2  1  0.09405200  0.00423500  0.74122400  1
  O  O3  1  0.45780200  0.26703700  0.66755600  1
  O  O4  1  0.27154200  0.69301700  0.43609700  1
  O  O5  1  0.91867100  0.76120400  0.87187200  1
  O  O6  1  0.02552100  0.52805100  0.24369300  1
  O  O7  1  0.40594800  0.50423500  0.74122400  1
  O  O8  1  0.76860400  0.66068100  0.30371300  1
  O  O9  1  0.98153800  0.36418300  0.95683000  1
  O  O10  1  0.42178100  0.60988400  0.95584300  1
  O  O11  1  0.67958300  0.52005400  0.66854300  1
  O  O12  1  0.27521200  0.81482300  0.96828500  1
  O  O13  1  0.54219800  0.73296300  0.33244400  1
  O  O14  1  0.22845800  0.19301700  0.43609700  1
  O  O15  1  0.52552100  0.97194900  0.75630700  1
  O  O16  1  0.36707700  0.46432300  0.53692800  1
  O  O17  1  0.63971400  0.74384400  0.79741000  1
  O  O18  1  0.95780200  0.23296300  0.33244400  1
  O  O19  1  0.63292300  0.53567700  0.46307200  1
  O  O20  1  0.22059500  0.52921200  0.12868300  1
  O  O21  1  0.22478800  0.31482300  0.96828500  1
  O  O22  1  0.13971400  0.75615600  0.20259000  1
  O  O23  1  0.48153800  0.13581700  0.04317000  1
  O  O24  1  0.13292300  0.96432300  0.53692800  1
  O  O25  1  0.77154200  0.80698300  0.56390300  1
  O  O26  1  0.08132900  0.23879600  0.12812800  1
  O  O27  1  0.90594800  0.99576500  0.25877600  1
  O  O28  1  0.26860400  0.83931900  0.69628700  1
  O  O29  1  0.47447900  0.02805100  0.24369300  1
  O  O30  1  0.59405200  0.49576500  0.25877600  1
  O  O31  1  0.72478800  0.18517700  0.03171500  1
  O  O32  1  0.04219800  0.76703700  0.66755600  1
  O  O33  1  0.82041700  0.02005400  0.66854300  1
  O  O34  1  0.01846200  0.63581700  0.04317000  1
  O  O35  1  0.86707700  0.03567700  0.46307200  1
  O  O36  1  0.63441600  0.02204700  0.54095100  1
  O  O37  1  0.86028600  0.24384400  0.79741000  1
  O  O38  1  0.57821900  0.39011600  0.04415700  1
  O  O39  1  0.77940500  0.47078800  0.87131700  1
  O  O40  1  0.07821900  0.10988400  0.95584300  1
  O  O41  1  0.92178100  0.89011600  0.04415700  1
  O  O42  1  0.86558400  0.52204700  0.54095100  1
  O  O43  1  0.23139600  0.33931900  0.69628700  1
  O  O44  1  0.72059500  0.97078800  0.87131700  1
  O  O45  1  0.58132900  0.26120400  0.87187200  1
  O  O46  1  0.27940500  0.02921200  0.12868300  1
  O  O47  1  0.36028600  0.25615600  0.20259000  1
  O  O48  1  0.51846200  0.86418300  0.95683000  1
  O  O49  1  0.77521200  0.68517700  0.03171500  1
  O  O50  1  0.36558400  0.97795300  0.45904900  1
  O  O51  1  0.97447900  0.47194900  0.75630700  1
  O  O52  1  0.17958300  0.97994600  0.33145700  1
  O  O53  1  0.41867100  0.73879600  0.12812800  1
  O  O54  1  0.73139600  0.16068100  0.30371300  1
  O  O55  1  0.32041700  0.47994600  0.33145700  1
loop_
_geom_bond_atom_site_label_1
_geom_bond_atom_site_label_2
_geom_bond_distance
_geom_bond_site_symmetry_2
Na0 O46 2.343681 1_565
Na0 O27 2.378109 1_455
Na0 O22 2.466984 1_555
Na0 O41 2.467772 1_455
Na0 O26 2.582087 1_565
Na0 O52 2.621559 1_555
Na0 O40 2.803796 1_564
Na1 O26 2.382525 1_555
Na1 O14 2.471411 1_555
Na1 O18 2.475502 1_455
Na1 O55 2.559469 1_555
Na1 O6 2.585725 1_555
Na1 O47 2.617590 1_555
Na1 O0 2.906308 1_555
Na1 O20 2.916406 1_555
Na2 O53 2.382525 1_555
Na2 O4 2.471411 1_555
Na2 O13 2.475502 1_555
Na2 O52 2.559469 1_555
Na2 O29 2.585725 1_565
Na2 O22 2.617590 1_555
Na2 O50 2.906308 1_555
Na2 O46 2.916406 1_565
Na3 O5 2.382525 1_555
Na3 O25 2.471411 1_555
Na3 O32 2.475502 1_655
Na3 O11 2.559469 1_555
Na3 O51 2.585725 1_555
Na3 O17 2.617590 1_555
Na3 O42 2.906308 1_555
Na3 O39 2.916406 1_555
Na4 O20 2.343681 1_555
Na4 O30 2.378109 1_555
Na4 O47 2.466984 1_555
Na4 O38 2.467772 1_555
Na4 O53 2.582087 1_555
Na4 O55 2.621559 1_555
Na4 O10 2.803796 1_554
Na5 O39 2.343681 1_555
Na5 O7 2.378109 1_555
Na5 O17 2.466984 1_555
Na5 O10 2.467772 1_555
Na5 O45 2.582087 1_555
Na5 O11 2.621559 1_555
Na5 O38 2.803796 1_556
Na6 O44 2.343681 1_545
Na6 O2 2.378109 1_655
Na6 O37 2.466984 1_555
Na6 O40 2.467772 1_655
Na6 O5 2.582087 1_545
Na6 O33 2.621559 1_555
Na6 O41 2.803796 1_546
Na7 O45 2.382525 1_555
Na7 O1 2.471411 1_555
Na7 O3 2.475502 1_555
Na7 O33 2.559469 1_555
Na7 O15 2.585725 1_545
Na7 O37 2.617590 1_555
Na7 O36 2.906308 1_555
Na7 O44 2.916406 1_545
Cr0 O20 1.626910 1_555
Cr0 O6 1.635805 1_555
Cr0 O22 1.638987 1_555
Cr0 O34 1.787203 1_555
Cr1 O28 1.630177 1_555
Cr1 O32 1.633318 1_555
Cr1 O2 1.643799 1_565
Cr1 O24 1.786110 1_555
Cr2 O39 1.626910 1_555
Cr2 O51 1.635805 1_555
Cr2 O37 1.638987 1_555
Cr2 O9 1.787203 1_555
Cr3 O0 1.625996 1_555
Cr3 O55 1.639996 1_555
Cr3 O4 1.640123 1_555
Cr3 O16 1.784770 1_555
Cr4 O50 1.625996 1_545
Cr4 O52 1.639996 1_545
Cr4 O14 1.640123 1_555
Cr4 O24 1.784770 1_545
Cr5 O36 1.625996 1_565
Cr5 O33 1.639996 1_565
Cr5 O25 1.640123 1_555
Cr5 O35 1.784770 1_565
Cr6 O8 1.630177 1_555
Cr6 O13 1.633318 1_555
Cr6 O30 1.643799 1_555
Cr6 O19 1.786110 1_555
Cr7 O54 1.630177 1_555
Cr7 O18 1.633318 1_555
Cr7 O27 1.643799 1_545
Cr7 O35 1.786110 1_555
Cr8 O46 1.626910 1_555
Cr8 O29 1.635805 1_555
Cr8 O47 1.638987 1_555
Cr8 O23 1.787203 1_555
Cr9 O49 1.628149 1_556
Cr9 O41 1.635530 1_556
Cr9 O5 1.642932 1_555
Cr9 O34 1.784792 1_656
Cr10 O31 1.628149 1_556
Cr10 O38 1.635530 1_556
Cr10 O45 1.642932 1_555
Cr10 O23 1.784792 1_556
Cr11 O12 1.628149 1_554
Cr11 O10 1.635530 1_554
Cr11 O53 1.642932 1_555
Cr11 O48 1.784792 1_554
Cr12 O44 1.626910 1_555
Cr12 O15 1.635805 1_555
Cr12 O17 1.638987 1_555
Cr12 O48 1.787203 1_555
Cr13 O42 1.625996 1_555
Cr13 O11 1.639996 1_555
Cr13 O1 1.640123 1_555
Cr13 O19 1.784770 1_555
Cr14 O43 1.630177 1_555
Cr14 O3 1.633318 1_555
Cr14 O7 1.643799 1_555
Cr14 O16 1.786110 1_555
Cr15 O21 1.628149 1_554
Cr15 O40 1.635530 1_554
Cr15 O26 1.642932 1_555
Cr15 O9 1.784792 1_454
O0 Rb3 3.005115 1_555
O0 Rb2 3.113743 1_455
O1 Rb3 3.189326 1_655
O1 Rb4 3.233208 1_555
O2 Rb6 3.022920 1_555
O2 Rb3 3.368182 1_555
O3 Rb6 3.341775 1_555
O3 Rb4 3.366692 1_555
O4 Rb2 3.189326 1_455
O4 Rb5 3.233208 1_555
O5 Rb0 3.486979 1_655
O6 Rb7 2.934543 1_455
O6 Rb2 3.235769 1_455
O7 Rb0 3.022920 1_555
O7 Rb5 3.368182 1_555
O8 Rb2 3.039882 1_555
O8 Rb1 3.313180 1_555
O8 Rb7 3.361340 1_555
O9 Rb7 3.194535 1_556
O9 Rb0 3.431101 1_655
O10 Rb0 3.018832 1_555
O11 Rb5 3.370740 1_555
O12 Rb0 3.033534 1_555
O12 Rb6 3.100288 1_565
O13 Rb1 3.341775 1_555
O13 Rb5 3.366692 1_555
O14 Rb4 3.189326 1_555
O14 Rb3 3.233208 1_555
O15 Rb6 2.934543 1_565
O15 Rb5 3.235769 1_555
O16 Rb4 3.265498 1_555
O16 Rb5 3.402866 1_555
O17 Rb5 3.265277 1_555
O18 Rb7 3.341775 1_555
O18 Rb3 3.366692 1_655
O19 Rb5 3.265498 1_555
O19 Rb4 3.402866 1_555
O21 Rb6 3.033534 1_555
O21 Rb0 3.100288 1_555
O22 Rb2 3.265277 1_455
O23 Rb6 3.194535 1_554
O23 Rb1 3.431101 1_545
O24 Rb2 3.265498 1_455
O24 Rb3 3.402866 1_565
O25 Rb5 3.189326 1_555
O25 Rb2 3.233208 1_555
O26 Rb7 3.486979 1_455
O27 Rb1 3.022920 1_555
O27 Rb2 3.368182 1_555
O28 Rb5 3.039882 1_555
O28 Rb0 3.313180 1_555
O28 Rb6 3.361340 1_565
O29 Rb1 2.934543 1_545
O29 Rb4 3.235769 1_555
O30 Rb7 3.022920 1_555
O30 Rb4 3.368182 1_555
O31 Rb7 3.033534 1_555
O31 Rb1 3.100288 1_545
O32 Rb0 3.341775 1_555
O32 Rb2 3.366692 1_455
O33 Rb3 3.370740 1_655
O34 Rb0 3.194535 1_554
O34 Rb7 3.431101 1_455
O35 Rb3 3.265498 1_655
O35 Rb2 3.402866 1_545
O36 Rb4 3.005115 1_555
O36 Rb5 3.113743 1_545
O37 Rb3 3.265277 1_655
O38 Rb7 3.018832 1_555
O40 Rb6 3.018832 1_555
O41 Rb1 3.018832 1_555
O42 Rb2 3.005115 1_555
O42 Rb3 3.113743 1_655
O43 Rb3 3.039882 1_555
O43 Rb6 3.313180 1_555
O43 Rb0 3.361340 1_555
O45 Rb6 3.486979 1_555
O47 Rb4 3.265277 1_555
O48 Rb1 3.194535 1_556
O48 Rb6 3.431101 1_565
O49 Rb1 3.033534 1_555
O49 Rb7 3.100288 1_555
O50 Rb5 3.005115 1_555
O50 Rb4 3.113743 1_565
O51 Rb0 2.934543 1_655
O51 Rb3 3.235769 1_655
O52 Rb2 3.370740 1_455
O53 Rb1 3.486979 1_555
O54 Rb4 3.039882 1_555
O54 Rb7 3.313180 1_555
O54 Rb1 3.361340 1_545
O55 Rb4 3.370740 1_555
