# generated using pymatgen
data_LiP4WO12
_symmetry_space_group_name_H-M   'P 1'
_cell_length_a   9.20970300
_cell_length_b   7.67211900
_cell_length_c   15.40072846
_cell_angle_alpha   68.69827323
_cell_angle_beta   90.00000000
_cell_angle_gamma   90.00000000
_symmetry_Int_Tables_number   1
_chemical_formula_structural   LiP4WO12
_chemical_formula_sum   'Li4 P16 W4 O48'
_cell_volume   1013.83930055
_cell_formula_units_Z   4
loop_
 _symmetry_equiv_pos_site_id
 _symmetry_equiv_pos_as_xyz
  1  'x, y, z'
loop_
 _atom_site_type_symbol
 _atom_site_label
 _atom_site_symmetry_multiplicity
 _atom_site_fract_x
 _atom_site_fract_y
 _atom_site_fract_z
 _atom_site_occupancy
  Li  Li0  1  0.58263400  0.90967200  0.07259300  1
  Li  Li1  1  0.08263400  0.09032800  0.42740700  1
  Li  Li2  1  0.91736600  0.90967200  0.57259300  1
  Li  Li3  1  0.41736600  0.09032800  0.92740700  1
  P  P0  1  0.27876200  0.35159100  0.57393700  1
  P  P1  1  0.05741200  0.65549800  0.22667100  1
  P  P2  1  0.24121300  0.74949900  0.04948500  1
  P  P3  1  0.05267500  0.07264100  0.69172800  1
  P  P4  1  0.74121300  0.25050100  0.45051500  1
  P  P5  1  0.55741200  0.34450200  0.27332900  1
  P  P6  1  0.55267500  0.92735900  0.80827200  1
  P  P7  1  0.22123800  0.35159100  0.07393700  1
  P  P8  1  0.77876300  0.64840900  0.92606300  1
  P  P9  1  0.44732500  0.07264100  0.19172800  1
  P  P10  1  0.44258800  0.65549800  0.72667100  1
  P  P11  1  0.25878700  0.74949900  0.54948500  1
  P  P12  1  0.94732500  0.92735900  0.30827200  1
  P  P13  1  0.75878700  0.25050100  0.95051500  1
  P  P14  1  0.94258800  0.34450200  0.77332900  1
  P  P15  1  0.72123800  0.64840900  0.42606300  1
  W  W0  1  0.63215100  0.34835600  0.64338700  1
  W  W1  1  0.86784900  0.34835600  0.14338700  1
  W  W2  1  0.13215100  0.65164400  0.85661300  1
  W  W3  1  0.36784900  0.65164400  0.35661300  1
  O  O0  1  0.37213100  0.86949500  0.04375400  1
  O  O1  1  0.13091100  0.77112600  0.12683000  1
  O  O2  1  0.04484200  0.18424400  0.76250400  1
  O  O3  1  0.30521600  0.39734900  0.47141000  1
  O  O4  1  0.16428600  0.58839700  0.30521500  1
  O  O5  1  0.78867200  0.46914400  0.40702600  1
  O  O6  1  0.40590500  0.27341400  0.63682600  1
  O  O7  1  0.45825800  0.49415800  0.27912900  1
  O  O8  1  0.14455200  0.21312800  0.60271700  1
  O  O9  1  0.64743200  0.09407600  0.76101000  1
  O  O10  1  0.95825800  0.50584200  0.22087100  1
  O  O11  1  0.90958700  0.04468100  0.65493200  1
  O  O12  1  0.65603900  0.21698700  0.53861200  1
  O  O13  1  0.28867200  0.53085600  0.09297400  1
  O  O14  1  0.66428600  0.41160300  0.19478500  1
  O  O15  1  0.80521600  0.60265100  0.02859000  1
  O  O16  1  0.15603900  0.78301300  0.96138800  1
  O  O17  1  0.40958700  0.95531900  0.84506800  1
  O  O18  1  0.63091100  0.22887400  0.37317000  1
  O  O19  1  0.14743200  0.90592400  0.73899000  1
  O  O20  1  0.87213100  0.13050500  0.45624600  1
  O  O21  1  0.64455200  0.78687200  0.89728300  1
  O  O22  1  0.45515800  0.18424400  0.26250400  1
  O  O23  1  0.90590500  0.72658600  0.86317400  1
  O  O24  1  0.09409500  0.27341400  0.13682600  1
  O  O25  1  0.54484200  0.81575600  0.73749600  1
  O  O26  1  0.35544800  0.21312800  0.10271700  1
  O  O27  1  0.12786900  0.86949500  0.54375400  1
  O  O28  1  0.85256800  0.09407600  0.26101000  1
  O  O29  1  0.36908900  0.77112600  0.62683000  1
  O  O30  1  0.59041300  0.04468100  0.15493200  1
  O  O31  1  0.84396100  0.21698700  0.03861200  1
  O  O32  1  0.19478400  0.39734900  0.97141000  1
  O  O33  1  0.33571400  0.58839700  0.80521500  1
  O  O34  1  0.71132800  0.46914400  0.90702600  1
  O  O35  1  0.34396100  0.78301300  0.46138800  1
  O  O36  1  0.09041300  0.95531900  0.34506800  1
  O  O37  1  0.04174200  0.49415800  0.77912900  1
  O  O38  1  0.35256800  0.90592400  0.23899000  1
  O  O39  1  0.85544800  0.78687200  0.39728300  1
  O  O40  1  0.54174200  0.50584200  0.72087100  1
  O  O41  1  0.59409500  0.72658600  0.36317400  1
  O  O42  1  0.21132800  0.53085600  0.59297400  1
  O  O43  1  0.83571400  0.41160300  0.69478500  1
  O  O44  1  0.69478400  0.60265100  0.52859000  1
  O  O45  1  0.95515800  0.81575600  0.23749600  1
  O  O46  1  0.86908900  0.22887400  0.87317000  1
  O  O47  1  0.62786900  0.13050500  0.95624600  1
loop_
_geom_bond_atom_site_label_1
_geom_bond_atom_site_label_2
_geom_bond_distance
_geom_bond_site_symmetry_2
Li0 O30 1.907977 1_565
Li0 O47 2.012216 1_564
Li0 O0 2.037200 1_555
Li1 O36 1.907977 1_545
Li1 O27 2.012216 1_545
Li1 O20 2.037200 1_455
Li2 O11 1.907977 1_565
Li2 O20 2.012216 1_565
Li2 O27 2.037200 1_655
Li3 O17 1.907977 1_545
Li3 O0 2.012216 1_546
Li3 O47 2.037200 1_555
O0 P2 1.500017 1_555
O1 P1 1.618146 1_555
O1 P2 1.619248 1_555
O2 P14 1.604771 1_455
O2 P3 1.613857 1_555
O3 P0 1.507669 1_555
O3 W3 2.181434 1_555
O4 P1 1.498198 1_555
O4 W3 2.157733 1_555
O5 P4 1.623944 1_555
O5 P15 1.629783 1_555
O6 P0 1.498952 1_555
O6 W0 2.173623 1_555
O7 P5 1.494893 1_555
O7 W3 2.150515 1_555
O8 P0 1.584496 1_555
O8 P3 1.638104 1_555
O9 P6 1.500324 1_545
O9 W0 2.130615 1_555
O10 P1 1.494893 1_655
O10 W1 2.150515 1_555
O11 P3 1.480561 1_655
O12 P4 1.506243 1_555
O12 W0 2.202177 1_555
O13 P2 1.623944 1_555
O13 P7 1.629783 1_555
O14 P5 1.498198 1_555
O14 W1 2.157733 1_555
O15 P8 1.507667 1_554
O15 W1 2.181434 1_555
O16 P2 1.506243 1_556
O16 W2 2.202177 1_555
O17 P6 1.480561 1_555
O18 P5 1.618146 1_555
O18 P4 1.619248 1_555
O19 P3 1.500324 1_565
O19 W2 2.130615 1_555
O20 P4 1.500017 1_555
O21 P8 1.584503 1_555
O21 P6 1.638104 1_555
O22 P5 1.604771 1_555
O22 P9 1.613857 1_555
O23 P8 1.498945 1_555
O23 W2 2.173623 1_655
O24 P7 1.498952 1_555
O24 W1 2.173623 1_455
O25 P10 1.604771 1_555
O25 P6 1.613857 1_555
O26 P7 1.584496 1_555
O26 P9 1.638104 1_555
O27 P11 1.500017 1_555
O28 P12 1.500324 1_545
O28 W1 2.130615 1_555
O29 P10 1.618146 1_555
O29 P11 1.619248 1_555
O30 P9 1.480561 1_555
O31 P13 1.506243 1_554
O31 W1 2.202177 1_555
O32 P7 1.507669 1_556
O32 W2 2.181434 1_555
O33 P10 1.498198 1_555
O33 W2 2.157733 1_555
O34 P13 1.623944 1_555
O34 P8 1.629786 1_555
O35 P11 1.506243 1_555
O35 W3 2.202177 1_555
O36 P12 1.480561 1_455
O37 P14 1.494893 1_455
O37 W2 2.150515 1_555
O38 P9 1.500324 1_565
O38 W3 2.130615 1_555
O39 P15 1.584496 1_555
O39 P12 1.638104 1_555
O40 P10 1.494893 1_555
O40 W0 2.150515 1_555
O41 P15 1.498952 1_555
O41 W3 2.173623 1_555
O42 P11 1.623944 1_555
O42 P0 1.629783 1_555
O43 P14 1.498198 1_555
O43 W0 2.157733 1_555
O44 P15 1.507669 1_555
O44 W0 2.181434 1_555
O45 P1 1.604771 1_655
O45 P12 1.613857 1_555
O46 P14 1.618146 1_555
O46 P13 1.619248 1_555
O47 P13 1.500017 1_555
