# generated using pymatgen
data_Na2ZnPHO5
_symmetry_space_group_name_H-M   'P 1'
_cell_length_a   10.01706400
_cell_length_b   5.85393300
_cell_length_c   8.64033580
_cell_angle_alpha   75.06404518
_cell_angle_beta   90.00000000
_cell_angle_gamma   90.00000000
_symmetry_Int_Tables_number   1
_chemical_formula_structural   Na2ZnPHO5
_chemical_formula_sum   'Na8 Zn4 P4 H4 O20'
_cell_volume   489.54473238
_cell_formula_units_Z   4
loop_
 _symmetry_equiv_pos_site_id
 _symmetry_equiv_pos_as_xyz
  1  'x, y, z'
loop_
 _atom_site_type_symbol
 _atom_site_label
 _atom_site_symmetry_multiplicity
 _atom_site_fract_x
 _atom_site_fract_y
 _atom_site_fract_z
 _atom_site_occupancy
  Na  Na0  1  0.85584000  0.31438800  0.30309600  1
  Na  Na1  1  0.17001400  0.35381200  0.38491000  1
  Na  Na2  1  0.64416000  0.81438800  0.30309600  1
  Na  Na3  1  0.32998600  0.85381200  0.38491000  1
  Na  Na4  1  0.67001400  0.14618800  0.61509000  1
  Na  Na5  1  0.35584000  0.18561200  0.69690400  1
  Na  Na6  1  0.82998600  0.64618800  0.61509000  1
  Na  Na7  1  0.14416000  0.68561200  0.69690400  1
  Zn  Zn0  1  0.14043600  0.21827100  0.01078500  1
  Zn  Zn1  1  0.35956400  0.71827100  0.01078500  1
  Zn  Zn2  1  0.64043600  0.28172900  0.98921500  1
  Zn  Zn3  1  0.85956400  0.78172900  0.98921500  1
  P  P0  1  0.49227800  0.36280800  0.29666200  1
  P  P1  1  0.00772200  0.86280800  0.29666200  1
  P  P2  1  0.99227800  0.13719200  0.70333800  1
  P  P3  1  0.50772200  0.63719200  0.70333800  1
  H  H0  1  0.37450500  0.12958000  0.04048000  1
  H  H1  1  0.12549500  0.62958000  0.04048000  1
  H  H2  1  0.87450500  0.37042000  0.95952000  1
  H  H3  1  0.62549500  0.87042000  0.95952000  1
  O  O0  1  0.80692700  0.44227800  0.01633800  1
  O  O1  1  0.69307300  0.94227800  0.01633800  1
  O  O2  1  0.49924700  0.23971800  0.15342400  1
  O  O3  1  0.06468200  0.12308500  0.23040800  1
  O  O4  1  0.00075300  0.73971800  0.15342400  1
  O  O5  1  0.43531800  0.62308500  0.23040800  1
  O  O6  1  0.63342400  0.38296100  0.36135200  1
  O  O7  1  0.39376200  0.21779500  0.42090000  1
  O  O8  1  0.86657600  0.88296100  0.36135200  1
  O  O9  1  0.10623800  0.71779500  0.42090000  1
  O  O10  1  0.89376200  0.28220500  0.57910000  1
  O  O11  1  0.13342400  0.11703900  0.63864800  1
  O  O12  1  0.60623800  0.78220500  0.57910000  1
  O  O13  1  0.36657600  0.61703900  0.63864800  1
  O  O14  1  0.56468200  0.37691500  0.76959200  1
  O  O15  1  0.99924700  0.26028200  0.84657600  1
  O  O16  1  0.93531800  0.87691500  0.76959200  1
  O  O17  1  0.50075300  0.76028200  0.84657600  1
  O  O18  1  0.30692700  0.05772200  0.98366200  1
  O  O19  1  0.19307300  0.55772200  0.98366200  1
loop_
_geom_bond_atom_site_label_1
_geom_bond_atom_site_label_2
_geom_bond_distance
_geom_bond_site_symmetry_2
Na0 O6 2.341462 1_555
Na0 O10 2.373881 1_555
Na0 O0 2.446078 1_555
Na0 O8 2.447041 1_545
Na0 O3 2.527353 1_655
Na0 O4 2.884290 1_655
Na1 O11 2.301219 1_555
Na1 O9 2.320861 1_555
Na1 O7 2.372019 1_555
Na1 O3 2.376780 1_555
Na2 O8 2.341462 1_555
Na2 O12 2.373881 1_555
Na2 O1 2.446078 1_555
Na2 O6 2.447041 1_555
Na2 O5 2.527353 1_555
Na2 O2 2.884290 1_565
Na3 O13 2.301219 1_555
Na3 O7 2.320861 1_565
Na3 O9 2.372019 1_555
Na3 O5 2.376780 1_555
Na4 O6 2.301219 1_555
Na4 O12 2.320861 1_545
Na4 O10 2.372019 1_555
Na4 O14 2.376780 1_555
Na5 O11 2.341462 1_555
Na5 O7 2.373881 1_555
Na5 O18 2.446078 1_555
Na5 O13 2.447041 1_555
Na5 O14 2.527353 1_555
Na5 O17 2.884290 1_545
Na6 O8 2.301219 1_555
Na6 O10 2.320861 1_555
Na6 O12 2.372019 1_555
Na6 O16 2.376780 1_555
Na7 O13 2.341462 1_555
Na7 O9 2.373881 1_555
Na7 O19 2.446078 1_555
Na7 O11 2.447041 1_565
Na7 O16 2.527353 1_455
Na7 O15 2.884290 1_455
H0 O18 0.991285 1_554
H1 O19 0.991285 1_554
H2 O0 0.991285 1_556
H3 O1 0.991285 1_556
O0 Zn2 1.957845 1_554
O0 Zn3 2.010358 1_554
O1 Zn3 1.957845 1_554
O1 Zn2 2.010358 1_564
O2 P0 1.586030 1_555
O2 Zn2 1.973299 1_554
O3 P1 1.589069 1_545
O3 Zn0 1.985499 1_555
O4 P1 1.586030 1_555
O4 Zn3 1.973299 1_454
O5 P0 1.589069 1_555
O5 Zn1 1.985499 1_555
O6 P0 1.536018 1_555
O7 P0 1.541772 1_555
O8 P1 1.536018 1_655
O9 P1 1.541772 1_555
O10 P2 1.541772 1_555
O11 P2 1.536018 1_455
O12 P3 1.541772 1_555
O13 P3 1.536018 1_555
O14 P3 1.589069 1_555
O14 Zn2 1.985499 1_555
O15 P2 1.586030 1_555
O15 Zn0 1.973299 1_656
O16 P2 1.589069 1_565
O16 Zn3 1.985499 1_555
O17 P3 1.586030 1_555
O17 Zn1 1.973299 1_556
O18 Zn0 1.957845 1_556
O18 Zn1 2.010358 1_546
O19 Zn1 1.957845 1_556
O19 Zn0 2.010358 1_556
