# generated using pymatgen
data_Fe(CoO2)2
_symmetry_space_group_name_H-M   'P 1'
_cell_length_a   5.82889048
_cell_length_b   5.82876282
_cell_length_c   5.82889454
_cell_angle_alpha   60.31600748
_cell_angle_beta   90.22999141
_cell_angle_gamma   120.58463115
_symmetry_Int_Tables_number   1
_chemical_formula_structural   Fe(CoO2)2
_chemical_formula_sum   'Fe2 Co4 O8'
_cell_volume   139.73677473
_cell_formula_units_Z   2
loop_
 _symmetry_equiv_pos_site_id
 _symmetry_equiv_pos_as_xyz
  1  'x, y, z'
loop_
 _atom_site_type_symbol
 _atom_site_label
 _atom_site_symmetry_multiplicity
 _atom_site_fract_x
 _atom_site_fract_y
 _atom_site_fract_z
 _atom_site_occupancy
  Fe  Fe0  1  0.50000146  0.00000053  -0.00000161  1
  Fe  Fe1  1  0.50000099  0.49999928  0.49999919  1
  Co  Co0  1  0.49999862  0.00000191  0.49999678  1
  Co  Co1  1  0.12595813  0.25000189  0.12403790  1
  Co  Co2  1  0.87405025  0.74999758  0.87595369  1
  Co  Co3  1  0.00000158  0.49999813  0.50000331  1
  O  O0  1  0.74515662  0.47053461  0.28432833  1
  O  O1  1  0.74513929  0.02946431  0.72537928  1
  O  O2  1  0.75327159  0.48594164  0.73266763  1
  O  O3  1  0.28139551  0.01406216  0.73266896  1
  O  O4  1  0.71859454  0.98593111  0.26733503  1
  O  O5  1  0.24673138  0.51406492  0.26733543  1
  O  O6  1  0.25485520  0.97054142  0.27461482  1
  O  O7  1  0.25484385  0.52945951  0.71568327  1
loop_
_geom_bond_atom_site_label_1
_geom_bond_atom_site_label_2
_geom_bond_distance
_geom_bond_site_symmetry_2
Fe0 O5 2.005509 1_545
Fe0 O2 2.005527 1_554
Fe0 O4 2.005554 1_545
Fe0 O3 2.005572 1_554
Fe0 O1 2.032213 1_554
Fe0 O6 2.032252 1_545
Fe1 O4 2.005493 1_555
Fe1 O3 2.005510 1_555
Fe1 O5 2.005568 1_555
Fe1 O2 2.005586 1_555
Fe1 O0 2.032204 1_555
Fe1 O7 2.032242 1_555
Co0 O4 1.923484 1_545
Co0 O3 1.923512 1_555
Co0 O0 1.937966 1_555
Co0 O1 1.937988 1_555
Co0 O6 1.937997 1_545
Co0 O7 1.938001 1_545
Co1 O5 1.930863 1_555
Co1 O4 1.930889 1_445
Co1 O7 1.952508 1_554
Co1 O6 1.952509 1_545
Co2 O2 1.930772 1_555
Co2 O3 1.930800 1_665
Co2 O0 1.952602 1_556
Co2 O1 1.952604 1_565
Co3 O5 1.923494 1_555
Co3 O2 1.923522 1_455
Co3 O1 1.937971 1_455
Co3 O0 1.937976 1_455
Co3 O7 1.937984 1_555
Co3 O6 1.938005 1_555
