# generated using pymatgen
data_Fe4OF7
_symmetry_space_group_name_H-M   'P 1'
_cell_length_a   7.52310467
_cell_length_b   7.52310467
_cell_length_c   6.89984200
_cell_angle_alpha   90.00000000
_cell_angle_beta   90.00000000
_cell_angle_gamma   129.77602413
_symmetry_Int_Tables_number   1
_chemical_formula_structural   Fe4OF7
_chemical_formula_sum   'Fe8 O2 F14'
_cell_volume   300.12779985
_cell_formula_units_Z   2
loop_
 _symmetry_equiv_pos_site_id
 _symmetry_equiv_pos_as_xyz
  1  'x, y, z'
loop_
 _atom_site_type_symbol
 _atom_site_label
 _atom_site_symmetry_multiplicity
 _atom_site_fract_x
 _atom_site_fract_y
 _atom_site_fract_z
 _atom_site_occupancy
  Fe  Fe0  1  0.52504000  0.01470200  0.00000000  1
  Fe  Fe1  1  0.98529800  0.47496000  0.00000000  1
  Fe  Fe2  1  0.74741600  0.25258400  0.50000000  1
  Fe  Fe3  1  0.24530000  0.75470000  0.50000000  1
  Fe  Fe4  1  0.49654700  0.50345300  0.00000000  1
  Fe  Fe5  1  0.99513600  0.00486400  0.00000000  1
  Fe  Fe6  1  0.73437900  0.72266900  0.50000000  1
  Fe  Fe7  1  0.27733100  0.26562100  0.50000000  1
  O  O0  1  0.84858000  0.15142000  0.00000000  1
  O  O1  1  0.60014900  0.39985100  0.50000000  1
  F  F0  1  0.34692600  0.65307400  0.00000000  1
  F  F1  1  0.49513100  0.99456900  0.29328300  1
  F  F2  1  0.00543100  0.50486900  0.29328300  1
  F  F3  1  0.49513100  0.99456900  0.70671700  1
  F  F4  1  0.74693800  0.74670600  0.20644000  1
  F  F5  1  0.25329400  0.25306200  0.20644000  1
  F  F6  1  0.00543100  0.50486900  0.70671700  1
  F  F7  1  0.64564200  0.35435800  0.00000000  1
  F  F8  1  0.15432900  0.84567100  0.00000000  1
  F  F9  1  0.39531000  0.60469000  0.50000000  1
  F  F10  1  0.90514600  0.09485400  0.50000000  1
  F  F11  1  0.09587900  0.90412100  0.50000000  1
  F  F12  1  0.74693800  0.74670600  0.79356000  1
  F  F13  1  0.25329400  0.25306200  0.79356000  1
loop_
_geom_bond_atom_site_label_1
_geom_bond_atom_site_label_2
_geom_bond_distance
_geom_bond_site_symmetry_2
Fe0 O0 1.943955 1_555
Fe1 O0 1.943955 1_555
Fe2 O1 2.006372 1_555
Fe5 O0 1.996685 1_555
Fe6 O1 1.944147 1_555
Fe7 O1 1.944147 1_555
F0 Fe4 2.038443 1_555
F0 Fe1 2.128927 1_455
F0 Fe0 2.128927 1_565
F1 Fe0 2.030996 1_565
F1 Fe3 2.117413 1_555
F1 Fe2 2.165719 1_565
F2 Fe1 2.030996 1_455
F2 Fe3 2.117413 1_555
F2 Fe2 2.165719 1_455
F3 Fe0 2.030996 1_566
F3 Fe3 2.117413 1_555
F3 Fe2 2.165719 1_565
F4 Fe6 2.030391 1_555
F4 Fe4 2.124919 1_555
F4 Fe5 2.155713 1_565
F5 Fe7 2.030391 1_555
F5 Fe4 2.124919 1_555
F5 Fe5 2.155713 1_455
F6 Fe1 2.030996 1_456
F6 Fe3 2.117413 1_555
F6 Fe2 2.165719 1_455
F7 Fe4 2.031277 1_555
F7 Fe1 2.094283 1_555
F7 Fe0 2.094283 1_555
F8 Fe5 2.168852 1_465
F8 Fe1 2.203869 1_455
F8 Fe0 2.203869 1_565
F9 Fe3 2.043743 1_555
F9 Fe7 2.097043 1_555
F9 Fe6 2.097043 1_555
F10 Fe2 2.148920 1_555
F10 Fe6 2.210783 1_545
F10 Fe7 2.210783 1_655
F11 Fe3 2.035718 1_555
F11 Fe7 2.123507 1_565
F11 Fe6 2.123507 1_455
F12 Fe6 2.030391 1_555
F12 Fe4 2.124919 1_556
F12 Fe5 2.155713 1_566
F13 Fe7 2.030391 1_555
F13 Fe4 2.124919 1_556
F13 Fe5 2.155713 1_456
