# generated using pymatgen
data_Ba4LiBi3O11
_symmetry_space_group_name_H-M   'P 1'
_cell_length_a   6.16481474
_cell_length_b   6.16481474
_cell_length_c   8.70891700
_cell_angle_alpha   90.00000000
_cell_angle_beta   90.00000000
_cell_angle_gamma   90.60525700
_symmetry_Int_Tables_number   1
_chemical_formula_structural   Ba4LiBi3O11
_chemical_formula_sum   'Ba4 Li1 Bi3 O11'
_cell_volume   330.96340731
_cell_formula_units_Z   1
loop_
 _symmetry_equiv_pos_site_id
 _symmetry_equiv_pos_as_xyz
  1  'x, y, z'
loop_
 _atom_site_type_symbol
 _atom_site_label
 _atom_site_symmetry_multiplicity
 _atom_site_fract_x
 _atom_site_fract_y
 _atom_site_fract_z
 _atom_site_occupancy
  Ba  Ba0  1  0.49924300  0.97550200  0.24549500  1
  Ba  Ba1  1  0.49924300  0.97550200  0.75450500  1
  Ba  Ba2  1  0.97550200  0.49924300  0.75450500  1
  Ba  Ba3  1  0.97550200  0.49924300  0.24549500  1
  Li  Li0  1  0.53339800  0.53339800  0.00000000  1
  Bi  Bi0  1  0.98926100  0.98926100  0.00000000  1
  Bi  Bi1  1  0.00129900  0.00129900  0.50000000  1
  Bi  Bi2  1  0.49237000  0.49237000  0.50000000  1
  O  O0  1  0.02363500  0.02363500  0.24747100  1
  O  O1  1  0.02363500  0.02363500  0.75252900  1
  O  O2  1  0.74669500  0.25105900  0.50000000  1
  O  O3  1  0.24953400  0.24953400  0.50000000  1
  O  O4  1  0.75296600  0.24762900  0.00000000  1
  O  O5  1  0.49579900  0.49579900  0.25619000  1
  O  O6  1  0.49579900  0.49579900  0.74381000  1
  O  O7  1  0.24762900  0.75296600  0.00000000  1
  O  O8  1  0.25105900  0.74669500  0.50000000  1
  O  O9  1  0.75217200  0.75217200  0.00000000  1
  O  O10  1  0.74526200  0.74526200  0.50000000  1
loop_
_geom_bond_atom_site_label_1
_geom_bond_atom_site_label_2
_geom_bond_distance
_geom_bond_site_symmetry_2
Ba0 O0 2.950179 1_565
Ba0 O5 2.958599 1_555
Ba0 O7 2.968878 1_555
Ba0 O9 2.990521 1_555
Ba0 O8 3.032771 1_555
Ba0 O10 3.045178 1_555
Ba0 O4 3.126748 1_565
Ba0 O2 3.173464 1_565
Ba0 O3 3.192391 1_565
Ba0 O5 3.209181 1_565
Ba0 O0 3.243292 1_665
Ba1 O1 2.950179 1_565
Ba1 O6 2.958599 1_555
Ba1 O7 2.968878 1_556
Ba1 O9 2.990521 1_556
Ba1 O8 3.032771 1_555
Ba1 O10 3.045178 1_555
Ba1 O4 3.126748 1_566
Ba1 O2 3.173464 1_565
Ba1 O3 3.192391 1_565
Ba1 O6 3.209181 1_565
Ba1 O1 3.243292 1_665
Ba2 O1 2.950179 1_655
Ba2 O6 2.958599 1_555
Ba2 O4 2.968878 1_556
Ba2 O9 2.990521 1_556
Ba2 O2 3.032771 1_555
Ba2 O10 3.045178 1_555
Ba2 O7 3.126748 1_656
Ba2 O8 3.173464 1_655
Ba2 O3 3.192391 1_655
Ba2 O6 3.209181 1_655
Ba2 O1 3.243292 1_665
Ba3 O0 2.950179 1_655
Ba3 O5 2.958599 1_555
Ba3 O4 2.968878 1_555
Ba3 O9 2.990521 1_555
Ba3 O2 3.032771 1_555
Ba3 O10 3.045178 1_555
Ba3 O7 3.126748 1_655
Ba3 O8 3.173464 1_655
Ba3 O3 3.192391 1_655
Ba3 O5 3.209181 1_655
Ba3 O0 3.243292 1_665
Li0 O9 1.897251 1_555
Li0 O7 2.232988 1_555
Li0 O4 2.232988 1_555
Li0 O6 2.254838 1_554
Li0 O5 2.254838 1_555
Bi0 O9 2.056082 1_555
Bi0 O4 2.169797 1_565
Bi0 O7 2.169797 1_655
Bi0 O1 2.175723 1_664
Bi0 O0 2.175723 1_665
Bi1 O3 2.152742 1_555
Bi1 O0 2.207768 1_555
Bi1 O1 2.207768 1_555
Bi1 O8 2.210296 1_545
Bi1 O2 2.210296 1_455
Bi1 O10 2.220403 1_445
Bi2 O3 2.105921 1_555
Bi2 O5 2.123529 1_555
Bi2 O6 2.123529 1_555
Bi2 O8 2.172682 1_555
Bi2 O2 2.172682 1_555
Bi2 O10 2.193128 1_555
