# generated using pymatgen
data_Li4Co3TeO8
_symmetry_space_group_name_H-M   'P 1'
_cell_length_a   6.01455815
_cell_length_b   6.01455815
_cell_length_c   6.01455822
_cell_angle_alpha   60.95335194
_cell_angle_beta   60.95335194
_cell_angle_gamma   60.95334922
_symmetry_Int_Tables_number   1
_chemical_formula_structural   Li4Co3TeO8
_chemical_formula_sum   'Li4 Co3 Te1 O8'
_cell_volume   157.15436036
_cell_formula_units_Z   1
loop_
 _symmetry_equiv_pos_site_id
 _symmetry_equiv_pos_as_xyz
  1  'x, y, z'
loop_
 _atom_site_type_symbol
 _atom_site_label
 _atom_site_symmetry_multiplicity
 _atom_site_fract_x
 _atom_site_fract_y
 _atom_site_fract_z
 _atom_site_occupancy
  Li  Li0  1  0.50000000  0.50000000  0.50000000  1
  Li  Li1  1  0.00000000  0.00000000  0.50000000  1
  Li  Li2  1  0.50000000  0.00000000  0.00000000  1
  Li  Li3  1  0.00000000  0.50000000  0.00000000  1
  Co  Co0  1  0.50000000  0.50000000  0.00000000  1
  Co  Co1  1  0.00000000  0.50000000  0.50000000  1
  Co  Co2  1  0.50000000  0.00000000  0.50000000  1
  Te  Te0  1  0.00000000  0.00000000  0.00000000  1
  O  O0  1  0.26094800  0.26094800  0.26094800  1
  O  O1  1  0.76925700  0.76925700  0.22665300  1
  O  O2  1  0.22665300  0.76925700  0.76925700  1
  O  O3  1  0.73905200  0.73905200  0.73905200  1
  O  O4  1  0.76925700  0.22665300  0.76925700  1
  O  O5  1  0.23074300  0.23074300  0.77334700  1
  O  O6  1  0.77334700  0.23074300  0.23074300  1
  O  O7  1  0.23074300  0.77334700  0.23074300  1
loop_
_geom_bond_atom_site_label_1
_geom_bond_atom_site_label_2
_geom_bond_distance
_geom_bond_site_symmetry_2
Li0 O4 2.307416 1_555
Li0 O7 2.307416 1_555
Li0 O2 2.307416 1_555
Li0 O6 2.307416 1_555
Li0 O5 2.307416 1_555
Li0 O1 2.307416 1_555
Li1 O7 2.128675 1_545
Li1 O2 2.128675 1_545
Li1 O4 2.128675 1_455
Li1 O6 2.128675 1_455
Li1 O3 2.236802 1_445
Li1 O0 2.236802 1_555
Li2 O1 2.128675 1_545
Li2 O5 2.128675 1_554
Li2 O4 2.128675 1_554
Li2 O7 2.128675 1_545
Li2 O3 2.236801 1_544
Li2 O0 2.236801 1_555
Li3 O1 2.128675 1_455
Li3 O5 2.128675 1_554
Li3 O2 2.128675 1_554
Li3 O6 2.128675 1_455
Li3 O0 2.236801 1_555
Li3 O3 2.236801 1_454
Co0 O0 2.054912 1_555
Co0 O3 2.054912 1_554
Co0 O4 2.167807 1_554
Co0 O2 2.167807 1_554
Co0 O6 2.167807 1_555
Co0 O7 2.167807 1_555
Co1 O3 2.054912 1_455
Co1 O0 2.054912 1_555
Co1 O5 2.167807 1_555
Co1 O1 2.167807 1_455
Co1 O4 2.167807 1_455
Co1 O7 2.167807 1_555
Co2 O0 2.054912 1_555
Co2 O3 2.054912 1_545
Co2 O5 2.167807 1_555
Co2 O1 2.167807 1_545
Co2 O6 2.167807 1_555
Co2 O2 2.167807 1_545
O1 Te0 1.976480 1_665
O2 Te0 1.976480 1_566
O4 Te0 1.976480 1_656
O5 Te0 1.976480 1_556
O6 Te0 1.976480 1_655
O7 Te0 1.976480 1_565
