# generated using pymatgen
data_LiFeSiO4
_symmetry_space_group_name_H-M   'P 1'
_cell_length_a   5.13673200
_cell_length_b   10.29992800
_cell_length_c   13.46510000
_cell_angle_alpha   90.00000000
_cell_angle_beta   90.00000000
_cell_angle_gamma   90.00000000
_symmetry_Int_Tables_number   1
_chemical_formula_structural   LiFeSiO4
_chemical_formula_sum   'Li8 Fe8 Si8 O32'
_cell_volume   712.41110355
_cell_formula_units_Z   8
loop_
 _symmetry_equiv_pos_site_id
 _symmetry_equiv_pos_as_xyz
  1  'x, y, z'
loop_
 _atom_site_type_symbol
 _atom_site_label
 _atom_site_symmetry_multiplicity
 _atom_site_fract_x
 _atom_site_fract_y
 _atom_site_fract_z
 _atom_site_occupancy
  Li  Li0  1  0.06605400  0.03668900  0.24636900  1
  Li  Li1  1  0.55255300  0.21128200  0.99852200  1
  Li  Li2  1  0.55255300  0.28871800  0.49852200  1
  Li  Li3  1  0.06605400  0.46331100  0.74636900  1
  Li  Li4  1  0.93394600  0.53668900  0.24636900  1
  Li  Li5  1  0.44744700  0.71128200  0.99852200  1
  Li  Li6  1  0.44744700  0.78871800  0.49852200  1
  Li  Li7  1  0.93394600  0.96331100  0.74636900  1
  Fe  Fe0  1  0.91826500  0.03316800  0.49674500  1
  Fe  Fe1  1  0.55513500  0.21433900  0.25043600  1
  Fe  Fe2  1  0.55513500  0.28566100  0.75043600  1
  Fe  Fe3  1  0.91826500  0.46683200  0.99674500  1
  Fe  Fe4  1  0.08173500  0.53316800  0.49674500  1
  Fe  Fe5  1  0.44486500  0.71433900  0.25043600  1
  Fe  Fe6  1  0.44486500  0.78566100  0.75043600  1
  Fe  Fe7  1  0.08173500  0.96683200  0.99674500  1
  Si  Si0  1  0.42963500  0.03442700  0.62428700  1
  Si  Si1  1  0.05205700  0.21640100  0.87253600  1
  Si  Si2  1  0.05205700  0.28359900  0.37253600  1
  Si  Si3  1  0.42963500  0.46557300  0.12428700  1
  Si  Si4  1  0.57036500  0.53442700  0.62428700  1
  Si  Si5  1  0.94794300  0.71640100  0.87253600  1
  Si  Si6  1  0.94794300  0.78359900  0.37253600  1
  Si  Si7  1  0.57036500  0.96557300  0.12428700  1
  O  O0  1  0.88369800  0.99600500  0.11519600  1
  O  O1  1  0.57492400  0.97500300  0.52508500  1
  O  O2  1  0.45249000  0.04073900  0.22250000  1
  O  O3  1  0.99044900  0.05960600  0.87864000  1
  O  O4  1  0.49130000  0.19045700  0.63182200  1
  O  O5  1  0.92064800  0.21447900  0.47076600  1
  O  O6  1  0.92010600  0.28252500  0.77349800  1
  O  O7  1  0.36836600  0.24238100  0.86799700  1
  O  O8  1  0.36836600  0.25761900  0.36799700  1
  O  O9  1  0.92010600  0.21747500  0.27349800  1
  O  O10  1  0.92064800  0.28552100  0.97076600  1
  O  O11  1  0.49130000  0.30954300  0.13182200  1
  O  O12  1  0.99044900  0.44039400  0.37864000  1
  O  O13  1  0.45249000  0.45926100  0.72250000  1
  O  O14  1  0.57492400  0.52499700  0.02508500  1
  O  O15  1  0.88369800  0.50399500  0.61519600  1
  O  O16  1  0.11630200  0.49600500  0.11519600  1
  O  O17  1  0.42507600  0.47500300  0.52508500  1
  O  O18  1  0.54751000  0.54073900  0.22250000  1
  O  O19  1  0.00955100  0.55960600  0.87864000  1
  O  O20  1  0.50870000  0.69045700  0.63182200  1
  O  O21  1  0.07935200  0.71447900  0.47076600  1
  O  O22  1  0.07989400  0.78252500  0.77349800  1
  O  O23  1  0.63163400  0.74238100  0.86799700  1
  O  O24  1  0.63163400  0.75761900  0.36799700  1
  O  O25  1  0.07989400  0.71747500  0.27349800  1
  O  O26  1  0.07935200  0.78552100  0.97076600  1
  O  O27  1  0.50870000  0.80954300  0.13182200  1
  O  O28  1  0.00955100  0.94039400  0.37864000  1
  O  O29  1  0.54751000  0.95926100  0.72250000  1
  O  O30  1  0.42507600  0.02499700  0.02508500  1
  O  O31  1  0.11630200  0.00399500  0.61519600  1
loop_
_geom_bond_atom_site_label_1
_geom_bond_atom_site_label_2
_geom_bond_distance
_geom_bond_site_symmetry_2
Li0 O2 2.011302 1_555
Li0 O9 2.040303 1_455
Li0 O0 2.042718 1_445
Li0 O28 2.059146 1_545
Li1 O7 2.021550 1_555
Li1 O30 2.058691 1_556
Li1 O10 2.073529 1_555
Li1 O11 2.084458 1_556
Li2 O8 2.021550 1_555
Li2 O17 2.058691 1_555
Li2 O5 2.073529 1_555
Li2 O4 2.084458 1_555
Li3 O13 2.011302 1_555
Li3 O6 2.040303 1_455
Li3 O15 2.042718 1_455
Li3 O19 2.059146 1_555
Li4 O18 2.011302 1_555
Li4 O25 2.040303 1_655
Li4 O16 2.042718 1_655
Li4 O12 2.059146 1_555
Li5 O23 2.021550 1_555
Li5 O14 2.058691 1_556
Li5 O26 2.073529 1_555
Li5 O27 2.084458 1_556
Li6 O24 2.021550 1_555
Li6 O1 2.058691 1_555
Li6 O21 2.073529 1_555
Li6 O20 2.084458 1_555
Li7 O29 2.011302 1_555
Li7 O22 2.040303 1_655
Li7 O31 2.042718 1_665
Li7 O3 2.059146 1_565
Fe0 O5 1.900010 1_555
Fe0 O1 1.901315 1_545
Fe0 O28 1.913642 1_645
Fe0 O31 1.915461 1_655
Fe1 O9 1.900577 1_555
Fe1 O2 1.901759 1_555
Fe1 O11 1.902622 1_555
Fe1 O8 1.903925 1_555
Fe2 O6 1.900577 1_555
Fe2 O13 1.901759 1_555
Fe2 O4 1.902622 1_555
Fe2 O7 1.903925 1_555
Fe3 O10 1.900010 1_555
Fe3 O14 1.901315 1_556
Fe3 O19 1.913642 1_655
Fe3 O16 1.915461 1_656
Fe4 O21 1.900010 1_555
Fe4 O17 1.901315 1_555
Fe4 O12 1.913642 1_455
Fe4 O15 1.915461 1_455
Fe5 O25 1.900577 1_555
Fe5 O18 1.901759 1_555
Fe5 O27 1.902622 1_555
Fe5 O24 1.903925 1_555
Fe6 O22 1.900577 1_555
Fe6 O29 1.901759 1_555
Fe6 O20 1.902622 1_555
Fe6 O23 1.903925 1_555
Fe7 O26 1.900010 1_555
Fe7 O30 1.901315 1_566
Fe7 O3 1.913642 1_465
Fe7 O0 1.915461 1_456
O0 Si7 1.644308 1_555
O1 Si0 1.647989 1_565
O2 Si7 1.647690 1_545
O3 Si1 1.647743 1_655
O4 Si0 1.641156 1_555
O5 Si2 1.646804 1_655
O6 Si1 1.643667 1_655
O7 Si1 1.647816 1_555
O8 Si2 1.647816 1_555
O9 Si2 1.643667 1_655
O10 Si1 1.646804 1_655
O11 Si3 1.641156 1_555
O12 Si2 1.647743 1_655
O13 Si4 1.647690 1_555
O14 Si3 1.647989 1_555
O15 Si4 1.644308 1_555
O16 Si3 1.644308 1_555
O17 Si4 1.647989 1_555
O18 Si3 1.647690 1_555
O19 Si5 1.647743 1_455
O20 Si4 1.641156 1_555
O21 Si6 1.646804 1_455
O22 Si5 1.643667 1_455
O23 Si5 1.647816 1_555
O24 Si6 1.647816 1_555
O25 Si6 1.643667 1_455
O26 Si5 1.646804 1_455
O27 Si7 1.641156 1_555
O28 Si6 1.647743 1_455
O29 Si0 1.647690 1_565
O30 Si7 1.647989 1_545
O31 Si0 1.644308 1_555
