# generated using pymatgen
data_BaTm2O4
_symmetry_space_group_name_H-M   'P 1'
_cell_length_a   5.86264161
_cell_length_b   5.86264161
_cell_length_c   11.39981000
_cell_angle_alpha   90.00000000
_cell_angle_beta   90.00000000
_cell_angle_gamma   146.20994386
_symmetry_Int_Tables_number   1
_chemical_formula_structural   BaTm2O4
_chemical_formula_sum   'Ba2 Tm4 O8'
_cell_volume   217.91008479
_cell_formula_units_Z   2
loop_
 _symmetry_equiv_pos_site_id
 _symmetry_equiv_pos_as_xyz
  1  'x, y, z'
loop_
 _atom_site_type_symbol
 _atom_site_label
 _atom_site_symmetry_multiplicity
 _atom_site_fract_x
 _atom_site_fract_y
 _atom_site_fract_z
 _atom_site_occupancy
  Ba  Ba0  1  0.88936200  0.11063800  0.25000000  1
  Ba  Ba1  1  0.11063800  0.88936200  0.75000000  1
  Tm  Tm0  1  0.63537300  0.36462700  0.42972700  1
  Tm  Tm1  1  0.63537300  0.36462700  0.07027300  1
  Tm  Tm2  1  0.36462700  0.63537300  0.57027300  1
  Tm  Tm3  1  0.36462700  0.63537300  0.92972700  1
  O  O0  1  0.00000000  0.00000000  0.00000000  1
  O  O1  1  0.00000000  0.00000000  0.50000000  1
  O  O2  1  0.56672300  0.43327700  0.25000000  1
  O  O3  1  0.74001500  0.25998500  0.60064200  1
  O  O4  1  0.74001500  0.25998500  0.89935800  1
  O  O5  1  0.43327700  0.56672300  0.75000000  1
  O  O6  1  0.25998500  0.74001500  0.39935800  1
  O  O7  1  0.25998500  0.74001500  0.10064200  1
loop_
_geom_bond_atom_site_label_1
_geom_bond_atom_site_label_2
_geom_bond_distance
_geom_bond_site_symmetry_2
Ba0 O2 2.619623 1_655
Ba0 O2 2.619623 1_545
Ba0 O7 2.812263 1_655
Ba0 O6 2.812263 1_655
Ba0 O7 2.812263 1_545
Ba0 O6 2.812263 1_545
Ba0 O0 3.108534 1_655
Ba0 O1 3.108534 1_655
Ba1 O5 2.619623 1_565
Ba1 O5 2.619623 1_455
Ba1 O3 2.812263 1_565
Ba1 O4 2.812263 1_565
Ba1 O3 2.812263 1_455
Ba1 O4 2.812263 1_455
Ba1 O0 3.108534 1_566
Ba1 O1 3.108534 1_565
O0 Tm1 2.418960 1_445
O0 Tm3 2.418960 1_444
O0 Tm3 2.418960 1_554
O0 Tm1 2.418960 1_555
O1 Tm2 2.418960 1_445
O1 Tm2 2.418960 1_555
O1 Tm0 2.418960 1_445
O1 Tm0 2.418960 1_555
O2 Tm0 2.188837 1_555
O2 Tm1 2.188837 1_555
O3 Tm2 2.230989 1_545
O3 Tm2 2.230989 1_655
O3 Tm0 2.274760 1_555
O4 Tm3 2.230989 1_545
O4 Tm3 2.230989 1_655
O4 Tm1 2.274760 1_556
O5 Tm3 2.188837 1_555
O5 Tm2 2.188837 1_555
O6 Tm0 2.230989 1_455
O6 Tm0 2.230989 1_565
O6 Tm2 2.274760 1_555
O7 Tm1 2.230989 1_455
O7 Tm1 2.230989 1_565
O7 Tm3 2.274760 1_554
