# generated using pymatgen
data_GeWO4
_symmetry_space_group_name_H-M   'P 1'
_cell_length_a   5.05512900
_cell_length_b   5.58492100
_cell_length_c   11.70342700
_cell_angle_alpha   90.00000000
_cell_angle_beta   90.00000000
_cell_angle_gamma   90.00000000
_symmetry_Int_Tables_number   1
_chemical_formula_structural   GeWO4
_chemical_formula_sum   'Ge4 W4 O16'
_cell_volume   330.41695725
_cell_formula_units_Z   4
loop_
 _symmetry_equiv_pos_site_id
 _symmetry_equiv_pos_as_xyz
  1  'x, y, z'
loop_
 _atom_site_type_symbol
 _atom_site_label
 _atom_site_symmetry_multiplicity
 _atom_site_fract_x
 _atom_site_fract_y
 _atom_site_fract_z
 _atom_site_occupancy
  Ge  Ge0  1  0.17043100  0.25000000  0.00000000  1
  Ge  Ge1  1  0.32956900  0.25000000  0.50000000  1
  Ge  Ge2  1  0.82956900  0.75000000  0.00000000  1
  Ge  Ge3  1  0.67043100  0.75000000  0.50000000  1
  W  W0  1  0.75000000  0.14112700  0.25000000  1
  W  W1  1  0.75000000  0.35887300  0.75000000  1
  W  W2  1  0.25000000  0.64112700  0.25000000  1
  W  W3  1  0.25000000  0.85887300  0.75000000  1
  O  O0  1  0.89986400  0.10108500  0.09850400  1
  O  O1  1  0.60013600  0.10108500  0.40149600  1
  O  O2  1  0.49906900  0.12963500  0.79620200  1
  O  O3  1  0.00093100  0.12963500  0.70379800  1
  O  O4  1  0.49906900  0.37036500  0.20379800  1
  O  O5  1  0.00093100  0.37036500  0.29620200  1
  O  O6  1  0.60013600  0.39891500  0.59850400  1
  O  O7  1  0.89986400  0.39891500  0.90149600  1
  O  O8  1  0.10013600  0.60108500  0.09850400  1
  O  O9  1  0.39986400  0.60108500  0.40149600  1
  O  O10  1  0.99906900  0.62963500  0.70379800  1
  O  O11  1  0.50093100  0.62963500  0.79620200  1
  O  O12  1  0.50093100  0.87036500  0.20379800  1
  O  O13  1  0.99906900  0.87036500  0.29620200  1
  O  O14  1  0.39986400  0.89891500  0.59850400  1
  O  O15  1  0.10013600  0.89891500  0.90149600  1
loop_
_geom_bond_atom_site_label_1
_geom_bond_atom_site_label_2
_geom_bond_distance
_geom_bond_site_symmetry_2
Ge0 O0 1.972678 1_455
Ge0 O7 1.972678 1_454
Ge0 O15 2.302166 1_544
Ge0 O8 2.302166 1_555
Ge1 O1 1.972678 1_555
Ge1 O6 1.972678 1_555
Ge1 O9 2.302166 1_555
Ge1 O14 2.302166 1_545
Ge2 O8 1.972678 1_655
Ge2 O15 1.972678 1_654
Ge2 O7 2.302166 1_554
Ge2 O0 2.302166 1_565
Ge3 O9 1.972678 1_555
Ge3 O14 1.972678 1_555
Ge3 O6 2.302166 1_555
Ge3 O1 2.302166 1_565
O0 W0 1.941018 1_555
O1 W0 1.941018 1_555
O2 W1 1.881635 1_555
O2 W3 2.040675 1_545
O3 W1 1.881635 1_455
O3 W3 2.040675 1_545
O4 W0 1.881635 1_555
O4 W2 2.040675 1_555
O5 W0 1.881635 1_455
O5 W2 2.040675 1_555
O6 W1 1.941018 1_555
O7 W1 1.941018 1_555
O8 W2 1.941018 1_555
O9 W2 1.941018 1_555
O10 W3 1.881635 1_655
O10 W1 2.040675 1_555
O11 W3 1.881635 1_555
O11 W1 2.040675 1_555
O12 W2 1.881635 1_555
O12 W0 2.040675 1_565
O13 W2 1.881635 1_655
O13 W0 2.040675 1_565
O14 W3 1.941018 1_555
O15 W3 1.941018 1_555
