# generated using pymatgen
data_Li4Cr5Co3O16
_symmetry_space_group_name_H-M   'P 1'
_cell_length_a   5.70520791
_cell_length_b   5.70520791
_cell_length_c   9.31299394
_cell_angle_alpha   89.87034013
_cell_angle_beta   89.87034013
_cell_angle_gamma   60.44157130
_symmetry_Int_Tables_number   1
_chemical_formula_structural   Li4Cr5Co3O16
_chemical_formula_sum   'Li4 Cr5 Co3 O16'
_cell_volume   263.67969605
_cell_formula_units_Z   1
loop_
 _symmetry_equiv_pos_site_id
 _symmetry_equiv_pos_as_xyz
  1  'x, y, z'
loop_
 _atom_site_type_symbol
 _atom_site_label
 _atom_site_symmetry_multiplicity
 _atom_site_fract_x
 _atom_site_fract_y
 _atom_site_fract_z
 _atom_site_occupancy
  Li  Li0  1  0.32977200  0.32977200  0.10994900  1
  Li  Li1  1  0.00686400  0.00686400  0.00403700  1
  Li  Li2  1  0.00591800  0.00591800  0.50170100  1
  Li  Li3  1  0.66447900  0.66447900  0.60489500  1
  Cr  Cr0  1  0.17110300  0.65605100  0.78755600  1
  Cr  Cr1  1  0.33228700  0.33228700  0.50775600  1
  Cr  Cr2  1  0.65605100  0.17110300  0.78755600  1
  Cr  Cr3  1  0.82822300  0.82822300  0.28862400  1
  Cr  Cr4  1  0.66502600  0.66502600  0.01289700  1
  Co  Co0  1  0.17240000  0.17240000  0.78665000  1
  Co  Co1  1  0.34106800  0.83085100  0.28741100  1
  Co  Co2  1  0.83085100  0.34106800  0.28741100  1
  O  O0  1  0.16511700  0.66679000  0.39813000  1
  O  O1  1  0.47798200  0.47798200  0.65838300  1
  O  O2  1  0.33282500  0.33282500  0.90018300  1
  O  O3  1  0.00218200  0.00218200  0.69318300  1
  O  O4  1  0.00228700  0.00228700  0.19400400  1
  O  O5  1  0.66679000  0.16511700  0.39813000  1
  O  O6  1  0.04176700  0.47776500  0.65777500  1
  O  O7  1  0.47776500  0.04176700  0.65777500  1
  O  O8  1  0.83287000  0.83287000  0.89813700  1
  O  O9  1  0.16889400  0.16889400  0.39569400  1
  O  O10  1  0.52033800  0.95600700  0.15907200  1
  O  O11  1  0.95600700  0.52033800  0.15907200  1
  O  O12  1  0.66355000  0.66355000  0.39554600  1
  O  O13  1  0.33443800  0.83100900  0.89755200  1
  O  O14  1  0.52054600  0.52054600  0.16434600  1
  O  O15  1  0.83100900  0.33443800  0.89755200  1
loop_
_geom_bond_atom_site_label_1
_geom_bond_atom_site_label_2
_geom_bond_distance
_geom_bond_site_symmetry_2
Li0 O10 1.910223 1_545
Li0 O11 1.910223 1_455
Li0 O14 1.949273 1_555
Li0 O2 1.953703 1_554
Li1 O4 1.769619 1_555
Li1 O13 1.904974 1_544
Li1 O15 1.904974 1_454
Li1 O8 1.981049 1_444
Li2 O3 1.783555 1_555
Li2 O9 1.883726 1_555
Li2 O0 1.941503 1_545
Li2 O5 1.941503 1_455
Li3 O1 1.903814 1_555
Li3 O6 1.936675 1_655
Li3 O7 1.936675 1_565
Li3 O12 1.949711 1_555
Cr0 O2 1.915468 1_555
Cr0 O3 1.928518 1_565
Cr0 O1 1.945692 1_555
Cr0 O6 1.946801 1_555
Cr0 O13 1.959783 1_555
Cr0 O8 1.969017 1_455
Cr1 O9 1.921794 1_555
Cr1 O5 1.947765 1_555
Cr1 O0 1.947765 1_555
Cr1 O6 2.006379 1_555
Cr1 O7 2.006379 1_555
Cr1 O1 2.010450 1_555
Cr2 O2 1.915468 1_555
Cr2 O3 1.928518 1_655
Cr2 O1 1.945692 1_555
Cr2 O7 1.946801 1_555
Cr2 O15 1.959783 1_555
Cr2 O8 1.969017 1_545
Cr3 O12 1.902423 1_555
Cr3 O4 1.927164 1_665
Cr3 O11 1.953150 1_555
Cr3 O10 1.953150 1_555
Cr3 O5 1.959761 1_565
Cr3 O0 1.959761 1_655
Cr4 O15 1.962231 1_554
Cr4 O13 1.962231 1_554
Cr4 O8 1.967644 1_554
Cr4 O10 1.985869 1_555
Cr4 O11 1.985869 1_555
Cr4 O14 2.002022 1_555
Co0 O3 1.892619 1_555
Co0 O2 1.904887 1_555
Co0 O6 1.935112 1_555
Co0 O7 1.935112 1_555
Co0 O15 1.983344 1_455
Co0 O13 1.983344 1_545
Co1 O12 1.892516 1_555
Co1 O4 1.894134 1_565
Co1 O10 1.922396 1_555
Co1 O14 1.926539 1_555
Co1 O9 1.958718 1_565
Co1 O0 1.965955 1_555
Co2 O12 1.892516 1_555
Co2 O4 1.894134 1_655
Co2 O11 1.922396 1_555
Co2 O14 1.926539 1_555
Co2 O9 1.958718 1_655
Co2 O5 1.965955 1_555
