# generated using pymatgen
data_Li4Cr3Fe2Sb3O16
_symmetry_space_group_name_H-M   'P 1'
_cell_length_a   6.08990953
_cell_length_b   6.12461961
_cell_length_c   9.91657327
_cell_angle_alpha   89.90964142
_cell_angle_beta   89.95779268
_cell_angle_gamma   120.20596338
_symmetry_Int_Tables_number   1
_chemical_formula_structural   Li4Cr3Fe2Sb3O16
_chemical_formula_sum   'Li4 Cr3 Fe2 Sb3 O16'
_cell_volume   319.65088110
_cell_formula_units_Z   1
loop_
 _symmetry_equiv_pos_site_id
 _symmetry_equiv_pos_as_xyz
  1  'x, y, z'
loop_
 _atom_site_type_symbol
 _atom_site_label
 _atom_site_symmetry_multiplicity
 _atom_site_fract_x
 _atom_site_fract_y
 _atom_site_fract_z
 _atom_site_occupancy
  Li  Li0  1  0.34356000  0.67133800  0.90307900  1
  Li  Li1  1  0.01604700  0.00827200  0.00585400  1
  Li  Li2  1  0.02179100  0.01138000  0.49091200  1
  Li  Li3  1  0.67234900  0.33611800  0.36837600  1
  Cr  Cr0  1  0.16782800  0.83179200  0.21496000  1
  Cr  Cr1  1  0.16779500  0.33637600  0.21511800  1
  Cr  Cr2  1  0.33433700  0.16709100  0.71700200  1
  Fe  Fe0  1  0.30863500  0.65475800  0.47624200  1
  Fe  Fe1  1  0.65271900  0.32724900  0.01434300  1
  Sb  Sb0  1  0.66129600  0.83072500  0.21523700  1
  Sb  Sb1  1  0.82943600  0.66224400  0.71573800  1
  Sb  Sb2  1  0.82945500  0.16696400  0.71585600  1
  O  O0  1  0.14690100  0.83945900  0.60782800  1
  O  O1  1  0.03504400  0.51846300  0.33013800  1
  O  O2  1  0.33502600  0.66817500  0.10552800  1
  O  O3  1  0.99816400  0.99874600  0.31286300  1
  O  O4  1  0.99845500  0.99881900  0.82047800  1
  O  O5  1  0.14670500  0.30767900  0.60781200  1
  O  O6  1  0.48712100  0.96762700  0.33271300  1
  O  O7  1  0.48750800  0.51940700  0.33318800  1
  O  O8  1  0.31434000  0.15566200  0.10651200  1
  O  O9  1  0.68600100  0.84294500  0.60385800  1
  O  O10  1  0.51958600  0.48787500  0.82765300  1
  O  O11  1  0.51958500  0.03140600  0.82767600  1
  O  O12  1  0.66525700  0.33281200  0.60430500  1
  O  O13  1  0.84007600  0.68902200  0.10261400  1
  O  O14  1  0.97512500  0.48744900  0.82965500  1
  O  O15  1  0.83985500  0.15044600  0.10230500  1
loop_
_geom_bond_atom_site_label_1
_geom_bond_atom_site_label_2
_geom_bond_distance
_geom_bond_site_symmetry_2
Li0 O2 2.008045 1_556
Li0 O10 2.045643 1_555
Li0 O11 2.046072 1_565
Li0 O14 2.072489 1_455
Li1 O4 1.840799 1_444
Li1 O8 1.861902 1_555
Li1 O15 1.940518 1_455
Li1 O13 1.943301 1_445
Li2 O3 1.770244 1_445
Li2 O5 1.958216 1_555
Li2 O0 1.959113 1_545
Li2 O9 2.090630 1_445
Li3 O1 1.945522 1_655
Li3 O7 1.979875 1_555
Li3 O6 1.983036 1_545
Li3 O12 2.339842 1_555
Cr0 O1 2.017764 1_555
Cr0 O8 2.024416 1_565
Cr0 O3 2.029893 1_455
Cr0 O6 2.053114 1_555
Cr0 O13 2.059104 1_455
Cr0 O2 2.060849 1_555
Cr1 O1 2.026846 1_555
Cr1 O3 2.031125 1_445
Cr1 O8 2.043931 1_555
Cr1 O7 2.056633 1_555
Cr1 O15 2.062942 1_455
Cr1 O2 2.063197 1_555
Cr2 O11 2.027340 1_555
Cr2 O10 2.028570 1_555
Cr2 O4 2.042421 1_445
Cr2 O0 2.050732 1_545
Cr2 O5 2.051440 1_555
Cr2 O12 2.067701 1_555
Fe0 O1 2.044485 1_555
Fe0 O6 2.184599 1_555
Fe0 O7 2.190051 1_555
Fe0 O5 2.252453 1_555
Fe0 O0 2.253084 1_555
Fe0 O9 2.356901 1_555
Fe1 O8 2.000350 1_555
Fe1 O13 2.107430 1_555
Fe1 O15 2.114816 1_555
Fe1 O10 2.419008 1_554
Fe1 O11 2.429317 1_554
Fe1 O14 2.494517 1_554
O0 Sb1 1.985641 1_455
O2 Sb0 2.034429 1_555
O3 Sb0 2.021552 1_555
O4 Sb2 2.064184 1_565
O4 Sb1 2.064209 1_555
O5 Sb2 1.985454 1_455
O6 Sb0 2.020258 1_555
O7 Sb0 2.020986 1_555
O9 Sb1 2.046721 1_555
O9 Sb2 2.049108 1_565
O10 Sb1 1.974406 1_555
O11 Sb2 1.974210 1_555
O12 Sb1 2.066510 1_555
O12 Sb2 2.067718 1_555
O13 Sb0 2.034198 1_555
O14 Sb1 2.040297 1_555
O14 Sb2 2.041962 1_555
O15 Sb0 2.029722 1_545
