# generated using pymatgen
data_CaNi5
_symmetry_space_group_name_H-M   'P 1'
_cell_length_a   4.87494203
_cell_length_b   4.87492863
_cell_length_c   3.89506798
_cell_angle_alpha   90.00000000
_cell_angle_beta   90.00000000
_cell_angle_gamma   119.99868558
_symmetry_Int_Tables_number   1
_chemical_formula_structural   CaNi5
_chemical_formula_sum   'Ca1 Ni5'
_cell_volume   80.16580221
_cell_formula_units_Z   1
loop_
 _symmetry_equiv_pos_site_id
 _symmetry_equiv_pos_as_xyz
  1  'x, y, z'
loop_
 _atom_site_type_symbol
 _atom_site_label
 _atom_site_symmetry_multiplicity
 _atom_site_fract_x
 _atom_site_fract_y
 _atom_site_fract_z
 _atom_site_occupancy
  Ca  Ca0  1  0.00000000  0.00000000  -0.00000000  1
  Ni  Ni0  1  0.50000000  0.00000000  0.50000000  1
  Ni  Ni1  1  0.50000000  0.50000000  0.50000000  1
  Ni  Ni2  1  0.00000000  0.50000000  0.50000000  1
  Ni  Ni3  1  0.33333366  0.66667289  0.00000000  1
  Ni  Ni4  1  0.66666634  0.33332711  -0.00000000  1
loop_
_geom_bond_atom_site_label_1
_geom_bond_atom_site_label_2
_geom_bond_distance
_geom_bond_site_symmetry_2
Ca0 Ni4 2.814502 1_455
Ca0 Ni3 2.814502 1_545
Ca0 Ni3 2.814585 1_445
Ca0 Ni4 2.814585 1_555
Ca0 Ni3 2.814605 1_555
Ca0 Ni4 2.814605 1_445
Ca0 Ni2 3.119955 1_554
Ca0 Ni2 3.119955 1_555
Ca0 Ni2 3.119955 1_544
Ca0 Ni2 3.119955 1_545
Ca0 Ni0 3.119961 1_454
Ca0 Ni0 3.119961 1_555
Ca0 Ni0 3.119961 1_455
Ca0 Ni0 3.119961 1_554
Ca0 Ni1 3.119996 1_554
Ca0 Ni1 3.119996 1_444
Ca0 Ni1 3.119996 1_555
Ca0 Ni1 3.119996 1_445
Ni0 Ni4 2.402765 1_556
Ni0 Ni4 2.402765 1_555
Ni0 Ni3 2.402765 1_545
Ni0 Ni3 2.402765 1_546
Ni0 Ni1 2.437464 1_555
Ni0 Ni1 2.437464 1_545
Ni0 Ni2 2.437516 1_545
Ni0 Ni2 2.437516 1_655
Ni1 Ni3 2.402779 1_555
Ni1 Ni3 2.402779 1_556
Ni1 Ni4 2.402779 1_555
Ni1 Ni4 2.402779 1_556
Ni1 Ni2 2.437471 1_555
Ni1 Ni2 2.437471 1_655
Ni2 Ni4 2.402783 1_455
Ni2 Ni4 2.402783 1_456
Ni2 Ni3 2.402783 1_555
Ni2 Ni3 2.402783 1_556
Ni3 Ni4 2.814526 1_565
Ni3 Ni4 2.814576 1_555
Ni3 Ni4 2.814589 1_455
