# generated using pymatgen
data_Li2VCrO4
_symmetry_space_group_name_H-M   'P 1'
_cell_length_a   5.95672614
_cell_length_b   5.95672614
_cell_length_c   5.14794636
_cell_angle_alpha   73.67354618
_cell_angle_beta   73.67354618
_cell_angle_gamma   60.50357168
_symmetry_Int_Tables_number   1
_chemical_formula_structural   Li2VCrO4
_chemical_formula_sum   'Li4 V2 Cr2 O8'
_cell_volume   150.33283269
_cell_formula_units_Z   2
loop_
 _symmetry_equiv_pos_site_id
 _symmetry_equiv_pos_as_xyz
  1  'x, y, z'
loop_
 _atom_site_type_symbol
 _atom_site_label
 _atom_site_symmetry_multiplicity
 _atom_site_fract_x
 _atom_site_fract_y
 _atom_site_fract_z
 _atom_site_occupancy
  Li  Li0  1  0.12354500  0.37356400  0.75340300  1
  Li  Li1  1  0.62643600  0.87645500  0.74659700  1
  Li  Li2  1  0.37356400  0.12354500  0.25340300  1
  Li  Li3  1  0.87645500  0.62643600  0.24659700  1
  V  V0  1  0.62414800  0.37585200  0.75000000  1
  V  V1  1  0.37585200  0.62414800  0.25000000  1
  Cr  Cr0  1  0.12313600  0.87686400  0.75000000  1
  Cr  Cr1  1  0.87686400  0.12313600  0.25000000  1
  O  O0  1  0.48663000  0.73995600  0.51074300  1
  O  O1  1  0.99138300  0.23569600  0.50754200  1
  O  O2  1  0.23569600  0.99138300  0.00754200  1
  O  O3  1  0.51337000  0.26004400  0.48925700  1
  O  O4  1  0.00861700  0.76430400  0.49245800  1
  O  O5  1  0.26004400  0.51337000  0.98925700  1
  O  O6  1  0.73995600  0.48663000  0.01074300  1
  O  O7  1  0.76430400  0.00861700  0.99245800  1
loop_
_geom_bond_atom_site_label_1
_geom_bond_atom_site_label_2
_geom_bond_distance
_geom_bond_site_symmetry_2
Li0 O5 2.149220 1_555
Li0 O2 2.158663 1_546
Li0 O1 2.162729 1_455
Li0 O6 2.171155 1_456
Li0 O4 2.209228 1_555
Li0 O3 2.212208 1_555
Li1 O0 2.149220 1_555
Li1 O4 2.158663 1_655
Li1 O7 2.162729 1_565
Li1 O3 2.171155 1_565
Li1 O2 2.209228 1_556
Li1 O6 2.212208 1_556
Li2 O3 2.149220 1_555
Li2 O1 2.158663 1_455
Li2 O2 2.162729 1_545
Li2 O0 2.171155 1_545
Li2 O7 2.209228 1_554
Li2 O5 2.212208 1_554
Li3 O6 2.149220 1_555
Li3 O7 2.158663 1_564
Li3 O4 2.162729 1_655
Li3 O5 2.171155 1_654
Li3 O1 2.209228 1_555
Li3 O0 2.212208 1_555
Cr0 O2 2.032568 1_556
Cr0 O4 2.032568 1_555
Cr0 O1 2.035060 1_465
Cr0 O7 2.035060 1_465
Cr0 O5 2.048625 1_555
Cr0 O0 2.048625 1_555
Cr1 O1 2.032568 1_555
Cr1 O7 2.032568 1_554
Cr1 O2 2.035060 1_645
Cr1 O4 2.035060 1_645
Cr1 O6 2.048625 1_555
Cr1 O3 2.048625 1_555
O0 V1 2.044477 1_555
O0 V0 2.051311 1_555
O1 V0 2.071840 1_555
O2 V1 2.071840 1_555
O3 V0 2.044477 1_555
O3 V1 2.051311 1_555
O4 V1 2.071840 1_555
O5 V1 2.044477 1_556
O5 V0 2.051311 1_555
O6 V0 2.044477 1_554
O6 V1 2.051311 1_555
O7 V0 2.071840 1_555
