# generated using pymatgen
data_ZrSn2
_symmetry_space_group_name_H-M   'P 1'
_cell_length_a   5.73135121
_cell_length_b   5.61017914
_cell_length_c   5.61017914
_cell_angle_alpha   118.87986466
_cell_angle_beta   75.34209743
_cell_angle_gamma   75.34209743
_symmetry_Int_Tables_number   1
_chemical_formula_structural   ZrSn2
_chemical_formula_sum   'Zr2 Sn4'
_cell_volume   137.00283988
_cell_formula_units_Z   2
loop_
 _symmetry_equiv_pos_site_id
 _symmetry_equiv_pos_as_xyz
  1  'x, y, z'
loop_
 _atom_site_type_symbol
 _atom_site_label
 _atom_site_symmetry_multiplicity
 _atom_site_fract_x
 _atom_site_fract_y
 _atom_site_fract_z
 _atom_site_occupancy
  Zr  Zr0  1  0.50000000  0.25000000  0.75000000  1
  Zr  Zr1  1  -0.00000000  -0.00000000  0.00000000  1
  Sn  Sn0  1  0.00000000  0.33075491  0.66924509  1
  Sn  Sn1  1  0.50000000  0.58075491  0.41924509  1
  Sn  Sn2  1  -0.00000000  0.66924509  0.33075491  1
  Sn  Sn3  1  0.50000000  0.91924509  0.08075491  1
loop_
_geom_bond_atom_site_label_1
_geom_bond_atom_site_label_2
_geom_bond_distance
_geom_bond_site_symmetry_2
Sn0 Zr0 2.969995 1_455
Sn0 Zr0 2.969995 1_555
Sn0 Sn3 2.990498 1_545
Sn0 Sn3 2.990498 1_456
Sn0 Zr1 3.195692 1_556
Sn0 Sn2 3.251391 1_556
Sn0 Sn2 3.251391 1_545
Sn0 Sn2 3.270429 1_555
Sn0 Zr1 3.287914 1_566
Sn0 Zr1 3.287914 1_555
Sn1 Zr1 2.969995 1_655
Sn1 Zr1 2.969995 1_566
Sn1 Sn2 2.990498 1_555
Sn1 Sn2 2.990498 1_655
Sn1 Zr0 3.195692 1_555
Sn1 Sn3 3.251391 1_556
Sn1 Sn3 3.251391 1_545
Sn1 Sn3 3.270429 1_555
Sn1 Zr0 3.287914 1_565
Sn1 Zr0 3.287914 1_554
Sn2 Zr0 2.969995 1_465
Sn2 Zr0 2.969995 1_554
Sn2 Zr1 3.195692 1_565
Sn2 Zr1 3.287914 1_566
Sn2 Zr1 3.287914 1_555
Sn3 Zr1 2.969995 1_565
Sn3 Zr1 2.969995 1_665
Sn3 Zr0 3.195692 1_564
Sn3 Zr0 3.287914 1_565
Sn3 Zr0 3.287914 1_554
