# generated using pymatgen
data_Li7Co(OF)3
_symmetry_space_group_name_H-M   'P 1'
_cell_length_a   5.69947669
_cell_length_b   8.46990095
_cell_length_c   5.76031214
_cell_angle_alpha   80.02460666
_cell_angle_beta   95.22241533
_cell_angle_gamma   88.45739146
_symmetry_Int_Tables_number   1
_chemical_formula_structural   Li7Co(OF)3
_chemical_formula_sum   'Li14 Co2 O6 F6'
_cell_volume   272.47416837
_cell_formula_units_Z   2
loop_
 _symmetry_equiv_pos_site_id
 _symmetry_equiv_pos_as_xyz
  1  'x, y, z'
loop_
 _atom_site_type_symbol
 _atom_site_label
 _atom_site_symmetry_multiplicity
 _atom_site_fract_x
 _atom_site_fract_y
 _atom_site_fract_z
 _atom_site_occupancy
  Li  Li0  1  0.33056100  0.44800300  0.95252000  1
  Li  Li1  1  0.83050100  0.94783900  0.45266800  1
  Li  Li2  1  0.84643000  0.29547800  0.07094200  1
  Li  Li3  1  0.34640600  0.79559100  0.57109600  1
  Li  Li4  1  0.96605800  0.34706300  0.66617300  1
  Li  Li5  1  0.46572800  0.84665300  0.16630400  1
  Li  Li6  1  0.08082600  0.68149800  0.32007000  1
  Li  Li7  1  0.58091900  0.18127300  0.82014100  1
  Li  Li8  1  0.18450500  0.70175600  0.92199800  1
  Li  Li9  1  0.68508900  0.20152500  0.42222800  1
  Li  Li10  1  0.66971600  0.55827500  0.10281100  1
  Li  Li11  1  0.16943400  0.05811500  0.60274700  1
  Li  Li12  1  0.83105200  0.61799400  0.71265000  1
  Li  Li13  1  0.33131200  0.11794700  0.21263400  1
  Co  Co0  1  0.92790100  0.98689200  0.01812400  1
  Co  Co1  1  0.42759800  0.48704100  0.51776200  1
  O  O0  1  0.36563200  0.59261600  0.18956100  1
  O  O1  1  0.86546600  0.09216900  0.68990600  1
  O  O2  1  0.16195800  0.58694900  0.65854200  1
  O  O3  1  0.66219500  0.08705400  0.15854600  1
  O  O4  1  0.65205700  0.42674800  0.81134200  1
  O  O5  1  0.15207900  0.92672700  0.31178000  1
  F  F0  1  0.15328400  0.26784600  0.98535700  1
  F  F1  1  0.65313300  0.76776800  0.48581300  1
  F  F2  1  0.82985300  0.39695900  0.33416400  1
  F  F3  1  0.32958100  0.89696000  0.83439800  1
  F  F4  1  0.87326600  0.72540200  0.00939400  1
  F  F5  1  0.37335700  0.22529900  0.50883500  1
loop_
_geom_bond_atom_site_label_1
_geom_bond_atom_site_label_2
_geom_bond_distance
_geom_bond_site_symmetry_2
Li0 O0 1.986844 1_556
Li0 O2 2.031865 1_555
Li0 O4 2.086989 1_555
Li1 O1 1.985934 1_565
Li1 O3 2.032755 1_565
Li1 O5 2.086449 1_655
Li2 O4 1.937966 1_554
Li2 O3 2.088364 1_555
Li3 O5 1.936342 1_555
Li3 O2 2.090410 1_555
Li4 O4 2.181865 1_555
Li4 O1 2.233161 1_555
Li4 O2 2.340289 1_655
Li5 O5 2.182240 1_555
Li5 O0 2.225584 1_555
Li5 O3 2.345677 1_565
Li6 O2 1.982798 1_555
Li6 O0 2.029596 1_555
Li6 O5 2.120374 1_555
Li7 O3 1.981929 1_556
Li7 O1 2.028358 1_555
Li7 O4 2.121895 1_555
Li8 O0 1.860388 1_556
Li8 O2 1.935883 1_555
Li9 O1 1.859479 1_555
Li9 O3 1.935208 1_555
Li10 O0 1.875870 1_555
Li10 O4 2.166408 1_554
Li11 O1 1.875709 1_455
Li11 O5 2.163175 1_545
Li12 O2 1.957537 1_655
Li12 O4 1.965536 1_555
Li13 O3 1.957203 1_555
Li13 O5 1.966641 1_545
Co0 O1 1.942323 1_564
Co0 O5 2.006587 1_655
Co0 O3 2.014677 1_565
Co0 F4 2.253370 1_555
Co1 O0 1.942741 1_555
Co1 O4 2.007247 1_555
Co1 O2 2.014494 1_555
Co1 F5 2.255325 1_555
F0 Li0 1.844687 1_555
F0 Li13 1.862371 1_556
F0 Li2 1.879200 1_456
F0 Li4 2.036226 1_455
F1 Li1 1.844405 1_555
F1 Li12 1.860151 1_555
F1 Li3 1.878106 1_555
F1 Li5 2.037718 1_555
F2 Li2 1.876149 1_555
F2 Li9 1.880675 1_555
F2 Li10 1.885860 1_555
F2 Li4 1.967448 1_555
F3 Li3 1.876152 1_555
F3 Li8 1.879477 1_555
F3 Li11 1.886003 1_565
F3 Li5 1.966943 1_556
F4 Li10 1.891403 1_555
F4 Li8 1.902274 1_654
F4 Li6 2.025025 1_655
F4 Li12 2.069542 1_554
F5 Li11 1.893753 1_555
F5 Li9 1.903425 1_555
F5 Li7 2.027946 1_555
F5 Li13 2.066425 1_555
