# generated using pymatgen
data_Li3Fe2(PO4)3
_symmetry_space_group_name_H-M   'P 1'
_cell_length_a   9.05010392
_cell_length_b   8.41317413
_cell_length_c   8.41728451
_cell_angle_alpha   59.80761269
_cell_angle_beta   117.69662900
_cell_angle_gamma   117.68348093
_symmetry_Int_Tables_number   1
_chemical_formula_structural   Li3Fe2(PO4)3
_chemical_formula_sum   'Li6 Fe4 P6 O24'
_cell_volume   467.63481140
_cell_formula_units_Z   2
loop_
 _symmetry_equiv_pos_site_id
 _symmetry_equiv_pos_as_xyz
  1  'x, y, z'
loop_
 _atom_site_type_symbol
 _atom_site_label
 _atom_site_symmetry_multiplicity
 _atom_site_fract_x
 _atom_site_fract_y
 _atom_site_fract_z
 _atom_site_occupancy
  Li  Li0  1  0.85173400  0.66164200  0.91880800  1
  Li  Li1  1  0.85805400  0.26486800  0.67080200  1
  Li  Li2  1  0.61983800  0.80770200  0.25470300  1
  Li  Li3  1  0.13551900  0.07674200  0.73284800  1
  Li  Li4  1  0.13549600  0.73766300  0.32866500  1
  Li  Li5  1  0.13683400  0.32612500  0.07758100  1
  Fe  Fe0  1  0.95323900  0.65440000  0.64266400  1
  Fe  Fe1  1  0.55879800  0.85623700  0.84955400  1
  Fe  Fe2  1  0.43890700  0.14938600  0.14274200  1
  Fe  Fe3  1  0.04385100  0.34673500  0.34684300  1
  P  P0  1  0.75559000  0.25016700  0.96070900  1
  P  P1  1  0.74639800  0.95350300  0.54174300  1
  P  P2  1  0.74854600  0.54246400  0.24916000  1
  P  P3  1  0.24679100  0.45871900  0.74716300  1
  P  P4  1  0.25100900  0.04160700  0.46217900  1
  P  P5  1  0.24218800  0.75126800  0.03984900  1
  O  O0  1  0.80420700  0.46640700  0.82651800  1
  O  O1  1  0.73918400  0.12222700  0.86655200  1
  O  O2  1  0.58625600  0.19044000  0.00235400  1
  O  O3  1  0.89844400  0.15008200  0.53840500  1
  O  O4  1  0.72912800  0.85811900  0.74750500  1
  O  O5  1  0.79694500  0.82269800  0.50744800  1
  O  O6  1  0.80420100  0.50415800  0.46668100  1
  O  O7  1  0.90507600  0.55298800  0.20451000  1
  O  O8  1  0.91076300  0.22200400  0.15307600  1
  O  O9  1  0.41358500  0.61410500  0.80178900  1
  O  O10  1  0.26853000  0.25413200  0.87314000  1
  O  O11  1  0.42538300  0.01493500  0.61502400  1
  O  O12  1  0.57567600  0.98212100  0.38297000  1
  O  O13  1  0.71325600  0.74000100  0.12863100  1
  O  O14  1  0.58634800  0.38134100  0.20003600  1
  O  O15  1  0.09233300  0.79149400  0.84241300  1
  O  O16  1  0.09168600  0.45519600  0.78952200  1
  O  O17  1  0.19012300  0.49255900  0.53077100  1
  O  O18  1  0.19055200  0.16477700  0.49574200  1
  O  O19  1  0.26883100  0.13982900  0.25650700  1
  O  O20  1  0.10999800  0.83849000  0.47695400  1
  O  O21  1  0.41826700  0.80509400  0.01240800  1
  O  O22  1  0.25906700  0.87752900  0.13551500  1
  O  O23  1  0.19145100  0.53485100  0.16700000  1
loop_
_geom_bond_atom_site_label_1
_geom_bond_atom_site_label_2
_geom_bond_distance
_geom_bond_site_symmetry_2
Li0 O0 1.950067 1_555
Li0 O4 1.965290 1_555
Li0 O7 1.992904 1_556
Li0 O15 2.175534 1_655
Li1 O1 1.942079 1_555
Li1 O6 1.974008 1_555
Li1 O3 2.024179 1_555
Li1 O16 2.129018 1_655
Li2 O5 2.005797 1_555
Li2 O21 2.009251 1_555
Li2 O13 2.013624 1_555
Li2 O12 2.453222 1_555
Li3 O10 1.962841 1_555
Li3 O18 1.968318 1_555
Li3 O15 1.999994 1_545
Li3 O3 2.147765 1_455
Li4 O22 1.954921 1_555
Li4 O20 1.960968 1_555
Li4 O17 2.006928 1_555
Li4 O7 2.109864 1_455
Li5 O19 1.960836 1_555
Li5 O16 2.016990 1_554
Li5 O23 2.017814 1_555
Li5 O8 2.083394 1_455
Fe0 O20 1.995486 1_655
Fe0 O5 2.011090 1_555
Fe0 O6 2.013224 1_555
Fe0 O0 2.052284 1_555
Fe0 O16 2.081916 1_655
Fe0 O15 2.091851 1_655
Fe1 O11 1.941322 1_565
Fe1 O9 1.970686 1_555
Fe1 O21 2.049545 1_556
Fe1 O4 2.075774 1_555
Fe1 O13 2.082224 1_556
Fe1 O1 2.098523 1_565
Fe2 O14 1.936545 1_555
Fe2 O2 1.979978 1_555
Fe2 O12 2.007721 1_545
Fe2 O10 2.074212 1_554
Fe2 O19 2.114309 1_555
Fe2 O22 2.114922 1_545
Fe3 O8 1.983179 1_455
Fe3 O23 2.021466 1_555
Fe3 O18 2.022096 1_555
Fe3 O17 2.037307 1_555
Fe3 O3 2.082107 1_455
Fe3 O7 2.135190 1_455
O0 P0 1.559011 1_555
O1 P0 1.552071 1_555
O2 P0 1.526623 1_554
O3 P1 1.582439 1_545
O4 P1 1.550882 1_555
O5 P1 1.553612 1_555
O6 P2 1.552401 1_555
O7 P2 1.581386 1_555
O8 P0 1.568323 1_554
O9 P3 1.524737 1_555
O10 P3 1.552642 1_555
O11 P4 1.532089 1_555
O12 P1 1.527669 1_555
O13 P2 1.545754 1_555
O14 P2 1.521153 1_555
O15 P5 1.575215 1_556
O16 P3 1.585681 1_555
O17 P3 1.551592 1_555
O18 P4 1.554976 1_555
O19 P4 1.550081 1_555
O20 P4 1.572167 1_565
O21 P5 1.537595 1_555
O22 P5 1.547700 1_555
O23 P5 1.546430 1_555
