# generated using pymatgen
data_B10H13
_symmetry_space_group_name_H-M   'P 1'
_cell_length_a   10.72918400
_cell_length_b   10.86115300
_cell_length_c   14.80590200
_cell_angle_alpha   90.00000000
_cell_angle_beta   90.00000000
_cell_angle_gamma   90.00000000
_symmetry_Int_Tables_number   1
_chemical_formula_structural   B10H13
_chemical_formula_sum   'B80 H104'
_cell_volume   1725.35114083
_cell_formula_units_Z   8
loop_
 _symmetry_equiv_pos_site_id
 _symmetry_equiv_pos_as_xyz
  1  'x, y, z'
loop_
 _atom_site_type_symbol
 _atom_site_label
 _atom_site_symmetry_multiplicity
 _atom_site_fract_x
 _atom_site_fract_y
 _atom_site_fract_z
 _atom_site_occupancy
  B  B0  1  0.93198100  0.99125900  0.34355100  1
  B  B1  1  0.56801900  0.99125900  0.84355100  1
  B  B2  1  0.77342500  0.98623400  0.31529600  1
  B  B3  1  0.72657500  0.98623400  0.81529600  1
  B  B4  1  0.68432500  0.97611900  0.41656200  1
  B  B5  1  0.81567500  0.97611900  0.91656200  1
  B  B6  1  0.94784700  0.96665200  0.46267300  1
  B  B7  1  0.55215300  0.96665200  0.96267300  1
  B  B8  1  0.70519500  0.94356500  0.00316800  1
  B  B9  1  0.79480500  0.94356500  0.50316800  1
  B  B10  1  0.32206400  0.94306300  0.08155900  1
  B  B11  1  0.17793600  0.94306300  0.58155900  1
  B  B12  1  0.50031300  0.85292600  0.88315600  1
  B  B13  1  0.99968700  0.85292600  0.38315600  1
  B  B14  1  0.89125000  0.85198800  0.29172200  1
  B  B15  1  0.60875000  0.85198800  0.79172200  1
  B  B16  1  0.91180800  0.80959700  0.47987000  1
  B  B17  1  0.58819200  0.80959700  0.97987000  1
  B  B18  1  0.39570100  0.76730300  0.37400100  1
  B  B19  1  0.10429900  0.76730300  0.87400100  1
  B  B20  1  0.89570100  0.73269700  0.37400100  1
  B  B21  1  0.60429900  0.73269700  0.87400100  1
  B  B22  1  0.41180800  0.69040300  0.47987000  1
  B  B23  1  0.08819200  0.69040300  0.97987000  1
  B  B24  1  0.39125000  0.64801200  0.29172200  1
  B  B25  1  0.10875000  0.64801200  0.79172200  1
  B  B26  1  0.00031300  0.64707400  0.88315600  1
  B  B27  1  0.49968700  0.64707400  0.38315600  1
  B  B28  1  0.82206400  0.55693700  0.08155900  1
  B  B29  1  0.67793600  0.55693700  0.58155900  1
  B  B30  1  0.20519500  0.55643500  0.00316800  1
  B  B31  1  0.29480500  0.55643500  0.50316800  1
  B  B32  1  0.44784700  0.53334800  0.46267300  1
  B  B33  1  0.05215300  0.53334800  0.96267300  1
  B  B34  1  0.31567500  0.52388100  0.91656200  1
  B  B35  1  0.18432500  0.52388100  0.41656200  1
  B  B36  1  0.27342500  0.51376600  0.31529600  1
  B  B37  1  0.22657500  0.51376600  0.81529600  1
  B  B38  1  0.43198100  0.50874100  0.34355100  1
  B  B39  1  0.06801900  0.50874100  0.84355100  1
  B  B40  1  0.93198100  0.49125900  0.15644900  1
  B  B41  1  0.56801900  0.49125900  0.65644900  1
  B  B42  1  0.77342500  0.48623400  0.18470400  1
  B  B43  1  0.72657500  0.48623400  0.68470400  1
  B  B44  1  0.68432500  0.47611900  0.08343800  1
  B  B45  1  0.81567500  0.47611900  0.58343800  1
  B  B46  1  0.94784700  0.46665200  0.03732700  1
  B  B47  1  0.55215300  0.46665200  0.53732700  1
  B  B48  1  0.70519500  0.44356500  0.49683200  1
  B  B49  1  0.79480500  0.44356500  0.99683200  1
  B  B50  1  0.32206400  0.44306300  0.41844100  1
  B  B51  1  0.17793600  0.44306300  0.91844100  1
  B  B52  1  0.50031300  0.35292600  0.61684400  1
  B  B53  1  0.99968700  0.35292600  0.11684400  1
  B  B54  1  0.89125000  0.35198800  0.20827800  1
  B  B55  1  0.60875000  0.35198800  0.70827800  1
  B  B56  1  0.91180800  0.30959700  0.02013000  1
  B  B57  1  0.58819200  0.30959700  0.52013000  1
  B  B58  1  0.39570100  0.26730300  0.12599900  1
  B  B59  1  0.10429900  0.26730300  0.62599900  1
  B  B60  1  0.89570100  0.23269700  0.12599900  1
  B  B61  1  0.60429900  0.23269700  0.62599900  1
  B  B62  1  0.41180800  0.19040300  0.02013000  1
  B  B63  1  0.08819200  0.19040300  0.52013000  1
  B  B64  1  0.39125000  0.14801200  0.20827800  1
  B  B65  1  0.10875000  0.14801200  0.70827800  1
  B  B66  1  0.00031300  0.14707400  0.61684400  1
  B  B67  1  0.49968700  0.14707400  0.11684400  1
  B  B68  1  0.82206400  0.05693700  0.41844100  1
  B  B69  1  0.67793600  0.05693700  0.91844100  1
  B  B70  1  0.29480500  0.05643500  0.99683200  1
  B  B71  1  0.20519500  0.05643500  0.49683200  1
  B  B72  1  0.44784700  0.03334800  0.03732700  1
  B  B73  1  0.05215300  0.03334800  0.53732700  1
  B  B74  1  0.31567500  0.02388100  0.58343800  1
  B  B75  1  0.18432500  0.02388100  0.08343800  1
  B  B76  1  0.27342500  0.01376600  0.18470400  1
  B  B77  1  0.22657500  0.01376600  0.68470400  1
  B  B78  1  0.43198100  0.00874100  0.15644900  1
  B  B79  1  0.06801900  0.00874100  0.65644900  1
  H  H0  1  0.08015400  0.98916300  0.07143700  1
  H  H1  1  0.41984600  0.98916300  0.57143700  1
  H  H2  1  0.23123400  0.96278500  0.24924600  1
  H  H3  1  0.26876600  0.96278500  0.74924600  1
  H  H4  1  0.73550600  0.96181700  0.07970100  1
  H  H5  1  0.76449400  0.96181700  0.57970100  1
  H  H6  1  0.49397900  0.94111000  0.20168100  1
  H  H7  1  0.00602100  0.94111000  0.70168100  1
  H  H8  1  0.68407700  0.90869600  0.34029100  1
  H  H9  1  0.81592300  0.90869600  0.84029100  1
  H  H10  1  0.70054300  0.87800700  0.46990500  1
  H  H11  1  0.79945700  0.87800700  0.96990500  1
  H  H12  1  0.41215900  0.87362300  0.35934600  1
  H  H13  1  0.08784100  0.87362300  0.85934600  1
  H  H14  1  0.31899800  0.83454500  0.06879300  1
  H  H15  1  0.18100200  0.83454500  0.56879300  1
  H  H16  1  0.10841900  0.83327700  0.37317500  1
  H  H17  1  0.39158100  0.83327700  0.87317500  1
  H  H18  1  0.91654000  0.82817300  0.21505900  1
  H  H19  1  0.58346000  0.82817300  0.71505900  1
  H  H20  1  0.80695000  0.76879300  0.31528700  1
  H  H21  1  0.69305000  0.76879300  0.81528700  1
  H  H22  1  0.32097600  0.76034500  0.44615200  1
  H  H23  1  0.17902400  0.76034500  0.94615200  1
  H  H24  1  0.94859200  0.75143600  0.54292700  1
  H  H25  1  0.55140800  0.75143600  0.04292700  1
  H  H26  1  0.05140800  0.74856400  0.04292700  1
  H  H27  1  0.44859200  0.74856400  0.54292700  1
  H  H28  1  0.82097600  0.73965500  0.44615200  1
  H  H29  1  0.67902400  0.73965500  0.94615200  1
  H  H30  1  0.30695000  0.73120700  0.31528700  1
  H  H31  1  0.19305000  0.73120700  0.81528700  1
  H  H32  1  0.41654000  0.67182700  0.21505900  1
  H  H33  1  0.08346000  0.67182700  0.71505900  1
  H  H34  1  0.89158100  0.66672300  0.87317500  1
  H  H35  1  0.60841900  0.66672300  0.37317500  1
  H  H36  1  0.81899800  0.66545500  0.06879300  1
  H  H37  1  0.68100200  0.66545500  0.56879300  1
  H  H38  1  0.91215900  0.62637700  0.35934600  1
  H  H39  1  0.58784100  0.62637700  0.85934600  1
  H  H40  1  0.20054300  0.62199300  0.46990500  1
  H  H41  1  0.29945700  0.62199300  0.96990500  1
  H  H42  1  0.31592300  0.59130400  0.84029100  1
  H  H43  1  0.18407700  0.59130400  0.34029100  1
  H  H44  1  0.99397900  0.55889000  0.20168100  1
  H  H45  1  0.50602100  0.55889000  0.70168100  1
  H  H46  1  0.23550600  0.53818300  0.07970100  1
  H  H47  1  0.26449400  0.53818300  0.57970100  1
  H  H48  1  0.73123400  0.53721500  0.24924600  1
  H  H49  1  0.76876600  0.53721500  0.74924600  1
  H  H50  1  0.58015400  0.51083700  0.07143700  1
  H  H51  1  0.91984600  0.51083700  0.57143700  1
  H  H52  1  0.41984600  0.48916300  0.92856300  1
  H  H53  1  0.08015400  0.48916300  0.42856300  1
  H  H54  1  0.23123400  0.46278500  0.25075400  1
  H  H55  1  0.26876600  0.46278500  0.75075400  1
  H  H56  1  0.73550600  0.46181700  0.42029900  1
  H  H57  1  0.76449400  0.46181700  0.92029900  1
  H  H58  1  0.49397900  0.44111000  0.29831900  1
  H  H59  1  0.00602100  0.44111000  0.79831900  1
  H  H60  1  0.68407700  0.40869600  0.15970900  1
  H  H61  1  0.81592300  0.40869600  0.65970900  1
  H  H62  1  0.70054300  0.37800700  0.03009500  1
  H  H63  1  0.79945700  0.37800700  0.53009500  1
  H  H64  1  0.41215900  0.37362300  0.14065400  1
  H  H65  1  0.08784100  0.37362300  0.64065400  1
  H  H66  1  0.31899800  0.33454500  0.43120700  1
  H  H67  1  0.18100200  0.33454500  0.93120700  1
  H  H68  1  0.39158100  0.33327700  0.62682500  1
  H  H69  1  0.10841900  0.33327700  0.12682500  1
  H  H70  1  0.91654000  0.32817300  0.28494100  1
  H  H71  1  0.58346000  0.32817300  0.78494100  1
  H  H72  1  0.80695000  0.26879300  0.18471300  1
  H  H73  1  0.69305000  0.26879300  0.68471300  1
  H  H74  1  0.32097600  0.26034500  0.05384800  1
  H  H75  1  0.17902400  0.26034500  0.55384800  1
  H  H76  1  0.55140800  0.25143600  0.45707300  1
  H  H77  1  0.94859200  0.25143600  0.95707300  1
  H  H78  1  0.44859200  0.24856400  0.95707300  1
  H  H79  1  0.05140800  0.24856400  0.45707300  1
  H  H80  1  0.82097600  0.23965500  0.05384800  1
  H  H81  1  0.67902400  0.23965500  0.55384800  1
  H  H82  1  0.30695000  0.23120700  0.18471300  1
  H  H83  1  0.19305000  0.23120700  0.68471300  1
  H  H84  1  0.41654000  0.17182700  0.28494100  1
  H  H85  1  0.08346000  0.17182700  0.78494100  1
  H  H86  1  0.89158100  0.16672300  0.62682500  1
  H  H87  1  0.60841900  0.16672300  0.12682500  1
  H  H88  1  0.81899800  0.16545500  0.43120700  1
  H  H89  1  0.68100200  0.16545500  0.93120700  1
  H  H90  1  0.91215900  0.12637700  0.14065400  1
  H  H91  1  0.58784100  0.12637700  0.64065400  1
  H  H92  1  0.29945700  0.12199300  0.53009500  1
  H  H93  1  0.20054300  0.12199300  0.03009500  1
  H  H94  1  0.31592300  0.09130400  0.65970900  1
  H  H95  1  0.18407700  0.09130400  0.15970900  1
  H  H96  1  0.99397900  0.05889000  0.29831900  1
  H  H97  1  0.50602100  0.05889000  0.79831900  1
  H  H98  1  0.26449400  0.03818300  0.92029900  1
  H  H99  1  0.23550600  0.03818300  0.42029900  1
  H  H100  1  0.76876600  0.03721500  0.75075400  1
  H  H101  1  0.73123400  0.03721500  0.25075400  1
  H  H102  1  0.91984600  0.01083700  0.92856300  1
  H  H103  1  0.58015400  0.01083700  0.42856300  1
loop_
_geom_bond_atom_site_label_1
_geom_bond_atom_site_label_2
_geom_bond_distance
_geom_bond_site_symmetry_2
B0 H96 1.196051 1_565
B0 B6 1.791947 1_555
B1 H97 1.196051 1_565
B1 B7 1.791947 1_555
B2 H101 1.193603 1_565
B2 H8 1.328589 1_555
B3 H100 1.193603 1_565
B3 H9 1.328589 1_555
B4 H103 1.192873 1_565
B4 H10 1.337749 1_555
B4 H8 1.345915 1_555
B5 H102 1.192873 1_565
B5 H11 1.337749 1_555
B5 H9 1.345915 1_555
B6 B73 1.731735 1_665
B6 B9 1.765947 1_555
B6 B68 1.792134 1_565
B7 B72 1.731735 1_566
B7 B8 1.765947 1_556
B8 H4 1.195436 1_555
B8 H11 1.331307 1_554
B9 H5 1.195436 1_555
B9 H10 1.331307 1_555
B10 H14 1.194143 1_555
B10 B72 1.792134 1_565
B11 H15 1.194143 1_555
B11 B73 1.792134 1_565
B12 H17 1.195136 1_555
B12 B7 1.794757 1_555
B13 H16 1.195136 1_655
B13 B6 1.794757 1_555
B14 H18 1.195367 1_555
B14 H20 1.325247 1_555
B15 H19 1.195367 1_555
B15 H21 1.325247 1_555
B16 H24 1.194335 1_555
B16 H28 1.332685 1_555
B16 B6 1.767510 1_555
B17 H25 1.194335 1_556
B17 H29 1.332685 1_555
B17 B7 1.767510 1_555
B18 H12 1.188161 1_555
B18 H22 1.337788 1_555
B18 H30 1.347642 1_555
B19 H13 1.188161 1_555
B19 H23 1.337788 1_555
B19 H31 1.347642 1_555
B20 H38 1.188161 1_555
B20 H28 1.337788 1_555
B20 H20 1.347642 1_555
B21 H39 1.188161 1_555
B21 H29 1.337788 1_555
B21 H21 1.347642 1_555
B22 H27 1.194335 1_555
B22 H22 1.332685 1_555
B22 B32 1.767510 1_555
B23 H26 1.194335 1_556
B23 H23 1.332685 1_555
B23 B33 1.767510 1_555
B24 H32 1.195367 1_555
B24 H30 1.325247 1_555
B25 H33 1.195367 1_555
B25 H31 1.325247 1_555
B26 H34 1.195136 1_455
B26 B33 1.794757 1_555
B27 H35 1.195136 1_555
B27 B32 1.794757 1_555
B28 H36 1.194143 1_555
B28 B46 1.792134 1_555
B29 H37 1.194143 1_555
B29 B47 1.792134 1_555
B30 H46 1.195436 1_555
B30 H41 1.331307 1_554
B30 B33 1.765947 1_554
B31 H47 1.195436 1_555
B31 H40 1.331307 1_555
B31 B32 1.765947 1_555
B32 B47 1.731735 1_555
B32 B38 1.791947 1_555
B32 B50 1.792134 1_555
B33 B46 1.731735 1_456
B33 B39 1.791947 1_555
B33 B51 1.792134 1_555
B34 H52 1.192873 1_555
B34 H41 1.337749 1_555
B34 H42 1.345915 1_555
B35 H53 1.192873 1_555
B35 H40 1.337749 1_555
B35 H43 1.345915 1_555
B36 H54 1.193603 1_555
B36 H43 1.328589 1_555
B37 H55 1.193603 1_555
B37 H42 1.328589 1_555
B38 H58 1.196051 1_555
B39 H59 1.196051 1_555
B40 H44 1.196051 1_555
B40 B46 1.791947 1_555
B41 H45 1.196051 1_555
B41 B47 1.791947 1_555
B42 H48 1.193603 1_555
B42 H60 1.328589 1_555
B43 H49 1.193603 1_555
B43 H61 1.328589 1_555
B44 H50 1.192873 1_555
B44 H62 1.337749 1_555
B44 H60 1.345915 1_555
B45 H51 1.192873 1_555
B45 H63 1.337749 1_555
B45 H61 1.345915 1_555
B46 B49 1.765947 1_554
B46 B56 1.767510 1_555
B46 B53 1.794757 1_555
B47 B48 1.765947 1_555
B47 B57 1.767510 1_555
B47 B52 1.794757 1_555
B48 H56 1.195436 1_555
B48 H63 1.331307 1_555
B49 H57 1.195436 1_555
B49 H62 1.331307 1_556
B50 H66 1.194143 1_555
B51 H67 1.194143 1_555
B52 H68 1.195136 1_555
B53 H69 1.195136 1_655
B54 H70 1.195367 1_555
B54 H72 1.325247 1_555
B55 H71 1.195367 1_555
B55 H73 1.325247 1_555
B56 H77 1.194335 1_554
B56 H80 1.332685 1_555
B57 H76 1.194335 1_555
B57 H81 1.332685 1_555
B58 H64 1.188161 1_555
B58 H74 1.337788 1_555
B58 H82 1.347642 1_555
B59 H65 1.188161 1_555
B59 H75 1.337788 1_555
B59 H83 1.347642 1_555
B60 H90 1.188161 1_555
B60 H80 1.337788 1_555
B60 H72 1.347642 1_555
B61 H91 1.188161 1_555
B61 H81 1.337788 1_555
B61 H73 1.347642 1_555
B62 H78 1.194335 1_554
B62 H74 1.332685 1_555
B62 B72 1.767510 1_555
B63 H79 1.194335 1_555
B63 H75 1.332685 1_555
B63 B73 1.767510 1_555
B64 H84 1.195367 1_555
B64 H82 1.325247 1_555
B65 H85 1.195367 1_555
B65 H83 1.325247 1_555
B66 H86 1.195136 1_455
B66 B73 1.794757 1_555
B67 H87 1.195136 1_555
B67 B72 1.794757 1_555
B68 H88 1.194143 1_555
B69 H89 1.194143 1_555
B69 B7 1.792134 1_545
B70 H98 1.195436 1_555
B70 H93 1.331307 1_556
B70 B72 1.765947 1_556
B71 H99 1.195436 1_555
B71 H92 1.331307 1_555
B71 B73 1.765947 1_555
B72 B78 1.791947 1_555
B73 B79 1.791947 1_555
B74 H1 1.192873 1_545
B74 H92 1.337749 1_555
B74 H94 1.345915 1_555
B75 H0 1.192873 1_545
B75 H93 1.337749 1_555
B75 H95 1.345915 1_555
B76 H2 1.193603 1_545
B76 H95 1.328589 1_555
B77 H3 1.193603 1_545
B77 H94 1.328589 1_555
B78 H6 1.196051 1_545
B79 H7 1.196051 1_545
