# generated using pymatgen
data_Nb
_symmetry_space_group_name_H-M   'P 1'
_cell_length_a   5.74630941
_cell_length_b   5.74630725
_cell_length_c   5.74630580
_cell_angle_alpha   109.47120809
_cell_angle_beta   109.47120063
_cell_angle_gamma   109.47123820
_symmetry_Int_Tables_number   1
_chemical_formula_structural   Nb
_chemical_formula_sum   Nb8
_cell_volume   146.06453293
_cell_formula_units_Z   8
loop_
 _symmetry_equiv_pos_site_id
 _symmetry_equiv_pos_as_xyz
  1  'x, y, z'
loop_
 _atom_site_type_symbol
 _atom_site_label
 _atom_site_symmetry_multiplicity
 _atom_site_fract_x
 _atom_site_fract_y
 _atom_site_fract_z
 _atom_site_occupancy
  Nb  Nb0_0  1  0.00000000  0.00000000  0.00000000  1
  Nb  Nb0_1  1  0.00000000  0.00000000  0.50000000  1
  Nb  Nb0_2  1  0.00000000  0.50000000  0.00000000  1
  Nb  Nb0_3  1  0.00000000  0.50000000  0.50000000  1
  Nb  Nb0_4  1  0.50000000  0.00000000  0.00000000  1
  Nb  Nb0_5  1  0.50000000  0.00000000  0.50000000  1
  Nb  Nb0_6  1  0.50000000  0.50000000  0.00000000  1
  Nb  Nb0_7  1  0.50000000  0.50000000  0.50000000  1
loop_
_geom_bond_atom_site_label_1
_geom_bond_atom_site_label_2
_geom_bond_distance
_geom_bond_site_symmetry_2
Nb0_0 Nb0_1 2.873153 1_555
Nb0_0 Nb0_1 2.873153 1_554
Nb0_0 Nb0_2 2.873154 1_555
Nb0_0 Nb0_2 2.873154 1_545
Nb0_0 Nb0_7 2.873154 1_555
Nb0_0 Nb0_7 2.873154 1_444
Nb0_0 Nb0_4 2.873155 1_455
Nb0_0 Nb0_4 2.873155 1_555
Nb0_1 Nb0_3 2.873154 1_545
Nb0_1 Nb0_3 2.873154 1_555
Nb0_1 Nb0_6 2.873154 1_556
Nb0_1 Nb0_6 2.873154 1_445
Nb0_1 Nb0_5 2.873155 1_455
Nb0_1 Nb0_5 2.873155 1_555
Nb0_2 Nb0_3 2.873153 1_554
Nb0_2 Nb0_3 2.873153 1_555
Nb0_2 Nb0_5 2.873154 1_454
Nb0_2 Nb0_5 2.873154 1_565
Nb0_2 Nb0_6 2.873155 1_455
Nb0_2 Nb0_6 2.873155 1_555
Nb0_3 Nb0_4 2.873154 1_455
Nb0_3 Nb0_4 2.873154 1_566
Nb0_3 Nb0_7 2.873155 1_555
Nb0_3 Nb0_7 2.873155 1_455
Nb0_4 Nb0_5 2.873153 1_555
Nb0_4 Nb0_5 2.873153 1_554
Nb0_4 Nb0_6 2.873154 1_555
Nb0_4 Nb0_6 2.873154 1_545
Nb0_5 Nb0_7 2.873154 1_555
Nb0_5 Nb0_7 2.873154 1_545
Nb0_6 Nb0_7 2.873153 1_554
Nb0_6 Nb0_7 2.873153 1_555
