# generated using pymatgen
data_Li3Ti(PO4)2
_symmetry_space_group_name_H-M   'P 1'
_cell_length_a   18.02798200
_cell_length_b   4.99391200
_cell_length_c   7.83523351
_cell_angle_alpha   53.93623863
_cell_angle_beta   90.00000000
_cell_angle_gamma   90.00000000
_symmetry_Int_Tables_number   1
_chemical_formula_structural   Li3Ti(PO4)2
_chemical_formula_sum   'Li12 Ti4 P8 O32'
_cell_volume   570.22471705
_cell_formula_units_Z   4
loop_
 _symmetry_equiv_pos_site_id
 _symmetry_equiv_pos_as_xyz
  1  'x, y, z'
loop_
 _atom_site_type_symbol
 _atom_site_label
 _atom_site_symmetry_multiplicity
 _atom_site_fract_x
 _atom_site_fract_y
 _atom_site_fract_z
 _atom_site_occupancy
  Li  Li0  1  0.69884000  0.37934100  0.81064800  1
  Li  Li1  1  0.87747500  0.71502800  0.50395900  1
  Li  Li2  1  0.05080200  0.96546500  0.29329500  1
  Li  Li3  1  0.37747500  0.28497200  0.99604100  1
  Li  Li4  1  0.55080200  0.03453500  0.20670500  1
  Li  Li5  1  0.19884000  0.62065900  0.68935200  1
  Li  Li6  1  0.80116000  0.37934100  0.31064800  1
  Li  Li7  1  0.44919800  0.96546500  0.79329500  1
  Li  Li8  1  0.62252500  0.71502800  0.00395900  1
  Li  Li9  1  0.94919800  0.03453500  0.70670500  1
  Li  Li10  1  0.12252500  0.28497200  0.49604100  1
  Li  Li11  1  0.30116000  0.62065900  0.18935200  1
  Ti  Ti0  1  0.87316700  0.19393700  0.01139600  1
  Ti  Ti1  1  0.37316700  0.80606300  0.48860400  1
  Ti  Ti2  1  0.62683300  0.19393700  0.51139600  1
  Ti  Ti3  1  0.12683300  0.80606300  0.98860400  1
  P  P0  1  0.71457100  0.89620100  0.28581900  1
  P  P1  1  0.53635400  0.50280900  0.72626700  1
  P  P2  1  0.03635400  0.49719100  0.77373300  1
  P  P3  1  0.21457100  0.10379900  0.21418100  1
  P  P4  1  0.78542900  0.89620100  0.78581900  1
  P  P5  1  0.96364600  0.50280900  0.22626700  1
  P  P6  1  0.46364600  0.49719100  0.27373300  1
  P  P7  1  0.28542900  0.10379900  0.71418100  1
  O  O0  1  0.19881300  0.82319200  0.18501500  1
  O  O1  1  0.69172100  0.55319000  0.48980500  1
  O  O2  1  0.43974400  0.79972700  0.27574900  1
  O  O3  1  0.67186500  0.97104600  0.09488300  1
  O  O4  1  0.06584600  0.16830800  0.97582700  1
  O  O5  1  0.06620600  0.54286200  0.57756100  1
  O  O6  1  0.80045600  0.86995100  0.26042300  1
  O  O7  1  0.44893900  0.49518500  0.72657700  1
  O  O8  1  0.94893900  0.50481500  0.77342300  1
  O  O9  1  0.30045600  0.13004900  0.23957700  1
  O  O10  1  0.56620600  0.45713800  0.92243900  1
  O  O11  1  0.56584600  0.83169200  0.52417300  1
  O  O12  1  0.17186500  0.02895400  0.40511700  1
  O  O13  1  0.93974400  0.20027300  0.22425100  1
  O  O14  1  0.19172100  0.44681000  0.01019500  1
  O  O15  1  0.69881300  0.17680800  0.31498500  1
  O  O16  1  0.30118700  0.82319200  0.68501500  1
  O  O17  1  0.80827900  0.55319000  0.98980500  1
  O  O18  1  0.06025600  0.79972700  0.77574900  1
  O  O19  1  0.82813500  0.97104600  0.59488300  1
  O  O20  1  0.43415400  0.16830800  0.47582700  1
  O  O21  1  0.43379400  0.54286200  0.07756100  1
  O  O22  1  0.69954400  0.86995100  0.76042300  1
  O  O23  1  0.05106100  0.49518500  0.22657700  1
  O  O24  1  0.55106100  0.50481500  0.27342300  1
  O  O25  1  0.19954400  0.13004900  0.73957700  1
  O  O26  1  0.93379400  0.45713800  0.42243900  1
  O  O27  1  0.93415400  0.83169200  0.02417300  1
  O  O28  1  0.32813500  0.02895400  0.90511700  1
  O  O29  1  0.56025600  0.20027300  0.72425100  1
  O  O30  1  0.30827900  0.44681000  0.51019500  1
  O  O31  1  0.80118700  0.17680800  0.81498500  1
loop_
_geom_bond_atom_site_label_1
_geom_bond_atom_site_label_2
_geom_bond_distance
_geom_bond_site_symmetry_2
Li0 O3 2.001839 1_546
Li0 O31 2.094783 1_555
Li0 O1 2.126072 1_555
Li0 O22 2.241129 1_555
Li1 O19 2.001444 1_555
Li1 O26 2.016430 1_555
Li1 O6 2.104621 1_555
Li1 O8 2.147089 1_555
Li1 O13 2.383839 1_565
Li2 O5 1.989371 1_555
Li2 O4 2.078551 1_564
Li2 O13 2.220228 1_465
Li2 O23 2.375531 1_565
Li2 O12 2.441031 1_565
Li3 O28 2.001444 1_555
Li3 O21 2.016430 1_556
Li3 O9 2.104621 1_556
Li3 O7 2.147089 1_555
Li3 O2 2.383839 1_546
Li4 O10 1.989371 1_554
Li4 O11 2.078551 1_545
Li4 O2 2.220228 1_545
Li4 O24 2.375531 1_545
Li4 O3 2.441031 1_545
Li5 O12 2.001839 1_565
Li5 O16 2.094783 1_555
Li5 O14 2.126072 1_556
Li5 O25 2.241129 1_555
Li6 O19 2.001839 1_545
Li6 O15 2.094783 1_555
Li6 O17 2.126072 1_554
Li6 O6 2.241129 1_555
Li7 O21 1.989371 1_556
Li7 O20 2.078551 1_565
Li7 O29 2.220228 1_565
Li7 O7 2.375531 1_565
Li7 O28 2.441031 1_565
Li8 O3 2.001444 1_555
Li8 O10 2.016430 1_554
Li8 O22 2.104621 1_554
Li8 O24 2.147089 1_555
Li8 O29 2.383839 1_564
Li9 O26 1.989371 1_555
Li9 O27 2.078551 1_546
Li9 O18 2.220228 1_645
Li9 O8 2.375531 1_545
Li9 O19 2.441031 1_545
Li10 O12 2.001444 1_555
Li10 O5 2.016430 1_555
Li10 O25 2.104621 1_555
Li10 O23 2.147089 1_555
Li10 O18 2.383839 1_545
Li11 O28 2.001839 1_564
Li11 O0 2.094783 1_555
Li11 O30 2.126072 1_555
Li11 O9 2.241129 1_555
O0 P3 1.572793 1_565
O0 Ti3 2.052926 1_554
O1 P0 1.560462 1_555
O1 Ti2 2.063596 1_555
O2 P6 1.580082 1_555
O2 Ti1 2.070068 1_555
O3 P0 1.520594 1_555
O4 P2 1.557421 1_555
O4 Ti3 2.068378 1_545
O5 P2 1.513748 1_555
O6 P0 1.576333 1_555
O6 Ti0 2.103880 1_565
O7 P1 1.576343 1_555
O7 Ti1 2.084393 1_555
O8 P2 1.576343 1_655
O8 Ti0 2.084393 1_556
O9 P3 1.576333 1_555
O9 Ti1 2.103880 1_545
O10 P1 1.513748 1_555
O11 P1 1.557421 1_555
O11 Ti2 2.068378 1_565
O12 P3 1.520594 1_555
O13 P5 1.580082 1_555
O13 Ti0 2.070068 1_555
O14 P3 1.560462 1_555
O14 Ti3 2.063596 1_554
O15 P0 1.572793 1_545
O15 Ti2 2.052926 1_555
O16 P7 1.572793 1_565
O16 Ti1 2.052926 1_555
O17 P4 1.560462 1_555
O17 Ti0 2.063596 1_556
O18 P2 1.580082 1_555
O18 Ti3 2.070068 1_555
O19 P4 1.520594 1_555
O20 P6 1.557421 1_555
O20 Ti1 2.068378 1_545
O21 P6 1.513748 1_555
O22 P4 1.576333 1_555
O22 Ti2 2.103880 1_565
O23 P5 1.576343 1_455
O23 Ti3 2.084393 1_554
O24 P6 1.576343 1_555
O24 Ti2 2.084393 1_555
O25 P7 1.576333 1_555
O25 Ti3 2.103880 1_545
O26 P5 1.513748 1_555
O27 P5 1.557421 1_555
O27 Ti0 2.068378 1_565
O28 P7 1.520594 1_555
O29 P1 1.580082 1_555
O29 Ti2 2.070068 1_555
O30 P7 1.560462 1_555
O30 Ti1 2.063596 1_555
O31 P4 1.572793 1_545
O31 Ti0 2.052926 1_556
