# generated using pymatgen
data_LuTiO3
_symmetry_space_group_name_H-M   'P 1'
_cell_length_a   5.26457300
_cell_length_b   5.64799700
_cell_length_c   7.62027100
_cell_angle_alpha   90.00000000
_cell_angle_beta   90.00000000
_cell_angle_gamma   90.00000000
_symmetry_Int_Tables_number   1
_chemical_formula_structural   LuTiO3
_chemical_formula_sum   'Lu4 Ti4 O12'
_cell_volume   226.58336692
_cell_formula_units_Z   4
loop_
 _symmetry_equiv_pos_site_id
 _symmetry_equiv_pos_as_xyz
  1  'x, y, z'
loop_
 _atom_site_type_symbol
 _atom_site_label
 _atom_site_symmetry_multiplicity
 _atom_site_fract_x
 _atom_site_fract_y
 _atom_site_fract_z
 _atom_site_occupancy
  Lu  Lu0  1  0.97776700  0.42662800  0.75000000  1
  Lu  Lu1  1  0.52223300  0.92662800  0.75000000  1
  Lu  Lu2  1  0.47776700  0.07337200  0.25000000  1
  Lu  Lu3  1  0.02223300  0.57337200  0.25000000  1
  Ti  Ti0  1  0.00000000  0.00000000  0.00000000  1
  Ti  Ti1  1  0.00000000  0.00000000  0.50000000  1
  Ti  Ti2  1  0.50000000  0.50000000  0.00000000  1
  Ti  Ti3  1  0.50000000  0.50000000  0.50000000  1
  O  O0  1  0.13474200  0.05704900  0.75000000  1
  O  O1  1  0.18337300  0.30824500  0.06314600  1
  O  O2  1  0.18337300  0.30824500  0.43685400  1
  O  O3  1  0.31662700  0.80824500  0.43685400  1
  O  O4  1  0.31662700  0.80824500  0.06314600  1
  O  O5  1  0.36525800  0.55704900  0.75000000  1
  O  O6  1  0.63474200  0.44295100  0.25000000  1
  O  O7  1  0.68337300  0.19175500  0.93685400  1
  O  O8  1  0.68337300  0.19175500  0.56314600  1
  O  O9  1  0.81662700  0.69175500  0.56314600  1
  O  O10  1  0.81662700  0.69175500  0.93685400  1
  O  O11  1  0.86525800  0.94295100  0.25000000  1
loop_
_geom_bond_atom_site_label_1
_geom_bond_atom_site_label_2
_geom_bond_distance
_geom_bond_site_symmetry_2
Lu0 O5 2.168894 1_655
Lu0 O10 2.233700 1_555
Lu0 O9 2.233700 1_555
Lu0 O0 2.245018 1_655
Lu0 O7 2.487822 1_555
Lu0 O8 2.487822 1_555
Lu0 O1 2.704244 1_656
Lu0 O2 2.704244 1_655
Lu1 O0 2.168894 1_565
Lu1 O7 2.233700 1_565
Lu1 O8 2.233700 1_565
Lu1 O5 2.245018 1_555
Lu1 O10 2.487822 1_555
Lu1 O9 2.487822 1_555
Lu1 O4 2.704244 1_556
Lu1 O3 2.704244 1_555
Lu2 O11 2.168894 1_545
Lu2 O3 2.233700 1_545
Lu2 O4 2.233700 1_545
Lu2 O6 2.245018 1_555
Lu2 O2 2.487822 1_555
Lu2 O1 2.487822 1_555
Lu2 O8 2.704244 1_555
Lu2 O7 2.704244 1_554
Lu3 O6 2.168894 1_455
Lu3 O2 2.233700 1_555
Lu3 O1 2.233700 1_555
Lu3 O11 2.245018 1_455
Lu3 O3 2.487822 1_555
Lu3 O4 2.487822 1_555
Lu3 O9 2.704244 1_455
Lu3 O10 2.704244 1_454
O0 Ti1 2.058226 1_555
O0 Ti0 2.058226 1_556
O1 Ti2 2.045257 1_555
O1 Ti0 2.048040 1_555
O2 Ti3 2.045257 1_555
O2 Ti1 2.048040 1_555
O3 Ti1 2.045257 1_565
O3 Ti3 2.048040 1_555
O4 Ti0 2.045257 1_565
O4 Ti2 2.048040 1_555
O5 Ti2 2.058226 1_556
O5 Ti3 2.058226 1_555
O6 Ti3 2.058226 1_555
O6 Ti2 2.058226 1_555
O7 Ti0 2.045257 1_656
O7 Ti2 2.048040 1_556
O8 Ti1 2.045257 1_655
O8 Ti3 2.048040 1_555
O9 Ti3 2.045257 1_555
O9 Ti1 2.048040 1_665
O10 Ti2 2.045257 1_556
O10 Ti0 2.048040 1_666
O11 Ti0 2.058226 1_665
O11 Ti1 2.058226 1_665
