# generated using pymatgen
data_VF4
_symmetry_space_group_name_H-M   'P 1'
_cell_length_a   3.03508345
_cell_length_b   9.09756149
_cell_length_c   4.56563289
_cell_angle_alpha   90.00000000
_cell_angle_beta   90.02008941
_cell_angle_gamma   90.00000000
_symmetry_Int_Tables_number   1
_chemical_formula_structural   VF4
_chemical_formula_sum   'V2 F8'
_cell_volume   126.06560072
_cell_formula_units_Z   2
loop_
 _symmetry_equiv_pos_site_id
 _symmetry_equiv_pos_as_xyz
  1  'x, y, z'
loop_
 _atom_site_type_symbol
 _atom_site_label
 _atom_site_symmetry_multiplicity
 _atom_site_fract_x
 _atom_site_fract_y
 _atom_site_fract_z
 _atom_site_occupancy
  V  V0  1  0.00000000  0.50000000  0.50000000  1
  V  V1  1  0.00000000  0.00000000  0.00000000  1
  F  F0  1  0.00010674  0.85796654  0.74350161  1
  F  F1  1  0.00010674  0.64203346  0.24350161  1
  F  F2  1  0.49994579  0.08851428  0.80044958  1
  F  F3  1  0.50005421  0.58851428  0.69955042  1
  F  F4  1  0.49994579  0.41148572  0.30044958  1
  F  F5  1  0.50005421  0.91148572  0.19955042  1
  F  F6  1  -0.00010674  0.35796654  0.75649839  1
  F  F7  1  -0.00010674  0.14203346  0.25649839  1
loop_
_geom_bond_atom_site_label_1
_geom_bond_atom_site_label_2
_geom_bond_distance
_geom_bond_site_symmetry_2
F0 V1 1.743874 1_566
F1 V0 1.743874 1_555
F2 V1 1.944471 1_656
F2 V1 1.944713 1_556
F3 V0 1.944471 1_555
F3 V0 1.944713 1_655
F4 V0 1.944471 1_655
F4 V0 1.944713 1_555
F5 V1 1.944471 1_565
F5 V1 1.944713 1_665
F6 V0 1.743874 1_555
F7 V1 1.743874 1_555
