# generated using pymatgen
data_Li5Mn6(BO3)6
_symmetry_space_group_name_H-M   'P 1'
_cell_length_a   5.21508100
_cell_length_b   6.20539747
_cell_length_c   12.01105022
_cell_angle_alpha   84.79472150
_cell_angle_beta   78.48244683
_cell_angle_gamma   87.20282169
_symmetry_Int_Tables_number   1
_chemical_formula_structural   Li5Mn6(BO3)6
_chemical_formula_sum   'Li5 Mn6 B6 O18'
_cell_volume   379.11215865
_cell_formula_units_Z   1
loop_
 _symmetry_equiv_pos_site_id
 _symmetry_equiv_pos_as_xyz
  1  'x, y, z'
loop_
 _atom_site_type_symbol
 _atom_site_label
 _atom_site_symmetry_multiplicity
 _atom_site_fract_x
 _atom_site_fract_y
 _atom_site_fract_z
 _atom_site_occupancy
  Li  Li0  1  0.04240000  0.41806500  0.10027800  1
  Li  Li1  1  0.36150500  0.77237400  0.42377200  1
  Li  Li2  1  0.63057200  0.25178500  0.56405900  1
  Li  Li3  1  0.96678100  0.57762900  0.89893900  1
  Li  Li4  1  0.69780700  0.08712100  0.76812800  1
  Mn  Mn0  1  0.59747000  0.24680300  0.00285300  1
  Mn  Mn1  1  0.93861400  0.57783800  0.32997300  1
  Mn  Mn2  1  0.26144700  0.91338900  0.66798600  1
  Mn  Mn3  1  0.73893400  0.08490800  0.32682300  1
  Mn  Mn4  1  0.06573600  0.43017900  0.66537500  1
  Mn  Mn5  1  0.40302600  0.76301100  0.00484900  1
  B  B0  1  0.84461000  0.83393700  0.11239300  1
  B  B1  1  0.48688800  0.47929900  0.22397500  1
  B  B2  1  0.82329300  0.81793200  0.55118100  1
  B  B3  1  0.18420400  0.19903100  0.44472500  1
  B  B4  1  0.50891700  0.51874200  0.78155200  1
  B  B5  1  0.15183400  0.14608500  0.88888300  1
  O  O0  1  0.61719600  0.93646600  0.09070600  1
  O  O1  1  0.00380100  0.71934200  0.03061200  1
  O  O2  1  0.40362500  0.46062400  0.12179700  1
  O  O3  1  0.90368100  0.84364000  0.22093200  1
  O  O4  1  0.33249300  0.57116600  0.31388400  1
  O  O5  1  0.74376600  0.40322700  0.23142200  1
  O  O6  1  0.07373700  0.74090300  0.56284100  1
  O  O7  1  0.73359500  0.77985000  0.45273600  1
  O  O8  1  0.67331200  0.93900100  0.63315800  1
  O  O9  1  0.33205300  0.07880800  0.36541600  1
  O  O10  1  0.26143800  0.22604700  0.54767500  1
  O  O11  1  0.93117100  0.28521000  0.42916900  1
  O  O12  1  0.25948000  0.59893200  0.76928400  1
  O  O13  1  0.65672000  0.39863000  0.69889200  1
  O  O14  1  0.05649700  0.10999300  0.79214900  1
  O  O15  1  0.60045300  0.55456400  0.87984100  1
  O  O16  1  0.00960300  0.26951300  0.97106400  1
  O  O17  1  0.40211200  0.06494900  0.90018800  1
loop_
_geom_bond_atom_site_label_1
_geom_bond_atom_site_label_2
_geom_bond_distance
_geom_bond_site_symmetry_2
Li0 O16 1.915383 1_554
Li0 O5 1.980705 1_455
Li0 O2 1.985120 1_555
Li0 O1 1.995636 1_555
Li1 O4 1.929014 1_555
Li1 O9 1.975701 1_565
Li1 O6 2.012170 1_555
Li1 O7 2.042041 1_555
Li2 O13 1.959530 1_555
Li2 O10 1.989245 1_555
Li2 O11 2.020395 1_555
Li2 O8 2.060373 1_545
Li3 O1 1.924237 1_656
Li3 O12 1.950833 1_655
Li3 O15 1.982547 1_555
Li3 O16 2.047208 1_655
Li4 O14 1.962495 1_655
Li4 O8 1.963094 1_545
Li4 O17 1.979196 1_555
Li4 O13 2.052596 1_555
Mn0 O2 2.111821 1_555
Mn0 O16 2.115952 1_654
Mn0 O0 2.118468 1_545
Mn0 O17 2.167578 1_554
Mn0 O15 2.304830 1_554
Mn1 O4 2.023132 1_655
Mn1 O3 2.035442 1_555
Mn1 O11 2.077088 1_555
Mn1 O5 2.104342 1_555
Mn1 O7 2.112768 1_555
Mn2 O14 2.102666 1_565
Mn2 O8 2.115706 1_555
Mn2 O6 2.130746 1_555
Mn2 O12 2.203253 1_555
Mn2 O10 2.311655 1_565
Mn3 O9 2.081035 1_555
Mn3 O3 2.093059 1_545
Mn3 O5 2.190450 1_555
Mn3 O11 2.225341 1_555
Mn3 O7 2.310910 1_545
Mn4 O10 2.065753 1_555
Mn4 O13 2.105670 1_455
Mn4 O12 2.125818 1_555
Mn4 O6 2.189228 1_555
Mn4 O14 2.387403 1_555
Mn5 O0 2.061111 1_555
Mn5 O1 2.070374 1_555
Mn5 O15 2.143062 1_554
Mn5 O17 2.159859 1_564
Mn5 O2 2.239871 1_555
B0 O0 1.377987 1_555
B0 O1 1.379577 1_655
B0 O3 1.405171 1_555
B1 O4 1.363510 1_555
B1 O2 1.397027 1_555
B1 O5 1.415606 1_555
B2 O8 1.383844 1_555
B2 O6 1.397827 1_655
B2 O7 1.398274 1_555
B3 O9 1.355724 1_555
B3 O10 1.400878 1_555
B3 O11 1.440021 1_455
B4 O13 1.381300 1_555
B4 O15 1.397864 1_555
B4 O12 1.400557 1_555
B5 O16 1.378586 1_555
B5 O14 1.391434 1_555
B5 O17 1.403482 1_555
