# generated using pymatgen
data_V2OF5
_symmetry_space_group_name_H-M   'P 1'
_cell_length_a   8.43354412
_cell_length_b   8.45883632
_cell_length_c   4.56902689
_cell_angle_alpha   90.45054166
_cell_angle_beta   90.25856530
_cell_angle_gamma   59.97670418
_symmetry_Int_Tables_number   1
_chemical_formula_structural   V2OF5
_chemical_formula_sum   'V6 O3 F15'
_cell_volume   282.20166322
_cell_formula_units_Z   3
loop_
 _symmetry_equiv_pos_site_id
 _symmetry_equiv_pos_as_xyz
  1  'x, y, z'
loop_
 _atom_site_type_symbol
 _atom_site_label
 _atom_site_symmetry_multiplicity
 _atom_site_fract_x
 _atom_site_fract_y
 _atom_site_fract_z
 _atom_site_occupancy
  V  V0  1  0.00593500  0.65363000  0.98278700  1
  V  V1  1  0.34005500  0.98569100  0.98433200  1
  V  V2  1  0.34068100  0.67378600  0.51701100  1
  V  V3  1  0.00663900  0.34048800  0.51743700  1
  V  V4  1  0.66272400  0.32416500  0.01846500  1
  V  V5  1  0.66271500  0.01339000  0.47963900  1
  O  O0  1  0.41215700  0.79386400  0.74924200  1
  O  O1  1  0.07730500  0.46111700  0.74983700  1
  O  O2  1  0.59226000  0.20385200  0.25103700  1
  F  F0  1  0.23391200  0.88227000  0.24885600  1
  F  F1  1  0.11934400  0.76033900  0.74951500  1
  F  F2  1  0.21076400  0.57798900  0.24894800  1
  F  F3  1  0.54711600  0.90137900  0.25086500  1
  F  F4  1  0.54455800  0.54984600  0.24814300  1
  F  F5  1  0.45272000  0.44923700  0.75134100  1
  F  F6  1  0.11848900  0.11930600  0.74846300  1
  F  F7  1  0.21390100  0.21156100  0.25218300  1
  F  F8  1  0.78708700  0.79330400  0.74736400  1
  F  F9  1  0.88174000  0.87442900  0.24917600  1
  F  F10  1  0.90332600  0.54758200  0.24748900  1
  F  F11  1  0.78248900  0.42381300  0.74526300  1
  F  F12  1  0.45586100  0.09453400  0.75187000  1
  F  F13  1  0.88134500  0.24641500  0.24921300  1
  F  F14  1  0.76915800  0.11534000  0.75126200  1
loop_
_geom_bond_atom_site_label_1
_geom_bond_atom_site_label_2
_geom_bond_distance
_geom_bond_site_symmetry_2
O0 V2 1.763774 1_555
O0 V1 1.774137 1_555
O1 V3 1.763419 1_555
O1 V0 1.773306 1_555
O2 V5 1.761397 1_555
O2 V4 1.773689 1_555
F0 V1 1.958937 1_554
F0 V2 1.963905 1_555
F1 V0 1.937463 1_555
F1 V2 1.946022 1_555
F2 V0 1.938952 1_554
F2 V2 2.053769 1_555
F3 V1 1.946603 1_554
F3 V5 1.959683 1_565
F4 V2 1.938952 1_555
F4 V4 1.952644 1_555
F5 V4 1.967577 1_556
F5 V2 1.968192 1_555
F6 V3 1.939181 1_555
F6 V1 1.953974 1_545
F7 V3 1.950446 1_555
F7 V1 2.054475 1_544
F8 V0 1.944047 1_655
F8 V5 2.032852 1_565
F9 V5 1.930747 1_565
F9 V0 2.021122 1_654
F10 V0 1.954372 1_654
F10 V3 1.961131 1_655
F11 V3 1.956212 1_655
F11 V4 2.041751 1_556
F12 V1 1.963210 1_545
F12 V5 1.967097 1_555
F13 V4 1.929612 1_555
F13 V3 2.016455 1_655
F14 V4 1.950828 1_556
F14 V5 1.958971 1_555
