# generated using pymatgen
data_K2O
_symmetry_space_group_name_H-M   'P 1'
_cell_length_a   9.36386100
_cell_length_b   9.36386100
_cell_length_c   6.66570400
_cell_angle_alpha   90.00000000
_cell_angle_beta   90.00000000
_cell_angle_gamma   90.00000000
_symmetry_Int_Tables_number   1
_chemical_formula_structural   K2O
_chemical_formula_sum   'K16 O8'
_cell_volume   584.46154375
_cell_formula_units_Z   8
loop_
 _symmetry_equiv_pos_site_id
 _symmetry_equiv_pos_as_xyz
  1  'x, y, z'
loop_
 _atom_site_type_symbol
 _atom_site_label
 _atom_site_symmetry_multiplicity
 _atom_site_fract_x
 _atom_site_fract_y
 _atom_site_fract_z
 _atom_site_occupancy
  K  K0  1  0.24915000  0.24915000  0.50000000  1
  K  K1  1  0.75085000  0.24915000  0.50000000  1
  K  K2  1  0.00000000  0.50000000  0.96398600  1
  K  K3  1  0.50000000  0.50000000  0.24448700  1
  K  K4  1  0.00000000  0.50000000  0.46398600  1
  K  K5  1  0.50000000  0.50000000  0.75551300  1
  K  K6  1  0.24915000  0.75085000  0.50000000  1
  K  K7  1  0.75085000  0.75085000  0.50000000  1
  K  K8  1  0.74915000  0.74915000  0.00000000  1
  K  K9  1  0.25085000  0.74915000  0.00000000  1
  K  K10  1  0.00000000  0.00000000  0.25551300  1
  K  K11  1  0.00000000  0.00000000  0.74448700  1
  K  K12  1  0.50000000  0.00000000  0.03601400  1
  K  K13  1  0.50000000  0.00000000  0.53601400  1
  K  K14  1  0.74915000  0.25085000  0.00000000  1
  K  K15  1  0.25085000  0.25085000  0.00000000  1
  O  O0  1  0.00000000  0.26717000  0.72649000  1
  O  O1  1  0.76717000  0.50000000  0.22649000  1
  O  O2  1  0.23283000  0.50000000  0.22649000  1
  O  O3  1  0.00000000  0.73283000  0.72649000  1
  O  O4  1  0.50000000  0.76717000  0.77351000  1
  O  O5  1  0.26717000  0.00000000  0.27351000  1
  O  O6  1  0.73283000  0.00000000  0.27351000  1
  O  O7  1  0.50000000  0.23283000  0.77351000  1
loop_
_geom_bond_atom_site_label_1
_geom_bond_atom_site_label_2
_geom_bond_distance
_geom_bond_site_symmetry_2
K0 O5 2.783995 1_555
K0 O0 2.783995 1_555
K0 O2 2.977352 1_555
K0 O7 2.977352 1_555
K1 O0 2.783995 1_655
K1 O6 2.783995 1_555
K1 O1 2.977352 1_555
K1 O7 2.977352 1_555
K2 O0 2.694319 1_555
K2 O3 2.694319 1_555
K2 O1 2.795519 1_456
K2 O2 2.795519 1_556
K3 O2 2.504617 1_555
K3 O1 2.504617 1_555
K4 O1 2.694319 1_455
K4 O2 2.694319 1_555
K4 O0 2.795519 1_555
K4 O3 2.795519 1_555
K5 O7 2.504617 1_555
K5 O4 2.504617 1_555
K6 O5 2.783995 1_565
K6 O3 2.783995 1_555
K6 O2 2.977352 1_555
K6 O4 2.977352 1_555
K7 O6 2.783995 1_565
K7 O3 2.783995 1_655
K7 O1 2.977352 1_555
K7 O4 2.977352 1_555
K8 O1 2.783995 1_555
K8 O4 2.783995 1_554
K8 O3 2.977352 1_654
K8 O6 2.977352 1_565
K9 O4 2.783995 1_554
K9 O2 2.783995 1_555
K9 O5 2.977352 1_565
K9 O3 2.977352 1_554
K10 O6 2.504617 1_455
K10 O5 2.504617 1_555
K11 O3 2.504617 1_545
K11 O0 2.504617 1_555
K12 O5 2.694319 1_555
K12 O6 2.694319 1_555
K12 O4 2.795519 1_544
K12 O7 2.795519 1_554
K13 O4 2.694319 1_545
K13 O7 2.694319 1_555
K13 O5 2.795519 1_555
K13 O6 2.795519 1_555
K14 O1 2.783995 1_555
K14 O7 2.783995 1_554
K14 O0 2.977352 1_654
K14 O6 2.977352 1_555
K15 O7 2.783995 1_554
K15 O2 2.783995 1_555
K15 O0 2.977352 1_554
K15 O5 2.977352 1_555
