# generated using pymatgen
data_Li2NiP2O7
_symmetry_space_group_name_H-M   'P 1'
_cell_length_a   4.99833901
_cell_length_b   8.81515523
_cell_length_c   13.16293312
_cell_angle_alpha   81.89168886
_cell_angle_beta   79.04916760
_cell_angle_gamma   90.00832587
_symmetry_Int_Tables_number   1
_chemical_formula_structural   Li2NiP2O7
_chemical_formula_sum   'Li8 Ni4 P8 O28'
_cell_volume   563.50390862
_cell_formula_units_Z   4
loop_
 _symmetry_equiv_pos_site_id
 _symmetry_equiv_pos_as_xyz
  1  'x, y, z'
loop_
 _atom_site_type_symbol
 _atom_site_label
 _atom_site_symmetry_multiplicity
 _atom_site_fract_x
 _atom_site_fract_y
 _atom_site_fract_z
 _atom_site_occupancy
  Li  Li0  1  0.23824300  0.43648500  0.40872300  1
  Li  Li1  1  0.73827400  0.93657600  0.40861100  1
  Li  Li2  1  0.90094600  0.31179200  0.09170300  1
  Li  Li3  1  0.40109000  0.81182700  0.09156500  1
  Li  Li4  1  0.60254600  0.18478800  0.90838500  1
  Li  Li5  1  0.10274100  0.68487300  0.90845800  1
  Li  Li6  1  0.26128800  0.06447800  0.59164100  1
  Li  Li7  1  0.76131100  0.56423400  0.59148600  1
  Ni  Ni0  1  0.25008600  0.75069700  0.49979000  1
  Ni  Ni1  1  0.00192600  0.99831100  0.00008600  1
  Ni  Ni2  1  0.75030200  0.25042800  0.50035600  1
  Ni  Ni3  1  0.50155300  0.49839800  0.00020200  1
  P  P0  1  0.22400000  0.39030400  0.63036900  1
  P  P1  1  0.72380100  0.89030700  0.63003900  1
  P  P2  1  0.10284000  0.35866400  0.87041500  1
  P  P3  1  0.60342600  0.85863800  0.87016000  1
  P  P4  1  0.40021800  0.13774300  0.13023300  1
  P  P5  1  0.90027500  0.63775400  0.13019600  1
  P  P6  1  0.27673500  0.11016900  0.37019500  1
  P  P7  1  0.77671900  0.61012500  0.37013700  1
  O  O0  1  0.06782900  0.37456600  0.75035000  1
  O  O1  1  0.56829100  0.87417700  0.75012800  1
  O  O2  1  0.43406800  0.12250600  0.25051100  1
  O  O3  1  0.93409000  0.62251600  0.25045300  1
  O  O4  1  0.28476000  0.49289300  0.88193400  1
  O  O5  1  0.78517800  0.99284100  0.88170600  1
  O  O6  1  0.41730500  0.25610800  0.61926700  1
  O  O7  1  0.91675100  0.75607500  0.61832300  1
  O  O8  1  0.08434500  0.24489800  0.38069500  1
  O  O9  1  0.58444300  0.74489200  0.38058900  1
  O  O10  1  0.21983400  0.00308000  0.11852900  1
  O  O11  1  0.71973200  0.50306000  0.11852700  1
  O  O12  1  0.80753800  0.36849300  0.92807200  1
  O  O13  1  0.30820500  0.86842600  0.92782000  1
  O  O14  1  0.98792900  0.38014200  0.57210800  1
  O  O15  1  0.48737600  0.88046100  0.57192000  1
  O  O16  1  0.51272900  0.12040200  0.42853900  1
  O  O17  1  0.01269700  0.62028200  0.42842300  1
  O  O18  1  0.69537500  0.12831600  0.07250700  1
  O  O19  1  0.19537200  0.62834500  0.07249100  1
  O  O20  1  0.62859700  0.45310100  0.40146500  1
  O  O21  1  0.12874300  0.95318700  0.40140100  1
  O  O22  1  0.28421600  0.29495200  0.09928300  1
  O  O23  1  0.78428100  0.79488100  0.09921200  1
  O  O24  1  0.21881700  0.20123500  0.90106500  1
  O  O25  1  0.71952600  0.70108400  0.90081900  1
  O  O26  1  0.87002200  0.04792400  0.59974400  1
  O  O27  1  0.37002500  0.54798700  0.59976100  1
loop_
_geom_bond_atom_site_label_1
_geom_bond_atom_site_label_2
_geom_bond_distance
_geom_bond_site_symmetry_2
Li0 O20 1.939744 1_555
Li0 O8 1.965533 1_555
Li0 O17 1.992786 1_555
Li0 O14 2.261295 1_455
Li1 O21 1.940410 1_655
Li1 O9 1.966117 1_555
Li1 O16 1.993410 1_565
Li1 O15 2.261399 1_555
Li2 O22 1.941771 1_655
Li2 O11 1.958250 1_555
Li2 O18 1.987197 1_555
Li2 O12 2.277144 1_554
Li3 O23 1.941644 1_555
Li3 O10 1.958618 1_565
Li3 O19 1.987093 1_555
Li3 O13 2.277494 1_554
Li4 O24 1.943042 1_555
Li4 O5 1.966192 1_545
Li4 O12 1.989520 1_555
Li4 O18 2.282027 1_556
Li5 O25 1.941298 1_455
Li5 O4 1.964701 1_555
Li5 O13 1.988217 1_555
Li5 O19 2.280572 1_556
Li6 O26 1.942584 1_455
Li6 O6 1.968390 1_555
Li6 O15 1.995903 1_545
Li6 O16 2.260056 1_555
Li7 O27 1.942172 1_555
Li7 O7 1.964863 1_555
Li7 O14 1.997275 1_555
Li7 O17 2.259627 1_655
Ni0 O7 2.060533 1_455
Ni0 O9 2.069759 1_555
Ni0 O17 2.083209 1_555
Ni0 O15 2.085777 1_555
Ni0 O21 2.208598 1_555
Ni0 O27 2.218293 1_555
Ni1 O5 2.065594 1_454
Ni1 O10 2.069389 1_565
Ni1 O13 2.076981 1_554
Ni1 O18 2.079324 1_465
Ni1 O24 2.208810 1_564
Ni1 O23 2.214007 1_455
Ni2 O6 2.062784 1_555
Ni2 O8 2.072091 1_655
Ni2 O14 2.083427 1_555
Ni2 O16 2.085483 1_555
Ni2 O26 2.212495 1_555
Ni2 O20 2.213939 1_555
Ni3 O4 2.064520 1_554
Ni3 O11 2.068848 1_555
Ni3 O12 2.075426 1_554
Ni3 O19 2.077119 1_555
Ni3 O25 2.211166 1_554
Ni3 O22 2.213300 1_555
O0 P2 1.609519 1_555
O0 P0 1.610141 1_555
O1 P3 1.609440 1_555
O1 P1 1.610228 1_555
O2 P6 1.610300 1_555
O2 P4 1.610906 1_555
O3 P7 1.610324 1_555
O3 P5 1.610580 1_555
O4 P2 1.533809 1_555
O5 P3 1.533230 1_555
O6 P0 1.532889 1_555
O7 P1 1.532759 1_555
O8 P6 1.533136 1_555
O9 P7 1.533001 1_555
O10 P4 1.532923 1_555
O11 P5 1.533473 1_555
O12 P2 1.534636 1_655
O13 P3 1.534252 1_555
O14 P0 1.533492 1_655
O15 P1 1.533444 1_555
O16 P6 1.533956 1_555
O17 P7 1.533300 1_455
O18 P4 1.533854 1_555
O19 P5 1.533485 1_455
O20 P7 1.535208 1_555
O21 P6 1.534529 1_565
O22 P4 1.534072 1_555
O23 P5 1.533523 1_555
O24 P2 1.534876 1_555
O25 P3 1.536119 1_555
O26 P1 1.535038 1_545
O27 P0 1.535303 1_555
