# generated using pymatgen
data_Li2Fe2Si2O9
_symmetry_space_group_name_H-M   'P 1'
_cell_length_a   5.17122700
_cell_length_b   8.51799900
_cell_length_c   14.27181800
_cell_angle_alpha   90.00000000
_cell_angle_beta   90.00000000
_cell_angle_gamma   90.00000000
_symmetry_Int_Tables_number   1
_chemical_formula_structural   Li2Fe2Si2O9
_chemical_formula_sum   'Li8 Fe8 Si8 O36'
_cell_volume   628.65226672
_cell_formula_units_Z   4
loop_
 _symmetry_equiv_pos_site_id
 _symmetry_equiv_pos_as_xyz
  1  'x, y, z'
loop_
 _atom_site_type_symbol
 _atom_site_label
 _atom_site_symmetry_multiplicity
 _atom_site_fract_x
 _atom_site_fract_y
 _atom_site_fract_z
 _atom_site_occupancy
  Li  Li0  1  0.87542000  0.45378800  0.65834900  1
  Li  Li1  1  0.37542000  0.04621200  0.65834900  1
  Li  Li2  1  0.37542000  0.95378800  0.84165100  1
  Li  Li3  1  0.87542000  0.54621200  0.84165100  1
  Li  Li4  1  0.12458000  0.45378800  0.15834900  1
  Li  Li5  1  0.62458000  0.04621200  0.15834900  1
  Li  Li6  1  0.62458000  0.95378800  0.34165100  1
  Li  Li7  1  0.12458000  0.54621200  0.34165100  1
  Fe  Fe0  1  0.87990400  0.84551600  0.66942800  1
  Fe  Fe1  1  0.37990400  0.65448400  0.66942800  1
  Fe  Fe2  1  0.37990400  0.34551600  0.83057200  1
  Fe  Fe3  1  0.87990400  0.15448400  0.83057200  1
  Fe  Fe4  1  0.12009600  0.84551600  0.16942800  1
  Fe  Fe5  1  0.62009600  0.65448400  0.16942800  1
  Fe  Fe6  1  0.62009600  0.34551600  0.33057200  1
  Fe  Fe7  1  0.12009600  0.15448400  0.33057200  1
  Si  Si0  1  0.28665000  0.34531500  0.52836400  1
  Si  Si1  1  0.78665000  0.15468500  0.52836400  1
  Si  Si2  1  0.78665000  0.84531500  0.97163600  1
  Si  Si3  1  0.28665000  0.65468500  0.97163600  1
  Si  Si4  1  0.71335000  0.34531500  0.02836400  1
  Si  Si5  1  0.21335000  0.15468500  0.02836400  1
  Si  Si6  1  0.21335000  0.84531500  0.47163600  1
  Si  Si7  1  0.71335000  0.65468500  0.47163600  1
  O  O0  1  0.06223100  0.22441700  0.56775300  1
  O  O1  1  0.56223100  0.27558300  0.56775300  1
  O  O2  1  0.72332200  0.98778100  0.57746500  1
  O  O3  1  0.22332200  0.51221900  0.57746500  1
  O  O4  1  0.20876300  0.84492600  0.58746400  1
  O  O5  1  0.70876300  0.65507400  0.58746400  1
  O  O6  1  0.05479800  0.67750100  0.73284000  1
  O  O7  1  0.55479800  0.82249900  0.73284000  1
  O  O8  1  0.53497100  0.50000000  0.75000000  1
  O  O9  1  0.03497100  0.00000000  0.75000000  1
  O  O10  1  0.05479800  0.32249900  0.76716000  1
  O  O11  1  0.55479800  0.17750100  0.76716000  1
  O  O12  1  0.70876300  0.34492600  0.91253600  1
  O  O13  1  0.20876300  0.15507400  0.91253600  1
  O  O14  1  0.22332200  0.48778100  0.92253500  1
  O  O15  1  0.72332200  0.01221900  0.92253500  1
  O  O16  1  0.06223100  0.77558300  0.93224700  1
  O  O17  1  0.56223100  0.72441700  0.93224700  1
  O  O18  1  0.43776900  0.27558300  0.06775300  1
  O  O19  1  0.93776900  0.22441700  0.06775300  1
  O  O20  1  0.27667800  0.98778100  0.07746500  1
  O  O21  1  0.77667800  0.51221900  0.07746500  1
  O  O22  1  0.79123700  0.84492600  0.08746400  1
  O  O23  1  0.29123700  0.65507400  0.08746400  1
  O  O24  1  0.44520200  0.82249900  0.23284000  1
  O  O25  1  0.94520200  0.67750100  0.23284000  1
  O  O26  1  0.46502900  0.50000000  0.25000000  1
  O  O27  1  0.96502900  0.00000000  0.25000000  1
  O  O28  1  0.94520200  0.32249900  0.26716000  1
  O  O29  1  0.44520200  0.17750100  0.26716000  1
  O  O30  1  0.29123700  0.34492600  0.41253600  1
  O  O31  1  0.79123700  0.15507400  0.41253600  1
  O  O32  1  0.77667800  0.48778100  0.42253500  1
  O  O33  1  0.27667800  0.01221900  0.42253500  1
  O  O34  1  0.93776900  0.77558300  0.43224700  1
  O  O35  1  0.43776900  0.72441700  0.43224700  1
loop_
_geom_bond_atom_site_label_1
_geom_bond_atom_site_label_2
_geom_bond_distance
_geom_bond_site_symmetry_2
Li0 O10 2.126660 1_655
Li0 O5 2.169305 1_555
Li0 O3 2.194758 1_655
Li0 O8 2.228313 1_555
Li0 O6 2.371063 1_655
Li0 O0 2.534220 1_655
Li0 O1 2.568843 1_555
Li1 O11 2.126660 1_555
Li1 O4 2.169305 1_545
Li1 O2 2.194758 1_545
Li1 O9 2.228313 1_555
Li1 O7 2.371063 1_545
Li1 O1 2.534220 1_555
Li1 O0 2.568843 1_555
Li2 O7 2.126660 1_555
Li2 O13 2.169305 1_565
Li2 O15 2.194758 1_565
Li2 O9 2.228313 1_565
Li2 O11 2.371063 1_565
Li2 O17 2.534220 1_555
Li2 O16 2.568843 1_555
Li3 O6 2.126660 1_655
Li3 O12 2.169305 1_555
Li3 O14 2.194758 1_655
Li3 O8 2.228313 1_555
Li3 O10 2.371063 1_655
Li3 O16 2.534220 1_655
Li3 O17 2.568843 1_555
Li4 O28 2.126660 1_455
Li4 O23 2.169305 1_555
Li4 O21 2.194758 1_455
Li4 O26 2.228313 1_555
Li4 O25 2.371063 1_455
Li4 O19 2.534220 1_455
Li4 O18 2.568843 1_555
Li5 O29 2.126660 1_555
Li5 O22 2.169305 1_545
Li5 O20 2.194758 1_545
Li5 O27 2.228313 1_555
Li5 O24 2.371063 1_545
Li5 O18 2.534220 1_555
Li5 O19 2.568843 1_555
Li6 O24 2.126660 1_555
Li6 O31 2.169305 1_565
Li6 O33 2.194758 1_565
Li6 O27 2.228313 1_565
Li6 O29 2.371063 1_565
Li6 O35 2.534220 1_555
Li6 O34 2.568843 1_555
Li7 O25 2.126660 1_455
Li7 O30 2.169305 1_555
Li7 O32 2.194758 1_455
Li7 O26 2.228313 1_555
Li7 O28 2.371063 1_455
Li7 O34 2.534220 1_455
Li7 O35 2.568843 1_555
Fe0 O7 1.919348 1_555
Fe0 O6 1.919687 1_655
Fe0 O9 1.922730 1_665
Fe0 O2 1.961311 1_555
Fe0 O4 2.064087 1_655
Fe0 O5 2.187030 1_555
Fe1 O6 1.919348 1_555
Fe1 O7 1.919687 1_555
Fe1 O8 1.922730 1_555
Fe1 O3 1.961311 1_555
Fe1 O5 2.064087 1_555
Fe1 O4 2.187030 1_555
Fe2 O10 1.919348 1_555
Fe2 O11 1.919687 1_555
Fe2 O8 1.922730 1_555
Fe2 O14 1.961311 1_555
Fe2 O12 2.064087 1_555
Fe2 O13 2.187030 1_555
Fe3 O11 1.919348 1_555
Fe3 O10 1.919687 1_655
Fe3 O9 1.922730 1_655
Fe3 O15 1.961311 1_555
Fe3 O13 2.064087 1_655
Fe3 O12 2.187030 1_555
Fe4 O24 1.919348 1_555
Fe4 O25 1.919687 1_455
Fe4 O27 1.922730 1_465
Fe4 O20 1.961311 1_555
Fe4 O22 2.064087 1_455
Fe4 O23 2.187030 1_555
Fe5 O25 1.919348 1_555
Fe5 O24 1.919687 1_555
Fe5 O26 1.922730 1_555
Fe5 O21 1.961311 1_555
Fe5 O23 2.064087 1_555
Fe5 O22 2.187030 1_555
Fe6 O28 1.919348 1_555
Fe6 O29 1.919687 1_555
Fe6 O26 1.922730 1_555
Fe6 O32 1.961311 1_555
Fe6 O30 2.064087 1_555
Fe6 O31 2.187030 1_555
Fe7 O29 1.919348 1_555
Fe7 O28 1.919687 1_455
Fe7 O27 1.922730 1_455
Fe7 O33 1.961311 1_555
Fe7 O31 2.064087 1_455
Fe7 O30 2.187030 1_555
O0 Si1 1.643080 1_455
O0 Si0 1.650252 1_555
O1 Si0 1.643080 1_555
O1 Si1 1.650252 1_555
O2 Si1 1.618489 1_565
O3 Si0 1.618489 1_555
O4 Si6 1.653250 1_555
O5 Si7 1.653250 1_555
O12 Si4 1.653250 1_556
O13 Si5 1.653250 1_556
O14 Si3 1.618489 1_555
O15 Si2 1.618489 1_545
O16 Si2 1.643080 1_455
O16 Si3 1.650252 1_555
O17 Si3 1.643080 1_555
O17 Si2 1.650252 1_555
O18 Si4 1.643080 1_555
O18 Si5 1.650252 1_555
O19 Si5 1.643080 1_655
O19 Si4 1.650252 1_555
O20 Si5 1.618489 1_565
O21 Si4 1.618489 1_555
O22 Si2 1.653250 1_554
O23 Si3 1.653250 1_554
O30 Si0 1.653250 1_555
O31 Si1 1.653250 1_555
O32 Si7 1.618489 1_555
O33 Si6 1.618489 1_545
O34 Si6 1.643080 1_655
O34 Si7 1.650252 1_555
O35 Si7 1.643080 1_555
O35 Si6 1.650252 1_555
