# generated using pymatgen
data_Li35(RuO4)12
_symmetry_space_group_name_H-M   'P 1'
_cell_length_a   10.32545929
_cell_length_b   10.32545929
_cell_length_c   9.88080740
_cell_angle_alpha   69.05802372
_cell_angle_beta   69.05802372
_cell_angle_gamma   70.50730924
_symmetry_Int_Tables_number   1
_chemical_formula_structural   Li35(RuO4)12
_chemical_formula_sum   'Li35 Ru12 O48'
_cell_volume   892.88831711
_cell_formula_units_Z   1
loop_
 _symmetry_equiv_pos_site_id
 _symmetry_equiv_pos_as_xyz
  1  'x, y, z'
loop_
 _atom_site_type_symbol
 _atom_site_label
 _atom_site_symmetry_multiplicity
 _atom_site_fract_x
 _atom_site_fract_y
 _atom_site_fract_z
 _atom_site_occupancy
  Li  Li0  1  0.90039900  0.76583000  0.16689600  1
  Li  Li1  1  0.76564800  0.90036600  0.66763500  1
  Li  Li2  1  0.94029500  0.56172700  0.00072200  1
  Li  Li3  1  0.56036300  0.93954100  0.49956200  1
  Li  Li4  1  0.73223900  0.59349400  0.83520300  1
  Li  Li5  1  0.96700600  0.35944600  0.83771500  1
  Li  Li6  1  0.47396500  0.85921400  0.83321100  1
  Li  Li7  1  0.85894300  0.47382800  0.33300700  1
  Li  Li8  1  0.59912800  0.73379500  0.33237100  1
  Li  Li9  1  0.35988800  0.97342400  0.33428600  1
  Li  Li10  1  0.89101500  0.27248100  0.16389900  1
  Li  Li11  1  0.39369400  0.77255700  0.16689900  1
  Li  Li12  1  0.77209900  0.39219000  0.67304200  1
  Li  Li13  1  0.27330100  0.89380400  0.66595300  1
  Li  Li14  1  0.92725200  0.07274800  0.00000000  1
  Li  Li15  1  0.19309500  0.80690500  0.00000000  1
  Li  Li16  1  0.43615700  0.56384300  0.00000000  1
  Li  Li17  1  0.06799100  0.93200900  0.50000000  1
  Li  Li18  1  0.80681000  0.19319000  0.50000000  1
  Li  Li19  1  0.56745800  0.43254200  0.50000000  1
  Li  Li20  1  0.30771300  0.69228700  0.50000000  1
  Li  Li21  1  0.72751900  0.10898500  0.83610100  1
  Li  Li22  1  0.22744300  0.60630600  0.83310100  1
  Li  Li23  1  0.10619600  0.72669900  0.33404700  1
  Li  Li24  1  0.60781000  0.22790100  0.32695800  1
  Li  Li25  1  0.64055400  0.03299400  0.16228500  1
  Li  Li26  1  0.40650600  0.26776100  0.16479700  1
  Li  Li27  1  0.14078600  0.52603500  0.16678900  1
  Li  Li28  1  0.52617200  0.14105700  0.66699300  1
  Li  Li29  1  0.02657600  0.64011200  0.66571400  1
  Li  Li30  1  0.26620500  0.40087200  0.66762900  1
  Li  Li31  1  0.43827300  0.05970500  0.99927800  1
  Li  Li32  1  0.06045900  0.43963700  0.50043800  1
  Li  Li33  1  0.23417000  0.09960100  0.83310400  1
  Li  Li34  1  0.09963400  0.23435200  0.33236500  1
  Ru  Ru0  1  0.98813200  0.84549500  0.83310200  1
  Ru  Ru1  1  0.84614700  0.98628200  0.33586700  1
  Ru  Ru2  1  0.67855000  0.82082200  0.00069700  1
  Ru  Ru3  1  0.82114600  0.67758100  0.50097400  1
  Ru  Ru4  1  0.65564600  0.51004500  0.16447700  1
  Ru  Ru5  1  0.51065300  0.65544500  0.66571200  1
  Ru  Ru6  1  0.48995500  0.34435400  0.83552300  1
  Ru  Ru7  1  0.34455500  0.48934700  0.33428800  1
  Ru  Ru8  1  0.17917800  0.32145000  0.99930300  1
  Ru  Ru9  1  0.32241900  0.17885400  0.49902600  1
  Ru  Ru10  1  0.15450500  0.01186800  0.16689800  1
  Ru  Ru11  1  0.01371700  0.15385300  0.66413300  1
  O  O0  1  0.81331400  0.92621600  0.99354800  1
  O  O1  1  0.85314800  0.74140000  0.84009000  1
  O  O2  1  0.92735000  0.80987600  0.49636300  1
  O  O3  1  0.60662600  0.96553200  0.84305800  1
  O  O4  1  0.74162100  0.85164000  0.34164900  1
  O  O5  1  0.96657100  0.60617900  0.34306100  1
  O  O6  1  0.53328500  0.89327700  0.15705600  1
  O  O7  1  0.75843700  0.64792400  0.16038100  1
  O  O8  1  0.89255000  0.53137100  0.65858300  1
  O  O9  1  0.57392500  0.68578800  0.00645600  1
  O  O10  1  0.64671400  0.75908300  0.65974300  1
  O  O11  1  0.80517800  0.44661100  0.01021000  1
  O  O12  1  0.29989200  0.94025200  0.00925400  1
  O  O13  1  0.68596200  0.57451700  0.50589200  1
  O  O14  1  0.87205900  0.22357600  0.81900400  1
  O  O15  1  0.36627900  0.72772200  0.82314100  1
  O  O16  1  0.94132400  0.29940600  0.50747100  1
  O  O17  1  0.43954600  0.80171900  0.50718900  1
  O  O18  1  0.09373400  0.97954400  0.82549000  1
  O  O19  1  0.59001100  0.48411000  0.82260300  1
  O  O20  1  0.22688900  0.86648700  0.32374700  1
  O  O21  1  0.72656300  0.36595800  0.32306900  1
  O  O22  1  0.98122000  0.09194700  0.32761800  1
  O  O23  1  0.47939200  0.59297200  0.32719900  1
  O  O24  1  0.51589000  0.40998900  0.17739700  1
  O  O25  1  0.02045600  0.90626600  0.17451000  1
  O  O26  1  0.77642400  0.12794100  0.18099600  1
  O  O27  1  0.27227800  0.63372100  0.17685900  1
  O  O28  1  0.90805300  0.01878000  0.67238200  1
  O  O29  1  0.40702800  0.52060800  0.67280100  1
  O  O30  1  0.05974800  0.70010800  0.99074600  1
  O  O31  1  0.55338900  0.19482200  0.98979000  1
  O  O32  1  0.13351300  0.77311100  0.67625300  1
  O  O33  1  0.63404200  0.27343700  0.67693100  1
  O  O34  1  0.31421200  0.42607500  0.99354400  1
  O  O35  1  0.70059400  0.05867600  0.49252900  1
  O  O36  1  0.19828100  0.56045400  0.49281100  1
  O  O37  1  0.35207600  0.24156300  0.83961900  1
  O  O38  1  0.42548300  0.31403800  0.49410800  1
  O  O39  1  0.10672300  0.46671500  0.84294400  1
  O  O40  1  0.24091700  0.35328600  0.34025700  1
  O  O41  1  0.46862900  0.10745000  0.34141700  1
  O  O42  1  0.03446800  0.39337400  0.15694200  1
  O  O43  1  0.25860000  0.14685200  0.15991000  1
  O  O44  1  0.39382100  0.03342900  0.65693900  1
  O  O45  1  0.07378400  0.18668600  0.00645200  1
  O  O46  1  0.14836000  0.25837900  0.65835100  1
  O  O47  1  0.19012400  0.07265000  0.50363700  1
loop_
_geom_bond_atom_site_label_1
_geom_bond_atom_site_label_2
_geom_bond_distance
_geom_bond_site_symmetry_2
Li0 O30 2.061330 1_654
Li0 O5 2.064333 1_555
Li0 O4 2.134234 1_555
Li0 O0 2.136428 1_554
Li0 O7 2.224715 1_555
Li0 O25 2.233689 1_655
Li1 O35 2.047688 1_565
Li1 O3 2.053077 1_555
Li1 O1 2.127324 1_555
Li1 O2 2.143360 1_555
Li1 O28 2.224708 1_565
Li1 O10 2.233312 1_555
Li2 O11 2.074031 1_555
Li2 O42 2.092057 1_655
Li2 O39 2.097383 1_654
Li2 O30 2.135689 1_654
Li2 O1 2.138355 1_554
Li2 O7 2.139534 1_555
Li3 O44 2.090100 1_565
Li3 O41 2.090505 1_565
Li3 O4 2.133610 1_555
Li3 O10 2.136301 1_555
Li3 O17 2.151269 1_555
Li3 O35 2.161077 1_565
Li4 O11 2.037519 1_556
Li4 O8 2.055138 1_555
Li4 O9 2.139943 1_556
Li4 O10 2.162561 1_555
Li4 O19 2.187691 1_555
Li4 O1 2.293796 1_555
Li5 O14 2.048503 1_555
Li5 O39 2.114529 1_655
Li5 O11 2.136379 1_556
Li5 O8 2.165874 1_555
Li5 O45 2.247851 1_656
Li5 O46 2.319921 1_655
Li6 O3 2.065448 1_555
Li6 O15 2.067072 1_555
Li6 O44 2.179773 1_565
Li6 O12 2.181338 1_556
Li6 O10 2.244755 1_555
Li6 O9 2.245099 1_556
Li7 O5 2.074110 1_555
Li7 O21 2.075753 1_555
Li7 O16 2.178359 1_555
Li7 O42 2.185334 1_655
Li7 O13 2.244635 1_555
Li7 O7 2.246394 1_555
Li8 O6 2.056745 1_555
Li8 O17 2.061758 1_555
Li8 O7 2.117881 1_555
Li8 O13 2.132462 1_555
Li8 O23 2.223384 1_555
Li8 O4 2.241586 1_555
Li9 O20 2.076610 1_555
Li9 O41 2.084228 1_565
Li9 O17 2.145833 1_555
Li9 O6 2.182402 1_555
Li9 O47 2.202858 1_565
Li9 O43 2.258721 1_565
Li10 O11 2.066677 1_555
Li10 O21 2.090628 1_555
Li10 O26 2.123976 1_555
Li10 O45 2.130062 1_655
Li10 O22 2.173013 1_555
Li10 O42 2.203804 1_655
Li11 O20 2.088180 1_555
Li11 O12 2.096135 1_555
Li11 O23 2.130136 1_555
Li11 O9 2.138399 1_555
Li11 O27 2.155644 1_555
Li11 O6 2.157036 1_555
Li12 O14 2.060671 1_555
Li12 O19 2.108357 1_555
Li12 O8 2.133437 1_555
Li12 O16 2.146431 1_555
Li12 O33 2.151912 1_555
Li12 O13 2.184701 1_555
Li13 O15 2.082772 1_555
Li13 O17 2.088914 1_555
Li13 O18 2.125847 1_555
Li13 O47 2.128153 1_565
Li13 O32 2.156733 1_555
Li13 O44 2.159004 1_565
Li14 O26 2.023309 1_555
Li14 O14 2.023309 1_554
Li14 O25 2.194919 1_645
Li14 O18 2.194919 1_644
Li14 O0 2.233342 1_544
Li14 O45 2.233342 1_655
Li15 O12 2.072557 1_555
Li15 O30 2.072557 1_554
Li15 O15 2.175255 1_554
Li15 O27 2.175255 1_555
Li15 O25 2.247270 1_555
Li15 O18 2.247270 1_554
Li16 O15 2.100095 1_554
Li16 O27 2.100095 1_555
Li16 O24 2.107624 1_555
Li16 O19 2.107624 1_554
Li16 O9 2.220519 1_555
Li16 O34 2.220519 1_554
Li17 O32 2.059470 1_555
Li17 O20 2.059470 1_555
Li17 O22 2.126921 1_465
Li17 O28 2.126921 1_465
Li17 O2 2.234350 1_455
Li17 O47 2.234350 1_565
Li18 O35 2.070052 1_555
Li18 O16 2.070052 1_555
Li18 O33 2.178264 1_555
Li18 O21 2.178264 1_555
Li18 O22 2.249627 1_555
Li18 O28 2.249627 1_555
Li19 O33 2.068864 1_555
Li19 O21 2.068864 1_555
Li19 O29 2.137504 1_555
Li19 O23 2.137504 1_555
Li19 O13 2.226808 1_555
Li19 O38 2.226808 1_555
Li20 O17 2.070689 1_555
Li20 O36 2.070689 1_555
Li20 O32 2.182336 1_555
Li20 O20 2.182336 1_555
Li20 O23 2.232500 1_555
Li20 O29 2.232500 1_555
Li21 O31 2.066677 1_555
Li21 O33 2.090628 1_555
Li21 O14 2.123976 1_555
Li21 O0 2.130062 1_545
Li21 O28 2.173013 1_555
Li21 O3 2.203804 1_545
Li22 O32 2.088180 1_555
Li22 O30 2.096135 1_555
Li22 O29 2.130136 1_555
Li22 O34 2.138399 1_555
Li22 O15 2.155644 1_555
Li22 O39 2.157036 1_555
Li23 O27 2.082772 1_555
Li23 O36 2.088914 1_555
Li23 O25 2.125847 1_555
Li23 O2 2.128153 1_455
Li23 O20 2.156733 1_555
Li23 O5 2.159004 1_455
Li24 O26 2.060671 1_555
Li24 O24 2.108357 1_555
Li24 O41 2.133437 1_555
Li24 O35 2.146431 1_555
Li24 O21 2.151912 1_555
Li24 O38 2.184701 1_555
Li25 O26 2.048503 1_555
Li25 O6 2.114529 1_545
Li25 O31 2.136379 1_554
Li25 O41 2.165874 1_555
Li25 O0 2.247851 1_544
Li25 O4 2.319921 1_545
Li26 O31 2.037519 1_554
Li26 O41 2.055138 1_555
Li26 O34 2.139943 1_554
Li26 O40 2.162561 1_555
Li26 O24 2.187691 1_555
Li26 O43 2.293796 1_555
Li27 O42 2.065448 1_555
Li27 O27 2.067072 1_555
Li27 O5 2.179773 1_455
Li27 O30 2.181338 1_554
Li27 O40 2.244755 1_555
Li27 O34 2.245099 1_554
Li28 O44 2.074110 1_555
Li28 O33 2.075753 1_555
Li28 O35 2.178359 1_555
Li28 O3 2.185334 1_545
Li28 O38 2.244635 1_555
Li28 O37 2.246394 1_555
Li29 O32 2.076610 1_555
Li29 O8 2.084228 1_455
Li29 O36 2.145833 1_555
Li29 O39 2.182402 1_555
Li29 O2 2.202858 1_455
Li29 O1 2.258721 1_455
Li30 O39 2.056745 1_555
Li30 O36 2.061758 1_555
Li30 O37 2.117881 1_555
Li30 O38 2.132462 1_555
Li30 O29 2.223384 1_555
Li30 O46 2.241586 1_555
Li31 O31 2.074031 1_555
Li31 O3 2.092057 1_545
Li31 O6 2.097383 1_546
Li31 O12 2.135689 1_546
Li31 O43 2.138355 1_556
Li31 O37 2.139534 1_555
Li32 O5 2.090100 1_455
Li32 O8 2.090505 1_455
Li32 O46 2.133610 1_555
Li32 O40 2.136301 1_555
Li32 O36 2.151269 1_555
Li32 O16 2.161077 1_455
Li33 O12 2.061330 1_546
Li33 O44 2.064333 1_555
Li33 O46 2.134234 1_555
Li33 O45 2.136428 1_556
Li33 O37 2.224715 1_555
Li33 O18 2.233689 1_545
Li34 O16 2.047688 1_455
Li34 O42 2.053077 1_555
Li34 O43 2.127324 1_555
Li34 O47 2.143360 1_555
Li34 O22 2.224708 1_455
Li34 O40 2.233312 1_555
O0 Ru2 2.002726 1_556
O0 Ru0 2.088335 1_555
O1 Ru0 1.995131 1_555
O1 Ru2 2.083140 1_556
O2 Ru3 1.997522 1_555
O2 Ru1 2.098102 1_555
O3 Ru2 1.906018 1_556
O4 Ru1 2.000347 1_555
O4 Ru3 2.073467 1_555
O5 Ru3 1.908279 1_555
O6 Ru2 1.901891 1_555
O7 Ru4 2.022740 1_555
O7 Ru2 2.071481 1_555
O8 Ru3 1.909250 1_555
O9 Ru2 2.004719 1_555
O9 Ru4 2.082624 1_555
O10 Ru5 2.005321 1_555
O10 Ru3 2.079798 1_555
O11 Ru4 1.868891 1_555
O12 Ru10 1.907264 1_565
O13 Ru3 1.997270 1_555
O13 Ru5 2.087833 1_555
O14 Ru11 1.866586 1_655
O15 Ru5 1.904898 1_555
O16 Ru11 1.904724 1_655
O17 Ru5 1.914297 1_555
O18 Ru0 1.996137 1_455
O18 Ru11 2.088507 1_565
O19 Ru6 1.983684 1_555
O19 Ru5 2.045599 1_555
O20 Ru10 1.905274 1_565
O21 Ru4 1.905734 1_555
O22 Ru1 2.003212 1_545
O22 Ru10 2.080172 1_655
O23 Ru7 1.989726 1_555
O23 Ru4 2.117261 1_555
O24 Ru4 1.983684 1_555
O24 Ru7 2.045599 1_555
O25 Ru10 1.996137 1_565
O25 Ru1 2.088503 1_455
O26 Ru1 1.866589 1_545
O27 Ru7 1.904898 1_555
O28 Ru11 2.003205 1_655
O28 Ru0 2.080172 1_545
O29 Ru5 1.989726 1_555
O29 Ru6 2.117261 1_555
O30 Ru0 1.907264 1_455
O31 Ru6 1.868891 1_555
O32 Ru0 1.905274 1_455
O33 Ru6 1.905734 1_555
O34 Ru8 2.004719 1_555
O34 Ru6 2.082624 1_555
O35 Ru1 1.904728 1_545
O36 Ru7 1.914297 1_555
O37 Ru6 2.022740 1_555
O37 Ru8 2.071481 1_555
O38 Ru9 1.997270 1_555
O38 Ru7 2.087833 1_555
O39 Ru8 1.901891 1_555
O40 Ru7 2.005321 1_555
O40 Ru9 2.079798 1_555
O41 Ru9 1.909250 1_555
O42 Ru8 1.906018 1_554
O43 Ru10 1.995131 1_555
O43 Ru8 2.083140 1_554
O44 Ru9 1.908279 1_555
O45 Ru8 2.002726 1_554
O45 Ru10 2.088335 1_555
O46 Ru11 2.000355 1_555
O46 Ru9 2.073467 1_555
O47 Ru9 1.997522 1_555
O47 Ru11 2.098107 1_555
