# generated using pymatgen
data_Li3V3P8O29
_symmetry_space_group_name_H-M   'P 1'
_cell_length_a   9.73544800
_cell_length_b   9.77300010
_cell_length_c   14.23634104
_cell_angle_alpha   90.51620768
_cell_angle_beta   90.13467176
_cell_angle_gamma   119.78231037
_symmetry_Int_Tables_number   1
_chemical_formula_structural   Li3V3P8O29
_chemical_formula_sum   'Li6 V6 P16 O58'
_cell_volume   1175.52072603
_cell_formula_units_Z   2
loop_
 _symmetry_equiv_pos_site_id
 _symmetry_equiv_pos_as_xyz
  1  'x, y, z'
loop_
 _atom_site_type_symbol
 _atom_site_label
 _atom_site_symmetry_multiplicity
 _atom_site_fract_x
 _atom_site_fract_y
 _atom_site_fract_z
 _atom_site_occupancy
  Li  Li0  1  0.92197600  0.22304900  0.94501100  1
  Li  Li1  1  0.77705400  0.68392700  0.94249500  1
  Li  Li2  1  0.09401000  0.32835700  0.55353700  1
  Li  Li3  1  0.90270200  0.66947600  0.43929300  1
  Li  Li4  1  0.68132500  0.91107900  0.06241200  1
  Li  Li5  1  0.99252800  0.99768100  0.49257700  1
  V  V0  1  0.00136600  0.43661500  0.75185100  1
  V  V1  1  0.00353200  0.56895400  0.24492600  1
  V  V2  1  0.43383100  0.42849300  0.24939100  1
  V  V3  1  0.55661300  0.56306000  0.74644800  1
  V  V4  1  0.43435900  0.00022500  0.74561700  1
  V  V5  1  0.56112200  0.00501200  0.26033800  1
  P  P0  1  0.30969700  0.08095600  0.15646000  1
  P  P1  1  0.30188000  0.22036200  0.66153600  1
  P  P2  1  0.78104600  0.08362200  0.65827000  1
  P  P3  1  0.66779300  0.33372700  0.86716400  1
  P  P4  1  0.67262500  0.34286400  0.36893900  1
  P  P5  1  0.90537200  0.22555500  0.16085800  1
  P  P6  1  0.08890800  0.31544300  0.33956300  1
  P  P7  1  0.76780900  0.68121400  0.15661400  1
  P  P8  1  0.22965300  0.31418800  0.84748100  1
  P  P9  1  0.90939700  0.68357400  0.65823100  1
  P  P10  1  0.09125300  0.77814800  0.83745200  1
  P  P11  1  0.32810400  0.66365400  0.63144500  1
  P  P12  1  0.34091400  0.66875100  0.13280400  1
  P  P13  1  0.21489900  0.91682200  0.34183300  1
  P  P14  1  0.69245600  0.77693700  0.33856300  1
  P  P15  1  0.68305800  0.91355900  0.84130800  1
  O  O0  1  0.18977000  0.98999900  0.42659400  1
  O  O1  1  0.34336200  0.08674200  0.66542600  1
  O  O2  1  0.23671100  0.24368900  0.93607600  1
  O  O3  1  0.34331500  0.25430800  0.16883300  1
  O  O4  1  0.47004300  0.08740200  0.18327300  1
  O  O5  1  0.52749800  0.18500500  0.81773700  1
  O  O6  1  0.61735200  0.07544200  0.66788400  1
  O  O7  1  0.75591000  0.99819400  0.93221900  1
  O  O8  1  0.73705400  0.08024600  0.16602000  1
  O  O9  1  0.52163100  0.33341700  0.32289900  1
  O  O10  1  0.46127400  0.38142300  0.67149900  1
  O  O11  1  0.67477000  0.19220900  0.32655000  1
  O  O12  1  0.67845200  0.32936800  0.97081400  1
  O  O13  1  0.67571900  0.34818400  0.47306300  1
  O  O14  1  0.82043900  0.33569900  0.82353700  1
  O  O15  1  0.61854000  0.52141100  0.17489400  1
  O  O16  1  0.66400800  0.48127300  0.82901800  1
  O  O17  1  0.91660800  0.26031600  0.66525300  1
  O  O18  1  0.99685300  0.20591800  0.24966100  1
  O  O19  1  0.01748200  0.23315600  0.42909600  1
  O  O20  1  0.98559900  0.23540500  0.07085000  1
  O  O21  1  0.89780200  0.37934800  0.18072200  1
  O  O22  1  0.81936100  0.49418200  0.32825300  1
  O  O23  1  0.08380000  0.34162600  0.83817600  1
  O  O24  1  0.91073900  0.52732300  0.67565100  1
  O  O25  1  0.73790800  0.65048000  0.67427100  1
  O  O26  1  0.20662600  0.20271900  0.75672100  1
  O  O27  1  0.20313600  0.21105400  0.57941100  1
  O  O28  1  0.80426200  0.79978900  0.41691500  1
  O  O29  1  0.26063700  0.34723000  0.32973600  1
  O  O30  1  0.08675000  0.47138800  0.32535000  1
  O  O31  1  0.91376700  0.65772000  0.16443200  1
  O  O32  1  0.18321800  0.50978000  0.67364500  1
  O  O33  1  0.09780700  0.62209300  0.82054300  1
  O  O34  1  0.99488300  0.76543400  0.92025500  1
  O  O35  1  0.97154000  0.75529100  0.56559200  1
  O  O36  1  0.01048500  0.79997300  0.74249400  1
  O  O37  1  0.08239900  0.73951000  0.33402000  1
  O  O38  1  0.34557900  0.52615100  0.17983600  1
  O  O39  1  0.38121800  0.47415600  0.82187000  1
  O  O40  1  0.18554200  0.66041100  0.17685900  1
  O  O41  1  0.33922200  0.66324600  0.02890100  1
  O  O42  1  0.32346900  0.65060500  0.52766100  1
  O  O43  1  0.32599000  0.81064000  0.67381400  1
  O  O44  1  0.54111200  0.61524900  0.33138600  1
  O  O45  1  0.48030800  0.66906700  0.67719900  1
  O  O46  1  0.26181400  0.91793000  0.83241900  1
  O  O47  1  0.19826000  0.99378400  0.24654800  1
  O  O48  1  0.23908400  0.00016000  0.06750600  1
  O  O49  1  0.37883900  0.92169300  0.33356600  1
  O  O50  1  0.48503000  0.82040900  0.17526900  1
  O  O51  1  0.52349800  0.90575900  0.81989100  1
  O  O52  1  0.65998000  0.74473800  0.83897700  1
  O  O53  1  0.75753800  0.75442900  0.06663500  1
  O  O54  1  0.78714400  0.79970400  0.24043500  1
  O  O55  1  0.64947500  0.91032200  0.33498300  1
  O  O56  1  0.80757500  0.00633800  0.57615200  1
  O  O57  1  0.79913000  0.00809900  0.75640700  1
loop_
_geom_bond_atom_site_label_1
_geom_bond_atom_site_label_2
_geom_bond_distance
_geom_bond_site_symmetry_2
Li0 O20 1.877297 1_556
Li0 O7 1.984453 1_545
Li0 O23 2.089865 1_655
Li0 O14 2.507430 1_555
Li1 O34 1.887208 1_555
Li1 O53 1.934909 1_556
Li1 O52 2.122477 1_555
Li1 O16 2.347816 1_555
Li2 O27 1.947888 1_555
Li2 O19 1.958242 1_555
Li2 O17 2.201261 1_455
Li2 O32 2.287004 1_555
Li3 O35 1.947881 1_555
Li3 O28 1.964744 1_555
Li3 O37 2.148579 1_655
Li3 O22 2.157886 1_555
Li4 O53 2.006934 1_555
Li4 O7 2.026840 1_554
Li4 O8 2.065069 1_565
Li4 O50 2.318717 1_555
Li5 O28 2.166046 1_555
Li5 O0 2.173883 1_655
Li5 O56 2.196484 1_565
Li5 O19 2.377992 1_665
Li5 O27 2.403086 1_665
Li5 O35 2.509651 1_555
O0 P13 1.478864 1_555
O1 P1 1.548077 1_555
O1 V4 1.886744 1_555
O2 P8 1.460310 1_555
O3 P0 1.565848 1_555
O3 V2 1.859978 1_555
O4 P0 1.576578 1_555
O4 V5 1.832718 1_555
O5 P3 1.574209 1_555
O5 V4 1.863603 1_555
O6 P2 1.561876 1_555
O6 V4 1.913578 1_555
O7 P15 1.501952 1_555
O8 P5 1.548547 1_555
O8 V5 2.013636 1_555
O9 P4 1.567982 1_555
O9 V2 1.868544 1_555
O10 P1 1.572963 1_555
O10 V3 1.864281 1_555
O11 P4 1.595938 1_555
O11 V5 1.847393 1_555
O12 P3 1.481477 1_555
O13 P4 1.482499 1_555
O14 P3 1.603325 1_555
O14 V0 1.848675 1_655
O15 P7 1.540488 1_555
O15 V2 1.893981 1_555
O16 P3 1.562799 1_555
O16 V3 1.988762 1_555
O17 P2 1.570316 1_555
O17 V0 1.927172 1_655
O18 P5 1.611571 1_555
O18 P6 1.613674 1_655
O19 P6 1.490648 1_555
O20 P5 1.481041 1_555
O21 P5 1.564272 1_555
O21 V1 1.843613 1_655
O22 P4 1.576019 1_555
O22 V1 1.969788 1_655
O23 P8 1.575977 1_555
O23 V0 1.942215 1_555
O24 P9 1.555685 1_555
O24 V0 1.879079 1_655
O25 P9 1.552664 1_555
O25 V3 1.851294 1_555
O26 P1 1.605373 1_555
O26 P8 1.623941 1_555
O27 P1 1.485014 1_555
O28 P14 1.492381 1_555
O29 P6 1.548265 1_555
O29 V2 1.864731 1_555
O30 P6 1.549664 1_555
O30 V1 1.912896 1_555
O31 P7 1.551800 1_555
O31 V1 1.896256 1_655
O32 P11 1.589037 1_555
O32 V0 1.910827 1_555
O33 P10 1.574216 1_555
O33 V0 1.843012 1_555
O34 P10 1.475566 1_655
O35 P9 1.481813 1_555
O36 P9 1.599791 1_455
O36 P10 1.630369 1_555
O37 P13 1.566666 1_555
O37 V1 1.913794 1_555
O38 P12 1.572300 1_555
O38 V2 1.859361 1_555
O39 P8 1.573365 1_555
O39 V3 1.837152 1_555
O40 P12 1.603406 1_555
O40 V1 1.824290 1_555
O41 P12 1.479448 1_555
O42 P11 1.480505 1_555
O43 P11 1.562556 1_555
O43 V4 1.899955 1_565
O44 P14 1.536814 1_555
O44 V2 1.961340 1_555
O45 P11 1.593645 1_555
O45 V3 1.837542 1_555
O46 P10 1.541897 1_555
O46 V4 1.918645 1_565
O47 P13 1.603270 1_555
O47 P0 1.629633 1_565
O48 P0 1.462342 1_555
O49 P13 1.577636 1_555
O49 V5 1.867504 1_565
O50 P12 1.563590 1_555
O50 V5 1.974606 1_565
O51 P15 1.546451 1_555
O51 V4 1.879539 1_565
O52 P15 1.550626 1_555
O52 V3 2.019175 1_555
O53 P7 1.499954 1_555
O54 P7 1.599338 1_555
O54 P14 1.630564 1_555
O55 P14 1.555621 1_555
O55 V5 1.878746 1_565
O56 P2 1.477557 1_555
O57 P15 1.606505 1_545
O57 P2 1.635299 1_555
