# generated using pymatgen
data_LiSn2P5O16
_symmetry_space_group_name_H-M   'P 1'
_cell_length_a   10.34726700
_cell_length_b   7.36983600
_cell_length_c   10.66318278
_cell_angle_alpha   70.05891550
_cell_angle_beta   90.00000000
_cell_angle_gamma   90.00000000
_symmetry_Int_Tables_number   1
_chemical_formula_structural   LiSn2P5O16
_chemical_formula_sum   'Li2 Sn4 P10 O32'
_cell_volume   764.39603991
_cell_formula_units_Z   2
loop_
 _symmetry_equiv_pos_site_id
 _symmetry_equiv_pos_as_xyz
  1  'x, y, z'
loop_
 _atom_site_type_symbol
 _atom_site_label
 _atom_site_symmetry_multiplicity
 _atom_site_fract_x
 _atom_site_fract_y
 _atom_site_fract_z
 _atom_site_occupancy
  Li  Li0  1  0.80924100  0.03820100  0.19250400  1
  Li  Li1  1  0.19075900  0.03820100  0.69250400  1
  Sn  Sn0  1  0.12766100  0.64684400  0.49959200  1
  Sn  Sn1  1  0.37028500  0.08256500  0.13466300  1
  Sn  Sn2  1  0.62971500  0.08256500  0.63466300  1
  Sn  Sn3  1  0.87233900  0.64684400  0.99959200  1
  P  P0  1  0.85794500  0.38042000  0.62953400  1
  P  P1  1  0.46754500  0.49250500  0.49763000  1
  P  P2  1  0.28832600  0.44029100  0.87914000  1
  P  P3  1  0.87135000  0.76279600  0.66338500  1
  P  P4  1  0.41295900  0.90068300  0.46552300  1
  P  P5  1  0.58704100  0.90068300  0.96552300  1
  P  P6  1  0.14205500  0.38042000  0.12953400  1
  P  P7  1  0.53245500  0.49250500  0.99763000  1
  P  P8  1  0.71167400  0.44029100  0.37914000  1
  P  P9  1  0.12865000  0.76279600  0.16338500  1
  O  O0  1  0.29950300  0.21927800  0.93760500  1
  O  O1  1  0.84635600  0.52739400  0.70794900  1
  O  O2  1  0.05945600  0.78818900  0.28218600  1
  O  O3  1  0.22885000  0.52700500  0.74547500  1
  O  O4  1  0.47741100  0.68882600  0.53117200  1
  O  O5  1  0.43016200  0.53383500  0.87483700  1
  O  O6  1  0.66537800  0.46090500  0.95671500  1
  O  O7  1  0.21318700  0.50497300  0.99015700  1
  O  O8  1  0.52766700  0.01503800  0.04699800  1
  O  O9  1  0.94983700  0.82602700  0.53529300  1
  O  O10  1  0.26781600  0.89875700  0.48609400  1
  O  O11  1  0.45815400  0.96911900  0.31842800  1
  O  O12  1  0.94054400  0.78818900  0.78218600  1
  O  O13  1  0.72984400  0.83970800  0.64538100  1
  O  O14  1  0.22432200  0.20560500  0.20711400  1
  O  O15  1  0.47233300  0.01503800  0.54699800  1
  O  O16  1  0.73218400  0.89875700  0.98609400  1
  O  O17  1  0.47044900  0.33952500  0.11783400  1
  O  O18  1  0.54184600  0.96911900  0.81842800  1
  O  O19  1  0.70049700  0.21927800  0.43760500  1
  O  O20  1  0.00573700  0.33128300  0.10671500  1
  O  O21  1  0.77567800  0.20560500  0.70711400  1
  O  O22  1  0.15364400  0.52739400  0.20794900  1
  O  O23  1  0.52955100  0.33952500  0.61783400  1
  O  O24  1  0.77115000  0.52700500  0.24547500  1
  O  O25  1  0.52258900  0.68882600  0.03117200  1
  O  O26  1  0.99426300  0.33128300  0.60671500  1
  O  O27  1  0.56983800  0.53383500  0.37483700  1
  O  O28  1  0.33462200  0.46090500  0.45671500  1
  O  O29  1  0.78681300  0.50497300  0.49015700  1
  O  O30  1  0.05016300  0.82602700  0.03529300  1
  O  O31  1  0.27015600  0.83970800  0.14538100  1
loop_
_geom_bond_atom_site_label_1
_geom_bond_atom_site_label_2
_geom_bond_distance
_geom_bond_site_symmetry_2
O0 P2 1.537033 1_555
O0 Sn1 2.126682 1_556
O1 P0 1.582588 1_555
O1 P3 1.655340 1_555
O2 P9 1.521222 1_555
O2 Sn0 2.304388 1_555
O3 P2 1.482330 1_555
O3 Sn0 2.677895 1_555
O4 P1 1.607704 1_555
O4 P4 1.620827 1_555
O5 P2 1.615457 1_555
O5 P7 1.629568 1_555
O6 P7 1.485120 1_555
O6 Sn3 2.664614 1_555
O7 P2 1.618026 1_555
O7 P6 1.631740 1_556
O8 P5 1.530336 1_544
O8 Sn1 2.022559 1_555
O9 P3 1.519257 1_555
O9 Sn0 2.370074 1_655
O10 P4 1.517134 1_555
O10 Sn0 2.321291 1_555
O11 P4 1.547145 1_555
O11 Sn1 2.061041 1_565
O12 P3 1.521222 1_555
O12 Sn3 2.304388 1_555
O13 P3 1.558142 1_555
O13 Sn2 2.037253 1_565
O14 P6 1.530304 1_555
O14 Sn1 2.044019 1_555
O15 P4 1.530336 1_545
O15 Sn2 2.022559 1_555
O16 P5 1.517134 1_555
O16 Sn3 2.321291 1_555
O17 P7 1.529687 1_554
O17 Sn1 2.112078 1_555
O18 P5 1.547145 1_555
O18 Sn2 2.061041 1_565
O19 P8 1.537033 1_555
O19 Sn2 2.126682 1_555
O20 P6 1.496667 1_555
O20 Sn3 2.608941 1_454
O21 P0 1.530304 1_555
O21 Sn2 2.044019 1_555
O22 P6 1.582588 1_555
O22 P9 1.655340 1_555
O23 P1 1.529687 1_555
O23 Sn2 2.112078 1_555
O24 P8 1.482330 1_555
O24 Sn3 2.677895 1_554
O25 P7 1.607704 1_554
O25 P5 1.620827 1_554
O26 P0 1.496667 1_555
O26 Sn0 2.608941 1_655
O27 P8 1.615457 1_555
O27 P1 1.629568 1_555
O28 P1 1.485120 1_555
O28 Sn0 2.664614 1_555
O29 P8 1.618026 1_555
O29 P0 1.631740 1_555
O30 P9 1.519257 1_555
O30 Sn3 2.370074 1_454
O31 P9 1.558142 1_555
O31 Sn1 2.037253 1_565
