# generated using pymatgen
data_BaSrI4
_symmetry_space_group_name_H-M   'P 1'
_cell_length_a   8.41000200
_cell_length_b   9.70018300
_cell_length_c   14.72671800
_cell_angle_alpha   90.00000000
_cell_angle_beta   90.00000000
_cell_angle_gamma   90.00000000
_symmetry_Int_Tables_number   1
_chemical_formula_structural   BaSrI4
_chemical_formula_sum   'Ba4 Sr4 I16'
_cell_volume   1201.38442485
_cell_formula_units_Z   4
loop_
 _symmetry_equiv_pos_site_id
 _symmetry_equiv_pos_as_xyz
  1  'x, y, z'
loop_
 _atom_site_type_symbol
 _atom_site_label
 _atom_site_symmetry_multiplicity
 _atom_site_fract_x
 _atom_site_fract_y
 _atom_site_fract_z
 _atom_site_occupancy
  Ba  Ba0  1  0.00000000  0.75000000  0.32471900  1
  Ba  Ba1  1  0.00000000  0.25000000  0.67528100  1
  Ba  Ba2  1  0.50000000  0.25000000  0.17528100  1
  Ba  Ba3  1  0.50000000  0.75000000  0.82471900  1
  Sr  Sr0  1  0.00000000  0.00000000  0.00000000  1
  Sr  Sr1  1  0.00000000  0.50000000  0.00000000  1
  Sr  Sr2  1  0.50000000  0.00000000  0.50000000  1
  Sr  Sr3  1  0.50000000  0.50000000  0.50000000  1
  I  I0  1  0.11463100  0.04708900  0.21589800  1
  I  I1  1  0.11463100  0.54708900  0.78410200  1
  I  I2  1  0.23699200  0.25004900  0.47714900  1
  I  I3  1  0.23699200  0.75004900  0.52285100  1
  I  I4  1  0.26300800  0.75004900  0.02285100  1
  I  I5  1  0.26300800  0.25004900  0.97714900  1
  I  I6  1  0.38536900  0.04708900  0.71589800  1
  I  I7  1  0.38536900  0.54708900  0.28410200  1
  I  I8  1  0.61463100  0.95291100  0.28410200  1
  I  I9  1  0.61463100  0.45291100  0.71589800  1
  I  I10  1  0.73699200  0.74995100  0.02285100  1
  I  I11  1  0.73699200  0.24995100  0.97714900  1
  I  I12  1  0.76300800  0.74995100  0.52285100  1
  I  I13  1  0.76300800  0.24995100  0.47714900  1
  I  I14  1  0.88536900  0.45291100  0.21589800  1
  I  I15  1  0.88536900  0.95291100  0.78410200  1
loop_
_geom_bond_atom_site_label_1
_geom_bond_atom_site_label_2
_geom_bond_distance
_geom_bond_site_symmetry_2
Ba0 I0 3.435478 1_565
Ba0 I14 3.435478 1_455
Ba0 I3 3.533584 1_555
Ba0 I12 3.533584 1_455
Ba0 I7 3.838707 1_555
Ba0 I8 3.838707 1_455
Ba1 I1 3.435478 1_555
Ba1 I15 3.435478 1_445
Ba1 I2 3.533584 1_555
Ba1 I13 3.533584 1_455
Ba1 I6 3.838707 1_555
Ba1 I9 3.838707 1_455
Ba2 I7 3.435478 1_555
Ba2 I8 3.435478 1_545
Ba2 I11 3.533584 1_554
Ba2 I5 3.533584 1_554
Ba2 I14 3.838707 1_555
Ba2 I0 3.838707 1_555
Ba3 I6 3.435478 1_565
Ba3 I9 3.435478 1_555
Ba3 I10 3.533584 1_556
Ba3 I4 3.533584 1_556
Ba3 I15 3.838707 1_555
Ba3 I1 3.838707 1_555
I0 Sr0 3.353662 1_555
I1 Sr1 3.353662 1_556
I2 Sr3 3.299133 1_555
I2 Sr2 3.299832 1_555
I3 Sr2 3.299133 1_565
I3 Sr3 3.299832 1_555
I4 Sr0 3.299133 1_565
I4 Sr1 3.299832 1_555
I5 Sr1 3.299133 1_556
I5 Sr0 3.299832 1_556
I6 Sr2 3.353662 1_555
I7 Sr3 3.353662 1_555
I8 Sr2 3.353662 1_565
I9 Sr3 3.353662 1_555
I10 Sr1 3.299133 1_655
I10 Sr0 3.299832 1_665
I11 Sr0 3.299133 1_656
I11 Sr1 3.299832 1_656
I12 Sr3 3.299133 1_555
I12 Sr2 3.299832 1_565
I13 Sr2 3.299133 1_555
I13 Sr3 3.299832 1_555
I14 Sr1 3.353662 1_655
I15 Sr0 3.353662 1_666
