# generated using pymatgen
data_Mn6O5F7
_symmetry_space_group_name_H-M   'P 1'
_cell_length_a   4.70102600
_cell_length_b   5.71429771
_cell_length_c   15.62877262
_cell_angle_alpha   90.66917129
_cell_angle_beta   90.39076307
_cell_angle_gamma   90.05581887
_symmetry_Int_Tables_number   1
_chemical_formula_structural   Mn6O5F7
_chemical_formula_sum   'Mn12 O10 F14'
_cell_volume   419.79805962
_cell_formula_units_Z   2
loop_
 _symmetry_equiv_pos_site_id
 _symmetry_equiv_pos_as_xyz
  1  'x, y, z'
loop_
 _atom_site_type_symbol
 _atom_site_label
 _atom_site_symmetry_multiplicity
 _atom_site_fract_x
 _atom_site_fract_y
 _atom_site_fract_z
 _atom_site_occupancy
  Mn  Mn0  1  0.99850100  0.84496400  0.41049800  1
  Mn  Mn1  1  0.01252200  0.15511700  0.24642900  1
  Mn  Mn2  1  0.99898100  0.82989300  0.07145600  1
  Mn  Mn3  1  0.95075300  0.84250800  0.74964500  1
  Mn  Mn4  1  0.95389500  0.16039000  0.58331200  1
  Mn  Mn5  1  0.97252200  0.13823600  0.91182000  1
  Mn  Mn6  1  0.50899400  0.66095200  0.59127800  1
  Mn  Mn7  1  0.50681900  0.65468200  0.91772400  1
  Mn  Mn8  1  0.49621500  0.65856000  0.25963000  1
  Mn  Mn9  1  0.46802500  0.36508700  0.08907100  1
  Mn  Mn10  1  0.51546800  0.34200100  0.41911000  1
  Mn  Mn11  1  0.51946600  0.34689900  0.75114800  1
  O  O0  1  0.79739100  0.88687100  0.30162300  1
  O  O1  1  0.76351400  0.89341700  0.64177600  1
  O  O2  1  0.78100500  0.87860000  0.96709400  1
  O  O3  1  0.77665000  0.10671300  0.46762200  1
  O  O4  1  0.77145500  0.10424200  0.80572500  1
  O  O5  1  0.70776100  0.40282900  0.64446000  1
  O  O6  1  0.70904300  0.60106000  0.81040900  1
  O  O7  1  0.28401600  0.62592600  0.02435200  1
  O  O8  1  0.27613400  0.39461100  0.19981300  1
  O  O9  1  0.29956900  0.61260700  0.36699000  1
  F  F0  1  0.76555800  0.11332400  0.13037000  1
  F  F1  1  0.73146700  0.62743300  0.15001800  1
  F  F2  1  0.76770000  0.38260600  0.30902000  1
  F  F3  1  0.75017100  0.59393200  0.47751100  1
  F  F4  1  0.72956700  0.38122000  0.98304900  1
  F  F5  1  0.26181000  0.39217000  0.53373000  1
  F  F6  1  0.26905900  0.36624200  0.86172800  1
  F  F7  1  0.22954000  0.62189400  0.69919500  1
  F  F8  1  0.23527800  0.89919400  0.18085400  1
  F  F9  1  0.23508000  0.87997100  0.52684500  1
  F  F10  1  0.26999900  0.11362600  0.35727500  1
  F  F11  1  0.22526700  0.12623000  0.01559700  1
  F  F12  1  0.22416700  0.86680600  0.85028300  1
  F  F13  1  0.23663800  0.12918600  0.69354200  1
loop_
_geom_bond_atom_site_label_1
_geom_bond_atom_site_label_2
_geom_bond_distance
_geom_bond_site_symmetry_2
Mn0 O0 1.958206 1_555
Mn0 O3 2.026438 1_565
Mn0 O9 2.055277 1_655
Mn1 O8 1.992918 1_555
Mn1 O0 2.038691 1_445
Mn2 O7 1.921550 1_655
Mn2 O2 1.943241 1_554
Mn3 O1 1.921782 1_555
Mn3 O4 1.922876 1_565
Mn3 O6 2.034421 1_555
Mn4 O1 2.001070 1_545
Mn4 O3 2.005880 1_555
Mn4 O5 2.039281 1_555
Mn5 O4 1.910845 1_555
Mn5 O2 1.948326 1_545
Mn6 O5 1.939147 1_555
Mn6 O1 1.943864 1_555
Mn7 O6 1.954728 1_555
Mn7 O2 1.963194 1_555
Mn7 O7 1.982682 1_556
Mn8 O9 1.941618 1_555
Mn8 O0 2.025123 1_555
Mn8 O8 2.042091 1_555
Mn9 O8 1.962786 1_555
Mn9 O7 2.004691 1_555
Mn10 O3 1.975960 1_555
Mn10 O9 2.026317 1_555
Mn11 O5 1.923005 1_555
Mn11 O6 1.927739 1_555
Mn11 O4 2.017572 1_555
F0 Mn9 2.110925 1_555
F0 Mn1 2.157689 1_655
F0 Mn2 2.158115 1_545
F1 Mn8 2.051471 1_555
F1 Mn2 2.116355 1_555
F1 Mn9 2.152990 1_555
F2 Mn1 1.989958 1_655
F2 Mn10 2.111119 1_555
F2 Mn8 2.174890 1_555
F3 Mn10 2.018764 1_555
F3 Mn0 2.136809 1_555
F3 Mn6 2.146155 1_555
F4 Mn9 2.072914 1_556
F4 Mn5 2.110913 1_555
F4 Mn7 2.146293 1_555
F5 Mn6 2.113813 1_555
F5 Mn4 2.117903 1_455
F5 Mn10 2.175073 1_555
F6 Mn5 2.070970 1_455
F6 Mn11 2.099587 1_555
F6 Mn7 2.163612 1_555
F7 Mn3 1.980572 1_455
F7 Mn6 2.158419 1_555
F7 Mn11 2.237209 1_555
F8 Mn1 2.065964 1_565
F8 Mn2 2.066754 1_455
F8 Mn8 2.221151 1_555
F9 Mn6 2.062382 1_555
F9 Mn0 2.132334 1_455
F9 Mn4 2.254067 1_465
F10 Mn10 1.980147 1_555
F10 Mn1 2.122266 1_555
F10 Mn0 2.172159 1_445
F11 Mn5 2.005863 1_454
F11 Mn9 2.103903 1_555
F11 Mn2 2.192011 1_445
F12 Mn3 2.027849 1_455
F12 Mn7 2.087991 1_555
F12 Mn5 2.171261 1_465
F13 Mn11 2.019991 1_555
F13 Mn4 2.177802 1_455
F13 Mn3 2.303028 1_445
