# generated using pymatgen
data_Li7Fe4(PO4)6
_symmetry_space_group_name_H-M   'P 1'
_cell_length_a   9.80250580
_cell_length_b   9.80250580
_cell_length_c   9.74397496
_cell_angle_alpha   88.12174147
_cell_angle_beta   88.12174147
_cell_angle_gamma   88.08850857
_symmetry_Int_Tables_number   1
_chemical_formula_structural   Li7Fe4(PO4)6
_chemical_formula_sum   'Li14 Fe8 P12 O48'
_cell_volume   934.79565832
_cell_formula_units_Z   2
loop_
 _symmetry_equiv_pos_site_id
 _symmetry_equiv_pos_as_xyz
  1  'x, y, z'
loop_
 _atom_site_type_symbol
 _atom_site_label
 _atom_site_symmetry_multiplicity
 _atom_site_fract_x
 _atom_site_fract_y
 _atom_site_fract_z
 _atom_site_occupancy
  Li  Li0  1  0.71781000  0.55371000  0.16115200  1
  Li  Li1  1  0.94880000  0.35420900  0.27604700  1
  Li  Li2  1  0.46699300  0.28762900  0.34802900  1
  Li  Li3  1  0.83238900  0.78290000  0.95846000  1
  Li  Li4  1  0.65533900  0.03252900  0.21379700  1
  Li  Li5  1  0.22027700  0.14891300  0.53884700  1
  Li  Li6  1  0.99499200  0.50294200  0.00147500  1
  Li  Li7  1  0.50294200  0.99499200  0.50147500  1
  Li  Li8  1  0.78290000  0.83238900  0.45846000  1
  Li  Li9  1  0.14891300  0.22027700  0.03884700  1
  Li  Li10  1  0.35420900  0.94880000  0.77604700  1
  Li  Li11  1  0.55371000  0.71781000  0.66115200  1
  Li  Li12  1  0.03252900  0.65533900  0.71379700  1
  Li  Li13  1  0.28762900  0.46699300  0.84802900  1
  Fe  Fe0  1  0.75200000  0.47021500  0.52952100  1
  Fe  Fe1  1  0.03078000  0.96861700  0.24725800  1
  Fe  Fe2  1  0.47021500  0.75200000  0.02952100  1
  Fe  Fe3  1  0.75019000  0.25655000  0.74357300  1
  Fe  Fe4  1  0.25655000  0.75019000  0.24357300  1
  Fe  Fe5  1  0.96861700  0.03078000  0.74725800  1
  Fe  Fe6  1  0.53031000  0.25062500  0.97018300  1
  Fe  Fe7  1  0.25062500  0.53031000  0.47018300  1
  P  P0  1  0.32606800  0.44819600  0.14781800  1
  P  P1  1  0.85338400  0.17303200  0.04702300  1
  P  P2  1  0.35299600  0.05381400  0.17417000  1
  P  P3  1  0.82789500  0.14002100  0.44681400  1
  P  P4  1  0.44819600  0.32606800  0.64781800  1
  P  P5  1  0.05381400  0.35299600  0.67417000  1
  P  P6  1  0.95468700  0.64894200  0.33078000  1
  P  P7  1  0.54947600  0.66835200  0.35704100  1
  P  P8  1  0.17303200  0.85338400  0.54702300  1
  P  P9  1  0.64894200  0.95468700  0.83078000  1
  P  P10  1  0.14002100  0.82789500  0.94681400  1
  P  P11  1  0.66835200  0.54947600  0.85704100  1
  O  O0  1  0.21484300  0.40043600  0.05525100  1
  O  O1  1  0.46885800  0.38326000  0.10833800  1
  O  O2  1  0.94624800  0.28496500  0.09292500  1
  O  O3  1  0.69906000  0.19472800  0.08591100  1
  O  O4  1  0.30423600  0.41212300  0.30411200  1
  O  O5  1  0.39379500  0.11627600  0.02984300  1
  O  O6  1  0.89447900  0.03128900  0.11241200  1
  O  O7  1  0.80242500  0.29184300  0.40607800  1
  O  O8  1  0.19735600  0.09014000  0.19551800  1
  O  O9  1  0.38326000  0.46885800  0.60833800  1
  O  O10  1  0.11627600  0.39379500  0.52984300  1
  O  O11  1  0.44601700  0.10225400  0.28524000  1
  O  O12  1  0.12259900  0.83316100  0.10907400  1
  O  O13  1  0.37589500  0.89539200  0.17075400  1
  O  O14  1  0.97227400  0.09861300  0.38663100  1
  O  O15  1  0.89539200  0.37589500  0.67075400  1
  O  O16  1  0.60649000  0.33024600  0.62226900  1
  O  O17  1  0.71934800  0.04182600  0.40323300  1
  O  O18  1  0.40043600  0.21484300  0.55525100  1
  O  O19  1  0.10225400  0.44601700  0.78524000  1
  O  O20  1  0.66756600  0.38708700  0.87887100  1
  O  O21  1  0.83316100  0.12259900  0.60907400  1
  O  O22  1  0.91650700  0.80205400  0.29498000  1
  O  O23  1  0.58807000  0.70951300  0.20660800  1
  O  O24  1  0.09014000  0.19735600  0.69551800  1
  O  O25  1  0.41212300  0.30423600  0.80411200  1
  O  O26  1  0.33024600  0.60649000  0.12226900  1
  O  O27  1  0.16801400  0.87701400  0.38613700  1
  O  O28  1  0.90549000  0.55043300  0.22399900  1
  O  O29  1  0.59507300  0.77130400  0.46155100  1
  O  O30  1  0.28496500  0.94624800  0.59292500  1
  O  O31  1  0.11540000  0.62401400  0.33049500  1
  O  O32  1  0.38708700  0.66756600  0.37887100  1
  O  O33  1  0.03128900  0.89447900  0.61241200  1
  O  O34  1  0.62401400  0.11540000  0.83049500  1
  O  O35  1  0.87701400  0.16801400  0.88613700  1
  O  O36  1  0.55043300  0.90549000  0.72399900  1
  O  O37  1  0.89303600  0.62238600  0.47584000  1
  O  O38  1  0.60873600  0.52244700  0.38214300  1
  O  O39  1  0.80205400  0.91650700  0.79498000  1
  O  O40  1  0.19472800  0.69906000  0.58591100  1
  O  O41  1  0.09861300  0.97227400  0.88663100  1
  O  O42  1  0.62238600  0.89303600  0.97584000  1
  O  O43  1  0.70951300  0.58807000  0.70660800  1
  O  O44  1  0.29184200  0.80242500  0.90607800  1
  O  O45  1  0.04182600  0.71934800  0.90323300  1
  O  O46  1  0.52244700  0.60873700  0.88214300  1
  O  O47  1  0.77130400  0.59507300  0.96155100  1
loop_
_geom_bond_atom_site_label_1
_geom_bond_atom_site_label_2
_geom_bond_distance
_geom_bond_site_symmetry_2
Li0 O28 1.956855 1_555
Li0 O23 2.005981 1_555
Li0 O47 2.029204 1_554
Li0 O38 2.387805 1_555
Li1 O2 1.930972 1_555
Li1 O7 1.981519 1_555
Li1 O28 2.008218 1_555
Li2 O11 1.955669 1_555
Li2 O4 2.024451 1_555
Li2 O18 2.204997 1_555
Li2 O1 2.487707 1_555
Li3 O47 1.953998 1_555
Li3 O39 2.051701 1_555
Li3 O45 2.180997 1_655
Li3 O42 2.296248 1_555
Li4 O17 1.974831 1_555
Li4 O3 2.035933 1_555
Li4 O11 2.237401 1_555
Li4 O6 2.513623 1_555
Li5 O18 1.914009 1_555
Li5 O24 2.015634 1_555
Li5 O30 2.120300 1_545
Li6 O2 2.345912 1_555
Li6 O45 2.351632 1_654
Li6 O28 2.366867 1_555
Li6 O47 2.382368 1_554
Li6 O19 2.397707 1_654
Li6 O0 2.413232 1_655
Li7 O30 2.345912 1_555
Li7 O17 2.351632 1_565
Li7 O36 2.366867 1_555
Li7 O29 2.382368 1_555
Li7 O11 2.397707 1_565
Li7 O18 2.413232 1_565
Li8 O29 1.953998 1_555
Li8 O22 2.051701 1_555
Li8 O17 2.180997 1_565
Li8 O37 2.296248 1_555
Li9 O0 1.914009 1_555
Li9 O8 2.015634 1_555
Li9 O2 2.120300 1_455
Li10 O30 1.930972 1_555
Li10 O44 1.981522 1_555
Li10 O36 2.008218 1_555
Li11 O36 1.956855 1_555
Li11 O43 2.005981 1_555
Li11 O29 2.029204 1_555
Li11 O46 2.387801 1_555
Li12 O45 1.974831 1_555
Li12 O40 2.035933 1_555
Li12 O19 2.237401 1_555
Li12 O33 2.513623 1_555
Li13 O19 1.955669 1_555
Li13 O25 2.024451 1_555
Li13 O0 2.204997 1_556
Li13 O9 2.487707 1_555
Fe0 O38 2.081491 1_555
Fe0 O37 2.109262 1_555
Fe0 O43 2.130033 1_555
Fe0 O15 2.163583 1_555
Fe0 O16 2.167610 1_555
Fe0 O7 2.188509 1_555
Fe1 O14 1.952086 1_465
Fe1 O6 1.973928 1_465
Fe1 O22 2.043259 1_455
Fe1 O12 2.084265 1_555
Fe1 O8 2.091858 1_565
Fe1 O27 2.099117 1_555
Fe2 O46 2.081484 1_554
Fe2 O42 2.109262 1_554
Fe2 O23 2.130033 1_555
Fe2 O13 2.163583 1_555
Fe2 O26 2.167610 1_555
Fe2 O44 2.188517 1_554
Fe3 O16 1.971915 1_555
Fe3 O15 1.971915 1_555
Fe3 O20 2.000699 1_555
Fe3 O21 2.018626 1_555
Fe3 O34 2.032294 1_555
Fe3 O35 2.047106 1_555
Fe4 O26 1.971915 1_555
Fe4 O13 1.971915 1_555
Fe4 O32 2.000699 1_555
Fe4 O12 2.018626 1_555
Fe4 O31 2.032294 1_555
Fe4 O27 2.047106 1_555
Fe5 O41 1.952086 1_645
Fe5 O33 1.973928 1_645
Fe5 O39 2.043259 1_545
Fe5 O21 2.084265 1_555
Fe5 O24 2.091858 1_655
Fe5 O35 2.099117 1_555
Fe6 O1 1.968450 1_556
Fe6 O5 1.969633 1_556
Fe6 O25 2.064809 1_555
Fe6 O3 2.080726 1_556
Fe6 O20 2.086820 1_555
Fe6 O34 2.099643 1_555
Fe7 O9 1.968450 1_555
Fe7 O10 1.969633 1_555
Fe7 O4 2.064809 1_555
Fe7 O40 2.080726 1_555
Fe7 O32 2.086820 1_555
Fe7 O31 2.099643 1_555
O0 P0 1.532203 1_555
O1 P0 1.560014 1_555
O2 P1 1.535606 1_555
O3 P1 1.556762 1_555
O4 P0 1.561576 1_555
O5 P2 1.560639 1_555
O6 P1 1.555706 1_555
O7 P3 1.541986 1_555
O8 P2 1.563816 1_555
O9 P4 1.560014 1_555
O10 P5 1.560639 1_555
O11 P2 1.534755 1_555
O12 P10 1.587021 1_554
O13 P2 1.562926 1_565
O14 P3 1.560298 1_555
O15 P5 1.562926 1_655
O16 P4 1.565122 1_555
O17 P3 1.537449 1_555
O18 P4 1.532203 1_555
O19 P5 1.534755 1_555
O20 P11 1.599284 1_555
O21 P3 1.587021 1_555
O22 P6 1.565620 1_555
O23 P7 1.545833 1_555
O24 P5 1.563816 1_555
O25 P4 1.561576 1_555
O26 P0 1.565122 1_555
O27 P8 1.579288 1_555
O28 P6 1.541888 1_555
O29 P7 1.543553 1_555
O30 P8 1.535606 1_555
O31 P6 1.586080 1_455
O32 P7 1.599284 1_555
O33 P8 1.555706 1_555
O34 P9 1.586080 1_545
O35 P1 1.579288 1_556
O36 P9 1.541888 1_555
O37 P6 1.536632 1_555
O38 P7 1.540712 1_555
O39 P9 1.565620 1_555
O40 P8 1.556762 1_555
O41 P10 1.560298 1_555
O42 P9 1.536632 1_555
O43 P11 1.545833 1_555
O44 P10 1.541977 1_555
O45 P10 1.537449 1_555
O46 P11 1.540716 1_555
O47 P11 1.543553 1_555
