# generated using pymatgen
data_Li3Mn2(PO4)3
_symmetry_space_group_name_H-M   'P 1'
_cell_length_a   9.82764404
_cell_length_b   9.82764404
_cell_length_c   9.75425312
_cell_angle_alpha   86.56673467
_cell_angle_beta   86.56673467
_cell_angle_gamma   84.78111923
_symmetry_Int_Tables_number   1
_chemical_formula_structural   Li3Mn2(PO4)3
_chemical_formula_sum   'Li12 Mn8 P12 O48'
_cell_volume   935.09635415
_cell_formula_units_Z   4
loop_
 _symmetry_equiv_pos_site_id
 _symmetry_equiv_pos_as_xyz
  1  'x, y, z'
loop_
 _atom_site_type_symbol
 _atom_site_label
 _atom_site_symmetry_multiplicity
 _atom_site_fract_x
 _atom_site_fract_y
 _atom_site_fract_z
 _atom_site_occupancy
  Li  Li0  1  0.01365300  0.49412100  0.76977400  1
  Li  Li1  1  0.38044900  0.24962500  0.20242900  1
  Li  Li2  1  0.21364100  0.43783200  0.53651700  1
  Li  Li3  1  0.23489500  0.26884900  0.82112700  1
  Li  Li4  1  0.70115800  0.07357000  0.01569500  1
  Li  Li5  1  0.99080900  0.74323900  0.61927900  1
  Li  Li6  1  0.25676100  0.00919100  0.38072100  1
  Li  Li7  1  0.92643000  0.29884200  0.98430500  1
  Li  Li8  1  0.73115100  0.76510500  0.17887300  1
  Li  Li9  1  0.56216800  0.78635900  0.46348300  1
  Li  Li10  1  0.75037500  0.61955100  0.79757100  1
  Li  Li11  1  0.50587900  0.98634700  0.23022600  1
  Mn  Mn0  1  0.02750000  0.73093000  0.22108500  1
  Mn  Mn1  1  0.76547700  0.03161300  0.71682500  1
  Mn  Mn2  1  0.52718000  0.47282000  0.50000000  1
  Mn  Mn3  1  0.74332400  0.25667600  0.50000000  1
  Mn  Mn4  1  0.24473300  0.75526700  0.00000000  1
  Mn  Mn5  1  0.46899800  0.53100200  0.00000000  1
  Mn  Mn6  1  0.96838700  0.23452300  0.28317500  1
  Mn  Mn7  1  0.26907000  0.97250000  0.77891500  1
  P  P0  1  0.17873100  0.05543100  0.08658600  1
  P  P1  1  0.05290700  0.17288500  0.60155800  1
  P  P2  1  0.14965600  0.43877000  0.08565000  1
  P  P3  1  0.44595600  0.17228100  0.55866800  1
  P  P4  1  0.65534800  0.32357100  0.19242500  1
  P  P5  1  0.34189900  0.68655200  0.29606000  1
  P  P6  1  0.31344800  0.65810100  0.70394000  1
  P  P7  1  0.67642900  0.34465200  0.80757500  1
  P  P8  1  0.82771900  0.55404400  0.44133200  1
  P  P9  1  0.56123000  0.85034400  0.91435000  1
  P  P10  1  0.82711500  0.94709300  0.39844200  1
  P  P11  1  0.94456900  0.82126900  0.91341400  1
  O  O0  1  0.03430700  0.12491000  0.11803700  1
  O  O1  1  0.11981300  0.03616700  0.66334500  1
  O  O2  1  0.08383200  0.17039400  0.44299400  1
  O  O3  1  0.21209200  0.09387700  0.93094000  1
  O  O4  1  0.28642600  0.09190100  0.18169400  1
  O  O5  1  0.09997000  0.30100000  0.66089600  1
  O  O6  1  0.08404200  0.37504100  0.22106700  1
  O  O7  1  0.40355300  0.10502900  0.43438700  1
  O  O8  1  0.38002400  0.12870000  0.69910800  1
  O  O9  1  0.09231900  0.39523900  0.95317800  1
  O  O10  1  0.11636700  0.59921000  0.09304200  1
  O  O11  1  0.30619500  0.40440600  0.08568800  1
  O  O12  1  0.58521100  0.20167900  0.14807100  1
  O  O13  1  0.40524500  0.33292100  0.54700000  1
  O  O14  1  0.60754100  0.13882300  0.56716300  1
  O  O15  1  0.18734500  0.59359100  0.66052200  1
  O  O16  1  0.18510100  0.69767800  0.33011500  1
  O  O17  1  0.69256000  0.18747600  0.84043300  1
  O  O18  1  0.39476500  0.54875300  0.36260300  1
  O  O19  1  0.62167800  0.33599800  0.35186800  1
  O  O20  1  0.83272700  0.10804300  0.36587500  1
  O  O21  1  0.17285000  0.89575100  0.11592400  1
  O  O22  1  0.53541200  0.39878500  0.87290100  1
  O  O23  1  0.37692800  0.67517400  0.13264600  1
  O  O24  1  0.32482600  0.62307200  0.86735400  1
  O  O25  1  0.60121500  0.46458800  0.12709900  1
  O  O26  1  0.10424900  0.82715000  0.88407600  1
  O  O27  1  0.89195700  0.16727300  0.63412500  1
  O  O28  1  0.66400200  0.37832200  0.64813200  1
  O  O29  1  0.45124700  0.60523500  0.63739700  1
  O  O30  1  0.81252400  0.30744000  0.15956700  1
  O  O31  1  0.30232200  0.81489900  0.66988500  1
  O  O32  1  0.40640900  0.81265500  0.33947800  1
  O  O33  1  0.86117700  0.39245900  0.43283700  1
  O  O34  1  0.66707900  0.59475500  0.45300000  1
  O  O35  1  0.79832100  0.41478900  0.85192900  1
  O  O36  1  0.59559400  0.69380500  0.91431200  1
  O  O37  1  0.40079000  0.88363300  0.90695800  1
  O  O38  1  0.60476100  0.90768100  0.04682200  1
  O  O39  1  0.87130000  0.61997600  0.30089200  1
  O  O40  1  0.89497100  0.59644700  0.56561300  1
  O  O41  1  0.62495900  0.91595800  0.77893300  1
  O  O42  1  0.69900000  0.90003000  0.33910400  1
  O  O43  1  0.90809900  0.71357400  0.81830600  1
  O  O44  1  0.90612300  0.78790800  0.06906000  1
  O  O45  1  0.82960600  0.91616800  0.55700600  1
  O  O46  1  0.96383300  0.88018700  0.33665500  1
  O  O47  1  0.87509000  0.96569300  0.88196300  1
loop_
_geom_bond_atom_site_label_1
_geom_bond_atom_site_label_2
_geom_bond_distance
_geom_bond_site_symmetry_2
Li0 O9 2.136165 1_555
Li0 O15 2.228448 1_555
Li0 O5 2.300051 1_555
Li0 O43 2.368129 1_455
Li0 O35 2.398033 1_455
Li0 O40 2.482432 1_455
Li1 O4 1.902077 1_555
Li1 O11 1.957851 1_555
Li1 O12 2.069361 1_555
Li2 O15 1.996346 1_555
Li2 O13 2.067962 1_555
Li2 O5 2.108017 1_555
Li3 O3 1.993793 1_555
Li3 O5 2.100884 1_555
Li3 O9 2.196385 1_555
Li3 O8 2.232386 1_555
Li4 O38 1.958258 1_545
Li4 O17 1.988392 1_554
Li4 O12 2.075645 1_555
Li4 O47 2.305716 1_544
Li5 O40 1.907607 1_555
Li5 O43 2.073863 1_555
Li5 O45 2.295400 1_555
Li5 O15 2.358142 1_655
Li6 O7 1.907607 1_555
Li6 O4 2.073863 1_555
Li6 O2 2.295400 1_555
Li6 O32 2.358142 1_545
Li7 O9 1.958258 1_655
Li7 O30 1.988392 1_556
Li7 O35 2.075645 1_555
Li7 O0 2.305716 1_656
Li8 O44 1.993793 1_555
Li8 O42 2.100884 1_555
Li8 O38 2.196385 1_555
Li8 O39 2.232386 1_555
Li9 O32 1.996346 1_555
Li9 O34 2.067962 1_555
Li9 O42 2.108017 1_555
Li10 O43 1.902077 1_555
Li10 O36 1.957851 1_555
Li10 O35 2.069361 1_555
Li11 O38 2.136165 1_555
Li11 O32 2.228448 1_555
Li11 O42 2.300051 1_555
Li11 O4 2.368129 1_565
Li11 O12 2.398033 1_565
Li11 O7 2.482432 1_565
Mn0 O16 1.923628 1_555
Mn0 O46 1.939210 1_455
Mn0 O10 1.963595 1_555
Mn0 O44 1.981490 1_455
Mn0 O39 2.052118 1_455
Mn0 O21 2.400594 1_555
Mn1 O41 1.915421 1_545
Mn1 O27 2.006445 1_555
Mn1 O45 2.019581 1_545
Mn1 O47 2.032410 1_545
Mn1 O17 2.057079 1_555
Mn1 O14 2.332391 1_555
Mn2 O13 1.922213 1_555
Mn2 O34 1.922213 1_555
Mn2 O29 1.989703 1_555
Mn2 O18 1.989703 1_555
Mn2 O19 2.145487 1_555
Mn2 O28 2.145487 1_555
Mn3 O33 1.907075 1_555
Mn3 O14 1.907075 1_555
Mn3 O19 2.006771 1_555
Mn3 O28 2.006771 1_555
Mn3 O20 2.115421 1_555
Mn3 O27 2.115421 1_555
Mn4 O21 1.896750 1_555
Mn4 O26 1.896750 1_554
Mn4 O23 1.968450 1_555
Mn4 O24 1.968450 1_554
Mn4 O37 2.194407 1_554
Mn4 O10 2.194407 1_555
Mn5 O22 1.895556 1_554
Mn5 O25 1.895556 1_555
Mn5 O24 2.084813 1_554
Mn5 O23 2.084813 1_555
Mn5 O11 2.209932 1_555
Mn5 O36 2.209932 1_554
Mn6 O6 1.915421 1_655
Mn6 O20 2.006445 1_555
Mn6 O2 2.019581 1_655
Mn6 O0 2.032410 1_655
Mn6 O30 2.057079 1_555
Mn6 O33 2.332391 1_555
Mn7 O31 1.923628 1_555
Mn7 O1 1.939210 1_565
Mn7 O37 1.963595 1_555
Mn7 O3 1.981490 1_565
Mn7 O8 2.052118 1_565
Mn7 O26 2.400594 1_555
O0 P0 1.539976 1_555
O1 P1 1.546167 1_555
O2 P1 1.559502 1_555
O3 P0 1.565064 1_556
O4 P0 1.528307 1_555
O5 P1 1.536057 1_555
O6 P2 1.557303 1_555
O7 P3 1.512169 1_555
O8 P3 1.534203 1_555
O9 P2 1.538669 1_556
O10 P2 1.585973 1_555
O11 P2 1.544763 1_555
O12 P4 1.531431 1_555
O13 P3 1.591976 1_555
O14 P3 1.598197 1_555
O15 P6 1.534634 1_555
O16 P5 1.552170 1_555
O17 P7 1.554381 1_555
O18 P5 1.527190 1_555
O19 P4 1.580178 1_555
O20 P10 1.599846 1_545
O21 P0 1.583856 1_565
O22 P7 1.552541 1_555
O23 P5 1.618769 1_555
O24 P6 1.618769 1_555
O25 P4 1.552541 1_555
O26 P11 1.583856 1_455
O27 P1 1.599846 1_655
O28 P7 1.580178 1_555
O29 P6 1.527190 1_555
O30 P4 1.554381 1_555
O31 P6 1.552170 1_555
O32 P5 1.534634 1_555
O33 P8 1.598197 1_555
O34 P8 1.591976 1_555
O35 P7 1.531431 1_555
O36 P9 1.544763 1_555
O37 P9 1.585973 1_555
O38 P9 1.538669 1_554
O39 P8 1.534203 1_555
O40 P8 1.512169 1_555
O41 P9 1.557303 1_555
O42 P10 1.536057 1_555
O43 P11 1.528307 1_555
O44 P11 1.565064 1_554
O45 P10 1.559502 1_555
O46 P10 1.546167 1_555
O47 P11 1.539976 1_555
