# generated using pymatgen
data_Li2CrP4(H4O5)4
_symmetry_space_group_name_H-M   'P 1'
_cell_length_a   10.70109100
_cell_length_b   7.18496600
_cell_length_c   12.12169209
_cell_angle_alpha   63.51508071
_cell_angle_beta   90.00000000
_cell_angle_gamma   90.00000000
_symmetry_Int_Tables_number   1
_chemical_formula_structural   Li2CrP4(H4O5)4
_chemical_formula_sum   'Li4 Cr2 P8 H32 O40'
_cell_volume   834.18846449
_cell_formula_units_Z   2
loop_
 _symmetry_equiv_pos_site_id
 _symmetry_equiv_pos_as_xyz
  1  'x, y, z'
loop_
 _atom_site_type_symbol
 _atom_site_label
 _atom_site_symmetry_multiplicity
 _atom_site_fract_x
 _atom_site_fract_y
 _atom_site_fract_z
 _atom_site_occupancy
  Li  Li0  1  0.83629700  0.20419900  0.04224000  1
  Li  Li1  1  0.33629700  0.79580100  0.45776000  1
  Li  Li2  1  0.66370300  0.20419900  0.54224000  1
  Li  Li3  1  0.16370300  0.79580100  0.95776000  1
  Cr  Cr0  1  0.50000000  0.50000000  0.00000000  1
  Cr  Cr1  1  0.00000000  0.50000000  0.50000000  1
  P  P0  1  0.73993900  0.68389100  0.58367500  1
  P  P1  1  0.23993900  0.31610900  0.91632500  1
  P  P2  1  0.54489000  0.04050400  0.22197400  1
  P  P3  1  0.04489000  0.95949600  0.27802600  1
  P  P4  1  0.95511000  0.04050400  0.72197400  1
  P  P5  1  0.45511000  0.95949600  0.77802600  1
  P  P6  1  0.76006100  0.68389100  0.08367500  1
  P  P7  1  0.26006100  0.31610900  0.41632500  1
  H  H0  1  0.09837300  0.74604100  0.60685500  1
  H  H1  1  0.46111400  0.66562800  0.69171500  1
  H  H2  1  0.06703900  0.48287500  0.89529800  1
  H  H3  1  0.87716400  0.50651900  0.81075800  1
  H  H4  1  0.67297500  0.46454300  0.84161300  1
  H  H5  1  0.20982200  0.13666400  0.28858600  1
  H  H6  1  0.17297500  0.53545700  0.65838700  1
  H  H7  1  0.37716400  0.49348100  0.68924200  1
  H  H8  1  0.91394100  0.91057900  0.42491800  1
  H  H9  1  0.60597200  0.90257800  0.44513700  1
  H  H10  1  0.56703900  0.51712500  0.60470200  1
  H  H11  1  0.96111400  0.33437200  0.80828500  1
  H  H12  1  0.59837300  0.25395900  0.89314500  1
  H  H13  1  0.10597200  0.09742200  0.05486300  1
  H  H14  1  0.41394100  0.08942100  0.07508200  1
  H  H15  1  0.70982200  0.86333600  0.21141400  1
  H  H16  1  0.29017800  0.13666400  0.78858600  1
  H  H17  1  0.58605900  0.91057900  0.92491800  1
  H  H18  1  0.89402800  0.90257800  0.94513700  1
  H  H19  1  0.40162700  0.74604100  0.10685500  1
  H  H20  1  0.03888600  0.66562800  0.19171500  1
  H  H21  1  0.43296100  0.48287500  0.39529800  1
  H  H22  1  0.39402800  0.09742200  0.55486300  1
  H  H23  1  0.08605900  0.08942100  0.57508200  1
  H  H24  1  0.62283600  0.50651900  0.31075800  1
  H  H25  1  0.82702500  0.46454300  0.34161300  1
  H  H26  1  0.79017800  0.86333600  0.71141400  1
  H  H27  1  0.32702500  0.53545700  0.15838700  1
  H  H28  1  0.12283600  0.49348100  0.18924200  1
  H  H29  1  0.93296100  0.51712500  0.10470200  1
  H  H30  1  0.53888600  0.33437200  0.30828500  1
  H  H31  1  0.90162700  0.25395900  0.39314500  1
  O  O0  1  0.66690700  0.89635800  0.51537700  1
  O  O1  1  0.75827900  0.64950400  0.71707100  1
  O  O2  1  0.15670500  0.49612900  0.92098900  1
  O  O3  1  0.52589200  0.27219400  0.18086700  1
  O  O4  1  0.43855600  0.60103100  0.63661600  1
  O  O5  1  0.14618200  0.65536500  0.58075200  1
  O  O6  1  0.86130300  0.69400200  0.51587500  1
  O  O7  1  0.36130300  0.30599800  0.98412500  1
  O  O8  1  0.64618200  0.34463500  0.91924800  1
  O  O9  1  0.93855600  0.39896900  0.86338400  1
  O  O10  1  0.96151200  0.03429000  0.35974500  1
  O  O11  1  0.18720100  0.98708000  0.30622100  1
  O  O12  1  0.65670500  0.50387100  0.57901100  1
  O  O13  1  0.01405300  0.09808900  0.14273900  1
  O  O14  1  0.25827900  0.35049600  0.78292900  1
  O  O15  1  0.51405300  0.90191100  0.35726100  1
  O  O16  1  0.68720100  0.01292000  0.19377900  1
  O  O17  1  0.16690700  0.10364200  0.98462300  1
  O  O18  1  0.46151200  0.96571000  0.14025500  1
  O  O19  1  0.97410800  0.27219400  0.68086700  1
  O  O20  1  0.02589200  0.72780600  0.31913300  1
  O  O21  1  0.53848800  0.03429000  0.85974500  1
  O  O22  1  0.83309300  0.89635800  0.01537700  1
  O  O23  1  0.31279900  0.98708000  0.80622100  1
  O  O24  1  0.48594700  0.09808900  0.64273900  1
  O  O25  1  0.74172100  0.64950400  0.21707100  1
  O  O26  1  0.98594700  0.90191100  0.85726100  1
  O  O27  1  0.34329500  0.49612900  0.42098900  1
  O  O28  1  0.81279900  0.01292000  0.69377900  1
  O  O29  1  0.03848800  0.96571000  0.64025500  1
  O  O30  1  0.06144400  0.60103100  0.13661600  1
  O  O31  1  0.35381800  0.65536500  0.08075200  1
  O  O32  1  0.63869700  0.69400200  0.01587500  1
  O  O33  1  0.13869700  0.30599800  0.48412500  1
  O  O34  1  0.85381800  0.34463500  0.41924800  1
  O  O35  1  0.56144400  0.39896900  0.36338400  1
  O  O36  1  0.47410800  0.72780600  0.81913300  1
  O  O37  1  0.84329500  0.50387100  0.07901100  1
  O  O38  1  0.24172100  0.35049600  0.28292900  1
  O  O39  1  0.33309300  0.10364200  0.48462300  1
loop_
_geom_bond_atom_site_label_1
_geom_bond_atom_site_label_2
_geom_bond_distance
_geom_bond_site_symmetry_2
Li0 O13 2.203455 1_655
Li0 O9 2.269387 1_554
Li0 O16 2.357314 1_555
Li0 O22 2.375242 1_545
Li0 O37 2.386682 1_555
Li0 O8 2.457239 1_554
Li1 O15 2.203455 1_555
Li1 O4 2.269387 1_555
Li1 O11 2.357314 1_555
Li1 O39 2.375242 1_565
Li1 O27 2.386682 1_555
Li1 O5 2.457239 1_555
Li2 O24 2.203455 1_555
Li2 O35 2.269387 1_555
Li2 O28 2.357314 1_555
Li2 O0 2.375242 1_545
Li2 O12 2.386682 1_555
Li2 O34 2.457239 1_555
Li3 O26 2.203455 1_455
Li3 O30 2.269387 1_556
Li3 O23 2.357314 1_555
Li3 O17 2.375242 1_565
Li3 O2 2.386682 1_555
Li3 O31 2.457239 1_556
Cr0 O3 2.088498 1_555
Cr0 O36 2.088498 1_554
Cr0 O32 2.102879 1_555
Cr0 O7 2.102879 1_554
Cr0 O31 2.371899 1_555
Cr0 O8 2.371899 1_554
Cr1 O19 2.088498 1_455
Cr1 O20 2.088498 1_555
Cr1 O6 2.102879 1_455
Cr1 O33 2.102879 1_555
Cr1 O34 2.371899 1_455
Cr1 O5 2.371899 1_555
H0 O5 0.984978 1_555
H1 O4 0.998124 1_555
H2 O2 1.026249 1_555
H2 O9 1.616008 1_455
H3 O9 0.997997 1_555
H4 O8 0.993437 1_555
H5 O11 1.026878 1_545
H5 O38 1.545221 1_555
H6 O5 0.993437 1_555
H7 O4 0.997997 1_555
H8 O10 1.023236 1_565
H8 O6 1.556951 1_555
H9 O0 1.057442 1_555
H9 O15 1.451473 1_555
H10 O12 1.026249 1_555
H10 O4 1.616008 1_555
H11 O9 0.998124 1_555
H12 O8 0.984978 1_555
H13 O17 1.057442 1_554
H13 O13 1.451473 1_555
H14 O18 1.023236 1_545
H14 O7 1.556951 1_554
H15 O16 1.026878 1_565
H15 O25 1.545221 1_555
H16 O23 1.026878 1_545
H16 O14 1.545221 1_555
H17 O21 1.023236 1_565
H17 O32 1.556951 1_556
H18 O22 1.057442 1_556
H18 O26 1.451473 1_555
H19 O31 0.984978 1_555
H20 O30 0.998124 1_555
H21 O27 1.026249 1_555
H21 O35 1.616008 1_555
H22 O39 1.057442 1_555
H22 O24 1.451473 1_555
H23 O29 1.023236 1_545
H23 O33 1.556951 1_555
H24 O35 0.997997 1_555
H25 O34 0.993437 1_555
H26 O28 1.026878 1_565
H26 O1 1.545221 1_555
H27 O31 0.993437 1_555
H28 O30 0.997997 1_555
H29 O37 1.026249 1_555
H29 O30 1.616008 1_655
H30 O35 0.998124 1_555
H31 O34 0.984978 1_555
O0 P0 1.580932 1_555
O1 P0 1.535536 1_555
O2 P1 1.592085 1_555
O3 P2 1.523467 1_555
O6 P0 1.521235 1_555
O7 P1 1.521235 1_555
O10 P3 1.594021 1_645
O11 P3 1.592380 1_555
O12 P0 1.592085 1_555
O13 P3 1.527504 1_545
O14 P1 1.535536 1_555
O15 P2 1.527504 1_565
O16 P2 1.592380 1_555
O17 P1 1.580932 1_555
O18 P2 1.594021 1_565
O19 P4 1.523467 1_555
O20 P3 1.523467 1_555
O21 P5 1.594021 1_545
O22 P6 1.580932 1_555
O23 P5 1.592380 1_555
O24 P5 1.527504 1_545
O25 P6 1.535536 1_555
O26 P4 1.527504 1_565
O27 P7 1.592085 1_555
O28 P4 1.592380 1_555
O29 P4 1.594021 1_465
O32 P6 1.521235 1_555
O33 P7 1.521235 1_555
O36 P5 1.523467 1_555
O37 P6 1.592085 1_555
O38 P7 1.535536 1_555
O39 P7 1.580932 1_555
