# generated using pymatgen
data_Li7Mn4O12
_symmetry_space_group_name_H-M   'P 1'
_cell_length_a   4.99970900
_cell_length_b   4.99944444
_cell_length_c   9.73975430
_cell_angle_alpha   94.37889420
_cell_angle_beta   94.51922341
_cell_angle_gamma   119.54688422
_symmetry_Int_Tables_number   1
_chemical_formula_structural   Li7Mn4O12
_chemical_formula_sum   'Li7 Mn4 O12'
_cell_volume   209.26249104
_cell_formula_units_Z   1
loop_
 _symmetry_equiv_pos_site_id
 _symmetry_equiv_pos_as_xyz
  1  'x, y, z'
loop_
 _atom_site_type_symbol
 _atom_site_label
 _atom_site_symmetry_multiplicity
 _atom_site_fract_x
 _atom_site_fract_y
 _atom_site_fract_z
 _atom_site_occupancy
  Li  Li0  1  0.49756500  0.99607900  0.00048200  1
  Li  Li1  1  0.36667500  0.17715500  0.50609900  1
  Li  Li2  1  0.99555100  0.49782600  0.50029300  1
  Li  Li3  1  0.81751700  0.62645700  0.99241400  1
  Li  Li4  1  0.12867900  0.31599500  0.99333000  1
  Li  Li5  1  0.66221600  0.85140600  0.50007000  1
  Li  Li6  1  0.25227300  0.74712700  0.24841100  1
  Mn  Mn0  1  0.92192300  0.08055800  0.25003200  1
  Mn  Mn1  1  0.58567600  0.41633700  0.24962100  1
  Mn  Mn2  1  0.41353600  0.58236500  0.74958600  1
  Mn  Mn3  1  0.07938400  0.91686000  0.74925600  1
  O  O0  1  0.64791100  0.14284100  0.36452400  1
  O  O1  1  0.85795700  0.35295700  0.13464400  1
  O  O2  1  0.22092700  0.07356100  0.13869400  1
  O  O3  1  0.40821700  0.28220500  0.86347100  1
  O  O4  1  0.08634500  0.21693900  0.63554500  1
  O  O5  1  0.71313700  0.58872200  0.63528400  1
  O  O6  1  0.28770400  0.42547700  0.36122500  1
  O  O7  1  0.92935000  0.78097100  0.36106300  1
  O  O8  1  0.57882600  0.71637400  0.13869100  1
  O  O9  1  0.78052400  0.90958000  0.86382800  1
  O  O10  1  0.15534400  0.65742800  0.86571000  1
  O  O11  1  0.33789100  0.84088400  0.63317600  1
loop_
_geom_bond_atom_site_label_1
_geom_bond_atom_site_label_2
_geom_bond_distance
_geom_bond_site_symmetry_2
Li0 O10 1.991652 1_554
Li0 O1 2.059060 1_565
Li0 O2 2.148805 1_565
Li0 O8 2.166596 1_555
Li0 O9 2.184524 1_554
Li0 O3 2.203261 1_564
Li1 O4 2.026972 1_555
Li1 O6 2.085982 1_555
Li1 O0 2.101249 1_555
Li1 O11 2.118048 1_545
Li1 O5 2.136202 1_555
Li1 O7 2.348210 1_445
Li2 O11 1.990703 1_655
Li2 O0 2.038726 1_555
Li2 O7 2.153322 1_555
Li2 O4 2.174939 1_655
Li2 O5 2.182434 1_555
Li2 O6 2.203884 1_655
Li3 O9 2.024505 1_555
Li3 O1 2.085020 1_556
Li3 O8 2.086927 1_556
Li3 O10 2.121191 1_655
Li3 O3 2.125630 1_555
Li3 O2 2.389282 1_666
Li4 O3 2.015031 1_555
Li4 O1 2.064460 1_456
Li4 O2 2.096839 1_556
Li4 O9 2.126901 1_445
Li4 O10 2.145279 1_555
Li4 O8 2.387120 1_556
Li5 O5 2.016157 1_555
Li5 O0 2.062163 1_565
Li5 O7 2.101629 1_555
Li5 O11 2.137848 1_555
Li5 O4 2.223999 1_665
Li5 O6 2.257870 1_555
Li6 O2 2.078957 1_565
Li6 O8 2.080550 1_555
Li6 O6 2.084391 1_555
Li6 O7 2.087917 1_455
Li6 O1 2.118603 1_455
Li6 O0 2.133503 1_565
Mn0 O7 1.926138 1_545
Mn0 O2 1.926975 1_655
Mn0 O8 1.938698 1_545
Mn0 O6 1.945087 1_655
Mn0 O0 1.955954 1_555
Mn0 O1 1.956161 1_555
Mn1 O8 1.926364 1_555
Mn1 O6 1.928165 1_555
Mn1 O2 1.937575 1_555
Mn1 O7 1.941234 1_555
Mn1 O0 1.953780 1_555
Mn1 O1 1.954266 1_555
Mn2 O3 1.924169 1_555
Mn2 O4 1.924487 1_555
Mn2 O5 1.924938 1_555
Mn2 O9 1.928929 1_555
Mn2 O10 1.931183 1_555
Mn2 O11 1.933203 1_555
Mn3 O4 1.920102 1_565
Mn3 O9 1.922125 1_455
Mn3 O5 1.927534 1_455
Mn3 O3 1.927810 1_565
Mn3 O11 1.934385 1_555
Mn3 O10 1.937923 1_555
