# generated using pymatgen
data_Li3Mn(BO3)2
_symmetry_space_group_name_H-M   'P 1'
_cell_length_a   7.78690214
_cell_length_b   8.36745111
_cell_length_c   8.22910410
_cell_angle_alpha   102.60195743
_cell_angle_beta   106.32114042
_cell_angle_gamma   75.36981146
_symmetry_Int_Tables_number   1
_chemical_formula_structural   Li3Mn(BO3)2
_chemical_formula_sum   'Li12 Mn4 B8 O24'
_cell_volume   491.59308241
_cell_formula_units_Z   4
loop_
 _symmetry_equiv_pos_site_id
 _symmetry_equiv_pos_as_xyz
  1  'x, y, z'
loop_
 _atom_site_type_symbol
 _atom_site_label
 _atom_site_symmetry_multiplicity
 _atom_site_fract_x
 _atom_site_fract_y
 _atom_site_fract_z
 _atom_site_occupancy
  Li  Li0  1  0.06744300  0.58276400  0.30420500  1
  Li  Li1  1  0.06747200  0.08273000  0.80426500  1
  Li  Li2  1  0.93256500  0.41721700  0.69582400  1
  Li  Li3  1  0.93257700  0.91729000  0.19577300  1
  Li  Li4  1  0.38144400  0.54559400  0.11633700  1
  Li  Li5  1  0.38149800  0.04560800  0.61640000  1
  Li  Li6  1  0.61847400  0.45440800  0.88365100  1
  Li  Li7  1  0.61861000  0.95442500  0.38361400  1
  Li  Li8  1  0.71705000  0.66163600  0.16968800  1
  Li  Li9  1  0.71713100  0.16163200  0.66974900  1
  Li  Li10  1  0.28294300  0.33834700  0.83029700  1
  Li  Li11  1  0.28293900  0.83844800  0.33028600  1
  Mn  Mn0  1  0.72262800  0.83120700  0.75047600  1
  Mn  Mn1  1  0.27718900  0.16883400  0.24940400  1
  Mn  Mn2  1  0.72278900  0.33135800  0.25055700  1
  Mn  Mn3  1  0.27735100  0.66849400  0.74938000  1
  B  B0  1  0.61714700  0.15436100  0.98521000  1
  B  B1  1  0.61707400  0.65436500  0.48515100  1
  B  B2  1  0.38286300  0.84556500  0.01477900  1
  B  B3  1  0.38291700  0.34560600  0.51481100  1
  B  B4  1  0.05527000  0.67225800  0.99004800  1
  B  B5  1  0.05521900  0.17221800  0.49001500  1
  B  B6  1  0.94476900  0.32782500  0.01006200  1
  B  B7  1  0.94475100  0.82775400  0.50995800  1
  O  O0  1  0.25002700  0.39196400  0.37284600  1
  O  O1  1  0.24988400  0.89174400  0.87285400  1
  O  O2  1  0.74994100  0.60796700  0.62708500  1
  O  O3  1  0.74999800  0.10821200  0.12719400  1
  O  O4  1  0.12065000  0.22697900  0.04054400  1
  O  O5  1  0.12062300  0.72697300  0.54048100  1
  O  O6  1  0.87934700  0.77301800  0.95945400  1
  O  O7  1  0.87932500  0.27303800  0.45948000  1
  O  O8  1  0.58742400  0.55781500  0.32694700  1
  O  O9  1  0.58748900  0.05773100  0.82697400  1
  O  O10  1  0.41255200  0.44224600  0.67301600  1
  O  O11  1  0.41257400  0.94228700  0.17299300  1
  O  O12  1  0.52013400  0.31990700  0.01973700  1
  O  O13  1  0.52014600  0.81990600  0.51978600  1
  O  O14  1  0.47986200  0.68005800  0.98021300  1
  O  O15  1  0.47986900  0.18007300  0.48023400  1
  O  O16  1  0.15607200  0.69110100  0.15728900  1
  O  O17  1  0.15602400  0.19096700  0.65722400  1
  O  O18  1  0.84394000  0.30912800  0.84286900  1
  O  O19  1  0.84396200  0.80890900  0.34272300  1
  O  O20  1  0.87185900  0.44004200  0.13722200  1
  O  O21  1  0.87176500  0.93997000  0.63710600  1
  O  O22  1  0.12822200  0.55998500  0.86291200  1
  O  O23  1  0.12819900  0.06003700  0.36287800  1
loop_
_geom_bond_atom_site_label_1
_geom_bond_atom_site_label_2
_geom_bond_distance
_geom_bond_site_symmetry_2
Li0 O0 1.919585 1_555
Li0 O16 2.005720 1_555
Li0 O5 2.045509 1_555
Li0 O20 2.158789 1_455
Li0 O19 2.257062 1_455
Li1 O1 1.919975 1_545
Li1 O17 2.005605 1_555
Li1 O4 2.045671 1_556
Li1 O21 2.160075 1_445
Li1 O18 2.258721 1_455
Li2 O2 1.919644 1_555
Li2 O18 2.005158 1_555
Li2 O7 2.045867 1_555
Li2 O22 2.159670 1_655
Li2 O17 2.257615 1_655
Li3 O3 1.920155 1_565
Li3 O19 2.006122 1_555
Li3 O6 2.046041 1_554
Li3 O23 2.159429 1_665
Li3 O16 2.257304 1_655
Li4 O16 1.936433 1_555
Li4 O8 2.007480 1_555
Li4 O12 2.040006 1_555
Li4 O14 2.139170 1_554
Li4 O22 2.435188 1_554
Li5 O17 1.936311 1_555
Li5 O9 2.007290 1_555
Li5 O13 2.040001 1_545
Li5 O15 2.139198 1_555
Li5 O23 2.436042 1_555
Li6 O18 1.935922 1_555
Li6 O10 2.007320 1_555
Li6 O14 2.039436 1_555
Li6 O12 2.138778 1_556
Li6 O20 2.436656 1_556
Li7 O19 1.936190 1_555
Li7 O11 2.007740 1_555
Li7 O15 2.039992 1_565
Li7 O13 2.140027 1_555
Li7 O21 2.435267 1_555
Li8 O19 1.892454 1_555
Li8 O20 1.948916 1_555
Li8 O14 2.051498 1_554
Li8 O8 2.261835 1_555
Li9 O18 1.893553 1_555
Li9 O21 1.948935 1_545
Li9 O15 2.052058 1_555
Li9 O9 2.262120 1_555
Li10 O17 1.893179 1_555
Li10 O22 1.949040 1_555
Li10 O12 2.051365 1_556
Li10 O10 2.262289 1_555
Li11 O16 1.892526 1_555
Li11 O23 1.948768 1_565
Li11 O13 2.051719 1_555
Li11 O11 2.262197 1_555
Mn0 O6 1.889282 1_555
Mn0 O2 1.912735 1_555
Mn0 O9 1.985040 1_565
Mn0 O13 2.100824 1_555
Mn0 O21 2.135543 1_555
Mn1 O4 1.887956 1_555
Mn1 O0 1.912099 1_555
Mn1 O11 1.985725 1_545
Mn1 O15 2.102374 1_555
Mn1 O23 2.135429 1_555
Mn2 O7 1.888786 1_555
Mn2 O3 1.911988 1_555
Mn2 O8 1.985055 1_555
Mn2 O12 2.102286 1_555
Mn2 O20 2.134507 1_555
Mn3 O5 1.889507 1_555
Mn3 O1 1.913060 1_555
Mn3 O10 1.983202 1_555
Mn3 O14 2.101825 1_555
Mn3 O22 2.135006 1_555
B0 O9 1.366950 1_555
B0 O3 1.378474 1_556
B0 O12 1.410839 1_556
B1 O8 1.366457 1_555
B1 O2 1.378817 1_555
B1 O13 1.410701 1_555
B2 O11 1.367159 1_555
B2 O1 1.378645 1_554
B2 O14 1.410584 1_554
B3 O10 1.366779 1_555
B3 O0 1.378982 1_555
B3 O15 1.410645 1_555
B4 O16 1.376848 1_556
B4 O22 1.391184 1_555
B4 O6 1.402199 1_455
B5 O17 1.376609 1_555
B5 O23 1.390974 1_555
B5 O7 1.402204 1_455
B6 O18 1.376544 1_554
B6 O20 1.390988 1_555
B6 O4 1.402196 1_655
B7 O19 1.376776 1_555
B7 O21 1.391179 1_555
B7 O5 1.401939 1_655
