# generated using pymatgen
data_Y2GeO5
_symmetry_space_group_name_H-M   'P 1'
_cell_length_a   3.69471878
_cell_length_b   10.26812966
_cell_length_c   11.01853464
_cell_angle_alpha   90.00000000
_cell_angle_beta   90.00000000
_cell_angle_gamma   90.00000000
_symmetry_Int_Tables_number   1
_chemical_formula_structural   Y2GeO5
_chemical_formula_sum   'Y8 Ge4 O20'
_cell_volume   418.01953081
_cell_formula_units_Z   4
loop_
 _symmetry_equiv_pos_site_id
 _symmetry_equiv_pos_as_xyz
  1  'x, y, z'
loop_
 _atom_site_type_symbol
 _atom_site_label
 _atom_site_symmetry_multiplicity
 _atom_site_fract_x
 _atom_site_fract_y
 _atom_site_fract_z
 _atom_site_occupancy
  Y  Y0  1  0.25000000  0.10767889  0.21921215  1
  Y  Y1  1  0.25000000  0.13631182  0.55565910  1
  Y  Y2  1  0.75000000  0.36368818  0.05565910  1
  Y  Y3  1  0.75000000  0.39232111  0.71921215  1
  Y  Y4  1  0.25000000  0.60767889  0.28078785  1
  Y  Y5  1  0.25000000  0.63631182  0.94434090  1
  Y  Y6  1  0.75000000  0.86368818  0.44434090  1
  Y  Y7  1  0.75000000  0.89232111  0.78078785  1
  Ge  Ge0  1  0.25000000  0.17722008  0.87783503  1
  Ge  Ge1  1  0.75000000  0.32277992  0.37783503  1
  Ge  Ge2  1  0.25000000  0.67722008  0.62216497  1
  Ge  Ge3  1  0.75000000  0.82277992  0.12216497  1
  O  O0  1  0.75000000  0.00787823  0.60489260  1
  O  O1  1  0.25000000  0.01104738  0.84424595  1
  O  O2  1  0.25000000  0.22429628  0.03604839  1
  O  O3  1  0.75000000  0.23005388  0.88015606  1
  O  O4  1  0.75000000  0.23986297  0.23109344  1
  O  O5  1  0.25000000  0.26013703  0.73109344  1
  O  O6  1  0.25000000  0.26994612  0.38015606  1
  O  O7  1  0.75000000  0.27570372  0.53604839  1
  O  O8  1  0.75000000  0.48895262  0.34424595  1
  O  O9  1  0.25000000  0.49212177  0.10489260  1
  O  O10  1  0.75000000  0.50787823  0.89510740  1
  O  O11  1  0.25000000  0.51104738  0.65575405  1
  O  O12  1  0.25000000  0.72429628  0.46395161  1
  O  O13  1  0.75000000  0.73005388  0.61984394  1
  O  O14  1  0.75000000  0.73986297  0.26890656  1
  O  O15  1  0.25000000  0.76013703  0.76890656  1
  O  O16  1  0.25000000  0.76994612  0.11984394  1
  O  O17  1  0.75000000  0.77570372  0.96395161  1
  O  O18  1  0.75000000  0.98895262  0.15575405  1
  O  O19  1  0.25000000  0.99212177  0.39510740  1
loop_
_geom_bond_atom_site_label_1
_geom_bond_atom_site_label_2
_geom_bond_distance
_geom_bond_site_symmetry_2
Ge0 O1 1.745960 1_555
Ge0 O2 1.809056 1_556
Ge0 O5 1.827342 1_555
Ge0 O3 1.925539 1_455
Ge0 O3 1.925539 1_555
Ge1 O8 1.745960 1_555
Ge1 O7 1.809056 1_555
Ge1 O4 1.827342 1_555
Ge1 O6 1.925539 1_655
Ge1 O6 1.925539 1_555
Ge2 O11 1.745960 1_555
Ge2 O12 1.809056 1_555
Ge2 O15 1.827342 1_555
Ge2 O13 1.925539 1_555
Ge2 O13 1.925539 1_455
Ge3 O18 1.745960 1_555
Ge3 O17 1.809056 1_554
Ge3 O14 1.827342 1_555
Ge3 O16 1.925539 1_655
Ge3 O16 1.925539 1_555
O0 Y7 2.272482 1_545
O0 Y6 2.306856 1_545
O0 Y1 2.333706 1_555
O0 Y1 2.333706 1_655
O1 Y7 2.321171 1_545
O1 Y7 2.321171 1_445
O2 Y0 2.346697 1_555
O2 Y2 2.346919 1_455
O2 Y2 2.346919 1_555
O3 Y2 2.371158 1_556
O3 Y3 2.433308 1_555
O4 Y0 2.296104 1_555
O4 Y0 2.296104 1_655
O4 Y2 2.313697 1_555
O5 Y3 2.296104 1_555
O5 Y3 2.296104 1_455
O5 Y1 2.313697 1_555
O6 Y1 2.371158 1_555
O6 Y0 2.433308 1_555
O7 Y3 2.346697 1_555
O7 Y1 2.346919 1_655
O7 Y1 2.346919 1_555
O8 Y4 2.321171 1_655
O8 Y4 2.321171 1_555
O9 Y4 2.272482 1_555
O9 Y5 2.306856 1_554
O9 Y2 2.333706 1_555
O9 Y2 2.333706 1_455
O10 Y3 2.272482 1_555
O10 Y2 2.306856 1_556
O10 Y5 2.333706 1_555
O10 Y5 2.333706 1_655
O11 Y3 2.321171 1_455
O11 Y3 2.321171 1_555
O12 Y4 2.346697 1_555
O12 Y6 2.346919 1_455
O12 Y6 2.346919 1_555
O13 Y6 2.371158 1_555
O13 Y7 2.433308 1_555
O14 Y4 2.296104 1_555
O14 Y4 2.296104 1_655
O14 Y6 2.313697 1_555
O15 Y7 2.296104 1_555
O15 Y7 2.296104 1_455
O15 Y5 2.313697 1_555
O16 Y5 2.371158 1_554
O16 Y4 2.433308 1_555
O17 Y7 2.346697 1_555
O17 Y5 2.346919 1_655
O17 Y5 2.346919 1_555
O18 Y0 2.321171 1_565
O18 Y0 2.321171 1_665
O19 Y0 2.272482 1_565
O19 Y1 2.306856 1_565
O19 Y6 2.333706 1_455
O19 Y6 2.333706 1_555
