# generated using pymatgen
data_Tm6WO12
_symmetry_space_group_name_H-M   'P 1'
_cell_length_a   6.32832029
_cell_length_b   6.32832029
_cell_length_c   6.32832082
_cell_angle_alpha   98.72402745
_cell_angle_beta   98.72402750
_cell_angle_gamma   98.72401934
_symmetry_Int_Tables_number   1
_chemical_formula_structural   Tm6WO12
_chemical_formula_sum   'Tm6 W1 O12'
_cell_volume   243.61418875
_cell_formula_units_Z   1
loop_
 _symmetry_equiv_pos_site_id
 _symmetry_equiv_pos_as_xyz
  1  'x, y, z'
loop_
 _atom_site_type_symbol
 _atom_site_label
 _atom_site_symmetry_multiplicity
 _atom_site_fract_x
 _atom_site_fract_y
 _atom_site_fract_z
 _atom_site_occupancy
  Tm  Tm0  1  0.85597547  0.38861576  0.68220176  1
  Tm  Tm1  1  0.61138424  0.31779824  0.14402453  1
  Tm  Tm2  1  0.31779824  0.14402453  0.61138424  1
  Tm  Tm3  1  0.68220176  0.85597547  0.38861576  1
  Tm  Tm4  1  0.38861576  0.68220176  0.85597547  1
  Tm  Tm5  1  0.14402453  0.61138424  0.31779824  1
  W  W0  1  -0.00000000  -0.00000000  -0.00000000  1
  O  O0  1  0.92080927  0.03527193  0.70092983  1
  O  O1  1  0.96472807  0.29907017  0.07919073  1
  O  O2  1  0.58955833  0.17731206  0.42971366  1
  O  O3  1  0.82268794  0.57028634  0.41044167  1
  O  O4  1  0.29907017  0.07919073  0.96472807  1
  O  O5  1  0.57028634  0.41044167  0.82268794  1
  O  O6  1  0.42971366  0.58955833  0.17731206  1
  O  O7  1  0.70092983  0.92080927  0.03527193  1
  O  O8  1  0.17731206  0.42971366  0.58955833  1
  O  O9  1  0.41044167  0.82268794  0.57028634  1
  O  O10  1  0.03527193  0.70092983  0.92080927  1
  O  O11  1  0.07919073  0.96472807  0.29907017  1
loop_
_geom_bond_atom_site_label_1
_geom_bond_atom_site_label_2
_geom_bond_distance
_geom_bond_site_symmetry_2
O0 W0 1.938379 1_656
O0 Tm3 2.316983 1_545
O0 Tm0 2.350819 1_555
O0 Tm2 2.670573 1_655
O1 W0 1.938379 1_655
O1 Tm5 2.316983 1_655
O1 Tm1 2.350819 1_555
O1 Tm0 2.670573 1_554
O2 Tm1 2.145735 1_555
O2 Tm3 2.189531 1_545
O2 Tm2 2.210684 1_555
O2 Tm0 2.243751 1_555
O3 Tm3 2.145734 1_555
O3 Tm5 2.189531 1_655
O3 Tm0 2.210684 1_555
O3 Tm1 2.243751 1_555
O4 W0 1.938379 1_556
O4 Tm1 2.316983 1_556
O4 Tm2 2.350820 1_555
O4 Tm4 2.670573 1_545
O5 Tm0 2.145734 1_555
O5 Tm1 2.189531 1_556
O5 Tm4 2.210684 1_555
O5 Tm2 2.243751 1_555
O6 Tm5 2.145734 1_555
O6 Tm4 2.189531 1_554
O6 Tm1 2.210684 1_555
O6 Tm3 2.243751 1_555
O7 W0 1.938379 1_665
O7 Tm4 2.316983 1_554
O7 Tm3 2.350820 1_555
O7 Tm1 2.670573 1_565
O8 Tm2 2.145734 1_555
O8 Tm0 2.189531 1_455
O8 Tm5 2.210684 1_555
O8 Tm4 2.243751 1_555
O9 Tm4 2.145735 1_555
O9 Tm2 2.189531 1_565
O9 Tm3 2.210684 1_555
O9 Tm5 2.243751 1_555
O10 W0 1.938379 1_566
O10 Tm0 2.316983 1_455
O10 Tm4 2.350819 1_555
O10 Tm5 2.670573 1_556
O11 W0 1.938379 1_565
O11 Tm2 2.316983 1_565
O11 Tm5 2.350819 1_555
O11 Tm3 2.670573 1_455
