# generated using pymatgen
data_Na2LiMnPCO7
_symmetry_space_group_name_H-M   'P 1'
_cell_length_a   6.78466200
_cell_length_b   8.86306137
_cell_length_c   10.24859200
_cell_angle_alpha   90.80088462
_cell_angle_beta   90.18648598
_cell_angle_gamma   90.77623622
_symmetry_Int_Tables_number   1
_chemical_formula_structural   Na2LiMnPCO7
_chemical_formula_sum   'Na8 Li4 Mn4 P4 C4 O28'
_cell_volume   616.15689714
_cell_formula_units_Z   4
loop_
 _symmetry_equiv_pos_site_id
 _symmetry_equiv_pos_as_xyz
  1  'x, y, z'
loop_
 _atom_site_type_symbol
 _atom_site_label
 _atom_site_symmetry_multiplicity
 _atom_site_fract_x
 _atom_site_fract_y
 _atom_site_fract_z
 _atom_site_occupancy
  Na  Na0  1  0.24129900  0.91670600  0.87923000  1
  Na  Na1  1  0.24427700  0.91704600  0.37835500  1
  Na  Na2  1  0.99881200  0.74456200  0.62395800  1
  Na  Na3  1  0.49988700  0.74318600  0.62283200  1
  Na  Na4  1  0.50105400  0.74484800  0.12591700  1
  Na  Na5  1  0.50110200  0.25479700  0.87510000  1
  Na  Na6  1  0.50200200  0.25563800  0.37727100  1
  Na  Na7  1  0.99874400  0.25401700  0.37638100  1
  Li  Li0  1  0.02629800  0.72504400  0.11596000  1
  Li  Li1  1  0.97739400  0.27165500  0.88337000  1
  Li  Li2  1  0.76015800  0.09188500  0.62804900  1
  Li  Li3  1  0.76499700  0.08863200  0.12543700  1
  Mn  Mn0  1  0.75189200  0.64011200  0.88993100  1
  Mn  Mn1  1  0.75212300  0.63695100  0.38719700  1
  Mn  Mn2  1  0.24737900  0.35804800  0.61301800  1
  Mn  Mn3  1  0.24646700  0.35616100  0.11012500  1
  P  P0  1  0.24476600  0.58561300  0.85481300  1
  P  P1  1  0.24611800  0.59071500  0.35111700  1
  P  P2  1  0.75317200  0.40354700  0.64979700  1
  P  P3  1  0.75333500  0.40870700  0.14558700  1
  C  C0  1  0.75902900  0.95604300  0.86736200  1
  C  C1  1  0.75124600  0.94821200  0.36349000  1
  C  C2  1  0.24916200  0.05822600  0.63419300  1
  C  C3  1  0.24011200  0.05190100  0.13176100  1
  O  O0  1  0.25331500  0.91334200  0.64502800  1
  O  O1  1  0.22586400  0.90652300  0.14058900  1
  O  O2  1  0.74791500  0.91668600  0.98911300  1
  O  O3  1  0.75269600  0.91353500  0.48713900  1
  O  O4  1  0.75243500  0.85208400  0.77512700  1
  O  O5  1  0.75511700  0.84269000  0.27381900  1
  O  O6  1  0.06859100  0.68345300  0.90222500  1
  O  O7  1  0.43542700  0.67098400  0.89996500  1
  O  O8  1  0.06741200  0.68169600  0.40150700  1
  O  O9  1  0.43476400  0.68408600  0.38762800  1
  O  O10  1  0.24370400  0.57401500  0.70251200  1
  O  O11  1  0.74743500  0.56362500  0.58950700  1
  O  O12  1  0.23081100  0.57544500  0.19837400  1
  O  O13  1  0.76935600  0.57153600  0.09020800  1
  O  O14  1  0.23031200  0.42239700  0.90819700  1
  O  O15  1  0.76912100  0.42329700  0.80182400  1
  O  O16  1  0.25266500  0.43004800  0.40903000  1
  O  O17  1  0.75615600  0.42386800  0.29749100  1
  O  O18  1  0.56603800  0.30797000  0.61463700  1
  O  O19  1  0.92941000  0.30819800  0.60097300  1
  O  O20  1  0.56269500  0.32309900  0.10208600  1
  O  O21  1  0.92636000  0.30625300  0.09950100  1
  O  O22  1  0.24622400  0.14516500  0.73741800  1
  O  O23  1  0.24533900  0.13753400  0.23654800  1
  O  O24  1  0.24741100  0.11972800  0.51910000  1
  O  O25  1  0.24993100  0.11659500  0.01863400  1
  O  O26  1  0.77624800  0.09632200  0.83444000  1
  O  O27  1  0.74642200  0.08757300  0.32712500  1
loop_
_geom_bond_atom_site_label_1
_geom_bond_atom_site_label_2
_geom_bond_distance
_geom_bond_site_symmetry_2
Na0 O25 2.260343 1_566
Na0 O6 2.377442 1_555
Na0 O0 2.401672 1_555
Na0 O22 2.508817 1_565
Na0 O7 2.571333 1_555
Na0 O1 2.683679 1_556
Na1 O24 2.287881 1_565
Na1 O8 2.407315 1_555
Na1 O1 2.439977 1_555
Na1 O23 2.451565 1_565
Na1 O9 2.453454 1_555
Na1 O0 2.734177 1_555
Na2 O0 2.276944 1_655
Na2 O11 2.347611 1_555
Na2 O8 2.388102 1_655
Na2 O10 2.405608 1_655
Na2 O4 2.474134 1_555
Na2 O3 2.666183 1_555
Na3 O0 2.277276 1_555
Na3 O11 2.351844 1_555
Na3 O10 2.430816 1_555
Na3 O4 2.489833 1_555
Na3 O9 2.496327 1_555
Na3 O3 2.675729 1_555
Na4 O1 2.372796 1_555
Na4 O13 2.423112 1_555
Na4 O5 2.434462 1_555
Na4 O7 2.435624 1_554
Na4 O12 2.476471 1_555
Na4 O2 2.663898 1_554
Na4 O9 2.779929 1_555
Na5 O26 2.385594 1_555
Na5 O14 2.400188 1_555
Na5 O22 2.413671 1_555
Na5 O20 2.429024 1_556
Na5 O15 2.463248 1_555
Na5 O25 2.564837 1_556
Na5 O18 2.752995 1_555
Na6 O27 2.298695 1_555
Na6 O16 2.327567 1_555
Na6 O17 2.416335 1_555
Na6 O23 2.469843 1_555
Na6 O18 2.505569 1_555
Na6 O24 2.560535 1_555
Na6 O20 2.920437 1_555
Na7 O27 2.294962 1_555
Na7 O16 2.328704 1_655
Na7 O17 2.391930 1_555
Na7 O19 2.394205 1_555
Na7 O23 2.437167 1_655
Na7 O24 2.547429 1_655
Li0 O1 2.100370 1_555
Li0 O12 2.114296 1_555
Li0 O13 2.209622 1_455
Li0 O6 2.236251 1_554
Li1 O26 2.108333 1_555
Li1 O15 2.139330 1_555
Li1 O14 2.172510 1_655
Li1 O21 2.260353 1_556
Li2 O26 2.117466 1_555
Li2 O3 2.126102 1_545
Li2 O19 2.242447 1_555
Li2 O18 2.344334 1_555
Li3 O2 2.054877 1_544
Li3 O27 2.071410 1_555
Li3 O21 2.224514 1_555
Li3 O20 2.519662 1_555
Mn0 O15 2.116603 1_555
Mn0 O13 2.152135 1_556
Mn0 O7 2.170734 1_555
Mn0 O6 2.180561 1_655
Mn0 O4 2.230601 1_555
Mn0 O2 2.641042 1_555
Mn1 O17 2.089422 1_555
Mn1 O8 2.174397 1_655
Mn1 O5 2.175782 1_555
Mn1 O11 2.181712 1_555
Mn1 O9 2.198882 1_555
Mn2 O10 2.111423 1_555
Mn2 O16 2.194593 1_555
Mn2 O19 2.198945 1_455
Mn2 O18 2.213021 1_555
Mn2 O22 2.291812 1_555
Mn2 O24 2.308942 1_555
Mn3 O12 2.136271 1_555
Mn3 O14 2.161854 1_554
Mn3 O20 2.171022 1_555
Mn3 O21 2.212554 1_455
Mn3 O25 2.309532 1_555
Mn3 O23 2.345918 1_555
C0 O26 1.296663 1_565
C0 O2 1.302450 1_555
C0 O4 1.311023 1_555
C1 O27 1.295950 1_565
C1 O5 1.302589 1_555
C1 O3 1.308172 1_555
C2 O0 1.291133 1_545
C2 O22 1.300415 1_555
C2 O24 1.306387 1_555
C3 O1 1.295256 1_545
C3 O25 1.302096 1_555
C3 O23 1.306458 1_555
O6 P0 1.561049 1_555
O7 P0 1.555561 1_555
O8 P1 1.551101 1_555
O9 P1 1.556448 1_555
O10 P0 1.562804 1_555
O11 P2 1.556305 1_555
O12 P1 1.572329 1_555
O13 P3 1.560675 1_555
O14 P0 1.555703 1_555
O15 P2 1.568654 1_555
O16 P1 1.551514 1_555
O17 P3 1.560751 1_555
O18 P2 1.555239 1_555
O19 P2 1.553619 1_555
O20 P3 1.551649 1_555
O21 P3 1.564043 1_555
