# generated using pymatgen
data_Li2Fe5Si5O16
_symmetry_space_group_name_H-M   'P 1'
_cell_length_a   5.09569000
_cell_length_b   6.95696615
_cell_length_c   10.41608831
_cell_angle_alpha   89.36015857
_cell_angle_beta   89.87733429
_cell_angle_gamma   89.98823112
_symmetry_Int_Tables_number   1
_chemical_formula_structural   Li2Fe5Si5O16
_chemical_formula_sum   'Li2 Fe5 Si5 O16'
_cell_volume   369.23210770
_cell_formula_units_Z   1
loop_
 _symmetry_equiv_pos_site_id
 _symmetry_equiv_pos_as_xyz
  1  'x, y, z'
loop_
 _atom_site_type_symbol
 _atom_site_label
 _atom_site_symmetry_multiplicity
 _atom_site_fract_x
 _atom_site_fract_y
 _atom_site_fract_z
 _atom_site_occupancy
  Li  Li0  1  0.84407200  0.00254200  0.83717800  1
  Li  Li1  1  0.32080000  0.49683700  0.64440500  1
  Fe  Fe0  1  0.70252200  0.02026500  0.34550300  1
  Fe  Fe1  1  0.69276800  0.50996200  0.35474100  1
  Fe  Fe2  1  0.18324600  0.50199100  0.16338200  1
  Fe  Fe3  1  0.32370400  0.99766700  0.65220600  1
  Fe  Fe4  1  0.19523800  0.99586200  0.14799100  1
  Si  Si0  1  0.83588800  0.23917900  0.60369200  1
  Si  Si1  1  0.67857900  0.26843100  0.08686300  1
  Si  Si2  1  0.79612500  0.48968400  0.83569100  1
  Si  Si3  1  0.19218200  0.75567700  0.41126200  1
  Si  Si4  1  0.29022900  0.73356300  0.90405200  1
  O  O0  1  0.71937900  0.04408700  0.66804100  1
  O  O1  1  0.80237600  0.06828800  0.14538600  1
  O  O2  1  0.75839800  0.29736400  0.93034100  1
  O  O3  1  0.15186100  0.25475500  0.61908300  1
  O  O4  1  0.35902500  0.25560400  0.10629900  1
  O  O5  1  0.73147400  0.26233200  0.45384300  1
  O  O6  1  0.71248800  0.43001500  0.68872600  1
  O  O7  1  0.78892300  0.45609100  0.16318200  1
  O  O8  1  0.29781000  0.55577600  0.34351200  1
  O  O9  1  0.10622100  0.55723400  0.84107800  1
  O  O10  1  0.87186000  0.76366100  0.38137900  1
  O  O11  1  0.60301700  0.66990500  0.87575400  1
  O  O12  1  0.27414200  0.74664700  0.56200100  1
  O  O13  1  0.23851800  0.74154700  0.05850000  1
  O  O14  1  0.31229000  0.94791100  0.33532000  1
  O  O15  1  0.21686500  0.93712300  0.84058600  1
loop_
_geom_bond_atom_site_label_1
_geom_bond_atom_site_label_2
_geom_bond_distance
_geom_bond_site_symmetry_2
Li0 O0 1.893241 1_555
Li0 O15 1.953609 1_645
Li0 O2 2.319785 1_555
Li1 O3 1.912726 1_555
Li1 O12 1.944481 1_555
Li1 O6 2.100406 1_555
Li1 O9 2.361820 1_555
Fe0 O10 2.014191 1_545
Fe0 O5 2.043164 1_555
Fe0 O14 2.054573 1_545
Fe0 O1 2.166881 1_555
Fe1 O5 2.008319 1_555
Fe1 O10 2.009388 1_555
Fe1 O8 2.040998 1_555
Fe1 O7 2.091454 1_555
Fe2 O13 2.002125 1_555
Fe2 O8 2.005389 1_555
Fe2 O4 2.028261 1_555
Fe2 O7 2.034637 1_455
Fe3 O12 2.008516 1_555
Fe3 O3 2.017821 1_565
Fe3 O0 2.049290 1_565
Fe3 O15 2.073891 1_555
Fe4 O13 2.020795 1_555
Fe4 O4 2.032734 1_565
Fe4 O1 2.064399 1_465
Fe4 O14 2.065123 1_555
O0 Si0 1.619308 1_555
O1 Si1 1.640308 1_555
O2 Si2 1.664002 1_555
O2 Si1 1.689332 1_556
O3 Si0 1.622169 1_455
O4 Si1 1.642775 1_555
O5 Si0 1.656250 1_555
O6 Si2 1.647533 1_555
O6 Si0 1.722227 1_555
O7 Si1 1.636440 1_555
O8 Si3 1.655824 1_555
O9 Si2 1.649895 1_455
O9 Si4 1.683850 1_555
O10 Si3 1.663130 1_655
O11 Si2 1.650407 1_555
O11 Si4 1.680491 1_555
O12 Si3 1.626104 1_555
O13 Si4 1.631181 1_554
O14 Si3 1.662371 1_555
O15 Si4 1.600690 1_555
