# generated using pymatgen
data_Fe10O11F9
_symmetry_space_group_name_H-M   'P 1'
_cell_length_a   4.72765200
_cell_length_b   4.73878915
_cell_length_c   15.38357301
_cell_angle_alpha   89.84588231
_cell_angle_beta   89.67335406
_cell_angle_gamma   88.84180329
_symmetry_Int_Tables_number   1
_chemical_formula_structural   Fe10O11F9
_chemical_formula_sum   'Fe10 O11 F9'
_cell_volume   344.56635486
_cell_formula_units_Z   1
loop_
 _symmetry_equiv_pos_site_id
 _symmetry_equiv_pos_as_xyz
  1  'x, y, z'
loop_
 _atom_site_type_symbol
 _atom_site_label
 _atom_site_symmetry_multiplicity
 _atom_site_fract_x
 _atom_site_fract_y
 _atom_site_fract_z
 _atom_site_occupancy
  Fe  Fe0  1  0.97542300  0.03438800  0.99888700  1
  Fe  Fe1  1  0.01024300  0.99560800  0.80026400  1
  Fe  Fe2  1  0.98517500  0.04691300  0.60156400  1
  Fe  Fe3  1  0.04441400  0.99579800  0.40111900  1
  Fe  Fe4  1  0.04737700  0.99683000  0.19914900  1
  Fe  Fe5  1  0.54621400  0.52725500  0.89408400  1
  Fe  Fe6  1  0.47619400  0.48062100  0.50242600  1
  Fe  Fe7  1  0.48423900  0.46572500  0.70668100  1
  Fe  Fe8  1  0.46105700  0.50057200  0.29958700  1
  Fe  Fe9  1  0.47348200  0.47501500  0.09693900  1
  O  O0  1  0.18405200  0.18374100  0.70385200  1
  O  O1  1  0.18586700  0.19357000  0.50177900  1
  O  O2  1  0.20182400  0.18304000  0.30008000  1
  O  O3  1  0.18817600  0.18831500  0.09665100  1
  O  O4  1  0.31194800  0.69963100  0.80031700  1
  O  O5  1  0.31233800  0.68246600  0.40287800  1
  O  O6  1  0.31156500  0.68034500  0.19648300  1
  O  O7  1  0.68956700  0.32902600  0.99815100  1
  O  O8  1  0.71203600  0.29912300  0.80024600  1
  O  O9  1  0.67245400  0.31350700  0.60200800  1
  O  O10  1  0.82818600  0.82480300  0.89789700  1
  F  F0  1  0.20766700  0.21120000  0.90099100  1
  F  F1  1  0.30230600  0.71273800  0.99743300  1
  F  F2  1  0.28322000  0.69947900  0.60237200  1
  F  F3  1  0.70022800  0.29000700  0.39982000  1
  F  F4  1  0.70020600  0.28878900  0.19979200  1
  F  F5  1  0.79851100  0.80322700  0.50169800  1
  F  F6  1  0.79716800  0.80149300  0.69791900  1
  F  F7  1  0.79937900  0.80559100  0.09906300  1
  F  F8  1  0.80948600  0.79118700  0.29986800  1
loop_
_geom_bond_atom_site_label_1
_geom_bond_atom_site_label_2
_geom_bond_distance
_geom_bond_site_symmetry_2
Fe0 O7 1.923472 1_555
Fe0 O3 1.964293 1_656
Fe0 O10 1.983217 1_545
Fe1 O10 1.912765 1_455
Fe1 O0 1.917913 1_565
Fe1 O4 1.980110 1_555
Fe1 O8 1.993566 1_465
Fe2 O9 1.925164 1_555
Fe2 O1 1.934918 1_655
Fe2 O0 1.956404 1_655
Fe3 O5 1.932345 1_555
Fe3 O2 1.939888 1_565
Fe3 O1 1.941235 1_565
Fe4 O6 1.932600 1_555
Fe4 O3 1.938422 1_565
Fe4 O2 1.941380 1_565
Fe5 O8 1.956628 1_555
Fe5 O10 1.961116 1_555
Fe5 O7 1.970587 1_555
Fe5 O4 1.987435 1_555
Fe6 O1 1.951944 1_555
Fe6 O9 1.953155 1_555
Fe6 O5 1.958539 1_555
Fe7 O8 1.957566 1_555
Fe7 O9 1.966962 1_555
Fe7 O0 1.969580 1_555
Fe7 O4 1.981340 1_555
Fe8 O6 1.929286 1_555
Fe8 O5 1.931919 1_555
Fe8 O2 1.959750 1_555
Fe9 O3 1.933743 1_555
Fe9 O7 1.947082 1_554
Fe9 O6 1.960173 1_555
F0 Fe0 2.046246 1_455
F0 Fe1 2.092734 1_545
F0 Fe5 2.215912 1_555
F1 Fe9 2.057951 1_556
F1 Fe5 2.139064 1_555
F1 Fe0 2.148621 1_465
F2 Fe6 2.055787 1_555
F2 Fe2 2.145362 1_465
F2 Fe7 2.161097 1_555
F3 Fe6 2.092642 1_555
F3 Fe3 2.121424 1_645
F3 Fe8 2.148895 1_555
F4 Fe9 2.098757 1_555
F4 Fe4 2.125141 1_645
F4 Fe8 2.141254 1_555
F5 Fe2 2.130420 1_565
F5 Fe3 2.143145 1_655
F5 Fe6 2.180160 1_555
F6 Fe2 2.087399 1_565
F6 Fe1 2.098350 1_655
F6 Fe7 2.197792 1_555
F7 Fe0 2.062999 1_564
F7 Fe4 2.153501 1_655
F7 Fe9 2.219763 1_555
F8 Fe4 2.152099 1_655
F8 Fe3 2.161298 1_655
F8 Fe8 2.168376 1_555
