# generated using pymatgen
data_Tb2Zr2O7
_symmetry_space_group_name_H-M   'P 1'
_cell_length_a   10.48744800
_cell_length_b   10.48744800
_cell_length_c   5.45720100
_cell_angle_alpha   90.00000000
_cell_angle_beta   90.00000000
_cell_angle_gamma   90.00000000
_symmetry_Int_Tables_number   1
_chemical_formula_structural   Tb2Zr2O7
_chemical_formula_sum   'Tb8 Zr8 O28'
_cell_volume   600.21879552
_cell_formula_units_Z   4
loop_
 _symmetry_equiv_pos_site_id
 _symmetry_equiv_pos_as_xyz
  1  'x, y, z'
loop_
 _atom_site_type_symbol
 _atom_site_label
 _atom_site_symmetry_multiplicity
 _atom_site_fract_x
 _atom_site_fract_y
 _atom_site_fract_z
 _atom_site_occupancy
  Tb  Tb0  1  0.37472100  0.37472100  0.25000000  1
  Tb  Tb1  1  0.62527900  0.37472100  0.75000000  1
  Tb  Tb2  1  0.37472100  0.62527900  0.75000000  1
  Tb  Tb3  1  0.62527900  0.62527900  0.25000000  1
  Tb  Tb4  1  0.87472100  0.87472100  0.25000000  1
  Tb  Tb5  1  0.12527900  0.87472100  0.75000000  1
  Tb  Tb6  1  0.87472100  0.12527900  0.75000000  1
  Tb  Tb7  1  0.12527900  0.12527900  0.25000000  1
  Zr  Zr0  1  0.86131400  0.36131400  0.23023800  1
  Zr  Zr1  1  0.13868600  0.36131400  0.73023800  1
  Zr  Zr2  1  0.86131400  0.63868600  0.73023800  1
  Zr  Zr3  1  0.13868600  0.63868600  0.23023800  1
  Zr  Zr4  1  0.36131400  0.86131400  0.26976200  1
  Zr  Zr5  1  0.63868600  0.86131400  0.76976200  1
  Zr  Zr6  1  0.36131400  0.13868600  0.76976200  1
  Zr  Zr7  1  0.63868600  0.13868600  0.26976200  1
  O  O0  1  0.49437000  0.21108300  0.03381300  1
  O  O1  1  0.50563000  0.21108300  0.53381300  1
  O  O2  1  0.75458000  0.25458000  0.48244900  1
  O  O3  1  0.24542000  0.25458000  0.98244900  1
  O  O4  1  0.21108300  0.49437000  0.46618700  1
  O  O5  1  0.78891700  0.49437000  0.96618700  1
  O  O6  1  0.50000000  0.50000000  0.00000000  1
  O  O7  1  0.50000000  0.50000000  0.50000000  1
  O  O8  1  0.21108300  0.50563000  0.96618700  1
  O  O9  1  0.78891700  0.50563000  0.46618700  1
  O  O10  1  0.75458000  0.74542000  0.98244900  1
  O  O11  1  0.24542000  0.74542000  0.48244900  1
  O  O12  1  0.49437000  0.78891700  0.53381300  1
  O  O13  1  0.50563000  0.78891700  0.03381300  1
  O  O14  1  0.99437000  0.71108300  0.46618700  1
  O  O15  1  0.00563000  0.71108300  0.96618700  1
  O  O16  1  0.74542000  0.75458000  0.51755100  1
  O  O17  1  0.25458000  0.75458000  0.01755100  1
  O  O18  1  0.71108300  0.99437000  0.03381300  1
  O  O19  1  0.28891700  0.99437000  0.53381300  1
  O  O20  1  0.00000000  0.00000000  0.00000000  1
  O  O21  1  0.00000000  0.00000000  0.50000000  1
  O  O22  1  0.71108300  0.00563000  0.53381300  1
  O  O23  1  0.28891700  0.00563000  0.03381300  1
  O  O24  1  0.74542000  0.24542000  0.01755100  1
  O  O25  1  0.25458000  0.24542000  0.51755100  1
  O  O26  1  0.99437000  0.28891700  0.96618700  1
  O  O27  1  0.00563000  0.28891700  0.46618700  1
loop_
_geom_bond_atom_site_label_1
_geom_bond_atom_site_label_2
_geom_bond_distance
_geom_bond_site_symmetry_2
O0 Zr7 2.127239 1_555
O0 Zr6 2.144782 1_554
O0 Tb0 2.431374 1_555
O0 Tb1 2.688656 1_554
O1 Zr6 2.127239 1_555
O1 Zr7 2.144782 1_555
O1 Tb1 2.431374 1_555
O1 Tb0 2.688656 1_555
O2 Zr7 2.074059 1_555
O2 Zr0 2.097701 1_555
O2 Tb6 2.357584 1_555
O2 Tb1 2.357584 1_555
O3 Zr6 2.074059 1_555
O3 Zr1 2.097701 1_555
O3 Tb0 2.357584 1_556
O3 Tb7 2.357584 1_556
O4 Zr3 2.127239 1_555
O4 Zr1 2.144782 1_555
O4 Tb0 2.431374 1_555
O4 Tb2 2.688656 1_555
O5 Zr2 2.127239 1_555
O5 Zr0 2.144782 1_556
O5 Tb1 2.431374 1_555
O5 Tb3 2.688656 1_556
O6 Tb3 2.305158 1_555
O6 Tb2 2.305158 1_554
O6 Tb1 2.305158 1_554
O6 Tb0 2.305158 1_555
O7 Tb3 2.305158 1_555
O7 Tb1 2.305158 1_555
O7 Tb2 2.305158 1_555
O7 Tb0 2.305158 1_555
O8 Zr1 2.127239 1_555
O8 Zr3 2.144782 1_556
O8 Tb2 2.431374 1_555
O8 Tb0 2.688656 1_556
O9 Zr0 2.127239 1_555
O9 Zr2 2.144782 1_555
O9 Tb3 2.431374 1_555
O9 Tb1 2.688656 1_555
O10 Zr5 2.074059 1_555
O10 Zr2 2.097701 1_555
O10 Tb4 2.357584 1_556
O10 Tb3 2.357584 1_556
O11 Zr4 2.074059 1_555
O11 Zr3 2.097701 1_555
O11 Tb5 2.357584 1_555
O11 Tb2 2.357584 1_555
O12 Zr5 2.127239 1_555
O12 Zr4 2.144782 1_555
O12 Tb2 2.431374 1_555
O12 Tb3 2.688656 1_555
O13 Zr4 2.127239 1_555
O13 Zr5 2.144782 1_554
O13 Tb3 2.431374 1_555
O13 Tb2 2.688656 1_554
O14 Zr3 2.127239 1_655
O14 Zr2 2.144782 1_555
O14 Tb4 2.431374 1_555
O14 Tb5 2.688656 1_655
O15 Zr2 2.127239 1_455
O15 Zr3 2.144782 1_556
O15 Tb5 2.431374 1_555
O15 Tb4 2.688656 1_456
O16 Zr2 2.074059 1_555
O16 Zr5 2.097701 1_555
O16 Tb4 2.357584 1_555
O16 Tb3 2.357584 1_555
O17 Zr3 2.074059 1_555
O17 Zr4 2.097701 1_555
O17 Tb5 2.357584 1_554
O17 Tb2 2.357584 1_554
O18 Zr7 2.127239 1_565
O18 Zr5 2.144782 1_554
O18 Tb4 2.431374 1_555
O18 Tb6 2.688656 1_564
O19 Zr6 2.127239 1_565
O19 Zr4 2.144782 1_555
O19 Tb5 2.431374 1_555
O19 Tb7 2.688656 1_565
O20 Tb7 2.305158 1_555
O20 Tb5 2.305158 1_544
O20 Tb4 2.305158 1_445
O20 Tb6 2.305158 1_454
O21 Tb7 2.305158 1_555
O21 Tb5 2.305158 1_545
O21 Tb4 2.305158 1_445
O21 Tb6 2.305158 1_455
O22 Zr5 2.127239 1_545
O22 Zr7 2.144782 1_555
O22 Tb6 2.431374 1_555
O22 Tb4 2.688656 1_545
O23 Zr4 2.127239 1_545
O23 Zr6 2.144782 1_554
O23 Tb7 2.431374 1_555
O23 Tb5 2.688656 1_544
O24 Zr0 2.074059 1_555
O24 Zr7 2.097701 1_555
O24 Tb6 2.357584 1_554
O24 Tb1 2.357584 1_554
O25 Zr1 2.074059 1_555
O25 Zr6 2.097701 1_555
O25 Tb0 2.357584 1_555
O25 Tb7 2.357584 1_555
O26 Zr1 2.127239 1_655
O26 Zr0 2.144782 1_556
O26 Tb6 2.431374 1_555
O26 Tb7 2.688656 1_656
O27 Zr0 2.127239 1_455
O27 Zr1 2.144782 1_555
O27 Tb7 2.431374 1_555
O27 Tb6 2.688656 1_455
