# generated using pymatgen
data_Li3MnV(PO4)3
_symmetry_space_group_name_H-M   'P 1'
_cell_length_a   8.52430522
_cell_length_b   12.07452882
_cell_length_c   8.75103848
_cell_angle_alpha   90.07425674
_cell_angle_beta   89.86844673
_cell_angle_gamma   91.36596586
_symmetry_Int_Tables_number   1
_chemical_formula_structural   Li3MnV(PO4)3
_chemical_formula_sum   'Li12 Mn4 V4 P12 O48'
_cell_volume   900.45883863
_cell_formula_units_Z   4
loop_
 _symmetry_equiv_pos_site_id
 _symmetry_equiv_pos_as_xyz
  1  'x, y, z'
loop_
 _atom_site_type_symbol
 _atom_site_label
 _atom_site_symmetry_multiplicity
 _atom_site_fract_x
 _atom_site_fract_y
 _atom_site_fract_z
 _atom_site_occupancy
  Li  Li0  1  0.06379000  0.34535700  0.51710400  1
  Li  Li1  1  0.07926400  0.69080200  0.08516300  1
  Li  Li2  1  0.17871500  0.17781300  0.77999200  1
  Li  Li3  1  0.32202500  0.32261000  0.28154700  1
  Li  Li4  1  0.42146800  0.80867100  0.58294700  1
  Li  Li5  1  0.43578000  0.15500900  0.01275000  1
  Li  Li6  1  0.56454400  0.84745600  0.98352400  1
  Li  Li7  1  0.58152500  0.19104000  0.41446500  1
  Li  Li8  1  0.68273300  0.67710100  0.72075100  1
  Li  Li9  1  0.82035500  0.82348100  0.21923700  1
  Li  Li10  1  0.92045600  0.30812700  0.91513700  1
  Li  Li11  1  0.93636900  0.65338100  0.48869700  1
  Mn  Mn0  1  0.25497500  0.60557800  0.52879100  1
  Mn  Mn1  1  0.74646000  0.60900900  0.03826000  1
  Mn  Mn2  1  0.75286000  0.89087300  0.53600000  1
  Mn  Mn3  1  0.75474600  0.10506000  0.97194700  1
  V  V0  1  0.24374300  0.89449600  0.02275000  1
  V  V1  1  0.24508800  0.10750900  0.46238300  1
  V  V2  1  0.25559500  0.39259800  0.96670800  1
  V  V3  1  0.74439800  0.39530700  0.47503600  1
  P  P0  1  0.04445800  0.49001000  0.25180800  1
  P  P1  1  0.11527100  0.84946500  0.38077100  1
  P  P2  1  0.11542500  0.14530900  0.11156900  1
  P  P3  1  0.38415100  0.65339500  0.87921100  1
  P  P4  1  0.38450600  0.35128900  0.61025600  1
  P  P5  1  0.45455700  0.01140900  0.74549300  1
  P  P6  1  0.53981200  0.99078200  0.24776200  1
  P  P7  1  0.61511100  0.64710100  0.38852500  1
  P  P8  1  0.61517400  0.35319700  0.11773300  1
  P  P9  1  0.88469000  0.84885300  0.89118900  1
  P  P10  1  0.88536900  0.14942000  0.61796500  1
  P  P11  1  0.95715000  0.50947800  0.75426900  1
  O  O0  1  0.05504800  0.89652300  0.89797000  1
  O  O1  1  0.05121700  0.44396800  0.87266500  1
  O  O2  1  0.05206500  0.60065000  0.66980800  1
  O  O3  1  0.06071600  0.18517400  0.57601400  1
  O  O4  1  0.10621700  0.58100300  0.36436200  1
  O  O5  1  0.12943900  0.83581900  0.20269400  1
  O  O6  1  0.13779500  0.97386600  0.41881000  1
  O  O7  1  0.13145600  0.24566400  0.99585100  1
  O  O8  1  0.17757900  0.18517900  0.27090500  1
  O  O9  1  0.18813400  0.43171700  0.17736200  1
  O  O10  1  0.23245300  0.78195300  0.47136100  1
  O  O11  1  0.23558700  0.06000100  0.04894000  1
  O  O12  1  0.26375900  0.43294600  0.54760700  1
  O  O13  1  0.26718100  0.72489900  0.96939300  1
  O  O14  1  0.30721300  0.06508200  0.67171700  1
  O  O15  1  0.32995500  0.31356600  0.77204000  1
  O  O16  1  0.35671700  0.53019800  0.92044400  1
  O  O17  1  0.37514100  0.25012800  0.49591600  1
  O  O18  1  0.37368900  0.66728500  0.70206300  1
  O  O19  1  0.39304700  0.91916300  0.85877800  1
  O  O20  1  0.43899500  0.90134200  0.16191900  1
  O  O21  1  0.44105000  0.31489600  0.08005600  1
  O  O22  1  0.44722000  0.60189700  0.38681700  1
  O  O23  1  0.44470800  0.05518400  0.36949800  1
  O  O24  1  0.54385500  0.94546600  0.62589100  1
  O  O25  1  0.55414700  0.39715900  0.60596000  1
  O  O26  1  0.55541100  0.69231300  0.91506100  1
  O  O27  1  0.54815000  0.10223300  0.82984000  1
  O  O28  1  0.59691400  0.08465500  0.13779800  1
  O  O29  1  0.62825500  0.33355600  0.29624600  1
  O  O30  1  0.62943000  0.74505600  0.50803200  1
  O  O31  1  0.63331500  0.47694400  0.08699800  1
  O  O32  1  0.67569300  0.68937700  0.23141000  1
  O  O33  1  0.68354700  0.93571400  0.31820200  1
  O  O34  1  0.73009900  0.28303200  0.02785900  1
  O  O35  1  0.73565700  0.56052600  0.44962800  1
  O  O36  1  0.76450600  0.93229200  0.95222800  1
  O  O37  1  0.77128300  0.22405800  0.52968800  1
  O  O38  1  0.80975700  0.56142600  0.82645000  1
  O  O39  1  0.83491900  0.80911200  0.73092800  1
  O  O40  1  0.87747000  0.74952600  0.00785500  1
  O  O41  1  0.86075200  0.02721300  0.58048300  1
  O  O42  1  0.87906800  0.16803400  0.79458200  1
  O  O43  1  0.89685800  0.41675000  0.64077800  1
  O  O44  1  0.94422300  0.80952600  0.41564500  1
  O  O45  1  0.94615800  0.39999500  0.33802800  1
  O  O46  1  0.95584900  0.55532300  0.13232200  1
  O  O47  1  0.94773900  0.10162000  0.11535400  1
loop_
_geom_bond_atom_site_label_1
_geom_bond_atom_site_label_2
_geom_bond_distance
_geom_bond_site_symmetry_2
Li0 O45 1.984427 1_455
Li0 O43 1.997071 1_455
Li0 O3 2.001857 1_555
Li0 O12 2.002703 1_555
Li1 O13 1.929776 1_554
Li1 O46 1.967427 1_455
Li1 O40 1.996028 1_455
Li1 O5 2.066028 1_555
Li2 O14 2.003339 1_555
Li2 O3 2.053988 1_555
Li2 O15 2.062250 1_555
Li2 O7 2.100001 1_555
Li3 O9 1.987219 1_555
Li3 O21 2.035445 1_555
Li3 O8 2.044785 1_555
Li3 O17 2.125370 1_555
Li4 O10 1.906640 1_555
Li4 O24 1.968729 1_555
Li4 O18 2.033813 1_555
Li4 O30 2.054423 1_555
Li5 O28 1.967416 1_555
Li5 O27 1.976136 1_554
Li5 O21 2.017186 1_555
Li5 O11 2.057572 1_555
Li6 O26 1.965842 1_555
Li6 O36 1.986226 1_555
Li6 O20 2.007179 1_556
Li6 O19 2.036818 1_555
Li7 O37 1.941093 1_555
Li7 O23 2.028585 1_555
Li7 O29 2.039654 1_555
Li7 O17 2.040812 1_555
Li8 O38 2.014671 1_555
Li8 O26 2.025663 1_555
Li8 O39 2.033024 1_555
Li8 O30 2.090588 1_555
Li9 O33 2.003539 1_555
Li9 O32 2.014592 1_555
Li9 O44 2.028557 1_555
Li9 O40 2.113895 1_555
Li10 O34 1.915171 1_556
Li10 O1 1.995846 1_655
Li10 O42 2.016793 1_555
Li10 O7 2.091577 1_655
Li11 O2 1.982348 1_655
Li11 O44 1.991160 1_555
Li11 O4 2.023484 1_655
Li11 O35 2.052183 1_555
Mn0 O4 1.938004 1_555
Mn0 O18 1.961266 1_555
Mn0 O22 2.055500 1_555
Mn0 O12 2.094287 1_555
Mn0 O2 2.122177 1_555
Mn0 O10 2.201712 1_555
Mn1 O31 1.892486 1_555
Mn1 O38 2.016018 1_554
Mn1 O40 2.026363 1_555
Mn1 O32 2.044884 1_555
Mn1 O46 2.084925 1_555
Mn1 O26 2.217041 1_554
Mn2 O41 1.906646 1_565
Mn2 O30 2.044172 1_555
Mn2 O24 2.067781 1_555
Mn2 O33 2.073168 1_555
Mn2 O39 2.101549 1_555
Mn2 O44 2.191077 1_555
Mn3 O28 1.988329 1_556
Mn3 O42 2.016794 1_555
Mn3 O47 2.072675 1_556
Mn3 O36 2.096606 1_545
Mn3 O27 2.157817 1_555
Mn3 O34 2.218054 1_556
O0 P9 1.550523 1_455
O0 V0 1.946851 1_556
O1 P11 1.542179 1_455
O1 V2 2.038784 1_555
O2 P11 1.539385 1_455
O3 P10 1.588218 1_455
O3 V1 2.097369 1_555
O4 P0 1.557704 1_555
O5 P1 1.571507 1_555
O5 V0 1.973310 1_555
O6 P1 1.545696 1_555
O6 V1 1.874961 1_565
O7 P2 1.583383 1_556
O7 V2 2.059828 1_555
O8 P2 1.564028 1_555
O8 V1 2.013121 1_555
O9 P0 1.567187 1_555
O9 V2 1.989447 1_554
O10 P1 1.528038 1_555
O11 P2 1.567430 1_555
O11 V0 2.014028 1_545
O12 P4 1.544186 1_555
O13 P3 1.548574 1_555
O13 V0 2.113774 1_556
O14 P5 1.567798 1_555
O14 V1 1.979527 1_555
O15 P4 1.554567 1_555
O15 V2 2.057709 1_555
O16 P3 1.543405 1_555
O16 V2 1.897166 1_555
O17 P4 1.578640 1_555
O17 V1 2.046895 1_555
O18 P3 1.562470 1_555
O19 P5 1.571929 1_565
O19 V0 1.934468 1_556
O20 P6 1.557492 1_555
O20 V0 2.064636 1_555
O21 P8 1.579499 1_555
O21 V2 2.107992 1_554
O22 P7 1.519597 1_555
O23 P6 1.555882 1_545
O23 V1 1.999743 1_555
O24 P5 1.527073 1_565
O25 P4 1.536527 1_555
O25 V3 1.984037 1_555
O26 P3 1.555470 1_555
O27 P5 1.530649 1_555
O28 P6 1.556304 1_545
O29 P8 1.584956 1_555
O29 V3 1.988210 1_555
O30 P7 1.580518 1_555
O31 P8 1.522722 1_555
O32 P7 1.550373 1_555
O33 P6 1.538403 1_555
O34 P8 1.526552 1_555
O35 P7 1.577900 1_555
O35 V3 2.010745 1_555
O36 P9 1.547650 1_555
O37 P10 1.549767 1_555
O37 V3 2.140680 1_555
O38 P11 1.550462 1_555
O39 P9 1.538963 1_555
O40 P9 1.576031 1_554
O41 P10 1.520951 1_555
O42 P10 1.562536 1_555
O43 P11 1.573580 1_555
O43 V3 1.962493 1_555
O44 P1 1.554499 1_655
O45 P0 1.551954 1_655
O45 V3 2.093970 1_555
O46 P0 1.523138 1_655
O47 P2 1.512104 1_655
