# generated using pymatgen
data_Li4Mn(WO4)3
_symmetry_space_group_name_H-M   'P 1'
_cell_length_a   5.20994700
_cell_length_b   5.54069864
_cell_length_c   7.65790263
_cell_angle_alpha   94.51872865
_cell_angle_beta   90.28173266
_cell_angle_gamma   90.11743128
_symmetry_Int_Tables_number   1
_chemical_formula_structural   Li4Mn(WO4)3
_chemical_formula_sum   'Li4 Mn1 W3 O12'
_cell_volume   220.36827797
_cell_formula_units_Z   1
loop_
 _symmetry_equiv_pos_site_id
 _symmetry_equiv_pos_as_xyz
  1  'x, y, z'
loop_
 _atom_site_type_symbol
 _atom_site_label
 _atom_site_symmetry_multiplicity
 _atom_site_fract_x
 _atom_site_fract_y
 _atom_site_fract_z
 _atom_site_occupancy
  Li  Li0  1  0.99696000  0.43719300  0.31718200  1
  Li  Li1  1  0.50488400  0.90552800  0.76423400  1
  Li  Li2  1  0.00477600  0.51718300  0.72791100  1
  Li  Li3  1  0.48972500  0.90578000  0.31575900  1
  Mn  Mn0  1  0.49958000  0.48896200  0.49736600  1
  W  W0  1  0.99964600  0.98591900  0.01192400  1
  W  W1  1  0.00915900  0.00517300  0.51451800  1
  W  W2  1  0.49692000  0.47614400  0.99841900  1
  O  O0  1  0.28919600  0.17995300  0.42375400  1
  O  O1  1  0.12324700  0.00318900  0.75823200  1
  O  O2  1  0.29651200  0.81026300  0.05967200  1
  O  O3  1  0.17920400  0.71355700  0.43304100  1
  O  O4  1  0.80333000  0.70809900  0.92938700  1
  O  O5  1  0.38159900  0.53242500  0.77135500  1
  O  O6  1  0.63012300  0.52961900  0.22264200  1
  O  O7  1  0.19395400  0.30278500  0.05695500  1
  O  O8  1  0.83866700  0.31151100  0.54830600  1
  O  O9  1  0.69294500  0.19464600  0.93320300  1
  O  O10  1  0.87162100  0.01289400  0.23761900  1
  O  O11  1  0.69795200  0.83677400  0.54971900  1
loop_
_geom_bond_atom_site_label_1
_geom_bond_atom_site_label_2
_geom_bond_distance
_geom_bond_site_symmetry_2
Li0 O3 1.950670 1_655
Li0 O6 2.118469 1_555
Li0 O8 2.122238 1_555
Li0 O0 2.279379 1_655
Li0 O7 2.317019 1_655
Li0 O10 2.467496 1_555
Li1 O11 1.942857 1_555
Li1 O1 2.062938 1_565
Li1 O5 2.168346 1_555
Li1 O9 2.203386 1_565
Li1 O4 2.327969 1_555
Li1 O2 2.604945 1_556
Li2 O8 1.917437 1_455
Li2 O5 1.990113 1_555
Li2 O4 2.089080 1_455
Li3 O0 1.974889 1_565
Li3 O11 2.150255 1_555
Li3 O3 2.171681 1_555
Li3 O10 2.175284 1_565
Li3 O2 2.225786 1_555
Li3 O6 2.272574 1_555
Mn0 O0 2.069955 1_555
Mn0 O8 2.073789 1_555
Mn0 O3 2.162005 1_555
Mn0 O5 2.184458 1_555
Mn0 O11 2.192872 1_555
Mn0 O6 2.242197 1_555
O0 W1 1.913054 1_555
O1 W1 1.956781 1_555
O1 W0 2.058992 1_446
O2 W0 1.878765 1_455
O2 W2 2.147848 1_554
O3 W1 1.907168 1_565
O4 W0 1.910233 1_556
O4 W2 2.141624 1_555
O5 W2 1.886186 1_555
O6 W2 1.850683 1_554
O7 W2 1.919273 1_554
O7 W0 2.029769 1_445
O8 W1 1.917316 1_655
O9 W2 1.901023 1_555
O9 W0 2.088568 1_546
O10 W0 1.850802 1_545
O10 W1 2.238559 1_655
O11 W1 1.899953 1_665
