# generated using pymatgen
data_TaTlO3
_symmetry_space_group_name_H-M   'P 1'
_cell_length_a   7.54534136
_cell_length_b   7.54534136
_cell_length_c   7.54534136
_cell_angle_alpha   60.00000000
_cell_angle_beta   60.00000000
_cell_angle_gamma   60.00000000
_symmetry_Int_Tables_number   1
_chemical_formula_structural   TaTlO3
_chemical_formula_sum   'Ta4 Tl4 O12'
_cell_volume   303.75377173
_cell_formula_units_Z   4
loop_
 _symmetry_equiv_pos_site_id
 _symmetry_equiv_pos_as_xyz
  1  'x, y, z'
loop_
 _atom_site_type_symbol
 _atom_site_label
 _atom_site_symmetry_multiplicity
 _atom_site_fract_x
 _atom_site_fract_y
 _atom_site_fract_z
 _atom_site_occupancy
  Ta  Ta0  1  0.12500000  0.12500000  0.12500000  1
  Ta  Ta1  1  0.62500000  0.12500000  0.12500000  1
  Ta  Ta2  1  0.12500000  0.62500000  0.12500000  1
  Ta  Ta3  1  0.12500000  0.12500000  0.62500000  1
  Tl  Tl0  1  0.62500000  0.62500000  0.12500000  1
  Tl  Tl1  1  0.62500000  0.62500000  0.62500000  1
  Tl  Tl2  1  0.62500000  0.12500000  0.62500000  1
  Tl  Tl3  1  0.12500000  0.62500000  0.62500000  1
  O  O0  1  0.06449703  0.43550297  0.43550297  1
  O  O1  1  0.81449703  0.81449703  0.18550297  1
  O  O2  1  0.81449703  0.18550297  0.18550297  1
  O  O3  1  0.43550297  0.06449703  0.43550297  1
  O  O4  1  0.06449703  0.43550297  0.06449703  1
  O  O5  1  0.06449703  0.06449703  0.43550297  1
  O  O6  1  0.18550297  0.18550297  0.81449703  1
  O  O7  1  0.18550297  0.81449703  0.18550297  1
  O  O8  1  0.81449703  0.18550297  0.81449703  1
  O  O9  1  0.43550297  0.06449703  0.06449703  1
  O  O10  1  0.43550297  0.43550297  0.06449703  1
  O  O11  1  0.18550297  0.81449703  0.81449703  1
loop_
_geom_bond_atom_site_label_1
_geom_bond_atom_site_label_2
_geom_bond_distance
_geom_bond_site_symmetry_2
O0 Ta2 1.993759 1_555
O0 Ta3 1.993759 1_555
O0 Tl3 2.765326 1_555
O0 Tl1 2.765326 1_455
O1 Ta1 1.993759 1_565
O1 Ta2 1.993759 1_655
O1 Tl1 2.765326 1_555
O1 Tl0 2.765326 1_555
O2 Ta0 1.993759 1_655
O2 Ta1 1.993759 1_555
O2 Tl2 2.765326 1_555
O2 Tl0 2.765326 1_555
O3 Ta3 1.993759 1_555
O3 Ta1 1.993759 1_555
O3 Tl1 2.765326 1_545
O3 Tl2 2.765326 1_555
O4 Ta0 1.993759 1_555
O4 Ta2 1.993759 1_555
O4 Tl3 2.765326 1_554
O4 Tl0 2.765326 1_455
O5 Ta3 1.993759 1_555
O5 Ta0 1.993759 1_555
O5 Tl3 2.765326 1_545
O5 Tl2 2.765326 1_455
O6 Ta0 1.993759 1_556
O6 Ta3 1.993759 1_555
O6 Tl3 2.765326 1_555
O6 Tl2 2.765326 1_555
O7 Ta0 1.993759 1_565
O7 Ta2 1.993759 1_555
O7 Tl3 2.765326 1_555
O7 Tl0 2.765326 1_555
O8 Ta1 1.993759 1_556
O8 Ta3 1.993759 1_655
O8 Tl1 2.765326 1_555
O8 Tl2 2.765326 1_555
O9 Ta0 1.993759 1_555
O9 Ta1 1.993759 1_555
O9 Tl0 2.765326 1_545
O9 Tl2 2.765326 1_554
O10 Ta2 1.993759 1_555
O10 Ta1 1.993759 1_555
O10 Tl1 2.765326 1_554
O10 Tl0 2.765326 1_555
O11 Ta3 1.993759 1_565
O11 Ta2 1.993759 1_556
O11 Tl1 2.765326 1_555
O11 Tl3 2.765326 1_555
