# generated using pymatgen
data_Li2Mn4O9
_symmetry_space_group_name_H-M   'P 1'
_cell_length_a   4.93901349
_cell_length_b   4.93901349
_cell_length_c   13.58692700
_cell_angle_alpha   90.00000000
_cell_angle_beta   90.00000000
_cell_angle_gamma   119.99999311
_symmetry_Int_Tables_number   1
_chemical_formula_structural   Li2Mn4O9
_chemical_formula_sum   'Li4 Mn8 O18'
_cell_volume   287.03332893
_cell_formula_units_Z   2
loop_
 _symmetry_equiv_pos_site_id
 _symmetry_equiv_pos_as_xyz
  1  'x, y, z'
loop_
 _atom_site_type_symbol
 _atom_site_label
 _atom_site_symmetry_multiplicity
 _atom_site_fract_x
 _atom_site_fract_y
 _atom_site_fract_z
 _atom_site_occupancy
  Li  Li0  1  0.00000000  0.00000000  0.64822900  1
  Li  Li1  1  0.00000000  0.00000000  0.85177100  1
  Li  Li2  1  0.00000000  0.00000000  0.14822900  1
  Li  Li3  1  0.00000000  0.00000000  0.35177100  1
  Mn  Mn0  1  0.33333300  0.66666700  0.51468700  1
  Mn  Mn1  1  0.33333300  0.66666700  0.81547700  1
  Mn  Mn2  1  0.33333300  0.66666700  0.31547700  1
  Mn  Mn3  1  0.33333300  0.66666700  0.01468700  1
  Mn  Mn4  1  0.66666700  0.33333300  0.68452300  1
  Mn  Mn5  1  0.66666700  0.33333300  0.18452300  1
  Mn  Mn6  1  0.66666700  0.33333300  0.98531300  1
  Mn  Mn7  1  0.66666700  0.33333300  0.48531300  1
  O  O0  1  0.00000000  0.66884500  0.25000000  1
  O  O1  1  0.03106300  0.65658400  0.92019900  1
  O  O2  1  0.34341600  0.96893700  0.42019900  1
  O  O3  1  0.03106300  0.37447900  0.42019900  1
  O  O4  1  0.00000000  0.33115500  0.75000000  1
  O  O5  1  0.33115500  0.33115500  0.25000000  1
  O  O6  1  0.34341600  0.37447900  0.92019900  1
  O  O7  1  0.62552100  0.96893700  0.92019900  1
  O  O8  1  0.37447900  0.34341600  0.57980100  1
  O  O9  1  0.33115500  0.00000000  0.75000000  1
  O  O10  1  0.62552100  0.65658400  0.42019900  1
  O  O11  1  0.37447900  0.03106300  0.07980100  1
  O  O12  1  0.65658400  0.62552100  0.07980100  1
  O  O13  1  0.66884500  0.66884500  0.75000000  1
  O  O14  1  0.96893700  0.62552100  0.57980100  1
  O  O15  1  0.65658400  0.03106300  0.57980100  1
  O  O16  1  0.66884500  0.00000000  0.25000000  1
  O  O17  1  0.96893700  0.34341600  0.07980100  1
loop_
_geom_bond_atom_site_label_1
_geom_bond_atom_site_label_2
_geom_bond_distance
_geom_bond_site_symmetry_2
Li0 O15 2.006248 1_455
Li0 O14 2.006248 1_445
Li0 O8 2.006248 1_555
Li0 O9 2.141759 1_555
Li0 O4 2.141759 1_555
Li0 O13 2.141759 1_445
Li1 O1 2.006248 1_545
Li1 O7 2.006248 1_445
Li1 O6 2.006248 1_555
Li1 O9 2.141759 1_555
Li1 O4 2.141759 1_555
Li1 O13 2.141759 1_445
Li2 O17 2.006248 1_455
Li2 O11 2.006248 1_555
Li2 O12 2.006248 1_445
Li2 O0 2.141759 1_545
Li2 O16 2.141759 1_455
Li2 O5 2.141759 1_555
Li3 O2 2.006248 1_545
Li3 O3 2.006248 1_555
Li3 O10 2.006248 1_445
Li3 O0 2.141759 1_545
Li3 O16 2.141759 1_455
Li3 O5 2.141759 1_555
Mn0 O14 1.922854 1_455
Mn0 O15 1.922856 1_565
Mn0 O8 1.922858 1_555
Mn0 O2 1.950660 1_555
Mn0 O3 1.950662 1_555
Mn0 O10 1.950664 1_555
Mn1 O9 1.876084 1_565
Mn1 O4 1.876087 1_555
Mn1 O13 1.876089 1_555
Mn1 O1 2.044855 1_555
Mn1 O7 2.044857 1_555
Mn1 O6 2.044859 1_555
Mn2 O0 1.876084 1_555
Mn2 O16 1.876087 1_565
Mn2 O5 1.876089 1_555
Mn2 O2 2.044855 1_555
Mn2 O3 2.044857 1_555
Mn2 O10 2.044859 1_555
Mn3 O11 1.922854 1_565
Mn3 O17 1.922856 1_455
Mn3 O12 1.922858 1_555
Mn3 O1 1.950660 1_554
Mn3 O7 1.950662 1_554
Mn3 O6 1.950664 1_554
Mn4 O4 1.876084 1_655
Mn4 O9 1.876087 1_555
Mn4 O13 1.876089 1_555
Mn4 O15 2.044855 1_555
Mn4 O14 2.044857 1_555
Mn4 O8 2.044859 1_555
Mn5 O16 1.876084 1_555
Mn5 O0 1.876087 1_655
Mn5 O5 1.876089 1_555
Mn5 O17 2.044855 1_555
Mn5 O11 2.044857 1_555
Mn5 O12 2.044859 1_555
Mn6 O7 1.922854 1_545
Mn6 O1 1.922856 1_655
Mn6 O6 1.922858 1_555
Mn6 O17 1.950660 1_556
Mn6 O11 1.950662 1_556
Mn6 O12 1.950664 1_556
Mn7 O3 1.922854 1_655
Mn7 O2 1.922856 1_545
Mn7 O10 1.922858 1_555
Mn7 O15 1.950660 1_555
Mn7 O14 1.950662 1_555
Mn7 O8 1.950664 1_555
