# generated using pymatgen
data_FePO4
_symmetry_space_group_name_H-M   'P 1'
_cell_length_a   4.78109200
_cell_length_b   6.59323700
_cell_length_c   8.75080400
_cell_angle_alpha   90.00000000
_cell_angle_beta   90.00000000
_cell_angle_gamma   90.00000000
_symmetry_Int_Tables_number   1
_chemical_formula_structural   FePO4
_chemical_formula_sum   'Fe4 P4 O16'
_cell_volume   275.85048029
_cell_formula_units_Z   4
loop_
 _symmetry_equiv_pos_site_id
 _symmetry_equiv_pos_as_xyz
  1  'x, y, z'
loop_
 _atom_site_type_symbol
 _atom_site_label
 _atom_site_symmetry_multiplicity
 _atom_site_fract_x
 _atom_site_fract_y
 _atom_site_fract_z
 _atom_site_occupancy
  Fe  Fe0  1  0.00000000  0.00000000  0.00000000  1
  Fe  Fe1  1  0.00000000  0.50000000  0.00000000  1
  Fe  Fe2  1  0.50000000  0.00000000  0.50000000  1
  Fe  Fe3  1  0.50000000  0.50000000  0.50000000  1
  P  P0  1  0.47161800  0.25000000  0.17583900  1
  P  P1  1  0.97161800  0.75000000  0.32416100  1
  P  P2  1  0.02838200  0.25000000  0.67583900  1
  P  P3  1  0.52838200  0.75000000  0.82416100  1
  O  O0  1  0.32624000  0.05652200  0.11966000  1
  O  O1  1  0.32624000  0.44347800  0.11966000  1
  O  O2  1  0.78314700  0.25000000  0.12009900  1
  O  O3  1  0.94093000  0.75000000  0.14410500  1
  O  O4  1  0.44093000  0.25000000  0.35589500  1
  O  O5  1  0.28314700  0.75000000  0.37990100  1
  O  O6  1  0.82624000  0.55652200  0.38034000  1
  O  O7  1  0.82624000  0.94347800  0.38034000  1
  O  O8  1  0.17376000  0.05652200  0.61966000  1
  O  O9  1  0.17376000  0.44347800  0.61966000  1
  O  O10  1  0.71685300  0.25000000  0.62009900  1
  O  O11  1  0.55907000  0.75000000  0.64410500  1
  O  O12  1  0.05907000  0.25000000  0.85589500  1
  O  O13  1  0.21685300  0.75000000  0.87990100  1
  O  O14  1  0.67376000  0.55652200  0.88034000  1
  O  O15  1  0.67376000  0.94347800  0.88034000  1
loop_
_geom_bond_atom_site_label_1
_geom_bond_atom_site_label_2
_geom_bond_distance
_geom_bond_site_symmetry_2
Fe0 O0 1.915271 1_555
Fe0 O15 1.915271 1_444
Fe0 O3 2.094491 1_445
Fe0 O12 2.094491 1_554
Fe0 O2 2.212778 1_455
Fe0 O13 2.212778 1_544
Fe1 O1 1.915271 1_555
Fe1 O14 1.915271 1_454
Fe1 O3 2.094491 1_455
Fe1 O12 2.094491 1_554
Fe1 O2 2.212778 1_455
Fe1 O13 2.212778 1_554
Fe2 O8 1.915271 1_555
Fe2 O7 1.915271 1_545
Fe2 O4 2.094491 1_555
Fe2 O11 2.094491 1_545
Fe2 O10 2.212778 1_555
Fe2 O5 2.212778 1_545
Fe3 O6 1.915271 1_555
Fe3 O9 1.915271 1_555
Fe3 O4 2.094491 1_555
Fe3 O11 2.094491 1_555
Fe3 O10 2.212778 1_555
Fe3 O5 2.212778 1_555
O0 P0 1.533646 1_555
O1 P0 1.533646 1_555
O2 P0 1.567283 1_555
O3 P1 1.582451 1_555
O4 P0 1.582451 1_555
O5 P1 1.567283 1_455
O6 P1 1.533646 1_555
O7 P1 1.533646 1_555
O8 P2 1.533646 1_555
O9 P2 1.533646 1_555
O10 P2 1.567283 1_655
O11 P3 1.582451 1_555
O12 P2 1.582451 1_555
O13 P3 1.567283 1_555
O14 P3 1.533646 1_555
O15 P3 1.533646 1_555
