# generated using pymatgen
data_Li3Bi2(PO4)3
_symmetry_space_group_name_H-M   'P 1'
_cell_length_a   9.71711846
_cell_length_b   9.71711846
_cell_length_c   17.38783958
_cell_angle_alpha   63.94400128
_cell_angle_beta   63.94400128
_cell_angle_gamma   49.34402391
_symmetry_Int_Tables_number   1
_chemical_formula_structural   Li3Bi2(PO4)3
_chemical_formula_sum   'Li12 Bi8 P12 O48'
_cell_volume   1090.35164493
_cell_formula_units_Z   4
loop_
 _symmetry_equiv_pos_site_id
 _symmetry_equiv_pos_as_xyz
  1  'x, y, z'
loop_
 _atom_site_type_symbol
 _atom_site_label
 _atom_site_symmetry_multiplicity
 _atom_site_fract_x
 _atom_site_fract_y
 _atom_site_fract_z
 _atom_site_occupancy
  Li  Li0  1  0.50347500  0.76792300  0.85448300  1
  Li  Li1  1  0.13256300  0.22509100  0.44914200  1
  Li  Li2  1  0.53459700  0.46540300  0.75000000  1
  Li  Li3  1  0.77490900  0.86743700  0.05085800  1
  Li  Li4  1  0.23207700  0.49652500  0.64551700  1
  Li  Li5  1  0.00000000  0.50000000  0.00000000  1
  Li  Li6  1  0.76792300  0.50347500  0.35448300  1
  Li  Li7  1  0.22509100  0.13256300  0.94914200  1
  Li  Li8  1  0.46540300  0.53459700  0.25000000  1
  Li  Li9  1  0.86743700  0.77490900  0.55085800  1
  Li  Li10  1  0.49652500  0.23207700  0.14551700  1
  Li  Li11  1  0.50000000  0.00000000  0.50000000  1
  Bi  Bi0  1  0.20197100  0.71883200  0.02995100  1
  Bi  Bi1  1  0.93258500  0.74906900  0.33531100  1
  Bi  Bi2  1  0.25093100  0.06741500  0.16468900  1
  Bi  Bi3  1  0.28116800  0.79802900  0.47004900  1
  Bi  Bi4  1  0.71883200  0.20197100  0.52995100  1
  Bi  Bi5  1  0.74906900  0.93258500  0.83531100  1
  Bi  Bi6  1  0.06741500  0.25093100  0.66468900  1
  Bi  Bi7  1  0.79802900  0.28116800  0.97004900  1
  P  P0  1  0.05913100  0.93678800  0.86310000  1
  P  P1  1  0.06836000  0.50761100  0.18883500  1
  P  P2  1  0.67065400  0.61347300  0.53901400  1
  P  P3  1  0.38652700  0.32934700  0.96098600  1
  P  P4  1  0.49238900  0.93164000  0.31116500  1
  P  P5  1  0.06321200  0.94086900  0.63690000  1
  P  P6  1  0.93678800  0.05913100  0.36310000  1
  P  P7  1  0.50761100  0.06836000  0.68883500  1
  P  P8  1  0.61347300  0.67065400  0.03901400  1
  P  P9  1  0.32934600  0.38652700  0.46098600  1
  P  P10  1  0.93164000  0.49238900  0.81116500  1
  P  P11  1  0.94086900  0.06321200  0.13690000  1
  O  O0  1  0.53214500  0.96935400  0.78467700  1
  O  O1  1  0.69129000  0.95539100  0.62303800  1
  O  O2  1  0.82454600  0.03594900  0.33516800  1
  O  O3  1  0.06007100  0.04792700  0.03809500  1
  O  O4  1  0.48081300  0.74997800  0.98093700  1
  O  O5  1  0.03014000  0.85763900  0.19017400  1
  O  O6  1  0.25928700  0.83784400  0.86858900  1
  O  O7  1  0.26338000  0.46861300  0.16384700  1
  O  O8  1  0.78069700  0.70616100  0.50213200  1
  O  O9  1  0.64657400  0.92341100  0.32307900  1
  O  O10  1  0.67881300  0.50894900  0.63558000  1
  O  O11  1  0.96935400  0.53214500  0.28467700  1
  O  O12  1  0.21556500  0.53126200  0.97344800  1
  O  O13  1  0.95539100  0.69129000  0.12303800  1
  O  O14  1  0.46873800  0.78443500  0.52655200  1
  O  O15  1  0.03594900  0.82454600  0.83516800  1
  O  O16  1  0.49105100  0.32118700  0.86442000  1
  O  O17  1  0.04792700  0.06007100  0.53809500  1
  O  O18  1  0.07658900  0.35342600  0.17692100  1
  O  O19  1  0.74997800  0.48081300  0.48093700  1
  O  O20  1  0.85763900  0.03014000  0.69017400  1
  O  O21  1  0.29383900  0.21930300  0.99786800  1
  O  O22  1  0.16215600  0.74071300  0.63141100  1
  O  O23  1  0.53138700  0.73662000  0.33615300  1
  O  O24  1  0.46861300  0.26338000  0.66384700  1
  O  O25  1  0.83784400  0.25928700  0.36858900  1
  O  O26  1  0.70616100  0.78069700  0.00213200  1
  O  O27  1  0.14236100  0.96986000  0.30982600  1
  O  O28  1  0.25002200  0.51918700  0.51906300  1
  O  O29  1  0.92341100  0.64657400  0.82307900  1
  O  O30  1  0.95207300  0.93992900  0.46190500  1
  O  O31  1  0.50894900  0.67881300  0.13558000  1
  O  O32  1  0.96405100  0.17545400  0.16483200  1
  O  O33  1  0.53126200  0.21556500  0.47344800  1
  O  O34  1  0.04460900  0.30871000  0.87696200  1
  O  O35  1  0.78443500  0.46873800  0.02655200  1
  O  O36  1  0.03064600  0.46785500  0.71532300  1
  O  O37  1  0.32118700  0.49105100  0.36442000  1
  O  O38  1  0.35342600  0.07658900  0.67692100  1
  O  O39  1  0.21930300  0.29383900  0.49786800  1
  O  O40  1  0.73662000  0.53138700  0.83615300  1
  O  O41  1  0.74071300  0.16215600  0.13141100  1
  O  O42  1  0.96986000  0.14236100  0.80982600  1
  O  O43  1  0.51918700  0.25002200  0.01906300  1
  O  O44  1  0.93992900  0.95207300  0.96190500  1
  O  O45  1  0.17545400  0.96405100  0.66483200  1
  O  O46  1  0.30871000  0.04460900  0.37696200  1
  O  O47  1  0.46785500  0.03064600  0.21532300  1
loop_
_geom_bond_atom_site_label_1
_geom_bond_atom_site_label_2
_geom_bond_distance
_geom_bond_site_symmetry_2
Li0 O6 1.920005 1_555
Li0 O0 1.925713 1_555
Li0 O40 1.934192 1_555
Li0 O4 2.049709 1_555
Li1 O46 1.927577 1_555
Li1 O39 1.932031 1_555
Li1 O17 2.015444 1_555
Li2 O10 1.919600 1_555
Li2 O16 1.919600 1_555
Li3 O13 1.927577 1_555
Li3 O26 1.932031 1_555
Li3 O44 2.015444 1_554
Li4 O22 1.920005 1_555
Li4 O36 1.925713 1_555
Li4 O24 1.934192 1_555
Li4 O28 2.049709 1_555
Li5 O12 2.132939 1_554
Li5 O35 2.132939 1_455
Li5 O26 2.332695 1_455
Li5 O21 2.332695 1_554
Li6 O25 1.920005 1_555
Li6 O11 1.925713 1_555
Li6 O23 1.934192 1_555
Li6 O19 2.049709 1_555
Li7 O34 1.927577 1_555
Li7 O21 1.932031 1_555
Li7 O3 2.015444 1_556
Li8 O31 1.919600 1_555
Li8 O37 1.919600 1_555
Li9 O1 1.927577 1_555
Li9 O8 1.932031 1_555
Li9 O30 2.015444 1_555
Li10 O41 1.920005 1_555
Li10 O47 1.925713 1_555
Li10 O7 1.934192 1_555
Li10 O43 2.049709 1_555
Li11 O33 2.132939 1_555
Li11 O14 2.132939 1_545
Li11 O8 2.332695 1_545
Li11 O39 2.332695 1_555
Bi0 O12 2.334542 1_554
Bi0 O13 2.341048 1_455
Bi0 O44 2.406516 1_454
Bi0 O7 2.458692 1_555
Bi0 O6 2.477043 1_554
Bi0 O3 2.574547 1_565
Bi0 O4 2.640616 1_554
Bi1 O9 2.169546 1_555
Bi1 O2 2.248541 1_565
Bi1 O5 2.289736 1_655
Bi1 O11 2.391354 1_555
Bi1 O8 2.596998 1_555
Bi2 O18 2.169546 1_555
Bi2 O32 2.248541 1_455
Bi2 O27 2.289736 1_545
Bi2 O47 2.391354 1_555
Bi2 O21 2.596998 1_554
Bi3 O14 2.334542 1_555
Bi3 O46 2.341048 1_565
Bi3 O17 2.406516 1_565
Bi3 O23 2.458692 1_555
Bi3 O22 2.477043 1_555
Bi3 O30 2.574547 1_455
Bi3 O28 2.640616 1_555
Bi4 O33 2.334542 1_555
Bi4 O1 2.341048 1_545
Bi4 O30 2.406516 1_545
Bi4 O24 2.458692 1_555
Bi4 O25 2.477043 1_555
Bi4 O17 2.574547 1_655
Bi4 O19 2.640616 1_555
Bi5 O29 2.169546 1_555
Bi5 O15 2.248541 1_655
Bi5 O20 2.289736 1_565
Bi5 O0 2.391354 1_555
Bi5 O26 2.596998 1_556
Bi6 O38 2.169546 1_555
Bi6 O45 2.248541 1_545
Bi6 O42 2.289736 1_455
Bi6 O36 2.391354 1_555
Bi6 O39 2.596998 1_555
Bi7 O35 2.334542 1_556
Bi7 O34 2.341048 1_655
Bi7 O3 2.406516 1_656
Bi7 O40 2.458692 1_555
Bi7 O41 2.477043 1_556
Bi7 O44 2.574547 1_545
Bi7 O43 2.640616 1_556
O0 P7 1.549602 1_565
O1 P7 1.567152 1_565
O2 P6 1.535508 1_555
O3 P11 1.602209 1_455
O4 P8 1.562264 1_556
O5 P11 1.556694 1_465
O6 P0 1.536921 1_555
O7 P1 1.552132 1_555
O8 P2 1.584595 1_555
O9 P4 1.547907 1_555
O10 P2 1.539806 1_555
O11 P1 1.549602 1_655
O12 P3 1.570478 1_555
O13 P1 1.567152 1_655
O14 P2 1.570484 1_555
O15 P0 1.535508 1_555
O16 P3 1.539807 1_555
O17 P5 1.602209 1_545
O18 P1 1.547907 1_555
O19 P2 1.562264 1_555
O20 P5 1.556694 1_645
O21 P3 1.584603 1_555
O22 P5 1.536921 1_555
O23 P4 1.552132 1_555
O24 P7 1.552132 1_555
O25 P6 1.536921 1_555
O26 P8 1.584595 1_555
O27 P6 1.556694 1_465
O28 P9 1.562264 1_555
O29 P10 1.547907 1_555
O30 P6 1.602209 1_565
O31 P8 1.539806 1_555
O32 P11 1.535508 1_555
O33 P9 1.570484 1_555
O34 P10 1.567152 1_455
O35 P8 1.570484 1_555
O36 P10 1.549602 1_455
O37 P9 1.539806 1_555
O38 P7 1.547907 1_555
O39 P9 1.584595 1_555
O40 P10 1.552132 1_555
O41 P11 1.536921 1_555
O42 P0 1.556694 1_645
O43 P3 1.562261 1_554
O44 P0 1.602209 1_655
O45 P5 1.535508 1_555
O46 P4 1.567152 1_545
O47 P4 1.549602 1_545
