# generated using pymatgen
data_Li4Mn3Nb3(FeO8)2
_symmetry_space_group_name_H-M   'P 1'
_cell_length_a   6.20913667
_cell_length_b   6.03444634
_cell_length_c   9.84576057
_cell_angle_alpha   89.92515087
_cell_angle_beta   87.99365265
_cell_angle_gamma   119.08211930
_symmetry_Int_Tables_number   1
_chemical_formula_structural   Li4Mn3Nb3(FeO8)2
_chemical_formula_sum   'Li4 Mn3 Nb3 Fe2 O16'
_cell_volume   322.12886309
_cell_formula_units_Z   1
loop_
 _symmetry_equiv_pos_site_id
 _symmetry_equiv_pos_as_xyz
  1  'x, y, z'
loop_
 _atom_site_type_symbol
 _atom_site_label
 _atom_site_symmetry_multiplicity
 _atom_site_fract_x
 _atom_site_fract_y
 _atom_site_fract_z
 _atom_site_occupancy
  Li  Li0  1  0.34164700  0.67100900  0.90031000  1
  Li  Li1  1  0.00312400  0.00140700  0.00232500  1
  Li  Li2  1  0.02792300  0.01378500  0.48802800  1
  Li  Li3  1  0.67555400  0.33798700  0.38756800  1
  Mn  Mn0  1  0.17318100  0.83214500  0.21300800  1
  Mn  Mn1  1  0.17264000  0.34102500  0.21288400  1
  Mn  Mn2  1  0.34014300  0.17014400  0.71452700  1
  Nb  Nb0  1  0.66007700  0.82985700  0.21884900  1
  Nb  Nb1  1  0.83070300  0.66323800  0.71548300  1
  Nb  Nb2  1  0.83082800  0.16769900  0.71538800  1
  Fe  Fe0  1  0.30653300  0.65357800  0.47961500  1
  Fe  Fe1  1  0.64515400  0.32250300  0.00364900  1
  O  O0  1  0.14842700  0.82514300  0.59853900  1
  O  O1  1  0.04574700  0.52299500  0.32753700  1
  O  O2  1  0.33161900  0.66587600  0.10977000  1
  O  O3  1  0.00272600  0.00142500  0.30320200  1
  O  O4  1  0.98629800  0.99301100  0.81825400  1
  O  O5  1  0.14851400  0.32284000  0.59847200  1
  O  O6  1  0.49815000  0.96654800  0.34707900  1
  O  O7  1  0.49719800  0.53106800  0.34687900  1
  O  O8  1  0.31203800  0.15609400  0.10085700  1
  O  O9  1  0.69305600  0.84657900  0.60482900  1
  O  O10  1  0.53348900  0.49192800  0.83818100  1
  O  O11  1  0.53320800  0.04153300  0.83801000  1
  O  O12  1  0.69667600  0.34844900  0.60018500  1
  O  O13  1  0.79714300  0.65799200  0.09637700  1
  O  O14  1  0.96983800  0.48463100  0.83143300  1
  O  O15  1  0.79836500  0.13981000  0.09660400  1
loop_
_geom_bond_atom_site_label_1
_geom_bond_atom_site_label_2
_geom_bond_distance
_geom_bond_site_symmetry_2
Li0 O11 2.037224 1_565
Li0 O10 2.040335 1_555
Li0 O2 2.060790 1_556
Li0 O14 2.154535 1_455
Li1 O4 1.818333 1_444
Li1 O8 1.970700 1_555
Li1 O13 2.030585 1_445
Li1 O15 2.031553 1_455
Li2 O3 1.830433 1_555
Li2 O0 1.980237 1_545
Li2 O5 1.981424 1_555
Li2 O9 2.110417 1_445
Li3 O7 2.007149 1_555
Li3 O6 2.007285 1_545
Li3 O1 2.070676 1_655
Li3 O12 2.101173 1_555
Mn0 O1 1.968488 1_555
Mn0 O2 1.974804 1_555
Mn0 O3 1.984896 1_565
Mn0 O8 2.018250 1_565
Mn0 O6 2.251690 1_555
Mn0 O13 2.383322 1_455
Mn1 O1 1.970506 1_555
Mn1 O2 1.972661 1_555
Mn1 O3 1.982730 1_555
Mn1 O8 2.021499 1_555
Mn1 O7 2.249503 1_555
Mn1 O15 2.373289 1_455
Mn2 O11 2.126384 1_555
Mn2 O10 2.129872 1_555
Mn2 O4 2.137689 1_445
Mn2 O5 2.174556 1_555
Mn2 O0 2.178911 1_545
Mn2 O12 2.198324 1_555
Nb0 O7 1.998714 1_555
Nb0 O6 2.001320 1_555
Nb0 O13 2.010816 1_555
Nb0 O15 2.011170 1_565
Nb0 O3 2.067077 1_665
Nb0 O2 2.118065 1_555
Nb1 O10 1.979844 1_555
Nb1 O4 2.030286 1_555
Nb1 O9 2.030446 1_555
Nb1 O12 2.030922 1_555
Nb1 O0 2.033835 1_655
Nb1 O14 2.045060 1_555
Nb2 O11 1.981379 1_555
Nb2 O12 2.028843 1_555
Nb2 O4 2.030702 1_545
Nb2 O9 2.032474 1_545
Nb2 O5 2.033593 1_655
Nb2 O14 2.044050 1_555
Fe0 O0 2.077809 1_555
Fe0 O5 2.079735 1_555
Fe0 O6 2.094197 1_555
Fe0 O7 2.097862 1_555
Fe0 O1 2.101751 1_555
Fe0 O9 2.475855 1_555
Fe1 O13 2.007625 1_555
Fe1 O15 2.008946 1_555
Fe1 O8 2.010542 1_555
Fe1 O10 2.223511 1_554
Fe1 O11 2.226755 1_554
Fe1 O14 2.394877 1_554
