# generated using pymatgen
data_NaMgPH12O11
_symmetry_space_group_name_H-M   'P 1'
_cell_length_a   6.85864500
_cell_length_b   6.85864500
_cell_length_c   10.94138800
_cell_angle_alpha   90.00000000
_cell_angle_beta   90.00000000
_cell_angle_gamma   90.00000000
_symmetry_Int_Tables_number   1
_chemical_formula_structural   NaMgPH12O11
_chemical_formula_sum   'Na2 Mg2 P2 H24 O22'
_cell_volume   514.69395585
_cell_formula_units_Z   2
loop_
 _symmetry_equiv_pos_site_id
 _symmetry_equiv_pos_as_xyz
  1  'x, y, z'
loop_
 _atom_site_type_symbol
 _atom_site_label
 _atom_site_symmetry_multiplicity
 _atom_site_fract_x
 _atom_site_fract_y
 _atom_site_fract_z
 _atom_site_occupancy
  Na  Na0  1  0.50000000  0.50000000  0.50000000  1
  Na  Na1  1  0.50000000  0.50000000  0.00000000  1
  Mg  Mg0  1  0.50000000  0.00000000  0.50000000  1
  Mg  Mg1  1  0.00000000  0.50000000  0.00000000  1
  P  P0  1  0.00000000  0.00000000  0.75000000  1
  P  P1  1  0.00000000  0.00000000  0.25000000  1
  H  H0  1  0.19176100  0.21775100  0.57113300  1
  H  H1  1  0.80823900  0.78224900  0.57113300  1
  H  H2  1  0.78224900  0.19176100  0.07113300  1
  H  H3  1  0.21775100  0.80823900  0.07113300  1
  H  H4  1  0.80823900  0.21775100  0.42886700  1
  H  H5  1  0.19176100  0.78224900  0.42886700  1
  H  H6  1  0.21775100  0.19176100  0.92886700  1
  H  H7  1  0.78224900  0.80823900  0.92886700  1
  H  H8  1  0.80823900  0.78224900  0.42886700  1
  H  H9  1  0.19176100  0.21775100  0.42886700  1
  H  H10  1  0.21775100  0.80823900  0.92886700  1
  H  H11  1  0.78224900  0.19176100  0.92886700  1
  H  H12  1  0.19176100  0.78224900  0.57113300  1
  H  H13  1  0.80823900  0.21775100  0.57113300  1
  H  H14  1  0.78224900  0.80823900  0.07113300  1
  H  H15  1  0.21775100  0.19176100  0.07113300  1
  H  H16  1  0.38216900  0.00000000  0.74302100  1
  H  H17  1  0.61783100  0.00000000  0.74302100  1
  H  H18  1  0.00000000  0.38216900  0.24302100  1
  H  H19  1  0.00000000  0.61783100  0.24302100  1
  H  H20  1  0.61783100  0.00000000  0.25697900  1
  H  H21  1  0.38216900  0.00000000  0.25697900  1
  H  H22  1  0.00000000  0.38216900  0.75697900  1
  H  H23  1  0.00000000  0.61783100  0.75697900  1
  O  O0  1  0.18587900  0.00000000  0.83139500  1
  O  O1  1  0.81412100  0.00000000  0.83139500  1
  O  O2  1  0.00000000  0.18587900  0.33139500  1
  O  O3  1  0.00000000  0.81412100  0.33139500  1
  O  O4  1  0.81412100  0.00000000  0.16860500  1
  O  O5  1  0.18587900  0.00000000  0.16860500  1
  O  O6  1  0.00000000  0.18587900  0.66860500  1
  O  O7  1  0.00000000  0.81412100  0.66860500  1
  O  O8  1  0.28397800  0.22641500  0.50000000  1
  O  O9  1  0.71602200  0.77358500  0.50000000  1
  O  O10  1  0.77358500  0.28397800  0.00000000  1
  O  O11  1  0.22641500  0.71602200  0.00000000  1
  O  O12  1  0.71602200  0.22641500  0.50000000  1
  O  O13  1  0.28397800  0.77358500  0.50000000  1
  O  O14  1  0.22641500  0.28397800  0.00000000  1
  O  O15  1  0.77358500  0.71602200  0.00000000  1
  O  O16  1  0.50000000  0.00000000  0.68805700  1
  O  O17  1  0.00000000  0.50000000  0.18805700  1
  O  O18  1  0.50000000  0.00000000  0.31194300  1
  O  O19  1  0.00000000  0.50000000  0.81194300  1
  O  O20  1  0.50000000  0.50000000  0.75000000  1
  O  O21  1  0.50000000  0.50000000  0.25000000  1
loop_
_geom_bond_atom_site_label_1
_geom_bond_atom_site_label_2
_geom_bond_distance
_geom_bond_site_symmetry_2
Na0 O9 2.390848 1_555
Na0 O13 2.390848 1_555
Na0 O12 2.390848 1_555
Na0 O8 2.390848 1_555
Na0 O20 2.735347 1_555
Na0 O21 2.735347 1_555
Na1 O15 2.390848 1_555
Na1 O10 2.390848 1_555
Na1 O11 2.390848 1_555
Na1 O14 2.390848 1_555
Na1 O21 2.735347 1_555
Na1 O20 2.735347 1_554
Mg0 O16 2.057605 1_555
Mg0 O18 2.057605 1_555
Mg0 O12 2.146320 1_555
Mg0 O9 2.146320 1_545
Mg0 O8 2.146320 1_555
Mg0 O13 2.146320 1_545
Mg1 O17 2.057605 1_555
Mg1 O19 2.057605 1_554
Mg1 O11 2.146320 1_555
Mg1 O15 2.146320 1_455
Mg1 O14 2.146320 1_555
Mg1 O10 2.146320 1_455
H0 O8 1.004643 1_555
H0 O6 1.707328 1_555
H1 O9 1.004643 1_555
H1 O7 1.707328 1_655
H2 O10 1.004643 1_555
H2 O4 1.707328 1_555
H3 O11 1.004643 1_555
H3 O5 1.707328 1_565
H4 O12 1.004643 1_555
H4 O2 1.707328 1_655
H5 O13 1.004643 1_555
H5 O3 1.707328 1_555
H6 O14 1.004643 1_556
H6 O0 1.707328 1_555
H7 O15 1.004643 1_556
H7 O1 1.707328 1_565
H8 O9 1.004643 1_555
H8 O3 1.707328 1_655
H9 O8 1.004643 1_555
H9 O2 1.707328 1_555
H10 O11 1.004643 1_556
H10 O0 1.707328 1_565
H11 O10 1.004643 1_556
H11 O1 1.707328 1_555
H12 O13 1.004643 1_555
H12 O7 1.707328 1_555
H13 O12 1.004643 1_555
H13 O6 1.707328 1_655
H14 O15 1.004643 1_555
H14 O4 1.707328 1_565
H15 O14 1.004643 1_555
H15 O5 1.707328 1_555
H16 O16 1.007365 1_555
H16 O0 1.657541 1_555
H17 O16 1.007365 1_555
H17 O1 1.657541 1_555
H18 O17 1.007365 1_555
H18 O2 1.657541 1_555
H19 O17 1.007365 1_555
H19 O3 1.657541 1_555
H20 O18 1.007365 1_555
H20 O4 1.657541 1_555
H21 O18 1.007365 1_555
H21 O5 1.657541 1_555
H22 O19 1.007365 1_555
H22 O6 1.657541 1_555
H23 O19 1.007365 1_555
H23 O7 1.657541 1_555
O0 P0 1.555132 1_555
O1 P0 1.555132 1_655
O2 P1 1.555132 1_555
O3 P1 1.555132 1_565
O4 P1 1.555132 1_655
O5 P1 1.555132 1_555
O6 P0 1.555132 1_555
O7 P0 1.555132 1_565
