# generated using pymatgen
data_PrH(SeO3)2
_symmetry_space_group_name_H-M   'P 1'
_cell_length_a   7.08154831
_cell_length_b   8.41853341
_cell_length_c   18.88425530
_cell_angle_alpha   90.00000000
_cell_angle_beta   90.00000000
_cell_angle_gamma   90.00000000
_symmetry_Int_Tables_number   1
_chemical_formula_structural   PrH(SeO3)2
_chemical_formula_sum   'Pr8 H8 Se16 O48'
_cell_volume   1125.80850471
_cell_formula_units_Z   8
loop_
 _symmetry_equiv_pos_site_id
 _symmetry_equiv_pos_as_xyz
  1  'x, y, z'
loop_
 _atom_site_type_symbol
 _atom_site_label
 _atom_site_symmetry_multiplicity
 _atom_site_fract_x
 _atom_site_fract_y
 _atom_site_fract_z
 _atom_site_occupancy
  Pr  Pr0  1  0.92004447  0.65781974  0.00037783  1
  Pr  Pr1  1  0.07995553  0.34218026  0.50037783  1
  Pr  Pr2  1  0.92004447  0.84218026  0.50037783  1
  Pr  Pr3  1  0.07995553  0.15781974  0.00037783  1
  Pr  Pr4  1  0.41786182  0.55664939  0.08640761  1
  Pr  Pr5  1  0.58213818  0.44335061  0.58640761  1
  Pr  Pr6  1  0.41786182  0.94335061  0.58640761  1
  Pr  Pr7  1  0.58213818  0.05664939  0.08640761  1
  H  H0  1  0.70660469  0.33095499  0.29788582  1
  H  H1  1  0.29339531  0.66904501  0.79788582  1
  H  H2  1  0.70660469  0.16904501  0.79788582  1
  H  H3  1  0.29339531  0.83095499  0.29788582  1
  H  H4  1  0.22682884  0.90879886  0.78503741  1
  H  H5  1  0.77317116  0.09120114  0.28503741  1
  H  H6  1  0.22682884  0.59120114  0.28503741  1
  H  H7  1  0.77317116  0.40879886  0.78503741  1
  Se  Se0  1  0.93031952  0.40858185  0.14154020  1
  Se  Se1  1  0.06968048  0.59141815  0.64154020  1
  Se  Se2  1  0.93031952  0.09141815  0.64154020  1
  Se  Se3  1  0.06968048  0.90858185  0.14154020  1
  Se  Se4  1  0.42008688  0.33228990  0.23909137  1
  Se  Se5  1  0.57991312  0.66771010  0.73909137  1
  Se  Se6  1  0.42008688  0.16771010  0.73909137  1
  Se  Se7  1  0.57991312  0.83228990  0.23909137  1
  Se  Se8  1  0.94401756  0.87250058  0.84963945  1
  Se  Se9  1  0.05598244  0.12749942  0.34963945  1
  Se  Se10  1  0.94401756  0.62749942  0.34963945  1
  Se  Se11  1  0.05598244  0.37250058  0.84963945  1
  Se  Se12  1  0.43634803  0.80967603  0.94645801  1
  Se  Se13  1  0.56365197  0.19032397  0.44645801  1
  Se  Se14  1  0.43634803  0.69032397  0.44645801  1
  Se  Se15  1  0.56365197  0.30967603  0.94645801  1
  O  O0  1  0.76521155  0.53815705  0.10927073  1
  O  O1  1  0.23478845  0.46184295  0.60927073  1
  O  O2  1  0.76521155  0.96184295  0.60927073  1
  O  O3  1  0.23478845  0.03815705  0.10927073  1
  O  O4  1  0.09544819  0.42960719  0.07419930  1
  O  O5  1  0.90455181  0.57039281  0.57419930  1
  O  O6  1  0.09544819  0.07039281  0.57419930  1
  O  O7  1  0.90455181  0.92960719  0.07419930  1
  O  O8  1  0.86208978  0.22462424  0.11650176  1
  O  O9  1  0.13791022  0.77537576  0.61650176  1
  O  O10  1  0.86208978  0.27537576  0.61650176  1
  O  O11  1  0.13791022  0.72462424  0.11650176  1
  O  O12  1  0.48765155  0.29608200  0.15523394  1
  O  O13  1  0.51234845  0.70391800  0.65523394  1
  O  O14  1  0.48765155  0.20391800  0.65523394  1
  O  O15  1  0.51234845  0.79608200  0.15523394  1
  O  O16  1  0.31512266  0.50819919  0.22208287  1
  O  O17  1  0.68487734  0.49180081  0.72208287  1
  O  O18  1  0.31512266  0.99180081  0.72208287  1
  O  O19  1  0.68487734  0.00819919  0.22208287  1
  O  O20  1  0.62784363  0.41706914  0.27680896  1
  O  O21  1  0.37215637  0.58293086  0.77680896  1
  O  O22  1  0.62784363  0.08293086  0.77680896  1
  O  O23  1  0.37215637  0.91706914  0.27680896  1
  O  O24  1  0.18330912  0.83166988  0.82385773  1
  O  O25  1  0.81669088  0.16833012  0.32385773  1
  O  O26  1  0.18330912  0.66833012  0.32385773  1
  O  O27  1  0.81669088  0.33166988  0.82385773  1
  O  O28  1  0.97292188  0.91834428  0.93595917  1
  O  O29  1  0.02707812  0.08165572  0.43595917  1
  O  O30  1  0.97292188  0.58165572  0.43595917  1
  O  O31  1  0.02707812  0.41834428  0.93595917  1
  O  O32  1  0.86963383  0.68569910  0.86186721  1
  O  O33  1  0.13036617  0.31430090  0.36186721  1
  O  O34  1  0.86963383  0.81430090  0.36186721  1
  O  O35  1  0.13036617  0.18569910  0.86186721  1
  O  O36  1  0.36390712  0.99318242  0.97055615  1
  O  O37  1  0.63609288  0.00681758  0.47055615  1
  O  O38  1  0.36390712  0.50681758  0.47055615  1
  O  O39  1  0.63609288  0.49318242  0.97055615  1
  O  O40  1  0.26852988  0.68144994  0.97779226  1
  O  O41  1  0.73147012  0.31855006  0.47779226  1
  O  O42  1  0.26852988  0.81855006  0.47779226  1
  O  O43  1  0.73147012  0.18144994  0.97779226  1
  O  O44  1  0.59665527  0.78812839  0.01577323  1
  O  O45  1  0.40334473  0.21187161  0.51577323  1
  O  O46  1  0.59665527  0.71187161  0.51577323  1
  O  O47  1  0.40334473  0.28812839  0.01577323  1
loop_
_geom_bond_atom_site_label_1
_geom_bond_atom_site_label_2
_geom_bond_distance
_geom_bond_site_symmetry_2
H0 O20 0.997530 1_555
H0 O25 1.650040 1_555
H1 O21 0.997530 1_555
H1 O24 1.650040 1_555
H2 O22 0.997530 1_555
H2 O27 1.650040 1_555
H3 O23 0.997530 1_555
H3 O26 1.650040 1_555
H4 O24 1.026651 1_555
H4 O18 1.514123 1_555
H5 O25 1.026651 1_555
H5 O19 1.514123 1_555
H6 O26 1.026651 1_555
H6 O16 1.514123 1_555
H7 O27 1.026651 1_555
H7 O17 1.514123 1_555
O0 Se0 1.711240 1_555
O0 Pr4 2.502226 1_555
O0 Pr0 2.538831 1_555
O1 Se1 1.711240 1_555
O1 Pr5 2.502226 1_555
O1 Pr1 2.538831 1_555
O2 Se2 1.711240 1_565
O2 Pr6 2.502226 1_555
O2 Pr2 2.538831 1_555
O3 Se3 1.711240 1_545
O3 Pr7 2.502226 1_555
O3 Pr3 2.538831 1_555
O4 Se0 1.736642 1_455
O4 Pr4 2.531787 1_555
O4 Pr0 2.679061 1_455
O4 Pr3 2.681535 1_555
O5 Se1 1.736642 1_655
O5 Pr5 2.531787 1_555
O5 Pr1 2.679061 1_655
O5 Pr2 2.681535 1_555
O6 Se2 1.736642 1_455
O6 Pr6 2.531787 1_545
O6 Pr2 2.679061 1_445
O6 Pr1 2.681535 1_555
O7 Se3 1.736642 1_655
O7 Pr7 2.531787 1_565
O7 Pr3 2.679061 1_665
O7 Pr0 2.681535 1_555
O8 Se0 1.689779 1_555
O8 Pr7 2.500585 1_555
O8 Pr3 2.739612 1_655
O9 Se1 1.689779 1_555
O9 Pr6 2.500585 1_555
O9 Pr2 2.739612 1_455
O10 Se2 1.689779 1_555
O10 Pr5 2.500585 1_555
O10 Pr1 2.739612 1_655
O11 Se3 1.689779 1_555
O11 Pr4 2.500585 1_555
O11 Pr0 2.739612 1_455
O12 Se4 1.682136 1_555
O12 Pr7 2.489970 1_555
O12 Pr4 2.597195 1_555
O13 Se5 1.682136 1_555
O13 Pr6 2.489970 1_555
O13 Pr5 2.597195 1_555
O14 Se6 1.682136 1_555
O14 Pr5 2.489970 1_555
O14 Pr6 2.597195 1_545
O15 Se7 1.682136 1_555
O15 Pr4 2.489970 1_555
O15 Pr7 2.597195 1_565
O16 Se4 1.687819 1_555
O16 Pr4 2.694474 1_555
O17 Se5 1.687819 1_555
O17 Pr5 2.694474 1_555
O18 Se6 1.687819 1_565
O18 Pr6 2.694474 1_555
O19 Se7 1.687819 1_545
O19 Pr7 2.694474 1_555
O20 Se4 1.783610 1_555
O21 Se5 1.783610 1_555
O22 Se6 1.783610 1_555
O23 Se7 1.783610 1_555
O24 Se8 1.796305 1_455
O25 Se9 1.796305 1_655
O26 Se10 1.796305 1_455
O27 Se11 1.796305 1_655
O28 Se8 1.687607 1_555
O28 Pr3 2.473613 1_666
O28 Pr0 2.535816 1_556
O29 Se9 1.687607 1_555
O29 Pr2 2.473613 1_445
O29 Pr1 2.535816 1_555
O30 Se10 1.687607 1_555
O30 Pr1 2.473613 1_655
O30 Pr2 2.535816 1_555
O31 Se11 1.687607 1_555
O31 Pr0 2.473613 1_456
O31 Pr3 2.535816 1_556
O32 Se8 1.674468 1_555
O32 Pr0 2.650331 1_556
O33 Se9 1.674468 1_555
O33 Pr1 2.650331 1_555
O34 Se10 1.674468 1_555
O34 Pr2 2.650331 1_555
O35 Se11 1.674468 1_555
O35 Pr3 2.650331 1_556
O36 Se12 1.690217 1_555
O36 Pr3 2.506301 1_566
O36 Pr7 2.731320 1_566
O37 Se13 1.690217 1_555
O37 Pr2 2.506301 1_545
O37 Pr6 2.731320 1_545
O38 Se14 1.690217 1_555
O38 Pr1 2.506301 1_555
O38 Pr5 2.731320 1_555
O39 Se15 1.690217 1_555
O39 Pr0 2.506301 1_556
O39 Pr4 2.731320 1_556
O40 Se12 1.711061 1_555
O40 Pr0 2.512290 1_456
O40 Pr4 2.535595 1_556
O41 Se13 1.711061 1_555
O41 Pr1 2.512290 1_655
O41 Pr5 2.535595 1_555
O42 Se14 1.711061 1_555
O42 Pr2 2.512290 1_455
O42 Pr6 2.535595 1_555
O43 Se15 1.711061 1_555
O43 Pr3 2.512290 1_656
O43 Pr7 2.535595 1_556
O44 Se12 1.742134 1_554
O44 Pr0 2.555874 1_555
O44 Pr7 2.626766 1_565
O44 Pr4 2.679517 1_555
O45 Se13 1.742134 1_555
O45 Pr1 2.555874 1_555
O45 Pr6 2.626766 1_545
O45 Pr5 2.679517 1_555
O46 Se14 1.742134 1_555
O46 Pr2 2.555874 1_555
O46 Pr5 2.626766 1_555
O46 Pr6 2.679517 1_555
O47 Se15 1.742134 1_554
O47 Pr3 2.555874 1_555
O47 Pr4 2.626766 1_555
O47 Pr7 2.679517 1_555
