# generated using pymatgen
data_Sr3LaI9
_symmetry_space_group_name_H-M   'P 1'
_cell_length_a   7.80233000
_cell_length_b   8.40496000
_cell_length_c   33.10699667
_cell_angle_alpha   88.20771008
_cell_angle_beta   90.00000000
_cell_angle_gamma   90.00000000
_symmetry_Int_Tables_number   1
_chemical_formula_structural   Sr3LaI9
_chemical_formula_sum   'Sr12 La4 I36'
_cell_volume   2170.03746843
_cell_formula_units_Z   4
loop_
 _symmetry_equiv_pos_site_id
 _symmetry_equiv_pos_as_xyz
  1  'x, y, z'
loop_
 _atom_site_type_symbol
 _atom_site_label
 _atom_site_symmetry_multiplicity
 _atom_site_fract_x
 _atom_site_fract_y
 _atom_site_fract_z
 _atom_site_occupancy
  Sr  Sr0  1  0.96704100  0.66839200  0.93276500  1
  Sr  Sr1  1  0.00154800  0.70016000  0.69217500  1
  Sr  Sr2  1  0.03295900  0.66839200  0.43276500  1
  Sr  Sr3  1  0.99845200  0.70016000  0.19217500  1
  Sr  Sr4  1  0.98461100  0.32073200  0.56861000  1
  Sr  Sr5  1  0.98185200  0.28626500  0.80960100  1
  Sr  Sr6  1  0.01538900  0.32073200  0.06861000  1
  Sr  Sr7  1  0.01814800  0.28626500  0.30960100  1
  Sr  Sr8  1  0.52255200  0.21046000  0.69207900  1
  Sr  Sr9  1  0.51677400  0.17192200  0.93177700  1
  Sr  Sr10  1  0.47744800  0.21046000  0.19207900  1
  Sr  Sr11  1  0.48322600  0.17192200  0.43177700  1
  La  La0  1  0.52130000  0.79886400  0.80684800  1
  La  La1  1  0.54659200  0.82299600  0.56768100  1
  La  La2  1  0.47870000  0.79886400  0.30684800  1
  La  La3  1  0.45340800  0.82299600  0.06768100  1
  I  I0  1  0.80142000  0.98541200  0.86961300  1
  I  I1  1  0.82275600  0.99111800  0.75121000  1
  I  I2  1  0.82024300  0.99887000  0.62893500  1
  I  I3  1  0.19858000  0.98541200  0.36961300  1
  I  I4  1  0.17724400  0.99111800  0.25121000  1
  I  I5  1  0.70989700  0.88930700  0.99149800  1
  I  I6  1  0.17975700  0.99887000  0.12893500  1
  I  I7  1  0.32485900  0.84821100  0.89500400  1
  I  I8  1  0.29010300  0.88930700  0.49149800  1
  I  I9  1  0.39116800  0.84303600  0.70589100  1
  I  I10  1  0.67514100  0.84821100  0.39500400  1
  I  I11  1  0.60883200  0.84303600  0.20589100  1
  I  I12  1  0.15272800  0.64299700  0.79593600  1
  I  I13  1  0.19992600  0.64807200  0.59935700  1
  I  I14  1  0.84727200  0.64299700  0.29593600  1
  I  I15  1  0.80007400  0.64807200  0.09935700  1
  I  I16  1  0.75356800  0.58715700  0.50989200  1
  I  I17  1  0.68203900  0.50245600  0.86811200  1
  I  I18  1  0.69417400  0.50563500  0.75088900  1
  I  I19  1  0.70105100  0.51670300  0.62879300  1
  I  I20  1  0.24643200  0.58715700  0.00989200  1
  I  I21  1  0.31796100  0.50245600  0.36811200  1
  I  I22  1  0.30582600  0.50563500  0.25088900  1
  I  I23  1  0.29894900  0.51670300  0.12879300  1
  I  I24  1  0.76225300  0.39143800  0.98939700  1
  I  I25  1  0.23774700  0.39143800  0.48939700  1
  I  I26  1  0.15962600  0.34359500  0.90039400  1
  I  I27  1  0.12316600  0.32917400  0.69926100  1
  I  I28  1  0.84037400  0.34359500  0.40039400  1
  I  I29  1  0.87683400  0.32917400  0.19926100  1
  I  I30  1  0.38400300  0.15438500  0.79725500  1
  I  I31  1  0.34900000  0.13446000  0.59908200  1
  I  I32  1  0.61599700  0.15438500  0.29725500  1
  I  I33  1  0.65100000  0.13446000  0.09908200  1
  I  I34  1  0.75754200  0.07744600  0.50976000  1
  I  I35  1  0.24245800  0.07744600  0.00976000  1
loop_
_geom_bond_atom_site_label_1
_geom_bond_atom_site_label_2
_geom_bond_distance
_geom_bond_site_symmetry_2
I0 La0 3.428837 1_555
I0 Sr9 3.439075 1_565
I0 Sr5 3.465424 1_565
I0 Sr0 3.576659 1_555
I1 La0 3.368988 1_555
I1 Sr5 3.425170 1_565
I1 Sr1 3.470644 1_655
I1 Sr8 3.534357 1_565
I2 La1 3.323232 1_555
I2 Sr1 3.515559 1_655
I2 Sr4 3.551586 1_565
I2 Sr8 3.627722 1_565
I3 La2 3.428837 1_555
I3 Sr11 3.439075 1_565
I3 Sr7 3.465424 1_565
I3 Sr2 3.576659 1_555
I4 La2 3.368988 1_555
I4 Sr7 3.425170 1_565
I4 Sr3 3.470644 1_455
I4 Sr10 3.534357 1_565
I5 La3 3.254073 1_556
I5 Sr0 3.388184 1_555
I5 Sr9 3.395338 1_565
I6 La3 3.323232 1_555
I6 Sr3 3.515559 1_455
I6 Sr6 3.551586 1_565
I6 Sr10 3.627722 1_565
I7 La0 3.333919 1_555
I7 Sr9 3.366624 1_565
I7 Sr0 3.394579 1_455
I8 La1 3.254073 1_555
I8 Sr2 3.388184 1_555
I8 Sr11 3.395338 1_565
I9 Sr8 3.272381 1_565
I9 Sr1 3.305095 1_555
I9 La0 3.501805 1_555
I10 La2 3.333919 1_555
I10 Sr11 3.366624 1_565
I10 Sr2 3.394579 1_655
I11 Sr10 3.272381 1_565
I11 Sr3 3.305095 1_555
I11 La2 3.501805 1_555
I12 La0 3.185299 1_555
I12 Sr5 3.299582 1_455
I12 Sr1 3.649610 1_555
I13 La1 3.237414 1_555
I13 Sr4 3.406346 1_455
I13 Sr1 3.480576 1_555
I14 La2 3.185299 1_555
I14 Sr7 3.299582 1_655
I14 Sr3 3.649610 1_555
I15 La3 3.237414 1_555
I15 Sr6 3.406346 1_655
I15 Sr3 3.480576 1_555
I16 La1 3.230280 1_555
I16 Sr2 3.410157 1_655
I16 Sr4 3.430861 1_555
I17 La0 3.402531 1_555
I17 Sr0 3.414415 1_555
I17 Sr5 3.570215 1_555
I17 Sr9 3.668381 1_555
I18 La0 3.407540 1_555
I18 Sr5 3.462906 1_555
I18 Sr1 3.464736 1_655
I18 Sr8 3.470035 1_555
I19 Sr4 3.432657 1_555
I19 La1 3.442015 1_555
I19 Sr1 3.532743 1_655
I19 Sr8 3.552107 1_555
I20 La3 3.230280 1_555
I20 Sr0 3.410157 1_454
I20 Sr6 3.430861 1_555
I21 La2 3.402531 1_555
I21 Sr2 3.414415 1_555
I21 Sr7 3.570215 1_555
I21 Sr11 3.668381 1_555
I22 La2 3.407540 1_555
I22 Sr7 3.462906 1_555
I22 Sr3 3.464736 1_455
I22 Sr10 3.470035 1_555
I23 Sr6 3.432657 1_555
I23 La3 3.442015 1_555
I23 Sr3 3.532743 1_455
I23 Sr10 3.552107 1_555
I24 Sr9 3.306314 1_555
I24 Sr6 3.321752 1_656
I24 Sr0 3.348722 1_555
I25 Sr11 3.306314 1_555
I25 Sr4 3.321752 1_455
I25 Sr2 3.348722 1_555
I26 Sr9 3.291318 1_555
I26 Sr0 3.322919 1_455
I26 Sr5 3.358874 1_455
I27 Sr1 3.260734 1_555
I27 Sr8 3.282879 1_555
I27 Sr5 3.822033 1_455
I28 Sr11 3.291318 1_555
I28 Sr2 3.322919 1_655
I28 Sr7 3.358874 1_655
I29 Sr3 3.260734 1_555
I29 Sr10 3.282879 1_555
I29 Sr7 3.822033 1_655
I30 La0 3.180885 1_545
I30 Sr5 3.356980 1_455
I30 Sr8 3.662349 1_555
I31 La1 3.237416 1_545
I31 Sr4 3.384259 1_455
I31 Sr8 3.441511 1_555
I32 La2 3.180885 1_545
I32 Sr7 3.356980 1_655
I32 Sr10 3.662349 1_555
I33 La3 3.237416 1_545
I33 Sr6 3.384259 1_655
I33 Sr10 3.441511 1_555
I34 La1 3.271606 1_545
I34 Sr4 3.371248 1_555
I34 Sr11 3.427653 1_555
I35 La3 3.271606 1_545
I35 Sr6 3.371248 1_555
I35 Sr9 3.427653 1_554
