# generated using pymatgen
data_Cr3Si
_symmetry_space_group_name_H-M   'P 1'
_cell_length_a   4.48123895
_cell_length_b   4.48123895
_cell_length_c   4.48123895
_cell_angle_alpha   90.00000000
_cell_angle_beta   90.00000000
_cell_angle_gamma   90.00000000
_symmetry_Int_Tables_number   1
_chemical_formula_structural   Cr3Si
_chemical_formula_sum   'Cr6 Si2'
_cell_volume   89.99001130
_cell_formula_units_Z   2
loop_
 _symmetry_equiv_pos_site_id
 _symmetry_equiv_pos_as_xyz
  1  'x, y, z'
loop_
 _atom_site_type_symbol
 _atom_site_label
 _atom_site_symmetry_multiplicity
 _atom_site_fract_x
 _atom_site_fract_y
 _atom_site_fract_z
 _atom_site_occupancy
  Cr  Cr0  1  0.00000000  0.50000000  0.25000000  1
  Cr  Cr1  1  0.00000000  0.50000000  0.75000000  1
  Cr  Cr2  1  0.50000000  0.75000000  -0.00000000  1
  Cr  Cr3  1  0.50000000  0.25000000  -0.00000000  1
  Cr  Cr4  1  0.75000000  0.00000000  0.50000000  1
  Cr  Cr5  1  0.25000000  0.00000000  0.50000000  1
  Si  Si0  1  0.50000000  0.50000000  0.50000000  1
  Si  Si1  1  0.00000000  0.00000000  -0.00000000  1
loop_
_geom_bond_atom_site_label_1
_geom_bond_atom_site_label_2
_geom_bond_distance
_geom_bond_site_symmetry_2
Cr0 Cr1 2.240619 1_555
Cr0 Cr1 2.240619 1_554
Cr0 Si1 2.505089 1_555
Cr0 Si0 2.505089 1_455
Cr0 Si0 2.505089 1_555
Cr0 Si1 2.505089 1_565
Cr1 Si1 2.505089 1_556
Cr1 Si0 2.505089 1_455
Cr1 Si1 2.505089 1_566
Cr1 Si0 2.505089 1_555
Cr2 Cr3 2.240619 1_565
Cr2 Cr3 2.240619 1_555
Cr2 Si0 2.505089 1_554
Cr2 Si1 2.505089 1_665
Cr2 Si0 2.505089 1_555
Cr2 Si1 2.505089 1_565
Cr3 Si1 2.505089 1_555
Cr3 Si0 2.505089 1_554
Cr3 Si1 2.505089 1_655
Cr3 Si0 2.505089 1_555
Cr4 Cr5 2.240619 1_655
Cr4 Cr5 2.240619 1_555
Cr4 Si1 2.505089 1_655
Cr4 Si0 2.505089 1_555
Cr4 Si0 2.505089 1_545
Cr4 Si1 2.505089 1_656
Cr5 Si1 2.505089 1_555
Cr5 Si1 2.505089 1_556
Cr5 Si0 2.505089 1_555
Cr5 Si0 2.505089 1_545
