# generated using pymatgen
data_Ni3OF5
_symmetry_space_group_name_H-M   'P 1'
_cell_length_a   4.69481400
_cell_length_b   5.62311200
_cell_length_c   7.75943501
_cell_angle_alpha   86.15385816
_cell_angle_beta   90.00000000
_cell_angle_gamma   90.00000000
_symmetry_Int_Tables_number   1
_chemical_formula_structural   Ni3OF5
_chemical_formula_sum   'Ni6 O2 F10'
_cell_volume   204.38357520
_cell_formula_units_Z   2
loop_
 _symmetry_equiv_pos_site_id
 _symmetry_equiv_pos_as_xyz
  1  'x, y, z'
loop_
 _atom_site_type_symbol
 _atom_site_label
 _atom_site_symmetry_multiplicity
 _atom_site_fract_x
 _atom_site_fract_y
 _atom_site_fract_z
 _atom_site_occupancy
  Ni  Ni0  1  0.50949700  0.74812900  0.99237400  1
  Ni  Ni1  1  0.48677800  0.41225100  0.33208300  1
  Ni  Ni2  1  0.50861300  0.07676300  0.66970600  1
  Ni  Ni3  1  0.00861300  0.92323700  0.33029400  1
  Ni  Ni4  1  0.98677800  0.58774900  0.66791700  1
  Ni  Ni5  1  0.00949700  0.25187100  0.00762600  1
  O  O0  1  0.19502400  0.21361100  0.23379000  1
  O  O1  1  0.69502400  0.78638900  0.76621000  1
  F  F0  1  0.19685400  0.87983000  0.56517300  1
  F  F1  1  0.19531100  0.54968000  0.89777800  1
  F  F2  1  0.30589200  0.71512900  0.22634300  1
  F  F3  1  0.29991500  0.04549600  0.89840300  1
  F  F4  1  0.30211500  0.38160500  0.57088700  1
  F  F5  1  0.69685400  0.12017000  0.43482700  1
  F  F6  1  0.69531100  0.45032000  0.10222200  1
  F  F7  1  0.80589200  0.28487100  0.77365700  1
  F  F8  1  0.80211500  0.61839500  0.42911300  1
  F  F9  1  0.79991500  0.95450400  0.10159700  1
loop_
_geom_bond_atom_site_label_1
_geom_bond_atom_site_label_2
_geom_bond_distance
_geom_bond_site_symmetry_2
Ni0 O1 1.958058 1_555
Ni1 O0 1.954429 1_555
Ni2 O1 1.956698 1_545
Ni3 O0 1.956698 1_565
Ni4 O1 1.954429 1_555
Ni5 O0 1.958058 1_555
F0 Ni3 2.025471 1_555
F0 Ni4 2.032275 1_455
F0 Ni2 2.036410 1_565
F1 Ni0 2.017337 1_555
F1 Ni5 2.024937 1_556
F1 Ni4 2.033295 1_455
F2 Ni3 2.023494 1_555
F2 Ni1 2.026702 1_555
F2 Ni0 2.049117 1_554
F3 Ni5 2.013932 1_556
F3 Ni2 2.024382 1_555
F3 Ni0 2.032800 1_545
F4 Ni1 2.042554 1_555
F4 Ni4 2.054104 1_455
F4 Ni2 2.071193 1_555
F5 Ni2 2.025471 1_555
F5 Ni1 2.032275 1_555
F5 Ni3 2.036410 1_645
F6 Ni5 2.017337 1_655
F6 Ni0 2.024937 1_554
F6 Ni1 2.033295 1_555
F7 Ni2 2.023494 1_555
F7 Ni4 2.026702 1_555
F7 Ni5 2.049117 1_656
F8 Ni4 2.042554 1_555
F8 Ni1 2.054104 1_555
F8 Ni3 2.071193 1_655
F9 Ni0 2.013932 1_554
F9 Ni3 2.024382 1_655
F9 Ni5 2.032800 1_665
