# generated using pymatgen
data_La2Ga4O9
_symmetry_space_group_name_H-M   'P 1'
_cell_length_a   5.97288600
_cell_length_b   7.80302900
_cell_length_c   8.77391500
_cell_angle_alpha   90.00000000
_cell_angle_beta   90.00000000
_cell_angle_gamma   90.00000000
_symmetry_Int_Tables_number   1
_chemical_formula_structural   La2Ga4O9
_chemical_formula_sum   'La4 Ga8 O18'
_cell_volume   408.92237028
_cell_formula_units_Z   2
loop_
 _symmetry_equiv_pos_site_id
 _symmetry_equiv_pos_as_xyz
  1  'x, y, z'
loop_
 _atom_site_type_symbol
 _atom_site_label
 _atom_site_symmetry_multiplicity
 _atom_site_fract_x
 _atom_site_fract_y
 _atom_site_fract_z
 _atom_site_occupancy
  La  La0  1  0.00000000  0.15446000  0.18488000  1
  La  La1  1  0.00000000  0.34554000  0.68488000  1
  La  La2  1  0.00000000  0.65446000  0.31512000  1
  La  La3  1  0.00000000  0.84554000  0.81512000  1
  Ga  Ga0  1  0.25637200  0.00000000  0.50000000  1
  Ga  Ga1  1  0.74362800  0.00000000  0.50000000  1
  Ga  Ga2  1  0.50000000  0.13861500  0.83369400  1
  Ga  Ga3  1  0.50000000  0.36138500  0.33369400  1
  Ga  Ga4  1  0.25637200  0.50000000  0.00000000  1
  Ga  Ga5  1  0.74362800  0.50000000  0.00000000  1
  Ga  Ga6  1  0.50000000  0.63861500  0.66630600  1
  Ga  Ga7  1  0.50000000  0.86138500  0.16630600  1
  O  O0  1  0.50000000  0.00000000  0.00000000  1
  O  O1  1  0.23781500  0.10215600  0.72158600  1
  O  O2  1  0.76218500  0.10215600  0.72158600  1
  O  O3  1  0.50000000  0.14334700  0.42223000  1
  O  O4  1  0.00000000  0.16328100  0.45146100  1
  O  O5  1  0.00000000  0.33671900  0.95146100  1
  O  O6  1  0.50000000  0.35665300  0.92223000  1
  O  O7  1  0.23781500  0.39784400  0.22158600  1
  O  O8  1  0.76218500  0.39784400  0.22158600  1
  O  O9  1  0.50000000  0.50000000  0.50000000  1
  O  O10  1  0.23781500  0.60215600  0.77841400  1
  O  O11  1  0.76218500  0.60215600  0.77841400  1
  O  O12  1  0.50000000  0.64334700  0.07777000  1
  O  O13  1  0.00000000  0.66328100  0.04853900  1
  O  O14  1  0.00000000  0.83671900  0.54853900  1
  O  O15  1  0.50000000  0.85665300  0.57777000  1
  O  O16  1  0.23781500  0.89784400  0.27841400  1
  O  O17  1  0.76218500  0.89784400  0.27841400  1
loop_
_geom_bond_atom_site_label_1
_geom_bond_atom_site_label_2
_geom_bond_distance
_geom_bond_site_symmetry_2
La0 O4 2.339972 1_555
La0 O8 2.393340 1_455
La0 O7 2.393340 1_555
La0 O5 2.493366 1_554
La0 O17 2.588565 1_445
La0 O16 2.588565 1_545
La1 O5 2.339972 1_555
La1 O2 2.393340 1_455
La1 O1 2.393340 1_555
La1 O4 2.493366 1_555
La1 O10 2.588565 1_555
La1 O11 2.588565 1_455
La2 O13 2.339972 1_555
La2 O17 2.393340 1_455
La2 O16 2.393340 1_555
La2 O14 2.493366 1_555
La2 O8 2.588565 1_455
La2 O7 2.588565 1_555
La3 O14 2.339972 1_555
La3 O10 2.393340 1_555
La3 O11 2.393340 1_455
La3 O13 2.493366 1_556
La3 O2 2.588565 1_465
La3 O1 2.588565 1_565
Ga0 O15 1.958119 1_545
Ga0 O3 1.958119 1_555
Ga0 O4 2.037029 1_555
Ga0 O14 2.037029 1_545
Ga0 O1 2.104167 1_555
Ga0 O16 2.104167 1_545
Ga1 O3 1.958119 1_555
Ga1 O15 1.958119 1_545
Ga1 O14 2.037029 1_645
Ga1 O4 2.037029 1_655
Ga1 O2 2.104167 1_555
Ga1 O17 2.104167 1_545
Ga2 O0 1.816323 1_556
Ga2 O6 1.870306 1_555
Ga2 O1 1.871046 1_555
Ga2 O2 1.871046 1_555
Ga3 O9 1.816323 1_555
Ga3 O3 1.870306 1_555
Ga3 O8 1.871046 1_555
Ga3 O7 1.871046 1_555
Ga4 O12 1.958119 1_555
Ga4 O6 1.958119 1_554
Ga4 O13 2.037029 1_555
Ga4 O5 2.037029 1_554
Ga4 O10 2.104167 1_554
Ga4 O7 2.104167 1_555
Ga5 O12 1.958119 1_555
Ga5 O6 1.958119 1_554
Ga5 O5 2.037029 1_654
Ga5 O13 2.037029 1_655
Ga5 O11 2.104167 1_554
Ga5 O8 2.104167 1_555
Ga6 O9 1.816323 1_555
Ga6 O15 1.870306 1_555
Ga6 O10 1.871046 1_555
Ga6 O11 1.871046 1_555
Ga7 O0 1.816323 1_565
Ga7 O12 1.870306 1_555
Ga7 O16 1.871046 1_555
Ga7 O17 1.871046 1_555
