# generated using pymatgen
data_BaSr2I6
_symmetry_space_group_name_H-M   'P 1'
_cell_length_a   8.17047900
_cell_length_b   8.17047900
_cell_length_c   24.56628300
_cell_angle_alpha   90.00000000
_cell_angle_beta   90.00000000
_cell_angle_gamma   90.00000000
_symmetry_Int_Tables_number   1
_chemical_formula_structural   BaSr2I6
_chemical_formula_sum   'Ba4 Sr8 I24'
_cell_volume   1639.96464983
_cell_formula_units_Z   4
loop_
 _symmetry_equiv_pos_site_id
 _symmetry_equiv_pos_as_xyz
  1  'x, y, z'
loop_
 _atom_site_type_symbol
 _atom_site_label
 _atom_site_symmetry_multiplicity
 _atom_site_fract_x
 _atom_site_fract_y
 _atom_site_fract_z
 _atom_site_occupancy
  Ba  Ba0  1  0.00000000  0.00000000  0.00000000  1
  Ba  Ba1  1  0.00000000  0.50000000  0.50000000  1
  Ba  Ba2  1  0.50000000  0.00000000  0.50000000  1
  Ba  Ba3  1  0.50000000  0.50000000  0.00000000  1
  Sr  Sr0  1  0.00000000  0.50000000  0.16800200  1
  Sr  Sr1  1  0.00000000  0.00000000  0.33128200  1
  Sr  Sr2  1  0.00000000  0.00000000  0.66871800  1
  Sr  Sr3  1  0.00000000  0.50000000  0.83199800  1
  Sr  Sr4  1  0.50000000  0.50000000  0.33128200  1
  Sr  Sr5  1  0.50000000  0.00000000  0.16800200  1
  Sr  Sr6  1  0.50000000  0.00000000  0.83199800  1
  Sr  Sr7  1  0.50000000  0.50000000  0.66871800  1
  I  I0  1  0.23359100  0.75825900  0.58671000  1
  I  I1  1  0.23462500  0.74351000  0.08676000  1
  I  I2  1  0.25649000  0.23462500  0.91324000  1
  I  I3  1  0.25825900  0.73359100  0.41329000  1
  I  I4  1  0.23521800  0.26533200  0.25045200  1
  I  I5  1  0.23466800  0.26478200  0.74954800  1
  I  I6  1  0.26533200  0.76478200  0.74954800  1
  I  I7  1  0.26478200  0.76533200  0.25045200  1
  I  I8  1  0.24351000  0.73462500  0.91324000  1
  I  I9  1  0.24174100  0.23359100  0.41329000  1
  I  I10  1  0.26537500  0.24351000  0.08676000  1
  I  I11  1  0.26640900  0.25825900  0.58671000  1
  I  I12  1  0.73359100  0.74174100  0.58671000  1
  I  I13  1  0.73462500  0.75649000  0.08676000  1
  I  I14  1  0.75649000  0.26537500  0.91324000  1
  I  I15  1  0.75825900  0.76640900  0.41329000  1
  I  I16  1  0.73521800  0.23466800  0.25045200  1
  I  I17  1  0.73466800  0.23521800  0.74954800  1
  I  I18  1  0.76533200  0.73521800  0.74954800  1
  I  I19  1  0.76478200  0.73466800  0.25045200  1
  I  I20  1  0.74174100  0.26640900  0.41329000  1
  I  I21  1  0.74351000  0.76537500  0.91324000  1
  I  I22  1  0.76537500  0.25649000  0.08676000  1
  I  I23  1  0.76640900  0.24174100  0.58671000  1
loop_
_geom_bond_atom_site_label_1
_geom_bond_atom_site_label_2
_geom_bond_distance
_geom_bond_site_symmetry_2
Ba0 I21 3.550966 1_444
Ba0 I2 3.550966 1_554
Ba0 I22 3.550966 1_455
Ba0 I1 3.550966 1_545
Ba0 I14 3.633523 1_454
Ba0 I8 3.633523 1_544
Ba0 I10 3.633523 1_555
Ba0 I13 3.633523 1_445
Ba1 I0 3.554236 1_555
Ba1 I23 3.554236 1_455
Ba1 I20 3.554236 1_455
Ba1 I3 3.554236 1_555
Ba1 I11 3.629967 1_555
Ba1 I12 3.629967 1_455
Ba1 I9 3.629967 1_555
Ba1 I15 3.629967 1_455
Ba2 I12 3.554236 1_545
Ba2 I11 3.554236 1_555
Ba2 I15 3.554236 1_545
Ba2 I9 3.554236 1_555
Ba2 I23 3.629967 1_555
Ba2 I0 3.629967 1_545
Ba2 I20 3.629967 1_555
Ba2 I3 3.629967 1_545
Ba3 I14 3.550966 1_554
Ba3 I8 3.550966 1_554
Ba3 I10 3.550966 1_555
Ba3 I13 3.550966 1_555
Ba3 I2 3.633523 1_554
Ba3 I21 3.633523 1_554
Ba3 I22 3.633523 1_555
Ba3 I1 3.633523 1_555
I0 Sr2 3.406242 1_565
I0 Sr7 3.639950 1_555
I1 Sr0 3.408319 1_555
I1 Sr5 3.616113 1_565
I2 Sr6 3.408319 1_555
I2 Sr3 3.616113 1_555
I3 Sr4 3.406242 1_555
I3 Sr1 3.639950 1_565
I4 Sr0 3.387082 1_555
I4 Sr4 3.507063 1_555
I4 Sr1 3.512293 1_555
I4 Sr5 3.671871 1_555
I5 Sr3 3.387082 1_555
I5 Sr2 3.507063 1_555
I5 Sr7 3.512293 1_555
I5 Sr6 3.671871 1_555
I6 Sr6 3.387082 1_565
I6 Sr7 3.507063 1_555
I6 Sr2 3.512293 1_565
I6 Sr3 3.671871 1_555
I7 Sr5 3.387082 1_565
I7 Sr1 3.507063 1_565
I7 Sr4 3.512293 1_555
I7 Sr0 3.671871 1_555
I8 Sr3 3.408319 1_555
I8 Sr6 3.616113 1_565
I9 Sr1 3.406242 1_555
I9 Sr4 3.639950 1_555
I10 Sr5 3.408319 1_555
I10 Sr0 3.616113 1_555
I11 Sr7 3.406242 1_555
I11 Sr2 3.639950 1_555
I12 Sr7 3.406242 1_555
I12 Sr2 3.639950 1_665
I13 Sr5 3.408319 1_565
I13 Sr0 3.616113 1_655
I14 Sr3 3.408319 1_655
I14 Sr6 3.616113 1_555
I15 Sr1 3.406242 1_665
I15 Sr4 3.639950 1_555
I16 Sr5 3.387082 1_555
I16 Sr1 3.507063 1_655
I16 Sr4 3.512293 1_555
I16 Sr0 3.671871 1_655
I17 Sr6 3.387082 1_555
I17 Sr7 3.507063 1_555
I17 Sr2 3.512293 1_655
I17 Sr3 3.671871 1_655
I18 Sr3 3.387082 1_655
I18 Sr2 3.507063 1_665
I18 Sr7 3.512293 1_555
I18 Sr6 3.671871 1_565
I19 Sr0 3.387082 1_655
I19 Sr4 3.507063 1_555
I19 Sr1 3.512293 1_665
I19 Sr5 3.671871 1_565
I20 Sr4 3.406242 1_555
I20 Sr1 3.639950 1_655
I21 Sr6 3.408319 1_565
I21 Sr3 3.616113 1_655
I22 Sr0 3.408319 1_655
I22 Sr5 3.616113 1_555
I23 Sr2 3.406242 1_655
I23 Sr7 3.639950 1_555
