# generated using pymatgen
data_KTi6O12
_symmetry_space_group_name_H-M   'P 1'
_cell_length_a   8.46339364
_cell_length_b   8.46338296
_cell_length_c   8.46314776
_cell_angle_alpha   106.01012741
_cell_angle_beta   106.00150864
_cell_angle_gamma   116.65044129
_symmetry_Int_Tables_number   1
_chemical_formula_structural   KTi6O12
_chemical_formula_sum   'K2 Ti12 O24'
_cell_volume   461.09199216
_cell_formula_units_Z   2
loop_
 _symmetry_equiv_pos_site_id
 _symmetry_equiv_pos_as_xyz
  1  'x, y, z'
loop_
 _atom_site_type_symbol
 _atom_site_label
 _atom_site_symmetry_multiplicity
 _atom_site_fract_x
 _atom_site_fract_y
 _atom_site_fract_z
 _atom_site_occupancy
  K  K0  1  0.71760498  0.71760040  0.00003828  1
  K  K1  1  0.28239079  0.28242870  0.00000421  1
  Ti  Ti0  1  0.66799141  0.15177788  0.81976637  1
  Ti  Ti1  1  0.81718333  0.00061232  0.48544537  1
  Ti  Ti2  1  0.18282470  -0.00060996  0.51455851  1
  Ti  Ti3  1  0.51516109  0.33172545  0.51455513  1
  Ti  Ti4  1  0.66826563  0.18278288  0.18338888  1
  Ti  Ti5  1  0.33201104  0.84821690  0.18022805  1
  Ti  Ti6  1  0.33172609  0.81720550  0.81661185  1
  Ti  Ti7  1  -0.00059802  0.48488421  0.81660401  1
  Ti  Ti8  1  0.15174304  0.33200890  0.48375754  1
  Ti  Ti9  1  0.48484064  0.66826847  0.48544589  1
  Ti  Ti10  1  0.84826884  0.66798326  0.51624446  1
  Ti  Ti11  1  0.00061289  0.51512966  0.18339720  1
  O  O0  1  0.62857458  0.99020932  0.95201435  1
  O  O1  1  0.66381414  0.96132515  0.62514044  1
  O  O2  1  0.37209657  0.00017200  0.70651574  1
  O  O3  1  0.70634451  0.33442197  0.70651914  1
  O  O4  1  0.62790209  -0.00018082  0.29347390  1
  O  O5  1  0.67656500  0.62859400  0.63840050  1
  O  O6  1  0.34439797  0.29607629  0.64046912  1
  O  O7  1  0.00979965  0.96183128  0.63839407  1
  O  O8  1  0.33619656  0.03867501  0.37486866  1
  O  O9  1  0.66555090  0.37209327  0.37189566  1
  O  O10  1  0.29605175  0.65560873  0.95166240  1
  O  O11  1  0.96180387  0.32343771  0.95201072  1
  O  O12  1  0.70394323  0.34439222  0.04833133  1
  O  O13  1  0.37143138  0.00979491  0.04798739  1
  O  O14  1  0.00018704  0.29366223  0.62810604  1
  O  O15  1  0.33444382  0.62791787  0.62810527  1
  O  O16  1  0.65558714  0.70392658  0.35952007  1
  O  O17  1  0.99019783  0.03816022  0.36160226  1
  O  O18  1  0.32343826  0.37140329  0.36159517  1
  O  O19  1  0.03866617  0.66379172  0.70245864  1
  O  O20  1  0.96132913  0.33620169  0.29752837  1
  O  O21  1  0.29365438  0.66556750  0.29346917  1
  O  O22  1  -0.00019667  0.70634415  0.37189698  1
  O  O23  1  0.03819425  0.67655913  0.04798888  1
loop_
_geom_bond_atom_site_label_1
_geom_bond_atom_site_label_2
_geom_bond_distance
_geom_bond_site_symmetry_2
K0 O17 2.821340 1_565
K0 O5 2.821835 1_554
K0 O23 2.821941 1_655
K0 O0 2.822070 1_554
K0 O16 3.250367 1_555
K0 O12 3.250804 1_555
K0 O6 3.250816 1_554
K0 O10 3.250975 1_554
K1 O18 2.821453 1_555
K1 O7 2.821665 1_544
K1 O11 2.821728 1_454
K1 O13 2.822225 1_555
K1 O16 3.250541 1_555
K1 O6 3.250729 1_554
K1 O10 3.250737 1_554
K1 O12 3.251147 1_555
O0 Ti0 1.968413 1_565
O0 Ti6 1.988997 1_555
O0 Ti4 1.997321 1_566
O1 Ti0 1.940290 1_565
O1 Ti9 1.966895 1_555
O1 Ti1 1.966949 1_565
O2 Ti2 1.937805 1_555
O2 Ti6 1.969668 1_545
O2 Ti0 1.987995 1_555
O3 Ti3 1.937825 1_555
O3 Ti7 1.969640 1_655
O3 Ti0 1.987972 1_555
O4 Ti1 1.937869 1_555
O4 Ti4 1.969581 1_555
O4 Ti5 1.987971 1_545
O5 Ti10 1.968631 1_555
O5 Ti3 1.989056 1_555
O5 Ti9 1.997969 1_555
O6 Ti3 1.987603 1_555
O6 Ti2 1.987661 1_555
O6 Ti8 1.996280 1_555
O7 Ti10 1.968551 1_455
O7 Ti2 1.989007 1_565
O7 Ti1 1.997937 1_465
O8 Ti5 1.940352 1_545
O8 Ti3 1.966850 1_555
O8 Ti2 1.966928 1_555
O9 Ti4 1.938046 1_555
O9 Ti3 1.969548 1_555
O9 Ti10 1.987922 1_555
O10 Ti6 1.987477 1_555
O10 Ti7 1.987496 1_555
O10 Ti5 1.995679 1_556
O11 Ti0 1.968387 1_555
O11 Ti7 1.989027 1_655
O11 Ti11 1.997394 1_656
O12 Ti4 1.987608 1_555
O12 Ti11 1.987629 1_655
O12 Ti0 1.995730 1_554
O13 Ti5 1.968426 1_545
O13 Ti4 1.988902 1_555
O13 Ti6 1.997334 1_544
O14 Ti7 1.937909 1_555
O14 Ti1 1.969540 1_455
O14 Ti8 1.988007 1_555
O15 Ti6 1.937944 1_555
O15 Ti9 1.969583 1_555
O15 Ti8 1.988034 1_555
O16 Ti9 1.987566 1_555
O16 Ti1 1.987652 1_565
O16 Ti10 1.996555 1_555
O17 Ti8 1.968552 1_655
O17 Ti1 1.988987 1_555
O17 Ti2 1.997965 1_655
O18 Ti8 1.968613 1_555
O18 Ti9 1.989033 1_555
O18 Ti3 1.998001 1_555
O19 Ti10 1.939990 1_455
O19 Ti7 1.966923 1_555
O19 Ti6 1.966971 1_555
O20 Ti8 1.940157 1_655
O20 Ti11 1.966970 1_655
O20 Ti4 1.966998 1_555
O21 Ti9 1.937882 1_555
O21 Ti11 1.969542 1_555
O21 Ti5 1.987969 1_555
O22 Ti11 1.938005 1_555
O22 Ti2 1.969523 1_565
O22 Ti10 1.987870 1_455
O23 Ti5 1.968414 1_555
O23 Ti11 1.988925 1_555
O23 Ti7 1.997384 1_554
