# generated using pymatgen
data_LiNi(CO3)2
_symmetry_space_group_name_H-M   'P 1'
_cell_length_a   7.65314000
_cell_length_b   5.20611400
_cell_length_c   6.46711020
_cell_angle_alpha   66.35024110
_cell_angle_beta   90.00000000
_cell_angle_gamma   90.00000000
_symmetry_Int_Tables_number   1
_chemical_formula_structural   LiNi(CO3)2
_chemical_formula_sum   'Li2 Ni2 C4 O12'
_cell_volume   236.02936374
_cell_formula_units_Z   2
loop_
 _symmetry_equiv_pos_site_id
 _symmetry_equiv_pos_as_xyz
  1  'x, y, z'
loop_
 _atom_site_type_symbol
 _atom_site_label
 _atom_site_symmetry_multiplicity
 _atom_site_fract_x
 _atom_site_fract_y
 _atom_site_fract_z
 _atom_site_occupancy
  Li  Li0  1  0.05793200  0.62108100  0.42364100  1
  Li  Li1  1  0.55793200  0.37891900  0.57635900  1
  Ni  Ni0  1  0.99729200  0.99313400  0.75860300  1
  Ni  Ni1  1  0.49729200  0.00686600  0.24139700  1
  C  C0  1  0.26106600  0.13029700  0.86496400  1
  C  C1  1  0.24134900  0.14362500  0.37581900  1
  C  C2  1  0.76106600  0.86970300  0.13503600  1
  C  C3  1  0.74134900  0.85637500  0.62418100  1
  O  O0  1  0.12013000  0.28337600  0.82156900  1
  O  O1  1  0.40887800  0.21350200  0.90216100  1
  O  O2  1  0.73460800  0.11247800  0.14306000  1
  O  O3  1  0.23460800  0.88752200  0.85694000  1
  O  O4  1  0.90887800  0.78649800  0.09783900  1
  O  O5  1  0.62013000  0.71662400  0.17843100  1
  O  O6  1  0.38964600  0.27919100  0.34351300  1
  O  O7  1  0.10109200  0.23178400  0.42776800  1
  O  O8  1  0.75278700  0.08996900  0.65526700  1
  O  O9  1  0.25278700  0.91003100  0.34473300  1
  O  O10  1  0.60109200  0.76821600  0.57223200  1
  O  O11  1  0.88964600  0.72080900  0.65648700  1
loop_
_geom_bond_atom_site_label_1
_geom_bond_atom_site_label_2
_geom_bond_distance
_geom_bond_site_symmetry_2
Li0 O9 2.032560 1_555
Li0 O7 2.043045 1_555
Li0 O11 2.196155 1_455
Li0 O4 2.242003 1_455
Li0 O0 2.512032 1_555
Li1 O8 2.032560 1_555
Li1 O10 2.043045 1_555
Li1 O6 2.196155 1_555
Li1 O1 2.242003 1_555
Li1 O5 2.512032 1_555
Ni0 O3 1.929986 1_655
Ni0 O0 1.956137 1_665
Ni0 O11 1.968759 1_555
Ni0 O8 1.982919 1_565
Ni0 O4 2.129492 1_556
Ni0 O7 2.149346 1_665
Ni1 O2 1.929986 1_555
Ni1 O5 1.956137 1_545
Ni1 O6 1.968759 1_555
Ni1 O9 1.982919 1_545
Ni1 O1 2.129492 1_554
Ni1 O10 2.149346 1_545
C0 O1 1.268377 1_555
C0 O3 1.301458 1_545
C0 O0 1.303008 1_555
C1 O7 1.264685 1_555
C1 O6 1.308261 1_555
C1 O9 1.312694 1_545
C2 O4 1.268377 1_555
C2 O2 1.301458 1_565
C2 O5 1.303008 1_555
C3 O10 1.264685 1_555
C3 O11 1.308261 1_555
C3 O8 1.312694 1_565
