# generated using pymatgen
data_Li5Nb2Co5O12
_symmetry_space_group_name_H-M   'P 1'
_cell_length_a   5.25917038
_cell_length_b   5.25917038
_cell_length_c   10.06804565
_cell_angle_alpha   84.35703902
_cell_angle_beta   84.35703902
_cell_angle_gamma   121.41278445
_symmetry_Int_Tables_number   1
_chemical_formula_structural   Li5Nb2Co5O12
_chemical_formula_sum   'Li5 Nb2 Co5 O12'
_cell_volume   232.80803090
_cell_formula_units_Z   1
loop_
 _symmetry_equiv_pos_site_id
 _symmetry_equiv_pos_as_xyz
  1  'x, y, z'
loop_
 _atom_site_type_symbol
 _atom_site_label
 _atom_site_symmetry_multiplicity
 _atom_site_fract_x
 _atom_site_fract_y
 _atom_site_fract_z
 _atom_site_occupancy
  Li  Li0  1  0.82794700  0.68521500  0.25619700  1
  Li  Li1  1  0.67680700  0.82050100  0.74155700  1
  Li  Li2  1  0.31478500  0.17205300  0.74380300  1
  Li  Li3  1  0.17949900  0.32319300  0.25844300  1
  Li  Li4  1  0.07550200  0.92449800  0.50000000  1
  Nb  Nb0  1  0.74373700  0.25626300  0.50000000  1
  Nb  Nb1  1  0.25734700  0.74265300  0.00000000  1
  Co  Co0  1  0.92442300  0.07557700  0.00000000  1
  Co  Co1  1  0.99329600  0.50296200  0.74934200  1
  Co  Co2  1  0.49703800  0.00670400  0.25065800  1
  Co  Co3  1  0.58864000  0.41136000  0.00000000  1
  Co  Co4  1  0.41369300  0.58630700  0.50000000  1
  O  O0  1  0.02163200  0.21546200  0.61831200  1
  O  O1  1  0.78453800  0.97836800  0.38168800  1
  O  O2  1  0.89159000  0.36882400  0.11968500  1
  O  O3  1  0.63117700  0.10841000  0.88031500  1
  O  O4  1  0.70174300  0.52542300  0.61934200  1
  O  O5  1  0.47457700  0.29825700  0.38065800  1
  O  O6  1  0.52837000  0.71006700  0.12328200  1
  O  O7  1  0.28993300  0.47163000  0.87671800  1
  O  O8  1  0.38216600  0.88700300  0.61873100  1
  O  O9  1  0.11299700  0.61783400  0.38126900  1
  O  O10  1  0.19996600  0.01140200  0.12174300  1
  O  O11  1  0.98859800  0.80003400  0.87825700  1
loop_
_geom_bond_atom_site_label_1
_geom_bond_atom_site_label_2
_geom_bond_distance
_geom_bond_site_symmetry_2
Li0 O10 2.031520 1_665
Li0 O5 2.064857 1_555
Li0 O1 2.172242 1_555
Li0 O9 2.189948 1_655
Li0 O6 2.210207 1_555
Li0 O2 2.389479 1_555
Li1 O0 2.065674 1_665
Li1 O7 2.105005 1_555
Li1 O4 2.120251 1_555
Li1 O8 2.215722 1_555
Li1 O3 2.242940 1_565
Li1 O11 2.278878 1_555
Li2 O11 2.031520 1_445
Li2 O4 2.064857 1_555
Li2 O0 2.172242 1_555
Li2 O8 2.189948 1_545
Li2 O7 2.210207 1_555
Li2 O3 2.389483 1_555
Li3 O1 2.065674 1_445
Li3 O6 2.105005 1_555
Li3 O5 2.120251 1_555
Li3 O9 2.215722 1_555
Li3 O2 2.242942 1_455
Li3 O10 2.278878 1_555
Li4 O4 2.109890 1_455
Li4 O5 2.109890 1_565
Li4 O0 2.141206 1_565
Li4 O1 2.141206 1_455
Li4 O8 2.175606 1_555
Li4 O9 2.175606 1_555
Nb0 O9 2.015762 1_655
Nb0 O8 2.015762 1_545
Nb0 O4 2.025949 1_555
Nb0 O5 2.025949 1_555
Nb0 O1 2.054241 1_545
Nb0 O0 2.054241 1_655
Nb1 O2 2.038026 1_455
Nb1 O3 2.038028 1_564
Nb1 O6 2.040178 1_555
Nb1 O7 2.040178 1_554
Nb1 O10 2.074537 1_565
Nb1 O11 2.074537 1_454
Co0 O7 2.103076 1_654
Co0 O6 2.103076 1_545
Co0 O3 2.112450 1_554
Co0 O2 2.112454 1_555
Co0 O11 2.119915 1_544
Co0 O10 2.119915 1_655
Co1 O3 2.126065 1_555
Co1 O11 2.135152 1_555
Co1 O4 2.152021 1_555
Co1 O8 2.152710 1_655
Co1 O0 2.153417 1_655
Co1 O7 2.173806 1_655
Co2 O2 2.126066 1_555
Co2 O10 2.135152 1_555
Co2 O5 2.152021 1_555
Co2 O9 2.152710 1_545
Co2 O1 2.153417 1_545
Co2 O6 2.173806 1_545
Co3 O11 2.150232 1_554
Co3 O10 2.150232 1_555
Co3 O2 2.176380 1_555
Co3 O3 2.176382 1_554
Co3 O7 2.221284 1_554
Co3 O6 2.221284 1_555
Co4 O0 2.083836 1_555
Co4 O1 2.083836 1_555
Co4 O9 2.136216 1_555
Co4 O8 2.136216 1_555
Co4 O4 2.151534 1_555
Co4 O5 2.151534 1_555
