# generated using pymatgen
data_KFePCO7
_symmetry_space_group_name_H-M   'P 1'
_cell_length_a   10.03121972
_cell_length_b   6.43915600
_cell_length_c   5.44588592
_cell_angle_alpha   90.00000000
_cell_angle_beta   88.73850569
_cell_angle_gamma   90.00000000
_symmetry_Int_Tables_number   1
_chemical_formula_structural   KFePCO7
_chemical_formula_sum   'K2 Fe2 P2 C2 O14'
_cell_volume   351.67861246
_cell_formula_units_Z   2
loop_
 _symmetry_equiv_pos_site_id
 _symmetry_equiv_pos_as_xyz
  1  'x, y, z'
loop_
 _atom_site_type_symbol
 _atom_site_label
 _atom_site_symmetry_multiplicity
 _atom_site_fract_x
 _atom_site_fract_y
 _atom_site_fract_z
 _atom_site_occupancy
  K  K0  1  0.24152900  0.42039600  0.24707900  1
  K  K1  1  0.75847100  0.92039600  0.75292100  1
  Fe  Fe0  1  0.36243100  0.77323000  0.78029200  1
  Fe  Fe1  1  0.63756900  0.27323000  0.21970800  1
  P  P0  1  0.43976000  0.26657900  0.72698400  1
  P  P1  1  0.56024000  0.76657900  0.27301600  1
  C  C0  1  0.11011000  0.74389100  0.72038100  1
  C  C1  1  0.88989000  0.24389100  0.27961900  1
  O  O0  1  0.01213700  0.21920900  0.31590300  1
  O  O1  1  0.16050600  0.75205400  0.93706600  1
  O  O2  1  0.19737800  0.76038100  0.54138700  1
  O  O3  1  0.34932400  0.07653700  0.77811200  1
  O  O4  1  0.35059000  0.45907700  0.77492300  1
  O  O5  1  0.43708500  0.76102300  0.10699600  1
  O  O6  1  0.48734700  0.26547400  0.45285100  1
  O  O7  1  0.51265300  0.76547400  0.54714900  1
  O  O8  1  0.56291500  0.26102300  0.89300400  1
  O  O9  1  0.64941000  0.95907700  0.22507700  1
  O  O10  1  0.65067600  0.57653700  0.22188800  1
  O  O11  1  0.80262200  0.26038100  0.45861300  1
  O  O12  1  0.83949400  0.25205400  0.06293400  1
  O  O13  1  0.98786300  0.71920900  0.68409700  1
loop_
_geom_bond_atom_site_label_1
_geom_bond_atom_site_label_2
_geom_bond_distance
_geom_bond_site_symmetry_2
K0 O0 2.660026 1_555
K0 O2 2.743434 1_555
K0 O4 2.783284 1_554
K0 O1 2.851686 1_554
K0 O6 2.907407 1_555
K0 O5 3.029027 1_555
K0 O4 3.108147 1_555
K1 O13 2.660026 1_555
K1 O11 2.743434 1_565
K1 O9 2.783284 1_556
K1 O12 2.851686 1_566
K1 O7 2.907407 1_555
K1 O8 3.029027 1_565
K1 O9 3.108147 1_555
Fe0 O5 1.947095 1_556
Fe0 O7 1.949639 1_555
Fe0 O3 1.957515 1_565
Fe0 O4 2.026613 1_555
Fe0 O2 2.129720 1_555
Fe0 O1 2.185005 1_555
Fe1 O8 1.947095 1_554
Fe1 O6 1.949639 1_555
Fe1 O10 1.957515 1_555
Fe1 O9 2.026613 1_545
Fe1 O11 2.129720 1_555
Fe1 O12 2.185005 1_555
C0 O13 1.256484 1_455
C0 O1 1.295026 1_555
C0 O2 1.300089 1_555
C1 O0 1.256484 1_655
C1 O12 1.295026 1_555
C1 O11 1.300089 1_555
O3 P0 1.544944 1_555
O4 P0 1.547384 1_555
O5 P1 1.547289 1_555
O6 P0 1.557332 1_555
O7 P1 1.557332 1_555
O8 P0 1.547289 1_555
O9 P1 1.547384 1_555
O10 P1 1.544944 1_555
