# generated using pymatgen
data_Li5FeO4
_symmetry_space_group_name_H-M   'P 1'
_cell_length_a   6.93479400
_cell_length_b   7.06914300
_cell_length_c   8.11567700
_cell_angle_alpha   90.00000000
_cell_angle_beta   90.00000000
_cell_angle_gamma   90.00000000
_symmetry_Int_Tables_number   1
_chemical_formula_structural   Li5FeO4
_chemical_formula_sum   'Li20 Fe4 O16'
_cell_volume   397.85524310
_cell_formula_units_Z   4
loop_
 _symmetry_equiv_pos_site_id
 _symmetry_equiv_pos_as_xyz
  1  'x, y, z'
loop_
 _atom_site_type_symbol
 _atom_site_label
 _atom_site_symmetry_multiplicity
 _atom_site_fract_x
 _atom_site_fract_y
 _atom_site_fract_z
 _atom_site_occupancy
  Li  Li0  1  0.72492800  0.50000000  0.00000000  1
  Li  Li1  1  0.27507200  0.50000000  0.00000000  1
  Li  Li2  1  0.50000000  0.75955900  0.07659200  1
  Li  Li3  1  0.74631000  0.98645300  0.15262800  1
  Li  Li4  1  0.25369000  0.98645300  0.15262800  1
  Li  Li5  1  0.00000000  0.74643800  0.25262000  1
  Li  Li6  1  0.50000000  0.24643800  0.24738000  1
  Li  Li7  1  0.75369000  0.48645300  0.34737200  1
  Li  Li8  1  0.24631000  0.48645300  0.34737200  1
  Li  Li9  1  0.00000000  0.25955900  0.42340800  1
  Li  Li10  1  0.22492800  0.00000000  0.50000000  1
  Li  Li11  1  0.77507200  0.00000000  0.50000000  1
  Li  Li12  1  0.00000000  0.74044100  0.57659200  1
  Li  Li13  1  0.75369000  0.51354700  0.65262800  1
  Li  Li14  1  0.24631000  0.51354700  0.65262800  1
  Li  Li15  1  0.50000000  0.75356200  0.75262000  1
  Li  Li16  1  0.00000000  0.25356200  0.74738000  1
  Li  Li17  1  0.74631000  0.01354700  0.84737200  1
  Li  Li18  1  0.25369000  0.01354700  0.84737200  1
  Li  Li19  1  0.50000000  0.24044100  0.92340800  1
  Fe  Fe0  1  0.00000000  0.24190100  0.11707600  1
  Fe  Fe1  1  0.50000000  0.74190100  0.38292400  1
  Fe  Fe2  1  0.50000000  0.25809900  0.61707600  1
  Fe  Fe3  1  0.00000000  0.75809900  0.88292400  1
  O  O0  1  0.75777100  0.22084700  0.01059900  1
  O  O1  1  0.24222900  0.22084700  0.01059900  1
  O  O2  1  0.50000000  0.52979500  0.22610100  1
  O  O3  1  0.00000000  0.46964300  0.23902900  1
  O  O4  1  0.50000000  0.96964300  0.26097100  1
  O  O5  1  0.00000000  0.02979500  0.27389900  1
  O  O6  1  0.25777100  0.72084700  0.48940100  1
  O  O7  1  0.74222900  0.72084700  0.48940100  1
  O  O8  1  0.74222900  0.27915300  0.51059900  1
  O  O9  1  0.25777100  0.27915300  0.51059900  1
  O  O10  1  0.00000000  0.97020500  0.72610100  1
  O  O11  1  0.50000000  0.03035700  0.73902900  1
  O  O12  1  0.00000000  0.53035700  0.76097100  1
  O  O13  1  0.50000000  0.47020500  0.77389900  1
  O  O14  1  0.75777100  0.77915300  0.98940100  1
  O  O15  1  0.24222900  0.77915300  0.98940100  1
loop_
_geom_bond_atom_site_label_1
_geom_bond_atom_site_label_2
_geom_bond_distance
_geom_bond_site_symmetry_2
Li0 O0 1.988334 1_555
Li0 O14 1.988334 1_554
Li0 O2 2.417544 1_555
Li0 O13 2.417544 1_554
Li1 O1 1.988334 1_555
Li1 O15 1.988334 1_554
Li1 O2 2.417544 1_555
Li1 O13 2.417544 1_554
Li2 O15 1.927531 1_554
Li2 O14 1.927531 1_554
Li2 O2 2.027411 1_555
Li2 O4 2.108236 1_555
Li3 O4 1.924808 1_555
Li3 O14 1.977027 1_554
Li3 O0 2.020019 1_565
Li3 O5 2.039022 1_665
Li4 O4 1.924808 1_555
Li4 O15 1.977027 1_554
Li4 O1 2.020019 1_565
Li4 O5 2.039022 1_565
Li5 O3 1.959810 1_555
Li5 O5 2.010522 1_565
Li6 O4 1.959810 1_545
Li6 O2 2.010522 1_555
Li7 O3 1.924808 1_655
Li7 O8 1.977027 1_555
Li7 O7 2.020019 1_555
Li7 O2 2.039022 1_555
Li8 O3 1.924808 1_555
Li8 O9 1.977027 1_555
Li8 O6 2.020019 1_555
Li8 O2 2.039022 1_555
Li9 O9 1.927531 1_555
Li9 O8 1.927531 1_455
Li9 O5 2.027411 1_555
Li9 O3 2.108236 1_555
Li10 O9 1.988334 1_555
Li10 O6 1.988334 1_545
Li10 O5 2.417544 1_555
Li10 O10 2.417544 1_545
Li11 O8 1.988334 1_555
Li11 O7 1.988334 1_545
Li11 O10 2.417544 1_645
Li11 O5 2.417544 1_655
Li12 O6 1.927531 1_555
Li12 O7 1.927531 1_455
Li12 O10 2.027411 1_555
Li12 O12 2.108236 1_555
Li13 O12 1.924808 1_655
Li13 O7 1.977027 1_555
Li13 O8 2.020019 1_555
Li13 O13 2.039022 1_555
Li14 O12 1.924808 1_555
Li14 O6 1.977027 1_555
Li14 O9 2.020019 1_555
Li14 O13 2.039022 1_555
Li15 O11 1.959810 1_565
Li15 O13 2.010522 1_555
Li16 O12 1.959810 1_555
Li16 O10 2.010522 1_545
Li17 O11 1.924808 1_555
Li17 O0 1.977027 1_556
Li17 O14 2.020019 1_545
Li17 O10 2.039022 1_645
Li18 O11 1.924808 1_555
Li18 O1 1.977027 1_556
Li18 O15 2.020019 1_545
Li18 O10 2.039022 1_545
Li19 O0 1.927531 1_556
Li19 O1 1.927531 1_556
Li19 O13 2.027411 1_555
Li19 O11 2.108236 1_555
Fe0 O3 1.889835 1_555
Fe0 O1 1.894897 1_555
Fe0 O0 1.894897 1_455
Fe0 O5 1.966736 1_555
Fe1 O4 1.889835 1_555
Fe1 O7 1.894897 1_555
Fe1 O6 1.894897 1_555
Fe1 O2 1.966736 1_555
Fe2 O11 1.889835 1_555
Fe2 O8 1.894897 1_555
Fe2 O9 1.894897 1_555
Fe2 O13 1.966736 1_555
Fe3 O12 1.889835 1_555
Fe3 O14 1.894897 1_455
Fe3 O15 1.894897 1_555
Fe3 O10 1.966736 1_555
