# generated using pymatgen
data_Li2Ti2VO6
_symmetry_space_group_name_H-M   'P 1'
_cell_length_a   6.71013100
_cell_length_b   6.76629030
_cell_length_c   8.52215393
_cell_angle_alpha   71.06125786
_cell_angle_beta   70.75770101
_cell_angle_gamma   83.06608275
_symmetry_Int_Tables_number   1
_chemical_formula_structural   Li2Ti2VO6
_chemical_formula_sum   'Li6 Ti6 V3 O18'
_cell_volume   345.49551819
_cell_formula_units_Z   3
loop_
 _symmetry_equiv_pos_site_id
 _symmetry_equiv_pos_as_xyz
  1  'x, y, z'
loop_
 _atom_site_type_symbol
 _atom_site_label
 _atom_site_symmetry_multiplicity
 _atom_site_fract_x
 _atom_site_fract_y
 _atom_site_fract_z
 _atom_site_occupancy
  Li  Li0  1  0.67183000  0.99825000  0.82958600  1
  Li  Li1  1  0.67279400  0.32812900  0.49637700  1
  Li  Li2  1  0.99688600  0.33610800  0.16563600  1
  Li  Li3  1  0.00311400  0.66389200  0.83436400  1
  Li  Li4  1  0.32817000  0.00175000  0.17041400  1
  Li  Li5  1  0.32720600  0.67187100  0.50362300  1
  Ti  Ti0  1  0.68086300  0.99492600  0.32722100  1
  Ti  Ti1  1  0.67568600  0.33236700  0.99553700  1
  Ti  Ti2  1  0.32431400  0.66763300  0.00446300  1
  Ti  Ti3  1  0.31913700  0.00507400  0.67277900  1
  Ti  Ti4  1  0.68270200  0.66414900  0.66079200  1
  Ti  Ti5  1  0.31729800  0.33585100  0.33920800  1
  V  V0  1  0.00000000  0.00000000  0.00000000  1
  V  V1  1  0.00681000  0.32770900  0.66587300  1
  V  V2  1  0.99319000  0.67229100  0.33412700  1
  O  O0  1  0.01784400  0.99930500  0.75271900  1
  O  O1  1  0.34532400  0.69427000  0.75299400  1
  O  O2  1  0.98200100  0.65456000  0.59022800  1
  O  O3  1  0.98215600  0.00069500  0.24728100  1
  O  O4  1  0.97113400  0.33286700  0.92433400  1
  O  O5  1  0.33674800  0.97465200  0.91116200  1
  O  O6  1  0.01799900  0.34544000  0.40977200  1
  O  O7  1  0.02886600  0.66713300  0.07566600  1
  O  O8  1  0.35249600  0.01984200  0.42067200  1
  O  O9  1  0.34822700  0.35156700  0.09544800  1
  O  O10  1  0.66025100  0.68252800  0.43282500  1
  O  O11  1  0.66325200  0.02534800  0.08883800  1
  O  O12  1  0.67643400  0.34969000  0.75661000  1
  O  O13  1  0.33974900  0.31747200  0.56717500  1
  O  O14  1  0.32356600  0.65031000  0.24339000  1
  O  O15  1  0.64750400  0.98015800  0.57932800  1
  O  O16  1  0.65467600  0.30573000  0.24700600  1
  O  O17  1  0.65177300  0.64843300  0.90455200  1
loop_
_geom_bond_atom_site_label_1
_geom_bond_atom_site_label_2
_geom_bond_distance
_geom_bond_site_symmetry_2
Li0 O5 2.132752 1_555
Li0 O0 2.195083 1_655
Li0 O15 2.234716 1_555
Li0 O17 2.251099 1_555
Li0 O12 2.255542 1_565
Li0 O11 2.257188 1_566
Li1 O13 2.117873 1_555
Li1 O6 2.192387 1_655
Li1 O16 2.222150 1_555
Li1 O15 2.238096 1_545
Li1 O12 2.277467 1_555
Li1 O10 2.277925 1_555
Li2 O4 2.126871 1_554
Li2 O7 2.131557 1_655
Li2 O3 2.151360 1_555
Li2 O6 2.152795 1_655
Li2 O16 2.183546 1_555
Li2 O9 2.239685 1_655
Li3 O7 2.126871 1_556
Li3 O4 2.131557 1_455
Li3 O0 2.151360 1_555
Li3 O2 2.152795 1_455
Li3 O1 2.183546 1_555
Li3 O17 2.239685 1_455
Li4 O11 2.132752 1_555
Li4 O3 2.195083 1_455
Li4 O8 2.234716 1_555
Li4 O9 2.251099 1_555
Li4 O14 2.255542 1_545
Li4 O5 2.257188 1_544
Li5 O10 2.117873 1_555
Li5 O2 2.192387 1_455
Li5 O1 2.222150 1_555
Li5 O8 2.238096 1_565
Li5 O14 2.277467 1_555
Li5 O13 2.277925 1_555
O0 Ti3 1.909696 1_565
O0 V0 2.072519 1_566
O0 V1 2.102319 1_565
O1 Ti3 1.994376 1_565
O1 Ti2 2.049714 1_556
O1 Ti4 2.145703 1_555
O2 Ti4 1.896594 1_555
O2 V1 2.095407 1_655
O2 V2 2.123129 1_555
O3 Ti0 1.909696 1_545
O3 V0 2.072519 1_655
O3 V2 2.102319 1_545
O4 Ti1 1.872398 1_555
O4 V0 2.135492 1_656
O4 V1 2.147207 1_655
O5 Ti2 1.969929 1_556
O5 Ti3 2.016035 1_565
O5 V0 2.138134 1_566
O6 Ti5 1.896594 1_555
O6 V2 2.095407 1_455
O6 V1 2.123129 1_555
O7 Ti2 1.872398 1_555
O7 V0 2.135492 1_565
O7 V2 2.147207 1_455
O8 Ti5 2.032798 1_555
O8 Ti3 2.055522 1_555
O8 Ti0 2.087684 1_545
O9 Ti5 1.986850 1_555
O9 Ti2 2.030597 1_555
O9 Ti1 2.083187 1_554
O10 Ti4 1.960632 1_555
O10 Ti0 2.012669 1_555
O10 V2 2.113102 1_555
O11 Ti1 1.969929 1_554
O11 Ti0 2.016035 1_545
O11 V0 2.138134 1_655
O12 Ti1 1.999562 1_555
O12 Ti4 2.016663 1_555
O12 V1 2.097548 1_655
O13 Ti5 1.960632 1_555
O13 Ti3 2.012669 1_555
O13 V1 2.113102 1_555
O14 Ti2 1.999562 1_555
O14 Ti5 2.016663 1_555
O14 V2 2.097548 1_455
O15 Ti4 2.032798 1_555
O15 Ti0 2.055522 1_555
O15 Ti3 2.087684 1_565
O16 Ti0 1.994376 1_545
O16 Ti1 2.049714 1_554
O16 Ti5 2.145703 1_555
O17 Ti4 1.986850 1_555
O17 Ti1 2.030597 1_555
O17 Ti2 2.083187 1_556
