# generated using pymatgen
data_Li7Y7ZrS16
_symmetry_space_group_name_H-M   'P 1'
_cell_length_a   15.54117700
_cell_length_b   6.57233300
_cell_length_c   6.75088189
_cell_angle_alpha   70.15200126
_cell_angle_beta   90.00000000
_cell_angle_gamma   90.00000000
_symmetry_Int_Tables_number   1
_chemical_formula_structural   Li7Y7ZrS16
_chemical_formula_sum   'Li7 Y7 Zr1 S16'
_cell_volume   648.58576312
_cell_formula_units_Z   1
loop_
 _symmetry_equiv_pos_site_id
 _symmetry_equiv_pos_as_xyz
  1  'x, y, z'
loop_
 _atom_site_type_symbol
 _atom_site_label
 _atom_site_symmetry_multiplicity
 _atom_site_fract_x
 _atom_site_fract_y
 _atom_site_fract_z
 _atom_site_occupancy
  Li  Li0  1  0.25055200  0.00000000  0.00000000  1
  Li  Li1  1  0.12412500  0.00000000  0.50000000  1
  Li  Li2  1  0.50000000  0.00000000  0.00000000  1
  Li  Li3  1  0.74944800  0.00000000  0.00000000  1
  Li  Li4  1  0.37497900  0.00000000  0.50000000  1
  Li  Li5  1  0.62502100  0.00000000  0.50000000  1
  Li  Li6  1  0.87587500  0.00000000  0.50000000  1
  Y  Y0  1  0.12296300  0.50000000  0.00000000  1
  Y  Y1  1  0.37461900  0.50000000  0.00000000  1
  Y  Y2  1  0.24843700  0.50000000  0.50000000  1
  Y  Y3  1  0.62538100  0.50000000  0.00000000  1
  Y  Y4  1  0.87703700  0.50000000  0.00000000  1
  Y  Y5  1  0.50000000  0.50000000  0.50000000  1
  Y  Y6  1  0.75156300  0.50000000  0.50000000  1
  Zr  Zr0  1  0.00000000  0.50000000  0.50000000  1
  S  S0  1  0.00000000  0.73957000  0.73311300  1
  S  S1  1  0.11997100  0.25988800  0.73816200  1
  S  S2  1  0.24913800  0.75267200  0.75182800  1
  S  S3  1  0.50000000  0.75152400  0.74942800  1
  S  S4  1  0.37455500  0.24795700  0.75057700  1
  S  S5  1  0.00000000  0.26043000  0.26688700  1
  S  S6  1  0.11997100  0.74011200  0.26183800  1
  S  S7  1  0.62544500  0.24795700  0.75057700  1
  S  S8  1  0.37455500  0.75204300  0.24942300  1
  S  S9  1  0.75086200  0.75267200  0.75182800  1
  S  S10  1  0.24913800  0.24732800  0.24817200  1
  S  S11  1  0.88002900  0.25988800  0.73816200  1
  S  S12  1  0.62544500  0.75204300  0.24942300  1
  S  S13  1  0.50000000  0.24847600  0.25057200  1
  S  S14  1  0.88002900  0.74011200  0.26183800  1
  S  S15  1  0.75086200  0.24732800  0.24817200  1
loop_
_geom_bond_atom_site_label_1
_geom_bond_atom_site_label_2
_geom_bond_distance
_geom_bond_site_symmetry_2
Li0 S10 2.701668 1_555
Li0 S2 2.701668 1_544
Li0 S8 2.709540 1_545
Li0 S4 2.709540 1_554
Li0 S1 2.847843 1_554
Li0 S6 2.847843 1_545
Li1 S0 2.701553 1_545
Li1 S5 2.701553 1_555
Li1 S1 2.715059 1_555
Li1 S6 2.715059 1_545
Li1 S2 2.725920 1_545
Li1 S10 2.725920 1_555
Li2 S13 2.721069 1_555
Li2 S3 2.721069 1_544
Li2 S12 2.725525 1_545
Li2 S7 2.725525 1_554
Li2 S8 2.725525 1_545
Li2 S4 2.725525 1_554
Li3 S15 2.701668 1_555
Li3 S9 2.701668 1_544
Li3 S12 2.709540 1_545
Li3 S7 2.709540 1_554
Li3 S11 2.847843 1_554
Li3 S14 2.847843 1_545
Li4 S4 2.718338 1_555
Li4 S8 2.718338 1_545
Li4 S3 2.722157 1_545
Li4 S13 2.722157 1_555
Li4 S2 2.735107 1_545
Li4 S10 2.735107 1_555
Li5 S7 2.718338 1_555
Li5 S12 2.718338 1_545
Li5 S3 2.722157 1_545
Li5 S13 2.722157 1_555
Li5 S9 2.735107 1_545
Li5 S15 2.735107 1_555
Li6 S0 2.701553 1_645
Li6 S5 2.701553 1_655
Li6 S11 2.715059 1_555
Li6 S14 2.715059 1_545
Li6 S9 2.725920 1_545
Li6 S15 2.725920 1_555
S0 Zr0 2.576500 1_555
S0 Y0 2.729626 1_556
S0 Y4 2.729626 1_456
S1 Zr0 2.613199 1_555
S1 Y2 2.708975 1_555
S1 Y0 2.740677 1_556
S2 Y1 2.734657 1_556
S2 Y0 2.742359 1_556
S2 Y2 2.750484 1_555
S3 Y5 2.730992 1_555
S3 Y3 2.737195 1_556
S3 Y1 2.737195 1_556
S4 Y1 2.733744 1_556
S4 Y5 2.739263 1_555
S4 Y2 2.746717 1_555
S5 Zr0 2.576500 1_555
S5 Y0 2.729626 1_555
S5 Y4 2.729626 1_455
S6 Zr0 2.613199 1_555
S6 Y2 2.708975 1_555
S6 Y0 2.740677 1_555
S7 Y3 2.733744 1_556
S7 Y5 2.739263 1_555
S7 Y6 2.746717 1_555
S8 Y1 2.733744 1_555
S8 Y5 2.739263 1_555
S8 Y2 2.746717 1_555
S9 Y3 2.734657 1_556
S9 Y4 2.742359 1_556
S9 Y6 2.750484 1_555
S10 Y1 2.734657 1_555
S10 Y0 2.742359 1_555
S10 Y2 2.750484 1_555
S11 Zr0 2.613199 1_655
S11 Y6 2.708975 1_555
S11 Y4 2.740677 1_556
S12 Y3 2.733744 1_555
S12 Y5 2.739263 1_555
S12 Y6 2.746717 1_555
S13 Y5 2.730992 1_555
S13 Y3 2.737195 1_555
S13 Y1 2.737195 1_555
S14 Zr0 2.613199 1_655
S14 Y6 2.708975 1_555
S14 Y4 2.740677 1_555
S15 Y3 2.734657 1_555
S15 Y4 2.742359 1_555
S15 Y6 2.750484 1_555
