# generated using pymatgen
data_Li4Nb2Cr3Ni3O16
_symmetry_space_group_name_H-M   'P 1'
_cell_length_a   5.89187703
_cell_length_b   5.89331157
_cell_length_c   9.64295867
_cell_angle_alpha   90.02752939
_cell_angle_beta   90.44014031
_cell_angle_gamma   120.03059939
_symmetry_Int_Tables_number   1
_chemical_formula_structural   Li4Nb2Cr3Ni3O16
_chemical_formula_sum   'Li4 Nb2 Cr3 Ni3 O16'
_cell_volume   289.86900972
_cell_formula_units_Z   1
loop_
 _symmetry_equiv_pos_site_id
 _symmetry_equiv_pos_as_xyz
  1  'x, y, z'
loop_
 _atom_site_type_symbol
 _atom_site_label
 _atom_site_symmetry_multiplicity
 _atom_site_fract_x
 _atom_site_fract_y
 _atom_site_fract_z
 _atom_site_occupancy
  Li  Li0  1  0.32413200  0.66203200  0.89835100  1
  Li  Li1  1  0.00441200  0.00208300  0.98954000  1
  Li  Li2  1  0.00189100  0.00078000  0.49430400  1
  Li  Li3  1  0.66544200  0.33311700  0.39783800  1
  Nb  Nb0  1  0.33784600  0.66856500  0.49868500  1
  Nb  Nb1  1  0.67725100  0.33881300  0.99722400  1
  Cr  Cr0  1  0.17872700  0.83442400  0.21916800  1
  Cr  Cr1  1  0.17726300  0.34375400  0.21857600  1
  Cr  Cr2  1  0.34884800  0.17400500  0.72474900  1
  Ni  Ni0  1  0.65759100  0.82893400  0.21224300  1
  Ni  Ni1  1  0.82714200  0.65799700  0.71338800  1
  Ni  Ni2  1  0.82699100  0.16909100  0.71344900  1
  O  O0  1  0.17602100  0.83995800  0.59317900  1
  O  O1  1  0.03717300  0.51863900  0.33722100  1
  O  O2  1  0.31316000  0.65671200  0.10680400  1
  O  O3  1  0.01546600  0.00766400  0.30347600  1
  O  O4  1  0.01214900  0.00607600  0.79748200  1
  O  O5  1  0.17590800  0.33583400  0.59331800  1
  O  O6  1  0.47782400  0.96424200  0.33930500  1
  O  O7  1  0.47738900  0.51390900  0.33909100  1
  O  O8  1  0.33536800  0.16780700  0.09936000  1
  O  O9  1  0.67421400  0.83719000  0.59271700  1
  O  O10  1  0.50010100  0.46827900  0.84560000  1
  O  O11  1  0.49987900  0.03151900  0.84527500  1
  O  O12  1  0.64391300  0.32214500  0.61148700  1
  O  O13  1  0.84100500  0.67281800  0.09353900  1
  O  O14  1  0.95213000  0.47601300  0.83890000  1
  O  O15  1  0.84076600  0.16789800  0.09357400  1
loop_
_geom_bond_atom_site_label_1
_geom_bond_atom_site_label_2
_geom_bond_distance
_geom_bond_site_symmetry_2
Li0 O11 1.956541 1_565
Li0 O10 1.957035 1_555
Li0 O14 1.977241 1_455
Li0 O2 2.011394 1_556
Li1 O4 1.852789 1_555
Li1 O13 1.960816 1_446
Li1 O15 1.961621 1_456
Li1 O8 1.984620 1_556
Li2 O3 1.842082 1_555
Li2 O9 1.929612 1_445
Li2 O5 1.954113 1_555
Li2 O0 1.954233 1_545
Li3 O6 1.962219 1_545
Li3 O7 1.963748 1_555
Li3 O1 1.989335 1_655
Li3 O12 2.064137 1_555
Nb0 O5 1.931477 1_555
Nb0 O0 1.932878 1_555
Nb0 O9 1.933304 1_555
Nb0 O7 2.154811 1_555
Nb0 O6 2.159213 1_555
Nb0 O1 2.175503 1_555
Nb1 O13 1.936912 1_556
Nb1 O15 1.940204 1_556
Nb1 O8 2.010652 1_556
Nb1 O14 2.082313 1_555
Nb1 O10 2.141033 1_555
Nb1 O11 2.144367 1_555
Cr0 O3 1.903356 1_565
Cr0 O6 1.910811 1_555
Cr0 O2 1.934074 1_555
Cr0 O1 1.979382 1_555
Cr0 O8 2.061618 1_565
Cr0 O13 2.097383 1_455
Cr1 O3 1.904141 1_555
Cr1 O7 1.917145 1_555
Cr1 O2 1.934293 1_555
Cr1 O1 1.979220 1_555
Cr1 O8 2.060735 1_555
Cr1 O15 2.088828 1_455
Cr2 O4 1.861103 1_555
Cr2 O12 1.867702 1_555
Cr2 O11 1.892274 1_555
Cr2 O10 1.896057 1_555
Cr2 O0 2.119759 1_545
Cr2 O5 2.123218 1_555
Ni0 O3 2.019166 1_665
Ni0 O2 2.021844 1_555
Ni0 O7 2.029624 1_555
Ni0 O6 2.030595 1_555
Ni0 O15 2.080380 1_565
Ni0 O13 2.082710 1_555
Ni1 O4 1.949479 1_665
Ni1 O12 1.972730 1_555
Ni1 O14 1.983799 1_555
Ni1 O9 2.053919 1_555
Ni1 O10 2.114498 1_555
Ni1 O0 2.133166 1_655
Ni2 O4 1.950867 1_655
Ni2 O12 1.975413 1_555
Ni2 O14 1.981939 1_555
Ni2 O9 2.052067 1_545
Ni2 O11 2.112432 1_555
Ni2 O5 2.132945 1_655
