# generated using pymatgen
data_Na11Mn13O32
_symmetry_space_group_name_H-M   'P 1'
_cell_length_a   6.20198371
_cell_length_b   6.20587151
_cell_length_c   20.51688588
_cell_angle_alpha   95.77372657
_cell_angle_beta   92.29443243
_cell_angle_gamma   122.27205417
_symmetry_Int_Tables_number   1
_chemical_formula_structural   Na11Mn13O32
_chemical_formula_sum   'Na11 Mn13 O32'
_cell_volume   660.15725662
_cell_formula_units_Z   1
loop_
 _symmetry_equiv_pos_site_id
 _symmetry_equiv_pos_as_xyz
  1  'x, y, z'
loop_
 _atom_site_type_symbol
 _atom_site_label
 _atom_site_symmetry_multiplicity
 _atom_site_fract_x
 _atom_site_fract_y
 _atom_site_fract_z
 _atom_site_occupancy
  Na  Na0  1  0.34308800  0.68654600  0.03125600  1
  Na  Na1  1  0.00868100  0.99155600  0.99945100  1
  Na  Na2  1  0.44331900  0.87586800  0.32099000  1
  Na  Na3  1  0.67913900  0.38474200  0.06353300  1
  Na  Na4  1  0.76325300  0.49183400  0.25410500  1
  Na  Na5  1  0.18541100  0.37387400  0.55790200  1
  Na  Na6  1  0.71749600  0.93966300  0.65751600  1
  Na  Na7  1  0.96932800  0.43217800  0.40523300  1
  Na  Na8  1  0.24466500  0.49846000  0.74204200  1
  Na  Na9  1  0.50497300  0.00012700  0.50483700  1
  Na  Na10  1  0.92530900  0.88495800  0.80838800  1
  Mn  Mn0  1  0.22504200  0.93993000  0.16384500  1
  Mn  Mn1  1  0.22479200  0.44556800  0.16415100  1
  Mn  Mn2  1  0.71939500  0.94004600  0.16408600  1
  Mn  Mn3  1  0.10742800  0.17830900  0.28576900  1
  Mn  Mn4  1  0.21425300  0.93909000  0.65474600  1
  Mn  Mn5  1  0.97246600  0.93342000  0.40785700  1
  Mn  Mn6  1  0.47342800  0.43468700  0.40802400  1
  Mn  Mn7  1  0.84446400  0.68662300  0.53121000  1
  Mn  Mn8  1  0.46397300  0.93194200  0.89890400  1
  Mn  Mn9  1  0.71642000  0.44045800  0.65479500  1
  Mn  Mn10  1  0.58137100  0.19718400  0.77690500  1
  Mn  Mn11  1  0.46333300  0.43711200  0.89901300  1
  Mn  Mn12  1  0.96927300  0.43742300  0.89879800  1
  O  O0  1  0.06871200  0.59304100  0.11847500  1
  O  O1  1  0.51889400  0.59918900  0.11729100  1
  O  O2  1  0.40969800  0.80519800  0.21269600  1
  O  O3  1  0.03410100  0.08085600  0.11403000  1
  O  O4  1  0.09988200  0.81345100  0.47103000  1
  O  O5  1  0.93880500  0.85969000  0.21758200  1
  O  O6  1  0.35840600  0.27926800  0.21748700  1
  O  O7  1  0.28850700  0.49187900  0.34021800  1
  O  O8  1  0.52559000  0.05010300  0.11820800  1
  O  O9  1  0.01214100  0.58946600  0.59983800  1
  O  O10  1  0.17367500  0.27725000  0.45286600  1
  O  O11  1  0.26988200  0.08531600  0.35338100  1
  O  O12  1  0.76478600  0.59375600  0.36035500  1
  O  O13  1  0.94387700  0.27728600  0.22079300  1
  O  O14  1  0.67778500  0.78467100  0.46323400  1
  O  O15  1  0.39834300  0.88258600  0.72281000  1
  O  O16  1  0.65670300  0.37077200  0.47142500  1
  O  O17  1  0.03155400  0.00213300  0.59093900  1
  O  O18  1  0.58943300  0.56015200  0.59125800  1
  O  O19  1  0.84685100  0.04850500  0.33988000  1
  O  O20  1  0.92299900  0.78011500  0.70242600  1
  O  O21  1  0.42052100  0.29141500  0.70930800  1
  O  O22  1  0.51378100  0.09615200  0.60989900  1
  O  O23  1  0.27936700  0.57312000  0.85034500  1
  O  O24  1  0.16943100  0.77823700  0.94579600  1
  O  O25  1  0.84118500  0.32386200  0.72237100  1
  O  O26  1  0.16335100  0.32714100  0.94476900  1
  O  O27  1  0.61888200  0.78228000  0.94481700  1
  O  O28  1  0.75067200  0.51707300  0.84525900  1
  O  O29  1  0.33046400  0.09693700  0.84511800  1
  O  O30  1  0.74507600  0.09917500  0.84221900  1
  O  O31  1  0.65381300  0.29508600  0.94873000  1
loop_
_geom_bond_atom_site_label_1
_geom_bond_atom_site_label_2
_geom_bond_distance
_geom_bond_site_symmetry_2
Na0 O24 2.293917 1_554
Na0 O1 2.295265 1_555
Na0 O26 2.399226 1_554
Na0 O27 2.406973 1_554
Na0 O0 2.415133 1_555
Na0 O8 2.419823 1_565
Na1 O27 2.219207 1_455
Na1 O26 2.222380 1_565
Na1 O24 2.272087 1_555
Na1 O3 2.339479 1_566
Na2 O7 2.128916 1_555
Na2 O19 2.130027 1_565
Na2 O11 2.159782 1_565
Na2 O2 2.200376 1_555
Na3 O8 2.218187 1_555
Na3 O0 2.220994 1_655
Na3 O1 2.275997 1_555
Na3 O31 2.344254 1_554
Na4 O5 2.171102 1_555
Na4 O6 2.172904 1_555
Na4 O12 2.206062 1_555
Na4 O13 2.228406 1_555
Na5 O10 2.165589 1_555
Na5 O18 2.166487 1_555
Na5 O17 2.169730 1_555
Na5 O9 2.250099 1_555
Na6 O20 2.211544 1_555
Na6 O22 2.212731 1_565
Na6 O18 2.301642 1_555
Na6 O17 2.307202 1_665
Na6 O25 2.317460 1_565
Na6 O15 2.323166 1_555
Na7 O10 2.208346 1_655
Na7 O12 2.216561 1_555
Na7 O16 2.296689 1_555
Na7 O4 2.302275 1_655
Na7 O7 2.315777 1_655
Na7 O19 2.321386 1_555
Na8 O25 2.129438 1_455
Na8 O15 2.130697 1_555
Na8 O21 2.161727 1_555
Na8 O23 2.201485 1_555
Na9 O22 2.168372 1_555
Na9 O16 2.168804 1_555
Na9 O4 2.173906 1_545
Na9 O14 2.244784 1_545
Na10 O28 2.174889 1_555
Na10 O29 2.175182 1_665
Na10 O20 2.202911 1_555
Na10 O30 2.227538 1_565
Mn0 O8 1.930350 1_565
Mn0 O0 1.933006 1_555
Mn0 O6 1.982644 1_565
Mn0 O5 1.984476 1_455
Mn0 O2 2.028420 1_555
Mn0 O3 2.097790 1_565
Mn1 O1 1.904759 1_555
Mn1 O0 1.923230 1_555
Mn1 O13 1.984903 1_455
Mn1 O2 2.004066 1_555
Mn1 O6 2.004284 1_555
Mn1 O3 2.038327 1_555
Mn2 O1 1.905116 1_555
Mn2 O8 1.926828 1_565
Mn2 O13 1.985163 1_565
Mn2 O2 1.997256 1_555
Mn2 O5 2.005056 1_555
Mn2 O3 2.036557 1_665
Mn3 O7 1.850516 1_555
Mn3 O19 1.851100 1_455
Mn3 O13 1.976149 1_455
Mn3 O11 1.985586 1_555
Mn3 O5 2.019569 1_445
Mn3 O6 2.021833 1_555
Mn4 O17 1.899592 1_565
Mn4 O20 1.904153 1_455
Mn4 O22 1.905603 1_565
Mn4 O15 1.942933 1_555
Mn4 O9 2.009684 1_555
Mn4 O21 2.018983 1_565
Mn5 O4 1.897127 1_655
Mn5 O10 1.905457 1_665
Mn5 O12 1.907601 1_555
Mn5 O19 1.941581 1_565
Mn5 O14 2.014653 1_555
Mn5 O11 2.015061 1_665
Mn6 O16 1.899549 1_555
Mn6 O12 1.904501 1_555
Mn6 O10 1.906643 1_555
Mn6 O7 1.944976 1_555
Mn6 O11 2.006529 1_555
Mn6 O14 2.014260 1_555
Mn7 O17 1.912887 1_665
Mn7 O18 1.913241 1_555
Mn7 O16 1.914966 1_555
Mn7 O4 1.916782 1_655
Mn7 O14 2.027542 1_555
Mn7 O9 2.037328 1_655
Mn8 O24 1.907108 1_555
Mn8 O27 1.931185 1_555
Mn8 O30 1.985476 1_565
Mn8 O23 2.000449 1_555
Mn8 O29 2.002848 1_565
Mn8 O31 2.028967 1_565
Mn9 O18 1.899657 1_555
Mn9 O22 1.907137 1_555
Mn9 O20 1.908130 1_555
Mn9 O25 1.938662 1_555
Mn9 O21 2.008502 1_555
Mn9 O9 2.013576 1_655
Mn10 O15 1.851634 1_545
Mn10 O25 1.853364 1_555
Mn10 O30 1.977620 1_555
Mn10 O21 1.983928 1_555
Mn10 O29 2.020630 1_555
Mn10 O28 2.026385 1_555
Mn11 O27 1.928187 1_555
Mn11 O26 1.929066 1_555
Mn11 O29 1.989490 1_555
Mn11 O28 1.990344 1_555
Mn11 O23 2.029278 1_555
Mn11 O31 2.099823 1_555
Mn12 O24 1.906372 1_655
Mn12 O26 1.930152 1_655
Mn12 O30 1.987672 1_555
Mn12 O23 1.997027 1_655
Mn12 O28 1.998663 1_555
Mn12 O31 2.038284 1_555
