# generated using pymatgen
data_Li5Fe8(BO3)8
_symmetry_space_group_name_H-M   'P 1'
_cell_length_a   5.26514900
_cell_length_b   9.09788926
_cell_length_c   10.18913771
_cell_angle_alpha   89.41786899
_cell_angle_beta   88.78633367
_cell_angle_gamma   89.73371338
_symmetry_Int_Tables_number   1
_chemical_formula_structural   Li5Fe8(BO3)8
_chemical_formula_sum   'Li5 Fe8 B8 O24'
_cell_volume   487.93797455
_cell_formula_units_Z   1
loop_
 _symmetry_equiv_pos_site_id
 _symmetry_equiv_pos_as_xyz
  1  'x, y, z'
loop_
 _atom_site_type_symbol
 _atom_site_label
 _atom_site_symmetry_multiplicity
 _atom_site_fract_x
 _atom_site_fract_y
 _atom_site_fract_z
 _atom_site_occupancy
  Li  Li0  1  0.66613500  0.98781000  0.84598800  1
  Li  Li1  1  0.34568100  0.99658200  0.09325200  1
  Li  Li2  1  0.14751900  0.51541000  0.33399300  1
  Li  Li3  1  0.15912800  0.49209600  0.83471900  1
  Li  Li4  1  0.35515900  0.00521500  0.58194600  1
  Fe  Fe0  1  0.83687900  0.82686800  0.12398000  1
  Fe  Fe1  1  0.15504500  0.84694200  0.37124400  1
  Fe  Fe2  1  0.66939400  0.65709300  0.86599500  1
  Fe  Fe3  1  0.34472700  0.66135700  0.61695000  1
  Fe  Fe4  1  0.65887900  0.32633700  0.36425500  1
  Fe  Fe5  1  0.84404800  0.17478500  0.62248100  1
  Fe  Fe6  1  0.34075600  0.34390100  0.11629200  1
  Fe  Fe7  1  0.15827700  0.15876100  0.87429400  1
  B  B0  1  0.84470100  0.84299400  0.62450300  1
  B  B1  1  0.65378900  0.65618400  0.36412800  1
  B  B2  1  0.17002800  0.82886400  0.87630400  1
  B  B3  1  0.33531800  0.67817400  0.12391100  1
  B  B4  1  0.66249200  0.33261400  0.86787500  1
  B  B5  1  0.33479400  0.32410800  0.62318900  1
  B  B6  1  0.84193500  0.15524700  0.12611600  1
  B  B7  1  0.17449100  0.17789900  0.37830100  1
  O  O0  1  0.71543200  0.97881300  0.63934500  1
  O  O1  1  0.91146600  0.83412000  0.91462600  1
  O  O2  1  0.31121300  0.95750800  0.88466200  1
  O  O3  1  0.79145200  0.77942000  0.31960200  1
  O  O4  1  0.71144600  0.71883900  0.65610600  1
  O  O5  1  0.20442000  0.81108100  0.15308200  1
  O  O6  1  0.09845700  0.84348800  0.58410000  1
  O  O7  1  0.58184700  0.69077700  0.07467400  1
  O  O8  1  0.77960600  0.52213600  0.36660100  1
  O  O9  1  0.39934400  0.66653500  0.40219900  1
  O  O10  1  0.27876000  0.69805900  0.83580000  1
  O  O11  1  0.80786100  0.45476000  0.87174700  1
  O  O12  1  0.22129600  0.54710700  0.14431800  1
  O  O13  1  0.71029800  0.27711500  0.17392700  1
  O  O14  1  0.57756000  0.30703700  0.56671800  1
  O  O15  1  0.22691100  0.45564200  0.64462600  1
  O  O16  1  0.40599300  0.33174900  0.90606700  1
  O  O17  1  0.92080700  0.18749600  0.42313400  1
  O  O18  1  0.77494600  0.19882300  0.82263300  1
  O  O19  1  0.28981200  0.30988600  0.33762600  1
  O  O20  1  0.20756600  0.19125400  0.65722100  1
  O  O21  1  0.70867900  0.02489400  0.11358600  1
  O  O22  1  0.09724100  0.16292100  0.08864100  1
  O  O23  1  0.30084400  0.04814600  0.38328500  1
loop_
_geom_bond_atom_site_label_1
_geom_bond_atom_site_label_2
_geom_bond_distance
_geom_bond_site_symmetry_2
Li0 O2 1.922179 1_555
Li0 O18 2.016319 1_565
Li0 O1 2.028382 1_555
Li0 O0 2.118351 1_555
Li1 O5 1.935094 1_555
Li1 O21 1.945390 1_565
Li1 O22 1.996547 1_565
Li1 O2 2.169959 1_554
Li2 O8 1.959235 1_455
Li2 O12 1.981667 1_555
Li2 O19 2.011390 1_555
Li2 O9 2.051040 1_555
Li3 O11 1.911008 1_455
Li3 O10 1.979846 1_555
Li3 O15 1.992875 1_555
Li3 O16 2.084929 1_555
Li4 O6 2.002186 1_545
Li4 O0 2.009439 1_545
Li4 O20 2.011423 1_555
Li4 O23 2.083045 1_555
Fe0 O7 1.909219 1_555
Fe0 O21 1.923670 1_565
Fe0 O5 1.968312 1_655
Fe0 O3 2.044445 1_555
Fe0 O1 2.161190 1_554
Fe1 O23 1.994193 1_565
Fe1 O3 2.092662 1_455
Fe1 O9 2.105934 1_555
Fe1 O6 2.182857 1_555
Fe1 O5 2.259359 1_555
Fe2 O11 1.977536 1_555
Fe2 O10 2.116865 1_555
Fe2 O1 2.127436 1_555
Fe2 O7 2.190382 1_556
Fe2 O4 2.212428 1_555
Fe3 O15 1.989914 1_555
Fe3 O4 2.051104 1_555
Fe3 O6 2.127475 1_555
Fe3 O9 2.200952 1_555
Fe3 O10 2.277234 1_555
Fe4 O8 1.894699 1_555
Fe4 O17 1.964900 1_555
Fe4 O19 1.974305 1_555
Fe4 O13 2.007215 1_555
Fe4 O14 2.103741 1_555
Fe5 O0 1.914945 1_545
Fe5 O14 1.934793 1_555
Fe5 O20 1.960483 1_655
Fe5 O17 2.064767 1_555
Fe5 O18 2.077534 1_555
Fe6 O12 1.971630 1_555
Fe6 O22 2.116294 1_555
Fe6 O13 2.128366 1_555
Fe6 O16 2.166035 1_554
Fe6 O19 2.283554 1_555
Fe7 O2 1.999501 1_545
Fe7 O16 2.080902 1_555
Fe7 O18 2.125489 1_455
Fe7 O22 2.201464 1_556
Fe7 O20 2.238269 1_555
B0 O4 1.364634 1_555
B0 O6 1.389704 1_655
B0 O0 1.415841 1_555
B1 O8 1.385407 1_555
B1 O9 1.389845 1_555
B1 O3 1.404113 1_555
B2 O10 1.381276 1_555
B2 O2 1.393715 1_555
B2 O1 1.409017 1_455
B3 O12 1.349767 1_555
B3 O7 1.386469 1_555
B3 O5 1.419970 1_555
B4 O11 1.353653 1_555
B4 O16 1.397545 1_555
B4 O18 1.427523 1_555
B5 O15 1.340202 1_555
B5 O14 1.399215 1_555
B5 O20 1.420942 1_555
B6 O21 1.389105 1_555
B6 O22 1.391474 1_655
B6 O13 1.391591 1_555
B7 O23 1.353367 1_555
B7 O19 1.402985 1_555
B7 O17 1.405073 1_455
