# generated using pymatgen
data_Na8(NiO2)9
_symmetry_space_group_name_H-M   'P 1'
_cell_length_a   7.54488654
_cell_length_b   7.02471335
_cell_length_c   7.99359345
_cell_angle_alpha   89.42946891
_cell_angle_beta   66.08747358
_cell_angle_gamma   65.95358065
_symmetry_Int_Tables_number   1
_chemical_formula_structural   Na8(NiO2)9
_chemical_formula_sum   'Na8 Ni9 O18'
_cell_volume   347.52248198
_cell_formula_units_Z   1
loop_
 _symmetry_equiv_pos_site_id
 _symmetry_equiv_pos_as_xyz
  1  'x, y, z'
loop_
 _atom_site_type_symbol
 _atom_site_label
 _atom_site_symmetry_multiplicity
 _atom_site_fract_x
 _atom_site_fract_y
 _atom_site_fract_z
 _atom_site_occupancy
  Na  Na0  1  0.88526912  0.78972594  0.79071267  1
  Na  Na1  1  0.42512965  0.88969972  0.89721442  1
  Na  Na2  1  0.77964601  0.55155929  0.55395729  1
  Na  Na3  1  0.31984728  0.68320981  0.67942520  1
  Na  Na4  1  0.68015183  0.31679139  0.32057684  1
  Na  Na5  1  0.22035358  0.44844159  0.44604391  1
  Na  Na6  1  0.57486962  0.11030135  0.10278717  1
  Na  Na7  1  0.11473006  0.21027455  0.20928790  1
  Ni  Ni0  1  0.94661459  0.88167756  0.38779561  1
  Ni  Ni1  1  0.71879207  0.44986104  0.94797568  1
  Ni  Ni2  1  0.83143602  0.66730214  0.16708022  1
  Ni  Ni3  1  0.61758005  0.21911209  0.71493251  1
  Ni  Ni4  1  0.38242009  0.78088553  0.28506725  1
  Ni  Ni5  1  0.16856388  0.33269919  0.83291828  1
  Ni  Ni6  1  0.49999995  0.00000026  0.49999989  1
  Ni  Ni7  1  0.28120811  0.55013347  0.05202271  1
  Ni  Ni8  1  0.05338622  0.11831978  0.61220314  1
  O  O0  1  0.96463559  0.43168641  0.73207841  1
  O  O1  1  0.69922423  0.90510080  0.60428113  1
  O  O2  1  0.80917113  0.14273173  0.82581280  1
  O  O3  1  0.75165582  0.95215202  0.27750517  1
  O  O4  1  0.52619509  0.53086640  0.83462200  1
  O  O5  1  0.86262931  0.19611674  0.49842598  1
  O  O6  1  0.55753485  0.71845477  0.41323028  1
  O  O7  1  0.10409222  0.61166990  0.92842174  1
  O  O8  1  0.37487356  0.23556629  0.93098513  1
  O  O9  1  0.89590657  0.38832821  0.07157745  1
  O  O10  1  0.62512650  0.76443678  0.06901515  1
  O  O11  1  0.44246447  0.28154594  0.58677135  1
  O  O12  1  0.13737275  0.80388359  0.50157384  1
  O  O13  1  0.19082930  0.85727002  0.17418747  1
  O  O14  1  0.47380456  0.46913478  0.16537868  1
  O  O15  1  0.24834527  0.04784672  0.72249496  1
  O  O16  1  0.30077717  0.09490092  0.39571841  1
  O  O17  1  0.03536449  0.56831429  0.26792036  1
loop_
_geom_bond_atom_site_label_1
_geom_bond_atom_site_label_2
_geom_bond_distance
_geom_bond_site_symmetry_2
Na0 O7 2.294559 1_655
Na0 O2 2.297949 1_565
Na0 O0 2.339373 1_555
Na0 O12 2.356990 1_655
Na0 O10 2.359971 1_556
Na0 O1 2.364894 1_555
Na1 O13 2.285606 1_556
Na1 O15 2.288131 1_565
Na1 O8 2.301950 1_565
Na1 O4 2.309788 1_555
Na1 O10 2.347550 1_556
Na1 O1 2.454186 1_555
Na2 O1 2.300400 1_555
Na2 O0 2.305163 1_555
Na2 O5 2.312188 1_555
Na2 O6 2.312812 1_555
Na2 O4 2.335229 1_555
Na2 O17 2.359589 1_655
Na3 O7 2.210017 1_555
Na3 O6 2.250092 1_555
Na3 O12 2.290592 1_555
Na3 O4 2.299929 1_555
Na3 O15 2.389883 1_565
Na3 O11 2.593172 1_555
Na4 O9 2.210018 1_555
Na4 O11 2.250091 1_555
Na4 O5 2.290593 1_555
Na4 O14 2.299935 1_555
Na4 O3 2.389897 1_545
Na4 O6 2.593169 1_555
Na5 O16 2.300392 1_555
Na5 O17 2.305177 1_555
Na5 O12 2.312188 1_555
Na5 O11 2.312813 1_555
Na5 O14 2.335233 1_555
Na5 O0 2.359575 1_455
Na6 O2 2.285619 1_554
Na6 O3 2.288134 1_545
Na6 O10 2.301935 1_545
Na6 O14 2.309789 1_555
Na6 O8 2.347556 1_554
Na6 O16 2.454167 1_555
Na7 O9 2.294565 1_455
Na7 O13 2.297938 1_545
Na7 O17 2.339375 1_555
Na7 O5 2.356978 1_455
Na7 O8 2.359983 1_554
Na7 O16 2.364897 1_555
Ni0 O13 1.880911 1_655
Ni0 O12 1.899359 1_655
Ni0 O3 1.906609 1_555
Ni0 O1 1.908530 1_555
Ni0 O5 2.122860 1_565
Ni0 O17 2.129050 1_655
Ni1 O9 1.881451 1_556
Ni1 O4 1.907790 1_555
Ni1 O0 1.910887 1_555
Ni1 O14 1.910924 1_556
Ni1 O2 2.092019 1_555
Ni1 O10 2.129408 1_556
Ni2 O9 1.900467 1_555
Ni2 O10 1.901574 1_555
Ni2 O17 1.903416 1_655
Ni2 O3 1.941208 1_555
Ni2 O7 2.049934 1_654
Ni2 O6 2.093757 1_555
Ni3 O2 1.886836 1_555
Ni3 O11 1.898328 1_555
Ni3 O5 1.899417 1_555
Ni3 O8 1.901828 1_555
Ni3 O4 2.112626 1_555
Ni3 O1 2.125401 1_545
Ni4 O13 1.886830 1_555
Ni4 O6 1.898336 1_555
Ni4 O12 1.899403 1_555
Ni4 O10 1.901838 1_555
Ni4 O14 2.112601 1_555
Ni4 O16 2.125430 1_565
Ni5 O7 1.900445 1_555
Ni5 O8 1.901585 1_555
Ni5 O0 1.903413 1_455
Ni5 O15 1.941217 1_555
Ni5 O9 2.049946 1_456
Ni5 O11 2.093740 1_555
Ni6 O16 1.893860 1_555
Ni6 O1 1.893867 1_545
Ni6 O15 1.906688 1_555
Ni6 O3 1.906689 1_545
Ni6 O6 1.914335 1_545
Ni6 O11 1.914339 1_555
Ni7 O7 1.881453 1_554
Ni7 O14 1.907802 1_555
Ni7 O17 1.910875 1_555
Ni7 O4 1.910927 1_554
Ni7 O13 2.092070 1_555
Ni7 O8 2.129349 1_554
Ni8 O2 1.880909 1_455
Ni8 O5 1.899344 1_455
Ni8 O15 1.906620 1_555
Ni8 O16 1.908539 1_555
Ni8 O12 2.122835 1_545
Ni8 O0 2.129069 1_455
