# generated using pymatgen
data_Cs2CrCl5O4
_symmetry_space_group_name_H-M   'P 1'
_cell_length_a   9.41144894
_cell_length_b   9.81093037
_cell_length_c   7.33124247
_cell_angle_alpha   82.37255961
_cell_angle_beta   98.58929065
_cell_angle_gamma   140.37478556
_symmetry_Int_Tables_number   1
_chemical_formula_structural   Cs2CrCl5O4
_chemical_formula_sum   'Cs2 Cr1 Cl5 O4'
_cell_volume   426.71124995
_cell_formula_units_Z   1
loop_
 _symmetry_equiv_pos_site_id
 _symmetry_equiv_pos_as_xyz
  1  'x, y, z'
loop_
 _atom_site_type_symbol
 _atom_site_label
 _atom_site_symmetry_multiplicity
 _atom_site_fract_x
 _atom_site_fract_y
 _atom_site_fract_z
 _atom_site_occupancy
  Cs  Cs0  1  0.72408600  0.31144700  0.76208100  1
  Cs  Cs1  1  0.34490100  0.70123900  0.24139700  1
  Cr  Cr0  1  0.98860500  0.06219700  0.97628300  1
  Cl  Cl0  1  0.69194500  0.39631600  0.23731300  1
  Cl  Cl1  1  0.30032100  0.73886700  0.70858300  1
  Cl  Cl2  1  0.19438100  0.85923700  0.89851400  1
  Cl  Cl3  1  0.89003800  0.16307800  0.13021200  1
  Cl  Cl4  1  0.59586000  0.54305200  0.44206200  1
  O  O0  1  0.14094300  0.24075500  0.81453900  1
  O  O1  1  0.75799400  0.82971500  0.89350200  1
  O  O2  1  0.74468000  0.60331200  0.27113100  1
  O  O3  1  0.12624400  0.05078400  0.12438300  1
loop_
_geom_bond_atom_site_label_1
_geom_bond_atom_site_label_2
_geom_bond_distance
_geom_bond_site_symmetry_2
Cr0 O0 1.617970 1_655
Cr0 O1 1.621541 1_545
Cr0 O3 1.624953 1_656
Cl0 O2 1.725187 1_555
Cl0 Cs0 3.794237 1_554
Cl0 Cs0 3.843926 1_555
Cl1 Cl2 2.644359 1_555
Cl1 Cs0 3.509356 1_455
Cl1 Cs1 3.612036 1_555
Cl1 Cs0 3.636146 1_565
Cl1 Cs1 3.864826 1_556
Cl2 Cs0 3.431736 1_565
Cl2 Cs1 3.466011 1_556
Cl2 Cs0 3.596571 1_455
Cl3 Cr0 2.266533 1_554
Cl3 Cs1 3.460521 1_545
Cl3 Cs1 3.485568 1_655
Cl3 Cs0 3.611418 1_554
Cl4 O2 1.712776 1_555
Cl4 Cs0 3.753286 1_555
Cl4 Cs1 3.762182 1_555
