# generated using pymatgen
data_H2C2N2O
_symmetry_space_group_name_H-M   'P 1'
_cell_length_a   5.45827600
_cell_length_b   7.29028300
_cell_length_c   8.68450700
_cell_angle_alpha   90.00000000
_cell_angle_beta   90.00000000
_cell_angle_gamma   90.00000000
_symmetry_Int_Tables_number   1
_chemical_formula_structural   H2C2N2O
_chemical_formula_sum   'H8 C8 N8 O4'
_cell_volume   345.57717428
_cell_formula_units_Z   4
loop_
 _symmetry_equiv_pos_site_id
 _symmetry_equiv_pos_as_xyz
  1  'x, y, z'
loop_
 _atom_site_type_symbol
 _atom_site_label
 _atom_site_symmetry_multiplicity
 _atom_site_fract_x
 _atom_site_fract_y
 _atom_site_fract_z
 _atom_site_occupancy
  H  H0  1  0.25000000  0.08344700  0.91394500  1
  H  H1  1  0.25000000  0.41655300  0.41394500  1
  H  H2  1  0.75000000  0.91655300  0.08605500  1
  H  H3  1  0.75000000  0.58344700  0.58605500  1
  H  H4  1  0.25000000  0.85303200  0.97203300  1
  H  H5  1  0.25000000  0.64696800  0.47203300  1
  H  H6  1  0.75000000  0.14696800  0.02796700  1
  H  H7  1  0.75000000  0.35303200  0.52796700  1
  C  C0  1  0.25000000  0.89610400  0.73716700  1
  C  C1  1  0.25000000  0.60389600  0.23716700  1
  C  C2  1  0.75000000  0.10389600  0.26283300  1
  C  C3  1  0.75000000  0.39610400  0.76283300  1
  C  C4  1  0.25000000  0.05137200  0.62751800  1
  C  C5  1  0.25000000  0.44862800  0.12751800  1
  C  C6  1  0.75000000  0.94862800  0.37248200  1
  C  C7  1  0.75000000  0.55137200  0.87248200  1
  N  N0  1  0.25000000  0.94762200  0.88431500  1
  N  N1  1  0.25000000  0.55237800  0.38431500  1
  N  N2  1  0.75000000  0.05237800  0.11568500  1
  N  N3  1  0.75000000  0.44762200  0.61568500  1
  N  N4  1  0.25000000  0.16760400  0.53576000  1
  N  N5  1  0.25000000  0.33239600  0.03576000  1
  N  N6  1  0.75000000  0.83239600  0.46424000  1
  N  N7  1  0.75000000  0.66760400  0.96424000  1
  O  O0  1  0.25000000  0.73726900  0.68524100  1
  O  O1  1  0.25000000  0.76273100  0.18524100  1
  O  O2  1  0.75000000  0.26273100  0.31475900  1
  O  O3  1  0.75000000  0.23726900  0.81475900  1
loop_
_geom_bond_atom_site_label_1
_geom_bond_atom_site_label_2
_geom_bond_distance
_geom_bond_site_symmetry_2
H0 N0 1.023091 1_545
H1 N1 1.023091 1_555
H2 N2 1.023091 1_565
H3 N3 1.023091 1_555
H4 N0 1.027546 1_555
H5 N1 1.027546 1_555
H6 N2 1.027546 1_555
H7 N3 1.027546 1_555
C0 O0 1.242663 1_555
C0 N0 1.331957 1_555
C0 C4 1.479216 1_565
C1 O1 1.242663 1_555
C1 N1 1.331957 1_555
C1 C5 1.479216 1_555
C2 O2 1.242663 1_555
C2 N2 1.331957 1_555
C2 C6 1.479216 1_545
C3 O3 1.242663 1_555
C3 N3 1.331957 1_555
C3 C7 1.479216 1_555
C4 N4 1.163199 1_555
C5 N5 1.163199 1_555
C6 N6 1.163199 1_555
C7 N7 1.163199 1_555
