# generated using pymatgen
data_K2TeO4
_symmetry_space_group_name_H-M   'P 1'
_cell_length_a   8.05109466
_cell_length_b   6.22894264
_cell_length_c   12.13089237
_cell_angle_alpha   63.92376145
_cell_angle_beta   90.00000000
_cell_angle_gamma   90.00000000
_symmetry_Int_Tables_number   1
_chemical_formula_structural   K2TeO4
_chemical_formula_sum   'K8 Te4 O16'
_cell_volume   546.43671901
_cell_formula_units_Z   4
loop_
 _symmetry_equiv_pos_site_id
 _symmetry_equiv_pos_as_xyz
  1  'x, y, z'
loop_
 _atom_site_type_symbol
 _atom_site_label
 _atom_site_symmetry_multiplicity
 _atom_site_fract_x
 _atom_site_fract_y
 _atom_site_fract_z
 _atom_site_occupancy
  K  K0  1  0.20267689  0.78708302  0.91757275  1
  K  K1  1  0.50421417  0.50037010  0.76462871  1
  K  K2  1  0.29732311  0.78708302  0.41757275  1
  K  K3  1  0.00421417  0.49962990  0.73537129  1
  K  K4  1  0.99578583  0.50037010  0.26462871  1
  K  K5  1  0.70267689  0.21291698  0.58242725  1
  K  K6  1  0.49578583  0.49962990  0.23537129  1
  K  K7  1  0.79732311  0.21291698  0.08242725  1
  Te  Te0  1  0.72908013  0.84951363  0.92451849  1
  Te  Te1  1  0.77091987  0.84951363  0.42451849  1
  Te  Te2  1  0.22908013  0.15048637  0.57548151  1
  Te  Te3  1  0.27091987  0.15048637  0.07548151  1
  O  O0  1  0.88332834  0.68660800  0.88105670  1
  O  O1  1  0.52411855  0.77448638  0.88946775  1
  O  O2  1  0.74415160  0.75823884  0.58876843  1
  O  O3  1  0.25972980  0.82716543  0.65572987  1
  O  O4  1  0.61667166  0.68660800  0.38105670  1
  O  O5  1  0.97588145  0.77448638  0.38946775  1
  O  O6  1  0.75972980  0.17283457  0.84427013  1
  O  O7  1  0.24415160  0.24176116  0.91123157  1
  O  O8  1  0.75584840  0.75823884  0.08876843  1
  O  O9  1  0.24027020  0.82716543  0.15572987  1
  O  O10  1  0.02411855  0.22551362  0.61053225  1
  O  O11  1  0.38332834  0.31339200  0.61894330  1
  O  O12  1  0.74027020  0.17283457  0.34427013  1
  O  O13  1  0.25584840  0.24176116  0.41123157  1
  O  O14  1  0.47588145  0.22551362  0.11053225  1
  O  O15  1  0.11667166  0.31339200  0.11894330  1
loop_
_geom_bond_atom_site_label_1
_geom_bond_atom_site_label_2
_geom_bond_distance
_geom_bond_site_symmetry_2
K0 O1 2.615996 1_555
K0 O0 2.728044 1_455
K0 O7 2.819050 1_565
K0 O15 2.969211 1_556
K0 O9 3.022372 1_556
K0 O3 3.108950 1_555
K1 O11 2.690089 1_555
K1 O3 2.720141 1_555
K1 O1 2.740030 1_555
K1 O6 2.755895 1_555
K1 O7 2.760992 1_555
K1 O2 2.801851 1_555
K2 O5 2.615996 1_455
K2 O4 2.728044 1_555
K2 O13 2.819050 1_565
K2 O11 2.969211 1_555
K2 O3 3.022372 1_555
K2 O9 3.108950 1_555
K3 O0 2.690089 1_455
K3 O6 2.720141 1_455
K3 O10 2.740030 1_555
K3 O3 2.755895 1_555
K3 O2 2.760992 1_455
K3 O7 2.801851 1_555
K4 O15 2.690089 1_655
K4 O9 2.720141 1_655
K4 O5 2.740030 1_555
K4 O12 2.755895 1_555
K4 O13 2.760992 1_655
K4 O8 2.801851 1_555
K5 O10 2.615996 1_655
K5 O11 2.728044 1_555
K5 O2 2.819050 1_545
K5 O4 2.969211 1_555
K5 O12 3.022372 1_555
K5 O6 3.108950 1_555
K6 O4 2.690089 1_555
K6 O12 2.720141 1_555
K6 O14 2.740030 1_555
K6 O9 2.755895 1_555
K6 O8 2.760992 1_555
K6 O13 2.801851 1_555
K7 O14 2.615996 1_555
K7 O15 2.728044 1_655
K7 O8 2.819050 1_545
K7 O0 2.969211 1_554
K7 O6 3.022372 1_554
K7 O12 3.108950 1_555
O0 Te0 1.822146 1_555
O1 Te0 1.815747 1_555
O2 Te1 1.828616 1_555
O3 Te2 1.827831 1_565
O4 Te1 1.822146 1_555
O5 Te1 1.815747 1_555
O6 Te0 1.827831 1_545
O7 Te3 1.828616 1_556
O8 Te0 1.828616 1_554
O9 Te3 1.827831 1_565
O10 Te2 1.815747 1_555
O11 Te2 1.822146 1_555
O12 Te1 1.827831 1_545
O13 Te2 1.828616 1_555
O14 Te3 1.815747 1_555
O15 Te3 1.822146 1_555
