# generated using pymatgen
data_Li7V3P8O29
_symmetry_space_group_name_H-M   'P 1'
_cell_length_a   9.89927620
_cell_length_b   9.86232888
_cell_length_c   13.94855917
_cell_angle_alpha   89.67018128
_cell_angle_beta   89.87410282
_cell_angle_gamma   59.56552432
_symmetry_Int_Tables_number   1
_chemical_formula_structural   Li7V3P8O29
_chemical_formula_sum   'Li14 V6 P16 O58'
_cell_volume   1174.13352769
_cell_formula_units_Z   2
loop_
 _symmetry_equiv_pos_site_id
 _symmetry_equiv_pos_as_xyz
  1  'x, y, z'
loop_
 _atom_site_type_symbol
 _atom_site_label
 _atom_site_symmetry_multiplicity
 _atom_site_fract_x
 _atom_site_fract_y
 _atom_site_fract_z
 _atom_site_occupancy
  Li  Li0  1  0.90600478  0.75926090  0.06313493  1
  Li  Li1  1  0.76496303  0.89908428  0.56158564  1
  Li  Li2  1  0.90326874  0.32927926  0.56078399  1
  Li  Li3  1  0.67219113  0.66912722  0.88554244  1
  Li  Li4  1  0.76763487  0.32149369  0.06183830  1
  Li  Li5  1  0.32087674  0.90729857  0.05988515  1
  Li  Li6  1  0.67861724  0.22897176  0.43576390  1
  Li  Li7  1  0.33968369  0.76113291  0.55942929  1
  Li  Li8  1  0.32094783  0.34536547  0.61250357  1
  Li  Li9  1  0.34200873  0.34581519  0.11149162  1
  Li  Li10  1  0.23525566  0.08723859  0.43717947  1
  Li  Li11  1  0.09130792  0.23121409  0.93558586  1
  Li  Li12  1  0.98551962  0.96033109  0.99649520  1
  Li  Li13  1  0.01919637  0.93318649  0.49178451  1
  V  V0  1  0.56448838  0.43789412  0.25095925  1
  V  V1  1  0.43355822  0.56516651  0.75466146  1
  V  V2  1  0.56507891  0.00266461  0.75161798  1
  V  V3  1  0.44137663  0.99706950  0.24751969  1
  V  V4  1  0.00371245  0.56317067  0.25360759  1
  V  V5  1  0.99808863  0.43924449  0.74773198  1
  P  P0  1  0.90772784  0.77529196  0.84648693  1
  P  P1  1  0.77344682  0.91127566  0.34374951  1
  P  P2  1  0.91557365  0.31316612  0.34151226  1
  P  P3  1  0.67287247  0.66613063  0.12670854  1
  P  P4  1  0.65836439  0.67051380  0.62747739  1
  P  P5  1  0.77481244  0.31415227  0.84463958  1
  P  P6  1  0.68356538  0.22761053  0.65764774  1
  P  P7  1  0.31852407  0.90965904  0.84185270  1
  P  P8  1  0.69165919  0.08701191  0.15860794  1
  P  P9  1  0.31151984  0.77661163  0.34477294  1
  P  P10  1  0.21705244  0.69501942  0.16005621  1
  P  P11  1  0.33409874  0.32684721  0.37211241  1
  P  P12  1  0.33485703  0.33078751  0.87264653  1
  P  P13  1  0.08888615  0.69273722  0.66114273  1
  P  P14  1  0.22943879  0.09011721  0.65551806  1
  P  P15  1  0.09174111  0.22739405  0.15625969  1
  O  O0  1  0.98888741  0.80060418  0.58135752  1
  O  O1  1  0.91395853  0.74583482  0.33834573  1
  O  O2  1  0.79270199  0.98615702  0.07820214  1
  O  O3  1  0.74529116  0.92116985  0.83383215  1
  O  O4  1  0.89125772  0.62847177  0.83465786  1
  O  O5  1  0.82071589  0.66592221  0.16793449  1
  O  O6  1  0.90408669  0.47320857  0.32705068  1
  O  O7  1  0.99940204  0.23462631  0.06789260  1
  O  O8  1  0.92103321  0.33054165  0.83872519  1
  O  O9  1  0.66069251  0.81827175  0.67075893  1
  O  O10  1  0.61907655  0.91077902  0.33024840  1
  O  O11  1  0.80890739  0.51918719  0.66150557  1
  O  O12  1  0.67113699  0.68216262  0.01906036  1
  O  O13  1  0.63778270  0.68660838  0.52126891  1
  O  O14  1  0.67233435  0.51758960  0.15990434  1
  O  O15  1  0.48278324  0.89269559  0.83021844  1
  O  O16  1  0.52134686  0.81647414  0.16798043  1
  O  O17  1  0.75387867  0.32803928  0.34130840  1
  O  O18  1  0.78395702  0.21161983  0.75180397  1
  O  O19  1  0.77079303  0.23169685  0.56921920  1
  O  O20  1  0.77548955  0.22998700  0.93477646  1
  O  O21  1  0.62681579  0.48083842  0.83210333  1
  O  O22  1  0.51358924  0.66715141  0.67450424  1
  O  O23  1  0.66243134  0.25562061  0.15548455  1
  O  O24  1  0.46586948  0.62234789  0.33412625  1
  O  O25  1  0.33291267  0.92103682  0.33335894  1
  O  O26  1  0.78594506  0.01321758  0.25761519  1
  O  O27  1  0.77557246  0.99372008  0.43539151  1
  O  O28  1  0.24027901  0.99371434  0.56883814  1
  O  O29  1  0.66574527  0.08097923  0.65614635  1
  O  O30  1  0.51933961  0.37654710  0.66793631  1
  O  O31  1  0.33753049  0.74638750  0.84130468  1
  O  O32  1  0.48520129  0.32341877  0.34037444  1
  O  O33  1  0.36722350  0.53186772  0.16626760  1
  O  O34  1  0.20593671  0.80156452  0.07876779  1
  O  O35  1  0.22494568  0.79327903  0.43732254  1
  O  O36  1  0.19791114  0.78861429  0.25870754  1
  O  O37  1  0.25511755  0.67000593  0.65879767  1
  O  O38  1  0.47791518  0.18177180  0.82575027  1
  O  O39  1  0.52761590  0.10159471  0.16829925  1
  O  O40  1  0.34231752  0.47350148  0.82646144  1
  O  O41  1  0.34669484  0.32719383  0.97934845  1
  O  O42  1  0.31949170  0.32168932  0.47915999  1
  O  O43  1  0.18783965  0.47481386  0.32552726  1
  O  O44  1  0.37418336  0.10927293  0.66814635  1
  O  O45  1  0.33128406  0.18074483  0.32763264  1
  O  O46  1  0.07580931  0.66869216  0.15931611  1
  O  O47  1  0.01486684  0.77929949  0.76085297  1
  O  O48  1  0.98399001  0.78069996  0.93829437  1
  O  O49  1  0.10373097  0.52916634  0.66430565  1
  O  O50  1  0.18517653  0.33394000  0.83770464  1
  O  O51  1  0.10627886  0.37536011  0.16841795  1
  O  O52  1  0.25813269  0.08175200  0.15383870  1
  O  O53  1  0.23279057  0.00197722  0.93027356  1
  O  O54  1  0.21396770  0.00296725  0.74972506  1
  O  O55  1  0.08118121  0.25314238  0.65339281  1
  O  O56  1  0.00680532  0.22823337  0.43100368  1
  O  O57  1  0.00721705  0.20568051  0.24900702  1
loop_
_geom_bond_atom_site_label_1
_geom_bond_atom_site_label_2
_geom_bond_distance
_geom_bond_site_symmetry_2
Li0 O2 1.941963 1_555
Li0 O48 1.956577 1_554
Li0 O46 1.974400 1_655
Li0 O5 2.112717 1_555
Li1 O0 1.936886 1_555
Li1 O27 2.014972 1_555
Li1 O29 2.039368 1_565
Li1 O9 2.198219 1_555
Li2 O19 1.984060 1_555
Li2 O55 1.998337 1_655
Li2 O56 2.073266 1_655
Li2 O11 2.146234 1_555
Li3 O12 1.867195 1_556
Li3 O4 2.117301 1_555
Li3 O15 2.184292 1_555
Li3 O21 2.251258 1_555
Li4 O23 1.970430 1_555
Li4 O20 1.976959 1_554
Li4 O7 2.003423 1_555
Li4 O14 2.162795 1_555
Li5 O34 1.910232 1_555
Li5 O52 2.000788 1_565
Li5 O53 2.015774 1_564
Li5 O16 2.282697 1_555
Li6 O17 1.990945 1_555
Li6 O27 2.012044 1_545
Li6 O19 2.081209 1_555
Li6 O32 2.119922 1_555
Li7 O35 1.982173 1_555
Li7 O28 1.990775 1_555
Li7 O37 2.042650 1_555
Li7 O22 2.185792 1_555
Li8 O42 1.876879 1_555
Li8 O49 2.119215 1_555
Li8 O44 2.244885 1_555
Li8 O30 2.273927 1_555
Li9 O41 1.851535 1_554
Li9 O33 2.119896 1_555
Li9 O39 2.303487 1_555
Li9 O51 2.338063 1_555
Li10 O56 1.966962 1_555
Li10 O25 2.033291 1_545
Li10 O28 2.039659 1_545
Li10 O45 2.225863 1_555
Li11 O53 1.967715 1_555
Li11 O8 1.986996 1_455
Li11 O7 2.048662 1_456
Li11 O50 2.164759 1_555
Li12 O48 1.959991 1_555
Li12 O2 2.123291 1_556
Li12 O34 2.249154 1_656
Li12 O20 2.552697 1_565
Li13 O0 1.933340 1_455
Li13 O35 1.946145 1_555
Li13 O27 2.309918 1_455
O0 P13 1.508139 1_655
O1 P1 1.518011 1_555
O1 V4 1.957083 1_655
O2 P8 1.499227 1_565
O3 P0 1.530118 1_555
O3 V2 1.920774 1_565
O4 P0 1.546779 1_555
O4 V5 2.022933 1_555
O5 P3 1.572664 1_555
O5 V4 1.967840 1_655
O6 P2 1.536079 1_555
O6 V4 1.918553 1_655
O7 P15 1.515856 1_655
O8 P5 1.537688 1_555
O8 V5 2.037317 1_555
O9 P4 1.591464 1_555
O9 V2 1.936533 1_565
O10 P1 1.542596 1_555
O10 V3 1.905578 1_555
O11 P4 1.554098 1_555
O11 V5 2.019531 1_555
O12 P3 1.508157 1_555
O13 P4 1.492405 1_555
O14 P3 1.536432 1_555
O14 V0 2.050197 1_555
O15 P7 1.556247 1_555
O15 V2 1.979762 1_565
O16 P3 1.591443 1_555
O16 V3 1.902709 1_555
O17 P2 1.531598 1_555
O17 V0 2.052754 1_555
O18 P6 1.606848 1_555
O18 P5 1.621538 1_555
O19 P6 1.516128 1_555
O20 P5 1.500730 1_555
O21 P5 1.561170 1_555
O21 V1 1.976187 1_555
O22 P4 1.590320 1_555
O22 V1 1.918297 1_555
O23 P8 1.537060 1_555
O23 V0 2.049684 1_555
O24 P9 1.522451 1_555
O24 V0 1.956577 1_555
O25 P9 1.549793 1_555
O25 V3 1.987073 1_555
O26 P1 1.606564 1_545
O26 P8 1.616763 1_555
O27 P1 1.524784 1_555
O28 P14 1.512144 1_565
O29 P6 1.543260 1_555
O29 V2 2.031035 1_555
O30 P6 1.550244 1_555
O30 V1 2.016414 1_555
O31 P7 1.523654 1_555
O31 V1 1.963954 1_555
O32 P11 1.542914 1_555
O32 V0 2.079289 1_555
O33 P10 1.543411 1_555
O33 V0 2.057138 1_555
O34 P10 1.507174 1_555
O35 P9 1.510918 1_555
O36 P9 1.609171 1_555
O36 P10 1.617939 1_555
O37 P13 1.544453 1_555
O37 V1 2.030140 1_555
O38 P12 1.578524 1_555
O38 V2 1.845792 1_555
O39 P8 1.561630 1_555
O39 V3 1.971514 1_545
O40 P12 1.579925 1_555
O40 V1 1.857128 1_555
O41 P12 1.492009 1_555
O42 P11 1.502881 1_555
O43 P11 1.581375 1_555
O43 V4 1.864635 1_555
O44 P14 1.547760 1_555
O44 V2 2.003698 1_555
O45 P11 1.585236 1_555
O45 V3 1.932809 1_545
O46 P10 1.546090 1_555
O46 V4 2.013662 1_555
O47 P13 1.604847 1_555
O47 P0 1.609207 1_455
O48 P0 1.502829 1_555
O49 P13 1.544332 1_555
O49 V5 2.038788 1_455
O50 P12 1.546079 1_555
O50 V5 2.032286 1_455
O51 P15 1.547488 1_555
O51 V4 1.997113 1_555
O52 P15 1.542986 1_555
O52 V3 2.039255 1_545
O53 P7 1.515213 1_545
O54 P7 1.611443 1_545
O54 P14 1.615055 1_555
O55 P14 1.532622 1_555
O55 V5 2.066499 1_455
O56 P2 1.517227 1_455
O57 P15 1.610339 1_555
O57 P2 1.627257 1_455
