# generated using pymatgen
data_VSnO4
_symmetry_space_group_name_H-M   'P 1'
_cell_length_a   6.48770426
_cell_length_b   6.53136433
_cell_length_c   7.73910343
_cell_angle_alpha   114.95902688
_cell_angle_beta   114.78020486
_cell_angle_gamma   90.00153158
_symmetry_Int_Tables_number   1
_chemical_formula_structural   VSnO4
_chemical_formula_sum   'V4 Sn4 O16'
_cell_volume   263.62555002
_cell_formula_units_Z   4
loop_
 _symmetry_equiv_pos_site_id
 _symmetry_equiv_pos_as_xyz
  1  'x, y, z'
loop_
 _atom_site_type_symbol
 _atom_site_label
 _atom_site_symmetry_multiplicity
 _atom_site_fract_x
 _atom_site_fract_y
 _atom_site_fract_z
 _atom_site_occupancy
  V  V0  1  0.12474728  0.62352738  0.24950534  1
  V  V1  1  0.87474261  0.37352204  0.74949954  1
  V  V2  1  0.62473855  0.12352248  0.24949318  1
  V  V3  1  0.37474409  0.87351890  0.74949868  1
  Sn  Sn0  1  0.24975842  0.24853774  0.49954147  1
  Sn  Sn1  1  0.74975861  0.74853976  0.49954203  1
  Sn  Sn2  1  0.49977397  0.49853994  0.99954472  1
  Sn  Sn3  1  0.99977672  0.99854072  0.99954465  1
  O  O0  1  0.83276191  0.62319630  0.24954827  1
  O  O1  1  0.33275579  0.12319495  0.24954178  1
  O  O2  1  0.08275077  0.87318691  0.74953346  1
  O  O3  1  0.58276048  0.37319022  0.74953761  1
  O  O4  1  0.41678185  0.62321622  0.24953330  1
  O  O5  1  0.91677541  0.12321298  0.24952773  1
  O  O6  1  0.66678876  0.87321961  0.74954190  1
  O  O7  1  0.16677622  0.37321693  0.74953722  1
  O  O8  1  0.99978145  0.31242063  0.99952791  1
  O  O9  1  0.49976385  0.81240079  0.99950202  1
  O  O10  1  0.24978389  0.56241115  0.49952291  1
  O  O11  1  0.74976417  0.06240478  0.49949940  1
  O  O12  1  0.24975041  0.93454191  0.49950285  1
  O  O13  1  0.74973188  0.43452777  0.49948200  1
  O  O14  1  0.49973465  0.18453427  0.99948663  1
  O  O15  1  0.99975224  0.68454261  0.99951137  1
loop_
_geom_bond_atom_site_label_1
_geom_bond_atom_site_label_2
_geom_bond_distance
_geom_bond_site_symmetry_2
O0 V0 1.894455 1_655
O0 Sn2 2.059125 1_554
O0 Sn1 2.059136 1_555
O1 V2 1.894457 1_555
O1 Sn3 2.059071 1_444
O1 Sn0 2.059151 1_555
O2 V3 1.894480 1_555
O2 Sn1 2.059112 1_455
O2 Sn3 2.059130 1_455
O3 V1 1.894419 1_555
O3 Sn2 2.059155 1_555
O3 Sn0 2.059166 1_555
O4 V0 1.894544 1_555
O4 Sn2 2.059052 1_554
O4 Sn1 2.059091 1_555
O5 V2 1.894538 1_555
O5 Sn3 2.059054 1_544
O5 Sn0 2.059130 1_655
O6 V3 1.894560 1_555
O6 Sn1 2.059035 1_555
O6 Sn3 2.059123 1_555
O7 V1 1.894507 1_455
O7 Sn0 2.059059 1_555
O7 Sn2 2.059177 1_555
O8 V0 1.973924 1_656
O8 V1 1.974187 1_555
O8 Sn3 2.050119 1_545
O9 V2 1.974024 1_566
O9 V3 1.974081 1_555
O9 Sn2 2.050079 1_555
O10 V3 1.973923 1_555
O10 V0 1.974172 1_555
O10 Sn0 2.050082 1_555
O11 V1 1.974032 1_555
O11 V2 1.974099 1_555
O11 Sn1 2.050106 1_545
O12 V0 1.973611 1_555
O12 V3 1.973646 1_555
O12 Sn0 2.050695 1_565
O13 V2 1.973549 1_555
O13 V1 1.973727 1_555
O13 Sn1 2.050731 1_555
O14 V3 1.973587 1_545
O14 V2 1.973675 1_556
O14 Sn2 2.050696 1_555
O15 V0 1.973602 1_656
O15 V1 1.973677 1_555
O15 Sn3 2.050727 1_555
