# generated using pymatgen
data_Li3Mn(PO4)2
_symmetry_space_group_name_H-M   'P 1'
_cell_length_a   4.72730909
_cell_length_b   5.07456537
_cell_length_c   27.45190158
_cell_angle_alpha   92.02254528
_cell_angle_beta   85.07398486
_cell_angle_gamma   117.74484062
_symmetry_Int_Tables_number   1
_chemical_formula_structural   Li3Mn(PO4)2
_chemical_formula_sum   'Li12 Mn4 P8 O32'
_cell_volume   580.67063289
_cell_formula_units_Z   4
loop_
 _symmetry_equiv_pos_site_id
 _symmetry_equiv_pos_as_xyz
  1  'x, y, z'
loop_
 _atom_site_type_symbol
 _atom_site_label
 _atom_site_symmetry_multiplicity
 _atom_site_fract_x
 _atom_site_fract_y
 _atom_site_fract_z
 _atom_site_occupancy
  Li  Li0  1  0.98455100  0.37301400  0.37498600  1
  Li  Li1  1  0.98455600  0.87302500  0.87499100  1
  Li  Li2  1  0.01654300  0.12328000  0.12509200  1
  Li  Li3  1  0.01651900  0.62326700  0.62509200  1
  Li  Li4  1  0.32490100  0.99538000  0.33184700  1
  Li  Li5  1  0.32490600  0.49538900  0.83184500  1
  Li  Li6  1  0.34152500  0.74635400  0.08204400  1
  Li  Li7  1  0.34149600  0.24632600  0.58204600  1
  Li  Li8  1  0.65970200  0.75054000  0.41791400  1
  Li  Li9  1  0.65971500  0.25056500  0.91791800  1
  Li  Li10  1  0.67562400  0.50007400  0.16840400  1
  Li  Li11  1  0.67563100  0.00010300  0.66840900  1
  Mn  Mn0  1  0.99961000  0.74737200  0.74998800  1
  Mn  Mn1  1  0.00064600  0.49906800  0.50011300  1
  Mn  Mn2  1  0.99961700  0.24722100  0.24997300  1
  Mn  Mn3  1  0.00050100  0.99910900  0.00012900  1
  P  P0  1  0.34844800  0.12631200  0.44163800  1
  P  P1  1  0.34849600  0.62635200  0.94165100  1
  P  P2  1  0.33826700  0.87516000  0.19169900  1
  P  P3  1  0.33831700  0.37511700  0.69169300  1
  P  P4  1  0.66165000  0.61956800  0.30823400  1
  P  P5  1  0.66168700  0.11953000  0.80823100  1
  P  P6  1  0.65244600  0.37111000  0.05857600  1
  P  P7  1  0.65239600  0.87106800  0.55856600  1
  O  O0  1  0.22546200  0.35013500  0.42965900  1
  O  O1  1  0.22550800  0.85016000  0.92966300  1
  O  O2  1  0.69722900  0.09832100  0.17978200  1
  O  O3  1  0.69725700  0.59838200  0.67978200  1
  O  O4  1  0.30295200  0.39606500  0.32028200  1
  O  O5  1  0.30296600  0.89612000  0.82028400  1
  O  O6  1  0.77616300  0.14771300  0.07047100  1
  O  O7  1  0.77610500  0.64768300  0.57047000  1
  O  O8  1  0.57034900  0.26223100  0.48375800  1
  O  O9  1  0.57043700  0.76231400  0.98376400  1
  O  O10  1  0.21016400  0.01096000  0.23385700  1
  O  O11  1  0.21024900  0.51091600  0.73385900  1
  O  O12  1  0.78919600  0.48364200  0.26601400  1
  O  O13  1  0.78927500  0.98360200  0.76601800  1
  O  O14  1  0.42989700  0.23529300  0.01652100  1
  O  O15  1  0.42982100  0.73521900  0.51651600  1
  O  O16  1  0.53035800  0.06109000  0.39717700  1
  O  O17  1  0.53034900  0.56111100  0.89717900  1
  O  O18  1  0.13599300  0.81066500  0.14723200  1
  O  O19  1  0.13598600  0.31069100  0.64723100  1
  O  O20  1  0.86467700  0.68462700  0.35263700  1
  O  O21  1  0.86467500  0.18467200  0.85263800  1
  O  O22  1  0.47102200  0.43618600  0.10309800  1
  O  O23  1  0.47101500  0.93616300  0.60309800  1
  O  O24  1  0.67455700  0.91985100  0.29202600  1
  O  O25  1  0.67457000  0.41982500  0.79203600  1
  O  O26  1  0.95553200  0.67128400  0.04228800  1
  O  O27  1  0.95544300  0.17122700  0.54227500  1
  O  O28  1  0.04512100  0.82618000  0.45792800  1
  O  O29  1  0.04520900  0.32624000  0.95794400  1
  O  O30  1  0.32466900  0.57457000  0.20791900  1
  O  O31  1  0.32467200  0.07452100  0.70792900  1
loop_
_geom_bond_atom_site_label_1
_geom_bond_atom_site_label_2
_geom_bond_distance
_geom_bond_site_symmetry_2
Li0 O0 1.998018 1_655
Li0 O4 1.998678 1_655
Li0 O20 2.039746 1_555
Li0 O16 2.041024 1_555
Li1 O1 1.998100 1_655
Li1 O5 1.998704 1_655
Li1 O21 2.039964 1_565
Li1 O17 2.041034 1_555
Li2 O6 1.997985 1_455
Li2 O2 1.998715 1_455
Li2 O18 2.041060 1_545
Li2 O22 2.042138 1_555
Li3 O7 1.998083 1_455
Li3 O3 1.998651 1_455
Li3 O19 2.040923 1_555
Li3 O23 2.042177 1_555
Li4 O20 2.049814 1_455
Li4 O16 2.055804 1_565
Li4 O24 2.079437 1_555
Li4 O4 2.119796 1_565
Li5 O21 2.049802 1_455
Li5 O17 2.055867 1_555
Li5 O25 2.079415 1_555
Li5 O5 2.119984 1_555
Li6 O22 2.051409 1_555
Li6 O18 2.051431 1_555
Li6 O26 2.081164 1_455
Li6 O6 2.123222 1_565
Li7 O19 2.051409 1_555
Li7 O23 2.051439 1_545
Li7 O27 2.081610 1_455
Li7 O7 2.123155 1_555
Li8 O16 2.049802 1_565
Li8 O20 2.055051 1_555
Li8 O28 2.082407 1_655
Li8 O0 2.120259 1_555
Li9 O17 2.049872 1_555
Li9 O21 2.055050 1_555
Li9 O29 2.082857 1_655
Li9 O1 2.120179 1_545
Li10 O18 2.052319 1_655
Li10 O22 2.054133 1_555
Li10 O30 2.077997 1_555
Li10 O2 2.123364 1_555
Li11 O19 2.052306 1_655
Li11 O23 2.054265 1_545
Li11 O31 2.077863 1_555
Li11 O3 2.123229 1_545
Mn0 O13 1.901779 1_555
Mn0 O11 1.904364 1_655
Mn0 O31 1.976327 1_665
Mn0 O25 1.977135 1_555
Mn0 O3 2.386019 1_555
Mn0 O5 2.390576 1_655
Mn1 O15 1.900039 1_555
Mn1 O8 1.904287 1_455
Mn1 O28 1.977289 1_555
Mn1 O27 1.978756 1_455
Mn1 O7 2.390888 1_455
Mn1 O0 2.394383 1_555
Mn2 O12 1.902992 1_555
Mn2 O10 1.903103 1_655
Mn2 O30 1.976742 1_655
Mn2 O24 1.976793 1_545
Mn2 O2 2.385752 1_555
Mn2 O4 2.390831 1_655
Mn3 O14 1.900798 1_565
Mn3 O9 1.903469 1_454
Mn3 O29 1.976999 1_564
Mn3 O26 1.979010 1_455
Mn3 O6 2.390048 1_465
Mn3 O1 2.395143 1_554
O0 P0 1.552494 1_555
O1 P1 1.552498 1_555
O2 P2 1.552613 1_545
O3 P3 1.552633 1_555
O4 P4 1.552610 1_555
O5 P5 1.552602 1_565
O6 P6 1.552436 1_555
O7 P7 1.552419 1_555
O8 P0 1.546431 1_555
O9 P1 1.546403 1_555
O10 P2 1.546902 1_545
O11 P3 1.546964 1_555
O12 P4 1.547071 1_555
O13 P5 1.547049 1_565
O14 P6 1.546610 1_555
O15 P7 1.546585 1_555
O16 P0 1.547577 1_555
O17 P1 1.547683 1_555
O18 P2 1.546756 1_555
O19 P3 1.546836 1_555
O20 P4 1.547087 1_555
O21 P5 1.547027 1_555
O22 P6 1.547129 1_555
O23 P7 1.547254 1_555
O24 P4 1.574899 1_555
O25 P5 1.574895 1_555
O26 P6 1.574514 1_555
O27 P7 1.574412 1_545
O28 P0 1.574906 1_565
O29 P1 1.574787 1_555
O30 P2 1.575076 1_555
O31 P3 1.575146 1_555
