# generated using pymatgen
data_K2TbPCO7
_symmetry_space_group_name_H-M   'P 1'
_cell_length_a   7.17082900
_cell_length_b   5.85054300
_cell_length_c   10.02795392
_cell_angle_alpha   88.02667312
_cell_angle_beta   90.00000000
_cell_angle_gamma   90.00000000
_symmetry_Int_Tables_number   1
_chemical_formula_structural   K2TbPCO7
_chemical_formula_sum   'K4 Tb2 P2 C2 O14'
_cell_volume   420.45569913
_cell_formula_units_Z   2
loop_
 _symmetry_equiv_pos_site_id
 _symmetry_equiv_pos_as_xyz
  1  'x, y, z'
loop_
 _atom_site_type_symbol
 _atom_site_label
 _atom_site_symmetry_multiplicity
 _atom_site_fract_x
 _atom_site_fract_y
 _atom_site_fract_z
 _atom_site_occupancy
  K  K0  1  0.48917500  0.24721900  0.78064400  1
  K  K1  1  0.01082500  0.24721900  0.78064400  1
  K  K2  1  0.51082500  0.75278100  0.21935600  1
  K  K3  1  0.98917500  0.75278100  0.21935600  1
  Tb  Tb0  1  0.75000000  0.78191500  0.63040200  1
  Tb  Tb1  1  0.25000000  0.21808500  0.36959800  1
  P  P0  1  0.25000000  0.71040300  0.56912900  1
  P  P1  1  0.75000000  0.28959700  0.43087100  1
  C  C0  1  0.75000000  0.72866500  0.90567100  1
  C  C1  1  0.25000000  0.27133500  0.09432900  1
  O  O0  1  0.25000000  0.30202400  0.96927800  1
  O  O1  1  0.75000000  0.93282000  0.84586900  1
  O  O2  1  0.75000000  0.55575300  0.82298700  1
  O  O3  1  0.07100200  0.77216500  0.64684100  1
  O  O4  1  0.42899800  0.77216500  0.64684100  1
  O  O5  1  0.75000000  0.15629700  0.56950700  1
  O  O6  1  0.25000000  0.44762600  0.54425000  1
  O  O7  1  0.75000000  0.55237400  0.45575000  1
  O  O8  1  0.25000000  0.84370300  0.43049300  1
  O  O9  1  0.57100200  0.22783500  0.35315900  1
  O  O10  1  0.92899800  0.22783500  0.35315900  1
  O  O11  1  0.25000000  0.44424700  0.17701300  1
  O  O12  1  0.25000000  0.06718000  0.15413100  1
  O  O13  1  0.75000000  0.69797600  0.03072200  1
loop_
_geom_bond_atom_site_label_1
_geom_bond_atom_site_label_2
_geom_bond_distance
_geom_bond_site_symmetry_2
K0 O0 2.581529 1_555
K0 O2 2.643781 1_555
K0 O1 2.688216 1_545
K0 O5 2.888167 1_555
K0 O6 3.121590 1_555
K0 O4 3.157218 1_545
K1 O0 2.581529 1_555
K1 O2 2.643781 1_455
K1 O1 2.688216 1_445
K1 O5 2.888167 1_455
K1 O6 3.121590 1_555
K1 O3 3.157218 1_545
K2 O13 2.581529 1_555
K2 O11 2.643781 1_555
K2 O12 2.688216 1_565
K2 O8 2.888167 1_555
K2 O7 3.121590 1_555
K2 O9 3.157218 1_565
K3 O13 2.581529 1_555
K3 O11 2.643781 1_655
K3 O12 2.688216 1_665
K3 O8 2.888167 1_655
K3 O7 3.121590 1_555
K3 O10 3.157218 1_565
C0 O13 1.260659 1_556
C0 O1 1.317928 1_555
C0 O2 1.329907 1_555
C1 O0 1.260659 1_554
C1 O12 1.317928 1_555
C1 O11 1.329907 1_555
O1 Tb0 2.362084 1_555
O2 Tb0 2.303141 1_555
O3 P0 1.550740 1_555
O3 Tb0 2.308310 1_455
O4 P0 1.550740 1_555
O4 Tb0 2.308310 1_555
O5 P1 1.570444 1_555
O5 Tb0 2.253522 1_545
O6 P0 1.565957 1_555
O6 Tb1 2.243407 1_555
O7 P1 1.565957 1_555
O7 Tb0 2.243407 1_555
O8 P0 1.570444 1_555
O8 Tb1 2.253522 1_565
O9 P1 1.550740 1_555
O9 Tb1 2.308310 1_555
O10 P1 1.550740 1_555
O10 Tb1 2.308310 1_655
O11 Tb1 2.303141 1_555
O12 Tb1 2.362084 1_555
