# generated using pymatgen
data_Ba2YF7
_symmetry_space_group_name_H-M   'P 1'
_cell_length_a   13.08793595
_cell_length_b   5.78762691
_cell_length_c   8.81849795
_cell_angle_alpha   89.38601775
_cell_angle_beta   90.00000000
_cell_angle_gamma   90.00000000
_symmetry_Int_Tables_number   1
_chemical_formula_structural   Ba2YF7
_chemical_formula_sum   'Ba8 Y4 F28'
_cell_volume   667.94602629
_cell_formula_units_Z   4
loop_
 _symmetry_equiv_pos_site_id
 _symmetry_equiv_pos_as_xyz
  1  'x, y, z'
loop_
 _atom_site_type_symbol
 _atom_site_label
 _atom_site_symmetry_multiplicity
 _atom_site_fract_x
 _atom_site_fract_y
 _atom_site_fract_z
 _atom_site_occupancy
  Ba  Ba0  1  0.22146066  0.73971489  0.05769919  1
  Ba  Ba1  1  0.56350300  0.73989702  0.17393626  1
  Ba  Ba2  1  0.06350300  0.26010298  0.32606374  1
  Ba  Ba3  1  0.72146066  0.26028511  0.44230081  1
  Ba  Ba4  1  0.27853934  0.73971489  0.55769919  1
  Ba  Ba5  1  0.93649700  0.73989702  0.67393626  1
  Ba  Ba6  1  0.43649700  0.26010298  0.82606374  1
  Ba  Ba7  1  0.77853934  0.26028511  0.94230081  1
  Y  Y0  1  0.87627010  0.77717410  0.20983703  1
  Y  Y1  1  0.37627010  0.22282590  0.29016297  1
  Y  Y2  1  0.62372990  0.77717410  0.70983703  1
  Y  Y3  1  0.12372990  0.22282590  0.79016297  1
  F  F0  1  0.14148381  0.28807133  0.03489852  1
  F  F1  1  0.39516362  0.00997040  0.08078488  1
  F  F2  1  0.39619586  0.48187625  0.09689877  1
  F  F3  1  0.92650310  0.12290355  0.12722700  1
  F  F4  1  0.74814966  0.51773354  0.19080688  1
  F  F5  1  0.73404359  0.99049875  0.19724631  1
  F  F6  1  0.04152627  0.70740321  0.21415331  1
  F  F7  1  0.54152627  0.29259679  0.28584669  1
  F  F8  1  0.23404359  0.00950125  0.30275369  1
  F  F9  1  0.24814966  0.48226646  0.30919312  1
  F  F10  1  0.42650310  0.87709645  0.37277300  1
  F  F11  1  0.89619586  0.51812375  0.40310123  1
  F  F12  1  0.89516362  0.99002960  0.41921512  1
  F  F13  1  0.64148381  0.71192867  0.46510148  1
  F  F14  1  0.35851619  0.28807133  0.53489852  1
  F  F15  1  0.10483638  0.00997040  0.58078488  1
  F  F16  1  0.10380414  0.48187625  0.59689877  1
  F  F17  1  0.57349690  0.12290355  0.62722700  1
  F  F18  1  0.75185034  0.51773354  0.69080688  1
  F  F19  1  0.76595641  0.99049875  0.69724631  1
  F  F20  1  0.45847373  0.70740321  0.71415331  1
  F  F21  1  0.95847373  0.29259679  0.78584669  1
  F  F22  1  0.26595641  0.00950125  0.80275369  1
  F  F23  1  0.25185034  0.48226646  0.80919312  1
  F  F24  1  0.07349690  0.87709645  0.87277300  1
  F  F25  1  0.60380414  0.51812375  0.90310123  1
  F  F26  1  0.60483638  0.99002960  0.91921512  1
  F  F27  1  0.85851619  0.71192867  0.96510148  1
loop_
_geom_bond_atom_site_label_1
_geom_bond_atom_site_label_2
_geom_bond_distance
_geom_bond_site_symmetry_2
Ba0 F24 2.648399 1_554
Ba0 F9 2.681412 1_555
Ba0 F8 2.684670 1_565
Ba0 F23 2.692727 1_554
Ba0 F6 2.734752 1_555
Ba0 F2 2.750516 1_555
Ba0 F1 2.768249 1_565
Ba0 F22 2.785052 1_564
Ba0 F0 2.824897 1_555
Ba1 F10 2.636274 1_555
Ba1 F5 2.670993 1_555
Ba1 F26 2.713741 1_554
Ba1 F2 2.740092 1_555
Ba1 F4 2.740708 1_555
Ba1 F13 2.766172 1_555
Ba1 F25 2.774102 1_554
Ba1 F7 2.775578 1_555
Ba1 F1 2.818627 1_565
Ba2 F3 2.636274 1_455
Ba2 F8 2.670993 1_555
Ba2 F15 2.713741 1_555
Ba2 F11 2.740092 1_455
Ba2 F9 2.740708 1_555
Ba2 F0 2.766172 1_555
Ba2 F16 2.774102 1_555
Ba2 F6 2.775578 1_555
Ba2 F12 2.818627 1_445
Ba3 F17 2.648399 1_555
Ba3 F4 2.681412 1_555
Ba3 F5 2.684670 1_545
Ba3 F18 2.692727 1_555
Ba3 F7 2.734752 1_555
Ba3 F11 2.750516 1_555
Ba3 F12 2.768249 1_545
Ba3 F19 2.785052 1_545
Ba3 F13 2.824897 1_555
Ba4 F10 2.648399 1_555
Ba4 F23 2.681412 1_555
Ba4 F22 2.684670 1_565
Ba4 F9 2.692727 1_555
Ba4 F20 2.734752 1_555
Ba4 F16 2.750516 1_555
Ba4 F15 2.768249 1_565
Ba4 F8 2.785052 1_565
Ba4 F14 2.824897 1_555
Ba5 F24 2.636274 1_655
Ba5 F19 2.670993 1_555
Ba5 F12 2.713741 1_555
Ba5 F16 2.740092 1_655
Ba5 F18 2.740708 1_555
Ba5 F27 2.766172 1_555
Ba5 F11 2.774102 1_555
Ba5 F21 2.775578 1_555
Ba5 F15 2.818627 1_665
Ba6 F17 2.636274 1_555
Ba6 F22 2.670993 1_555
Ba6 F1 2.713741 1_556
Ba6 F25 2.740092 1_555
Ba6 F23 2.740708 1_555
Ba6 F14 2.766172 1_555
Ba6 F2 2.774102 1_556
Ba6 F20 2.775578 1_555
Ba6 F26 2.818627 1_545
Ba7 F3 2.648399 1_556
Ba7 F18 2.681412 1_555
Ba7 F19 2.684670 1_545
Ba7 F4 2.692727 1_556
Ba7 F21 2.734752 1_555
Ba7 F25 2.750516 1_555
Ba7 F26 2.768249 1_545
Ba7 F5 2.785052 1_546
Ba7 F27 2.824897 1_555
F0 Y3 2.207233 1_554
F1 Y1 2.244267 1_555
F2 Y1 2.272828 1_555
F3 Y0 2.221602 1_545
F4 Y0 2.258311 1_555
F5 Y0 2.235785 1_555
F6 Y0 2.200489 1_455
F7 Y1 2.200489 1_555
F8 Y1 2.235785 1_555
F9 Y1 2.258311 1_555
F10 Y1 2.221602 1_565
F11 Y0 2.272828 1_555
F12 Y0 2.244267 1_555
F13 Y2 2.207233 1_555
F14 Y1 2.207233 1_555
F15 Y3 2.244267 1_555
F16 Y3 2.272828 1_555
F17 Y2 2.221602 1_545
F18 Y2 2.258311 1_555
F19 Y2 2.235785 1_555
F20 Y2 2.200489 1_555
F21 Y3 2.200489 1_655
F22 Y3 2.235785 1_555
F23 Y3 2.258311 1_555
F24 Y3 2.221602 1_565
F25 Y2 2.272828 1_555
F26 Y2 2.244267 1_555
F27 Y0 2.207233 1_556
