# generated using pymatgen
data_Li11(NiO4)2
_symmetry_space_group_name_H-M   'P 1'
_cell_length_a   6.55803729
_cell_length_b   6.55803729
_cell_length_c   9.37127958
_cell_angle_alpha   89.97678973
_cell_angle_beta   89.97678973
_cell_angle_gamma   91.47113490
_symmetry_Int_Tables_number   1
_chemical_formula_structural   Li11(NiO4)2
_chemical_formula_sum   'Li22 Ni4 O16'
_cell_volume   402.90570053
_cell_formula_units_Z   2
loop_
 _symmetry_equiv_pos_site_id
 _symmetry_equiv_pos_as_xyz
  1  'x, y, z'
loop_
 _atom_site_type_symbol
 _atom_site_label
 _atom_site_symmetry_multiplicity
 _atom_site_fract_x
 _atom_site_fract_y
 _atom_site_fract_z
 _atom_site_occupancy
  Li  Li0  1  0.54274100  0.04997700  0.99877100  1
  Li  Li1  1  0.54164600  0.03396600  0.50384100  1
  Li  Li2  1  0.97334000  0.02666000  0.00000000  1
  Li  Li3  1  0.26922800  0.27680600  0.96956900  1
  Li  Li4  1  0.25377500  0.24801500  0.72234900  1
  Li  Li5  1  0.23009000  0.22621600  0.47486000  1
  Li  Li6  1  0.24906600  0.25016000  0.21892100  1
  Li  Li7  1  0.52032900  0.47967100  0.50000000  1
  Li  Li8  1  0.95002300  0.45725900  0.00122900  1
  Li  Li9  1  0.96603400  0.45835400  0.49615900  1
  Li  Li10  1  0.03466200  0.53034000  0.74940300  1
  Li  Li11  1  0.47277700  0.52292700  0.76520900  1
  Li  Li12  1  0.03043500  0.53057700  0.25082200  1
  Li  Li13  1  0.47707300  0.52722300  0.23479100  1
  Li  Li14  1  0.74984000  0.75093400  0.78107900  1
  Li  Li15  1  0.72319400  0.73077200  0.03043100  1
  Li  Li16  1  0.75198500  0.74622500  0.27765100  1
  Li  Li17  1  0.77378400  0.76991000  0.52513900  1
  Li  Li18  1  0.02773400  0.97526600  0.73089100  1
  Li  Li19  1  0.02473400  0.97226600  0.26910900  1
  Li  Li20  1  0.46942300  0.96956500  0.74917800  1
  Li  Li21  1  0.46966000  0.96533800  0.25059700  1
  Ni  Ni0  1  0.75128100  0.24964200  0.74821000  1
  Ni  Ni1  1  0.75035800  0.24871900  0.25179000  1
  Ni  Ni2  1  0.25321500  0.74678500  0.00000000  1
  Ni  Ni3  1  0.24525100  0.75474900  0.50000000  1
  O  O0  1  0.25085400  0.00044900  0.10431600  1
  O  O1  1  0.26938200  0.00737800  0.60762300  1
  O  O2  1  0.48329000  0.24700500  0.35138900  1
  O  O3  1  0.01552800  0.24998500  0.85454900  1
  O  O4  1  0.01487100  0.25577200  0.34194900  1
  O  O5  1  0.48955700  0.24469900  0.84508400  1
  O  O6  1  0.24713700  0.48533100  0.60385000  1
  O  O7  1  0.23497200  0.50382400  0.10537900  1
  O  O8  1  0.75299500  0.51671000  0.64861100  1
  O  O9  1  0.75530100  0.51044300  0.15491600  1
  O  O10  1  0.99262200  0.73061800  0.39237700  1
  O  O11  1  0.99955100  0.74914600  0.89568400  1
  O  O12  1  0.49617600  0.76502800  0.89462100  1
  O  O13  1  0.51466900  0.75286300  0.39615000  1
  O  O14  1  0.74422800  0.98512900  0.65805100  1
  O  O15  1  0.75001500  0.98447200  0.14545100  1
loop_
_geom_bond_atom_site_label_1
_geom_bond_atom_site_label_2
_geom_bond_distance
_geom_bond_site_symmetry_2
Li0 O5 1.961747 1_555
Li0 O15 1.988154 1_546
Li0 O12 2.123758 1_545
Li0 O0 2.171236 1_556
Li1 O14 1.994760 1_545
Li1 O1 2.036379 1_555
Li1 O2 2.041023 1_555
Li1 O13 2.105499 1_545
Li2 O3 2.014133 1_654
Li2 O15 2.014133 1_545
Li2 O0 2.077204 1_655
Li2 O11 2.077204 1_544
Li3 O5 1.872837 1_555
Li3 O7 1.976170 1_556
Li3 O3 1.986831 1_555
Li3 O0 2.209189 1_556
Li4 O6 1.912942 1_555
Li4 O1 1.914779 1_555
Li4 O5 1.928078 1_555
Li4 O3 1.993910 1_555
Li5 O4 1.896397 1_555
Li5 O1 1.921401 1_555
Li5 O2 2.025181 1_555
Li5 O6 2.086454 1_555
Li6 O4 1.921189 1_555
Li6 O0 1.959026 1_555
Li6 O2 1.975878 1_555
Li6 O7 1.978537 1_555
Li7 O6 2.039702 1_555
Li7 O13 2.039702 1_555
Li7 O2 2.075976 1_555
Li7 O8 2.075976 1_555
Li8 O9 1.961747 1_555
Li8 O3 1.988154 1_654
Li8 O7 2.123758 1_655
Li8 O11 2.171236 1_554
Li9 O4 1.994760 1_655
Li9 O10 2.036379 1_555
Li9 O8 2.041023 1_555
Li9 O6 2.105499 1_655
Li10 O6 1.977168 1_555
Li10 O11 2.002392 1_455
Li10 O8 2.074910 1_455
Li10 O3 2.086534 1_555
Li11 O5 1.977613 1_555
Li11 O12 2.001085 1_555
Li11 O6 2.126127 1_555
Li11 O8 2.138906 1_555
Li12 O10 1.886823 1_455
Li12 O7 1.923165 1_555
Li12 O4 1.994189 1_555
Li12 O9 2.017430 1_455
Li13 O9 1.977613 1_555
Li13 O7 2.001085 1_555
Li13 O13 2.126127 1_555
Li13 O2 2.138906 1_555
Li14 O14 1.921189 1_555
Li14 O11 1.959026 1_555
Li14 O8 1.975878 1_555
Li14 O12 1.978537 1_555
Li15 O9 1.872837 1_555
Li15 O12 1.976170 1_554
Li15 O15 1.986831 1_555
Li15 O11 2.209189 1_554
Li16 O13 1.912942 1_555
Li16 O10 1.914779 1_555
Li16 O9 1.928078 1_555
Li16 O15 1.993910 1_555
Li17 O14 1.896403 1_555
Li17 O10 1.921395 1_555
Li17 O8 2.025187 1_555
Li17 O13 2.086449 1_555
Li18 O1 1.967577 1_565
Li18 O14 1.983452 1_455
Li18 O11 2.145211 1_455
Li18 O3 2.145728 1_565
Li19 O10 1.967577 1_455
Li19 O4 1.983452 1_565
Li19 O0 2.145211 1_565
Li19 O15 2.145728 1_455
Li20 O1 1.886823 1_565
Li20 O12 1.923165 1_555
Li20 O14 1.994189 1_555
Li20 O5 2.017430 1_565
Li21 O13 1.977168 1_555
Li21 O0 2.002392 1_565
Li21 O2 2.074910 1_565
Li21 O15 2.086534 1_555
Ni0 O14 1.929311 1_545
Ni0 O5 1.940898 1_555
Ni0 O8 1.984064 1_555
Ni0 O3 1.999342 1_655
Ni1 O4 1.929311 1_655
Ni1 O9 1.940898 1_555
Ni1 O2 1.984064 1_555
Ni1 O15 1.999342 1_545
Ni2 O7 1.875403 1_555
Ni2 O12 1.875403 1_554
Ni2 O0 1.930253 1_565
Ni2 O11 1.930253 1_454
Ni3 O10 1.942959 1_455
Ni3 O1 1.942959 1_565
Ni3 O13 2.017125 1_555
Ni3 O6 2.017125 1_555
