# generated using pymatgen
data_LiVSiO4
_symmetry_space_group_name_H-M   'P 1'
_cell_length_a   5.70034976
_cell_length_b   9.83385289
_cell_length_c   5.70050856
_cell_angle_alpha   72.39125333
_cell_angle_beta   117.81561483
_cell_angle_gamma   89.61545706
_symmetry_Int_Tables_number   1
_chemical_formula_structural   LiVSiO4
_chemical_formula_sum   'Li4 V4 Si4 O16'
_cell_volume   265.20785306
_cell_formula_units_Z   4
loop_
 _symmetry_equiv_pos_site_id
 _symmetry_equiv_pos_as_xyz
  1  'x, y, z'
loop_
 _atom_site_type_symbol
 _atom_site_label
 _atom_site_symmetry_multiplicity
 _atom_site_fract_x
 _atom_site_fract_y
 _atom_site_fract_z
 _atom_site_occupancy
  Li  Li0  1  0.99995800  0.99999700  0.99996100  1
  Li  Li1  1  0.50005000  0.49999900  0.00005300  1
  Li  Li2  1  0.74999800  0.24999900  0.00000800  1
  Li  Li3  1  0.25000200  0.75000100  0.00000400  1
  V  V0  1  0.75000200  0.74998600  0.00004700  1
  V  V1  1  0.75006200  0.25000200  0.50004400  1
  V  V2  1  0.24991500  0.25000200  0.99990900  1
  V  V3  1  0.24998300  0.75000500  0.49995500  1
  Si  Si0  1  0.18367300  0.43371500  0.38242600  1
  Si  Si1  1  0.68386100  0.93372400  0.38264000  1
  Si  Si2  1  0.81615300  0.56629100  0.61738100  1
  Si  Si3  1  0.31635400  0.06628300  0.61755900  1
  O  O0  1  0.64152500  0.62471300  0.26751700  1
  O  O1  1  0.14171100  0.12462600  0.26769200  1
  O  O2  1  0.89223300  0.37529100  0.26626500  1
  O  O3  1  0.39232700  0.87537400  0.26636400  1
  O  O4  1  0.10767500  0.62462100  0.73363800  1
  O  O5  1  0.60777400  0.12471100  0.73374800  1
  O  O6  1  0.35827500  0.37537500  0.73229800  1
  O  O7  1  0.85848100  0.87528300  0.73249700  1
  O  O8  1  0.12583300  0.61636000  0.25738300  1
  O  O9  1  0.62624200  0.11636500  0.25779400  1
  O  O10  1  0.36611000  0.37607800  0.25739500  1
  O  O11  1  0.86651500  0.87607700  0.25780400  1
  O  O12  1  0.87373300  0.38364700  0.74218900  1
  O  O13  1  0.37417200  0.88364000  0.74262900  1
  O  O14  1  0.63349500  0.62391800  0.74220300  1
  O  O15  1  0.13388800  0.12391600  0.74259800  1
loop_
_geom_bond_atom_site_label_1
_geom_bond_atom_site_label_2
_geom_bond_distance
_geom_bond_site_symmetry_2
Li0 O11 2.048470 1_556
Li0 O15 2.048494 1_665
Li0 O5 2.115626 1_565
Li0 O7 2.115711 1_555
Li0 O3 2.116119 1_656
Li0 O1 2.116212 1_666
Li1 O10 2.048457 1_555
Li1 O14 2.048502 1_554
Li1 O2 2.115601 1_555
Li1 O0 2.115710 1_555
Li1 O4 2.116143 1_554
Li1 O6 2.116277 1_554
Li2 O9 2.048318 1_555
Li2 O12 2.048424 1_554
Li2 O5 2.115531 1_554
Li2 O2 2.115553 1_555
Li2 O1 2.116438 1_655
Li2 O6 2.116497 1_554
Li3 O13 2.048351 1_554
Li3 O8 2.048371 1_555
Li3 O7 2.115283 1_454
Li3 O0 2.115314 1_555
Li3 O3 2.116639 1_555
Li3 O4 2.116719 1_554
O0 Si2 1.656768 1_555
O0 V0 1.994596 1_555
O1 Si3 1.656802 1_555
O1 V2 1.995234 1_554
O2 Si0 1.656759 1_655
O2 V1 1.994665 1_555
O3 Si1 1.656877 1_555
O3 V3 1.994988 1_555
O4 Si2 1.656724 1_455
O4 V3 1.995253 1_555
O5 Si3 1.656691 1_555
O5 V1 1.994869 1_555
O6 Si0 1.656818 1_555
O6 V2 1.995111 1_555
O7 Si1 1.656730 1_555
O7 V0 1.995024 1_556
O8 Si0 1.685498 1_555
O8 V0 2.081193 1_455
O8 V3 2.083005 1_555
O9 Si1 1.685463 1_545
O9 V1 2.081597 1_555
O9 V2 2.083313 1_554
O10 Si0 1.684937 1_555
O10 V2 2.082074 1_554
O10 V1 2.083584 1_555
O11 Si1 1.685084 1_555
O11 V3 2.081555 1_655
O11 V0 2.083319 1_555
O12 Si2 1.685490 1_555
O12 V1 2.081218 1_555
O12 V2 2.082737 1_655
O13 Si3 1.685482 1_565
O13 V0 2.081318 1_556
O13 V3 2.083335 1_555
O14 Si2 1.684947 1_555
O14 V3 2.081793 1_555
O14 V0 2.083502 1_556
O15 Si3 1.685090 1_555
O15 V2 2.081425 1_555
O15 V1 2.083096 1_455
