# generated using pymatgen
data_Cr5O12
_symmetry_space_group_name_H-M   'P 1'
_cell_length_a   8.98481500
_cell_length_b   9.05956100
_cell_length_c   12.53554800
_cell_angle_alpha   90.00000000
_cell_angle_beta   90.00000000
_cell_angle_gamma   90.00000000
_symmetry_Int_Tables_number   1
_chemical_formula_structural   Cr5O12
_chemical_formula_sum   'Cr20 O48'
_cell_volume   1020.37454773
_cell_formula_units_Z   4
loop_
 _symmetry_equiv_pos_site_id
 _symmetry_equiv_pos_as_xyz
  1  'x, y, z'
loop_
 _atom_site_type_symbol
 _atom_site_label
 _atom_site_symmetry_multiplicity
 _atom_site_fract_x
 _atom_site_fract_y
 _atom_site_fract_z
 _atom_site_occupancy
  Cr  Cr0  1  0.75000000  0.96319600  0.50000000  1
  Cr  Cr1  1  0.25000000  0.03680400  0.50000000  1
  Cr  Cr2  1  0.46805600  0.74919100  0.61959800  1
  Cr  Cr3  1  0.96805600  0.25080900  0.61959800  1
  Cr  Cr4  1  0.10606800  0.60415900  0.64524100  1
  Cr  Cr5  1  0.60606800  0.39584100  0.64524100  1
  Cr  Cr6  1  0.60606800  0.89584100  0.85475900  1
  Cr  Cr7  1  0.10606800  0.10415900  0.85475900  1
  Cr  Cr8  1  0.96805600  0.75080900  0.88040200  1
  Cr  Cr9  1  0.46805600  0.24919100  0.88040200  1
  Cr  Cr10  1  0.25000000  0.53680400  0.00000000  1
  Cr  Cr11  1  0.75000000  0.46319600  0.00000000  1
  Cr  Cr12  1  0.53194400  0.75080900  0.11959800  1
  Cr  Cr13  1  0.03194400  0.24919100  0.11959800  1
  Cr  Cr14  1  0.89393200  0.89584100  0.14524100  1
  Cr  Cr15  1  0.39393200  0.10415900  0.14524100  1
  Cr  Cr16  1  0.39393200  0.60415900  0.35475900  1
  Cr  Cr17  1  0.89393200  0.39584100  0.35475900  1
  Cr  Cr18  1  0.03194400  0.74919100  0.38040200  1
  Cr  Cr19  1  0.53194400  0.25080900  0.38040200  1
  O  O0  1  0.05740700  0.65858700  0.52396600  1
  O  O1  1  0.55740700  0.34141300  0.52396600  1
  O  O2  1  0.85936100  0.06910100  0.57423300  1
  O  O3  1  0.35936100  0.93089900  0.57423300  1
  O  O4  1  0.65322800  0.85522500  0.58196900  1
  O  O5  1  0.15322800  0.14477500  0.58196900  1
  O  O6  1  0.59411400  0.57846900  0.65884000  1
  O  O7  1  0.09411400  0.42153100  0.65884000  1
  O  O8  1  0.28171700  0.65041000  0.66892000  1
  O  O9  1  0.78171700  0.34959000  0.66892000  1
  O  O10  1  0.98874800  0.68142000  0.73157400  1
  O  O11  1  0.48874800  0.31858000  0.73157400  1
  O  O12  1  0.48874800  0.81858000  0.76842600  1
  O  O13  1  0.98874800  0.18142000  0.76842600  1
  O  O14  1  0.28171700  0.15041000  0.83108000  1
  O  O15  1  0.78171700  0.84959000  0.83108000  1
  O  O16  1  0.09411400  0.92153100  0.84116000  1
  O  O17  1  0.59411400  0.07846900  0.84116000  1
  O  O18  1  0.15322800  0.64477500  0.91803100  1
  O  O19  1  0.65322800  0.35522500  0.91803100  1
  O  O20  1  0.85936100  0.56910100  0.92576700  1
  O  O21  1  0.35936100  0.43089900  0.92576700  1
  O  O22  1  0.05740700  0.15858700  0.97603400  1
  O  O23  1  0.55740700  0.84141300  0.97603400  1
  O  O24  1  0.94259300  0.84141300  0.02396600  1
  O  O25  1  0.44259300  0.15858700  0.02396600  1
  O  O26  1  0.64063900  0.56910100  0.07423300  1
  O  O27  1  0.14063900  0.43089900  0.07423300  1
  O  O28  1  0.34677200  0.64477500  0.08196900  1
  O  O29  1  0.84677200  0.35522500  0.08196900  1
  O  O30  1  0.40588600  0.92153100  0.15884000  1
  O  O31  1  0.90588600  0.07846900  0.15884000  1
  O  O32  1  0.71828300  0.84959000  0.16892000  1
  O  O33  1  0.21828300  0.15041000  0.16892000  1
  O  O34  1  0.01125200  0.81858000  0.23157400  1
  O  O35  1  0.51125200  0.18142000  0.23157400  1
  O  O36  1  0.51125200  0.68142000  0.26842600  1
  O  O37  1  0.01125200  0.31858000  0.26842600  1
  O  O38  1  0.21828300  0.65041000  0.33108000  1
  O  O39  1  0.71828300  0.34959000  0.33108000  1
  O  O40  1  0.90588600  0.57846900  0.34116000  1
  O  O41  1  0.40588600  0.42153100  0.34116000  1
  O  O42  1  0.84677200  0.85522500  0.41803100  1
  O  O43  1  0.34677200  0.14477500  0.41803100  1
  O  O44  1  0.14063900  0.93089900  0.42576700  1
  O  O45  1  0.64063900  0.06910100  0.42576700  1
  O  O46  1  0.44259300  0.65858700  0.47603400  1
  O  O47  1  0.94259300  0.34141300  0.47603400  1
loop_
_geom_bond_atom_site_label_1
_geom_bond_atom_site_label_2
_geom_bond_distance
_geom_bond_site_symmetry_2
Cr0 O2 1.658902 1_565
Cr0 O45 1.658902 1_565
Cr0 O42 1.663917 1_555
Cr0 O4 1.663917 1_555
Cr1 O3 1.658902 1_545
Cr1 O44 1.658902 1_545
Cr1 O43 1.663917 1_555
Cr1 O5 1.663917 1_555
Cr2 O12 1.977463 1_555
Cr2 O4 1.978209 1_555
Cr2 O6 1.979132 1_555
Cr2 O46 1.991195 1_555
Cr2 O8 1.996535 1_555
Cr2 O3 1.996774 1_555
Cr3 O13 1.977463 1_555
Cr3 O5 1.978209 1_655
Cr3 O7 1.979132 1_655
Cr3 O47 1.991195 1_555
Cr3 O9 1.996535 1_555
Cr3 O2 1.996774 1_555
Cr4 O0 1.656940 1_555
Cr4 O8 1.659612 1_555
Cr4 O10 1.665016 1_455
Cr4 O7 1.666753 1_555
Cr5 O1 1.656940 1_555
Cr5 O9 1.659612 1_555
Cr5 O11 1.665016 1_555
Cr5 O6 1.666753 1_555
Cr6 O23 1.656940 1_555
Cr6 O15 1.659612 1_555
Cr6 O12 1.665016 1_555
Cr6 O17 1.666753 1_565
Cr7 O22 1.656940 1_555
Cr7 O14 1.659612 1_555
Cr7 O13 1.665016 1_455
Cr7 O16 1.666753 1_545
Cr8 O10 1.977463 1_555
Cr8 O18 1.978209 1_655
Cr8 O16 1.979132 1_655
Cr8 O24 1.991195 1_556
Cr8 O15 1.996535 1_555
Cr8 O20 1.996774 1_555
Cr9 O11 1.977463 1_555
Cr9 O19 1.978209 1_555
Cr9 O17 1.979132 1_555
Cr9 O25 1.991195 1_556
Cr9 O14 1.996535 1_555
Cr9 O21 1.996774 1_555
Cr10 O21 1.658902 1_554
Cr10 O27 1.658902 1_555
Cr10 O28 1.663917 1_555
Cr10 O18 1.663917 1_554
Cr11 O20 1.658902 1_554
Cr11 O26 1.658902 1_555
Cr11 O29 1.663917 1_555
Cr11 O19 1.663917 1_554
Cr12 O36 1.977463 1_555
Cr12 O28 1.978209 1_555
Cr12 O30 1.979132 1_555
Cr12 O23 1.991195 1_554
Cr12 O32 1.996535 1_555
Cr12 O26 1.996774 1_555
Cr13 O37 1.977463 1_555
Cr13 O29 1.978209 1_455
Cr13 O31 1.979132 1_455
Cr13 O22 1.991195 1_554
Cr13 O33 1.996535 1_555
Cr13 O27 1.996774 1_555
Cr14 O24 1.656940 1_555
Cr14 O32 1.659612 1_555
Cr14 O34 1.665016 1_655
Cr14 O31 1.666753 1_565
Cr15 O25 1.656940 1_555
Cr15 O33 1.659612 1_555
Cr15 O35 1.665016 1_555
Cr15 O30 1.666753 1_545
Cr16 O46 1.656940 1_555
Cr16 O38 1.659612 1_555
Cr16 O36 1.665016 1_555
Cr16 O41 1.666753 1_555
Cr17 O47 1.656940 1_555
Cr17 O39 1.659612 1_555
Cr17 O37 1.665016 1_655
Cr17 O40 1.666753 1_555
Cr18 O34 1.977463 1_555
Cr18 O42 1.978209 1_455
Cr18 O40 1.979132 1_455
Cr18 O0 1.991195 1_555
Cr18 O38 1.996535 1_555
Cr18 O44 1.996774 1_555
Cr19 O35 1.977463 1_555
Cr19 O43 1.978209 1_555
Cr19 O41 1.979132 1_555
Cr19 O1 1.991195 1_555
Cr19 O39 1.996535 1_555
Cr19 O45 1.996774 1_555
