# generated using pymatgen
data_Li2Mn3(BO3)3
_symmetry_space_group_name_H-M   'P 1'
_cell_length_a   6.21169400
_cell_length_b   7.81726788
_cell_length_c   9.04031036
_cell_angle_alpha   109.71767544
_cell_angle_beta   106.68361539
_cell_angle_gamma   100.26336720
_symmetry_Int_Tables_number   1
_chemical_formula_structural   Li2Mn3(BO3)3
_chemical_formula_sum   'Li4 Mn6 B6 O18'
_cell_volume   376.98738190
_cell_formula_units_Z   2
loop_
 _symmetry_equiv_pos_site_id
 _symmetry_equiv_pos_as_xyz
  1  'x, y, z'
loop_
 _atom_site_type_symbol
 _atom_site_label
 _atom_site_symmetry_multiplicity
 _atom_site_fract_x
 _atom_site_fract_y
 _atom_site_fract_z
 _atom_site_occupancy
  Li  Li0  1  0.32132000  0.00526500  0.38020600  1
  Li  Li1  1  0.66362400  0.32258800  0.05211400  1
  Li  Li2  1  0.33637600  0.67741200  0.94788600  1
  Li  Li3  1  0.67868000  0.99473500  0.61979400  1
  Mn  Mn0  1  0.35091900  0.59600800  0.59230300  1
  Mn  Mn1  1  0.26815700  0.01433700  0.72264300  1
  Mn  Mn2  1  0.05967100  0.29530900  0.95932200  1
  Mn  Mn3  1  0.94032900  0.70469100  0.04067800  1
  Mn  Mn4  1  0.73184300  0.98566300  0.27735700  1
  Mn  Mn5  1  0.64908100  0.40399200  0.40769700  1
  B  B0  1  0.69712800  0.95180400  0.93428400  1
  B  B1  1  0.60127600  0.34912800  0.71757900  1
  B  B2  1  0.96463800  0.69167100  0.37130900  1
  B  B3  1  0.03536200  0.30832900  0.62869100  1
  B  B4  1  0.39872400  0.65087200  0.28242100  1
  B  B5  1  0.30287200  0.04819600  0.06571600  1
  O  O0  1  0.56847900  0.88034000  0.76067200  1
  O  O1  1  0.39328400  0.52531700  0.36675200  1
  O  O2  1  0.84084600  0.13568400  0.02751800  1
  O  O3  1  0.33705200  0.16680600  0.98163400  1
  O  O4  1  0.74932400  0.41918800  0.88549300  1
  O  O5  1  0.11843500  0.73190800  0.53479900  1
  O  O6  1  0.46366300  0.16392100  0.62467200  1
  O  O7  1  0.78811200  0.52009600  0.27943700  1
  O  O8  1  0.99700200  0.82795700  0.30668500  1
  O  O9  1  0.00299800  0.17204300  0.69331500  1
  O  O10  1  0.21188800  0.47990400  0.72056300  1
  O  O11  1  0.53633700  0.83607900  0.37532800  1
  O  O12  1  0.88156500  0.26809200  0.46520100  1
  O  O13  1  0.25067600  0.58081200  0.11450700  1
  O  O14  1  0.66294800  0.83319400  0.01836600  1
  O  O15  1  0.15915400  0.86431600  0.97248200  1
  O  O16  1  0.60671600  0.47468300  0.63324800  1
  O  O17  1  0.43152100  0.11966000  0.23932800  1
loop_
_geom_bond_atom_site_label_1
_geom_bond_atom_site_label_2
_geom_bond_distance
_geom_bond_site_symmetry_2
Li0 O6 1.960103 1_555
Li0 O17 1.985252 1_555
Li0 O8 2.008963 1_445
Li0 O11 2.039352 1_545
Li1 O7 1.930337 1_555
Li1 O3 1.964192 1_554
Li1 O2 1.972446 1_555
Li1 O4 2.051170 1_554
Li2 O10 1.930337 1_555
Li2 O14 1.964192 1_556
Li2 O15 1.972446 1_555
Li2 O13 2.051170 1_556
Li3 O11 1.960103 1_555
Li3 O0 1.985252 1_555
Li3 O9 2.008963 1_665
Li3 O6 2.039352 1_565
Mn0 O10 1.979857 1_555
Mn0 O5 1.993154 1_555
Mn0 O16 1.999360 1_555
Mn0 O1 2.032719 1_555
Mn0 O0 2.132882 1_555
Mn1 O6 2.106420 1_555
Mn1 O3 2.108455 1_555
Mn1 O5 2.110641 1_545
Mn1 O9 2.235278 1_555
Mn1 O0 2.294917 1_545
Mn2 O2 2.044664 1_456
Mn2 O13 2.084452 1_556
Mn2 O3 2.138338 1_555
Mn2 O9 2.159833 1_555
Mn2 O4 2.337137 1_455
Mn3 O15 2.044664 1_654
Mn3 O4 2.084452 1_554
Mn3 O14 2.138338 1_555
Mn3 O8 2.159833 1_555
Mn3 O13 2.337137 1_655
Mn4 O11 2.106420 1_555
Mn4 O14 2.108455 1_555
Mn4 O12 2.110641 1_565
Mn4 O8 2.235278 1_555
Mn4 O17 2.294917 1_565
Mn5 O7 1.979857 1_555
Mn5 O12 1.993154 1_555
Mn5 O1 1.999360 1_555
Mn5 O16 2.032719 1_555
Mn5 O17 2.132882 1_555
B0 O2 1.366299 1_566
B0 O0 1.393976 1_555
B0 O14 1.407363 1_556
B1 O6 1.363274 1_555
B1 O4 1.381293 1_555
B1 O16 1.433033 1_555
B2 O7 1.375666 1_555
B2 O8 1.388480 1_555
B2 O5 1.401638 1_655
B3 O10 1.375666 1_555
B3 O9 1.388480 1_555
B3 O12 1.401638 1_455
B4 O11 1.363274 1_555
B4 O13 1.381293 1_555
B4 O1 1.433033 1_555
B5 O15 1.366299 1_544
B5 O17 1.393976 1_555
B5 O3 1.407363 1_554
