# generated using pymatgen
data_Li2VFeP2(HO5)2
_symmetry_space_group_name_H-M   'P 1'
_cell_length_a   5.44240100
_cell_length_b   7.50872780
_cell_length_c   14.48130248
_cell_angle_alpha   95.21347966
_cell_angle_beta   92.59184452
_cell_angle_gamma   110.72363811
_symmetry_Int_Tables_number   1
_chemical_formula_structural   Li2VFeP2(HO5)2
_chemical_formula_sum   'Li6 V3 Fe3 P6 H6 O30'
_cell_volume   549.30115238
_cell_formula_units_Z   3
loop_
 _symmetry_equiv_pos_site_id
 _symmetry_equiv_pos_as_xyz
  1  'x, y, z'
loop_
 _atom_site_type_symbol
 _atom_site_label
 _atom_site_symmetry_multiplicity
 _atom_site_fract_x
 _atom_site_fract_y
 _atom_site_fract_z
 _atom_site_occupancy
  Li  Li0  1  0.26583500  0.86834100  0.69271300  1
  Li  Li1  1  0.06593900  0.46431900  0.64127100  1
  Li  Li2  1  0.40044400  0.79736000  0.97463900  1
  Li  Li3  1  0.59987800  0.20269200  0.02566500  1
  Li  Li4  1  0.93333100  0.53636900  0.35857000  1
  Li  Li5  1  0.73396700  0.13114000  0.30710800  1
  V  V0  1  0.33377400  0.33437000  0.33360100  1
  V  V1  1  0.99963100  0.99999700  0.49945500  1
  V  V2  1  0.00020700  0.99958900  0.00020200  1
  Fe  Fe0  1  0.33370000  0.33358400  0.83383800  1
  Fe  Fe1  1  0.66652700  0.66600700  0.66623200  1
  Fe  Fe2  1  0.66658400  0.66663800  0.16675900  1
  P  P0  1  0.01941800  0.38056400  0.14792700  1
  P  P1  1  0.31336800  0.95310800  0.18572900  1
  P  P2  1  0.35181200  0.71429600  0.48133700  1
  P  P3  1  0.64661600  0.28697400  0.51855700  1
  P  P4  1  0.68685900  0.04621700  0.81449000  1
  P  P5  1  0.98193100  0.61936000  0.85224000  1
  H  H0  1  0.04484000  0.98625100  0.32568800  1
  H  H1  1  0.28621100  0.34538400  0.00755600  1
  H  H2  1  0.37943800  0.32031300  0.65972700  1
  H  H3  1  0.62082200  0.67907200  0.34087300  1
  H  H4  1  0.71351700  0.65454100  0.99233200  1
  H  H5  1  0.95555400  0.01313600  0.67316200  1
  O  O0  1  0.08283600  0.82754700  0.90073900  1
  O  O1  1  0.04157300  0.83825900  0.21869100  1
  O  O2  1  0.13727000  0.79203300  0.45008100  1
  O  O3  1  0.19716200  0.54039500  0.88293100  1
  O  O4  1  0.29545300  0.95737700  0.07782200  1
  O  O5  1  0.03637100  0.37464300  0.25576400  1
  O  O6  1  0.36798700  0.70911700  0.58901800  1
  O  O7  1  0.25212200  0.50643400  0.43229600  1
  O  O8  1  0.04870200  0.09388400  0.37190000  1
  O  O9  1  0.29140800  0.49562000  0.11509400  1
  O  O10  1  0.28616600  0.23826800  0.96168300  1
  O  O11  1  0.58954300  0.83725500  0.76585800  1
  O  O12  1  0.52975500  0.87468600  0.21502400  1
  O  O13  1  0.37858400  0.42812200  0.70468200  1
  O  O14  1  0.62424300  0.82869000  0.44889000  1
  O  O15  1  0.37438100  0.17222100  0.55058600  1
  O  O16  1  0.62008200  0.57259600  0.29472700  1
  O  O17  1  0.47021200  0.12439600  0.78527000  1
  O  O18  1  0.41374400  0.16158400  0.23388300  1
  O  O19  1  0.71426200  0.76124700  0.03855300  1
  O  O20  1  0.70927500  0.50427000  0.88486800  1
  O  O21  1  0.95220000  0.90416500  0.62791900  1
  O  O22  1  0.74408200  0.49544800  0.56776400  1
  O  O23  1  0.63077000  0.29237100  0.41066800  1
  O  O24  1  0.96523800  0.62451100  0.74461900  1
  O  O25  1  0.70443800  0.04209900  0.92247600  1
  O  O26  1  0.80377500  0.45965500  0.11850000  1
  O  O27  1  0.86145700  0.20906400  0.54845100  1
  O  O28  1  0.95860900  0.16210300  0.78185100  1
  O  O29  1  0.91809200  0.17232000  0.09972500  1
loop_
_geom_bond_atom_site_label_1
_geom_bond_atom_site_label_2
_geom_bond_distance
_geom_bond_site_symmetry_2
Li0 O21 2.022952 1_455
Li0 O6 2.052567 1_555
Li0 O11 2.108888 1_555
Li0 O17 2.147939 1_565
Li0 O24 2.198854 1_455
Li1 O13 2.010890 1_555
Li1 O24 2.049539 1_455
Li1 O22 2.102963 1_455
Li1 O27 2.146092 1_455
Li1 O6 2.209156 1_555
Li2 O19 2.019306 1_556
Li2 O4 2.059054 1_556
Li2 O0 2.082929 1_555
Li2 O3 2.145062 1_555
Li2 O25 2.213251 1_565
Li3 O10 2.017315 1_554
Li3 O25 2.060568 1_554
Li3 O29 2.087466 1_555
Li3 O26 2.154054 1_555
Li3 O4 2.216894 1_545
Li4 O16 2.016566 1_555
Li4 O5 2.057782 1_655
Li4 O7 2.086303 1_655
Li4 O2 2.137766 1_655
Li4 O23 2.205849 1_555
Li5 O8 2.033263 1_655
Li5 O23 2.063389 1_555
Li5 O18 2.091134 1_555
Li5 O12 2.146203 1_545
Li5 O5 2.198320 1_655
Fe0 O3 2.032950 1_555
Fe0 O10 2.039554 1_555
Fe0 O17 2.046033 1_555
Fe0 O20 2.050363 1_555
Fe0 O28 2.053430 1_455
Fe0 O13 2.054667 1_555
Fe1 O22 1.989155 1_555
Fe1 O11 2.002299 1_555
Fe1 O21 2.052706 1_555
Fe1 O13 2.057918 1_555
Fe1 O6 2.066069 1_555
Fe1 O24 2.069884 1_555
Fe2 O26 2.032834 1_555
Fe2 O16 2.037295 1_555
Fe2 O12 2.038481 1_555
Fe2 O19 2.042479 1_555
Fe2 O9 2.051712 1_555
Fe2 O1 2.053055 1_655
H0 O8 0.994920 1_565
H1 O10 0.995463 1_554
H2 O13 0.993126 1_555
H3 O16 0.993057 1_555
H4 O19 0.994982 1_556
H5 O21 0.994997 1_545
O0 P5 1.548077 1_455
O0 V2 2.019210 1_556
O1 P1 1.547736 1_555
O2 P2 1.546445 1_555
O2 V1 2.045521 1_455
O3 P5 1.553562 1_455
O4 P1 1.565214 1_555
O4 V2 2.051274 1_555
O5 P0 1.565770 1_555
O5 V0 2.055516 1_555
O6 P2 1.562657 1_555
O7 P2 1.548922 1_555
O7 V0 2.009375 1_555
O8 V1 2.031832 1_445
O8 V0 2.062157 1_555
O9 P0 1.548190 1_555
O10 V2 2.057026 1_546
O11 P4 1.554249 1_565
O12 P1 1.550679 1_555
O14 P2 1.546595 1_555
O14 V1 2.048984 1_555
O15 P3 1.544030 1_555
O15 V1 2.050144 1_445
O16 V0 2.057752 1_555
O17 P4 1.550402 1_555
O18 P1 1.548258 1_545
O18 V0 2.018400 1_555
O19 V2 2.054468 1_655
O20 P5 1.549869 1_555
O21 V1 2.049509 1_555
O22 P3 1.554023 1_555
O23 P3 1.565849 1_555
O23 V0 2.054068 1_555
O24 P5 1.561821 1_555
O25 P4 1.566161 1_555
O25 V2 2.055475 1_646
O26 P0 1.551026 1_655
O27 P3 1.543089 1_555
O27 V1 2.052947 1_545
O28 P4 1.547614 1_555
O29 P0 1.546904 1_655
O29 V2 2.021828 1_645
