# generated using pymatgen
data_Fe2C2O7
_symmetry_space_group_name_H-M   'P 1'
_cell_length_a   6.72577000
_cell_length_b   9.13696800
_cell_length_c   9.67345222
_cell_angle_alpha   75.58008061
_cell_angle_beta   90.00000000
_cell_angle_gamma   90.00000000
_symmetry_Int_Tables_number   1
_chemical_formula_structural   Fe2C2O7
_chemical_formula_sum   'Fe8 C8 O28'
_cell_volume   575.73645077
_cell_formula_units_Z   4
loop_
 _symmetry_equiv_pos_site_id
 _symmetry_equiv_pos_as_xyz
  1  'x, y, z'
loop_
 _atom_site_type_symbol
 _atom_site_label
 _atom_site_symmetry_multiplicity
 _atom_site_fract_x
 _atom_site_fract_y
 _atom_site_fract_z
 _atom_site_occupancy
  Fe  Fe0  1  0.43912100  0.74444900  0.65173100  1
  Fe  Fe1  1  0.38818000  0.97231000  0.24776900  1
  Fe  Fe2  1  0.06087900  0.74444900  0.15173100  1
  Fe  Fe3  1  0.11182000  0.97231000  0.74776900  1
  Fe  Fe4  1  0.88818000  0.02769000  0.25223100  1
  Fe  Fe5  1  0.93912100  0.25555100  0.84826900  1
  Fe  Fe6  1  0.61182000  0.02769000  0.75223100  1
  Fe  Fe7  1  0.56087900  0.25555100  0.34826900  1
  C  C0  1  0.80887500  0.79362600  0.64849900  1
  C  C1  1  0.26536400  0.67551200  0.44003500  1
  C  C2  1  0.69112500  0.79362600  0.14849900  1
  C  C3  1  0.76536400  0.32448800  0.05996500  1
  C  C4  1  0.23463600  0.67551200  0.94003500  1
  C  C5  1  0.30887500  0.20637400  0.85150100  1
  C  C6  1  0.73463600  0.32448800  0.55996500  1
  C  C7  1  0.19112500  0.20637400  0.35150100  1
  O  O0  1  0.62537700  0.05242300  0.32632100  1
  O  O1  1  0.98703700  0.84798200  0.62883900  1
  O  O2  1  0.32290900  0.63492300  0.83959600  1
  O  O3  1  0.33087900  0.81771700  0.42761100  1
  O  O4  1  0.72094400  0.72534200  0.56598000  1
  O  O5  1  0.87462300  0.05242300  0.82632100  1
  O  O6  1  0.51296300  0.84798200  0.12883900  1
  O  O7  1  0.80077000  0.81185600  0.25746300  1
  O  O8  1  0.80382300  0.41182400  0.93658600  1
  O  O9  1  0.30382300  0.58817600  0.56341400  1
  O  O10  1  0.17709100  0.63492300  0.33959600  1
  O  O11  1  0.30077000  0.18814400  0.24253700  1
  O  O12  1  0.16912100  0.81771700  0.92761100  1
  O  O13  1  0.22094400  0.27465800  0.93402000  1
  O  O14  1  0.77905600  0.72534200  0.06598000  1
  O  O15  1  0.83087900  0.18228300  0.07238900  1
  O  O16  1  0.69923000  0.81185600  0.75746300  1
  O  O17  1  0.82290900  0.36507700  0.66040400  1
  O  O18  1  0.69617700  0.41182400  0.43658600  1
  O  O19  1  0.19617700  0.58817600  0.06341400  1
  O  O20  1  0.19923000  0.18814400  0.74253700  1
  O  O21  1  0.48703700  0.15201800  0.87116100  1
  O  O22  1  0.12537700  0.94757700  0.17367900  1
  O  O23  1  0.27905600  0.27465800  0.43402000  1
  O  O24  1  0.66912100  0.18228300  0.57238900  1
  O  O25  1  0.67709100  0.36507700  0.16040400  1
  O  O26  1  0.01296300  0.15201800  0.37116100  1
  O  O27  1  0.37462300  0.94757700  0.67367900  1
loop_
_geom_bond_atom_site_label_1
_geom_bond_atom_site_label_2
_geom_bond_distance
_geom_bond_site_symmetry_2
Fe0 O27 1.968287 1_555
Fe0 O2 2.002300 1_555
Fe0 O9 2.050438 1_555
Fe0 O4 2.093686 1_555
Fe0 O16 2.190820 1_555
Fe0 O3 2.226114 1_555
Fe1 O22 1.941558 1_555
Fe1 O0 1.983764 1_565
Fe1 O3 1.986546 1_555
Fe1 O6 1.992307 1_555
Fe1 O11 2.046346 1_565
Fe2 O22 1.968287 1_555
Fe2 O10 2.002300 1_555
Fe2 O19 2.050438 1_555
Fe2 O14 2.093686 1_455
Fe2 O7 2.190820 1_455
Fe2 O12 2.226114 1_554
Fe3 O27 1.941558 1_555
Fe3 O5 1.983764 1_465
Fe3 O12 1.986546 1_555
Fe3 O1 1.992307 1_455
Fe3 O20 2.046346 1_565
Fe4 O0 1.941558 1_555
Fe4 O22 1.983764 1_645
Fe4 O15 1.986546 1_555
Fe4 O26 1.992307 1_655
Fe4 O7 2.046346 1_545
Fe5 O5 1.968287 1_555
Fe5 O17 2.002300 1_555
Fe5 O8 2.050438 1_555
Fe5 O13 2.093686 1_655
Fe5 O20 2.190820 1_655
Fe5 O15 2.226114 1_556
Fe6 O5 1.941558 1_555
Fe6 O27 1.983764 1_545
Fe6 O24 1.986546 1_555
Fe6 O21 1.992307 1_555
Fe6 O16 2.046346 1_545
Fe7 O0 1.968287 1_555
Fe7 O25 2.002300 1_555
Fe7 O18 2.050438 1_555
Fe7 O23 2.093686 1_555
Fe7 O11 2.190820 1_555
Fe7 O24 2.226114 1_555
C0 O4 1.274464 1_555
C0 O1 1.292924 1_555
C0 O16 1.330434 1_555
C1 O10 1.270226 1_555
C1 O9 1.285998 1_555
C1 O3 1.348730 1_555
C2 O14 1.274464 1_555
C2 O6 1.292924 1_555
C2 O7 1.330434 1_555
C3 O25 1.270226 1_555
C3 O8 1.285998 1_554
C3 O15 1.348730 1_555
C4 O2 1.270226 1_555
C4 O19 1.285998 1_556
C4 O12 1.348730 1_555
C5 O13 1.274464 1_555
C5 O21 1.292924 1_555
C5 O20 1.330434 1_555
C6 O17 1.270226 1_555
C6 O18 1.285998 1_555
C6 O24 1.348730 1_555
C7 O23 1.274464 1_555
C7 O26 1.292924 1_555
C7 O11 1.330434 1_555
