# generated using pymatgen
data_Ba3LaBr9
_symmetry_space_group_name_H-M   'P 1'
_cell_length_a   7.53896100
_cell_length_b   8.10088400
_cell_length_c   31.53521157
_cell_angle_alpha   87.93795992
_cell_angle_beta   90.00000000
_cell_angle_gamma   90.00000000
_symmetry_Int_Tables_number   1
_chemical_formula_structural   Ba3LaBr9
_chemical_formula_sum   'Ba12 La4 Br36'
_cell_volume   1924.67914869
_cell_formula_units_Z   4
loop_
 _symmetry_equiv_pos_site_id
 _symmetry_equiv_pos_as_xyz
  1  'x, y, z'
loop_
 _atom_site_type_symbol
 _atom_site_label
 _atom_site_symmetry_multiplicity
 _atom_site_fract_x
 _atom_site_fract_y
 _atom_site_fract_z
 _atom_site_occupancy
  Ba  Ba0  1  0.97180400  0.68045500  0.93317900  1
  Ba  Ba1  1  0.00367100  0.70890200  0.69193100  1
  Ba  Ba2  1  0.02819600  0.68045500  0.43317900  1
  Ba  Ba3  1  0.99632900  0.70890200  0.19193100  1
  Ba  Ba4  1  0.98762600  0.31486600  0.56995100  1
  Ba  Ba5  1  0.98430100  0.28264600  0.80843700  1
  Ba  Ba6  1  0.01237400  0.31486600  0.06995100  1
  Ba  Ba7  1  0.01569900  0.28264600  0.30843700  1
  Ba  Ba8  1  0.52486900  0.21728300  0.69200700  1
  Ba  Ba9  1  0.51610200  0.18072700  0.93086500  1
  Ba  Ba10  1  0.47513100  0.21728300  0.19200700  1
  Ba  Ba11  1  0.48389800  0.18072700  0.43086500  1
  La  La0  1  0.51971300  0.79611100  0.80665900  1
  La  La1  1  0.54489700  0.82048000  0.56696300  1
  La  La2  1  0.48028700  0.79611100  0.30665900  1
  La  La3  1  0.45510300  0.82048000  0.06696300  1
  Br  Br0  1  0.79505200  0.97733900  0.86821700  1
  Br  Br1  1  0.81356800  0.98324900  0.75278200  1
  Br  Br2  1  0.80900400  0.99246600  0.62726800  1
  Br  Br3  1  0.20494800  0.97733900  0.36821700  1
  Br  Br4  1  0.18643200  0.98324900  0.25278200  1
  Br  Br5  1  0.70232000  0.89066100  0.99409000  1
  Br  Br6  1  0.19099600  0.99246600  0.12726800  1
  Br  Br7  1  0.33421300  0.84704600  0.89164500  1
  Br  Br8  1  0.29768000  0.89066100  0.49409000  1
  Br  Br9  1  0.40118000  0.84076000  0.70831000  1
  Br  Br10  1  0.66578700  0.84704600  0.39164500  1
  Br  Br11  1  0.59882000  0.84076000  0.20831000  1
  Br  Br12  1  0.16275900  0.64720800  0.79595200  1
  Br  Br13  1  0.21251200  0.65069500  0.59930100  1
  Br  Br14  1  0.83724100  0.64720800  0.29595200  1
  Br  Br15  1  0.78748800  0.65069500  0.09930100  1
  Br  Br16  1  0.74257200  0.58850400  0.51160200  1
  Br  Br17  1  0.67781200  0.50994200  0.86654500  1
  Br  Br18  1  0.69104600  0.51541800  0.75236300  1
  Br  Br19  1  0.69735800  0.52810700  0.62762300  1
  Br  Br20  1  0.25742800  0.58850400  0.01160200  1
  Br  Br21  1  0.32218800  0.50994200  0.36654500  1
  Br  Br22  1  0.30895400  0.51541800  0.25236300  1
  Br  Br23  1  0.30264200  0.52810700  0.12762300  1
  Br  Br24  1  0.76291800  0.39915100  0.99009500  1
  Br  Br25  1  0.23708200  0.39915100  0.49009500  1
  Br  Br26  1  0.14934000  0.34360900  0.90084600  1
  Br  Br27  1  0.10840700  0.32235400  0.69861800  1
  Br  Br28  1  0.85066000  0.34360900  0.40084600  1
  Br  Br29  1  0.89159300  0.32235400  0.19861800  1
  Br  Br30  1  0.39520000  0.14619600  0.79761600  1
  Br  Br31  1  0.35705600  0.12208600  0.59843200  1
  Br  Br32  1  0.60480000  0.14619600  0.29761600  1
  Br  Br33  1  0.64294400  0.12208600  0.09843200  1
  Br  Br34  1  0.75509400  0.06300100  0.51051700  1
  Br  Br35  1  0.24490600  0.06300100  0.01051700  1
loop_
_geom_bond_atom_site_label_1
_geom_bond_atom_site_label_2
_geom_bond_distance
_geom_bond_site_symmetry_2
Ba0 Br26 3.236875 1_655
Ba0 Br24 3.255779 1_555
Ba0 Br7 3.297639 1_655
Ba0 Br5 3.309418 1_555
Ba0 Br20 3.342929 1_656
Ba0 Br0 3.376674 1_555
Ba0 Br17 3.383020 1_555
Ba1 Br27 3.228926 1_555
Ba1 Br9 3.229289 1_555
Ba1 Br1 3.313997 1_455
Ba1 Br2 3.354349 1_455
Ba1 Br13 3.366482 1_555
Ba1 Br18 3.380594 1_455
Ba1 Br19 3.435727 1_455
Ba1 Br12 3.511522 1_555
Ba2 Br28 3.236875 1_455
Ba2 Br25 3.255779 1_555
Ba2 Br10 3.297639 1_455
Ba2 Br8 3.309418 1_555
Ba2 Br16 3.342929 1_455
Ba2 Br3 3.376674 1_555
Ba2 Br21 3.383020 1_555
Ba3 Br29 3.228926 1_555
Ba3 Br11 3.229289 1_555
Ba3 Br4 3.313997 1_655
Ba3 Br6 3.354349 1_655
Ba3 Br15 3.366482 1_555
Ba3 Br22 3.380594 1_655
Ba3 Br23 3.435727 1_655
Ba3 Br14 3.511522 1_555
Ba4 Br25 3.197026 1_655
Ba4 Br31 3.301742 1_655
Ba4 Br34 3.320269 1_555
Ba4 Br19 3.362520 1_555
Ba4 Br13 3.363547 1_655
Ba4 Br16 3.379221 1_555
Ba4 Br2 3.400273 1_545
Ba5 Br26 3.223002 1_655
Ba5 Br12 3.256261 1_655
Ba5 Br1 3.305435 1_545
Ba5 Br30 3.310814 1_655
Ba5 Br18 3.366075 1_555
Ba5 Br0 3.372083 1_545
Ba5 Br17 3.511405 1_555
Ba5 Br27 3.590574 1_655
Ba6 Br24 3.197026 1_454
Ba6 Br33 3.301742 1_455
Ba6 Br35 3.320269 1_555
Ba6 Br23 3.362520 1_555
Ba6 Br15 3.363547 1_455
Ba6 Br20 3.379221 1_555
Ba6 Br6 3.400273 1_545
Ba7 Br28 3.223002 1_455
Ba7 Br14 3.256261 1_455
Ba7 Br4 3.305435 1_545
Ba7 Br32 3.310814 1_455
Ba7 Br22 3.366075 1_555
Ba7 Br3 3.372083 1_545
Ba7 Br21 3.511405 1_555
Ba7 Br29 3.590574 1_455
Ba8 Br9 3.213181 1_545
Ba8 Br27 3.261653 1_555
Ba8 Br31 3.326696 1_555
Ba8 Br18 3.369867 1_555
Ba8 Br1 3.426831 1_545
Ba8 Br19 3.433009 1_555
Ba8 Br30 3.498689 1_555
Ba8 Br2 3.512958 1_545
Ba9 Br26 3.192580 1_555
Ba9 Br24 3.212451 1_555
Ba9 Br7 3.310202 1_545
Ba9 Br5 3.336251 1_545
Ba9 Br35 3.350613 1_556
Ba9 Br0 3.357760 1_545
Ba9 Br17 3.510512 1_555
Ba10 Br11 3.213181 1_545
Ba10 Br29 3.261653 1_555
Ba10 Br33 3.326696 1_555
Ba10 Br22 3.369867 1_555
Ba10 Br4 3.426831 1_545
Ba10 Br23 3.433009 1_555
Ba10 Br32 3.498689 1_555
Ba10 Br6 3.512958 1_545
Ba11 Br28 3.192580 1_555
Ba11 Br25 3.212451 1_555
Ba11 Br10 3.310202 1_545
Ba11 Br8 3.336251 1_545
Ba11 Br34 3.350613 1_555
Ba11 Br3 3.357760 1_545
Ba11 Br21 3.510512 1_555
Br0 La0 3.230740 1_555
Br1 La0 3.147595 1_555
Br2 La1 3.116539 1_555
Br3 La2 3.230740 1_555
Br4 La2 3.147595 1_555
Br5 La3 2.997317 1_556
Br6 La3 3.116539 1_555
Br7 La0 3.064025 1_555
Br8 La1 2.997317 1_555
Br9 La0 3.235379 1_555
Br10 La2 3.064025 1_555
Br11 La2 3.235379 1_555
Br12 La0 2.973241 1_555
Br13 La1 3.018277 1_555
Br14 La2 2.973241 1_555
Br15 La3 3.018277 1_555
Br16 La1 3.006045 1_555
Br17 La0 3.169578 1_555
Br18 La0 3.170299 1_555
Br19 La1 3.203756 1_555
Br20 La3 3.006045 1_555
Br21 La2 3.169578 1_555
Br22 La2 3.170299 1_555
Br23 La3 3.203756 1_555
Br30 La0 2.991181 1_545
Br31 La1 3.022303 1_545
Br32 La2 2.991181 1_545
Br33 La3 3.022303 1_545
Br34 La1 3.047593 1_545
Br35 La3 3.047593 1_545
