# generated using pymatgen
data_TaNbO5
_symmetry_space_group_name_H-M   'P 1'
_cell_length_a   5.77471200
_cell_length_b   7.25002700
_cell_length_c   12.47965700
_cell_angle_alpha   90.00000000
_cell_angle_beta   90.00000000
_cell_angle_gamma   90.00000000
_symmetry_Int_Tables_number   1
_chemical_formula_structural   TaNbO5
_chemical_formula_sum   'Ta4 Nb4 O20'
_cell_volume   522.48352729
_cell_formula_units_Z   4
loop_
 _symmetry_equiv_pos_site_id
 _symmetry_equiv_pos_as_xyz
  1  'x, y, z'
loop_
 _atom_site_type_symbol
 _atom_site_label
 _atom_site_symmetry_multiplicity
 _atom_site_fract_x
 _atom_site_fract_y
 _atom_site_fract_z
 _atom_site_occupancy
  Ta  Ta0  1  0.25000000  0.53117700  0.15428300  1
  Ta  Ta1  1  0.75000000  0.03117700  0.34571700  1
  Ta  Ta2  1  0.25000000  0.96882300  0.65428300  1
  Ta  Ta3  1  0.75000000  0.46882300  0.84571700  1
  Nb  Nb0  1  0.75000000  0.84995000  0.05650000  1
  Nb  Nb1  1  0.25000000  0.34995000  0.44350000  1
  Nb  Nb2  1  0.75000000  0.65005000  0.55650000  1
  Nb  Nb3  1  0.25000000  0.15005000  0.94350000  1
  O  O0  1  0.00000000  0.00000000  0.00000000  1
  O  O1  1  0.50000000  0.00000000  0.00000000  1
  O  O2  1  0.25000000  0.31276800  0.07455400  1
  O  O3  1  0.99107600  0.66812600  0.12025200  1
  O  O4  1  0.50892400  0.66812600  0.12025200  1
  O  O5  1  0.75000000  0.97776300  0.19816100  1
  O  O6  1  0.25000000  0.47776300  0.30183900  1
  O  O7  1  0.00892400  0.16812600  0.37974800  1
  O  O8  1  0.49107600  0.16812600  0.37974800  1
  O  O9  1  0.75000000  0.81276800  0.42544600  1
  O  O10  1  0.00000000  0.50000000  0.50000000  1
  O  O11  1  0.50000000  0.50000000  0.50000000  1
  O  O12  1  0.25000000  0.18723200  0.57455400  1
  O  O13  1  0.99107600  0.83187400  0.62025200  1
  O  O14  1  0.50892400  0.83187400  0.62025200  1
  O  O15  1  0.75000000  0.52223700  0.69816100  1
  O  O16  1  0.25000000  0.02223700  0.80183900  1
  O  O17  1  0.49107600  0.33187400  0.87974800  1
  O  O18  1  0.00892400  0.33187400  0.87974800  1
  O  O19  1  0.75000000  0.68723200  0.92544600  1
loop_
_geom_bond_atom_site_label_1
_geom_bond_atom_site_label_2
_geom_bond_distance
_geom_bond_site_symmetry_2
Nb0 O1 1.940316 1_565
Nb0 O0 1.940316 1_665
Nb0 O5 1.996016 1_555
Nb0 O19 2.016583 1_554
Nb0 O3 2.075760 1_555
Nb0 O4 2.075760 1_555
Nb1 O11 1.940316 1_555
Nb1 O10 1.940316 1_555
Nb1 O6 1.996016 1_555
Nb1 O12 2.016583 1_555
Nb1 O8 2.075760 1_555
Nb1 O7 2.075760 1_555
Nb2 O10 1.940316 1_655
Nb2 O11 1.940316 1_555
Nb2 O15 1.996016 1_555
Nb2 O9 2.016583 1_555
Nb2 O13 2.075760 1_555
Nb2 O14 2.075760 1_555
Nb3 O1 1.940316 1_556
Nb3 O0 1.940316 1_556
Nb3 O16 1.996016 1_555
Nb3 O2 2.016583 1_556
Nb3 O17 2.075760 1_555
Nb3 O18 2.075760 1_555
O2 Ta0 1.870130 1_555
O3 Ta0 1.844408 1_655
O4 Ta0 1.844408 1_555
O5 Ta1 1.881727 1_565
O6 Ta0 1.881727 1_555
O7 Ta1 1.844408 1_455
O8 Ta1 1.844408 1_555
O9 Ta1 1.870130 1_565
O12 Ta2 1.870130 1_545
O13 Ta2 1.844408 1_655
O14 Ta2 1.844408 1_555
O15 Ta3 1.881727 1_555
O16 Ta2 1.881727 1_545
O17 Ta3 1.844408 1_555
O18 Ta3 1.844408 1_455
O19 Ta3 1.870130 1_555
