# generated using pymatgen
data_Li2Co(Si2O5)2
_symmetry_space_group_name_H-M   'P 1'
_cell_length_a   7.73112000
_cell_length_b   11.06458900
_cell_length_c   11.18262809
_cell_angle_alpha   69.17684213
_cell_angle_beta   90.00000000
_cell_angle_gamma   90.00000000
_symmetry_Int_Tables_number   1
_chemical_formula_structural   Li2Co(Si2O5)2
_chemical_formula_sum   'Li8 Co4 Si16 O40'
_cell_volume   894.09876523
_cell_formula_units_Z   4
loop_
 _symmetry_equiv_pos_site_id
 _symmetry_equiv_pos_as_xyz
  1  'x, y, z'
loop_
 _atom_site_type_symbol
 _atom_site_label
 _atom_site_symmetry_multiplicity
 _atom_site_fract_x
 _atom_site_fract_y
 _atom_site_fract_z
 _atom_site_occupancy
  Li  Li0  1  0.75000000  0.90854300  0.39536000  1
  Li  Li1  1  0.75000000  0.97558400  0.10810000  1
  Li  Li2  1  0.75000000  0.64045600  0.86702000  1
  Li  Li3  1  0.75000000  0.62147700  0.44650300  1
  Li  Li4  1  0.25000000  0.37852300  0.55349700  1
  Li  Li5  1  0.25000000  0.35954400  0.13298000  1
  Li  Li6  1  0.25000000  0.02441600  0.89190000  1
  Li  Li7  1  0.25000000  0.09145700  0.60464000  1
  Co  Co0  1  0.97679500  0.78977500  0.27713700  1
  Co  Co1  1  0.52320500  0.78977500  0.27713700  1
  Co  Co2  1  0.47679500  0.21022500  0.72286300  1
  Co  Co3  1  0.02320500  0.21022500  0.72286300  1
  Si  Si0  1  0.95195600  0.90944200  0.74293600  1
  Si  Si1  1  0.54804400  0.90944200  0.74293600  1
  Si  Si2  1  0.04574700  0.73918000  0.58661000  1
  Si  Si3  1  0.45425300  0.73918000  0.58661000  1
  Si  Si4  1  0.44943000  0.75819000  0.01234400  1
  Si  Si5  1  0.05057000  0.75819000  0.01234400  1
  Si  Si6  1  0.44551800  0.47084500  0.77518300  1
  Si  Si7  1  0.05448200  0.47084500  0.77518300  1
  Si  Si8  1  0.94551800  0.52915500  0.22481700  1
  Si  Si9  1  0.55448200  0.52915500  0.22481700  1
  Si  Si10  1  0.94943000  0.24181000  0.98765600  1
  Si  Si11  1  0.55057000  0.24181000  0.98765600  1
  Si  Si12  1  0.95425300  0.26082000  0.41339000  1
  Si  Si13  1  0.54574700  0.26082000  0.41339000  1
  Si  Si14  1  0.45195600  0.09055800  0.25706400  1
  Si  Si15  1  0.04804400  0.09055800  0.25706400  1
  O  O0  1  0.75000000  0.95174200  0.70623900  1
  O  O1  1  0.94524100  0.77763500  0.87651400  1
  O  O2  1  0.55475900  0.77763500  0.87651400  1
  O  O3  1  0.25000000  0.81042600  0.96980300  1
  O  O4  1  0.46583000  0.86704600  0.62843000  1
  O  O5  1  0.03417000  0.86704600  0.62843000  1
  O  O6  1  0.93232700  0.97641000  0.24338800  1
  O  O7  1  0.56767300  0.97641000  0.24338800  1
  O  O8  1  0.25000000  0.71104700  0.56422800  1
  O  O9  1  0.93003100  0.75892500  0.46215400  1
  O  O10  1  0.56996900  0.75892500  0.46215400  1
  O  O11  1  0.96056300  0.83596600  0.09190800  1
  O  O12  1  0.53943700  0.83596600  0.09190800  1
  O  O13  1  0.53085900  0.61730700  0.71206900  1
  O  O14  1  0.96914100  0.61730700  0.71206900  1
  O  O15  1  0.25000000  0.48555500  0.82694900  1
  O  O16  1  0.94105700  0.39947700  0.90721700  1
  O  O17  1  0.55894300  0.39947700  0.90721700  1
  O  O18  1  0.94929100  0.60312200  0.32520900  1
  O  O19  1  0.55070900  0.60312200  0.32520900  1
  O  O20  1  0.44929100  0.39687800  0.67479100  1
  O  O21  1  0.05070900  0.39687800  0.67479100  1
  O  O22  1  0.44105700  0.60052300  0.09278300  1
  O  O23  1  0.05894300  0.60052300  0.09278300  1
  O  O24  1  0.75000000  0.51444500  0.17305100  1
  O  O25  1  0.46914100  0.38269300  0.28793100  1
  O  O26  1  0.03085900  0.38269300  0.28793100  1
  O  O27  1  0.03943700  0.16403400  0.90809200  1
  O  O28  1  0.46056300  0.16403400  0.90809200  1
  O  O29  1  0.43003100  0.24107500  0.53784600  1
  O  O30  1  0.06996900  0.24107500  0.53784600  1
  O  O31  1  0.75000000  0.28895300  0.43577200  1
  O  O32  1  0.43232700  0.02359000  0.75661200  1
  O  O33  1  0.06767300  0.02359000  0.75661200  1
  O  O34  1  0.96583000  0.13295400  0.37157000  1
  O  O35  1  0.53417000  0.13295400  0.37157000  1
  O  O36  1  0.75000000  0.18957400  0.03019700  1
  O  O37  1  0.44524100  0.22236500  0.12348600  1
  O  O38  1  0.05475900  0.22236500  0.12348600  1
  O  O39  1  0.25000000  0.04825800  0.29376100  1
loop_
_geom_bond_atom_site_label_1
_geom_bond_atom_site_label_2
_geom_bond_distance
_geom_bond_site_symmetry_2
Li0 O9 2.087237 1_555
Li0 O10 2.087237 1_555
Li0 O6 2.128766 1_555
Li0 O7 2.128766 1_555
Li1 O6 2.070182 1_555
Li1 O7 2.070182 1_555
Li1 O36 2.213254 1_565
Li1 O11 2.295241 1_555
Li1 O12 2.295241 1_555
Li2 O1 2.169800 1_555
Li2 O2 2.169800 1_555
Li2 O14 2.500787 1_555
Li2 O13 2.500787 1_555
Li3 O19 2.109684 1_555
Li3 O18 2.109684 1_555
Li3 O9 2.114224 1_555
Li3 O10 2.114224 1_555
Li4 O20 2.109684 1_555
Li4 O21 2.109684 1_555
Li4 O29 2.114224 1_555
Li4 O30 2.114224 1_555
Li5 O37 2.169800 1_555
Li5 O38 2.169800 1_555
Li5 O25 2.500787 1_555
Li5 O26 2.500787 1_555
Li6 O32 2.070182 1_555
Li6 O33 2.070182 1_555
Li6 O3 2.213254 1_545
Li6 O28 2.295241 1_555
Li6 O27 2.295241 1_555
Li7 O29 2.087237 1_555
Li7 O30 2.087237 1_555
Li7 O32 2.128766 1_555
Li7 O33 2.128766 1_555
Co0 O18 1.951943 1_555
Co0 O11 1.953146 1_555
Co0 O6 1.992716 1_555
Co0 O9 2.006435 1_555
Co1 O19 1.951943 1_555
Co1 O12 1.953146 1_555
Co1 O7 1.992716 1_555
Co1 O10 2.006435 1_555
Co2 O20 1.951943 1_555
Co2 O28 1.953146 1_555
Co2 O32 1.992716 1_555
Co2 O29 2.006435 1_555
Co3 O21 1.951943 1_555
Co3 O27 1.953146 1_555
Co3 O33 1.992716 1_555
Co3 O30 2.006435 1_555
O0 Si0 1.639727 1_555
O0 Si1 1.639727 1_555
O1 Si5 1.668597 1_656
O1 Si0 1.676922 1_555
O2 Si4 1.668597 1_556
O2 Si1 1.676922 1_555
O3 Si5 1.655922 1_556
O3 Si4 1.655922 1_556
O4 Si1 1.640342 1_555
O4 Si3 1.642782 1_555
O5 Si0 1.640342 1_455
O5 Si2 1.642782 1_555
O6 Si15 1.598823 1_665
O7 Si14 1.598823 1_565
O8 Si3 1.645753 1_555
O8 Si2 1.645753 1_555
O9 Si2 1.602762 1_655
O10 Si3 1.602762 1_555
O11 Si5 1.600241 1_655
O12 Si4 1.600241 1_555
O13 Si6 1.657234 1_555
O13 Si3 1.671045 1_555
O14 Si7 1.657234 1_655
O14 Si2 1.671045 1_655
O15 Si6 1.647250 1_555
O15 Si7 1.647250 1_555
O16 Si10 1.655597 1_555
O16 Si7 1.656381 1_655
O17 Si11 1.655597 1_555
O17 Si6 1.656381 1_555
O18 Si8 1.607551 1_555
O19 Si9 1.607551 1_555
O20 Si6 1.607551 1_555
O21 Si7 1.607551 1_555
O22 Si4 1.655597 1_555
O22 Si9 1.656381 1_555
O23 Si5 1.655597 1_555
O23 Si8 1.656381 1_455
O24 Si8 1.647250 1_555
O24 Si9 1.647250 1_555
O25 Si9 1.657234 1_555
O25 Si13 1.671045 1_555
O26 Si8 1.657234 1_455
O26 Si12 1.671045 1_455
O27 Si10 1.600241 1_455
O28 Si11 1.600241 1_555
O29 Si13 1.602762 1_555
O30 Si12 1.602762 1_455
O31 Si12 1.645753 1_555
O31 Si13 1.645753 1_555
O32 Si1 1.598823 1_545
O33 Si0 1.598823 1_445
O34 Si15 1.640342 1_655
O34 Si12 1.642782 1_555
O35 Si14 1.640342 1_555
O35 Si13 1.642782 1_555
O36 Si11 1.655922 1_554
O36 Si10 1.655922 1_554
O37 Si11 1.668597 1_554
O37 Si14 1.676922 1_555
O38 Si10 1.668597 1_454
O38 Si15 1.676922 1_555
O39 Si14 1.639727 1_555
O39 Si15 1.639727 1_555
