# generated using pymatgen
data_Li2Cr3SbO8
_symmetry_space_group_name_H-M   'P 1'
_cell_length_a   8.54076400
_cell_length_b   8.54076400
_cell_length_c   8.54076400
_cell_angle_alpha   90.00000000
_cell_angle_beta   90.00000000
_cell_angle_gamma   90.00000000
_symmetry_Int_Tables_number   1
_chemical_formula_structural   Li2Cr3SbO8
_chemical_formula_sum   'Li8 Cr12 Sb4 O32'
_cell_volume   623.00303818
_cell_formula_units_Z   4
loop_
 _symmetry_equiv_pos_site_id
 _symmetry_equiv_pos_as_xyz
  1  'x, y, z'
loop_
 _atom_site_type_symbol
 _atom_site_label
 _atom_site_symmetry_multiplicity
 _atom_site_fract_x
 _atom_site_fract_y
 _atom_site_fract_z
 _atom_site_occupancy
  Li  Li0  1  0.49688700  0.49688700  0.49688700  1
  Li  Li1  1  0.75311300  0.75311300  0.75311300  1
  Li  Li2  1  0.74688700  0.24688700  0.25311300  1
  Li  Li3  1  0.00311300  0.50311300  0.99688700  1
  Li  Li4  1  0.99688700  0.00311300  0.50311300  1
  Li  Li5  1  0.25311300  0.74688700  0.24688700  1
  Li  Li6  1  0.24688700  0.25311300  0.74688700  1
  Li  Li7  1  0.50311300  0.99688700  0.00311300  1
  Cr  Cr0  1  0.62053600  0.62946400  0.12500000  1
  Cr  Cr1  1  0.62500000  0.87946400  0.37053600  1
  Cr  Cr2  1  0.62946400  0.12500000  0.62053600  1
  Cr  Cr3  1  0.87053600  0.87500000  0.12053600  1
  Cr  Cr4  1  0.87500000  0.12053600  0.87053600  1
  Cr  Cr5  1  0.87946400  0.37053600  0.62500000  1
  Cr  Cr6  1  0.12053600  0.87053600  0.87500000  1
  Cr  Cr7  1  0.12500000  0.62053600  0.62946400  1
  Cr  Cr8  1  0.12946400  0.37500000  0.37946400  1
  Cr  Cr9  1  0.37053600  0.62500000  0.87946400  1
  Cr  Cr10  1  0.37500000  0.37946400  0.12946400  1
  Cr  Cr11  1  0.37946400  0.12946400  0.37500000  1
  Sb  Sb0  1  0.62500000  0.37500000  0.87500000  1
  Sb  Sb1  1  0.87500000  0.62500000  0.37500000  1
  Sb  Sb2  1  0.12500000  0.12500000  0.12500000  1
  Sb  Sb3  1  0.37500000  0.87500000  0.62500000  1
  O  O0  1  0.61258200  0.61154800  0.88653900  1
  O  O1  1  0.61346100  0.38741800  0.11154800  1
  O  O2  1  0.61215700  0.11215700  0.38784300  1
  O  O3  1  0.63845200  0.63741800  0.36346100  1
  O  O4  1  0.61154800  0.88653900  0.61258200  1
  O  O5  1  0.63784300  0.86215700  0.13784300  1
  O  O6  1  0.63653900  0.13845200  0.86258200  1
  O  O7  1  0.63741800  0.36346100  0.63845200  1
  O  O8  1  0.86258200  0.63653900  0.13845200  1
  O  O9  1  0.86346100  0.86154800  0.36258200  1
  O  O10  1  0.86215700  0.13784300  0.63784300  1
  O  O11  1  0.88845200  0.11346100  0.11258200  1
  O  O12  1  0.86154800  0.36258200  0.86346100  1
  O  O13  1  0.88784300  0.88784300  0.88784300  1
  O  O14  1  0.88653900  0.61258200  0.61154800  1
  O  O15  1  0.88741800  0.38845200  0.38653900  1
  O  O16  1  0.11258200  0.88845200  0.11346100  1
  O  O17  1  0.11346100  0.11258200  0.88845200  1
  O  O18  1  0.11215700  0.38784300  0.61215700  1
  O  O19  1  0.13845200  0.86258200  0.63653900  1
  O  O20  1  0.11154800  0.61346100  0.38741800  1
  O  O21  1  0.13784300  0.63784300  0.86215700  1
  O  O22  1  0.13653900  0.36154800  0.13741800  1
  O  O23  1  0.13741800  0.13653900  0.36154800  1
  O  O24  1  0.36258200  0.86346100  0.86154800  1
  O  O25  1  0.36346100  0.63845200  0.63741800  1
  O  O26  1  0.36215700  0.36215700  0.36215700  1
  O  O27  1  0.38845200  0.38653900  0.88741800  1
  O  O28  1  0.36154800  0.13741800  0.13653900  1
  O  O29  1  0.38784300  0.61215700  0.11215700  1
  O  O30  1  0.38653900  0.88741800  0.38845200  1
  O  O31  1  0.38741800  0.11154800  0.61346100  1
loop_
_geom_bond_atom_site_label_1
_geom_bond_atom_site_label_2
_geom_bond_distance
_geom_bond_site_symmetry_2
Li0 O26 1.993066 1_555
Li0 O3 2.049643 1_555
Li0 O7 2.049643 1_555
Li0 O25 2.049643 1_555
Li1 O13 1.993066 1_555
Li1 O4 2.049643 1_555
Li1 O0 2.049643 1_555
Li1 O14 2.049643 1_555
Li2 O2 1.993066 1_555
Li2 O1 2.049643 1_555
Li2 O11 2.049643 1_555
Li2 O15 2.049643 1_555
Li3 O21 1.993066 1_555
Li3 O12 2.049643 1_455
Li3 O8 2.049643 1_456
Li3 O22 2.049643 1_556
Li4 O10 1.993066 1_555
Li4 O9 2.049643 1_545
Li4 O19 2.049643 1_645
Li4 O23 2.049643 1_655
Li5 O29 1.993066 1_555
Li5 O20 2.049643 1_555
Li5 O16 2.049643 1_555
Li5 O30 2.049643 1_555
Li6 O18 1.993066 1_555
Li6 O17 2.049643 1_555
Li6 O31 2.049643 1_555
Li6 O27 2.049643 1_555
Li7 O5 1.993066 1_555
Li7 O24 2.049643 1_554
Li7 O6 2.049643 1_564
Li7 O28 2.049643 1_565
Cr0 O5 1.995882 1_555
Cr0 O29 1.995882 1_555
Cr0 O3 2.043509 1_555
Cr0 O0 2.043509 1_554
Cr0 O8 2.071329 1_555
Cr0 O1 2.071329 1_555
Cr1 O5 1.995882 1_555
Cr1 O2 1.995882 1_565
Cr1 O30 2.043509 1_555
Cr1 O9 2.043509 1_555
Cr1 O4 2.071329 1_555
Cr1 O3 2.071329 1_555
Cr2 O10 1.995882 1_555
Cr2 O2 1.995882 1_555
Cr2 O7 2.043509 1_555
Cr2 O4 2.043509 1_545
Cr2 O6 2.071329 1_555
Cr2 O31 2.071329 1_555
Cr3 O5 1.995882 1_555
Cr3 O13 1.995882 1_554
Cr3 O11 2.043509 1_565
Cr3 O8 2.043509 1_555
Cr3 O16 2.071329 1_655
Cr3 O9 2.071329 1_555
Cr4 O10 1.995882 1_555
Cr4 O13 1.995882 1_545
Cr4 O17 2.043509 1_655
Cr4 O6 2.043509 1_555
Cr4 O11 2.071329 1_556
Cr4 O12 2.071329 1_555
Cr5 O10 1.995882 1_555
Cr5 O18 1.995882 1_655
Cr5 O15 2.043509 1_555
Cr5 O12 2.043509 1_555
Cr5 O7 2.071329 1_555
Cr5 O14 2.071329 1_555
Cr6 O21 1.995882 1_555
Cr6 O13 1.995882 1_455
Cr6 O16 2.043509 1_556
Cr6 O19 2.043509 1_555
Cr6 O17 2.071329 1_565
Cr6 O24 2.071329 1_555
Cr7 O21 1.995882 1_555
Cr7 O18 1.995882 1_555
Cr7 O25 2.043509 1_555
Cr7 O14 2.043509 1_455
Cr7 O19 2.071329 1_555
Cr7 O20 2.071329 1_555
Cr8 O18 1.995882 1_555
Cr8 O26 1.995882 1_555
Cr8 O20 2.043509 1_555
Cr8 O23 2.043509 1_555
Cr8 O15 2.071329 1_455
Cr8 O22 2.071329 1_555
Cr9 O21 1.995882 1_555
Cr9 O29 1.995882 1_556
Cr9 O27 2.043509 1_555
Cr9 O24 2.043509 1_555
Cr9 O0 2.071329 1_555
Cr9 O25 2.071329 1_555
Cr10 O29 1.995882 1_555
Cr10 O26 1.995882 1_555
Cr10 O22 2.043509 1_555
Cr10 O1 2.043509 1_555
Cr10 O27 2.071329 1_554
Cr10 O28 2.071329 1_555
Cr11 O2 1.995882 1_555
Cr11 O26 1.995882 1_555
Cr11 O31 2.043509 1_555
Cr11 O28 2.043509 1_555
Cr11 O30 2.071329 1_545
Cr11 O23 2.071329 1_555
O0 Sb0 2.025482 1_555
O1 Sb0 2.025482 1_554
O3 Sb1 2.025482 1_555
O4 Sb3 2.025482 1_555
O6 Sb0 2.025482 1_555
O7 Sb0 2.025482 1_555
O8 Sb1 2.025482 1_555
O9 Sb1 2.025482 1_555
O11 Sb2 2.025482 1_655
O12 Sb0 2.025482 1_555
O14 Sb1 2.025482 1_555
O15 Sb1 2.025482 1_555
O16 Sb2 2.025482 1_565
O17 Sb2 2.025482 1_556
O19 Sb3 2.025482 1_555
O20 Sb1 2.025482 1_455
O22 Sb2 2.025482 1_555
O23 Sb2 2.025482 1_555
O24 Sb3 2.025482 1_555
O25 Sb3 2.025482 1_555
O27 Sb0 2.025482 1_555
O28 Sb2 2.025482 1_555
O30 Sb3 2.025482 1_555
O31 Sb3 2.025482 1_545
