# generated using pymatgen
data_HS2IO8
_symmetry_space_group_name_H-M   'P 1'
_cell_length_a   6.36838000
_cell_length_b   9.77857300
_cell_length_c   11.95346987
_cell_angle_alpha   73.32620232
_cell_angle_beta   90.00000000
_cell_angle_gamma   90.00000000
_symmetry_Int_Tables_number   1
_chemical_formula_structural   HS2IO8
_chemical_formula_sum   'H4 S8 I4 O32'
_cell_volume   713.08780950
_cell_formula_units_Z   4
loop_
 _symmetry_equiv_pos_site_id
 _symmetry_equiv_pos_as_xyz
  1  'x, y, z'
loop_
 _atom_site_type_symbol
 _atom_site_label
 _atom_site_symmetry_multiplicity
 _atom_site_fract_x
 _atom_site_fract_y
 _atom_site_fract_z
 _atom_site_occupancy
  H  H0  1  0.19586300  0.32291900  0.40716300  1
  H  H1  1  0.30413700  0.82291900  0.40716300  1
  H  H2  1  0.69586300  0.17708100  0.59283700  1
  H  H3  1  0.80413700  0.67708100  0.59283700  1
  S  S0  1  0.10878400  0.31991900  0.10771000  1
  S  S1  1  0.39121600  0.81991900  0.10771000  1
  S  S2  1  0.52579400  0.37342200  0.38457700  1
  S  S3  1  0.97420600  0.87342200  0.38457700  1
  S  S4  1  0.02579400  0.12657800  0.61542300  1
  S  S5  1  0.47420600  0.62657800  0.61542300  1
  S  S6  1  0.60878400  0.18008100  0.89229000  1
  S  S7  1  0.89121600  0.68008100  0.89229000  1
  I  I0  1  0.58908500  0.25722800  0.16421600  1
  I  I1  1  0.91091500  0.75722800  0.16421600  1
  I  I2  1  0.08908500  0.24277200  0.83578400  1
  I  I3  1  0.41091500  0.74277200  0.83578400  1
  O  O0  1  0.01044100  0.24288400  0.02893000  1
  O  O1  1  0.21284400  0.45207500  0.05200800  1
  O  O2  1  0.48955900  0.74288400  0.02893000  1
  O  O3  1  0.28059400  0.20674300  0.18035700  1
  O  O4  1  0.28715600  0.95207500  0.05200800  1
  O  O5  1  0.94851200  0.32467800  0.19655800  1
  O  O6  1  0.21940600  0.70674300  0.18035700  1
  O  O7  1  0.55148800  0.82467800  0.19655800  1
  O  O8  1  0.57648200  0.23788700  0.33849700  1
  O  O9  1  0.63674400  0.49617900  0.31770200  1
  O  O10  1  0.28691500  0.40254600  0.35846600  1
  O  O11  1  0.92351800  0.73788700  0.33849700  1
  O  O12  1  0.05920800  0.18162800  0.49060100  1
  O  O13  1  0.86325600  0.99617900  0.31770200  1
  O  O14  1  0.21308500  0.90254600  0.35846600  1
  O  O15  1  0.55920800  0.31837200  0.50939900  1
  O  O16  1  0.44079200  0.68162800  0.49060100  1
  O  O17  1  0.78691500  0.09745400  0.64153400  1
  O  O18  1  0.13674400  0.00382100  0.68229800  1
  O  O19  1  0.94079200  0.81837200  0.50939900  1
  O  O20  1  0.07648200  0.26211300  0.66150300  1
  O  O21  1  0.71308500  0.59745400  0.64153400  1
  O  O22  1  0.36325600  0.50382100  0.68229800  1
  O  O23  1  0.42351800  0.76211300  0.66150300  1
  O  O24  1  0.44851200  0.17532200  0.80344200  1
  O  O25  1  0.78059400  0.29325700  0.81964300  1
  O  O26  1  0.05148800  0.67532200  0.80344200  1
  O  O27  1  0.71284400  0.04792500  0.94799200  1
  O  O28  1  0.71940600  0.79325700  0.81964300  1
  O  O29  1  0.51044100  0.25711600  0.97107000  1
  O  O30  1  0.78715600  0.54792500  0.94799200  1
  O  O31  1  0.98955900  0.75711600  0.97107000  1
loop_
_geom_bond_atom_site_label_1
_geom_bond_atom_site_label_2
_geom_bond_distance
_geom_bond_site_symmetry_2
H0 O10 1.010571 1_555
H0 O12 1.694183 1_555
H1 O14 1.010571 1_555
H1 O16 1.694183 1_555
H2 O17 1.010571 1_555
H2 O15 1.694183 1_555
H3 O21 1.010571 1_555
H3 O19 1.694183 1_555
I0 O3 2.021357 1_555
I0 O8 2.038651 1_555
I0 O29 2.362770 1_554
I0 O5 2.443395 1_555
I1 O6 2.021357 1_655
I1 O11 2.038651 1_555
I1 O31 2.362770 1_554
I1 O7 2.443395 1_555
I2 O25 2.021357 1_455
I2 O20 2.038651 1_555
I2 O0 2.362770 1_556
I2 O24 2.443395 1_555
I3 O28 2.021357 1_555
I3 O23 2.038651 1_555
I3 O2 2.362770 1_556
I3 O26 2.443395 1_555
O0 S0 1.501180 1_555
O1 S0 1.434838 1_555
O2 S1 1.501180 1_555
O3 S0 1.620048 1_555
O4 S1 1.434838 1_555
O5 S0 1.483318 1_655
O6 S1 1.620048 1_555
O7 S1 1.483318 1_555
O8 S2 1.607183 1_555
O9 S2 1.424272 1_555
O10 S2 1.562621 1_555
O11 S3 1.607183 1_555
O12 S4 1.449270 1_555
O13 S3 1.424272 1_555
O14 S3 1.562621 1_455
O15 S2 1.449270 1_555
O16 S5 1.449270 1_555
O17 S4 1.562621 1_655
O18 S4 1.424272 1_555
O19 S3 1.449270 1_555
O20 S4 1.607183 1_555
O21 S5 1.562621 1_555
O22 S5 1.424272 1_555
O23 S5 1.607183 1_555
O24 S6 1.483318 1_555
O25 S6 1.620048 1_555
O26 S7 1.483318 1_455
O27 S6 1.434838 1_555
O28 S7 1.620048 1_555
O29 S6 1.501180 1_555
O30 S7 1.434838 1_555
O31 S7 1.501180 1_555
