# generated using pymatgen
data_Li8MgCo13O28
_symmetry_space_group_name_H-M   'P 1'
_cell_length_a   7.70716200
_cell_length_b   8.29792561
_cell_length_c   8.78748430
_cell_angle_alpha   102.49231471
_cell_angle_beta   104.31882788
_cell_angle_gamma   104.77899780
_symmetry_Int_Tables_number   1
_chemical_formula_structural   Li8MgCo13O28
_chemical_formula_sum   'Li8 Mg1 Co13 O28'
_cell_volume   502.55855290
_cell_formula_units_Z   1
loop_
 _symmetry_equiv_pos_site_id
 _symmetry_equiv_pos_as_xyz
  1  'x, y, z'
loop_
 _atom_site_type_symbol
 _atom_site_label
 _atom_site_symmetry_multiplicity
 _atom_site_fract_x
 _atom_site_fract_y
 _atom_site_fract_z
 _atom_site_occupancy
  Li  Li0  1  0.51277100  0.00439400  0.49465500  1
  Li  Li1  1  0.22089600  0.15087000  0.35319400  1
  Li  Li2  1  0.92801800  0.28658400  0.21772800  1
  Li  Li3  1  0.64178300  0.42708600  0.07455700  1
  Li  Li4  1  0.35758900  0.56783200  0.92856300  1
  Li  Li5  1  0.06419300  0.70740800  0.78795800  1
  Li  Li6  1  0.77128100  0.85124000  0.64337600  1
  Li  Li7  1  0.14417000  0.92682300  0.57376400  1
  Mg  Mg0  1  0.49963200  0.50064300  0.50152000  1
  Co  Co0  1  0.70698500  0.13790200  0.85301600  1
  Co  Co1  1  0.35980700  0.07578200  0.93595200  1
  Co  Co2  1  0.00839100  0.00344700  0.00173200  1
  Co  Co3  1  0.06683000  0.21781500  0.78932100  1
  Co  Co4  1  0.42345600  0.28131900  0.71419000  1
  Co  Co5  1  0.78229200  0.35675900  0.63884000  1
  Co  Co6  1  0.14030100  0.42739900  0.57168300  1
  Co  Co7  1  0.85908800  0.57700000  0.43029500  1
  Co  Co8  1  0.21677400  0.63831600  0.35227800  1
  Co  Co9  1  0.57670800  0.71659200  0.28652500  1
  Co  Co10  1  0.93013200  0.78528800  0.21423600  1
  Co  Co11  1  0.64311700  0.92595400  0.06651600  1
  Co  Co12  1  0.28911700  0.85982000  0.14225400  1
  O  O0  1  0.92690900  0.01528000  0.18901400  1
  O  O1  1  0.99899600  0.22274600  0.98869900  1
  O  O2  1  0.42242500  0.05527100  0.71906100  1
  O  O3  1  0.78409800  0.11399900  0.66539700  1
  O  O4  1  0.64270100  0.16783400  0.04852300  1
  O  O5  1  0.28661000  0.08445400  0.13776400  1
  O  O6  1  0.35478200  0.30524200  0.90744500  1
  O  O7  1  0.68757300  0.35598200  0.84093700  1
  O  O8  1  0.50621500  0.26090700  0.52936100  1
  O  O9  1  0.15828300  0.20012000  0.59180300  1
  O  O10  1  0.88005300  0.35525800  0.44513600  1
  O  O11  1  0.05971500  0.44831900  0.76066000  1
  O  O12  1  0.78894200  0.59632700  0.61831500  1
  O  O13  1  0.39706100  0.49844700  0.70116100  1
  O  O14  1  0.60331300  0.50215200  0.30197100  1
  O  O15  1  0.20822400  0.40355300  0.38144600  1
  O  O16  1  0.93744400  0.55903400  0.23865100  1
  O  O17  1  0.12243300  0.65343500  0.55476800  1
  O  O18  1  0.84246200  0.80090800  0.41924400  1
  O  O19  1  0.48985500  0.73934000  0.46814100  1
  O  O20  1  0.31073900  0.63942300  0.15651600  1
  O  O21  1  0.66173700  0.69637200  0.10152900  1
  O  O22  1  0.71388700  0.91742800  0.86687800  1
  O  O23  1  0.35955200  0.83717500  0.95276900  1
  O  O24  1  0.20121100  0.87903800  0.33196000  1
  O  O25  1  0.55195900  0.93367000  0.26310500  1
  O  O26  1  0.02860400  0.78638800  0.01595200  1
  O  O27  1  0.07392200  0.97412200  0.80314000  1
loop_
_geom_bond_atom_site_label_1
_geom_bond_atom_site_label_2
_geom_bond_distance
_geom_bond_site_symmetry_2
Li0 O3 2.082955 1_555
Li0 O8 2.099487 1_555
Li0 O25 2.110359 1_545
Li0 O19 2.117216 1_545
Li0 O2 2.240697 1_555
Li0 O24 2.296997 1_545
Li1 O5 2.075890 1_555
Li1 O15 2.087770 1_555
Li1 O8 2.178555 1_555
Li1 O24 2.185195 1_545
Li1 O0 2.204869 1_455
Li1 O9 2.242039 1_555
Li2 O10 2.105944 1_555
Li2 O15 2.113146 1_655
Li2 O4 2.158872 1_555
Li2 O1 2.204896 1_554
Li2 O0 2.208004 1_555
Li2 O16 2.209058 1_555
Li3 O14 2.078047 1_555
Li3 O4 2.115640 1_555
Li3 O7 2.151227 1_554
Li3 O21 2.156482 1_555
Li3 O6 2.163675 1_554
Li3 O16 2.211199 1_555
Li4 O13 2.075940 1_555
Li4 O20 2.109081 1_556
Li4 O6 2.140507 1_555
Li4 O23 2.194570 1_555
Li4 O11 2.227315 1_555
Li4 O21 2.281113 1_556
Li5 O26 2.077071 1_556
Li5 O11 2.101369 1_555
Li5 O12 2.101415 1_455
Li5 O27 2.168918 1_555
Li5 O17 2.182106 1_555
Li5 O23 2.209739 1_555
Li6 O22 2.107535 1_555
Li6 O3 2.121151 1_565
Li6 O12 2.121674 1_555
Li6 O19 2.154018 1_555
Li6 O18 2.156394 1_555
Li6 O27 2.235804 1_655
Li7 O2 2.063026 1_565
Li7 O27 2.194522 1_555
Li7 O17 2.197888 1_555
Li7 O9 2.211328 1_565
Li7 O18 2.219784 1_455
Li7 O24 2.247659 1_555
Mg0 O12 2.065884 1_555
Mg0 O8 2.067775 1_555
Mg0 O19 2.081201 1_555
Mg0 O15 2.084113 1_555
Mg0 O13 2.096535 1_555
Mg0 O14 2.100254 1_555
Co0 O22 1.872834 1_545
Co0 O3 1.874596 1_555
Co0 O7 1.876623 1_555
Co0 O4 1.886249 1_556
Co0 O2 2.066966 1_555
Co0 O1 2.117438 1_555
Co1 O6 1.982119 1_555
Co1 O5 1.982124 1_556
Co1 O23 2.016620 1_545
Co1 O4 2.018013 1_556
Co1 O2 2.061789 1_555
Co1 O27 2.069384 1_545
Co2 O1 1.866293 1_454
Co2 O26 1.874801 1_545
Co2 O0 1.893472 1_455
Co2 O27 1.916953 1_544
Co2 O5 2.031715 1_555
Co2 O22 2.131379 1_444
Co3 O1 1.943602 1_455
Co3 O11 1.994985 1_555
Co3 O9 2.019566 1_555
Co3 O3 2.034455 1_455
Co3 O6 2.059704 1_555
Co3 O27 2.065466 1_545
Co4 O8 1.876705 1_555
Co4 O2 1.883495 1_555
Co4 O6 1.885702 1_555
Co4 O13 1.888219 1_555
Co4 O9 1.919437 1_555
Co4 O7 1.924737 1_555
Co5 O8 1.969411 1_555
Co5 O11 1.995510 1_655
Co5 O12 2.023531 1_555
Co5 O10 2.023669 1_555
Co5 O3 2.080517 1_555
Co5 O7 2.081031 1_555
Co6 O15 1.857527 1_555
Co6 O13 1.886541 1_555
Co6 O11 1.901065 1_555
Co6 O10 1.901118 1_455
Co6 O17 1.949695 1_555
Co6 O9 1.967926 1_555
Co7 O12 1.849125 1_555
Co7 O14 1.875150 1_555
Co7 O17 1.913933 1_655
Co7 O16 1.913995 1_555
Co7 O18 1.916057 1_555
Co7 O10 1.916711 1_555
Co8 O19 1.959519 1_555
Co8 O16 1.998624 1_455
Co8 O15 2.005940 1_555
Co8 O20 2.025710 1_555
Co8 O17 2.073769 1_555
Co8 O24 2.074169 1_555
Co9 O19 1.869044 1_555
Co9 O14 1.871798 1_555
Co9 O21 1.888227 1_555
Co9 O25 1.907790 1_555
Co9 O20 1.942332 1_555
Co9 O18 1.944009 1_555
Co10 O21 1.922521 1_555
Co10 O24 1.947796 1_655
Co10 O16 1.948394 1_555
Co10 O0 1.973930 1_565
Co10 O18 2.065074 1_555
Co10 O26 2.066286 1_655
Co11 O22 1.954334 1_554
Co11 O25 2.014318 1_555
Co11 O23 2.024264 1_554
Co11 O21 2.028720 1_555
Co11 O0 2.038441 1_565
Co11 O4 2.047875 1_565
Co12 O23 1.861809 1_554
Co12 O5 1.877825 1_565
Co12 O26 1.901430 1_555
Co12 O25 1.904745 1_555
Co12 O20 1.905896 1_555
Co12 O24 1.939647 1_555
