# generated using pymatgen
data_Li(BiO2)2
_symmetry_space_group_name_H-M   'P 1'
_cell_length_a   8.20971300
_cell_length_b   8.20971300
_cell_length_c   6.11689800
_cell_angle_alpha   90.00000000
_cell_angle_beta   90.00000000
_cell_angle_gamma   90.00000000
_symmetry_Int_Tables_number   1
_chemical_formula_structural   Li(BiO2)2
_chemical_formula_sum   'Li4 Bi8 O16'
_cell_volume   412.27517886
_cell_formula_units_Z   4
loop_
 _symmetry_equiv_pos_site_id
 _symmetry_equiv_pos_as_xyz
  1  'x, y, z'
loop_
 _atom_site_type_symbol
 _atom_site_label
 _atom_site_symmetry_multiplicity
 _atom_site_fract_x
 _atom_site_fract_y
 _atom_site_fract_z
 _atom_site_occupancy
  Li  Li0  1  0.50000000  0.00000000  0.05670400  1
  Li  Li1  1  0.50000000  0.00000000  0.55670400  1
  Li  Li2  1  0.00000000  0.50000000  0.94329600  1
  Li  Li3  1  0.00000000  0.50000000  0.44329600  1
  Bi  Bi0  1  0.17571800  0.17571800  0.25000000  1
  Bi  Bi1  1  0.82428200  0.17571800  0.75000000  1
  Bi  Bi2  1  0.32428200  0.32428200  0.75000000  1
  Bi  Bi3  1  0.67571800  0.32428200  0.25000000  1
  Bi  Bi4  1  0.32428200  0.67571800  0.25000000  1
  Bi  Bi5  1  0.67571800  0.67571800  0.75000000  1
  Bi  Bi6  1  0.17571800  0.82428200  0.75000000  1
  Bi  Bi7  1  0.82428200  0.82428200  0.25000000  1
  O  O0  1  0.27162000  0.08573200  0.58921200  1
  O  O1  1  0.72838000  0.08573200  0.08921200  1
  O  O2  1  0.41426800  0.22838000  0.08921200  1
  O  O3  1  0.58573200  0.22838000  0.58921200  1
  O  O4  1  0.08573200  0.27162000  0.91078800  1
  O  O5  1  0.91426800  0.27162000  0.41078800  1
  O  O6  1  0.22838000  0.41426800  0.41078800  1
  O  O7  1  0.77162000  0.41426800  0.91078800  1
  O  O8  1  0.22838000  0.58573200  0.91078800  1
  O  O9  1  0.77162000  0.58573200  0.41078800  1
  O  O10  1  0.08573200  0.72838000  0.41078800  1
  O  O11  1  0.91426800  0.72838000  0.91078800  1
  O  O12  1  0.41426800  0.77162000  0.58921200  1
  O  O13  1  0.58573200  0.77162000  0.08921200  1
  O  O14  1  0.27162000  0.91426800  0.08921200  1
  O  O15  1  0.72838000  0.91426800  0.58921200  1
loop_
_geom_bond_atom_site_label_1
_geom_bond_atom_site_label_2
_geom_bond_distance
_geom_bond_site_symmetry_2
Li0 O13 2.012536 1_545
Li0 O14 2.012536 1_545
Li0 O1 2.012536 1_555
Li0 O2 2.012536 1_555
Li1 O3 2.012536 1_555
Li1 O0 2.012536 1_555
Li1 O15 2.012536 1_545
Li1 O12 2.012536 1_545
Li2 O8 2.012536 1_555
Li2 O4 2.012536 1_555
Li2 O11 2.012536 1_455
Li2 O7 2.012536 1_455
Li3 O9 2.012536 1_455
Li3 O10 2.012536 1_555
Li3 O5 2.012536 1_455
Li3 O6 2.012536 1_555
Bi0 O6 2.233758 1_555
Bi0 O2 2.233758 1_555
Bi0 O0 2.339009 1_555
Bi0 O4 2.339009 1_554
Bi0 O14 2.488848 1_545
Bi0 O5 2.488848 1_455
Bi1 O7 2.233758 1_555
Bi1 O3 2.233758 1_555
Bi1 O1 2.339009 1_556
Bi1 O5 2.339009 1_555
Bi1 O15 2.488848 1_545
Bi1 O4 2.488848 1_655
Bi2 O4 2.233758 1_555
Bi2 O0 2.233758 1_555
Bi2 O6 2.339009 1_555
Bi2 O2 2.339009 1_556
Bi2 O8 2.488848 1_555
Bi2 O3 2.488848 1_555
Bi3 O1 2.233758 1_555
Bi3 O5 2.233758 1_555
Bi3 O3 2.339009 1_555
Bi3 O7 2.339009 1_554
Bi3 O2 2.488848 1_555
Bi3 O9 2.488848 1_555
Bi4 O10 2.233758 1_555
Bi4 O14 2.233758 1_555
Bi4 O8 2.339009 1_554
Bi4 O12 2.339009 1_555
Bi4 O6 2.488848 1_555
Bi4 O13 2.488848 1_555
Bi5 O11 2.233758 1_555
Bi5 O15 2.233758 1_555
Bi5 O13 2.339009 1_556
Bi5 O9 2.339009 1_555
Bi5 O7 2.488848 1_555
Bi5 O12 2.488848 1_555
Bi6 O12 2.233758 1_555
Bi6 O8 2.233758 1_555
Bi6 O10 2.339009 1_555
Bi6 O14 2.339009 1_556
Bi6 O11 2.488848 1_455
Bi6 O0 2.488848 1_565
Bi7 O13 2.233758 1_555
Bi7 O9 2.233758 1_555
Bi7 O15 2.339009 1_555
Bi7 O11 2.339009 1_554
Bi7 O10 2.488848 1_655
Bi7 O1 2.488848 1_565
