# generated using pymatgen
data_Li2S
_symmetry_space_group_name_H-M   'P 1'
_cell_length_a   36.82345544
_cell_length_b   36.82345544
_cell_length_c   36.82345536
_cell_angle_alpha   6.22105896
_cell_angle_beta   6.22105896
_cell_angle_gamma   6.22105889
_symmetry_Int_Tables_number   1
_chemical_formula_structural   Li2S
_chemical_formula_sum   'Li22 S11'
_cell_volume   508.28435310
_cell_formula_units_Z   11
loop_
 _symmetry_equiv_pos_site_id
 _symmetry_equiv_pos_as_xyz
  1  'x, y, z'
loop_
 _atom_site_type_symbol
 _atom_site_label
 _atom_site_symmetry_multiplicity
 _atom_site_fract_x
 _atom_site_fract_y
 _atom_site_fract_z
 _atom_site_occupancy
  Li  Li0  1  0.67483900  0.67590200  0.68592100  1
  Li  Li1  1  0.03283500  0.04115500  0.05627300  1
  Li  Li2  1  0.01188700  0.03621200  0.01900800  1
  Li  Li3  1  0.37955300  0.39985000  0.37809100  1
  Li  Li4  1  0.41139200  0.41322100  0.39380600  1
  Li  Li5  1  0.41925600  0.43743900  0.44197600  1
  Li  Li6  1  0.75186800  0.74036000  0.76021700  1
  Li  Li7  1  0.78478000  0.79649900  0.80631600  1
  Li  Li8  1  0.16898200  0.14698100  0.16070000  1
  Li  Li9  1  0.11755100  0.12381600  0.09983200  1
  Li  Li10  1  0.47396000  0.46782400  0.49050500  1
  Li  Li11  1  0.52324100  0.53389000  0.51157500  1
  Li  Li12  1  0.85047600  0.84334400  0.82916200  1
  Li  Li13  1  0.89523500  0.87287100  0.89128900  1
  Li  Li14  1  0.19202600  0.20671100  0.21492200  1
  Li  Li15  1  0.24422900  0.26198000  0.24450800  1
  Li  Li16  1  0.55803300  0.57146200  0.57355300  1
  Li  Li17  1  0.61973200  0.60409900  0.61820700  1
  Li  Li18  1  0.92053600  0.92953600  0.94462200  1
  Li  Li19  1  0.98096500  0.98877900  0.96435900  1
  Li  Li20  1  0.28208300  0.30139500  0.30346200  1
  Li  Li21  1  0.66748300  0.65757400  0.65149800  1
  S  S0  1  0.01391000  0.99179600  0.99788500  1
  S  S1  1  0.37252200  0.36222400  0.36041900  1
  S  S2  1  0.72854300  0.73291300  0.72241300  1
  S  S3  1  0.46538700  0.45717700  0.44170800  1
  S  S4  1  0.10378700  0.08918200  0.08001900  1
  S  S5  1  0.80764100  0.81927500  0.82777500  1
  S  S6  1  0.53474900  0.55879700  0.54167100  1
  S  S7  1  0.91565500  0.91625300  0.89433000  1
  S  S8  1  0.16777100  0.18926600  0.18787300  1
  S  S9  1  0.27854900  0.26737100  0.27024200  1
  S  S10  1  0.62252200  0.64639200  0.64005100  1
loop_
_geom_bond_atom_site_label_1
_geom_bond_atom_site_label_2
_geom_bond_distance
_geom_bond_site_symmetry_2
Li0 S0 2.556615 1_555
Li0 S0 2.628006 1_645
Li0 S0 2.639920 1_654
Li1 Li2 2.321951 1_555
Li1 Li3 2.463832 1_545
Li1 Li3 2.502347 1_455
Li1 Li3 2.580580 1_554
Li1 S1 2.589189 1_455
Li1 S1 2.645984 1_545
Li1 S1 2.696570 1_554
Li1 S2 2.985783 1_445
Li1 S2 3.053526 1_454
Li1 S2 3.063838 1_544
Li2 S0 2.336127 1_544
Li2 S1 2.470789 1_455
Li2 S1 2.532155 1_554
Li2 S1 2.580258 1_545
Li3 S1 2.291500 1_555
Li3 S2 2.480795 1_455
Li3 S2 2.495775 1_554
Li3 S2 2.531540 1_545
Li4 S2 2.612996 1_554
Li4 S2 2.640098 1_545
Li4 S2 2.647772 1_455
Li5 S3 2.412702 1_555
Li5 S4 2.429601 1_556
Li5 S4 2.474217 1_565
Li5 S4 2.577863 1_655
Li6 S4 2.389747 1_566
Li6 S4 2.400073 1_656
Li6 S4 2.494755 1_665
Li6 S2 2.520974 1_555
Li7 S3 2.385570 1_556
Li7 S5 2.465854 1_555
Li7 S3 2.468757 1_565
Li7 S3 2.532395 1_655
Li8 S5 2.377037 1_544
Li8 S5 2.470650 1_445
Li8 S5 2.487460 1_454
Li8 S8 2.509705 1_555
Li9 S3 2.436070 1_455
Li9 S3 2.455529 1_554
Li9 S3 2.483064 1_545
Li9 S4 2.507197 1_555
Li10 S5 2.415054 1_545
Li10 S5 2.461495 1_554
Li10 S5 2.473110 1_455
Li10 S3 2.501338 1_555
Li11 S8 2.421871 1_655
Li11 S6 2.444653 1_555
Li11 S8 2.457371 1_565
Li11 S8 2.524440 1_556
Li12 S8 2.385668 1_665
Li12 S8 2.428097 1_656
Li12 S5 2.511140 1_555
Li12 S8 2.520482 1_566
Li13 S6 2.411926 1_655
Li13 S6 2.447641 1_556
Li13 S7 2.457884 1_555
Li13 S6 2.560974 1_565
Li14 S6 2.401864 1_545
Li14 S6 2.432793 1_455
Li14 S6 2.484670 1_554
Li14 S8 2.526679 1_555
Li15 S9 2.405909 1_555
Li15 S7 2.448685 1_445
Li15 S7 2.463156 1_454
Li15 S7 2.518149 1_544
Li16 S7 2.406415 1_455
Li16 S7 2.448621 1_545
Li16 S6 2.493161 1_555
Li16 S7 2.525717 1_554
Li17 S10 2.460908 1_555
Li17 S9 2.476344 1_556
Li17 S9 2.498117 1_655
Li17 S9 2.512317 1_565
Li18 S9 2.381227 1_566
Li18 S9 2.447955 1_656
Li18 S9 2.487480 1_665
Li18 S7 2.517686 1_555
Li19 S10 2.431936 1_655
Li19 S10 2.484095 1_565
Li19 S10 2.541545 1_556
Li19 S0 2.554712 1_655
Li20 S10 2.431008 1_545
Li20 S10 2.445934 1_455
Li20 S10 2.458471 1_554
Li20 S9 2.602096 1_555
Li21 S10 2.485220 1_555
Li21 S0 2.499239 1_555
Li21 S0 2.499367 1_654
Li21 S0 2.537934 1_645
