# generated using pymatgen
data_Ca2CuB2(HO)12
_symmetry_space_group_name_H-M   'P 1'
_cell_length_a   5.76370300
_cell_length_b   5.79951366
_cell_length_c   8.16201640
_cell_angle_alpha   97.15762603
_cell_angle_beta   109.55099689
_cell_angle_gamma   89.81676625
_symmetry_Int_Tables_number   1
_chemical_formula_structural   Ca2CuB2(HO)12
_chemical_formula_sum   'Ca2 Cu1 B2 H12 O12'
_cell_volume   254.87895977
_cell_formula_units_Z   1
loop_
 _symmetry_equiv_pos_site_id
 _symmetry_equiv_pos_as_xyz
  1  'x, y, z'
loop_
 _atom_site_type_symbol
 _atom_site_label
 _atom_site_symmetry_multiplicity
 _atom_site_fract_x
 _atom_site_fract_y
 _atom_site_fract_z
 _atom_site_occupancy
  Ca  Ca0  1  0.77760800  0.50542400  0.76419300  1
  Ca  Ca1  1  0.22239200  0.49457600  0.23580700  1
  Cu  Cu0  1  0.00000000  0.00000000  0.00000000  1
  B  B0  1  0.24571200  0.28662800  0.59110200  1
  B  B1  1  0.75428800  0.71337200  0.40889800  1
  H  H0  1  0.47121600  0.00181500  0.61242000  1
  H  H1  1  0.04117400  0.05212000  0.37116500  1
  H  H2  1  0.43464300  0.06882600  0.09495600  1
  H  H3  1  0.20101300  0.22792800  0.82288100  1
  H  H4  1  0.70673000  0.29253200  0.04261000  1
  H  H5  1  0.80626400  0.36382800  0.38090300  1
  H  H6  1  0.19373600  0.63617200  0.61909700  1
  H  H7  1  0.29327000  0.70746800  0.95739000  1
  H  H8  1  0.79898700  0.77207200  0.17711900  1
  H  H9  1  0.56535700  0.93117400  0.90504400  1
  H  H10  1  0.95882600  0.94788000  0.62883500  1
  H  H11  1  0.52878400  0.99818500  0.38758000  1
  O  O0  1  0.48228700  0.16893200  0.64726200  1
  O  O1  1  0.09224400  0.24433600  0.70074000  1
  O  O2  1  0.09399800  0.21940500  0.40365500  1
  O  O3  1  0.30935300  0.17661800  0.04193800  1
  O  O4  1  0.85951500  0.30445700  0.01657400  1
  O  O5  1  0.67234300  0.46678700  0.38982100  1
  O  O6  1  0.32765700  0.53321300  0.61017900  1
  O  O7  1  0.14048500  0.69554300  0.98342600  1
  O  O8  1  0.69064700  0.82338200  0.95806200  1
  O  O9  1  0.90600200  0.78059500  0.59634500  1
  O  O10  1  0.90775600  0.75566400  0.29926000  1
  O  O11  1  0.51771300  0.83106800  0.35273800  1
loop_
_geom_bond_atom_site_label_1
_geom_bond_atom_site_label_2
_geom_bond_distance
_geom_bond_site_symmetry_2
Ca0 O4 2.401778 1_556
Ca0 O7 2.410456 1_655
Ca0 O8 2.439919 1_555
Ca0 O0 2.467045 1_555
Ca0 O6 2.489521 1_555
Ca0 O9 2.490412 1_555
Ca0 O1 2.503050 1_655
Ca0 O5 2.888708 1_555
Ca1 O7 2.401778 1_554
Ca1 O4 2.410456 1_455
Ca1 O3 2.439919 1_555
Ca1 O11 2.467045 1_555
Ca1 O5 2.489521 1_555
Ca1 O2 2.490412 1_555
Ca1 O10 2.503050 1_455
Ca1 O6 2.888708 1_555
Cu0 O4 1.948406 1_455
Cu0 O7 1.948406 1_544
Cu0 O8 1.965028 1_444
Cu0 O3 1.965028 1_555
B0 O0 1.479522 1_555
B0 O6 1.480553 1_555
B0 O2 1.488455 1_555
B0 O1 1.493059 1_555
B1 O11 1.479522 1_555
B1 O5 1.480553 1_555
B1 O9 1.488455 1_555
B1 O10 1.493059 1_555
H0 O0 0.971521 1_555
H1 O2 0.993978 1_555
H2 O3 0.977198 1_555
H3 O1 1.000441 1_555
H4 O4 0.977093 1_555
H5 O5 0.990690 1_555
H6 O6 0.990690 1_555
H7 O7 0.977093 1_555
H8 O10 1.000441 1_555
H9 O8 0.977198 1_555
H10 O9 0.993978 1_555
H11 O11 0.971521 1_555
