# generated using pymatgen
data_V3H4NO8
_symmetry_space_group_name_H-M   'P 1'
_cell_length_a   8.57638700
_cell_length_b   5.06067400
_cell_length_c   7.97213310
_cell_angle_alpha   82.59729411
_cell_angle_beta   90.00000000
_cell_angle_gamma   90.00000000
_symmetry_Int_Tables_number   1
_chemical_formula_structural   V3H4NO8
_chemical_formula_sum   'V6 H8 N2 O16'
_cell_volume   343.12494524
_cell_formula_units_Z   2
loop_
 _symmetry_equiv_pos_site_id
 _symmetry_equiv_pos_as_xyz
  1  'x, y, z'
loop_
 _atom_site_type_symbol
 _atom_site_label
 _atom_site_symmetry_multiplicity
 _atom_site_fract_x
 _atom_site_fract_y
 _atom_site_fract_z
 _atom_site_occupancy
  V  V0  1  0.44599100  0.94007300  0.31757600  1
  V  V1  1  0.05400900  0.94007300  0.31757600  1
  V  V2  1  0.75000000  0.57317700  0.57788500  1
  V  V3  1  0.25000000  0.42682300  0.42211500  1
  V  V4  1  0.94599100  0.05992700  0.68242400  1
  V  V5  1  0.55400900  0.05992700  0.68242400  1
  H  H0  1  0.75000000  0.66552400  0.94596300  1
  H  H1  1  0.15398200  0.56140000  0.91102600  1
  H  H2  1  0.34601800  0.56140000  0.91102600  1
  H  H3  1  0.75000000  0.69985500  0.15144400  1
  H  H4  1  0.25000000  0.30014500  0.84855600  1
  H  H5  1  0.84601800  0.43860000  0.08897400  1
  H  H6  1  0.65398200  0.43860000  0.08897400  1
  H  H7  1  0.25000000  0.33447600  0.05403700  1
  N  N0  1  0.25000000  0.43855300  0.93211800  1
  N  N1  1  0.75000000  0.56144700  0.06788200  1
  O  O0  1  0.43352100  0.93208000  0.82995400  1
  O  O1  1  0.06647900  0.93208000  0.82995400  1
  O  O2  1  0.75000000  0.90909700  0.75641700  1
  O  O3  1  0.91250600  0.81836400  0.50568700  1
  O  O4  1  0.58749400  0.81836400  0.50568700  1
  O  O5  1  0.25000000  0.61950800  0.57122200  1
  O  O6  1  0.39997200  0.61527200  0.27035400  1
  O  O7  1  0.10002800  0.61527200  0.27035400  1
  O  O8  1  0.60002800  0.38472800  0.72964600  1
  O  O9  1  0.89997200  0.38472800  0.72964600  1
  O  O10  1  0.75000000  0.38049200  0.42877800  1
  O  O11  1  0.41250600  0.18163600  0.49431300  1
  O  O12  1  0.08749400  0.18163600  0.49431300  1
  O  O13  1  0.25000000  0.09090300  0.24358300  1
  O  O14  1  0.93352100  0.06792000  0.17004600  1
  O  O15  1  0.56647900  0.06792000  0.17004600  1
loop_
_geom_bond_atom_site_label_1
_geom_bond_atom_site_label_2
_geom_bond_distance
_geom_bond_site_symmetry_2
H0 N1 1.044123 1_556
H1 N0 1.032456 1_555
H2 N0 1.032456 1_555
H3 N1 1.026952 1_555
H4 N0 1.026952 1_555
H5 N1 1.032456 1_555
H6 N1 1.032456 1_555
H7 N0 1.044123 1_554
O0 V5 1.635117 1_565
O1 V4 1.635117 1_465
O2 V4 1.907871 1_565
O2 V5 1.907871 1_565
O2 V2 2.353539 1_555
O3 V2 1.905073 1_555
O3 V1 1.965471 1_655
O3 V4 2.001487 1_565
O4 V2 1.905073 1_555
O4 V0 1.965471 1_555
O4 V5 2.001487 1_565
O5 V3 1.631732 1_555
O6 V0 1.777283 1_555
O6 V3 1.931398 1_555
O7 V1 1.777283 1_555
O7 V3 1.931398 1_555
O8 V5 1.777283 1_555
O8 V2 1.931398 1_555
O9 V4 1.777283 1_555
O9 V2 1.931398 1_555
O10 V2 1.631732 1_555
O11 V3 1.905073 1_555
O11 V5 1.965471 1_555
O11 V0 2.001487 1_545
O12 V3 1.905073 1_555
O12 V4 1.965471 1_455
O12 V1 2.001487 1_545
O13 V0 1.907871 1_545
O13 V1 1.907871 1_545
O13 V3 2.353539 1_555
O14 V1 1.635117 1_645
O15 V0 1.635117 1_545
