# generated using pymatgen
data_LiCoSiO4
_symmetry_space_group_name_H-M   'P 1'
_cell_length_a   5.51445044
_cell_length_b   9.54459300
_cell_length_c   11.24488347
_cell_angle_alpha   90.00000643
_cell_angle_beta   89.91352647
_cell_angle_gamma   90.00108656
_symmetry_Int_Tables_number   1
_chemical_formula_structural   LiCoSiO4
_chemical_formula_sum   'Li6 Co6 Si6 O24'
_cell_volume   591.85335904
_cell_formula_units_Z   6
loop_
 _symmetry_equiv_pos_site_id
 _symmetry_equiv_pos_as_xyz
  1  'x, y, z'
loop_
 _atom_site_type_symbol
 _atom_site_label
 _atom_site_symmetry_multiplicity
 _atom_site_fract_x
 _atom_site_fract_y
 _atom_site_fract_z
 _atom_site_occupancy
  Li  Li0  1  0.99968000  0.00034400  0.16700200  1
  Li  Li1  1  0.49972200  0.50032100  0.16700800  1
  Li  Li2  1  0.00000000  0.00009500  0.50000300  1
  Li  Li3  1  0.50000100  0.50002900  0.50000300  1
  Li  Li4  1  0.00032700  0.00035100  0.83299600  1
  Li  Li5  1  0.50027300  0.50031600  0.83298800  1
  Co  Co0  1  0.24978700  0.75029100  0.16668100  1
  Co  Co1  1  0.75021300  0.75029200  0.83332000  1
  Co  Co2  1  0.00000100  0.50004700  0.50000000  1
  Co  Co3  1  0.74978700  0.25029600  0.16666800  1
  Co  Co4  1  0.25021500  0.25029700  0.83333400  1
  Co  Co5  1  0.50000000  0.00004200  0.49999800  1
  Si  Si0  1  0.75086900  0.24939900  0.66676200  1
  Si  Si1  1  0.25086000  0.74942000  0.66670800  1
  Si  Si2  1  0.24913500  0.24940100  0.33325200  1
  Si  Si3  1  0.74913800  0.74941900  0.33327900  1
  Si  Si4  1  0.49995000  0.00030100  0.99999800  1
  Si  Si5  1  0.00004700  0.50032100  0.00000000  1
  O  O0  1  0.80929000  0.41447600  0.08570400  1
  O  O1  1  0.30926200  0.91448000  0.08565600  1
  O  O2  1  0.78465800  0.38771400  0.58114000  1
  O  O3  1  0.28466900  0.88775900  0.58112200  1
  O  O4  1  0.02666500  0.19730100  0.24683700  1
  O  O5  1  0.52665500  0.69729700  0.24685100  1
  O  O6  1  0.97333700  0.19730200  0.75317200  1
  O  O7  1  0.47333500  0.69730000  0.75315100  1
  O  O8  1  0.21534800  0.38771100  0.41886000  1
  O  O9  1  0.71533100  0.88775600  0.41887600  1
  O  O10  1  0.19071100  0.41447500  0.91428900  1
  O  O11  1  0.69073200  0.91448700  0.91434300  1
  O  O12  1  0.28249200  0.11197300  0.41968200  1
  O  O13  1  0.78249600  0.61195100  0.41971800  1
  O  O14  1  0.31028800  0.08603200  0.91407800  1
  O  O15  1  0.81026500  0.58601400  0.91412900  1
  O  O16  1  0.47380700  0.30226700  0.24793200  1
  O  O17  1  0.97378800  0.80224200  0.24793300  1
  O  O18  1  0.52618300  0.30226600  0.75207400  1
  O  O19  1  0.02621700  0.80224300  0.75206900  1
  O  O20  1  0.68970600  0.08603400  0.08591200  1
  O  O21  1  0.18974800  0.58601900  0.08587300  1
  O  O22  1  0.71750600  0.11197200  0.58031900  1
  O  O23  1  0.21750500  0.61194800  0.58028000  1
loop_
_geom_bond_atom_site_label_1
_geom_bond_atom_site_label_2
_geom_bond_distance
_geom_bond_site_symmetry_2
Li0 O4 2.088634 1_655
Li0 O1 2.101939 1_645
Li0 O17 2.103171 1_545
Li0 O20 2.104038 1_555
Li1 O5 2.088815 1_555
Li1 O0 2.101601 1_555
Li1 O16 2.102734 1_555
Li1 O21 2.104288 1_555
Li2 O12 2.092469 1_555
Li2 O22 2.092478 1_455
Li2 O3 2.109577 1_545
Li2 O9 2.109600 1_445
Li3 O23 2.092502 1_555
Li3 O13 2.092521 1_555
Li3 O8 2.109510 1_555
Li3 O2 2.109513 1_555
Li4 O6 2.088537 1_455
Li4 O11 2.101977 1_445
Li4 O19 2.103207 1_545
Li4 O14 2.103882 1_555
Li5 O7 2.088862 1_555
Li5 O10 2.101520 1_555
Li5 O18 2.102654 1_555
Li5 O15 2.104372 1_555
Co0 O1 1.841911 1_555
Co0 O17 1.841989 1_455
Co0 O21 1.842427 1_555
Co0 O5 1.844931 1_555
Co1 O11 1.841964 1_555
Co1 O19 1.841990 1_655
Co1 O15 1.842505 1_555
Co1 O7 1.844950 1_555
Co2 O2 1.840891 1_455
Co2 O8 1.840948 1_555
Co2 O23 1.843226 1_555
Co2 O13 1.843284 1_455
Co3 O0 1.841526 1_555
Co3 O16 1.842020 1_555
Co3 O20 1.842099 1_555
Co3 O4 1.844974 1_655
Co4 O10 1.841471 1_555
Co4 O18 1.841923 1_555
Co4 O14 1.842060 1_555
Co4 O6 1.844920 1_455
Co5 O3 1.840481 1_545
Co5 O9 1.840513 1_545
Co5 O22 1.843620 1_555
Co5 O12 1.843632 1_555
O0 Si5 1.644252 1_655
O1 Si4 1.643592 1_564
O2 Si0 1.644382 1_555
O3 Si1 1.644342 1_555
O4 Si2 1.643212 1_555
O5 Si3 1.643416 1_555
O6 Si0 1.643176 1_555
O7 Si1 1.643491 1_555
O8 Si2 1.644256 1_555
O9 Si3 1.644403 1_555
O10 Si5 1.643995 1_556
O11 Si4 1.643890 1_565
O12 Si2 1.643018 1_555
O13 Si3 1.643383 1_555
O14 Si4 1.643161 1_555
O15 Si5 1.643078 1_656
O16 Si2 1.645128 1_555
O17 Si3 1.645081 1_555
O18 Si0 1.645151 1_555
O19 Si1 1.645165 1_555
O20 Si4 1.643442 1_554
O21 Si5 1.642810 1_555
O22 Si0 1.643095 1_555
O23 Si1 1.643333 1_555
