# generated using pymatgen
data_Ca12Al11Si3Cl5O32
_symmetry_space_group_name_H-M   'P 1'
_cell_length_a   10.45966200
_cell_length_b   10.47055400
_cell_length_c   10.47357973
_cell_angle_alpha   109.26056257
_cell_angle_beta   109.51197423
_cell_angle_gamma   109.55956071
_symmetry_Int_Tables_number   1
_chemical_formula_structural   Ca12Al11Si3Cl5O32
_chemical_formula_sum   'Ca12 Al11 Si3 Cl5 O32'
_cell_volume   883.88222899
_cell_formula_units_Z   1
loop_
 _symmetry_equiv_pos_site_id
 _symmetry_equiv_pos_as_xyz
  1  'x, y, z'
loop_
 _atom_site_type_symbol
 _atom_site_label
 _atom_site_symmetry_multiplicity
 _atom_site_fract_x
 _atom_site_fract_y
 _atom_site_fract_z
 _atom_site_occupancy
  Ca  Ca0  1  0.65205800  0.25869400  0.90169900  1
  Ca  Ca1  1  0.74872700  0.14020200  0.39161700  1
  Ca  Ca2  1  0.35241900  0.09985800  0.24609600  1
  Ca  Ca3  1  0.75317900  0.60672900  0.86202800  1
  Ca  Ca4  1  0.14265200  0.39476200  0.75095400  1
  Ca  Ca5  1  0.10131500  0.24047400  0.34864400  1
  Ca  Ca6  1  0.24435700  0.36185600  0.10722700  1
  Ca  Ca7  1  0.85218100  0.75140100  0.60497900  1
  Ca  Ca8  1  0.89106700  0.64731200  0.24641600  1
  Ca  Ca9  1  0.60883600  0.86147600  0.76112700  1
  Ca  Ca10  1  0.39148900  0.74080500  0.13522200  1
  Ca  Ca11  1  0.25082100  0.89113500  0.64152400  1
  Al  Al0  1  0.87211900  0.12417400  0.74461500  1
  Al  Al1  1  0.00183100  0.03422700  0.50061500  1
  Al  Al2  1  0.38031900  0.25478400  0.62557400  1
  Al  Al3  1  0.62971400  0.37521500  0.25649600  1
  Al  Al4  1  0.53226300  0.49731400  0.00039700  1
  Al  Al5  1  0.96641900  0.96566700  0.96331000  1
  Al  Al6  1  0.25460000  0.62689600  0.37728500  1
  Al  Al7  1  0.12101000  0.74492600  0.87231600  1
  Al  Al8  1  0.03161900  0.49923200  0.00060400  1
  Al  Al9  1  0.74839700  0.87462300  0.12441900  1
  Al  Al10  1  0.49825500  0.00192700  0.03330700  1
  Si  Si0  1  0.46633000  0.46591200  0.46559000  1
  Si  Si1  1  0.00330300  0.53682500  0.50086700  1
  Si  Si2  1  0.49910400  0.99995800  0.53530500  1
  Cl  Cl0  1  0.74950900  0.37403600  0.62389100  1
  Cl  Cl1  1  0.87588500  0.24786900  0.12612500  1
  Cl  Cl2  1  0.37667400  0.62811400  0.75201200  1
  Cl  Cl3  1  0.62433500  0.74862400  0.37269300  1
  Cl  Cl4  1  0.12414200  0.87724300  0.25163200  1
  O  O0  1  0.90229000  0.02062000  0.31648000  1
  O  O1  1  0.91787800  0.12354600  0.59806900  1
  O  O2  1  0.67305900  0.07644300  0.68985300  1
  O  O3  1  0.41941000  0.09714300  0.60717200  1
  O  O4  1  0.57882900  0.18212100  0.20792800  1
  O  O5  1  0.18866500  0.20338700  0.58703600  1
  O  O6  1  0.52261900  0.39578500  0.81872700  1
  O  O7  1  0.38691200  0.30899200  0.48228300  1
  O  O8  1  0.01442800  0.31368300  0.90032500  1
  O  O9  1  0.13989300  0.13325600  0.12329400  1
  O  O10  1  0.82885600  0.51774900  0.40281900  1
  O  O11  1  0.49051400  0.39358400  0.31379400  1
  O  O12  1  0.97534900  0.79343600  0.87021600  1
  O  O13  1  0.61308300  0.41036600  0.10138700  1
  O  O14  1  0.00133500  0.38099300  0.49744800  1
  O  O15  1  0.86877500  0.50387100  0.00555400  1
  O  O16  1  0.61815000  0.62038400  0.62077100  1
  O  O17  1  0.12189100  0.59922500  0.91837300  1
  O  O18  1  0.31145200  0.48726200  0.39030400  1
  O  O19  1  0.79705900  0.88124700  0.97941500  1
  O  O20  1  0.35856800  0.48246500  0.99271400  1
  O  O21  1  0.70076800  0.68237300  0.08517300  1
  O  O22  1  0.87992100  0.97975600  0.79221700  1
  O  O23  1  0.08074200  0.69021600  0.67508900  1
  O  O24  1  0.10462300  0.61534900  0.42593400  1
  O  O25  1  0.20242400  0.58089400  0.18551300  1
  O  O26  1  0.40022600  0.82548300  0.51779900  1
  O  O27  1  0.49230100  0.00904400  0.86678500  1
  O  O28  1  0.59610900  0.91573500  0.11822800  1
  O  O29  1  0.01154900  0.87672400  0.51820200  1
  O  O30  1  0.49801200  0.99558200  0.37947000  1
  O  O31  1  0.30938100  0.90601600  0.01203800  1
loop_
_geom_bond_atom_site_label_1
_geom_bond_atom_site_label_2
_geom_bond_distance
_geom_bond_site_symmetry_2
Ca0 O15 2.350756 1_556
Ca0 O27 2.407357 1_555
Ca0 O13 2.423672 1_556
Ca0 O6 2.446809 1_555
Ca0 O2 2.534892 1_555
Ca0 O3 2.661873 1_555
Ca0 Cl1 2.774222 1_556
Ca1 O1 2.394999 1_555
Ca1 O4 2.418154 1_555
Ca1 O30 2.485414 1_545
Ca1 O28 2.503132 1_545
Ca1 O14 2.511152 1_655
Ca1 O0 2.511548 1_555
Ca1 Cl0 2.820744 1_555
Ca2 O9 2.371785 1_555
Ca2 O31 2.387493 1_545
Ca2 O4 2.450247 1_555
Ca2 O30 2.482130 1_545
Ca2 O7 2.519060 1_555
Ca2 O11 2.636367 1_555
Ca2 Cl4 2.755488 1_545
Ca3 O15 2.367981 1_556
Ca3 O6 2.437594 1_555
Ca3 O12 2.437972 1_555
Ca3 O21 2.513042 1_556
Ca3 O16 2.527769 1_555
Ca3 O19 2.528329 1_555
Ca3 Cl0 2.832452 1_555
Ca4 O20 2.369079 1_555
Ca4 O17 2.407095 1_555
Ca4 O5 2.474349 1_555
Ca4 O1 2.484092 1_455
Ca4 O14 2.497679 1_555
Ca4 O8 2.546061 1_555
Ca4 Cl2 2.814447 1_555
Ca5 O0 2.357440 1_455
Ca5 O9 2.487011 1_555
Ca5 O14 2.508683 1_555
Ca5 O7 2.550869 1_555
Ca5 O18 2.551699 1_555
Ca5 O5 2.563784 1_555
Ca5 Cl1 2.750953 1_455
Ca6 O20 2.325196 1_554
Ca6 O9 2.364060 1_555
Ca6 O8 2.391552 1_554
Ca6 O25 2.407850 1_555
Ca6 O18 2.536060 1_555
Ca6 O11 2.579206 1_555
Ca7 O29 2.379251 1_655
Ca7 O22 2.389310 1_555
Ca7 O12 2.448183 1_555
Ca7 O16 2.464361 1_555
Ca7 O10 2.523039 1_555
Ca7 O23 2.613064 1_655
Ca7 Cl3 2.762810 1_555
Ca8 O15 2.355212 1_555
Ca8 O21 2.366752 1_555
Ca8 O29 2.554768 1_655
Ca8 O10 2.556208 1_555
Ca8 O13 2.578774 1_555
Ca8 O24 2.597464 1_655
Ca8 Cl4 2.763466 1_655
Ca9 O19 2.356676 1_555
Ca9 O27 2.476252 1_565
Ca9 O16 2.520923 1_555
Ca9 O22 2.538807 1_555
Ca9 O26 2.549337 1_555
Ca9 O2 2.550645 1_565
Ca9 Cl2 2.755836 1_555
Ca10 O28 2.410793 1_555
Ca10 O17 2.451372 1_554
Ca10 O20 2.456138 1_554
Ca10 O25 2.460131 1_555
Ca10 O30 2.550611 1_555
Ca10 O31 2.668609 1_555
Ca10 Cl3 2.794647 1_555
Ca11 O29 2.326754 1_555
Ca11 O27 2.340905 1_565
Ca11 O26 2.465403 1_555
Ca11 O23 2.472614 1_555
Ca11 O24 2.492100 1_555
Ca11 O3 2.506129 1_565
Al0 O1 1.752457 1_555
Al0 O8 1.754553 1_655
Al0 O22 1.759146 1_545
Al0 O2 1.797303 1_555
Al1 O29 1.750450 1_545
Al1 O0 1.789336 1_455
Al1 O1 1.790639 1_455
Al1 O5 1.794027 1_555
Al2 O6 1.741951 1_555
Al2 O5 1.750698 1_555
Al2 O7 1.784410 1_555
Al2 O3 1.795390 1_555
Al3 O4 1.746380 1_555
Al3 O13 1.747406 1_555
Al3 O10 1.786581 1_555
Al3 O11 1.792221 1_555
Al4 O20 1.742507 1_554
Al4 O21 1.783882 1_555
Al4 O13 1.793184 1_555
Al4 O6 1.796166 1_554
Al5 O9 1.753991 1_666
Al5 O19 1.788109 1_555
Al5 O12 1.795855 1_555
Al5 O22 1.797826 1_555
Al6 O25 1.737116 1_555
Al6 O18 1.780245 1_555
Al6 O26 1.781173 1_555
Al6 O24 1.784005 1_555
Al7 O17 1.747022 1_555
Al7 O12 1.755808 1_455
Al7 O31 1.757516 1_556
Al7 O23 1.802539 1_555
Al8 O15 1.737521 1_455
Al8 O8 1.789878 1_554
Al8 O17 1.790437 1_554
Al8 O25 1.801936 1_555
Al9 O21 1.764947 1_555
Al9 O19 1.769912 1_554
Al9 O0 1.770598 1_565
Al9 O28 1.770680 1_555
Al10 O27 1.751441 1_554
Al10 O31 1.786337 1_545
Al10 O28 1.786915 1_545
Al10 O4 1.801140 1_555
O2 Si2 1.665468 1_545
O3 Si2 1.666927 1_545
O7 Si0 1.671182 1_555
O10 Si1 1.671163 1_655
O11 Si0 1.663646 1_555
O14 Si1 1.613211 1_555
O16 Si0 1.612819 1_555
O18 Si0 1.673771 1_555
O23 Si1 1.665355 1_555
O24 Si1 1.677180 1_555
O26 Si2 1.681636 1_555
O30 Si2 1.613693 1_555
