# generated using pymatgen
data_FeTe(PO4)2
_symmetry_space_group_name_H-M   'P 1'
_cell_length_a   6.71572535
_cell_length_b   9.79821756
_cell_length_c   10.02938495
_cell_angle_alpha   97.16540707
_cell_angle_beta   89.89643974
_cell_angle_gamma   90.21810834
_symmetry_Int_Tables_number   1
_chemical_formula_structural   FeTe(PO4)2
_chemical_formula_sum   'Fe4 Te4 P8 O32'
_cell_volume   654.79551625
_cell_formula_units_Z   4
loop_
 _symmetry_equiv_pos_site_id
 _symmetry_equiv_pos_as_xyz
  1  'x, y, z'
loop_
 _atom_site_type_symbol
 _atom_site_label
 _atom_site_symmetry_multiplicity
 _atom_site_fract_x
 _atom_site_fract_y
 _atom_site_fract_z
 _atom_site_occupancy
  Fe  Fe0  1  0.24772200  0.98095400  0.26476800  1
  Fe  Fe1  1  0.75314200  0.51921300  0.73520400  1
  Fe  Fe2  1  0.24835800  0.48088700  0.26480600  1
  Fe  Fe3  1  0.75315400  0.01916900  0.73513600  1
  Te  Te0  1  0.74854000  0.21812400  0.20155800  1
  Te  Te1  1  0.74855000  0.71813900  0.20153300  1
  Te  Te2  1  0.25182000  0.28186800  0.79840200  1
  Te  Te3  1  0.25187600  0.78190000  0.79843400  1
  P  P0  1  0.25042500  0.18604500  0.08962400  1
  P  P1  1  0.25061200  0.68603200  0.08956000  1
  P  P2  1  0.74921100  0.31390900  0.91040200  1
  P  P3  1  0.74928300  0.81398000  0.91043700  1
  P  P4  1  0.75014200  0.44981800  0.39819900  1
  P  P5  1  0.75015900  0.94981500  0.39815600  1
  P  P6  1  0.24970500  0.05015900  0.60178300  1
  P  P7  1  0.24977200  0.55020600  0.60183000  1
  O  O0  1  0.74823700  0.36767500  0.06478100  1
  O  O1  1  0.74816900  0.86770400  0.06482000  1
  O  O2  1  0.25173400  0.13231800  0.93525900  1
  O  O3  1  0.25182600  0.63233400  0.93515800  1
  O  O4  1  0.25020500  0.34309200  0.10129500  1
  O  O5  1  0.25019500  0.84305800  0.10128400  1
  O  O6  1  0.74929200  0.15693000  0.89885100  1
  O  O7  1  0.74954100  0.65695100  0.89876100  1
  O  O8  1  0.74900400  0.10134500  0.37359600  1
  O  O9  1  0.74897200  0.60135900  0.37360500  1
  O  O10  1  0.25109100  0.39865800  0.62639400  1
  O  O11  1  0.25114400  0.89860300  0.62634100  1
  O  O12  1  0.24999600  0.06372300  0.45389900  1
  O  O13  1  0.25008500  0.56371900  0.45388000  1
  O  O14  1  0.74988300  0.43631100  0.54609500  1
  O  O15  1  0.74990900  0.93629300  0.54609200  1
  O  O16  1  0.06936700  0.12450200  0.16005300  1
  O  O17  1  0.06984300  0.62445700  0.16007100  1
  O  O18  1  0.43171700  0.12600700  0.16083100  1
  O  O19  1  0.43224100  0.62619700  0.16057600  1
  O  O20  1  0.56765900  0.37382800  0.83937400  1
  O  O21  1  0.56771500  0.87384100  0.83937200  1
  O  O22  1  0.93005800  0.37549200  0.83991900  1
  O  O23  1  0.93011800  0.87554800  0.83993400  1
  O  O24  1  0.92746400  0.36463500  0.31951400  1
  O  O25  1  0.92756100  0.86465800  0.31951900  1
  O  O26  1  0.57267600  0.36327600  0.31996600  1
  O  O27  1  0.57274100  0.86320600  0.31995200  1
  O  O28  1  0.07232300  0.13515300  0.68046800  1
  O  O29  1  0.07237800  0.63521100  0.68047600  1
  O  O30  1  0.42715500  0.13683200  0.67997900  1
  O  O31  1  0.42723000  0.63686700  0.68005500  1
loop_
_geom_bond_atom_site_label_1
_geom_bond_atom_site_label_2
_geom_bond_distance
_geom_bond_site_symmetry_2
Fe0 O12 1.967813 1_565
Fe0 O5 1.990397 1_555
Fe0 O16 2.214006 1_565
Fe0 O18 2.232725 1_565
Fe0 O25 2.521139 1_455
Fe0 O27 2.566042 1_555
Fe1 O14 1.968056 1_555
Fe1 O7 1.990133 1_555
Fe1 O22 2.209945 1_555
Fe1 O20 2.241758 1_555
Fe1 O29 2.514402 1_655
Fe1 O31 2.570621 1_555
Fe2 O13 1.967445 1_555
Fe2 O4 1.989992 1_555
Fe2 O17 2.214852 1_555
Fe2 O19 2.235660 1_555
Fe2 O24 2.525006 1_455
Fe2 O26 2.561318 1_555
Fe3 O15 1.967385 1_545
Fe3 O6 1.991459 1_555
Fe3 O23 2.209898 1_545
Fe3 O21 2.241569 1_545
Fe3 O28 2.513789 1_655
Fe3 O30 2.571184 1_555
O0 P2 1.572066 1_554
O0 Te0 2.128499 1_555
O1 P3 1.572020 1_554
O1 Te1 2.128138 1_555
O2 P0 1.571862 1_556
O2 Te2 2.129067 1_555
O3 P1 1.572149 1_556
O3 Te3 2.128214 1_555
O4 P0 1.528605 1_555
O5 P1 1.528380 1_555
O6 P2 1.527996 1_555
O7 P3 1.528428 1_555
O8 P5 1.535080 1_545
O8 Te0 2.186083 1_555
O9 P4 1.535283 1_555
O9 Te1 2.186379 1_555
O10 P7 1.535275 1_555
O10 Te2 2.185902 1_555
O11 P6 1.535344 1_565
O11 Te3 2.186101 1_555
O12 P6 1.505546 1_555
O13 P7 1.506100 1_555
O14 P4 1.505548 1_555
O15 P5 1.505979 1_555
O16 P0 1.561614 1_555
O16 Te0 2.360838 1_455
O17 P1 1.560657 1_555
O17 Te1 2.363861 1_455
O18 P0 1.565826 1_555
O18 Te0 2.324896 1_555
O19 P1 1.565762 1_555
O19 Te1 2.321418 1_555
O20 P2 1.565777 1_555
O20 Te2 2.318617 1_555
O21 P3 1.565800 1_555
O21 Te3 2.318505 1_555
O22 P2 1.560957 1_555
O22 Te2 2.366600 1_655
O23 P3 1.560930 1_555
O23 Te3 2.366641 1_655
O24 P4 1.605419 1_555
O24 Te0 2.114837 1_555
O25 P5 1.605496 1_555
O25 Te1 2.115359 1_555
O26 P4 1.607731 1_555
O26 Te0 2.101023 1_555
O27 P5 1.607674 1_555
O27 Te1 2.100361 1_555
O28 P6 1.604865 1_555
O28 Te2 2.118127 1_555
O29 P7 1.604808 1_555
O29 Te3 2.118091 1_555
O30 P6 1.608090 1_555
O30 Te2 2.098403 1_555
O31 P7 1.608198 1_555
O31 Te3 2.098244 1_555
