# generated using pymatgen
data_FeP4O11
_symmetry_space_group_name_H-M   'P 1'
_cell_length_a   9.31529200
_cell_length_b   9.36464526
_cell_length_c   10.82459993
_cell_angle_alpha   109.08843515
_cell_angle_beta   108.22854954
_cell_angle_gamma   90.77436269
_symmetry_Int_Tables_number   1
_chemical_formula_structural   FeP4O11
_chemical_formula_sum   'Fe4 P16 O44'
_cell_volume   840.49005726
_cell_formula_units_Z   4
loop_
 _symmetry_equiv_pos_site_id
 _symmetry_equiv_pos_as_xyz
  1  'x, y, z'
loop_
 _atom_site_type_symbol
 _atom_site_label
 _atom_site_symmetry_multiplicity
 _atom_site_fract_x
 _atom_site_fract_y
 _atom_site_fract_z
 _atom_site_occupancy
  Fe  Fe0  1  0.22781200  0.76973100  0.50098700  1
  Fe  Fe1  1  0.77218800  0.23026900  0.49901300  1
  Fe  Fe2  1  0.74409200  0.72112400  0.97960700  1
  Fe  Fe3  1  0.25590800  0.27887600  0.02039300  1
  P  P0  1  0.58544600  0.39064600  0.71517400  1
  P  P1  1  0.41455400  0.60935400  0.28482600  1
  P  P2  1  0.08968700  0.94605300  0.75362100  1
  P  P3  1  0.91031300  0.05394700  0.24637900  1
  P  P4  1  0.76333800  0.92392100  0.61172500  1
  P  P5  1  0.23666200  0.07607900  0.38827500  1
  P  P6  1  0.55966500  0.91253900  0.77179100  1
  P  P7  1  0.44033500  0.08746100  0.22820900  1
  P  P8  1  0.09638900  0.72725700  0.91120900  1
  P  P9  1  0.90361100  0.27274300  0.08879100  1
  P  P10  1  0.56827500  0.25024500  0.92640900  1
  P  P11  1  0.43172500  0.74975500  0.07359100  1
  P  P12  1  0.26289000  0.41439900  0.55732000  1
  P  P13  1  0.73711000  0.58560100  0.44268000  1
  P  P14  1  0.09767500  0.40425100  0.75969500  1
  P  P15  1  0.90232500  0.59574900  0.24030500  1
  O  O0  1  0.94625600  0.31003400  0.69401300  1
  O  O1  1  0.05374400  0.68996600  0.30598700  1
  O  O2  1  0.81230800  0.90470900  0.17995900  1
  O  O3  1  0.18769200  0.09529100  0.82004100  1
  O  O4  1  0.29368400  0.48051800  0.19156200  1
  O  O5  1  0.70631600  0.51948200  0.80843800  1
  O  O6  1  0.81683500  0.63987500  0.35548000  1
  O  O7  1  0.18316500  0.36012500  0.64452000  1
  O  O8  1  0.36758400  0.02748500  0.32565200  1
  O  O9  1  0.63241600  0.97251500  0.67434800  1
  O  O10  1  0.91829100  0.16674000  0.38367200  1
  O  O11  1  0.08170900  0.83326000  0.61632800  1
  O  O12  1  0.73892600  0.74104800  0.56321200  1
  O  O13  1  0.26107400  0.25895200  0.43678800  1
  O  O14  1  0.58749400  0.18601500  0.31385800  1
  O  O15  1  0.41250600  0.81398500  0.68614200  1
  O  O16  1  0.31525100  0.13716300  0.13282600  1
  O  O17  1  0.68474900  0.86283700  0.86717400  1
  O  O18  1  0.19688200  0.53098900  0.50081800  1
  O  O19  1  0.80311800  0.46901100  0.49918200  1
  O  O20  1  0.91239300  0.97126200  0.74554700  1
  O  O21  1  0.08760700  0.02873800  0.25445300  1
  O  O22  1  0.24999200  0.72927800  0.03196300  1
  O  O23  1  0.75000800  0.27072200  0.96803700  1
  O  O24  1  0.51520900  0.31255600  0.80335300  1
  O  O25  1  0.48479100  0.68744400  0.19664700  1
  O  O26  1  0.91721300  0.41483700  0.22257400  1
  O  O27  1  0.08278700  0.58516300  0.77742600  1
  O  O28  1  0.79317000  0.59165000  0.10486900  1
  O  O29  1  0.20683000  0.40835000  0.89513100  1
  O  O30  1  0.61038500  0.26428800  0.60039800  1
  O  O31  1  0.38961500  0.73571200  0.39960200  1
  O  O32  1  0.03034500  0.26301900  0.03418900  1
  O  O33  1  0.96965500  0.73698100  0.96581100  1
  O  O34  1  0.56454300  0.53441600  0.34936800  1
  O  O35  1  0.43545700  0.46558400  0.65063200  1
  O  O36  1  0.49416900  0.68145300  0.96080300  1
  O  O37  1  0.50583100  0.31854700  0.03919700  1
  O  O38  1  0.51797700  0.07347700  0.85989100  1
  O  O39  1  0.48202300  0.92652300  0.14010900  1
  O  O40  1  0.13540600  0.86629100  0.87225900  1
  O  O41  1  0.86459400  0.13370900  0.12774100  1
  O  O42  1  0.76174600  0.98708200  0.50326200  1
  O  O43  1  0.23825400  0.01291800  0.49673800  1
loop_
_geom_bond_atom_site_label_1
_geom_bond_atom_site_label_2
_geom_bond_distance
_geom_bond_site_symmetry_2
Fe0 O11 2.089060 1_555
Fe0 O31 2.096861 1_555
Fe0 O15 2.104501 1_555
Fe0 O1 2.106519 1_555
Fe0 O18 2.249691 1_555
Fe0 O43 2.294181 1_565
Fe1 O10 2.089060 1_555
Fe1 O30 2.096861 1_555
Fe1 O14 2.104501 1_555
Fe1 O0 2.106519 1_555
Fe1 O19 2.249691 1_555
Fe1 O42 2.294181 1_545
Fe2 O17 2.050185 1_555
Fe2 O28 2.054276 1_556
Fe2 O5 2.099598 1_555
Fe2 O33 2.159099 1_555
Fe2 O2 2.175436 1_556
Fe2 O36 2.286968 1_555
Fe3 O16 2.050185 1_555
Fe3 O29 2.054276 1_554
Fe3 O4 2.099598 1_555
Fe3 O32 2.159099 1_555
Fe3 O3 2.175436 1_554
Fe3 O37 2.286968 1_555
O0 P14 1.483974 1_655
O1 P15 1.483974 1_455
O2 P3 1.483657 1_565
O3 P2 1.483657 1_545
O4 P1 1.482590 1_555
O5 P0 1.482590 1_555
O6 P13 1.562998 1_555
O6 P15 1.628604 1_555
O7 P12 1.562998 1_555
O7 P14 1.628604 1_555
O8 P5 1.576200 1_555
O8 P7 1.646719 1_555
O9 P4 1.576200 1_555
O9 P6 1.646719 1_555
O10 P3 1.493958 1_555
O11 P2 1.493958 1_555
O12 P13 1.601541 1_555
O12 P4 1.608365 1_555
O13 P12 1.601541 1_555
O13 P5 1.608365 1_555
O14 P7 1.483763 1_555
O15 P6 1.483763 1_555
O16 P7 1.488846 1_555
O17 P6 1.488846 1_555
O18 P12 1.471007 1_555
O19 P13 1.471007 1_555
O20 P4 1.589910 1_555
O20 P2 1.650667 1_655
O21 P5 1.589910 1_555
O21 P3 1.650667 1_455
O22 P11 1.600995 1_555
O22 P8 1.602890 1_554
O23 P10 1.600995 1_555
O23 P9 1.602890 1_556
O24 P10 1.569520 1_555
O24 P0 1.645674 1_555
O25 P11 1.569520 1_555
O25 P1 1.645674 1_555
O26 P9 1.582445 1_555
O26 P15 1.654277 1_555
O27 P8 1.582445 1_555
O27 P14 1.654277 1_555
O28 P15 1.488016 1_555
O29 P14 1.488016 1_555
O30 P0 1.491370 1_555
O31 P1 1.491370 1_555
O32 P9 1.468195 1_455
O33 P8 1.468195 1_655
O34 P13 1.575051 1_555
O34 P1 1.633772 1_555
O35 P12 1.575051 1_555
O35 P0 1.633772 1_555
O36 P11 1.477034 1_556
O37 P10 1.477034 1_554
O38 P10 1.570548 1_555
O38 P6 1.624542 1_545
O39 P11 1.570548 1_555
O39 P7 1.624542 1_565
O40 P8 1.564352 1_555
O40 P2 1.637778 1_555
O41 P9 1.564352 1_555
O41 P3 1.637778 1_555
O42 P4 1.473788 1_555
O43 P5 1.473788 1_555
