# generated using pymatgen
data_Li3CrSi2O7
_symmetry_space_group_name_H-M   'P 1'
_cell_length_a   5.01808400
_cell_length_b   8.89585100
_cell_length_c   12.47548500
_cell_angle_alpha   90.00000000
_cell_angle_beta   90.00000000
_cell_angle_gamma   90.00000000
_symmetry_Int_Tables_number   1
_chemical_formula_structural   Li3CrSi2O7
_chemical_formula_sum   'Li12 Cr4 Si8 O28'
_cell_volume   556.90724189
_cell_formula_units_Z   4
loop_
 _symmetry_equiv_pos_site_id
 _symmetry_equiv_pos_as_xyz
  1  'x, y, z'
loop_
 _atom_site_type_symbol
 _atom_site_label
 _atom_site_symmetry_multiplicity
 _atom_site_fract_x
 _atom_site_fract_y
 _atom_site_fract_z
 _atom_site_occupancy
  Li  Li0  1  0.03621600  0.34207900  0.08960900  1
  Li  Li1  1  0.03621600  0.34207900  0.41039100  1
  Li  Li2  1  0.03213700  0.01511300  0.25000000  1
  Li  Li3  1  0.46786300  0.51511300  0.25000000  1
  Li  Li4  1  0.46378400  0.84207900  0.08960900  1
  Li  Li5  1  0.46378400  0.84207900  0.41039100  1
  Li  Li6  1  0.53621600  0.15792100  0.58960900  1
  Li  Li7  1  0.53621600  0.15792100  0.91039100  1
  Li  Li8  1  0.53213700  0.48488700  0.75000000  1
  Li  Li9  1  0.96786300  0.98488700  0.75000000  1
  Li  Li10  1  0.96378400  0.65792100  0.91039100  1
  Li  Li11  1  0.96378400  0.65792100  0.58960900  1
  Cr  Cr0  1  0.00000000  0.00000000  0.00000000  1
  Cr  Cr1  1  0.00000000  0.00000000  0.50000000  1
  Cr  Cr2  1  0.50000000  0.50000000  0.50000000  1
  Cr  Cr3  1  0.50000000  0.50000000  0.00000000  1
  Si  Si0  1  0.01264400  0.31736800  0.63025500  1
  Si  Si1  1  0.01264400  0.31736800  0.86974500  1
  Si  Si2  1  0.48735600  0.81736800  0.63025500  1
  Si  Si3  1  0.48735600  0.81736800  0.86974500  1
  Si  Si4  1  0.51264400  0.18263200  0.13025500  1
  Si  Si5  1  0.51264400  0.18263200  0.36974500  1
  Si  Si6  1  0.98735600  0.68263200  0.13025500  1
  Si  Si7  1  0.98735600  0.68263200  0.36974500  1
  O  O0  1  0.06290300  0.86211700  0.12864700  1
  O  O1  1  0.06290300  0.86211700  0.37135300  1
  O  O2  1  0.08144100  0.61419100  0.25000000  1
  O  O3  1  0.16300200  0.60027200  0.03911800  1
  O  O4  1  0.16300200  0.60027200  0.46088200  1
  O  O5  1  0.16995200  0.85305200  0.88687900  1
  O  O6  1  0.16995200  0.85305200  0.61312100  1
  O  O7  1  0.33004800  0.35305200  0.61312100  1
  O  O8  1  0.33004800  0.35305200  0.88687900  1
  O  O9  1  0.33699800  0.10027200  0.03911800  1
  O  O10  1  0.33699800  0.10027200  0.46088200  1
  O  O11  1  0.41855900  0.11419100  0.25000000  1
  O  O12  1  0.43709700  0.36211700  0.12864700  1
  O  O13  1  0.43709700  0.36211700  0.37135300  1
  O  O14  1  0.56290300  0.63788300  0.62864700  1
  O  O15  1  0.56290300  0.63788300  0.87135300  1
  O  O16  1  0.58144100  0.88580900  0.75000000  1
  O  O17  1  0.66300200  0.89972800  0.53911800  1
  O  O18  1  0.66300200  0.89972800  0.96088200  1
  O  O19  1  0.66995200  0.64694800  0.11312100  1
  O  O20  1  0.66995200  0.64694800  0.38687900  1
  O  O21  1  0.83004800  0.14694800  0.38687900  1
  O  O22  1  0.83004800  0.14694800  0.11312100  1
  O  O23  1  0.83699800  0.39972800  0.53911800  1
  O  O24  1  0.83699800  0.39972800  0.96088200  1
  O  O25  1  0.91855900  0.38580900  0.75000000  1
  O  O26  1  0.93709700  0.13788300  0.62864700  1
  O  O27  1  0.93709700  0.13788300  0.87135300  1
loop_
_geom_bond_atom_site_label_1
_geom_bond_atom_site_label_2
_geom_bond_distance
_geom_bond_site_symmetry_2
Li0 O24 1.959950 1_454
Li0 O22 2.041952 1_455
Li0 O12 2.077430 1_555
Li0 O3 2.465169 1_555
Li1 O23 1.959950 1_455
Li1 O21 2.041952 1_455
Li1 O13 2.077430 1_555
Li1 O4 2.465169 1_555
Li2 O1 2.041628 1_545
Li2 O0 2.041628 1_545
Li2 O11 2.130009 1_555
Li2 O21 2.306475 1_455
Li2 O22 2.306475 1_455
Li3 O13 2.041628 1_555
Li3 O12 2.041628 1_555
Li3 O2 2.130009 1_555
Li3 O20 2.306475 1_555
Li3 O19 2.306475 1_555
Li4 O18 1.959950 1_554
Li4 O19 2.041952 1_555
Li4 O0 2.077430 1_555
Li4 O9 2.465169 1_565
Li5 O17 1.959950 1_555
Li5 O20 2.041952 1_555
Li5 O1 2.077430 1_555
Li5 O10 2.465169 1_565
Li6 O10 1.959950 1_555
Li6 O7 2.041952 1_555
Li6 O26 2.077430 1_555
Li6 O17 2.465169 1_545
Li7 O9 1.959950 1_556
Li7 O8 2.041952 1_555
Li7 O27 2.077430 1_555
Li7 O18 2.465169 1_545
Li8 O15 2.041628 1_555
Li8 O14 2.041628 1_555
Li8 O25 2.130009 1_555
Li8 O7 2.306475 1_555
Li8 O8 2.306475 1_555
Li9 O27 2.041628 1_565
Li9 O26 2.041628 1_565
Li9 O16 2.130009 1_555
Li9 O5 2.306475 1_655
Li9 O6 2.306475 1_655
Li10 O3 1.959950 1_656
Li10 O5 2.041952 1_655
Li10 O15 2.077430 1_555
Li10 O24 2.465169 1_555
Li11 O4 1.959950 1_655
Li11 O6 2.041952 1_655
Li11 O14 2.077430 1_555
Li11 O23 2.465169 1_555
Cr0 O9 1.973220 1_555
Cr0 O18 1.973220 1_444
Cr0 O0 2.044496 1_545
Cr0 O27 2.044496 1_454
Cr0 O22 2.104226 1_455
Cr0 O5 2.104226 1_544
Cr1 O10 1.973220 1_555
Cr1 O17 1.973220 1_445
Cr1 O26 2.044496 1_455
Cr1 O1 2.044496 1_545
Cr1 O21 2.104226 1_455
Cr1 O6 2.104226 1_545
Cr2 O23 1.973220 1_555
Cr2 O4 1.973220 1_555
Cr2 O14 2.044496 1_555
Cr2 O13 2.044496 1_555
Cr2 O20 2.104226 1_555
Cr2 O7 2.104226 1_555
Cr3 O24 1.973220 1_554
Cr3 O3 1.973220 1_555
Cr3 O12 2.044496 1_555
Cr3 O15 2.044496 1_554
Cr3 O19 2.104226 1_555
Cr3 O8 2.104226 1_554
O0 Si6 1.641183 1_455
O1 Si7 1.641183 1_455
O2 Si7 1.680851 1_455
O2 Si6 1.680851 1_455
O3 Si6 1.614432 1_455
O4 Si7 1.614432 1_455
O5 Si3 1.638091 1_555
O6 Si2 1.638091 1_555
O7 Si0 1.638091 1_555
O8 Si1 1.638091 1_555
O9 Si4 1.614432 1_555
O10 Si5 1.614432 1_555
O11 Si5 1.680851 1_555
O11 Si4 1.680851 1_555
O12 Si4 1.641183 1_555
O13 Si5 1.641183 1_555
O14 Si2 1.641183 1_555
O15 Si3 1.641183 1_555
O16 Si2 1.680851 1_555
O16 Si3 1.680851 1_555
O17 Si2 1.614432 1_555
O18 Si3 1.614432 1_555
O19 Si6 1.638091 1_555
O20 Si7 1.638091 1_555
O21 Si5 1.638091 1_555
O22 Si4 1.638091 1_555
O23 Si0 1.614432 1_655
O24 Si1 1.614432 1_655
O25 Si1 1.680851 1_655
O25 Si0 1.680851 1_655
O26 Si0 1.641183 1_655
O27 Si1 1.641183 1_655
