# generated using pymatgen
data_Sm5Co2
_symmetry_space_group_name_H-M   'P 1'
_cell_length_a   6.45861369
_cell_length_b   6.92643881
_cell_length_c   8.78485152
_cell_angle_alpha   95.12250691
_cell_angle_beta   111.56763967
_cell_angle_gamma   89.99999215
_symmetry_Int_Tables_number   1
_chemical_formula_structural   Sm5Co2
_chemical_formula_sum   'Sm10 Co4'
_cell_volume   363.78811440
_cell_formula_units_Z   2
loop_
 _symmetry_equiv_pos_site_id
 _symmetry_equiv_pos_as_xyz
  1  'x, y, z'
loop_
 _atom_site_type_symbol
 _atom_site_label
 _atom_site_symmetry_multiplicity
 _atom_site_fract_x
 _atom_site_fract_y
 _atom_site_fract_z
 _atom_site_occupancy
  Sm  Sm0  1  0.35276571  0.67893276  0.57207734  1
  Sm  Sm1  1  0.78068838  0.82106724  0.42792266  1
  Sm  Sm2  1  0.64723429  0.32106724  0.42792266  1
  Sm  Sm3  1  0.21931262  0.17893276  0.57207734  1
  Sm  Sm4  1  0.56721548  0.75000000  0.00000000  1
  Sm  Sm5  1  0.43278452  0.25000000  -0.00000000  1
  Sm  Sm6  1  0.79673572  0.09043315  0.81056798  1
  Sm  Sm7  1  0.98616674  0.40956685  0.18943202  1
  Sm  Sm8  1  0.20326428  0.90956685  0.18943202  1
  Sm  Sm9  1  0.01383326  0.59043315  0.81056798  1
  Co  Co0  1  0.60556013  0.42870759  0.77702243  1
  Co  Co1  1  0.82853670  0.07129241  0.22297757  1
  Co  Co2  1  0.39443987  0.57129241  0.22297757  1
  Co  Co3  1  0.17146330  0.92870759  0.77702243  1
loop_
_geom_bond_atom_site_label_1
_geom_bond_atom_site_label_2
_geom_bond_distance
_geom_bond_site_symmetry_2
Sm0 Sm4 3.483405 1_556
Sm0 Sm2 3.546134 1_555
Sm0 Sm3 3.568865 1_565
Sm0 Sm3 3.568865 1_555
Sm0 Sm1 3.606559 1_455
Sm0 Sm1 3.606559 1_555
Sm0 Sm9 3.627427 1_555
Sm0 Sm8 3.654647 1_555
Sm0 Sm7 3.662684 1_455
Sm0 Sm6 3.905426 1_565
Sm1 Sm4 3.483405 1_555
Sm1 Sm3 3.546139 1_665
Sm1 Sm2 3.568867 1_565
Sm1 Sm2 3.568867 1_555
Sm1 Sm8 3.627433 1_555
Sm1 Sm9 3.654647 1_655
Sm1 Sm6 3.662681 1_565
Sm1 Sm7 3.905421 1_555
Sm2 Sm5 3.483405 1_555
Sm2 Sm3 3.606553 1_555
Sm2 Sm3 3.606565 1_655
Sm2 Sm7 3.627427 1_555
Sm2 Sm6 3.654647 1_555
Sm2 Sm9 3.662684 1_655
Sm2 Sm8 3.905426 1_545
Sm3 Sm5 3.483405 1_556
Sm3 Sm6 3.627428 1_555
Sm3 Sm7 3.654648 1_455
Sm3 Sm8 3.662679 1_545
Sm3 Sm9 3.905425 1_555
Co0 Sm6 2.637614 1_555
Co0 Sm0 2.703174 1_555
Co0 Sm9 2.768489 1_655
Co0 Sm4 2.903276 1_556
Co0 Sm3 2.932483 1_555
Co0 Sm5 2.941831 1_556
Co0 Sm2 3.198762 1_555
Co0 Sm7 3.567106 1_556
Co1 Sm7 2.637614 1_555
Co1 Sm1 2.703171 1_545
Co1 Sm8 2.768489 1_645
Co1 Sm4 2.903274 1_545
Co1 Sm2 2.932482 1_555
Co1 Sm5 2.941827 1_555
Co1 Sm3 3.198768 1_655
Co1 Sm6 3.567110 1_554
Co2 Sm8 2.637614 1_555
Co2 Sm2 2.703174 1_555
Co2 Sm7 2.768489 1_455
Co2 Sm5 2.903276 1_555
Co2 Sm1 2.932487 1_555
Co2 Sm4 2.941831 1_555
Co2 Sm0 3.198762 1_555
Co2 Sm9 3.567106 1_554
Co3 Sm9 2.637614 1_555
Co3 Sm3 2.703174 1_565
Co3 Sm6 2.768489 1_465
Co3 Sm5 2.903274 1_566
Co3 Sm0 2.932482 1_555
Co3 Sm4 2.941827 1_556
Co3 Sm1 3.198765 1_455
Co3 Sm8 3.567110 1_556
