# generated using pymatgen
data_Sr16(Ru5O16)3
_symmetry_space_group_name_H-M   'P 1'
_cell_length_a   7.89497300
_cell_length_b   7.89951982
_cell_length_c   16.14290411
_cell_angle_alpha   90.05159278
_cell_angle_beta   90.03805190
_cell_angle_gamma   90.02618359
_symmetry_Int_Tables_number   1
_chemical_formula_structural   Sr16(Ru5O16)3
_chemical_formula_sum   'Sr16 Ru15 O48'
_cell_volume   1006.77562460
_cell_formula_units_Z   1
loop_
 _symmetry_equiv_pos_site_id
 _symmetry_equiv_pos_as_xyz
  1  'x, y, z'
loop_
 _atom_site_type_symbol
 _atom_site_label
 _atom_site_symmetry_multiplicity
 _atom_site_fract_x
 _atom_site_fract_y
 _atom_site_fract_z
 _atom_site_occupancy
  Sr  Sr0  1  0.24923900  0.74830600  0.12630300  1
  Sr  Sr1  1  0.27085200  0.76261300  0.61581200  1
  Sr  Sr2  1  0.72914800  0.23738700  0.38418800  1
  Sr  Sr3  1  0.75076100  0.25169400  0.87369700  1
  Sr  Sr4  1  0.26437700  0.22809500  0.38373100  1
  Sr  Sr5  1  0.24901400  0.24986900  0.87403300  1
  Sr  Sr6  1  0.75001800  0.75081700  0.87413200  1
  Sr  Sr7  1  0.73715700  0.76790300  0.38310500  1
  Sr  Sr8  1  0.26284300  0.23209700  0.61689500  1
  Sr  Sr9  1  0.73562300  0.77190500  0.61626900  1
  Sr  Sr10  1  0.24998200  0.24918300  0.12586800  1
  Sr  Sr11  1  0.75098600  0.75013100  0.12596700  1
  Sr  Sr12  1  0.75041700  0.24941400  0.12561700  1
  Sr  Sr13  1  0.72492000  0.23593800  0.61665300  1
  Sr  Sr14  1  0.27508000  0.76406200  0.38334700  1
  Sr  Sr15  1  0.24958300  0.75058600  0.87438300  1
  Ru  Ru0  1  0.00000000  0.00000000  0.00000000  1
  Ru  Ru1  1  0.00000000  0.00000000  0.50000000  1
  Ru  Ru2  1  0.99998700  0.99996900  0.74835600  1
  Ru  Ru3  1  0.00001300  0.00003100  0.25164400  1
  Ru  Ru4  1  0.50000000  0.00000000  0.00000000  1
  Ru  Ru5  1  0.49965300  0.00008600  0.75023200  1
  Ru  Ru6  1  0.00007100  0.50012800  0.74616600  1
  Ru  Ru7  1  0.00000000  0.50000000  0.50000000  1
  Ru  Ru8  1  0.99992900  0.49987200  0.25383400  1
  Ru  Ru9  1  0.50034700  0.99991400  0.24976800  1
  Ru  Ru10  1  0.00000000  0.50000000  0.00000000  1
  Ru  Ru11  1  0.49993600  0.49949500  0.25074200  1
  Ru  Ru12  1  0.50000000  0.50000000  0.00000000  1
  Ru  Ru13  1  0.50000000  0.50000000  0.50000000  1
  Ru  Ru14  1  0.50006400  0.50050500  0.74925800  1
  O  O0  1  0.96242300  0.74823000  0.49975600  1
  O  O1  1  0.95281300  0.75041300  0.75021400  1
  O  O2  1  0.95295000  0.75079600  0.24991400  1
  O  O3  1  0.95434800  0.74976800  0.99975000  1
  O  O4  1  0.00006400  0.99932100  0.12527100  1
  O  O5  1  0.00421000  0.99733100  0.62430800  1
  O  O6  1  0.99993600  0.00067900  0.87472900  1
  O  O7  1  0.99579000  0.00266900  0.37569200  1
  O  O8  1  0.25029600  0.95459100  0.24935900  1
  O  O9  1  0.24993500  0.95351200  0.00008800  1
  O  O10  1  0.25073600  0.95470400  0.75223900  1
  O  O11  1  0.75020200  0.45235600  0.74605200  1
  O  O12  1  0.23976300  0.97627500  0.49850300  1
  O  O13  1  0.75180700  0.45960500  0.50478600  1
  O  O14  1  0.74936100  0.45355000  0.24683000  1
  O  O15  1  0.74998400  0.45418400  0.00251600  1
  O  O16  1  0.04705000  0.24920400  0.75008600  1
  O  O17  1  0.03757700  0.25177000  0.50024400  1
  O  O18  1  0.04718700  0.24958700  0.24978600  1
  O  O19  1  0.04565200  0.25023200  0.00025000  1
  O  O20  1  0.50087600  0.99821500  0.87794300  1
  O  O21  1  0.99278600  0.49836900  0.87454700  1
  O  O22  1  0.50197900  0.99878000  0.36630300  1
  O  O23  1  0.98357000  0.49914600  0.37623700  1
  O  O24  1  0.49912400  0.00178500  0.12205700  1
  O  O25  1  0.01643000  0.50085400  0.62376300  1
  O  O26  1  0.49802100  0.00122000  0.63369700  1
  O  O27  1  0.00721400  0.50163100  0.12545300  1
  O  O28  1  0.45425600  0.24978800  0.24986200  1
  O  O29  1  0.45360200  0.25018900  0.99896300  1
  O  O30  1  0.47410400  0.25973900  0.49901400  1
  O  O31  1  0.45547500  0.25001800  0.75278900  1
  O  O32  1  0.74926400  0.04529600  0.24776100  1
  O  O33  1  0.75006500  0.04648800  0.99991200  1
  O  O34  1  0.74970400  0.04540900  0.75064100  1
  O  O35  1  0.76023700  0.02372500  0.50149700  1
  O  O36  1  0.24819300  0.54039500  0.49521400  1
  O  O37  1  0.25063900  0.54645000  0.75317000  1
  O  O38  1  0.25001600  0.54581600  0.99748400  1
  O  O39  1  0.24979800  0.54764400  0.25394800  1
  O  O40  1  0.49047000  0.49564900  0.62525700  1
  O  O41  1  0.49247100  0.49707800  0.12480000  1
  O  O42  1  0.50752900  0.50292200  0.87520000  1
  O  O43  1  0.50953000  0.50435100  0.37474300  1
  O  O44  1  0.54452500  0.74998200  0.24721100  1
  O  O45  1  0.54574400  0.75021200  0.75013800  1
  O  O46  1  0.54639800  0.74981100  0.00103700  1
  O  O47  1  0.52589600  0.74026100  0.50098600  1
loop_
_geom_bond_atom_site_label_1
_geom_bond_atom_site_label_2
_geom_bond_distance
_geom_bond_site_symmetry_2
O0 Ru7 1.983354 1_655
O0 Ru1 2.010733 1_665
O0 Sr7 2.594118 1_555
O0 Sr9 2.604405 1_555
O0 Sr1 3.073363 1_655
O0 Sr14 3.105857 1_655
O1 Ru2 2.006332 1_555
O1 Ru6 2.013206 1_655
O1 Sr6 2.563053 1_555
O1 Sr9 2.764132 1_555
O1 Sr15 3.082398 1_655
O2 Ru3 2.003590 1_665
O2 Ru8 2.017788 1_555
O2 Sr11 2.557666 1_555
O2 Sr7 2.747403 1_555
O2 Sr0 3.075739 1_655
O3 Ru10 2.005866 1_656
O3 Ru0 2.009140 1_666
O3 Sr6 2.590415 1_555
O3 Sr11 2.594907 1_556
O3 Sr15 3.087879 1_655
O3 Sr0 3.096413 1_656
O4 Ru0 2.022249 1_565
O4 Ru3 2.040030 1_565
O4 Sr11 2.781826 1_455
O4 Sr10 2.790238 1_565
O4 Sr12 2.791291 1_465
O4 Sr0 2.793875 1_555
O5 Ru2 2.002884 1_455
O5 Ru1 2.007075 1_565
O5 Sr8 2.760481 1_565
O5 Sr9 2.771312 1_455
O5 Sr1 2.809233 1_555
O5 Sr13 2.904113 1_465
O6 Ru0 2.022249 1_656
O6 Ru2 2.040030 1_545
O6 Sr5 2.781826 1_655
O6 Sr6 2.790238 1_545
O6 Sr15 2.791291 1_645
O6 Sr3 2.793875 1_555
O7 Ru3 2.002884 1_655
O7 Ru1 2.007075 1_655
O7 Sr7 2.760481 1_545
O7 Sr4 2.771312 1_655
O7 Sr2 2.809233 1_555
O7 Sr14 2.904113 1_645
O8 Ru9 2.006194 1_555
O8 Ru3 2.008835 1_565
O8 Sr0 2.568220 1_555
O8 Sr14 2.643392 1_555
O8 Sr4 3.062121 1_565
O8 Sr10 3.065612 1_565
O9 Ru0 2.007276 1_565
O9 Ru4 2.007957 1_565
O9 Sr15 2.584886 1_554
O9 Sr0 2.604809 1_555
O9 Sr10 3.093462 1_565
O9 Sr5 3.103235 1_564
O10 Ru5 1.997752 1_565
O10 Ru2 2.012796 1_455
O10 Sr15 2.548254 1_555
O10 Sr1 2.678194 1_555
O10 Sr5 3.048643 1_565
O11 Ru6 2.008310 1_655
O11 Ru14 2.011989 1_555
O11 Sr3 2.600857 1_555
O11 Sr13 2.705304 1_555
O11 Sr6 3.134465 1_555
O11 Sr9 3.283910 1_555
O12 Ru1 1.902430 1_565
O12 Sr14 2.517778 1_555
O12 Sr1 2.549638 1_555
O12 Sr4 2.726603 1_565
O12 Sr8 2.786040 1_565
O13 Ru7 1.986711 1_655
O13 Ru13 2.015043 1_555
O13 Sr13 2.536513 1_555
O13 Sr2 2.626142 1_555
O13 Sr9 3.055141 1_555
O14 Ru11 2.003561 1_555
O14 Ru8 2.014704 1_555
O14 Sr12 2.534485 1_555
O14 Sr2 2.804464 1_555
O14 Sr11 3.050254 1_555
O15 Ru10 2.007058 1_655
O15 Ru12 2.007081 1_555
O15 Sr12 2.563469 1_555
O15 Sr3 2.622419 1_554
O15 Sr11 3.070604 1_555
O15 Sr6 3.129668 1_554
O16 Ru2 2.003590 1_445
O16 Ru6 2.017788 1_555
O16 Sr5 2.557666 1_555
O16 Sr8 2.747403 1_555
O16 Sr3 3.075739 1_455
O17 Ru7 1.983354 1_555
O17 Ru1 2.010733 1_555
O17 Sr8 2.594118 1_555
O17 Sr4 2.604405 1_555
O17 Sr2 3.073363 1_455
O17 Sr13 3.105857 1_455
O18 Ru3 2.006332 1_555
O18 Ru8 2.013206 1_455
O18 Sr10 2.563053 1_555
O18 Sr4 2.764132 1_555
O18 Sr12 3.082398 1_455
O19 Ru10 2.005866 1_555
O19 Ru0 2.009140 1_555
O19 Sr10 2.590415 1_555
O19 Sr5 2.594907 1_554
O19 Sr12 3.087879 1_455
O19 Sr3 3.096413 1_454
O20 Ru4 1.970409 1_566
O20 Ru5 2.061709 1_565
O20 Sr6 2.774094 1_555
O20 Sr15 2.786035 1_555
O20 Sr3 2.811236 1_565
O20 Sr5 2.813093 1_565
O21 Ru10 2.025968 1_656
O21 Ru6 2.073337 1_655
O21 Sr3 2.728531 1_555
O21 Sr6 2.766584 1_555
O21 Sr5 2.819461 1_655
O21 Sr15 2.841889 1_655
O22 Ru9 1.881278 1_555
O22 Sr14 2.592513 1_555
O22 Sr2 2.616867 1_565
O22 Sr7 2.617369 1_555
O22 Sr4 2.623423 1_565
O23 Ru8 1.980255 1_555
O23 Ru7 2.002020 1_655
O23 Sr7 2.882352 1_555
O23 Sr2 2.885111 1_555
O23 Sr4 3.085228 1_655
O23 Sr14 3.111937 1_655
O24 Ru4 1.970409 1_555
O24 Ru9 2.061709 1_545
O24 Sr10 2.774094 1_555
O24 Sr12 2.786035 1_555
O24 Sr0 2.811236 1_545
O24 Sr11 2.813093 1_545
O25 Ru6 1.980255 1_555
O25 Ru7 2.002020 1_555
O25 Sr8 2.882352 1_555
O25 Sr1 2.885111 1_555
O25 Sr9 3.085228 1_455
O25 Sr13 3.111937 1_455
O26 Ru5 1.881278 1_555
O26 Sr13 2.592513 1_555
O26 Sr1 2.616867 1_545
O26 Sr8 2.617369 1_555
O26 Sr9 2.623423 1_545
O27 Ru10 2.025968 1_555
O27 Ru8 2.073337 1_455
O27 Sr0 2.728531 1_555
O27 Sr10 2.766584 1_555
O27 Sr11 2.819461 1_455
O27 Sr12 2.841889 1_455
O28 Ru11 2.005136 1_555
O28 Ru9 2.007309 1_545
O28 Sr10 2.569656 1_555
O28 Sr4 2.636558 1_555
O28 Sr2 3.068547 1_555
O28 Sr12 3.081569 1_555
O29 Ru12 2.006986 1_556
O29 Ru4 2.010280 1_556
O29 Sr5 2.582984 1_555
O29 Sr10 2.604914 1_556
O29 Sr3 3.098320 1_555
O29 Sr12 3.108894 1_556
O30 Ru13 1.908885 1_555
O30 Sr4 2.502428 1_555
O30 Sr8 2.540746 1_555
O30 Sr2 2.743400 1_555
O30 Sr13 2.749329 1_555
O31 Ru5 2.005464 1_555
O31 Ru14 2.010504 1_555
O31 Sr5 2.547922 1_555
O31 Sr8 2.672112 1_555
O31 Sr3 3.039481 1_555
O31 Sr13 3.061564 1_555
O32 Ru9 1.997752 1_545
O32 Ru3 2.012796 1_655
O32 Sr12 2.548254 1_555
O32 Sr2 2.678194 1_555
O32 Sr11 3.048643 1_545
O33 Ru0 2.007276 1_656
O33 Ru4 2.007957 1_556
O33 Sr12 2.584886 1_556
O33 Sr3 2.604809 1_555
O33 Sr6 3.093462 1_545
O33 Sr11 3.103235 1_546
O34 Ru5 2.006194 1_555
O34 Ru2 2.008835 1_545
O34 Sr3 2.568220 1_555
O34 Sr13 2.643392 1_555
O34 Sr9 3.062121 1_545
O34 Sr6 3.065612 1_545
O35 Ru1 1.902430 1_655
O35 Sr13 2.517778 1_555
O35 Sr2 2.549638 1_555
O35 Sr9 2.726603 1_545
O35 Sr7 2.786040 1_545
O36 Ru7 1.986711 1_555
O36 Ru13 2.015043 1_555
O36 Sr14 2.536513 1_555
O36 Sr1 2.626142 1_555
O36 Sr4 3.055141 1_555
O37 Ru14 2.003561 1_555
O37 Ru6 2.014704 1_555
O37 Sr15 2.534485 1_555
O37 Sr1 2.804464 1_555
O37 Sr5 3.050254 1_555
O38 Ru10 2.007058 1_556
O38 Ru12 2.007081 1_556
O38 Sr15 2.563469 1_555
O38 Sr0 2.622419 1_556
O38 Sr5 3.070604 1_555
O38 Sr10 3.129668 1_556
O39 Ru8 2.008310 1_455
O39 Ru11 2.011989 1_555
O39 Sr0 2.600857 1_555
O39 Sr14 2.705304 1_555
O39 Sr10 3.134465 1_555
O39 Sr4 3.283910 1_555
O40 Ru14 2.003451 1_555
O40 Ru13 2.023783 1_555
O40 Sr1 2.735061 1_555
O40 Sr8 2.752821 1_555
O40 Sr13 2.767261 1_555
O40 Sr9 2.920033 1_555
O41 Ru12 2.015703 1_555
O41 Ru11 2.033957 1_555
O41 Sr10 2.738032 1_555
O41 Sr0 2.762281 1_555
O41 Sr12 2.824654 1_555
O41 Sr11 2.856230 1_555
O42 Ru12 2.015703 1_556
O42 Ru14 2.033957 1_555
O42 Sr6 2.738032 1_555
O42 Sr3 2.762281 1_555
O42 Sr15 2.824654 1_555
O42 Sr5 2.856230 1_555
O43 Ru11 2.003451 1_555
O43 Ru13 2.023783 1_555
O43 Sr2 2.735061 1_555
O43 Sr7 2.752821 1_555
O43 Sr14 2.767261 1_555
O43 Sr4 2.920033 1_555
O44 Ru9 2.005464 1_555
O44 Ru11 2.010504 1_555
O44 Sr11 2.547922 1_555
O44 Sr7 2.672112 1_555
O44 Sr0 3.039481 1_555
O44 Sr14 3.061564 1_555
O45 Ru14 2.005136 1_555
O45 Ru5 2.007309 1_565
O45 Sr6 2.569656 1_555
O45 Sr9 2.636558 1_555
O45 Sr1 3.068547 1_555
O45 Sr15 3.081569 1_555
O46 Ru12 2.006986 1_555
O46 Ru4 2.010280 1_565
O46 Sr11 2.582984 1_555
O46 Sr6 2.604914 1_554
O46 Sr0 3.098320 1_555
O46 Sr15 3.108894 1_554
O47 Ru13 1.908885 1_555
O47 Sr9 2.502428 1_555
O47 Sr7 2.540746 1_555
O47 Sr1 2.743400 1_555
O47 Sr14 2.749329 1_555
