# generated using pymatgen
data_LaTiNO2
_symmetry_space_group_name_H-M   'P 1'
_cell_length_a   5.56376700
_cell_length_b   5.57518400
_cell_length_c   8.06911874
_cell_angle_alpha   89.91099364
_cell_angle_beta   90.00000000
_cell_angle_gamma   90.00000000
_symmetry_Int_Tables_number   1
_chemical_formula_structural   LaTiNO2
_chemical_formula_sum   'La4 Ti4 N4 O8'
_cell_volume   250.29589185
_cell_formula_units_Z   4
loop_
 _symmetry_equiv_pos_site_id
 _symmetry_equiv_pos_as_xyz
  1  'x, y, z'
loop_
 _atom_site_type_symbol
 _atom_site_label
 _atom_site_symmetry_multiplicity
 _atom_site_fract_x
 _atom_site_fract_y
 _atom_site_fract_z
 _atom_site_occupancy
  La  La0  1  0.00648000  0.74851700  0.24202600  1
  La  La1  1  0.00443200  0.75538200  0.75767300  1
  La  La2  1  0.50648000  0.25148300  0.75797400  1
  La  La3  1  0.50443200  0.24461800  0.24232700  1
  Ti  Ti0  1  0.00734600  0.26457700  0.00254300  1
  Ti  Ti1  1  0.00367000  0.24738700  0.48502500  1
  Ti  Ti2  1  0.50734600  0.73542300  0.99745700  1
  Ti  Ti3  1  0.50367000  0.75261300  0.51497500  1
  N  N0  1  0.79629400  0.55114000  0.99995100  1
  N  N1  1  0.00074800  0.24156600  0.25328500  1
  N  N2  1  0.29629400  0.44886000  0.00004900  1
  N  N3  1  0.50074800  0.75843400  0.74671500  1
  O  O0  1  0.69650000  0.44531200  0.49905000  1
  O  O1  1  0.67944000  0.06014000  0.99982800  1
  O  O2  1  0.80920400  0.94128000  0.49845500  1
  O  O3  1  0.99594400  0.23103200  0.74922400  1
  O  O4  1  0.19650000  0.55468800  0.50095000  1
  O  O5  1  0.17944000  0.93986000  0.00017200  1
  O  O6  1  0.30920400  0.05872000  0.50154500  1
  O  O7  1  0.49594400  0.76896800  0.25077600  1
loop_
_geom_bond_atom_site_label_1
_geom_bond_atom_site_label_2
_geom_bond_distance
_geom_bond_site_symmetry_2
La0 O5 2.422007 1_555
La0 N0 2.529951 1_454
La0 O4 2.577520 1_555
La0 O2 2.578370 1_455
La0 O7 2.726568 1_555
La0 N1 2.750666 1_565
La0 N1 2.827844 1_555
La0 O7 2.843672 1_455
La0 N2 3.035394 1_555
La0 O0 3.181569 1_455
La0 O1 3.184037 1_464
La0 O6 3.197537 1_565
La1 O5 2.416825 1_556
La1 N0 2.540204 1_455
La1 O2 2.573384 1_455
La1 O4 2.586955 1_555
La1 O3 2.653027 1_465
La1 N3 2.762853 1_555
La1 N3 2.803826 1_455
La1 O3 2.924630 1_455
La1 N2 3.061357 1_556
La1 O1 3.159863 1_465
La1 O6 3.161625 1_565
La1 O0 3.207780 1_455
La2 O1 2.422007 1_555
La2 N2 2.529951 1_556
La2 O0 2.577520 1_555
La2 O6 2.578370 1_555
La2 O3 2.726568 1_555
La2 N3 2.750666 1_545
La2 N3 2.827844 1_555
La2 O3 2.843672 1_455
La2 N0 3.035394 1_555
La2 O4 3.181569 1_555
La2 O5 3.184037 1_546
La2 O2 3.197537 1_545
La3 O1 2.416825 1_554
La3 N2 2.540204 1_555
La3 O6 2.573384 1_555
La3 O0 2.586955 1_555
La3 O7 2.653027 1_545
La3 N1 2.762853 1_655
La3 N1 2.803826 1_555
La3 O7 2.924630 1_555
La3 N0 3.061357 1_554
La3 O5 3.159863 1_545
La3 O2 3.161625 1_545
La3 O4 3.207780 1_555
N0 Ti2 1.907988 1_555
N0 Ti0 1.982837 1_656
N1 Ti1 1.870340 1_555
N1 Ti0 2.027464 1_555
N2 Ti0 1.907988 1_555
N2 Ti2 1.982837 1_554
N3 Ti3 1.870340 1_555
N3 Ti2 2.027464 1_555
O0 Ti3 2.025706 1_555
O0 Ti1 2.037546 1_655
O1 Ti2 2.048086 1_545
O1 Ti0 2.151290 1_656
O2 Ti3 2.003361 1_555
O2 Ti1 2.023440 1_665
O3 Ti0 2.053868 1_656
O3 Ti1 2.134094 1_655
O4 Ti1 2.025706 1_555
O4 Ti3 2.037546 1_555
O5 Ti0 2.048086 1_565
O5 Ti2 2.151290 1_554
O6 Ti1 2.003361 1_555
O6 Ti3 2.023440 1_545
O7 Ti2 2.053868 1_554
O7 Ti3 2.134094 1_555
