# generated using pymatgen
data_Li2VO2F
_symmetry_space_group_name_H-M   'P 1'
_cell_length_a   6.01293100
_cell_length_b   6.02283357
_cell_length_c   7.94267043
_cell_angle_alpha   67.90163150
_cell_angle_beta   79.12481285
_cell_angle_gamma   60.05825478
_symmetry_Int_Tables_number   1
_chemical_formula_structural   Li2VO2F
_chemical_formula_sum   'Li8 V4 O8 F4'
_cell_volume   230.94176776
_cell_formula_units_Z   4
loop_
 _symmetry_equiv_pos_site_id
 _symmetry_equiv_pos_as_xyz
  1  'x, y, z'
loop_
 _atom_site_type_symbol
 _atom_site_label
 _atom_site_symmetry_multiplicity
 _atom_site_fract_x
 _atom_site_fract_y
 _atom_site_fract_z
 _atom_site_occupancy
  Li  Li0  1  0.81448300  0.41905700  0.86487100  1
  Li  Li1  1  0.34732800  0.88033700  0.85301300  1
  Li  Li2  1  0.83910200  0.89335900  0.85614600  1
  Li  Li3  1  0.33479600  0.42006700  0.86376800  1
  Li  Li4  1  0.65048600  0.58502100  0.14495900  1
  Li  Li5  1  0.17023000  0.08819800  0.15114700  1
  Li  Li6  1  0.65132600  0.12285800  0.14022400  1
  Li  Li7  1  0.19405100  0.58345700  0.14279400  1
  V  V0  1  0.49577000  0.25113300  0.49181600  1
  V  V1  1  0.99923600  0.74911500  0.50104000  1
  V  V2  1  0.49685900  0.75959000  0.49471300  1
  V  V3  1  0.00680700  0.25065000  0.49319600  1
  O  O0  1  0.50109400  0.50193300  0.99758500  1
  O  O1  1  0.66070600  0.84970600  0.64556400  1
  O  O2  1  0.16959800  0.33974000  0.64432800  1
  O  O3  1  0.83329200  0.15825500  0.35472000  1
  O  O4  1  0.33738500  0.65619600  0.35372500  1
  O  O5  1  0.82935200  0.65229300  0.35546700  1
  O  O6  1  0.16665100  0.84783500  0.64662700  1
  O  O7  1  0.33300000  0.15934000  0.34271300  1
  F  F0  1  0.99877800  0.00077800  0.99952300  1
  F  F1  1  0.50144600  0.00141600  0.99725000  1
  F  F2  1  0.66818900  0.33030400  0.66423900  1
  F  F3  1  0.00003600  0.49932700  0.00057000  1
loop_
_geom_bond_atom_site_label_1
_geom_bond_atom_site_label_2
_geom_bond_distance
_geom_bond_site_symmetry_2
Li0 O0 1.902266 1_555
Li0 O1 2.330439 1_555
Li0 O2 2.460906 1_655
Li1 O0 1.922410 1_555
Li1 O1 2.238245 1_555
Li1 O6 2.243094 1_555
Li1 O2 2.410655 1_565
Li2 O6 2.300232 1_655
Li2 O1 2.303629 1_555
Li3 O0 1.913159 1_555
Li3 O6 2.312783 1_555
Li3 O2 2.454800 1_555
Li4 O0 1.927106 1_554
Li4 O4 2.242514 1_555
Li4 O3 2.288958 1_555
Li4 O5 2.395767 1_555
Li5 O7 2.219834 1_555
Li5 O4 2.284456 1_545
Li5 O3 2.306713 1_455
Li6 O0 1.921815 1_554
Li6 O7 2.232272 1_555
Li6 O3 2.314006 1_555
Li6 O5 2.473354 1_545
Li7 O0 1.922899 1_554
Li7 O7 2.250055 1_555
Li7 O4 2.283754 1_555
Li7 O5 2.460835 1_455
O1 V0 2.040160 1_565
O1 V2 2.041881 1_555
O1 V1 2.058816 1_555
O2 V3 2.034526 1_555
O2 V0 2.035629 1_555
O2 V1 2.056977 1_455
O3 V3 2.020152 1_655
O3 V0 2.026973 1_555
O3 V1 2.060793 1_545
O4 V2 2.021691 1_555
O4 V0 2.030601 1_555
O4 V1 2.067732 1_455
O5 V2 2.012844 1_555
O5 V3 2.014879 1_655
O5 V1 2.065918 1_555
O6 V3 2.045624 1_565
O6 V2 2.050788 1_555
O6 V1 2.063500 1_455
O7 V3 2.027618 1_555
O7 V2 2.029494 1_545
O7 V0 2.033761 1_555
F0 Li2 2.055296 1_545
F0 Li5 2.068280 1_656
F0 Li0 2.086044 1_555
F0 Li6 2.087609 1_556
F0 Li7 2.096957 1_646
F0 Li1 2.114235 1_645
F1 Li2 2.042769 1_545
F1 Li5 2.063179 1_556
F1 Li6 2.075063 1_556
F1 Li3 2.086447 1_555
F1 Li1 2.099239 1_545
F1 Li4 2.099630 1_546
F2 V3 2.166325 1_655
F2 V0 2.167558 1_555
F2 V2 2.191894 1_555
F2 Li2 2.275591 1_545
F2 Li3 2.277391 1_555
F2 Li0 2.288709 1_555
F3 Li2 1.990593 1_454
F3 Li0 2.006114 1_454
F3 Li3 2.016435 1_554
F3 Li5 2.076808 1_555
F3 Li7 2.100427 1_555
F3 Li4 2.110016 1_455
