# generated using pymatgen
data_Li5V2Cr2O8
_symmetry_space_group_name_H-M   'P 1'
_cell_length_a   6.01865607
_cell_length_b   6.04581944
_cell_length_c   6.03184064
_cell_angle_alpha   119.74110638
_cell_angle_beta   60.07211108
_cell_angle_gamma   90.00040980
_symmetry_Int_Tables_number   1
_chemical_formula_structural   Li5V2Cr2O8
_chemical_formula_sum   'Li5 V2 Cr2 O8'
_cell_volume   155.97261877
_cell_formula_units_Z   1
loop_
 _symmetry_equiv_pos_site_id
 _symmetry_equiv_pos_as_xyz
  1  'x, y, z'
loop_
 _atom_site_type_symbol
 _atom_site_label
 _atom_site_symmetry_multiplicity
 _atom_site_fract_x
 _atom_site_fract_y
 _atom_site_fract_z
 _atom_site_occupancy
  Li  Li0  1  0.00002200  0.99994400  0.99996200  1
  Li  Li1  1  0.49994400  0.99999900  0.49999200  1
  Li  Li2  1  0.00008600  0.00000500  0.49999500  1
  Li  Li3  1  0.93429600  0.70915500  0.13140600  1
  Li  Li4  1  0.06578800  0.29068100  0.86842800  1
  V  V0  1  0.49990300  0.99993000  0.00016500  1
  V  V1  1  0.49991700  0.50012900  0.00014100  1
  Cr  Cr0  1  0.00032800  0.49981700  0.49957800  1
  Cr  Cr1  1  0.50018500  0.49984300  0.49957800  1
  O  O0  1  0.25214200  0.26367200  0.49567100  1
  O  O1  1  0.74777200  0.73659700  0.50442000  1
  O  O2  1  0.24856900  0.73463000  0.50283200  1
  O  O3  1  0.75130100  0.26538300  0.49736000  1
  O  O4  1  0.26931000  0.75181700  0.98001400  1
  O  O5  1  0.75066700  0.75182100  0.98001200  1
  O  O6  1  0.24906200  0.24828800  0.02021800  1
  O  O7  1  0.73071200  0.24828800  0.02021700  1
loop_
_geom_bond_atom_site_label_1
_geom_bond_atom_site_label_2
_geom_bond_distance
_geom_bond_site_symmetry_2
Li0 O6 2.125232 1_566
Li0 O7 2.125314 1_466
Li0 O4 2.125575 1_555
Li0 O5 2.125610 1_455
Li0 O2 2.134085 1_555
Li0 O3 2.135229 1_466
Li1 O1 2.200804 1_555
Li1 O0 2.201436 1_565
Li1 O3 2.205558 1_565
Li1 O2 2.205599 1_555
Li1 O5 2.230235 1_554
Li1 O6 2.231285 1_566
Li2 O1 2.201053 1_445
Li2 O0 2.201118 1_555
Li2 O2 2.205415 1_545
Li2 O3 2.205807 1_455
Li2 O4 2.230233 1_544
Li2 O7 2.231273 1_456
Li3 O4 1.833697 1_654
Li3 O5 1.833760 1_554
Li3 O1 1.859952 1_555
Li4 O6 1.833377 1_556
Li4 O7 1.833431 1_456
Li4 O0 1.859951 1_555
Cr0 O6 2.057268 1_555
Cr0 O2 2.061457 1_555
Cr0 O5 2.061915 1_455
Cr0 O3 2.063162 1_455
Cr0 O0 2.065636 1_555
Cr0 O1 2.067589 1_455
Cr1 O7 2.057294 1_555
Cr1 O2 2.061896 1_555
Cr1 O4 2.061899 1_555
Cr1 O3 2.062718 1_555
Cr1 O0 2.066325 1_555
Cr1 O1 2.066910 1_555
O0 V0 2.126885 1_545
O1 V0 2.127743 1_556
O2 V1 2.156472 1_555
O3 V1 2.156810 1_556
O4 V0 2.044129 1_556
O4 V1 2.146632 1_556
O5 V0 2.044204 1_556
O5 V1 2.146700 1_556
O6 V0 2.045999 1_545
O6 V1 2.147772 1_555
O7 V0 2.046073 1_545
O7 V1 2.147852 1_555
