# generated using pymatgen
data_Na5LiMn2P2(CO7)2
_symmetry_space_group_name_H-M   'P 1'
_cell_length_a   6.76927900
_cell_length_b   8.96575300
_cell_length_c   10.34825447
_cell_angle_alpha   89.92668777
_cell_angle_beta   90.00000000
_cell_angle_gamma   90.00000000
_symmetry_Int_Tables_number   1
_chemical_formula_structural   Na5LiMn2P2(CO7)2
_chemical_formula_sum   'Na10 Li2 Mn4 P4 C4 O28'
_cell_volume   628.05247103
_cell_formula_units_Z   2
loop_
 _symmetry_equiv_pos_site_id
 _symmetry_equiv_pos_as_xyz
  1  'x, y, z'
loop_
 _atom_site_type_symbol
 _atom_site_label
 _atom_site_symmetry_multiplicity
 _atom_site_fract_x
 _atom_site_fract_y
 _atom_site_fract_z
 _atom_site_occupancy
  Na  Na0  1  0.49792900  0.08225900  0.88003100  1
  Na  Na1  1  0.50207100  0.08225900  0.38003100  1
  Na  Na2  1  0.25183500  0.25864600  0.62376300  1
  Na  Na3  1  0.74808200  0.25877400  0.62382500  1
  Na  Na4  1  0.25191800  0.25877400  0.12382500  1
  Na  Na5  1  0.74816500  0.25864600  0.12376300  1
  Na  Na6  1  0.75186000  0.74167900  0.87655600  1
  Na  Na7  1  0.24814000  0.74167900  0.37655600  1
  Na  Na8  1  0.00018700  0.91588500  0.61995800  1
  Na  Na9  1  0.99981300  0.91588500  0.11995800  1
  Li  Li0  1  0.24301000  0.73300600  0.87880600  1
  Li  Li1  1  0.75699000  0.73300600  0.37880600  1
  Mn  Mn0  1  0.99965400  0.36259700  0.88918500  1
  Mn  Mn1  1  0.00034600  0.36259700  0.38918500  1
  Mn  Mn2  1  0.50117900  0.63994800  0.61051500  1
  Mn  Mn3  1  0.49882100  0.63994800  0.11051500  1
  P  P0  1  0.49638500  0.41362700  0.85021000  1
  P  P1  1  0.50361500  0.41362700  0.35021000  1
  P  P2  1  0.00282500  0.59100600  0.64879900  1
  P  P3  1  0.99717500  0.59100600  0.14879900  1
  C  C0  1  0.00498400  0.05615200  0.86815800  1
  C  C1  1  0.99501600  0.05615200  0.36815800  1
  C  C2  1  0.49941600  0.93983000  0.63273500  1
  C  C3  1  0.50058400  0.93983000  0.13273500  1
  O  O0  1  0.49990700  0.08359400  0.64323000  1
  O  O1  1  0.50009300  0.08359400  0.14323000  1
  O  O2  1  0.99932500  0.12012400  0.98131400  1
  O  O3  1  0.00067500  0.12012400  0.48131400  1
  O  O4  1  0.99915800  0.14022900  0.76509400  1
  O  O5  1  0.00084200  0.14022900  0.26509400  1
  O  O6  1  0.31505400  0.31829000  0.89205300  1
  O  O7  1  0.68258800  0.32483600  0.89398300  1
  O  O8  1  0.31741200  0.32483600  0.39398300  1
  O  O9  1  0.68494600  0.31829000  0.39205300  1
  O  O10  1  0.49949500  0.42777000  0.69973400  1
  O  O11  1  0.00028400  0.43116800  0.59128300  1
  O  O12  1  0.50050500  0.42777000  0.19973400  1
  O  O13  1  0.99971600  0.43116800  0.09128300  1
  O  O14  1  0.48727100  0.57382800  0.90775300  1
  O  O15  1  0.00815300  0.57799800  0.80015100  1
  O  O16  1  0.51272900  0.57382800  0.40775300  1
  O  O17  1  0.99184700  0.57799800  0.30015100  1
  O  O18  1  0.81814300  0.68200200  0.60568100  1
  O  O19  1  0.18564700  0.68185500  0.60414200  1
  O  O20  1  0.81435300  0.68185500  0.10414200  1
  O  O21  1  0.18185700  0.68200200  0.10568100  1
  O  O22  1  0.49708700  0.85548200  0.73577100  1
  O  O23  1  0.50291300  0.85548200  0.23577100  1
  O  O24  1  0.50158500  0.87736300  0.51891300  1
  O  O25  1  0.49841500  0.87736300  0.01891300  1
  O  O26  1  0.01561900  0.91205400  0.85835600  1
  O  O27  1  0.98438100  0.91205400  0.35835600  1
loop_
_geom_bond_atom_site_label_1
_geom_bond_atom_site_label_2
_geom_bond_distance
_geom_bond_site_symmetry_2
Na0 O25 2.330987 1_546
Na0 O0 2.450528 1_555
Na0 O6 2.454977 1_555
Na0 O7 2.512826 1_555
Na0 O22 2.523961 1_545
Na0 O1 2.723731 1_556
Na1 O24 2.330987 1_545
Na1 O1 2.450528 1_555
Na1 O9 2.454977 1_555
Na1 O8 2.512826 1_555
Na1 O23 2.523961 1_545
Na1 O0 2.723731 1_555
Na2 O0 2.307154 1_555
Na2 O11 2.324606 1_555
Na2 O10 2.393937 1_555
Na2 O4 2.487535 1_455
Na2 O8 2.489911 1_555
Na2 O3 2.571126 1_555
Na2 O6 2.860232 1_555
Na3 O0 2.308387 1_555
Na3 O11 2.327166 1_655
Na3 O10 2.397398 1_555
Na3 O4 2.480208 1_555
Na3 O9 2.493313 1_555
Na3 O3 2.578472 1_655
Na3 O7 2.892636 1_555
Na4 O1 2.308387 1_555
Na4 O13 2.327166 1_455
Na4 O12 2.397398 1_555
Na4 O5 2.480208 1_555
Na4 O6 2.493313 1_554
Na4 O2 2.578472 1_454
Na4 O8 2.892636 1_555
Na5 O1 2.307154 1_555
Na5 O13 2.324606 1_555
Na5 O12 2.393937 1_555
Na5 O5 2.487535 1_655
Na5 O7 2.489911 1_554
Na5 O2 2.571126 1_554
Na5 O9 2.860232 1_555
Na6 O26 2.357112 1_655
Na6 O14 2.361290 1_555
Na6 O15 2.406591 1_655
Na6 O20 2.451529 1_556
Na6 O22 2.476714 1_555
Na6 O25 2.568669 1_556
Na6 O18 2.889414 1_555
Na7 O27 2.357112 1_455
Na7 O16 2.361290 1_555
Na7 O17 2.406591 1_455
Na7 O19 2.451529 1_555
Na7 O23 2.476714 1_555
Na7 O24 2.568669 1_555
Na7 O21 2.889414 1_555
Na8 O3 2.324834 1_565
Na8 O18 2.436872 1_455
Na8 O19 2.450805 1_555
Na8 O26 2.469409 1_555
Na8 O4 2.511828 1_465
Na8 O27 2.709499 1_455
Na9 O2 2.324834 1_564
Na9 O21 2.436872 1_655
Na9 O20 2.450805 1_555
Na9 O27 2.469409 1_555
Na9 O5 2.511828 1_665
Na9 O26 2.709499 1_654
Li0 O14 2.204396 1_555
Li0 O26 2.233890 1_555
Li0 O15 2.263701 1_555
Li0 O21 2.426872 1_556
Li0 O22 2.520048 1_555
Li0 O25 2.602145 1_556
Li1 O16 2.204396 1_555
Li1 O27 2.233890 1_555
Li1 O17 2.263701 1_555
Li1 O18 2.426872 1_555
Li1 O23 2.520048 1_555
Li1 O24 2.602145 1_555
Mn0 O15 2.139461 1_655
Mn0 O6 2.171868 1_655
Mn0 O7 2.173403 1_555
Mn0 O13 2.180608 1_556
Mn0 O2 2.372698 1_555
Mn0 O4 2.372839 1_555
Mn1 O17 2.139461 1_455
Mn1 O9 2.171868 1_455
Mn1 O8 2.173403 1_555
Mn1 O11 2.180608 1_555
Mn1 O3 2.372698 1_555
Mn1 O5 2.372839 1_555
Mn2 O10 2.113510 1_555
Mn2 O19 2.169707 1_555
Mn2 O18 2.179058 1_555
Mn2 O16 2.182500 1_555
Mn2 O22 2.328417 1_555
Mn2 O24 2.329024 1_555
Mn3 O12 2.113510 1_555
Mn3 O20 2.169707 1_555
Mn3 O21 2.179058 1_555
Mn3 O14 2.182500 1_554
Mn3 O23 2.328417 1_555
Mn3 O25 2.329024 1_555
C0 O26 1.298050 1_545
C0 O2 1.305112 1_455
C0 O4 1.305842 1_455
C1 O27 1.298050 1_545
C1 O3 1.305112 1_655
C1 O5 1.305842 1_655
C2 O0 1.293663 1_565
C2 O24 1.304962 1_555
C2 O22 1.306508 1_555
C3 O1 1.293663 1_565
C3 O25 1.304962 1_555
C3 O23 1.306508 1_555
O6 P0 1.556881 1_555
O7 P0 1.557807 1_555
O8 P1 1.557807 1_555
O9 P1 1.556881 1_555
O10 P0 1.562298 1_555
O11 P2 1.552551 1_555
O12 P1 1.562298 1_555
O13 P3 1.552551 1_555
O14 P0 1.556792 1_555
O15 P2 1.570830 1_555
O16 P1 1.556792 1_555
O17 P3 1.570830 1_555
O18 P2 1.557779 1_655
O19 P2 1.551657 1_555
O20 P3 1.551657 1_555
O21 P3 1.557779 1_455
