# generated using pymatgen
data_Li2V3CrO8
_symmetry_space_group_name_H-M   'P 1'
_cell_length_a   5.89623600
_cell_length_b   5.96417478
_cell_length_c   5.99229041
_cell_angle_alpha   60.44202048
_cell_angle_beta   60.80477294
_cell_angle_gamma   60.47999985
_symmetry_Int_Tables_number   1
_chemical_formula_structural   Li2V3CrO8
_chemical_formula_sum   'Li2 V3 Cr1 O8'
_cell_volume   150.93953953
_cell_formula_units_Z   1
loop_
 _symmetry_equiv_pos_site_id
 _symmetry_equiv_pos_as_xyz
  1  'x, y, z'
loop_
 _atom_site_type_symbol
 _atom_site_label
 _atom_site_symmetry_multiplicity
 _atom_site_fract_x
 _atom_site_fract_y
 _atom_site_fract_z
 _atom_site_occupancy
  Li  Li0  1  0.50000000  0.00000000  0.50000000  1
  Li  Li1  1  0.00000000  0.50000000  0.50000000  1
  V  V0  1  0.50000000  0.00000000  0.00000000  1
  V  V1  1  0.00000000  0.50000000  0.00000000  1
  V  V2  1  0.50000000  0.50000000  0.00000000  1
  Cr  Cr0  1  0.00000000  0.00000000  0.00000000  1
  O  O0  1  0.26844000  0.25722000  0.21917100  1
  O  O1  1  0.27491100  0.76681900  0.20632100  1
  O  O2  1  0.76154800  0.76405300  0.21580300  1
  O  O3  1  0.25433400  0.73210700  0.79678200  1
  O  O4  1  0.74566600  0.26789300  0.20321800  1
  O  O5  1  0.23845200  0.23594700  0.78419700  1
  O  O6  1  0.72508900  0.23318100  0.79367900  1
  O  O7  1  0.73156000  0.74278000  0.78082900  1
loop_
_geom_bond_atom_site_label_1
_geom_bond_atom_site_label_2
_geom_bond_distance
_geom_bond_site_symmetry_2
Li0 O0 2.163284 1_555
Li0 O7 2.163284 1_545
Li0 O3 2.185843 1_545
Li0 O4 2.185843 1_555
Li0 O2 2.218647 1_545
Li0 O5 2.218647 1_555
Li1 O5 2.205658 1_555
Li1 O2 2.205658 1_455
Li1 O7 2.231766 1_455
Li1 O0 2.231766 1_555
Li1 O6 2.291923 1_455
Li1 O1 2.291923 1_555
Cr0 O2 2.002477 1_445
Cr0 O5 2.002477 1_554
Cr0 O4 2.015309 1_455
Cr0 O3 2.015309 1_544
Cr0 O1 2.031574 1_545
Cr0 O6 2.031574 1_454
O0 V2 2.002073 1_555
O0 V0 2.028999 1_555
O0 V1 2.054249 1_555
O1 V0 1.935412 1_565
O1 V2 2.020245 1_555
O2 V0 2.010548 1_565
O2 V1 2.045169 1_655
O3 V2 1.891831 1_556
O3 V1 2.061345 1_556
O4 V2 1.891831 1_555
O4 V1 2.061345 1_655
O5 V0 2.010548 1_556
O5 V1 2.045169 1_556
O6 V0 1.935412 1_556
O6 V2 2.020245 1_556
O7 V2 2.002073 1_556
O7 V0 2.028999 1_566
O7 V1 2.054249 1_656
