# generated using pymatgen
data_Na6NiO4
_symmetry_space_group_name_H-M   'P 1'
_cell_length_a   5.46243319
_cell_length_b   10.59175058
_cell_length_c   10.60472666
_cell_angle_alpha   89.92756360
_cell_angle_beta   90.01718797
_cell_angle_gamma   90.02331374
_symmetry_Int_Tables_number   1
_chemical_formula_structural   Na6NiO4
_chemical_formula_sum   'Na24 Ni4 O16'
_cell_volume   613.55423756
_cell_formula_units_Z   4
loop_
 _symmetry_equiv_pos_site_id
 _symmetry_equiv_pos_as_xyz
  1  'x, y, z'
loop_
 _atom_site_type_symbol
 _atom_site_label
 _atom_site_symmetry_multiplicity
 _atom_site_fract_x
 _atom_site_fract_y
 _atom_site_fract_z
 _atom_site_occupancy
  Na  Na0  1  0.65573100  0.24842300  0.00005500  1
  Na  Na1  1  0.65657100  0.75202500  0.50027300  1
  Na  Na2  1  0.84468200  0.74813100  0.00016200  1
  Na  Na3  1  0.84348300  0.25158100  0.49941500  1
  Na  Na4  1  0.15575700  0.24865000  0.00157100  1
  Na  Na5  1  0.15648700  0.75181100  0.49876200  1
  Na  Na6  1  0.34451200  0.74849600  0.99861900  1
  Na  Na7  1  0.34360700  0.25149300  0.50117200  1
  Na  Na8  1  0.75003400  0.28701100  0.24960200  1
  Na  Na9  1  0.74920100  0.78719400  0.75053800  1
  Na  Na10  1  0.74939100  0.50136300  0.46265300  1
  Na  Na11  1  0.75046500  0.99866800  0.96296500  1
  Na  Na12  1  0.74946000  0.49876400  0.03731300  1
  Na  Na13  1  0.75048600  0.00159900  0.53717700  1
  Na  Na14  1  0.75116300  0.71285200  0.25014200  1
  Na  Na15  1  0.74913900  0.21286100  0.74977800  1
  Na  Na16  1  0.25107400  0.28720600  0.75140400  1
  Na  Na17  1  0.24905000  0.78692100  0.24846600  1
  Na  Na18  1  0.25025400  0.49856500  0.96321600  1
  Na  Na19  1  0.25016500  0.00148800  0.46267000  1
  Na  Na20  1  0.24980000  0.50133900  0.53719900  1
  Na  Na21  1  0.24996600  0.99850000  0.03732000  1
  Na  Na22  1  0.25122600  0.71300200  0.74884300  1
  Na  Na23  1  0.24884400  0.21253400  0.25102800  1
  Ni  Ni0  1  0.24759700  0.00027800  0.75011900  1
  Ni  Ni1  1  0.25158400  0.49970900  0.25053900  1
  Ni  Ni2  1  0.75407300  0.49992700  0.74976100  1
  Ni  Ni3  1  0.74590700  0.99990500  0.24968700  1
  O  O0  1  0.92688000  0.62454900  0.62558100  1
  O  O1  1  0.92847700  0.12024500  0.12899200  1
  O  O2  1  0.92608300  0.37521800  0.87417700  1
  O  O3  1  0.92904900  0.87962000  0.37080200  1
  O  O4  1  0.57089300  0.37959400  0.62889400  1
  O  O5  1  0.57379100  0.87518200  0.12567800  1
  O  O6  1  0.57167400  0.62041900  0.87073600  1
  O  O7  1  0.57336300  0.12449500  0.37424400  1
  O  O8  1  0.42540800  0.62524500  0.37416700  1
  O  O9  1  0.42959900  0.12030000  0.87173000  1
  O  O10  1  0.42555700  0.37523900  0.12665900  1
  O  O11  1  0.43008000  0.88001500  0.62907100  1
  O  O12  1  0.07091700  0.62014500  0.12827600  1
  O  O13  1  0.07505800  0.12529000  0.62616400  1
  O  O14  1  0.06885000  0.37919000  0.37055000  1
  O  O15  1  0.07461400  0.87531100  0.87382700  1
loop_
_geom_bond_atom_site_label_1
_geom_bond_atom_site_label_2
_geom_bond_distance
_geom_bond_site_symmetry_2
Na0 O10 2.279155 1_555
Na0 O9 2.285079 1_554
Na0 O2 2.400307 1_554
Na0 O1 2.434786 1_555
Na1 O8 2.277759 1_555
Na1 O11 2.289335 1_555
Na1 O0 2.401037 1_555
Na1 O3 2.433471 1_555
Na2 O15 2.276416 1_654
Na2 O12 2.281744 1_655
Na2 O5 2.404066 1_555
Na2 O6 2.437083 1_554
Na3 O13 2.278583 1_655
Na3 O14 2.281412 1_655
Na3 O7 2.398489 1_555
Na3 O4 2.438955 1_555
Na4 O2 2.278603 1_454
Na4 O1 2.282963 1_455
Na4 O10 2.393973 1_555
Na4 O9 2.447286 1_554
Na5 O0 2.278972 1_455
Na5 O3 2.283230 1_455
Na5 O8 2.389144 1_555
Na5 O11 2.447216 1_555
Na6 O5 2.277456 1_556
Na6 O6 2.286087 1_555
Na6 O15 2.392702 1_555
Na6 O12 2.442758 1_556
Na7 O7 2.281063 1_555
Na7 O4 2.284551 1_555
Na7 O13 2.385527 1_555
Na7 O14 2.448745 1_555
Na8 O14 2.373110 1_655
Na8 O7 2.373837 1_555
Na8 O10 2.389876 1_555
Na8 O1 2.390370 1_555
Na9 O11 2.379356 1_555
Na9 O0 2.381922 1_555
Na9 O6 2.383089 1_555
Na9 O15 2.395935 1_655
Na10 O0 2.373045 1_555
Na10 O14 2.383204 1_655
Na10 O4 2.390890 1_555
Na10 O8 2.394151 1_555
Na11 O5 2.369337 1_556
Na11 O9 2.380223 1_565
Na11 O1 2.389011 1_566
Na11 O15 2.396218 1_655
Na12 O2 2.375683 1_554
Na12 O12 2.380544 1_655
Na12 O6 2.391281 1_554
Na12 O10 2.394976 1_555
Na13 O7 2.368610 1_555
Na13 O11 2.380603 1_545
Na13 O3 2.396115 1_545
Na13 O13 2.398021 1_655
Na14 O5 2.373169 1_555
Na14 O12 2.385594 1_655
Na14 O3 2.388533 1_555
Na14 O8 2.398791 1_555
Na15 O2 2.373887 1_555
Na15 O9 2.382666 1_555
Na15 O4 2.388524 1_555
Na15 O13 2.398766 1_655
Na16 O13 2.373429 1_555
Na16 O4 2.386247 1_555
Na16 O9 2.387337 1_555
Na16 O2 2.391949 1_455
Na17 O8 2.373228 1_555
Na17 O12 2.386474 1_555
Na17 O3 2.389254 1_455
Na17 O5 2.390203 1_555
Na18 O10 2.371020 1_556
Na18 O12 2.385298 1_556
Na18 O6 2.388763 1_555
Na18 O2 2.394630 1_455
Na19 O13 2.376600 1_555
Na19 O7 2.385293 1_555
Na19 O3 2.385870 1_445
Na19 O11 2.393618 1_545
Na20 O8 2.371890 1_555
Na20 O4 2.383766 1_555
Na20 O0 2.387242 1_455
Na20 O14 2.403697 1_555
Na21 O15 2.372700 1_554
Na21 O1 2.387016 1_465
Na21 O9 2.388525 1_564
Na21 O5 2.389713 1_555
Na22 O15 2.377132 1_555
Na22 O11 2.385507 1_555
Na22 O6 2.386075 1_555
Na22 O0 2.392851 1_455
Na23 O10 2.373773 1_555
Na23 O1 2.386052 1_455
Na23 O14 2.386822 1_555
Na23 O7 2.390844 1_555
Ni0 O11 2.066383 1_545
Ni0 O9 2.066395 1_555
Ni0 O15 2.088351 1_545
Ni0 O13 2.089332 1_555
Ni1 O14 2.059408 1_555
Ni1 O12 2.068410 1_555
Ni1 O10 2.091208 1_555
Ni1 O8 2.095465 1_555
Ni2 O4 2.066615 1_555
Ni2 O6 2.067179 1_555
Ni2 O0 2.088754 1_555
Ni2 O2 2.089078 1_555
Ni3 O1 2.062290 1_565
Ni3 O3 2.066335 1_555
Ni3 O5 2.088333 1_555
Ni3 O7 2.093003 1_565
