# generated using pymatgen
data_Li5Co5O9F
_symmetry_space_group_name_H-M   'P 1'
_cell_length_a   5.01370000
_cell_length_b   5.12380868
_cell_length_c   7.81633880
_cell_angle_alpha   71.49019751
_cell_angle_beta   72.35217971
_cell_angle_gamma   79.24251595
_symmetry_Int_Tables_number   1
_chemical_formula_structural   Li5Co5O9F
_chemical_formula_sum   'Li5 Co5 O9 F1'
_cell_volume   180.53710412
_cell_formula_units_Z   1
loop_
 _symmetry_equiv_pos_site_id
 _symmetry_equiv_pos_as_xyz
  1  'x, y, z'
loop_
 _atom_site_type_symbol
 _atom_site_label
 _atom_site_symmetry_multiplicity
 _atom_site_fract_x
 _atom_site_fract_y
 _atom_site_fract_z
 _atom_site_occupancy
  Li  Li0  1  0.69301900  0.49576500  0.09445400  1
  Li  Li1  1  0.11040000  0.49842000  0.30413700  1
  Li  Li2  1  0.48757000  0.49734500  0.50835200  1
  Li  Li3  1  0.90384800  0.50259900  0.69445900  1
  Li  Li4  1  0.30179000  0.50925500  0.89592900  1
  Co  Co0  1  0.38303500  0.00268700  0.19959100  1
  Co  Co1  1  0.81767600  0.01529700  0.40321900  1
  Co  Co2  1  0.20632900  0.00731500  0.59988900  1
  Co  Co3  1  0.60056900  0.00426000  0.80080800  1
  Co  Co4  1  0.00822900  0.00994200  0.98740400  1
  O  O0  1  0.02616200  0.22536300  0.14472800  1
  O  O1  1  0.32550900  0.76238500  0.04935700  1
  O  O2  1  0.45906600  0.21426100  0.36082200  1
  O  O3  1  0.87474500  0.23957100  0.55116400  1
  O  O4  1  0.13497200  0.76337700  0.45280100  1
  O  O5  1  0.26994100  0.23847200  0.75001700  1
  O  O6  1  0.54416300  0.78887400  0.65297600  1
  O  O7  1  0.66111700  0.21543100  0.95014100  1
  O  O8  1  0.94937100  0.78943600  0.84162100  1
  F  F0  1  0.74248700  0.71994500  0.25813300  1
loop_
_geom_bond_atom_site_label_1
_geom_bond_atom_site_label_2
_geom_bond_distance
_geom_bond_site_symmetry_2
Li0 O0 2.013014 1_655
Li0 O1 2.129323 1_555
Li0 O7 2.141272 1_554
Li0 O2 2.243926 1_555
Li0 O8 2.261720 1_554
Li1 O4 2.087906 1_555
Li1 O3 2.111621 1_455
Li1 O2 2.117061 1_555
Li1 O1 2.119055 1_555
Li1 O0 2.309729 1_555
Li2 O5 2.053721 1_555
Li2 O4 2.088498 1_555
Li2 O2 2.166406 1_555
Li2 O3 2.186494 1_555
Li2 O6 2.239300 1_555
Li3 O3 2.054999 1_555
Li3 O4 2.084320 1_655
Li3 O5 2.138208 1_655
Li3 O6 2.138660 1_555
Li3 O8 2.212015 1_555
Li3 O7 2.228620 1_555
Li4 O1 2.065465 1_556
Li4 O5 2.109278 1_555
Li4 O8 2.117562 1_455
Li4 O6 2.158428 1_555
Li4 O7 2.176469 1_555
Li4 O0 2.265454 1_556
Co0 O0 2.019797 1_555
Co0 O2 2.054673 1_555
Co0 O1 2.057683 1_545
Co0 O7 2.122108 1_554
Co0 O4 2.122121 1_545
Co0 F0 2.158818 1_545
Co1 O4 1.907015 1_645
Co1 O2 1.960687 1_555
Co1 O3 1.976540 1_555
Co1 O0 2.022877 1_655
Co1 O6 2.137797 1_545
Co1 F0 2.297858 1_545
Co2 O3 1.919011 1_455
Co2 O6 1.928061 1_545
Co2 O2 2.007390 1_555
Co2 O5 2.032710 1_555
Co2 O8 2.048843 1_445
Co2 O4 2.083440 1_545
Co3 O5 1.923415 1_555
Co3 O6 1.938405 1_545
Co3 O7 1.940277 1_555
Co3 O8 1.941219 1_545
Co3 O3 2.156255 1_555
Co3 O1 2.167217 1_546
Co4 O7 1.910681 1_455
Co4 O1 1.922946 1_546
Co4 O0 1.924695 1_556
Co4 O8 1.951362 1_445
Co4 O5 2.062410 1_555
Co4 F0 2.343944 1_446
F0 Li1 2.044906 1_655
F0 Li0 2.061437 1_555
F0 Li2 2.090862 1_555
