# generated using pymatgen
data_CsCeS2
_symmetry_space_group_name_H-M   'P 1'
_cell_length_a   8.42934389
_cell_length_b   8.42934389
_cell_length_c   8.42934455
_cell_angle_alpha   29.49298144
_cell_angle_beta   29.49298144
_cell_angle_gamma   29.49298183
_symmetry_Int_Tables_number   1
_chemical_formula_structural   CsCeS2
_chemical_formula_sum   'Cs1 Ce1 S2'
_cell_volume   128.49135600
_cell_formula_units_Z   1
loop_
 _symmetry_equiv_pos_site_id
 _symmetry_equiv_pos_as_xyz
  1  'x, y, z'
loop_
 _atom_site_type_symbol
 _atom_site_label
 _atom_site_symmetry_multiplicity
 _atom_site_fract_x
 _atom_site_fract_y
 _atom_site_fract_z
 _atom_site_occupancy
  Cs  Cs0  1  0.00000000  0.00000000  -0.00000000  1
  Ce  Ce0  1  0.50000000  0.50000000  0.50000000  1
  S  S0  1  0.77141222  0.77141222  0.77141222  1
  S  S1  1  0.22858778  0.22858778  0.22858778  1
loop_
_geom_bond_atom_site_label_1
_geom_bond_atom_site_label_2
_geom_bond_distance
_geom_bond_site_symmetry_2
Cs0 S0 3.542366 1_454
Cs0 S1 3.542366 1_545
Cs0 S0 3.542366 1_544
Cs0 S1 3.542366 1_455
Cs0 S0 3.542367 1_445
Cs0 S1 3.542367 1_554
Ce0 S1 2.894547 1_655
Ce0 S0 2.894547 1_455
Ce0 S1 2.894547 1_565
Ce0 S0 2.894547 1_545
Ce0 S1 2.894547 1_556
Ce0 S0 2.894547 1_554
