# generated using pymatgen
data_Fe5(OF4)2
_symmetry_space_group_name_H-M   'P 1'
_cell_length_a   4.80795100
_cell_length_b   5.78056044
_cell_length_c   13.57378479
_cell_angle_alpha   78.51847364
_cell_angle_beta   89.44474022
_cell_angle_gamma   89.24455992
_symmetry_Int_Tables_number   1
_chemical_formula_structural   Fe5(OF4)2
_chemical_formula_sum   'Fe10 O4 F16'
_cell_volume   369.66051772
_cell_formula_units_Z   2
loop_
 _symmetry_equiv_pos_site_id
 _symmetry_equiv_pos_as_xyz
  1  'x, y, z'
loop_
 _atom_site_type_symbol
 _atom_site_label
 _atom_site_symmetry_multiplicity
 _atom_site_fract_x
 _atom_site_fract_y
 _atom_site_fract_z
 _atom_site_occupancy
  Fe  Fe0  1  0.48530300  0.50124100  0.00858000  1
  Fe  Fe1  1  0.48901400  0.72239100  0.39674300  1
  Fe  Fe2  1  0.46693100  0.11926800  0.20364200  1
  Fe  Fe3  1  0.51718800  0.28168000  0.59615300  1
  Fe  Fe4  1  0.54461000  0.91673800  0.79530100  1
  Fe  Fe5  1  0.01387100  0.19016600  0.39617700  1
  Fe  Fe6  1  0.98493100  0.38151100  0.80226500  1
  Fe  Fe7  1  0.01267500  0.59208100  0.19742900  1
  Fe  Fe8  1  0.98987400  0.80521000  0.60645000  1
  Fe  Fe9  1  0.99220600  0.00265800  0.99501100  1
  O  O0  1  0.79809000  0.10338100  0.85625200  1
  O  O1  1  0.68297200  0.97027500  0.66510000  1
  O  O2  1  0.31612000  0.00717000  0.33762600  1
  O  O3  1  0.30028800  0.40203300  0.14552600  1
  F  F0  1  0.79238100  0.27099600  0.26294200  1
  F  F1  1  0.81555800  0.47681200  0.66556700  1
  F  F2  1  0.80033300  0.68202200  0.05685700  1
  F  F3  1  0.79743900  0.86473200  0.46215900  1
  F  F4  1  0.70026700  0.16542600  0.07061700  1
  F  F5  1  0.69219800  0.40446700  0.45224800  1
  F  F6  1  0.70301300  0.59166600  0.85695100  1
  F  F7  1  0.70261000  0.77828100  0.26097400  1
  F  F8  1  0.29505700  0.21354700  0.74312100  1
  F  F9  1  0.31035800  0.83360800  0.92813300  1
  F  F10  1  0.31100400  0.62512900  0.53688900  1
  F  F11  1  0.20966700  0.92041100  0.13655200  1
  F  F12  1  0.19975100  0.33747800  0.93142100  1
  F  F13  1  0.17614300  0.11834000  0.53924700  1
  F  F14  1  0.20713200  0.52625000  0.34648300  1
  F  F15  1  0.19301200  0.69503400  0.74758400  1
loop_
_geom_bond_atom_site_label_1
_geom_bond_atom_site_label_2
_geom_bond_distance
_geom_bond_site_symmetry_2
Fe0 O3 2.032879 1_555
Fe1 O2 1.869704 1_565
Fe2 O3 1.844003 1_555
Fe2 O2 1.941876 1_555
Fe3 O1 2.014322 1_545
Fe4 O1 1.851118 1_555
Fe4 O0 1.934776 1_565
Fe5 O2 2.033268 1_555
Fe6 O0 1.866851 1_555
Fe7 O3 1.965867 1_555
Fe8 O1 1.990988 1_555
Fe9 O0 2.083442 1_555
F0 Fe2 2.051158 1_555
F0 Fe5 2.076257 1_655
F0 Fe7 2.175785 1_655
F1 Fe6 2.005009 1_555
F1 Fe8 2.091041 1_555
F1 Fe3 2.170248 1_555
F2 Fe0 2.036967 1_555
F2 Fe9 2.098027 1_564
F2 Fe7 2.140620 1_655
F3 Fe1 2.003243 1_555
F3 Fe8 2.137494 1_555
F3 Fe5 2.187847 1_665
F4 Fe9 2.056774 1_554
F4 Fe2 2.089735 1_555
F4 Fe0 2.204258 1_555
F5 Fe1 2.077282 1_555
F5 Fe3 2.111699 1_555
F5 Fe5 2.192667 1_655
F6 Fe4 2.039587 1_555
F6 Fe6 2.039629 1_555
F6 Fe0 2.269222 1_556
F7 Fe1 2.071313 1_555
F7 Fe7 2.104109 1_655
F7 Fe2 2.263262 1_565
F8 Fe6 2.014801 1_455
F8 Fe4 2.088871 1_545
F8 Fe3 2.220904 1_555
F9 Fe4 2.092921 1_555
F9 Fe9 2.098973 1_465
F9 Fe0 2.175119 1_556
F10 Fe1 2.054931 1_555
F10 Fe8 2.163253 1_455
F10 Fe3 2.213397 1_555
F11 Fe2 2.038796 1_565
F11 Fe7 2.142404 1_555
F11 Fe9 2.161613 1_464
F12 Fe6 2.013841 1_455
F12 Fe0 2.082019 1_556
F12 Fe9 2.203610 1_455
F13 Fe5 2.062108 1_555
F13 Fe8 2.068837 1_445
F13 Fe3 2.128986 1_555
F14 Fe1 1.988487 1_555
F14 Fe5 2.146262 1_555
F14 Fe7 2.198441 1_555
F15 Fe6 2.081889 1_455
F15 Fe8 2.136270 1_455
F15 Fe4 2.308338 1_555
