# generated using pymatgen
data_Bi2B2O7
_symmetry_space_group_name_H-M   'P 1'
_cell_length_a   5.23153200
_cell_length_b   8.33804887
_cell_length_c   8.60066085
_cell_angle_alpha   115.16657904
_cell_angle_beta   93.00715920
_cell_angle_gamma   94.65332873
_symmetry_Int_Tables_number   1
_chemical_formula_structural   Bi2B2O7
_chemical_formula_sum   'Bi4 B4 O14'
_cell_volume   336.85938889
_cell_formula_units_Z   2
loop_
 _symmetry_equiv_pos_site_id
 _symmetry_equiv_pos_as_xyz
  1  'x, y, z'
loop_
 _atom_site_type_symbol
 _atom_site_label
 _atom_site_symmetry_multiplicity
 _atom_site_fract_x
 _atom_site_fract_y
 _atom_site_fract_z
 _atom_site_occupancy
  Bi  Bi0  1  0.27769200  0.02414800  0.66892100  1
  Bi  Bi1  1  0.86390500  0.29571700  0.05190700  1
  Bi  Bi2  1  0.13609500  0.70428300  0.94809300  1
  Bi  Bi3  1  0.72230800  0.97585200  0.33107900  1
  B  B0  1  0.35815400  0.12075000  0.14792000  1
  B  B1  1  0.84744700  0.24733200  0.65440200  1
  B  B2  1  0.15255300  0.75266800  0.34559800  1
  B  B3  1  0.64184600  0.87925000  0.85208000  1
  O  O0  1  0.76061900  0.02564100  0.83284300  1
  O  O1  1  0.02939000  0.17836700  0.53825400  1
  O  O2  1  0.59476100  0.17686200  0.57997000  1
  O  O3  1  0.91525800  0.36437900  0.82395400  1
  O  O4  1  0.61746600  0.17086800  0.20831400  1
  O  O5  1  0.24447200  0.21519400  0.06871400  1
  O  O6  1  0.06789600  0.46974000  0.43987200  1
  O  O7  1  0.93210400  0.53026000  0.56012800  1
  O  O8  1  0.75552800  0.78480600  0.93128600  1
  O  O9  1  0.38253400  0.82913200  0.79168600  1
  O  O10  1  0.08474200  0.63562100  0.17604600  1
  O  O11  1  0.40523900  0.82313800  0.42003000  1
  O  O12  1  0.97061000  0.82163300  0.46174600  1
  O  O13  1  0.23938100  0.97435900  0.16715700  1
loop_
_geom_bond_atom_site_label_1
_geom_bond_atom_site_label_2
_geom_bond_distance
_geom_bond_site_symmetry_2
Bi0 O11 2.261976 1_545
Bi0 O12 2.303837 1_445
Bi0 O2 2.361589 1_555
Bi0 O9 2.367253 1_545
Bi0 O1 2.439426 1_555
Bi1 O5 2.169053 1_655
Bi1 O0 2.236091 1_554
Bi1 O3 2.286617 1_554
Bi1 O4 2.389693 1_555
Bi1 O10 2.696804 1_655
Bi2 O8 2.169053 1_455
Bi2 O13 2.236091 1_556
Bi2 O10 2.286617 1_556
Bi2 O9 2.389693 1_555
Bi2 O3 2.696804 1_455
Bi3 O2 2.261976 1_565
Bi3 O1 2.303837 1_665
Bi3 O11 2.361589 1_555
Bi3 O4 2.367253 1_565
Bi3 O12 2.439426 1_555
B0 O5 1.388390 1_555
B0 O4 1.390780 1_555
B0 O13 1.401020 1_545
B1 O3 1.372576 1_555
B1 O1 1.390892 1_655
B1 O2 1.402797 1_555
B2 O10 1.372576 1_555
B2 O12 1.390892 1_455
B2 O11 1.402797 1_555
B3 O8 1.388390 1_555
B3 O9 1.390780 1_555
B3 O0 1.401020 1_565
O6 O7 1.233049 1_455
