# generated using pymatgen
data_Li3CoPCO7
_symmetry_space_group_name_H-M   'P 1'
_cell_length_a   6.44998700
_cell_length_b   8.43134529
_cell_length_c   9.98311723
_cell_angle_alpha   85.29959908
_cell_angle_beta   89.75791698
_cell_angle_gamma   89.87743504
_symmetry_Int_Tables_number   1
_chemical_formula_structural   Li3CoPCO7
_chemical_formula_sum   'Li12 Co4 P4 C4 O28'
_cell_volume   541.07096752
_cell_formula_units_Z   4
loop_
 _symmetry_equiv_pos_site_id
 _symmetry_equiv_pos_as_xyz
  1  'x, y, z'
loop_
 _atom_site_type_symbol
 _atom_site_label
 _atom_site_symmetry_multiplicity
 _atom_site_fract_x
 _atom_site_fract_y
 _atom_site_fract_z
 _atom_site_occupancy
  Li  Li0  1  0.25144700  0.90213200  0.61298600  1
  Li  Li1  1  0.25638100  0.90246800  0.12141400  1
  Li  Li2  1  0.49473600  0.72340200  0.88944400  1
  Li  Li3  1  0.01337200  0.72566000  0.36526800  1
  Li  Li4  1  0.48572900  0.72544400  0.36478400  1
  Li  Li5  1  0.74308400  0.65785300  0.11912500  1
  Li  Li6  1  0.52414400  0.27780000  0.62041500  1
  Li  Li7  1  0.97411200  0.27863900  0.61910600  1
  Li  Li8  1  0.53002400  0.27897800  0.12818100  1
  Li  Li9  1  0.97111400  0.27828700  0.12803500  1
  Li  Li10  1  0.74966000  0.10157500  0.88731600  1
  Li  Li11  1  0.74929600  0.09027100  0.37641700  1
  Co  Co0  1  0.00520600  0.72787800  0.88811100  1
  Co  Co1  1  0.74877300  0.66655500  0.59976100  1
  Co  Co2  1  0.25003300  0.33270900  0.89767600  1
  Co  Co3  1  0.24908900  0.33347900  0.39400300  1
  P  P0  1  0.24736000  0.58851900  0.64014100  1
  P  P1  1  0.25386500  0.58693200  0.13697100  1
  P  P2  1  0.75277300  0.41446100  0.85654900  1
  P  P3  1  0.74955600  0.41213600  0.35983000  1
  C  C0  1  0.75344000  0.96267100  0.64992000  1
  C  C1  1  0.75363500  0.96143200  0.14593000  1
  C  C2  1  0.24507200  0.03617000  0.85296300  1
  C  C3  1  0.25006600  0.03715300  0.35127400  1
  O  O0  1  0.74908400  0.92824900  0.52676200  1
  O  O1  1  0.23191700  0.88844700  0.81963800  1
  O  O2  1  0.75833500  0.92825300  0.02182500  1
  O  O3  1  0.75726900  0.84324900  0.74373100  1
  O  O4  1  0.25018100  0.89053500  0.32129600  1
  O  O5  1  0.75208000  0.85084300  0.24357800  1
  O  O6  1  0.06157400  0.69237300  0.58618000  1
  O  O7  1  0.43646900  0.69156800  0.59000800  1
  O  O8  1  0.06050900  0.68720300  0.08585200  1
  O  O9  1  0.43966000  0.68952600  0.08674100  1
  O  O10  1  0.75629700  0.58190600  0.90945100  1
  O  O11  1  0.24038200  0.57106200  0.79857800  1
  O  O12  1  0.74950400  0.58061300  0.41158600  1
  O  O13  1  0.24777500  0.56691600  0.29401000  1
  O  O14  1  0.75142500  0.43211600  0.69995900  1
  O  O15  1  0.24935900  0.42038700  0.59022800  1
  O  O16  1  0.74995700  0.42895000  0.20520200  1
  O  O17  1  0.25033600  0.41819600  0.08556500  1
  O  O18  1  0.93801700  0.30815900  0.90873000  1
  O  O19  1  0.56292900  0.31559900  0.91117500  1
  O  O20  1  0.56142700  0.30989900  0.41530300  1
  O  O21  1  0.93688800  0.30871400  0.41484600  1
  O  O22  1  0.25836800  0.15046400  0.75826600  1
  O  O23  1  0.75190500  0.10730400  0.68378200  1
  O  O24  1  0.25105700  0.15301200  0.25626100  1
  O  O25  1  0.24689400  0.06874700  0.97608000  1
  O  O26  1  0.74927500  0.11095900  0.17514100  1
  O  O27  1  0.24915700  0.07414800  0.47460400  1
loop_
_geom_bond_atom_site_label_1
_geom_bond_atom_site_label_2
_geom_bond_distance
_geom_bond_site_symmetry_2
Li0 O27 1.919341 1_565
Li0 O1 2.060129 1_555
Li0 O7 2.164253 1_555
Li0 O6 2.188338 1_555
Li1 O25 1.934247 1_564
Li1 O4 1.989966 1_555
Li1 O9 2.197730 1_555
Li1 O8 2.266160 1_555
Li2 O9 1.997392 1_556
Li2 O10 2.065071 1_555
Li2 O1 2.266418 1_555
Li2 O11 2.318769 1_555
Li2 O3 2.397937 1_555
Li3 O4 2.088428 1_555
Li3 O12 2.124992 1_455
Li3 O13 2.172917 1_555
Li3 O6 2.223320 1_555
Li3 O5 2.286861 1_455
Li4 O4 2.081269 1_555
Li4 O12 2.123284 1_555
Li4 O13 2.194093 1_555
Li4 O7 2.264310 1_555
Li4 O5 2.305190 1_555
Li5 O9 1.998739 1_555
Li5 O16 2.047752 1_555
Li5 O8 2.084782 1_655
Li5 O5 2.127676 1_555
Li5 O10 2.239801 1_554
Li5 O2 2.405841 1_555
Li6 O20 2.056518 1_555
Li6 O23 2.115307 1_555
Li6 O15 2.147879 1_555
Li6 O14 2.158656 1_555
Li6 O22 2.393946 1_555
Li7 O21 2.049199 1_555
Li7 O23 2.099057 1_555
Li7 O14 2.131307 1_555
Li7 O15 2.147453 1_655
Li7 O22 2.495280 1_655
Li8 O26 2.028463 1_555
Li8 O16 2.092524 1_555
Li8 O19 2.172653 1_554
Li8 O17 2.174565 1_555
Li8 O24 2.401388 1_555
Li9 O26 2.037911 1_555
Li9 O16 2.094096 1_555
Li9 O17 2.176111 1_655
Li9 O18 2.194447 1_554
Li9 O24 2.409222 1_655
Li10 O2 1.902756 1_546
Li10 O23 2.028508 1_555
Li10 O18 2.151223 1_555
Li10 O19 2.195978 1_555
Li11 O0 1.944949 1_545
Li11 O26 2.002628 1_555
Li11 O21 2.265517 1_555
Li11 O20 2.269868 1_555
Li11 O5 2.504503 1_545
Co0 O8 2.009050 1_556
Co0 O10 2.024895 1_455
Co0 O1 2.070436 1_555
Co0 O11 2.240897 1_555
Co0 O3 2.316070 1_455
Co1 O7 2.026836 1_555
Co1 O6 2.032500 1_655
Co1 O12 2.068119 1_555
Co1 O14 2.141008 1_555
Co1 O3 2.154088 1_555
Co1 O0 2.266255 1_555
Co2 O18 2.025176 1_455
Co2 O19 2.027281 1_555
Co2 O17 2.063842 1_556
Co2 O22 2.156477 1_555
Co2 O11 2.166884 1_555
Co2 O25 2.297980 1_555
Co3 O21 2.032976 1_455
Co3 O20 2.034266 1_555
Co3 O13 2.132679 1_555
Co3 O24 2.132823 1_555
Co3 O15 2.147009 1_555
Co3 O27 2.267143 1_555
C0 O0 1.286662 1_555
C0 O23 1.291865 1_565
C0 O3 1.317975 1_555
C1 O2 1.292530 1_555
C1 O5 1.292587 1_555
C1 O26 1.317294 1_565
C2 O25 1.281293 1_555
C2 O22 1.296175 1_555
C2 O1 1.318242 1_545
C3 O27 1.294641 1_555
C3 O4 1.295512 1_545
C3 O24 1.304643 1_555
O6 P0 1.554524 1_555
O7 P0 1.556043 1_555
O8 P1 1.568660 1_555
O9 P1 1.537550 1_555
O10 P2 1.547583 1_555
O11 P0 1.576934 1_555
O12 P3 1.550817 1_555
O13 P1 1.563322 1_555
O14 P2 1.558196 1_555
O15 P0 1.540656 1_555
O16 P3 1.538545 1_555
O17 P1 1.551700 1_555
O18 P2 1.557698 1_555
O19 P2 1.554280 1_555
O20 P3 1.562912 1_555
O21 P3 1.563517 1_555
