# generated using pymatgen
data_Ba9Ge23O57
_symmetry_space_group_name_H-M   'P 1'
_cell_length_a   11.88176730
_cell_length_b   11.88176730
_cell_length_c   19.50650700
_cell_angle_alpha   90.00000000
_cell_angle_beta   90.00000000
_cell_angle_gamma   119.98703303
_symmetry_Int_Tables_number   1
_chemical_formula_structural   Ba9Ge23O57
_chemical_formula_sum   'Ba18 Ge46 O114'
_cell_volume   2385.22282558
_cell_formula_units_Z   2
loop_
 _symmetry_equiv_pos_site_id
 _symmetry_equiv_pos_as_xyz
  1  'x, y, z'
loop_
 _atom_site_type_symbol
 _atom_site_label
 _atom_site_symmetry_multiplicity
 _atom_site_fract_x
 _atom_site_fract_y
 _atom_site_fract_z
 _atom_site_occupancy
  Ba  Ba0  1  0.00023300  0.67722800  0.23769000  1
  Ba  Ba1  1  0.32269300  0.32269300  0.23771100  1
  Ba  Ba2  1  0.67722800  0.00023300  0.23769000  1
  Ba  Ba3  1  0.99976700  0.32277200  0.73769000  1
  Ba  Ba4  1  0.67730700  0.67730700  0.73771100  1
  Ba  Ba5  1  0.32277200  0.99976700  0.73769000  1
  Ba  Ba6  1  0.00002500  0.68521800  0.44786300  1
  Ba  Ba7  1  0.31478000  0.31478000  0.44787300  1
  Ba  Ba8  1  0.68521800  0.00002500  0.44786300  1
  Ba  Ba9  1  0.99997500  0.31478200  0.94786300  1
  Ba  Ba10  1  0.68522000  0.68522000  0.94787300  1
  Ba  Ba11  1  0.31478200  0.99997500  0.94786300  1
  Ba  Ba12  1  0.99998000  0.69507000  0.02967600  1
  Ba  Ba13  1  0.30498300  0.30498300  0.02974000  1
  Ba  Ba14  1  0.69507000  0.99998000  0.02967600  1
  Ba  Ba15  1  0.00002000  0.30493000  0.52967600  1
  Ba  Ba16  1  0.69501700  0.69501700  0.52974000  1
  Ba  Ba17  1  0.30493000  0.00002000  0.52967600  1
  Ge  Ge0  1  0.00006500  0.00006500  0.50211800  1
  Ge  Ge1  1  0.99993500  0.99993500  0.00211800  1
  Ge  Ge2  1  0.33334400  0.66666800  0.22748000  1
  Ge  Ge3  1  0.66666800  0.33334400  0.22748000  1
  Ge  Ge4  1  0.66665600  0.33333200  0.72748000  1
  Ge  Ge5  1  0.33333200  0.66665600  0.72748000  1
  Ge  Ge6  1  0.33332700  0.66664700  0.47682700  1
  Ge  Ge7  1  0.66664700  0.33332700  0.47682700  1
  Ge  Ge8  1  0.66667300  0.33335300  0.97682700  1
  Ge  Ge9  1  0.33335300  0.66667300  0.97682700  1
  Ge  Ge10  1  0.99997000  0.83728900  0.64696100  1
  Ge  Ge11  1  0.16270900  0.16270900  0.64696200  1
  Ge  Ge12  1  0.83728900  0.99997000  0.64696100  1
  Ge  Ge13  1  0.00003000  0.16271100  0.14696100  1
  Ge  Ge14  1  0.83729100  0.83729100  0.14696200  1
  Ge  Ge15  1  0.16271100  0.00003000  0.14696100  1
  Ge  Ge16  1  0.00009200  0.83339300  0.85535700  1
  Ge  Ge17  1  0.16665800  0.16665800  0.85561300  1
  Ge  Ge18  1  0.83339300  0.00009200  0.85535700  1
  Ge  Ge19  1  0.99990800  0.16660700  0.35535700  1
  Ge  Ge20  1  0.83334200  0.83334200  0.35561300  1
  Ge  Ge21  1  0.16660700  0.99990800  0.35535700  1
  Ge  Ge22  1  0.15167000  0.66253100  0.84979700  1
  Ge  Ge23  1  0.33745600  0.48910300  0.84979700  1
  Ge  Ge24  1  0.51093700  0.84835300  0.84980500  1
  Ge  Ge25  1  0.66253100  0.15167000  0.84979700  1
  Ge  Ge26  1  0.48910300  0.33745600  0.84979700  1
  Ge  Ge27  1  0.84835300  0.51093700  0.84980500  1
  Ge  Ge28  1  0.84833000  0.33746900  0.34979700  1
  Ge  Ge29  1  0.66254400  0.51089700  0.34979700  1
  Ge  Ge30  1  0.48906300  0.15164700  0.34980500  1
  Ge  Ge31  1  0.33746900  0.84833000  0.34979700  1
  Ge  Ge32  1  0.51089700  0.66254400  0.34979700  1
  Ge  Ge33  1  0.15164700  0.48906300  0.34980500  1
  Ge  Ge34  1  0.15479900  0.66972900  0.60873400  1
  Ge  Ge35  1  0.33023100  0.48504800  0.60873800  1
  Ge  Ge36  1  0.51495600  0.84519300  0.60874500  1
  Ge  Ge37  1  0.66972900  0.15479900  0.60873400  1
  Ge  Ge38  1  0.48504800  0.33023100  0.60873800  1
  Ge  Ge39  1  0.84519300  0.51495600  0.60874500  1
  Ge  Ge40  1  0.84520100  0.33027100  0.10873400  1
  Ge  Ge41  1  0.66976900  0.51495200  0.10873800  1
  Ge  Ge42  1  0.48504400  0.15480700  0.10874500  1
  Ge  Ge43  1  0.33027100  0.84520100  0.10873400  1
  Ge  Ge44  1  0.51495200  0.66976900  0.10873800  1
  Ge  Ge45  1  0.15480700  0.48504400  0.10874500  1
  O  O0  1  0.99999400  0.86827800  0.94897800  1
  O  O1  1  0.13185800  0.13185800  0.94929500  1
  O  O2  1  0.86827800  0.99999400  0.94897800  1
  O  O3  1  0.00000600  0.13172200  0.44897800  1
  O  O4  1  0.86814200  0.86814200  0.44929500  1
  O  O5  1  0.13172200  0.00000600  0.44897800  1
  O  O6  1  0.99999500  0.86505100  0.16895400  1
  O  O7  1  0.13486000  0.13486000  0.16901100  1
  O  O8  1  0.86505100  0.99999500  0.16895400  1
  O  O9  1  0.00000500  0.13494900  0.66895400  1
  O  O10  1  0.86514000  0.86514000  0.66901100  1
  O  O11  1  0.13494900  0.00000500  0.66895400  1
  O  O12  1  0.00001000  0.85918500  0.55231500  1
  O  O13  1  0.14077700  0.14077700  0.55228700  1
  O  O14  1  0.85918500  0.00001000  0.55231500  1
  O  O15  1  0.99999000  0.14081500  0.05231500  1
  O  O16  1  0.85922300  0.85922300  0.05228700  1
  O  O17  1  0.14081500  0.99999000  0.05231500  1
  O  O18  1  0.99975400  0.85498000  0.33779400  1
  O  O19  1  0.14497400  0.14497400  0.33767100  1
  O  O20  1  0.85498000  0.99975400  0.33779400  1
  O  O21  1  0.00024600  0.14502000  0.83779400  1
  O  O22  1  0.85502600  0.85502600  0.83767100  1
  O  O23  1  0.14502000  0.00024600  0.83779400  1
  O  O24  1  0.13949400  0.79923500  0.64218400  1
  O  O25  1  0.20068200  0.34023800  0.64215500  1
  O  O26  1  0.65979200  0.86048800  0.64213800  1
  O  O27  1  0.79923500  0.13949400  0.64218400  1
  O  O28  1  0.34023800  0.20068200  0.64215500  1
  O  O29  1  0.86048800  0.65979200  0.64213800  1
  O  O30  1  0.86050600  0.20076500  0.14218400  1
  O  O31  1  0.79931800  0.65976200  0.14215500  1
  O  O32  1  0.34020800  0.13951200  0.14213800  1
  O  O33  1  0.20076500  0.86050600  0.14218400  1
  O  O34  1  0.65976200  0.79931800  0.14215500  1
  O  O35  1  0.13951200  0.34020800  0.14213800  1
  O  O36  1  0.25280300  0.73591900  0.28383300  1
  O  O37  1  0.26412400  0.51692900  0.28384300  1
  O  O38  1  0.48309400  0.74721600  0.28385400  1
  O  O39  1  0.73591900  0.25280300  0.28383300  1
  O  O40  1  0.51692900  0.26412400  0.28384300  1
  O  O41  1  0.74721600  0.48309400  0.28385400  1
  O  O42  1  0.74719700  0.26408100  0.78383300  1
  O  O43  1  0.73587600  0.48307100  0.78384300  1
  O  O44  1  0.51690600  0.25278400  0.78385400  1
  O  O45  1  0.26408100  0.74719700  0.78383300  1
  O  O46  1  0.48307100  0.73587600  0.78384300  1
  O  O47  1  0.25278400  0.51690600  0.78385400  1
  O  O48  1  0.99973600  0.79035400  0.76272400  1
  O  O49  1  0.20947900  0.20947900  0.76245300  1
  O  O50  1  0.79035400  0.99973600  0.76272400  1
  O  O51  1  0.00026400  0.20964600  0.26272400  1
  O  O52  1  0.79052100  0.79052100  0.26245300  1
  O  O53  1  0.20964600  0.00026400  0.26272400  1
  O  O54  1  0.99999100  0.55056900  0.57020000  1
  O  O55  1  0.44941300  0.44941300  0.57020400  1
  O  O56  1  0.55056900  0.99999100  0.57020000  1
  O  O57  1  0.00000900  0.44943100  0.07020000  1
  O  O58  1  0.55058700  0.55058700  0.07020400  1
  O  O59  1  0.44943100  0.00000900  0.07020000  1
  O  O60  1  0.99999400  0.53017700  0.81692900  1
  O  O61  1  0.46993900  0.46993900  0.81694600  1
  O  O62  1  0.53017700  0.99999400  0.81692900  1
  O  O63  1  0.00000600  0.46982300  0.31692900  1
  O  O64  1  0.53006100  0.53006100  0.31694600  1
  O  O65  1  0.46982300  0.00000600  0.31692900  1
  O  O66  1  0.25202600  0.74085200  0.53379600  1
  O  O67  1  0.25916300  0.51120900  0.53380300  1
  O  O68  1  0.48880000  0.74796400  0.53380800  1
  O  O69  1  0.74085200  0.25202600  0.53379600  1
  O  O70  1  0.51120900  0.25916300  0.53380300  1
  O  O71  1  0.74796400  0.48880000  0.53380800  1
  O  O72  1  0.74797400  0.25914800  0.03379600  1
  O  O73  1  0.74083700  0.48879100  0.03380300  1
  O  O74  1  0.51120000  0.25203600  0.03380800  1
  O  O75  1  0.25914800  0.74797400  0.03379600  1
  O  O76  1  0.48879100  0.74083700  0.03380300  1
  O  O77  1  0.25203600  0.51120000  0.03380800  1
  O  O78  1  0.12913800  0.78571700  0.88607700  1
  O  O79  1  0.21428600  0.34340300  0.88608900  1
  O  O80  1  0.65655900  0.87081300  0.88613900  1
  O  O81  1  0.78571700  0.12913800  0.88607700  1
  O  O82  1  0.34340300  0.21428600  0.88608900  1
  O  O83  1  0.87081300  0.65655900  0.88613900  1
  O  O84  1  0.87086200  0.21428300  0.38607700  1
  O  O85  1  0.78571400  0.65659700  0.38608900  1
  O  O86  1  0.34344100  0.12918700  0.38613900  1
  O  O87  1  0.21428300  0.87086200  0.38607700  1
  O  O88  1  0.65659700  0.78571400  0.38608900  1
  O  O89  1  0.12918700  0.34344100  0.38613900  1
  O  O90  1  0.18299300  0.60708300  0.16876500  1
  O  O91  1  0.39288900  0.57590600  0.16876700  1
  O  O92  1  0.42407200  0.81698500  0.16877000  1
  O  O93  1  0.60708300  0.18299300  0.16876500  1
  O  O94  1  0.57590600  0.39288900  0.16876700  1
  O  O95  1  0.81698500  0.42407200  0.16877000  1
  O  O96  1  0.81700700  0.39291700  0.66876500  1
  O  O97  1  0.60711100  0.42409400  0.66876700  1
  O  O98  1  0.57592800  0.18301500  0.66877000  1
  O  O99  1  0.39291700  0.81700700  0.66876500  1
  O  O100  1  0.42409400  0.60711100  0.66876700  1
  O  O101  1  0.18301500  0.57592800  0.66877000  1
  O  O102  1  0.17958400  0.59475500  0.42093200  1
  O  O103  1  0.40525100  0.58483000  0.42095600  1
  O  O104  1  0.41518000  0.82042000  0.42096500  1
  O  O105  1  0.59475500  0.17958400  0.42093200  1
  O  O106  1  0.58482900  0.40525100  0.42095600  1
  O  O107  1  0.82042000  0.41518000  0.42096500  1
  O  O108  1  0.82041600  0.40524500  0.92093200  1
  O  O109  1  0.59474900  0.41517100  0.92095600  1
  O  O110  1  0.58482000  0.17958000  0.92096500  1
  O  O111  1  0.40524500  0.82041600  0.92093200  1
  O  O112  1  0.41517000  0.59474900  0.92095600  1
  O  O113  1  0.17958000  0.58482000  0.92096500  1
loop_
_geom_bond_atom_site_label_1
_geom_bond_atom_site_label_2
_geom_bond_distance
_geom_bond_site_symmetry_2
Ba0 O6 2.604689 1_455
Ba0 O36 2.865381 1_555
Ba0 O41 2.870118 1_455
Ba0 O18 2.878469 1_455
Ba0 O63 2.907824 1_555
Ba0 O33 2.950163 1_555
Ba0 O31 2.952884 1_455
Ba0 O90 3.004475 1_555
Ba0 O95 3.008175 1_455
Ba1 O7 2.603592 1_555
Ba1 O40 2.868053 1_555
Ba1 O37 2.868053 1_555
Ba1 O19 2.874485 1_555
Ba1 O64 2.908960 1_555
Ba1 O35 2.951084 1_555
Ba1 O32 2.951084 1_555
Ba1 O91 3.007940 1_555
Ba1 O94 3.007940 1_555
Ba2 O8 2.604689 1_545
Ba2 O39 2.865381 1_555
Ba2 O38 2.870118 1_545
Ba2 O20 2.878469 1_545
Ba2 O65 2.907824 1_555
Ba2 O30 2.950163 1_555
Ba2 O34 2.952884 1_545
Ba2 O93 3.004475 1_555
Ba2 O92 3.008175 1_545
Ba3 O9 2.604689 1_655
Ba3 O42 2.865381 1_555
Ba3 O47 2.870118 1_655
Ba3 O21 2.878469 1_655
Ba3 O60 2.907824 1_555
Ba3 O27 2.950163 1_555
Ba3 O25 2.952884 1_655
Ba3 O96 3.004475 1_555
Ba3 O101 3.008175 1_655
Ba4 O10 2.603592 1_555
Ba4 O46 2.868053 1_555
Ba4 O43 2.868053 1_555
Ba4 O22 2.874485 1_555
Ba4 O61 2.908960 1_555
Ba4 O29 2.951084 1_555
Ba4 O26 2.951084 1_555
Ba4 O97 3.007940 1_555
Ba4 O100 3.007940 1_555
Ba5 O11 2.604689 1_565
Ba5 O45 2.865381 1_555
Ba5 O44 2.870118 1_565
Ba5 O23 2.878469 1_565
Ba5 O62 2.907824 1_555
Ba5 O24 2.950163 1_555
Ba5 O28 2.952884 1_565
Ba5 O99 3.004475 1_555
Ba5 O98 3.008175 1_565
Ba6 O87 2.680627 1_555
Ba6 O85 2.680703 1_455
Ba6 O54 2.872922 1_455
Ba6 O102 2.876685 1_555
Ba6 O107 2.877433 1_455
Ba6 O12 2.902479 1_555
Ba6 O18 2.947025 1_455
Ba6 O66 3.199004 1_555
Ba6 O71 3.200000 1_455
Ba6 O4 3.253413 1_455
Ba6 O5 3.253925 1_565
Ba7 O89 2.679469 1_555
Ba7 O86 2.679469 1_555
Ba7 O55 2.873006 1_555
Ba7 O106 2.877307 1_555
Ba7 O103 2.877318 1_555
Ba7 O13 2.902489 1_555
Ba7 O19 2.948442 1_555
Ba7 O70 3.199256 1_555
Ba7 O67 3.199256 1_555
Ba7 O3 3.253888 1_555
Ba7 O5 3.253888 1_555
Ba8 O84 2.680627 1_555
Ba8 O88 2.680703 1_545
Ba8 O56 2.872922 1_545
Ba8 O105 2.876685 1_555
Ba8 O104 2.877433 1_545
Ba8 O14 2.902479 1_555
Ba8 O20 2.947025 1_545
Ba8 O69 3.199004 1_555
Ba8 O68 3.200000 1_545
Ba8 O4 3.253413 1_545
Ba8 O3 3.253925 1_655
Ba9 O81 2.680627 1_555
Ba9 O79 2.680703 1_655
Ba9 O57 2.872922 1_656
Ba9 O108 2.876685 1_555
Ba9 O113 2.877433 1_655
Ba9 O15 2.902479 1_556
Ba9 O21 2.947025 1_655
Ba9 O72 3.199004 1_556
Ba9 O77 3.200000 1_656
Ba9 O1 3.253413 1_655
Ba9 O2 3.253925 1_545
Ba10 O80 2.679469 1_555
Ba10 O83 2.679469 1_555
Ba10 O58 2.873006 1_556
Ba10 O109 2.877307 1_555
Ba10 O112 2.877318 1_555
Ba10 O16 2.902489 1_556
Ba10 O22 2.948442 1_555
Ba10 O73 3.199256 1_556
Ba10 O76 3.199256 1_556
Ba10 O2 3.253888 1_555
Ba10 O0 3.253888 1_555
Ba11 O78 2.680627 1_555
Ba11 O82 2.680703 1_565
Ba11 O59 2.872922 1_566
Ba11 O111 2.876685 1_555
Ba11 O110 2.877433 1_565
Ba11 O17 2.902479 1_556
Ba11 O23 2.947025 1_565
Ba11 O75 3.199004 1_556
Ba11 O74 3.200000 1_566
Ba11 O1 3.253413 1_565
Ba11 O0 3.253925 1_455
Ba12 O0 2.590945 1_554
Ba12 O75 2.819436 1_655
Ba12 O73 2.819692 1_555
Ba12 O57 3.023945 1_655
Ba12 O31 3.110404 1_555
Ba12 O33 3.111936 1_655
Ba12 O83 3.114846 1_554
Ba12 O78 3.115948 1_654
Ba12 O16 3.171193 1_555
Ba12 O17 3.171909 1_655
Ba12 O6 3.385244 1_555
Ba13 O1 2.587552 1_554
Ba13 O74 2.818953 1_555
Ba13 O77 2.818953 1_555
Ba13 O58 3.023623 1_555
Ba13 O35 3.109703 1_555
Ba13 O32 3.109703 1_555
Ba13 O82 3.116629 1_554
Ba13 O79 3.116629 1_554
Ba13 O15 3.172565 1_455
Ba13 O17 3.172565 1_545
Ba13 O7 3.386431 1_555
Ba14 O2 2.590945 1_554
Ba14 O72 2.819436 1_565
Ba14 O76 2.819692 1_555
Ba14 O59 3.023945 1_565
Ba14 O34 3.110404 1_555
Ba14 O30 3.111936 1_565
Ba14 O80 3.114846 1_554
Ba14 O81 3.115948 1_564
Ba14 O16 3.171193 1_555
Ba14 O15 3.171909 1_565
Ba14 O8 3.385244 1_555
Ba15 O3 2.590945 1_555
Ba15 O69 2.819436 1_455
Ba15 O67 2.819692 1_555
Ba15 O54 3.023945 1_455
Ba15 O25 3.110404 1_555
Ba15 O27 3.111936 1_455
Ba15 O89 3.114846 1_555
Ba15 O84 3.115948 1_455
Ba15 O13 3.171193 1_555
Ba15 O14 3.171909 1_455
Ba15 O9 3.385244 1_555
Ba16 O4 2.587552 1_555
Ba16 O68 2.818953 1_555
Ba16 O71 2.818953 1_555
Ba16 O55 3.023623 1_555
Ba16 O29 3.109703 1_555
Ba16 O26 3.109703 1_555
Ba16 O88 3.116629 1_555
Ba16 O85 3.116629 1_555
Ba16 O14 3.172565 1_565
Ba16 O12 3.172565 1_655
Ba16 O10 3.386431 1_555
Ba17 O5 2.590945 1_555
Ba17 O66 2.819436 1_545
Ba17 O70 2.819692 1_555
Ba17 O56 3.023945 1_545
Ba17 O28 3.110404 1_555
Ba17 O24 3.111936 1_545
Ba17 O86 3.114846 1_555
Ba17 O87 3.115948 1_545
Ba17 O13 3.171193 1_555
Ba17 O12 3.171909 1_545
Ba17 O11 3.385244 1_555
Ge0 O4 1.876076 1_445
Ge0 O5 1.876879 1_555
Ge0 O3 1.876879 1_555
Ge0 O13 1.937542 1_555
Ge0 O12 1.938976 1_545
Ge0 O14 1.938976 1_455
Ge1 O1 1.876076 1_664
Ge1 O2 1.876879 1_554
Ge1 O0 1.876879 1_554
Ge1 O16 1.937542 1_555
Ge1 O15 1.938976 1_565
Ge1 O17 1.938976 1_655
Ge2 O37 1.894183 1_555
Ge2 O36 1.894278 1_555
Ge2 O38 1.894434 1_555
Ge2 O91 1.933362 1_555
Ge2 O92 1.933637 1_555
Ge2 O90 1.933932 1_555
Ge3 O40 1.894183 1_555
Ge3 O39 1.894278 1_555
Ge3 O41 1.894434 1_555
Ge3 O94 1.933362 1_555
Ge3 O95 1.933637 1_555
Ge3 O93 1.933932 1_555
Ge4 O43 1.894183 1_555
Ge4 O42 1.894278 1_555
Ge4 O44 1.894434 1_555
Ge4 O97 1.933362 1_555
Ge4 O98 1.933637 1_555
Ge4 O96 1.933932 1_555
Ge5 O46 1.894183 1_555
Ge5 O45 1.894278 1_555
Ge5 O47 1.894434 1_555
Ge5 O100 1.933362 1_555
Ge5 O101 1.933637 1_555
Ge5 O99 1.933932 1_555
Ge6 O103 1.921864 1_555
Ge6 O104 1.922309 1_555
Ge6 O102 1.922403 1_555
Ge6 O67 1.948296 1_555
Ge6 O66 1.948541 1_555
Ge6 O68 1.948670 1_555
Ge7 O106 1.921873 1_555
Ge7 O107 1.922309 1_555
Ge7 O105 1.922403 1_555
Ge7 O70 1.948296 1_555
Ge7 O69 1.948541 1_555
Ge7 O71 1.948670 1_555
Ge8 O109 1.921873 1_555
Ge8 O110 1.922309 1_555
Ge8 O108 1.922403 1_555
Ge8 O73 1.948296 1_556
Ge8 O72 1.948541 1_556
Ge8 O74 1.948670 1_556
Ge9 O112 1.921864 1_555
Ge9 O113 1.922309 1_555
Ge9 O111 1.922403 1_555
Ge9 O76 1.948296 1_556
Ge9 O75 1.948541 1_556
Ge9 O77 1.948670 1_556
Ge10 O10 1.841441 1_555
Ge10 O11 1.842435 1_665
Ge10 O12 1.864420 1_655
Ge10 O29 1.925989 1_555
Ge10 O24 1.926310 1_655
Ge10 O48 2.325643 1_555
Ge11 O9 1.841937 1_555
Ge11 O11 1.841937 1_555
Ge11 O13 1.865080 1_555
Ge11 O25 1.926243 1_555
Ge11 O28 1.926243 1_555
Ge11 O49 2.320379 1_555
Ge12 O10 1.841441 1_555
Ge12 O9 1.842435 1_665
Ge12 O14 1.864420 1_565
Ge12 O26 1.925989 1_555
Ge12 O27 1.926310 1_565
Ge12 O50 2.325643 1_555
Ge13 O7 1.841441 1_555
Ge13 O8 1.842435 1_445
Ge13 O15 1.864420 1_455
Ge13 O35 1.925989 1_555
Ge13 O30 1.926310 1_455
Ge13 O51 2.325643 1_555
Ge14 O8 1.841937 1_555
Ge14 O6 1.841937 1_555
Ge14 O16 1.865080 1_555
Ge14 O31 1.926243 1_555
Ge14 O34 1.926243 1_555
Ge14 O52 2.320379 1_555
Ge15 O7 1.841441 1_555
Ge15 O6 1.842435 1_445
Ge15 O17 1.864420 1_545
Ge15 O32 1.925989 1_555
Ge15 O33 1.926310 1_545
Ge15 O53 2.325643 1_555
Ge16 O0 1.872796 1_455
Ge16 O48 1.877344 1_455
Ge16 O22 1.897075 1_455
Ge16 O23 1.897486 1_565
Ge16 O78 1.974641 1_555
Ge16 O83 1.976991 1_455
Ge17 O1 1.873622 1_555
Ge17 O49 1.887135 1_555
Ge17 O21 1.894295 1_555
Ge17 O23 1.894295 1_555
Ge17 O82 1.973798 1_555
Ge17 O79 1.973798 1_555
Ge18 O2 1.872796 1_545
Ge18 O50 1.877344 1_545
Ge18 O22 1.897075 1_545
Ge18 O21 1.897486 1_655
Ge18 O81 1.974641 1_555
Ge18 O80 1.976991 1_545
Ge19 O3 1.872796 1_655
Ge19 O51 1.877344 1_655
Ge19 O19 1.897075 1_655
Ge19 O20 1.897486 1_545
Ge19 O84 1.974641 1_555
Ge19 O89 1.976991 1_655
Ge20 O4 1.873622 1_555
Ge20 O52 1.887135 1_555
Ge20 O18 1.894295 1_555
Ge20 O20 1.894295 1_555
Ge20 O88 1.973798 1_555
Ge20 O85 1.973798 1_555
Ge21 O5 1.872796 1_565
Ge21 O53 1.877344 1_565
Ge21 O19 1.897075 1_565
Ge21 O18 1.897486 1_455
Ge21 O87 1.974641 1_555
Ge21 O86 1.976991 1_565
Ge22 O78 1.762535 1_555
Ge22 O45 1.763094 1_555
Ge22 O113 1.787687 1_555
Ge22 O60 1.816310 1_455
Ge23 O79 1.762768 1_555
Ge23 O47 1.762982 1_555
Ge23 O112 1.787849 1_555
Ge23 O61 1.816224 1_555
Ge24 O80 1.762310 1_555
Ge24 O46 1.763211 1_555
Ge24 O111 1.787606 1_555
Ge24 O62 1.816078 1_555
Ge25 O81 1.762535 1_555
Ge25 O42 1.763094 1_555
Ge25 O110 1.787687 1_555
Ge25 O62 1.816310 1_545
Ge26 O82 1.762768 1_555
Ge26 O44 1.762982 1_555
Ge26 O109 1.787851 1_555
Ge26 O61 1.816224 1_555
Ge27 O83 1.762310 1_555
Ge27 O43 1.763211 1_555
Ge27 O108 1.787606 1_555
Ge27 O60 1.816078 1_555
Ge28 O84 1.762535 1_555
Ge28 O39 1.763094 1_555
Ge28 O107 1.787687 1_555
Ge28 O63 1.816310 1_655
Ge29 O85 1.762768 1_555
Ge29 O41 1.762982 1_555
Ge29 O106 1.787851 1_555
Ge29 O64 1.816224 1_555
Ge30 O86 1.762310 1_555
Ge30 O40 1.763211 1_555
Ge30 O105 1.787606 1_555
Ge30 O65 1.816078 1_555
Ge31 O87 1.762535 1_555
Ge31 O36 1.763094 1_555
Ge31 O104 1.787687 1_555
Ge31 O65 1.816310 1_565
Ge32 O88 1.762768 1_555
Ge32 O38 1.762982 1_555
Ge32 O103 1.787849 1_555
Ge32 O64 1.816224 1_555
Ge33 O89 1.762310 1_555
Ge33 O37 1.763211 1_555
Ge33 O102 1.787606 1_555
Ge33 O63 1.816078 1_555
Ge34 O101 1.760544 1_555
Ge34 O24 1.762474 1_555
Ge34 O66 1.791543 1_555
Ge34 O54 1.830217 1_455
Ge35 O100 1.761115 1_555
Ge35 O25 1.762751 1_555
Ge35 O67 1.791272 1_555
Ge35 O55 1.830011 1_555
Ge36 O99 1.760702 1_555
Ge36 O26 1.762449 1_555
Ge36 O68 1.791380 1_555
Ge36 O56 1.830116 1_555
Ge37 O98 1.760544 1_555
Ge37 O27 1.762474 1_555
Ge37 O69 1.791543 1_555
Ge37 O56 1.830217 1_545
Ge38 O97 1.761115 1_555
Ge38 O28 1.762751 1_555
Ge38 O70 1.791272 1_555
Ge38 O55 1.830011 1_555
Ge39 O96 1.760702 1_555
Ge39 O29 1.762449 1_555
Ge39 O71 1.791380 1_555
Ge39 O54 1.830116 1_555
Ge40 O95 1.760544 1_555
Ge40 O30 1.762474 1_555
Ge40 O72 1.791543 1_555
Ge40 O57 1.830217 1_655
Ge41 O94 1.761115 1_555
Ge41 O31 1.762751 1_555
Ge41 O73 1.791272 1_555
Ge41 O58 1.830011 1_555
Ge42 O93 1.760702 1_555
Ge42 O32 1.762449 1_555
Ge42 O74 1.791380 1_555
Ge42 O59 1.830116 1_555
Ge43 O92 1.760544 1_555
Ge43 O33 1.762474 1_555
Ge43 O75 1.791543 1_555
Ge43 O59 1.830217 1_565
Ge44 O91 1.761115 1_555
Ge44 O34 1.762751 1_555
Ge44 O76 1.791272 1_555
Ge44 O58 1.830011 1_555
Ge45 O90 1.760702 1_555
Ge45 O35 1.762449 1_555
Ge45 O77 1.791380 1_555
Ge45 O57 1.830116 1_555
