# generated using pymatgen
data_Na3LiMo2(H6O7)2
_symmetry_space_group_name_H-M   'P 1'
_cell_length_a   11.72990090
_cell_length_b   11.72990090
_cell_length_c   11.72990101
_cell_angle_alpha   44.06667548
_cell_angle_beta   44.06667548
_cell_angle_gamma   44.06667991
_symmetry_Int_Tables_number   1
_chemical_formula_structural   Na3LiMo2(H6O7)2
_chemical_formula_sum   'Na6 Li2 Mo4 H24 O28'
_cell_volume   709.16453016
_cell_formula_units_Z   2
loop_
 _symmetry_equiv_pos_site_id
 _symmetry_equiv_pos_as_xyz
  1  'x, y, z'
loop_
 _atom_site_type_symbol
 _atom_site_label
 _atom_site_symmetry_multiplicity
 _atom_site_fract_x
 _atom_site_fract_y
 _atom_site_fract_z
 _atom_site_occupancy
  Na  Na0  1  0.95622400  0.76095100  0.46861900  1
  Na  Na1  1  0.76095100  0.46861900  0.95622400  1
  Na  Na2  1  0.46861900  0.95622400  0.76095100  1
  Na  Na3  1  0.26095100  0.45622400  0.96861900  1
  Na  Na4  1  0.45622400  0.96861900  0.26095100  1
  Na  Na5  1  0.96861900  0.26095100  0.45622400  1
  Li  Li0  1  0.49081700  0.49081700  0.49081700  1
  Li  Li1  1  0.99081700  0.99081700  0.99081700  1
  Mo  Mo0  1  0.37368200  0.37368200  0.37368200  1
  Mo  Mo1  1  0.87368200  0.87368200  0.87368200  1
  Mo  Mo2  1  0.12847600  0.12847600  0.12847600  1
  Mo  Mo3  1  0.62847600  0.62847600  0.62847600  1
  H  H0  1  0.40188600  0.26321500  0.79628800  1
  H  H1  1  0.26321500  0.79628800  0.40188600  1
  H  H2  1  0.79628800  0.40188600  0.26321500  1
  H  H3  1  0.76321500  0.90188600  0.29628800  1
  H  H4  1  0.90188600  0.29628800  0.76321500  1
  H  H5  1  0.29628800  0.76321500  0.90188600  1
  H  H6  1  0.23186300  0.73053200  0.59345700  1
  H  H7  1  0.73053200  0.59345700  0.23186300  1
  H  H8  1  0.59345700  0.23186300  0.73053200  1
  H  H9  1  0.23053200  0.73186300  0.09345700  1
  H  H10  1  0.73186300  0.09345700  0.23053200  1
  H  H11  1  0.09345700  0.23053200  0.73186300  1
  H  H12  1  0.42735700  0.76727500  0.10692600  1
  H  H13  1  0.76727500  0.10692600  0.42735700  1
  H  H14  1  0.10692600  0.42735700  0.76727500  1
  H  H15  1  0.26727500  0.92735700  0.60692600  1
  H  H16  1  0.92735700  0.60692600  0.26727500  1
  H  H17  1  0.60692600  0.26727500  0.92735700  1
  H  H18  1  0.02213700  0.60574400  0.76806100  1
  H  H19  1  0.60574400  0.76806100  0.02213700  1
  H  H20  1  0.76806100  0.02213700  0.60574400  1
  H  H21  1  0.10574400  0.52213700  0.26806100  1
  H  H22  1  0.52213700  0.26806100  0.10574400  1
  H  H23  1  0.26806100  0.10574400  0.52213700  1
  O  O0  1  0.42935100  0.42935100  0.42935100  1
  O  O1  1  0.92935100  0.92935100  0.92935100  1
  O  O2  1  0.18252000  0.56360800  0.31658900  1
  O  O3  1  0.56360800  0.31658900  0.18252000  1
  O  O4  1  0.31658900  0.18252000  0.56360800  1
  O  O5  1  0.06360800  0.68252000  0.81658900  1
  O  O6  1  0.68252000  0.81658900  0.06360800  1
  O  O7  1  0.81658900  0.06360800  0.68252000  1
  O  O8  1  0.18482300  0.18482300  0.18482300  1
  O  O9  1  0.68482300  0.68482300  0.68482300  1
  O  O10  1  0.88959600  0.25823300  0.18383200  1
  O  O11  1  0.25823300  0.18383200  0.88959600  1
  O  O12  1  0.18383200  0.88959600  0.25823300  1
  O  O13  1  0.75823300  0.38959600  0.68383200  1
  O  O14  1  0.38959600  0.68383200  0.75823300  1
  O  O15  1  0.68383200  0.75823300  0.38959600  1
  O  O16  1  0.46885100  0.32564400  0.74200900  1
  O  O17  1  0.32564400  0.74200900  0.46885100  1
  O  O18  1  0.74200900  0.46885100  0.32564400  1
  O  O19  1  0.82564400  0.96885100  0.24200900  1
  O  O20  1  0.96885100  0.24200900  0.82564400  1
  O  O21  1  0.24200900  0.82564400  0.96885100  1
  O  O22  1  0.01009500  0.55055200  0.74308600  1
  O  O23  1  0.55055200  0.74308600  0.01009500  1
  O  O24  1  0.74308600  0.01009500  0.55055200  1
  O  O25  1  0.05055200  0.51009500  0.24308600  1
  O  O26  1  0.51009500  0.24308600  0.05055200  1
  O  O27  1  0.24308600  0.05055200  0.51009500  1
loop_
_geom_bond_atom_site_label_1
_geom_bond_atom_site_label_2
_geom_bond_distance
_geom_bond_site_symmetry_2
Na0 O24 2.407977 1_565
Na0 O2 2.425723 1_655
Na0 O22 2.473730 1_655
Na0 O12 2.542619 1_655
Na0 O19 2.554681 1_555
Na0 O9 2.567558 1_555
Na1 O22 2.407977 1_655
Na1 O3 2.425722 1_556
Na1 O23 2.473730 1_556
Na1 O10 2.542619 1_556
Na1 O20 2.554681 1_555
Na1 O9 2.567558 1_555
Na2 O23 2.407977 1_556
Na2 O4 2.425723 1_565
Na2 O24 2.473730 1_565
Na2 O11 2.542619 1_565
Na2 O21 2.554680 1_555
Na2 O9 2.567558 1_555
Na3 O26 2.407977 1_556
Na3 O5 2.425723 1_555
Na3 O25 2.473730 1_556
Na3 O14 2.542619 1_555
Na3 O16 2.554681 1_555
Na3 O8 2.567558 1_556
Na4 O27 2.407977 1_565
Na4 O6 2.425723 1_555
Na4 O26 2.473730 1_565
Na4 O15 2.542619 1_555
Na4 O17 2.554680 1_555
Na4 O8 2.567558 1_565
Na5 O25 2.407977 1_655
Na5 O7 2.425722 1_555
Na5 O27 2.473730 1_655
Na5 O13 2.542619 1_555
Na5 O18 2.554681 1_555
Na5 O8 2.567558 1_655
Li0 O0 1.949500 1_555
Li0 O16 1.981028 1_555
Li0 O18 1.981028 1_555
Li0 O17 1.981028 1_555
Li1 O1 1.949500 1_555
Li1 O19 1.981028 1_556
Li1 O20 1.981028 1_565
Li1 O21 1.981028 1_655
Mo0 O0 1.765638 1_555
Mo0 O4 1.809637 1_555
Mo0 O3 1.809637 1_555
Mo0 O2 1.809637 1_555
Mo1 O1 1.765638 1_555
Mo1 O6 1.809637 1_556
Mo1 O7 1.809637 1_565
Mo1 O5 1.809637 1_655
Mo2 O8 1.787142 1_555
Mo2 O11 1.807334 1_554
Mo2 O12 1.807334 1_545
Mo2 O10 1.807334 1_455
Mo3 O9 1.787142 1_555
Mo3 O15 1.807334 1_555
Mo3 O14 1.807334 1_555
Mo3 O13 1.807334 1_555
H0 O16 0.998255 1_555
H0 O11 1.744767 1_555
H1 O17 0.998255 1_555
H1 O12 1.744767 1_555
H2 O18 0.998255 1_555
H2 O10 1.744767 1_555
H3 O19 0.998255 1_555
H3 O15 1.744767 1_555
H4 O20 0.998255 1_555
H4 O13 1.744767 1_555
H5 O21 0.998255 1_555
H5 O14 1.744767 1_555
H6 O17 0.991979 1_555
H6 O5 1.765915 1_555
H7 O18 0.991979 1_555
H7 O6 1.765916 1_555
H8 O16 0.991979 1_555
H8 O7 1.765916 1_555
H9 O21 0.991979 1_554
H9 O2 1.765915 1_555
H10 O19 0.991979 1_545
H10 O3 1.765916 1_555
H11 O20 0.991979 1_455
H11 O4 1.765916 1_555
H12 O23 0.986921 1_555
H13 O24 0.986921 1_555
H14 O22 0.986921 1_555
H15 O27 0.986921 1_565
H16 O25 0.986921 1_655
H17 O26 0.986921 1_556
H18 O22 0.994146 1_555
H18 O5 1.770835 1_555
H19 O23 0.994146 1_555
H19 O6 1.770835 1_555
H20 O24 0.994146 1_555
H20 O7 1.770835 1_555
H21 O25 0.994146 1_555
H21 O2 1.770835 1_555
H22 O26 0.994146 1_555
H22 O3 1.770835 1_555
H23 O27 0.994146 1_555
H23 O4 1.770835 1_555
