# generated using pymatgen
data_ScCoO3
_symmetry_space_group_name_H-M   'P 1'
_cell_length_a   5.01156405
_cell_length_b   5.40957700
_cell_length_c   7.65556981
_cell_angle_alpha   90.00165402
_cell_angle_beta   89.73397158
_cell_angle_gamma   89.99754113
_symmetry_Int_Tables_number   1
_chemical_formula_structural   ScCoO3
_chemical_formula_sum   'Sc4 Co4 O12'
_cell_volume   207.54364122
_cell_formula_units_Z   4
loop_
 _symmetry_equiv_pos_site_id
 _symmetry_equiv_pos_as_xyz
  1  'x, y, z'
loop_
 _atom_site_type_symbol
 _atom_site_label
 _atom_site_symmetry_multiplicity
 _atom_site_fract_x
 _atom_site_fract_y
 _atom_site_fract_z
 _atom_site_occupancy
  Sc  Sc0  1  0.02353500  0.92384000  0.75176200  1
  Sc  Sc1  1  0.47651800  0.42383800  0.74822900  1
  Sc  Sc2  1  0.52348100  0.57616200  0.25177200  1
  Sc  Sc3  1  0.97646500  0.07616000  0.24823800  1
  Co  Co0  1  0.00000000  0.50000000  0.50000000  1
  Co  Co1  1  0.50000100  0.00000000  0.00000000  1
  Co  Co2  1  0.99999900  0.50000000  0.00000000  1
  Co  Co3  1  0.50000000  0.99999900  0.50000000  1
  O  O0  1  0.14539200  0.43626800  0.25019100  1
  O  O1  1  0.35456300  0.93627300  0.24981700  1
  O  O2  1  0.64543600  0.06372700  0.75018300  1
  O  O3  1  0.85460800  0.56373200  0.74980900  1
  O  O4  1  0.19560000  0.18311900  0.57365400  1
  O  O5  1  0.19434800  0.18212500  0.92998500  1
  O  O6  1  0.30441800  0.68310000  0.92635900  1
  O  O7  1  0.30566600  0.68213700  0.57001900  1
  O  O8  1  0.69433400  0.31786100  0.42998100  1
  O  O9  1  0.69558200  0.31690100  0.07364000  1
  O  O10  1  0.80565200  0.81787700  0.07001400  1
  O  O11  1  0.80440000  0.81687900  0.42634600  1
loop_
_geom_bond_atom_site_label_1
_geom_bond_atom_site_label_2
_geom_bond_distance
_geom_bond_site_symmetry_2
Co0 O7 1.900645 1_555
Co0 O8 1.900651 1_455
Co0 O11 2.054828 1_455
Co0 O4 2.054837 1_555
Co0 O0 2.072238 1_555
Co0 O3 2.072238 1_455
Co1 O10 1.900482 1_545
Co1 O5 1.900498 1_554
Co1 O9 2.054895 1_555
Co1 O6 2.054897 1_544
Co1 O2 2.072393 1_554
Co1 O1 2.072399 1_545
Co2 O9 1.902245 1_555
Co2 O6 1.902258 1_654
Co2 O5 2.046420 1_654
Co2 O10 2.046423 1_555
Co2 O3 2.081185 1_554
Co2 O0 2.081189 1_655
Co3 O4 1.902182 1_565
Co3 O11 1.902182 1_555
Co3 O7 2.046430 1_555
Co3 O8 2.046430 1_565
Co3 O1 2.081197 1_555
Co3 O2 2.081197 1_565
O0 Sc2 2.040468 1_555
O0 Sc3 2.124152 1_455
O1 Sc3 2.040436 1_465
O1 Sc2 2.124083 1_555
O2 Sc0 2.040441 1_645
O2 Sc1 2.124083 1_555
O3 Sc1 2.040473 1_555
O3 Sc0 2.124152 1_655
O4 Sc0 2.135257 1_545
O4 Sc1 2.341236 1_555
O4 Sc3 2.787924 1_455
O5 Sc0 2.134814 1_545
O5 Sc1 2.372247 1_555
O5 Sc3 2.726247 1_456
O6 Sc1 2.135274 1_555
O6 Sc0 2.341266 1_555
O6 Sc2 2.787747 1_556
O7 Sc1 2.134882 1_555
O7 Sc0 2.371932 1_555
O7 Sc2 2.726033 1_555
O8 Sc2 2.134886 1_555
O8 Sc3 2.371926 1_555
O8 Sc1 2.726044 1_555
O9 Sc2 2.135282 1_555
O9 Sc3 2.341273 1_555
O9 Sc1 2.787734 1_554
O10 Sc3 2.134812 1_565
O10 Sc2 2.372265 1_555
O10 Sc0 2.726238 1_654
O11 Sc3 2.135264 1_565
O11 Sc2 2.341229 1_555
O11 Sc0 2.787927 1_655
