# generated using pymatgen
data_Li5CrO5
_symmetry_space_group_name_H-M   'P 1'
_cell_length_a   4.10551602
_cell_length_b   5.13801849
_cell_length_c   21.59670437
_cell_angle_alpha   95.16176717
_cell_angle_beta   89.99907092
_cell_angle_gamma   66.44921603
_symmetry_Int_Tables_number   1
_chemical_formula_structural   Li5CrO5
_chemical_formula_sum   'Li20 Cr4 O20'
_cell_volume   415.60341096
_cell_formula_units_Z   4
loop_
 _symmetry_equiv_pos_site_id
 _symmetry_equiv_pos_as_xyz
  1  'x, y, z'
loop_
 _atom_site_type_symbol
 _atom_site_label
 _atom_site_symmetry_multiplicity
 _atom_site_fract_x
 _atom_site_fract_y
 _atom_site_fract_z
 _atom_site_occupancy
  Li  Li0  1  0.88380200  0.26851200  0.12854900  1
  Li  Li1  1  0.38367000  0.26800100  0.62855900  1
  Li  Li2  1  0.13362200  0.76873000  0.87856200  1
  Li  Li3  1  0.63378500  0.76808300  0.37856800  1
  Li  Li4  1  0.46462200  0.06791500  0.21892400  1
  Li  Li5  1  0.96475600  0.06785900  0.71887700  1
  Li  Li6  1  0.71466100  0.56818200  0.96890800  1
  Li  Li7  1  0.21454400  0.56730900  0.46893100  1
  Li  Li8  1  0.26431900  0.46904900  0.03815000  1
  Li  Li9  1  0.76415400  0.46827700  0.53818400  1
  Li  Li10  1  0.51434200  0.96893400  0.78815500  1
  Li  Li11  1  0.01420900  0.96884500  0.28817200  1
  Li  Li12  1  0.61151300  0.76959400  0.08807000  1
  Li  Li13  1  0.11144800  0.76889600  0.58809100  1
  Li  Li14  1  0.86154800  0.26954200  0.83804400  1
  Li  Li15  1  0.36145000  0.26922600  0.33811000  1
  Li  Li16  1  0.11246000  0.76742800  0.16902400  1
  Li  Li17  1  0.61250100  0.76716900  0.66905800  1
  Li  Li18  1  0.36248400  0.26762700  0.91901200  1
  Li  Li19  1  0.86239800  0.26685200  0.41904200  1
  Cr  Cr0  1  0.41992600  0.01770800  0.50357100  1
  Cr  Cr1  1  0.17110000  0.51847400  0.75359300  1
  Cr  Cr2  1  0.92015500  0.01860300  0.00354200  1
  Cr  Cr3  1  0.67020400  0.51837500  0.25357400  1
  O  O0  1  0.51050400  0.01863900  0.00359400  1
  O  O1  1  0.01023100  0.01776200  0.50356000  1
  O  O2  1  0.76176900  0.51843600  0.75358000  1
  O  O3  1  0.26087400  0.51839200  0.25356200  1
  O  O4  1  0.93339400  0.15574200  0.21193900  1
  O  O5  1  0.43394400  0.15560400  0.71194100  1
  O  O6  1  0.18336900  0.65606300  0.96196700  1
  O  O7  1  0.68315800  0.65523300  0.46197400  1
  O  O8  1  0.82087500  0.38123600  0.04513800  1
  O  O9  1  0.32055800  0.38043300  0.54514200  1
  O  O10  1  0.07117700  0.88126300  0.79514500  1
  O  O11  1  0.57086400  0.88095500  0.29515200  1
  O  O12  1  0.07523400  0.86620500  0.08062100  1
  O  O13  1  0.57506400  0.86547200  0.58062300  1
  O  O14  1  0.32570700  0.36601600  0.83066700  1
  O  O15  1  0.82519000  0.36583600  0.33064300  1
  O  O16  1  0.67271400  0.67082300  0.17647000  1
  O  O17  1  0.17318000  0.67076100  0.67645000  1
  O  O18  1  0.92283600  0.17098300  0.92650200  1
  O  O19  1  0.42264200  0.17018600  0.42650800  1
loop_
_geom_bond_atom_site_label_1
_geom_bond_atom_site_label_2
_geom_bond_distance
_geom_bond_site_symmetry_2
Li0 O4 1.927199 1_555
Li0 O8 1.927542 1_555
Li0 O16 2.068442 1_555
Li0 O12 2.068475 1_645
Li1 O5 1.926340 1_555
Li1 O9 1.927182 1_555
Li1 O13 2.069464 1_545
Li1 O17 2.069947 1_555
Li2 O10 1.927315 1_555
Li2 O6 1.927320 1_555
Li2 O18 2.068352 1_465
Li2 O14 2.069810 1_555
Li3 O7 1.927685 1_555
Li3 O11 1.927897 1_555
Li3 O19 2.067774 1_565
Li3 O15 2.068203 1_555
Li4 O11 1.942415 1_545
Li4 O16 2.000916 1_545
Li4 O4 2.051531 1_455
Li4 O4 2.153262 1_555
Li4 O3 2.181226 1_555
Li5 O10 1.942307 1_645
Li5 O17 2.000755 1_645
Li5 O5 2.049851 1_555
Li5 O5 2.154596 1_655
Li5 O2 2.182153 1_555
Li6 O8 1.942416 1_556
Li6 O18 2.000987 1_555
Li6 O6 2.051644 1_555
Li6 O6 2.153080 1_655
Li6 O0 2.181325 1_566
Li7 O9 1.941855 1_555
Li7 O19 2.000800 1_555
Li7 O7 2.052009 1_455
Li7 O7 2.152860 1_555
Li7 O1 2.180977 1_565
Li8 O6 1.941663 1_554
Li8 O12 2.001318 1_555
Li8 O8 2.051697 1_455
Li8 O8 2.153081 1_555
Li8 O0 2.180400 1_555
Li9 O7 1.942028 1_555
Li9 O13 2.001230 1_555
Li9 O9 2.052337 1_555
Li9 O9 2.152380 1_655
Li9 O1 2.181201 1_655
Li10 O5 1.941433 1_565
Li10 O14 2.001367 1_565
Li10 O10 2.050160 1_555
Li10 O10 2.154357 1_655
Li10 O2 2.181090 1_555
Li11 O4 1.942339 1_465
Li11 O15 2.000626 1_465
Li11 O11 2.051514 1_455
Li11 O11 2.153381 1_555
Li11 O3 2.180953 1_555
Li12 O8 1.968897 1_555
Li12 O16 2.009472 1_555
Li12 O12 2.064169 1_555
Li12 O12 2.160173 1_655
Li12 O0 2.265795 1_565
Li13 O9 1.969434 1_555
Li13 O17 2.007726 1_555
Li13 O13 2.064660 1_455
Li13 O13 2.159687 1_555
Li13 O1 2.266257 1_565
Li14 O10 1.968338 1_645
Li14 O18 2.010386 1_555
Li14 O14 2.062395 1_555
Li14 O14 2.161361 1_655
Li14 O2 2.265356 1_555
Li15 O11 1.968761 1_545
Li15 O19 2.009827 1_555
Li15 O15 2.064133 1_455
Li15 O15 2.160283 1_555
Li15 O3 2.267553 1_555
Li16 O4 1.968569 1_465
Li16 O12 2.009578 1_555
Li16 O16 2.064487 1_455
Li16 O16 2.159829 1_555
Li16 O3 2.266982 1_555
Li17 O5 1.968885 1_565
Li17 O13 2.009482 1_555
Li17 O17 2.062073 1_555
Li17 O17 2.161608 1_655
Li17 O2 2.266017 1_555
Li18 O6 1.969405 1_555
Li18 O14 2.007793 1_555
Li18 O18 2.064310 1_455
Li18 O18 2.160273 1_555
Li18 O0 2.267595 1_556
Li19 O7 1.968968 1_555
Li19 O15 2.009823 1_555
Li19 O19 2.064757 1_555
Li19 O19 2.159771 1_655
Li19 O1 2.266657 1_655
Cr0 O1 1.681899 1_555
Cr0 O7 1.879901 1_545
Cr0 O9 1.880728 1_555
Cr0 O13 1.903350 1_545
Cr0 O19 1.904050 1_555
Cr0 O1 2.423618 1_655
Cr1 O2 1.680593 1_455
Cr1 O10 1.880446 1_555
Cr1 O5 1.881537 1_555
Cr1 O14 1.903820 1_555
Cr1 O17 1.904699 1_555
Cr1 O2 2.424923 1_555
Cr2 O0 1.681755 1_555
Cr2 O6 1.879943 1_644
Cr2 O8 1.880596 1_555
Cr2 O18 1.903325 1_554
Cr2 O12 1.904137 1_645
Cr2 O0 2.423761 1_655
Cr3 O3 1.680476 1_555
Cr3 O11 1.880166 1_555
Cr3 O4 1.880773 1_555
Cr3 O15 1.904134 1_555
Cr3 O16 1.904637 1_555
Cr3 O3 2.425040 1_655
