# generated using pymatgen
data_Li3Fe8(BO3)8
_symmetry_space_group_name_H-M   'P 1'
_cell_length_a   5.25584200
_cell_length_b   5.27095882
_cell_length_c   20.07931436
_cell_angle_alpha   90.31009899
_cell_angle_beta   90.40631797
_cell_angle_gamma   119.25181349
_symmetry_Int_Tables_number   1
_chemical_formula_structural   Li3Fe8(BO3)8
_chemical_formula_sum   'Li3 Fe8 B8 O24'
_cell_volume   485.29201845
_cell_formula_units_Z   1
loop_
 _symmetry_equiv_pos_site_id
 _symmetry_equiv_pos_as_xyz
  1  'x, y, z'
loop_
 _atom_site_type_symbol
 _atom_site_label
 _atom_site_symmetry_multiplicity
 _atom_site_fract_x
 _atom_site_fract_y
 _atom_site_fract_z
 _atom_site_occupancy
  Li  Li0  1  0.64180900  0.66712600  0.08112800  1
  Li  Li1  1  0.66621700  0.64222500  0.82918300  1
  Li  Li2  1  0.34404200  0.34450600  0.45076600  1
  Fe  Fe0  1  0.01834300  0.67708300  0.18953700  1
  Fe  Fe1  1  0.99898300  0.67339500  0.69018500  1
  Fe  Fe2  1  0.31569700  0.00848400  0.06290900  1
  Fe  Fe3  1  0.32484500  0.99491300  0.56495200  1
  Fe  Fe4  1  0.68111400  0.99368000  0.43925000  1
  Fe  Fe5  1  0.67626300  0.01540700  0.93935300  1
  Fe  Fe6  1  0.99521400  0.33335900  0.31651700  1
  Fe  Fe7  1  0.00858400  0.31437100  0.81266900  1
  B  B0  1  0.99624600  0.33698500  0.06416600  1
  B  B1  1  0.99770300  0.33709100  0.56335300  1
  B  B2  1  0.67344400  0.01203400  0.18823900  1
  B  B3  1  0.66076000  0.00311700  0.68796400  1
  B  B4  1  0.33791300  0.00171200  0.31487300  1
  B  B5  1  0.33872800  0.99487800  0.81407600  1
  B  B6  1  0.00129500  0.66470900  0.44025000  1
  B  B7  1  0.00973600  0.67131300  0.93675600  1
  O  O0  1  0.88781300  0.27563200  0.21514300  1
  O  O1  1  0.88284100  0.27181100  0.70973700  1
  O  O2  1  0.74551700  0.08292500  0.04127500  1
  O  O3  1  0.96498900  0.57407600  0.08664900  1
  O  O4  1  0.72577000  0.11461900  0.54369200  1
  O  O5  1  0.02063200  0.59828000  0.58671000  1
  O  O6  1  0.40739900  0.98437500  0.16805500  1
  O  O7  1  0.73745100  0.65116600  0.44010300  1
  O  O8  1  0.39578600  0.98396200  0.66669700  1
  O  O9  1  0.77816700  0.71939700  0.92876100  1
  O  O10  1  0.72651500  0.78611900  0.17788800  1
  O  O11  1  0.69597800  0.76443300  0.69000500  1
  O  O12  1  0.28797900  0.22910000  0.32230900  1
  O  O13  1  0.35125100  0.25781300  0.81515500  1
  O  O14  1  0.26117700  0.35200100  0.06559900  1
  O  O15  1  0.60165000  0.02289200  0.33442500  1
  O  O16  1  0.23823700  0.30364700  0.55522000  1
  O  O17  1  0.57819500  0.96605400  0.83630900  1
  O  O18  1  0.03107500  0.42621700  0.41775900  1
  O  O19  1  0.97808200  0.40256500  0.91874800  1
  O  O20  1  0.25626200  0.91361300  0.46252800  1
  O  O21  1  0.27463400  0.88772300  0.96119300  1
  O  O22  1  0.11959600  0.73394900  0.28894900  1
  O  O23  1  0.08584700  0.74227300  0.79166800  1
loop_
_geom_bond_atom_site_label_1
_geom_bond_atom_site_label_2
_geom_bond_distance
_geom_bond_site_symmetry_2
Li0 O14 1.896421 1_555
Li0 O3 1.987492 1_555
Li0 O10 2.016929 1_555
Li0 O2 2.144413 1_565
Li1 O13 1.906416 1_555
Li1 O17 1.979393 1_555
Li1 O9 2.061578 1_555
Li1 O23 2.144991 1_655
Li2 O7 1.917713 1_555
Li2 O18 2.002612 1_555
Li2 O20 2.100086 1_545
Li2 O16 2.158460 1_555
Fe0 O10 1.896163 1_455
Fe0 O6 1.942695 1_555
Fe0 O0 1.952087 1_455
Fe0 O22 2.044536 1_555
Fe0 O3 2.114781 1_455
Fe1 O11 1.874370 1_555
Fe1 O1 1.938279 1_555
Fe1 O8 1.984295 1_655
Fe1 O23 2.075887 1_655
Fe1 O5 2.127216 1_655
Fe2 O14 1.967170 1_555
Fe2 O21 2.113885 1_544
Fe2 O2 2.143717 1_555
Fe2 O6 2.180411 1_545
Fe2 O3 2.183410 1_445
Fe3 O16 1.902549 1_565
Fe3 O4 1.933112 1_565
Fe3 O5 1.967503 1_555
Fe3 O8 2.080285 1_555
Fe3 O20 2.090974 1_555
Fe4 O7 1.967244 1_555
Fe4 O20 2.116276 1_555
Fe4 O15 2.163855 1_565
Fe4 O18 2.165845 1_665
Fe4 O4 2.166034 1_565
Fe5 O9 1.892407 1_545
Fe5 O19 1.925294 1_555
Fe5 O21 1.931078 1_545
Fe5 O2 2.074212 1_556
Fe5 O17 2.112423 1_545
Fe6 O12 1.872902 1_655
Fe6 O15 1.948016 1_555
Fe6 O22 1.964931 1_655
Fe6 O18 2.073954 1_655
Fe6 O0 2.088949 1_555
Fe7 O13 1.964327 1_555
Fe7 O23 2.132466 1_555
Fe7 O1 2.142309 1_455
Fe7 O17 2.163070 1_445
Fe7 O19 2.201280 1_455
B0 O14 1.355606 1_655
B0 O3 1.410007 1_555
B0 O2 1.414651 1_555
B1 O16 1.369811 1_655
B1 O4 1.386618 1_555
B1 O5 1.399961 1_655
B2 O10 1.364453 1_545
B2 O6 1.390258 1_545
B2 O0 1.394660 1_555
B3 O11 1.358962 1_545
B3 O1 1.389193 1_555
B3 O8 1.409160 1_545
B4 O12 1.354153 1_555
B4 O15 1.388741 1_555
B4 O22 1.407273 1_545
B5 O13 1.355020 1_565
B5 O17 1.409289 1_555
B5 O23 1.413265 1_555
B6 O7 1.353255 1_455
B6 O20 1.408569 1_555
B6 O18 1.412744 1_555
B7 O9 1.367645 1_455
B7 O21 1.382931 1_555
B7 O19 1.388650 1_455
