# generated using pymatgen
data_Li10Ti2Mn3Ni3O16
_symmetry_space_group_name_H-M   'P 1'
_cell_length_a   5.95110700
_cell_length_b   5.97946618
_cell_length_c   9.86074388
_cell_angle_alpha   90.36066754
_cell_angle_beta   91.23423246
_cell_angle_gamma   119.46564526
_symmetry_Int_Tables_number   1
_chemical_formula_structural   Li10Ti2Mn3Ni3O16
_chemical_formula_sum   'Li10 Ti2 Mn3 Ni3 O16'
_cell_volume   305.37347238
_cell_formula_units_Z   1
loop_
 _symmetry_equiv_pos_site_id
 _symmetry_equiv_pos_as_xyz
  1  'x, y, z'
loop_
 _atom_site_type_symbol
 _atom_site_label
 _atom_site_symmetry_multiplicity
 _atom_site_fract_x
 _atom_site_fract_y
 _atom_site_fract_z
 _atom_site_occupancy
  Li  Li0  1  0.00409700  0.00356900  0.52886900  1
  Li  Li1  1  0.81896000  0.20144600  0.95443800  1
  Li  Li2  1  0.61415500  0.80360300  0.45827800  1
  Li  Li3  1  0.80608600  0.61403300  0.95644000  1
  Li  Li4  1  0.65725800  0.33204000  0.74678200  1
  Li  Li5  1  0.32759100  0.66529100  0.24618600  1
  Li  Li6  1  0.19416900  0.40291100  0.46974600  1
  Li  Li7  1  0.40195200  0.19905500  0.96468100  1
  Li  Li8  1  0.19890000  0.80968300  0.46379400  1
  Li  Li9  1  0.00872800  0.99952800  0.02730900  1
  Ti  Ti0  1  0.32471700  0.65317900  0.98203000  1
  Ti  Ti1  1  0.64685100  0.32082600  0.48578300  1
  Mn  Mn0  1  0.65798100  0.82747700  0.72642700  1
  Mn  Mn1  1  0.83149800  0.16593300  0.22755900  1
  Mn  Mn2  1  0.82415400  0.65501200  0.22714400  1
  Ni  Ni0  1  0.16691500  0.33818100  0.72774500  1
  Ni  Ni1  1  0.16688900  0.83077900  0.72879000  1
  Ni  Ni2  1  0.33828000  0.16795900  0.22674900  1
  O  O0  1  0.98206400  0.99256400  0.83354900  1
  O  O1  1  0.99253400  0.97465300  0.33521800  1
  O  O2  1  0.83705700  0.18662800  0.58922700  1
  O  O3  1  0.48626500  0.50196900  0.85712500  1
  O  O4  1  0.67005200  0.81315200  0.09812900  1
  O  O5  1  0.97732300  0.50422100  0.35530100  1
  O  O6  1  0.49991200  0.97830800  0.85357600  1
  O  O7  1  0.34437200  0.67577700  0.61320000  1
  O  O8  1  0.50467800  0.02136400  0.36153500  1
  O  O9  1  0.81906300  0.66571400  0.59933700  1
  O  O10  1  0.67484600  0.34858900  0.10897100  1
  O  O11  1  0.18087100  0.34785200  0.08928600  1
  O  O12  1  0.02250000  0.51318500  0.85548700  1
  O  O13  1  0.49332900  0.48104900  0.35965800  1
  O  O14  1  0.34761300  0.17513100  0.59738700  1
  O  O15  1  0.19613000  0.83805400  0.09034100  1
loop_
_geom_bond_atom_site_label_1
_geom_bond_atom_site_label_2
_geom_bond_distance
_geom_bond_site_symmetry_2
Li0 O14 1.885899 1_555
Li0 O2 1.904815 1_455
Li0 O9 1.907533 1_445
Li0 O1 1.912972 1_445
Li1 O12 1.935559 1_655
Li1 O6 1.945268 1_545
Li1 O10 2.147890 1_556
Li1 O0 2.268694 1_545
Li1 O11 2.276016 1_656
Li1 O4 2.500990 1_546
Li2 O13 1.940233 1_555
Li2 O8 1.963008 1_565
Li2 O7 2.099680 1_555
Li2 O9 2.243224 1_555
Li2 O1 2.335942 1_555
Li2 O2 2.360609 1_565
Li3 O3 1.920241 1_555
Li3 O12 1.955763 1_655
Li3 O10 2.062173 1_556
Li3 O4 2.236306 1_556
Li3 O0 2.333550 1_555
Li3 O15 2.390061 1_656
Li4 O3 2.074323 1_555
Li4 O6 2.140459 1_545
Li4 O14 2.147287 1_555
Li4 O12 2.148380 1_655
Li4 O9 2.286618 1_555
Li4 O2 2.298806 1_555
Li5 O13 2.115530 1_555
Li5 O5 2.136568 1_455
Li5 O8 2.155911 1_565
Li5 O15 2.191822 1_555
Li5 O11 2.243490 1_555
Li5 O4 2.332042 1_555
Li6 O13 1.958980 1_555
Li6 O7 1.985888 1_555
Li6 O5 2.005189 1_455
Li6 O2 2.236123 1_455
Li6 O14 2.338532 1_555
Li6 O1 2.573464 1_445
Li7 O3 1.951996 1_555
Li7 O10 1.979184 1_556
Li7 O6 2.012150 1_545
Li7 O15 2.278835 1_546
Li7 O11 2.289067 1_556
Li7 O0 2.499178 1_445
Li8 O8 1.938910 1_565
Li8 O5 1.940248 1_455
Li8 O7 2.050097 1_555
Li8 O1 2.286753 1_455
Li8 O14 2.303165 1_565
Li8 O9 2.422255 1_455
Li9 O15 1.897208 1_555
Li9 O11 1.902329 1_565
Li9 O4 1.911162 1_455
Li9 O0 1.912279 1_454
Mn0 O7 1.945386 1_555
Mn0 O0 1.958575 1_555
Mn0 O6 2.035066 1_555
Mn0 O9 2.091351 1_555
Mn0 O3 2.150606 1_555
Mn0 O2 2.329176 1_565
Mn1 O10 2.097665 1_555
Mn1 O1 2.098426 1_545
Mn1 O5 2.150646 1_555
Mn1 O8 2.178619 1_555
Mn1 O4 2.218360 1_545
Mn1 O11 2.298039 1_655
Mn2 O10 1.957384 1_555
Mn2 O1 1.958819 1_555
Mn2 O5 2.003530 1_555
Mn2 O4 2.042462 1_555
Mn2 O13 2.186026 1_555
Mn2 O15 2.383615 1_655
Ni0 O3 2.060903 1_555
Ni0 O12 2.082094 1_555
Ni0 O0 2.099880 1_445
Ni0 O7 2.109210 1_555
Ni0 O2 2.158503 1_455
Ni0 O14 2.198737 1_555
Ni1 O7 2.067706 1_555
Ni1 O0 2.072659 1_455
Ni1 O12 2.091956 1_555
Ni1 O6 2.093163 1_555
Ni1 O9 2.179147 1_455
Ni1 O14 2.233890 1_565
Ni2 O13 2.071568 1_555
Ni2 O8 2.080231 1_555
Ni2 O1 2.117606 1_445
Ni2 O10 2.124817 1_555
Ni2 O15 2.166123 1_545
Ni2 O11 2.197018 1_555
O2 Ti1 1.954432 1_555
O3 Ti0 2.037376 1_555
O4 Ti0 2.097621 1_554
O5 Ti1 2.175053 1_555
O6 Ti0 2.136527 1_555
O8 Ti1 1.964814 1_555
O9 Ti1 2.097426 1_555
O11 Ti0 1.926210 1_554
O12 Ti0 1.975213 1_555
O13 Ti1 2.031378 1_555
O14 Ti1 1.926530 1_555
O15 Ti0 1.949582 1_554
