# generated using pymatgen
data_Be3Al2Si6O19
_symmetry_space_group_name_H-M   'P 1'
_cell_length_a   9.30357090
_cell_length_b   9.30357090
_cell_length_c   9.28981700
_cell_angle_alpha   90.00000000
_cell_angle_beta   90.00000000
_cell_angle_gamma   120.00000637
_symmetry_Int_Tables_number   1
_chemical_formula_structural   Be3Al2Si6O19
_chemical_formula_sum   'Be6 Al4 Si12 O38'
_cell_volume   696.36527362
_cell_formula_units_Z   2
loop_
 _symmetry_equiv_pos_site_id
 _symmetry_equiv_pos_as_xyz
  1  'x, y, z'
loop_
 _atom_site_type_symbol
 _atom_site_label
 _atom_site_symmetry_multiplicity
 _atom_site_fract_x
 _atom_site_fract_y
 _atom_site_fract_z
 _atom_site_occupancy
  Be  Be0  1  0.50000000  0.50000000  0.25000000  1
  Be  Be1  1  0.50000000  0.00000000  0.25000000  1
  Be  Be2  1  0.00000000  0.50000000  0.25000000  1
  Be  Be3  1  0.50000000  0.50000000  0.75000000  1
  Be  Be4  1  0.50000000  0.00000000  0.75000000  1
  Be  Be5  1  0.00000000  0.50000000  0.75000000  1
  Al  Al0  1  0.66666700  0.33333300  0.25000000  1
  Al  Al1  1  0.66666700  0.33333300  0.75000000  1
  Al  Al2  1  0.33333300  0.66666700  0.75000000  1
  Al  Al3  1  0.33333300  0.66666700  0.25000000  1
  Si  Si0  1  0.38820600  0.27253100  0.00000000  1
  Si  Si1  1  0.72746900  0.11567400  0.00000000  1
  Si  Si2  1  0.88432600  0.61179400  0.00000000  1
  Si  Si3  1  0.27253100  0.38820600  0.50000000  1
  Si  Si4  1  0.11567400  0.72746900  0.50000000  1
  Si  Si5  1  0.61179400  0.88432600  0.50000000  1
  Si  Si6  1  0.61179400  0.72746900  0.00000000  1
  Si  Si7  1  0.27253100  0.88432600  0.00000000  1
  Si  Si8  1  0.11567400  0.38820600  0.00000000  1
  Si  Si9  1  0.72746900  0.61179400  0.50000000  1
  Si  Si10  1  0.88432600  0.27253100  0.50000000  1
  Si  Si11  1  0.38820600  0.11567400  0.50000000  1
  O  O0  1  0.31028800  0.07379400  0.00000000  1
  O  O1  1  0.92620600  0.23649500  0.00000000  1
  O  O2  1  0.76350500  0.68971200  0.00000000  1
  O  O3  1  0.07379400  0.31028800  0.50000000  1
  O  O4  1  0.23649500  0.92620600  0.50000000  1
  O  O5  1  0.68971200  0.76350500  0.50000000  1
  O  O6  1  0.68971200  0.92620600  0.00000000  1
  O  O7  1  0.07379400  0.76350500  0.00000000  1
  O  O8  1  0.23649500  0.31028800  0.00000000  1
  O  O9  1  0.92620600  0.68971200  0.50000000  1
  O  O10  1  0.76350500  0.07379400  0.50000000  1
  O  O11  1  0.31028800  0.23649500  0.50000000  1
  O  O12  1  0.49934400  0.35422300  0.14557800  1
  O  O13  1  0.64577700  0.14512100  0.14557800  1
  O  O14  1  0.85487900  0.50065600  0.14557800  1
  O  O15  1  0.49934400  0.35422300  0.85442200  1
  O  O16  1  0.64577700  0.14512100  0.85442200  1
  O  O17  1  0.85487900  0.50065600  0.85442200  1
  O  O18  1  0.35422300  0.49934400  0.64557800  1
  O  O19  1  0.14512100  0.64577700  0.64557800  1
  O  O20  1  0.50065600  0.85487900  0.64557800  1
  O  O21  1  0.35422300  0.49934400  0.35442200  1
  O  O22  1  0.14512100  0.64577700  0.35442200  1
  O  O23  1  0.50065600  0.85487900  0.35442200  1
  O  O24  1  0.50065600  0.64577700  0.85442200  1
  O  O25  1  0.35422300  0.85487900  0.85442200  1
  O  O26  1  0.14512100  0.49934400  0.85442200  1
  O  O27  1  0.50065600  0.64577700  0.14557800  1
  O  O28  1  0.35422300  0.85487900  0.14557800  1
  O  O29  1  0.14512100  0.49934400  0.14557800  1
  O  O30  1  0.64577700  0.50065600  0.35442200  1
  O  O31  1  0.85487900  0.35422300  0.35442200  1
  O  O32  1  0.49934400  0.14512100  0.35442200  1
  O  O33  1  0.64577700  0.50065600  0.64557800  1
  O  O34  1  0.85487900  0.35422300  0.64557800  1
  O  O35  1  0.49934400  0.14512100  0.64557800  1
  O  O36  1  0.00000000  0.00000000  0.25000000  1
  O  O37  1  0.00000000  0.00000000  0.75000000  1
loop_
_geom_bond_atom_site_label_1
_geom_bond_atom_site_label_2
_geom_bond_distance
_geom_bond_site_symmetry_2
Be0 O21 1.664988 1_555
Be0 O12 1.664988 1_555
Be0 O27 1.664988 1_555
Be0 O30 1.664988 1_555
Be1 O28 1.664988 1_545
Be1 O13 1.664988 1_555
Be1 O32 1.664988 1_555
Be1 O23 1.664988 1_545
Be2 O31 1.664988 1_455
Be2 O22 1.664988 1_555
Be2 O29 1.664988 1_555
Be2 O14 1.664988 1_455
Be3 O15 1.664988 1_555
Be3 O18 1.664988 1_555
Be3 O33 1.664988 1_555
Be3 O24 1.664988 1_555
Be4 O16 1.664988 1_555
Be4 O25 1.664988 1_545
Be4 O35 1.664988 1_555
Be4 O20 1.664988 1_545
Be5 O19 1.664988 1_555
Be5 O34 1.664988 1_455
Be5 O26 1.664988 1_555
Be5 O17 1.664988 1_455
Al0 O31 1.924741 1_555
Al0 O13 1.924741 1_555
Al0 O14 1.924744 1_555
Al0 O32 1.924744 1_555
Al0 O30 1.924749 1_555
Al0 O12 1.924749 1_555
Al1 O34 1.924741 1_555
Al1 O16 1.924741 1_555
Al1 O17 1.924744 1_555
Al1 O35 1.924744 1_555
Al1 O33 1.924749 1_555
Al1 O15 1.924749 1_555
Al2 O25 1.924741 1_555
Al2 O19 1.924741 1_555
Al2 O20 1.924744 1_555
Al2 O26 1.924744 1_555
Al2 O24 1.924749 1_555
Al2 O18 1.924749 1_555
Al3 O28 1.924741 1_555
Al3 O22 1.924741 1_555
Al3 O23 1.924744 1_555
Al3 O29 1.924744 1_555
Al3 O27 1.924749 1_555
Al3 O21 1.924749 1_555
O0 Si0 1.613638 1_555
O0 Si7 1.615984 1_545
O1 Si1 1.613640 1_555
O1 Si8 1.615984 1_655
O2 Si2 1.613655 1_555
O2 Si6 1.615984 1_555
O3 Si3 1.613638 1_555
O3 Si10 1.615984 1_455
O4 Si4 1.613640 1_555
O4 Si11 1.615984 1_565
O5 Si5 1.613655 1_555
O5 Si9 1.615984 1_555
O6 Si6 1.613638 1_555
O6 Si1 1.615984 1_565
O7 Si7 1.613640 1_555
O7 Si2 1.615984 1_455
O8 Si8 1.613655 1_555
O8 Si0 1.615984 1_555
O9 Si9 1.613638 1_555
O9 Si4 1.615984 1_655
O10 Si10 1.613640 1_555
O10 Si5 1.615984 1_545
O11 Si11 1.613655 1_555
O11 Si3 1.615984 1_555
O12 Si0 1.640082 1_555
O13 Si1 1.640086 1_555
O14 Si2 1.640081 1_555
O15 Si0 1.640082 1_556
O16 Si1 1.640086 1_556
O17 Si2 1.640081 1_556
O18 Si3 1.640082 1_555
O19 Si4 1.640086 1_555
O20 Si5 1.640081 1_555
O21 Si3 1.640082 1_555
O22 Si4 1.640086 1_555
O23 Si5 1.640081 1_555
O24 Si6 1.640082 1_556
O25 Si7 1.640086 1_556
O26 Si8 1.640081 1_556
O27 Si6 1.640082 1_555
O28 Si7 1.640086 1_555
O29 Si8 1.640081 1_555
O30 Si9 1.640082 1_555
O31 Si10 1.640086 1_555
O32 Si11 1.640081 1_555
O33 Si9 1.640082 1_555
O34 Si10 1.640086 1_555
O35 Si11 1.640081 1_555
