# generated using pymatgen
data_LiFe2(BO3)2
_symmetry_space_group_name_H-M   'P 1'
_cell_length_a   5.28081800
_cell_length_b   9.03417854
_cell_length_c   11.28320614
_cell_angle_alpha   113.18386359
_cell_angle_beta   102.11146999
_cell_angle_gamma   89.61918503
_symmetry_Int_Tables_number   1
_chemical_formula_structural   LiFe2(BO3)2
_chemical_formula_sum   'Li4 Fe8 B8 O24'
_cell_volume   482.08307097
_cell_formula_units_Z   4
loop_
 _symmetry_equiv_pos_site_id
 _symmetry_equiv_pos_as_xyz
  1  'x, y, z'
loop_
 _atom_site_type_symbol
 _atom_site_label
 _atom_site_symmetry_multiplicity
 _atom_site_fract_x
 _atom_site_fract_y
 _atom_site_fract_z
 _atom_site_occupancy
  Li  Li0  1  0.17285200  0.83870300  0.65756200  1
  Li  Li1  1  0.35549700  0.70158300  0.39878200  1
  Li  Li2  1  0.60490600  0.95539800  0.91748800  1
  Li  Li3  1  0.91845500  0.56381200  0.14950300  1
  Fe  Fe0  1  0.40661200  0.74116600  0.13420200  1
  Fe  Fe1  1  0.09210900  0.76265300  0.87612400  1
  Fe  Fe2  1  0.84157500  0.87021900  0.38786300  1
  Fe  Fe3  1  0.66210600  0.64182200  0.62223300  1
  Fe  Fe4  1  0.34876600  0.34731900  0.36932800  1
  Fe  Fe5  1  0.15225700  0.16002700  0.63932000  1
  Fe  Fe6  1  0.90204100  0.21776900  0.13288500  1
  Fe  Fe7  1  0.60650800  0.28474400  0.87942900  1
  B  B0  1  0.63656000  0.98011800  0.62696300  1
  B  B1  1  0.88134600  0.88411100  0.12209200  1
  B  B2  1  0.16062000  0.48345400  0.62652500  1
  B  B3  1  0.41217500  0.40756000  0.13567300  1
  B  B4  1  0.85914800  0.51735500  0.37112900  1
  B  B5  1  0.61428700  0.61857200  0.88382400  1
  B  B6  1  0.34240500  0.02307000  0.38110000  1
  B  B7  1  0.09118400  0.09656800  0.87317600  1
  O  O0  1  0.11213500  0.84731600  0.07693100  1
  O  O1  1  0.44163900  0.86733700  0.33258800  1
  O  O2  1  0.21685900  0.95330100  0.86031600  1
  O  O3  1  0.50172200  0.83769300  0.60583900  1
  O  O4  1  0.88607800  0.97229100  0.59765300  1
  O  O5  1  0.79055800  0.78073900  0.17396200  1
  O  O6  1  0.28948700  0.54889100  0.14345700  1
  O  O7  1  0.06445700  0.63970300  0.67886900  1
  O  O8  1  0.71181600  0.72885800  0.83912000  1
  O  O9  1  0.61718100  0.52777200  0.40737700  1
  O  O10  1  0.97979100  0.64920700  0.36797800  1
  O  O11  1  0.38930800  0.66142000  0.93416600  1
  O  O12  1  0.64628600  0.38327600  0.09694700  1
  O  O13  1  0.36430100  0.47121200  0.56544800  1
  O  O14  1  0.29458900  0.29969600  0.17144400  1
  O  O15  1  0.97248300  0.37098300  0.33978500  1
  O  O16  1  0.73763800  0.49026100  0.88652800  1
  O  O17  1  0.20446100  0.20516800  0.83661000  1
  O  O18  1  0.13620500  0.03541500  0.44202200  1
  O  O19  1  0.44882800  0.14563500  0.36366900  1
  O  O20  1  0.05148700  0.35964400  0.64256400  1
  O  O21  1  0.74693400  0.00480300  0.10700200  1
  O  O22  1  0.52665600  0.12546400  0.66945000  1
  O  O23  1  0.85978600  0.11713200  0.91356100  1
loop_
_geom_bond_atom_site_label_1
_geom_bond_atom_site_label_2
_geom_bond_distance
_geom_bond_site_symmetry_2
Li0 O3 1.943635 1_555
Li0 O7 2.007307 1_555
Li0 O2 2.067545 1_555
Li0 O4 2.096500 1_455
Li1 O10 1.968428 1_455
Li1 O1 2.009815 1_555
Li1 O9 2.102270 1_555
Li1 O3 2.135441 1_555
Li2 O21 1.978426 1_566
Li2 O23 2.012627 1_565
Li2 O2 2.012938 1_555
Li2 O8 2.014558 1_555
Li3 O6 1.976670 1_655
Li3 O12 1.997382 1_555
Li3 O5 2.001938 1_555
Li3 O10 2.224339 1_555
Fe0 O6 1.896050 1_555
Fe0 O0 1.949847 1_555
Fe0 O5 1.985368 1_555
Fe0 O1 2.040626 1_555
Fe0 O11 2.062926 1_554
Fe1 O2 1.933537 1_555
Fe1 O11 1.936412 1_555
Fe1 O8 1.963814 1_455
Fe1 O7 2.031741 1_555
Fe1 O0 2.065391 1_556
Fe2 O18 1.983764 1_665
Fe2 O10 2.065518 1_555
Fe2 O1 2.070111 1_555
Fe2 O4 2.135306 1_555
Fe2 O5 2.178272 1_555
Fe3 O3 2.013669 1_555
Fe3 O13 2.022686 1_555
Fe3 O7 2.088681 1_655
Fe3 O9 2.188642 1_555
Fe3 O8 2.212234 1_555
Fe4 O19 1.874277 1_555
Fe4 O15 1.969220 1_455
Fe4 O9 2.018779 1_555
Fe4 O13 2.032525 1_555
Fe4 O14 2.056557 1_555
Fe5 O20 1.865510 1_555
Fe5 O22 1.978749 1_555
Fe5 O18 2.044294 1_555
Fe5 O4 2.049383 1_445
Fe5 O17 2.055934 1_555
Fe6 O21 1.983944 1_555
Fe6 O14 2.103025 1_655
Fe6 O12 2.108304 1_555
Fe6 O15 2.145310 1_555
Fe6 O23 2.236044 1_554
Fe7 O16 1.951898 1_555
Fe7 O23 2.108616 1_555
Fe7 O17 2.138768 1_555
Fe7 O22 2.183167 1_555
Fe7 O12 2.219476 1_556
B0 O22 1.379071 1_565
B0 O3 1.385245 1_555
B0 O4 1.419085 1_555
B1 O21 1.344193 1_565
B1 O0 1.406187 1_655
B1 O5 1.413705 1_555
B2 O20 1.351921 1_555
B2 O13 1.376055 1_555
B2 O7 1.434980 1_555
B3 O12 1.383869 1_555
B3 O14 1.385982 1_555
B3 O6 1.407945 1_555
B4 O10 1.370762 1_555
B4 O15 1.393546 1_555
B4 O9 1.412890 1_555
B5 O16 1.333575 1_555
B5 O11 1.409949 1_555
B5 O8 1.422644 1_555
B6 O19 1.344138 1_555
B6 O18 1.386645 1_555
B6 O1 1.434525 1_545
B7 O23 1.378169 1_455
B7 O17 1.385903 1_555
B7 O2 1.420507 1_545
