# generated using pymatgen
data_Li4AlCr3O8
_symmetry_space_group_name_H-M   'P 1'
_cell_length_a   5.10915000
_cell_length_b   5.86599683
_cell_length_c   10.15822551
_cell_angle_alpha   89.96220812
_cell_angle_beta   99.53971454
_cell_angle_gamma   106.67025711
_symmetry_Int_Tables_number   1
_chemical_formula_structural   Li4AlCr3O8
_chemical_formula_sum   'Li8 Al2 Cr6 O16'
_cell_volume   287.26169078
_cell_formula_units_Z   2
loop_
 _symmetry_equiv_pos_site_id
 _symmetry_equiv_pos_as_xyz
  1  'x, y, z'
loop_
 _atom_site_type_symbol
 _atom_site_label
 _atom_site_symmetry_multiplicity
 _atom_site_fract_x
 _atom_site_fract_y
 _atom_site_fract_z
 _atom_site_occupancy
  Li  Li0  1  0.99939900  0.24909800  0.24883000  1
  Li  Li1  1  0.00032000  0.24934300  0.75104900  1
  Li  Li2  1  0.00000000  0.00000000  0.00000000  1
  Li  Li3  1  0.00000000  0.00000000  0.50000000  1
  Li  Li4  1  0.99968000  0.75065700  0.24895100  1
  Li  Li5  1  0.00060100  0.75090200  0.75117000  1
  Li  Li6  1  0.00000000  0.50000000  0.00000000  1
  Li  Li7  1  0.00000000  0.50000000  0.50000000  1
  Al  Al0  1  0.50022400  0.12391200  0.87680800  1
  Al  Al1  1  0.49977600  0.87608800  0.12319200  1
  Cr  Cr0  1  0.50026600  0.12399400  0.37334100  1
  Cr  Cr1  1  0.49973400  0.87600600  0.62665900  1
  Cr  Cr2  1  0.49968500  0.62625100  0.87675400  1
  Cr  Cr3  1  0.49981200  0.62612800  0.37309900  1
  Cr  Cr4  1  0.50031500  0.37374900  0.12324600  1
  Cr  Cr5  1  0.50018800  0.37387200  0.62690100  1
  O  O0  1  0.27969600  0.06074600  0.18602100  1
  O  O1  1  0.27848400  0.06906800  0.69773100  1
  O  O2  1  0.71698100  0.17066500  0.05667200  1
  O  O3  1  0.72752600  0.18160500  0.56037200  1
  O  O4  1  0.28301900  0.82933500  0.94332800  1
  O  O5  1  0.72030400  0.93925400  0.81397900  1
  O  O6  1  0.27247400  0.81839500  0.43962800  1
  O  O7  1  0.72151600  0.93093200  0.30226900  1
  O  O8  1  0.27818700  0.57834600  0.18494800  1
  O  O9  1  0.72026000  0.68929600  0.06323500  1
  O  O10  1  0.27264100  0.56822800  0.69053200  1
  O  O11  1  0.72684000  0.68201500  0.56074100  1
  O  O12  1  0.27974000  0.31070400  0.93676500  1
  O  O13  1  0.72181300  0.42165400  0.81505200  1
  O  O14  1  0.27316000  0.31798500  0.43925900  1
  O  O15  1  0.72735900  0.43177200  0.30946800  1
loop_
_geom_bond_atom_site_label_1
_geom_bond_atom_site_label_2
_geom_bond_distance
_geom_bond_site_symmetry_2
Li0 O7 2.127804 1_545
Li0 O15 2.144438 1_555
Li0 O14 2.154423 1_655
Li0 O2 2.188757 1_555
Li0 O0 2.211391 1_655
Li0 O8 2.215068 1_655
Li1 O12 2.130734 1_555
Li1 O1 2.132964 1_555
Li1 O5 2.138381 1_445
Li1 O10 2.145130 1_555
Li1 O13 2.145180 1_455
Li1 O3 2.154209 1_455
Li2 O2 2.128790 1_455
Li2 O4 2.128790 1_544
Li2 O0 2.133889 1_555
Li2 O5 2.133889 1_444
Li2 O9 2.141359 1_445
Li2 O12 2.141359 1_554
Li3 O3 2.140937 1_455
Li3 O6 2.140937 1_545
Li3 O11 2.144332 1_445
Li3 O14 2.144332 1_555
Li3 O1 2.223979 1_555
Li3 O7 2.223979 1_445
Li4 O9 2.130734 1_555
Li4 O7 2.132964 1_555
Li4 O0 2.138381 1_665
Li4 O15 2.145130 1_555
Li4 O8 2.145180 1_655
Li4 O6 2.154209 1_655
Li5 O1 2.127804 1_565
Li5 O10 2.144438 1_555
Li5 O11 2.154423 1_455
Li5 O4 2.188757 1_555
Li5 O5 2.211391 1_455
Li5 O13 2.215068 1_455
Li6 O8 2.121856 1_555
Li6 O13 2.121856 1_454
Li6 O4 2.196864 1_554
Li6 O2 2.196864 1_455
Li6 O9 2.214523 1_455
Li6 O12 2.214523 1_554
Li7 O3 2.142930 1_455
Li7 O6 2.142930 1_555
Li7 O11 2.147009 1_455
Li7 O14 2.147009 1_555
Li7 O10 2.152695 1_555
Li7 O15 2.152695 1_455
Al0 O12 1.943445 1_555
Al0 O5 1.944881 1_545
Al0 O2 1.948246 1_556
Al0 O1 1.950558 1_555
Al0 O4 1.954709 1_545
Al0 O13 1.955821 1_555
Al1 O9 1.943445 1_555
Al1 O0 1.944881 1_565
Al1 O4 1.948246 1_554
Al1 O7 1.950558 1_555
Al1 O2 1.954709 1_565
Al1 O8 1.955821 1_555
Cr0 O15 2.018144 1_555
Cr0 O0 2.019576 1_555
Cr0 O6 2.020557 1_545
Cr0 O7 2.021795 1_545
Cr0 O14 2.026259 1_555
Cr0 O3 2.028922 1_555
Cr1 O10 2.018144 1_555
Cr1 O5 2.019576 1_555
Cr1 O3 2.020557 1_565
Cr1 O1 2.021795 1_565
Cr1 O11 2.026259 1_555
Cr1 O6 2.028922 1_555
Cr2 O9 2.012318 1_556
Cr2 O10 2.021610 1_555
Cr2 O12 2.023065 1_555
Cr2 O5 2.024269 1_555
Cr2 O4 2.026750 1_555
Cr2 O13 2.034560 1_555
Cr3 O15 2.019822 1_555
Cr3 O6 2.022524 1_555
Cr3 O7 2.025858 1_555
Cr3 O8 2.028539 1_555
Cr3 O14 2.028642 1_555
Cr3 O11 2.033706 1_555
Cr4 O12 2.012318 1_554
Cr4 O15 2.021610 1_555
Cr4 O9 2.023065 1_555
Cr4 O0 2.024269 1_555
Cr4 O2 2.026750 1_555
Cr4 O8 2.034560 1_555
Cr5 O10 2.019822 1_555
Cr5 O3 2.022524 1_555
Cr5 O1 2.025858 1_555
Cr5 O13 2.028539 1_555
Cr5 O11 2.028642 1_555
Cr5 O14 2.033706 1_555
