# generated using pymatgen
data_SrCrO3
_symmetry_space_group_name_H-M   'P 1'
_cell_length_a   5.53731143
_cell_length_b   5.53731143
_cell_length_c   9.28272600
_cell_angle_alpha   90.00000000
_cell_angle_beta   90.00000000
_cell_angle_gamma   119.38117357
_symmetry_Int_Tables_number   1
_chemical_formula_structural   SrCrO3
_chemical_formula_sum   'Sr4 Cr4 O12'
_cell_volume   248.01534962
_cell_formula_units_Z   4
loop_
 _symmetry_equiv_pos_site_id
 _symmetry_equiv_pos_as_xyz
  1  'x, y, z'
loop_
 _atom_site_type_symbol
 _atom_site_label
 _atom_site_symmetry_multiplicity
 _atom_site_fract_x
 _atom_site_fract_y
 _atom_site_fract_z
 _atom_site_occupancy
  Sr  Sr0  1  0.66910000  0.33154600  0.25000000  1
  Sr  Sr1  1  0.99999700  0.99999700  0.50000000  1
  Sr  Sr2  1  0.99999700  0.99999700  0.00000000  1
  Sr  Sr3  1  0.33154600  0.66910000  0.75000000  1
  Cr  Cr0  1  0.65877800  0.33013100  0.88770700  1
  Cr  Cr1  1  0.65877800  0.33013100  0.61229300  1
  Cr  Cr2  1  0.33013100  0.65877800  0.38770700  1
  Cr  Cr3  1  0.33013100  0.65877800  0.11229300  1
  O  O0  1  0.50815300  0.00784500  0.50231300  1
  O  O1  1  0.50815300  0.00784500  0.99768700  1
  O  O2  1  0.35068900  0.17931400  0.75000000  1
  O  O3  1  0.81951700  0.18435700  0.75000000  1
  O  O4  1  0.81724300  0.63778800  0.75000000  1
  O  O5  1  0.00784500  0.50815300  0.49768700  1
  O  O6  1  0.00784500  0.50815300  0.00231300  1
  O  O7  1  0.17931400  0.35068900  0.25000000  1
  O  O8  1  0.50734900  0.50734900  0.50000000  1
  O  O9  1  0.50734900  0.50734900  0.00000000  1
  O  O10  1  0.18435700  0.81951700  0.25000000  1
  O  O11  1  0.63778800  0.81724300  0.25000000  1
loop_
_geom_bond_atom_site_label_1
_geom_bond_atom_site_label_2
_geom_bond_distance
_geom_bond_site_symmetry_2
Cr0 O1 1.860694 1_555
Cr0 O9 1.886806 1_556
Cr0 O3 1.944940 1_555
Cr0 O4 1.959444 1_555
Cr0 O2 1.960582 1_555
Cr0 O6 1.992479 1_656
Cr1 O0 1.860694 1_555
Cr1 O8 1.886806 1_555
Cr1 O3 1.944940 1_555
Cr1 O4 1.959444 1_555
Cr1 O2 1.960582 1_555
Cr1 O5 1.992479 1_655
Cr2 O5 1.860694 1_555
Cr2 O8 1.886806 1_555
Cr2 O10 1.944940 1_555
Cr2 O11 1.959444 1_555
Cr2 O7 1.960582 1_555
Cr2 O0 1.992479 1_565
Cr3 O6 1.860694 1_555
Cr3 O9 1.886806 1_555
Cr3 O10 1.944940 1_555
Cr3 O11 1.959444 1_555
Cr3 O7 1.960582 1_555
Cr3 O1 1.992479 1_564
O0 Sr1 2.745159 1_545
O0 Sr1 2.792837 1_445
O0 Sr0 2.815189 1_555
O0 Sr3 2.821557 1_545
O1 Sr2 2.745159 1_546
O1 Sr2 2.792837 1_446
O1 Sr0 2.815189 1_556
O1 Sr3 2.821557 1_545
O2 Sr3 2.765646 1_555
O2 Sr3 2.774746 1_545
O2 Sr1 2.872357 1_445
O2 Sr2 2.872357 1_446
O3 Sr3 2.788544 1_655
O3 Sr3 2.806565 1_545
O3 Sr1 2.903022 1_545
O3 Sr2 2.903022 1_546
O4 Sr3 2.766918 1_655
O4 Sr3 2.778631 1_555
O4 Sr1 2.905297 1_555
O4 Sr2 2.905297 1_556
O5 Sr1 2.745159 1_455
O5 Sr1 2.792837 1_445
O5 Sr3 2.815189 1_555
O5 Sr0 2.821557 1_455
O6 Sr2 2.745159 1_455
O6 Sr2 2.792837 1_445
O6 Sr3 2.815189 1_554
O6 Sr0 2.821557 1_455
O7 Sr0 2.765646 1_555
O7 Sr0 2.774746 1_455
O7 Sr1 2.872357 1_445
O7 Sr2 2.872357 1_445
O8 Sr1 2.753421 1_555
O8 Sr3 2.826833 1_555
O8 Sr0 2.826833 1_555
O8 Sr1 2.835603 1_445
O9 Sr2 2.753421 1_555
O9 Sr3 2.826833 1_554
O9 Sr0 2.826833 1_555
O9 Sr2 2.835603 1_445
O10 Sr0 2.788544 1_565
O10 Sr0 2.806565 1_455
O10 Sr1 2.903022 1_455
O10 Sr2 2.903022 1_455
O11 Sr0 2.766918 1_565
O11 Sr0 2.778631 1_555
O11 Sr1 2.905297 1_555
O11 Sr2 2.905297 1_555
