# generated using pymatgen
data_Rb4SbO4
_symmetry_space_group_name_H-M   'P 1'
_cell_length_a   6.84207601
_cell_length_b   11.02347852
_cell_length_c   11.88446714
_cell_angle_alpha   67.46359464
_cell_angle_beta   90.00000000
_cell_angle_gamma   90.00000000
_symmetry_Int_Tables_number   1
_chemical_formula_structural   Rb4SbO4
_chemical_formula_sum   'Rb16 Sb4 O16'
_cell_volume   827.91778281
_cell_formula_units_Z   4
loop_
 _symmetry_equiv_pos_site_id
 _symmetry_equiv_pos_as_xyz
  1  'x, y, z'
loop_
 _atom_site_type_symbol
 _atom_site_label
 _atom_site_symmetry_multiplicity
 _atom_site_fract_x
 _atom_site_fract_y
 _atom_site_fract_z
 _atom_site_occupancy
  Rb  Rb0  1  0.69687469  0.93803444  0.69973225  1
  Rb  Rb1  1  0.17255213  0.86341585  0.61215801  1
  Rb  Rb2  1  0.39482265  0.65921594  0.90887439  1
  Rb  Rb3  1  0.80312531  0.93803444  0.19973225  1
  Rb  Rb4  1  0.32744787  0.86341585  0.11215801  1
  Rb  Rb5  1  0.89766656  0.56054695  0.80664574  1
  Rb  Rb6  1  0.10517735  0.65921594  0.40887439  1
  Rb  Rb7  1  0.39766656  0.43945305  0.69335426  1
  Rb  Rb8  1  0.60233344  0.56054695  0.30664574  1
  Rb  Rb9  1  0.89482265  0.34078406  0.59112561  1
  Rb  Rb10  1  0.10233344  0.43945305  0.19335426  1
  Rb  Rb11  1  0.67255213  0.13658415  0.88784199  1
  Rb  Rb12  1  0.19687469  0.06196556  0.80026775  1
  Rb  Rb13  1  0.60517735  0.34078406  0.09112561  1
  Rb  Rb14  1  0.82744787  0.13658415  0.38784199  1
  Rb  Rb15  1  0.30312531  0.06196556  0.30026775  1
  Sb  Sb0  1  0.62347849  0.75706893  0.50227204  1
  Sb  Sb1  1  0.87652151  0.75706893  0.00227204  1
  Sb  Sb2  1  0.12347849  0.24293107  0.99772796  1
  Sb  Sb3  1  0.37652151  0.24293107  0.49772796  1
  O  O0  1  0.01635314  0.79704015  0.84169751  1
  O  O1  1  0.86563251  0.86208863  0.46380311  1
  O  O2  1  0.53136231  0.70918392  0.67626606  1
  O  O3  1  0.48364686  0.79704015  0.34169751  1
  O  O4  1  0.63436749  0.86208863  0.96380311  1
  O  O5  1  0.73210025  0.58749012  0.52622855  1
  O  O6  1  0.23210025  0.41250988  0.97377145  1
  O  O7  1  0.96863769  0.70918392  0.17626606  1
  O  O8  1  0.03136231  0.29081608  0.82373394  1
  O  O9  1  0.76789975  0.58749012  0.02622855  1
  O  O10  1  0.26789975  0.41250988  0.47377145  1
  O  O11  1  0.36563251  0.13791137  0.03619689  1
  O  O12  1  0.51635314  0.20295985  0.65830249  1
  O  O13  1  0.46863769  0.29081608  0.32373394  1
  O  O14  1  0.13436749  0.13791137  0.53619689  1
  O  O15  1  0.98364686  0.20295985  0.15830249  1
loop_
_geom_bond_atom_site_label_1
_geom_bond_atom_site_label_2
_geom_bond_distance
_geom_bond_site_symmetry_2
O0 Sb1 2.026504 1_456
O0 Rb1 2.754860 1_555
O0 Rb0 2.833780 1_455
O0 Rb5 2.908912 1_455
O0 Rb2 2.953216 1_555
O0 Rb12 3.032246 1_565
O1 Sb0 1.971964 1_555
O1 Rb1 2.745622 1_655
O1 Rb14 2.818750 1_565
O1 Rb3 2.952793 1_555
O1 Rb6 3.038553 1_655
O1 Rb0 3.419837 1_555
O2 Sb0 2.028566 1_555
O2 Rb2 2.766044 1_555
O2 Rb0 2.874660 1_555
O2 Rb1 2.916365 1_555
O2 Rb7 3.042383 1_555
O2 Rb5 3.069352 1_555
O3 Sb0 2.026504 1_555
O3 Rb4 2.754860 1_555
O3 Rb3 2.833780 1_555
O3 Rb8 2.908912 1_555
O3 Rb6 2.953216 1_555
O3 Rb15 3.032246 1_565
O4 Sb1 1.971964 1_556
O4 Rb4 2.745622 1_556
O4 Rb11 2.818750 1_565
O4 Rb0 2.952793 1_555
O4 Rb2 3.038553 1_555
O4 Rb3 3.419837 1_556
O5 Sb0 1.928703 1_555
O5 Rb9 2.760905 1_555
O5 Rb6 2.870698 1_655
O5 Rb8 2.877639 1_555
O5 Rb7 3.059320 1_555
O5 Rb5 3.423308 1_555
O6 Sb2 1.928703 1_555
O6 Rb2 2.760905 1_555
O6 Rb13 2.870698 1_556
O6 Rb10 2.877639 1_556
O6 Rb5 3.059320 1_455
O6 Rb7 3.423308 1_555
O7 Sb1 2.028566 1_555
O7 Rb6 2.766044 1_655
O7 Rb3 2.874660 1_555
O7 Rb4 2.916365 1_655
O7 Rb10 3.042383 1_655
O7 Rb8 3.069352 1_555
O8 Sb2 2.028566 1_555
O8 Rb9 2.766044 1_455
O8 Rb12 2.874660 1_555
O8 Rb11 2.916365 1_455
O8 Rb5 3.042383 1_455
O8 Rb7 3.069352 1_555
O9 Sb1 1.928703 1_555
O9 Rb13 2.760905 1_555
O9 Rb2 2.870698 1_554
O9 Rb5 2.877639 1_554
O9 Rb10 3.059320 1_655
O9 Rb8 3.423308 1_555
O10 Sb3 1.928703 1_555
O10 Rb6 2.760905 1_555
O10 Rb9 2.870698 1_455
O10 Rb7 2.877639 1_555
O10 Rb8 3.059320 1_555
O10 Rb10 3.423308 1_555
O11 Sb2 1.971964 1_554
O11 Rb11 2.745622 1_554
O11 Rb4 2.818750 1_545
O11 Rb15 2.952793 1_555
O11 Rb13 3.038553 1_555
O11 Rb12 3.419837 1_554
O12 Sb3 2.026504 1_555
O12 Rb11 2.754860 1_555
O12 Rb12 2.833780 1_555
O12 Rb7 2.908912 1_555
O12 Rb9 2.953216 1_555
O12 Rb0 3.032246 1_545
O13 Sb3 2.028566 1_555
O13 Rb13 2.766044 1_555
O13 Rb15 2.874660 1_555
O13 Rb14 2.916365 1_555
O13 Rb8 3.042383 1_555
O13 Rb10 3.069352 1_555
O14 Sb3 1.971964 1_555
O14 Rb14 2.745622 1_455
O14 Rb1 2.818750 1_545
O14 Rb12 2.952793 1_555
O14 Rb9 3.038553 1_455
O14 Rb15 3.419837 1_555
O15 Sb2 2.026504 1_654
O15 Rb14 2.754860 1_555
O15 Rb15 2.833780 1_655
O15 Rb10 2.908912 1_655
O15 Rb13 2.953216 1_555
O15 Rb3 3.032246 1_545
