# generated using pymatgen
data_Li4Mn3NbCr2(PO4)6
_symmetry_space_group_name_H-M   'P 1'
_cell_length_a   8.55347100
_cell_length_b   8.63033453
_cell_length_c   8.94375610
_cell_angle_alpha   62.20185903
_cell_angle_beta   62.78561068
_cell_angle_gamma   63.08126758
_symmetry_Int_Tables_number   1
_chemical_formula_structural   Li4Mn3NbCr2(PO4)6
_chemical_formula_sum   'Li4 Mn3 Nb1 Cr2 P6 O24'
_cell_volume   494.73370824
_cell_formula_units_Z   1
loop_
 _symmetry_equiv_pos_site_id
 _symmetry_equiv_pos_as_xyz
  1  'x, y, z'
loop_
 _atom_site_type_symbol
 _atom_site_label
 _atom_site_symmetry_multiplicity
 _atom_site_fract_x
 _atom_site_fract_y
 _atom_site_fract_z
 _atom_site_occupancy
  Li  Li0  1  0.25646400  0.64434400  0.84454500  1
  Li  Li1  1  0.70135900  0.35794400  0.16079000  1
  Li  Li2  1  0.36067900  0.14580200  0.69555200  1
  Li  Li3  1  0.14876600  0.70441400  0.35567800  1
  Mn  Mn0  1  0.84779800  0.85092700  0.84691800  1
  Mn  Mn1  1  0.65359100  0.64974700  0.64700400  1
  Mn  Mn2  1  0.34167800  0.34028900  0.34124800  1
  Nb  Nb0  1  0.15217600  0.15140700  0.15277700  1
  Cr  Cr0  1  0.99288500  0.99726000  0.99989900  1
  Cr  Cr1  1  0.50637400  0.49851100  0.49772100  1
  P  P0  1  0.25354200  0.93860400  0.55703700  1
  P  P1  1  0.74987800  0.05941200  0.45284900  1
  P  P2  1  0.43077100  0.74920600  0.04568400  1
  P  P3  1  0.06754000  0.45039300  0.75633200  1
  P  P4  1  0.94017600  0.56369900  0.25496100  1
  P  P5  1  0.56935300  0.25028300  0.95011600  1
  O  O0  1  0.90294100  0.50085300  0.70095500  1
  O  O1  1  0.69445900  0.90401200  0.47623700  1
  O  O2  1  0.94033200  0.74226700  0.09369800  1
  O  O3  1  0.43283100  0.70222500  0.89969500  1
  O  O4  1  0.00350800  0.39770300  0.18722900  1
  O  O5  1  0.74928400  0.56584500  0.39540800  1
  O  O6  1  0.75646600  0.09931800  0.92453300  1
  O  O7  1  0.54931100  0.40930600  0.77733300  1
  O  O8  1  0.81779100  0.02240300  0.59865500  1
  O  O9  1  0.39979700  0.74541400  0.56711300  1
  O  O10  1  0.89970300  0.09861600  0.25870300  1
  O  O11  1  0.59055700  0.81746000  0.99021900  1
  O  O12  1  0.40271500  0.17327700  0.01191100  1
  O  O13  1  0.10463000  0.91438300  0.74064200  1
  O  O14  1  0.59319500  0.25158000  0.43159000  1
  O  O15  1  0.18827300  0.99282400  0.39578700  1
  O  O16  1  0.42311900  0.59343200  0.23014700  1
  O  O17  1  0.23266300  0.90296300  0.09081600  1
  O  O18  1  0.25596900  0.42591300  0.60037000  1
  O  O19  1  0.05430500  0.58675300  0.82703300  1
  O  O20  1  0.54068700  0.31036000  0.09959800  1
  O  O21  1  0.08765100  0.24849900  0.90468700  1
  O  O22  1  0.32332200  0.08840500  0.52869700  1
  O  O23  1  0.08346400  0.53094700  0.33283500  1
loop_
_geom_bond_atom_site_label_1
_geom_bond_atom_site_label_2
_geom_bond_distance
_geom_bond_site_symmetry_2
Li0 O13 2.079641 1_555
Li0 O19 2.088078 1_555
Li0 O3 2.088363 1_555
Li0 O9 2.141932 1_555
Li0 O7 2.431010 1_555
Li1 O20 1.940480 1_555
Li1 O14 2.051914 1_555
Li1 O10 2.178747 1_555
Li1 O16 2.371769 1_555
Li2 O22 1.960462 1_555
Li2 O18 2.046549 1_555
Li2 O21 2.326967 1_555
Li2 O14 2.387786 1_555
Li3 O23 1.934365 1_555
Li3 O16 2.059816 1_555
Li3 O17 2.198920 1_555
Li3 O18 2.518126 1_555
Mn0 O11 2.053834 1_555
Mn0 O8 2.073311 1_565
Mn0 O13 2.173314 1_655
Mn0 O19 2.189547 1_655
Mn0 O6 2.250161 1_565
Mn0 O2 2.317878 1_556
Mn1 O0 2.077102 1_555
Mn1 O1 2.085771 1_555
Mn1 O7 2.220173 1_555
Mn1 O9 2.269425 1_555
Mn1 O3 2.270554 1_555
Mn1 O5 2.357168 1_555
Mn2 O22 2.056683 1_555
Mn2 O23 2.082577 1_555
Mn2 O20 2.095942 1_555
Mn2 O16 2.228375 1_555
Mn2 O14 2.321395 1_555
Mn2 O18 2.450974 1_555
Nb0 O12 1.972378 1_555
Nb0 O4 2.008809 1_555
Nb0 O15 2.036892 1_545
Nb0 O10 2.094195 1_455
Nb0 O17 2.191166 1_545
Nb0 O21 2.212973 1_554
Cr0 O6 2.097542 1_565
Cr0 O2 2.139540 1_556
Cr0 O17 2.219611 1_656
Cr0 O21 2.306835 1_665
Cr0 O13 2.387986 1_655
Cr0 O10 2.515551 1_566
Cr1 O5 2.085730 1_555
Cr1 O18 2.168620 1_555
Cr1 O9 2.171155 1_555
Cr1 O14 2.187197 1_555
Cr1 O7 2.402038 1_555
Cr1 O16 2.471271 1_555
O0 P3 1.516102 1_655
O1 P1 1.513416 1_565
O2 P4 1.543420 1_555
O3 P2 1.528336 1_556
O4 P4 1.587257 1_455
O5 P4 1.537072 1_555
O6 P5 1.538306 1_555
O7 P5 1.533656 1_555
O8 P1 1.508767 1_555
O9 P0 1.558002 1_555
O10 P1 1.606607 1_555
O11 P2 1.515684 1_556
O12 P5 1.604151 1_554
O13 P0 1.539628 1_555
O14 P1 1.584050 1_555
O15 P0 1.575104 1_555
O16 P2 1.563858 1_555
O17 P2 1.622706 1_555
O18 P3 1.580593 1_555
O19 P3 1.518412 1_555
O20 P5 1.532296 1_554
O21 P3 1.614661 1_555
O22 P0 1.531854 1_545
O23 P4 1.533156 1_455
