# generated using pymatgen
data_Li4V2OF7
_symmetry_space_group_name_H-M   'P 1'
_cell_length_a   6.03343274
_cell_length_b   6.07929447
_cell_length_c   8.59578429
_cell_angle_alpha   88.98013386
_cell_angle_beta   91.32863043
_cell_angle_gamma   90.74288346
_symmetry_Int_Tables_number   1
_chemical_formula_structural   Li4V2OF7
_chemical_formula_sum   'Li8 V4 O2 F14'
_cell_volume   315.12534575
_cell_formula_units_Z   2
loop_
 _symmetry_equiv_pos_site_id
 _symmetry_equiv_pos_as_xyz
  1  'x, y, z'
loop_
 _atom_site_type_symbol
 _atom_site_label
 _atom_site_symmetry_multiplicity
 _atom_site_fract_x
 _atom_site_fract_y
 _atom_site_fract_z
 _atom_site_occupancy
  Li  Li0  1  0.74979600  0.24640600  0.24942300  1
  Li  Li1  1  0.24979900  0.74634100  0.74937800  1
  Li  Li2  1  0.99023300  0.98745600  0.50286400  1
  Li  Li3  1  0.49016800  0.48741300  0.00295500  1
  Li  Li4  1  0.24936400  0.00408400  0.10981900  1
  Li  Li5  1  0.74933500  0.50411700  0.60977900  1
  Li  Li6  1  0.75940300  0.01029100  0.88503600  1
  Li  Li7  1  0.25947800  0.51019800  0.38518900  1
  V  V0  1  0.00600000  0.49644700  0.00327100  1
  V  V1  1  0.25201200  0.24763800  0.76322800  1
  V  V2  1  0.50604400  0.99637800  0.50317200  1
  V  V3  1  0.75196700  0.74764100  0.26312300  1
  O  O0  1  0.73967800  0.76283500  0.47745900  1
  O  O1  1  0.23980600  0.26294100  0.97734400  1
  F  F0  1  0.02023800  0.00780200  0.74032300  1
  F  F1  1  0.52028900  0.50763100  0.24039200  1
  F  F2  1  0.24332600  0.76819800  0.51270800  1
  F  F3  1  0.74328300  0.26829100  0.01255900  1
  F  F4  1  0.25203900  0.24184800  0.51700000  1
  F  F5  1  0.75189100  0.74199100  0.01680000  1
  F  F6  1  0.49078100  0.00320400  0.75199300  1
  F  F7  1  0.99060700  0.50319000  0.25210500  1
  F  F8  1  0.51286800  0.99527000  0.25340600  1
  F  F9  1  0.01304300  0.49521900  0.75348600  1
  F  F10  1  0.97925600  0.99062600  0.24743400  1
  F  F11  1  0.47916100  0.49055400  0.74719900  1
  F  F12  1  0.75500200  0.23800800  0.48641600  1
  F  F13  1  0.25513000  0.73798000  0.98614000  1
loop_
_geom_bond_atom_site_label_1
_geom_bond_atom_site_label_2
_geom_bond_distance
_geom_bond_site_symmetry_2
Li2 O0 2.034555 1_555
Li3 O1 2.033284 1_554
Li4 O1 1.926648 1_554
Li5 O0 1.925215 1_555
O0 V3 1.849591 1_555
O0 V2 2.032030 1_555
O1 V1 1.847717 1_555
O1 V0 2.032856 1_556
F0 V1 2.016113 1_555
F0 Li6 2.028858 1_455
F0 Li2 2.050761 1_445
F0 Li1 2.120987 1_545
F1 V3 2.016334 1_555
F1 Li7 2.029213 1_555
F1 Li3 2.050559 1_555
F1 Li0 2.119683 1_555
F2 Li7 1.934210 1_555
F2 Li1 2.035840 1_555
F2 Li2 2.039224 1_455
F2 V2 2.094862 1_555
F3 Li6 1.934216 1_554
F3 Li0 2.037512 1_555
F3 Li3 2.038752 1_555
F3 V0 2.094667 1_655
F4 Li7 1.970229 1_555
F4 V1 2.117446 1_555
F4 V2 2.159567 1_545
F4 Li2 2.199101 1_445
F5 Li6 1.969765 1_564
F5 V3 2.118218 1_555
F5 V0 2.160120 1_655
F5 Li3 2.199406 1_555
F6 Li6 1.962243 1_555
F6 V1 2.088030 1_555
F6 Li1 2.119849 1_545
F6 V2 2.144087 1_545
F7 Li7 1.963652 1_655
F7 V3 2.087421 1_555
F7 Li0 2.118806 1_555
F7 V0 2.144232 1_655
F8 Li4 1.990642 1_565
F8 Li0 2.078300 1_565
F8 V3 2.097747 1_555
F8 V2 2.148416 1_555
F9 Li5 1.992241 1_455
F9 Li1 2.077555 1_555
F9 V1 2.096992 1_555
F9 V0 2.148651 1_556
F10 V3 2.007424 1_555
F10 Li4 2.035759 1_665
F10 Li0 2.095881 1_565
F10 Li2 2.194833 1_555
F11 V1 2.006756 1_555
F11 Li5 2.035092 1_555
F11 Li1 2.095577 1_555
F11 Li3 2.197637 1_556
F12 Li5 1.951137 1_555
F12 Li0 2.036396 1_555
F12 V2 2.092853 1_545
F12 Li2 2.096049 1_545
F13 Li4 1.952655 1_566
F13 Li1 2.034404 1_555
F13 V0 2.093420 1_556
F13 Li3 2.095443 1_556
