# generated using pymatgen
data_Li2VO2F
_symmetry_space_group_name_H-M   'P 1'
_cell_length_a   5.17036658
_cell_length_b   5.17036658
_cell_length_c   9.87521558
_cell_angle_alpha   85.06174331
_cell_angle_beta   85.06174331
_cell_angle_gamma   120.09932987
_symmetry_Int_Tables_number   1
_chemical_formula_structural   Li2VO2F
_chemical_formula_sum   'Li8 V4 O8 F4'
_cell_volume   224.97314311
_cell_formula_units_Z   4
loop_
 _symmetry_equiv_pos_site_id
 _symmetry_equiv_pos_as_xyz
  1  'x, y, z'
loop_
 _atom_site_type_symbol
 _atom_site_label
 _atom_site_symmetry_multiplicity
 _atom_site_fract_x
 _atom_site_fract_y
 _atom_site_fract_z
 _atom_site_occupancy
  Li  Li0  1  0.83721600  0.65419900  0.74769700  1
  Li  Li1  1  0.98627000  0.48348900  0.24994000  1
  Li  Li2  1  0.90733900  0.09266100  0.50000000  1
  Li  Li3  1  0.34580100  0.16278400  0.25230300  1
  Li  Li4  1  0.51651100  0.01373000  0.75006000  1
  Li  Li5  1  0.66420800  0.86024400  0.25628500  1
  Li  Li6  1  0.25369100  0.74630900  0.50000000  1
  Li  Li7  1  0.13975600  0.33579200  0.74371500  1
  V  V0  1  0.74867000  0.25133000  0.00000000  1
  V  V1  1  0.60459700  0.39540300  0.50000000  1
  V  V2  1  0.41567300  0.58432700  0.00000000  1
  V  V3  1  0.08176400  0.91823600  0.00000000  1
  O  O0  1  0.71160300  0.54753700  0.11477700  1
  O  O1  1  0.86550000  0.37778900  0.61957800  1
  O  O2  1  0.78667100  0.95612700  0.88342400  1
  O  O3  1  0.45246300  0.28839700  0.88522300  1
  O  O4  1  0.62221100  0.13450000  0.38042200  1
  O  O5  1  0.37648700  0.87841300  0.11651700  1
  O  O6  1  0.12158700  0.62351300  0.88348300  1
  O  O7  1  0.04387300  0.21332900  0.11657600  1
  F  F0  1  0.95660100  0.78779800  0.37707000  1
  F  F1  1  0.54076700  0.69135000  0.61808300  1
  F  F2  1  0.21220200  0.04339900  0.62293000  1
  F  F3  1  0.30865000  0.45923300  0.38191700  1
loop_
_geom_bond_atom_site_label_1
_geom_bond_atom_site_label_2
_geom_bond_distance
_geom_bond_site_symmetry_2
Li0 O1 2.038047 1_555
Li0 O6 2.126451 1_655
Li0 O3 2.167449 1_555
Li0 O2 2.238498 1_555
Li1 O4 2.057863 1_555
Li1 O7 2.107311 1_655
Li1 O0 2.151734 1_555
Li1 O5 2.218798 1_655
Li2 O1 2.046981 1_555
Li2 O4 2.046981 1_555
Li3 O4 2.038047 1_555
Li3 O5 2.126451 1_545
Li3 O0 2.167449 1_555
Li3 O7 2.238498 1_555
Li4 O1 2.057863 1_555
Li4 O2 2.107311 1_545
Li4 O3 2.151734 1_555
Li4 O6 2.218798 1_545
Li5 O4 2.030503 1_565
Li5 O7 2.143668 1_665
Li5 O5 2.144354 1_555
Li5 O0 2.313942 1_555
Li6 O1 2.102892 1_455
Li6 O4 2.102892 1_565
Li7 O1 2.030503 1_455
Li7 O2 2.143668 1_445
Li7 O6 2.144354 1_555
Li7 O3 2.313942 1_555
O0 V3 2.048031 1_655
O0 V2 2.053136 1_555
O0 V0 2.054938 1_555
O1 V1 1.897729 1_555
O2 V2 2.059244 1_556
O2 V3 2.062747 1_656
O2 V0 2.063460 1_566
O3 V3 2.048031 1_546
O3 V2 2.053136 1_556
O3 V0 2.054938 1_556
O4 V1 1.897729 1_555
O5 V2 2.060847 1_555
O5 V0 2.063974 1_565
O5 V3 2.064986 1_555
O6 V2 2.060847 1_556
O6 V0 2.063974 1_456
O6 V3 2.064986 1_556
O7 V2 2.059244 1_555
O7 V3 2.062747 1_545
O7 V0 2.063460 1_455
F0 V1 2.096251 1_555
F0 Li6 2.117996 1_655
F0 Li3 2.138955 1_665
F0 Li1 2.150396 1_555
F0 Li5 2.156386 1_555
F0 Li2 2.168417 1_565
F1 Li6 2.075479 1_555
F1 Li2 2.125041 1_565
F1 V1 2.134832 1_555
F1 Li7 2.135200 1_555
F1 Li0 2.148318 1_555
F1 Li4 2.246810 1_565
F2 V1 2.096251 1_555
F2 Li6 2.117996 1_545
F2 Li0 2.138955 1_445
F2 Li4 2.150396 1_555
F2 Li7 2.156386 1_555
F2 Li2 2.168417 1_455
F3 Li6 2.075479 1_555
F3 Li2 2.125041 1_455
F3 V1 2.134832 1_555
F3 Li5 2.135200 1_555
F3 Li3 2.148318 1_555
F3 Li1 2.246810 1_455
