# generated using pymatgen
data_Li4TiCrO6
_symmetry_space_group_name_H-M   'P 1'
_cell_length_a   5.06539600
_cell_length_b   8.76788219
_cell_length_c   9.80324163
_cell_angle_alpha   98.37742636
_cell_angle_beta   94.92118992
_cell_angle_gamma   90.05600922
_symmetry_Int_Tables_number   1
_chemical_formula_structural   Li4TiCrO6
_chemical_formula_sum   'Li16 Ti4 Cr4 O24'
_cell_volume   429.11569088
_cell_formula_units_Z   4
loop_
 _symmetry_equiv_pos_site_id
 _symmetry_equiv_pos_as_xyz
  1  'x, y, z'
loop_
 _atom_site_type_symbol
 _atom_site_label
 _atom_site_symmetry_multiplicity
 _atom_site_fract_x
 _atom_site_fract_y
 _atom_site_fract_z
 _atom_site_occupancy
  Li  Li0  1  0.98765400  0.16531200  0.50006800  1
  Li  Li1  1  0.87501500  0.37541400  0.74986900  1
  Li  Li2  1  0.75077100  0.25146200  0.99860200  1
  Li  Li3  1  0.74198100  0.92018500  0.99902700  1
  Li  Li4  1  0.76065900  0.57686000  0.99833400  1
  Li  Li5  1  0.62503400  0.12277600  0.24964300  1
  Li  Li6  1  0.51053400  0.33247500  0.49992000  1
  Li  Li7  1  0.50017400  0.00234800  0.49845100  1
  Li  Li8  1  0.49150000  0.66447800  0.49804000  1
  Li  Li9  1  0.37530800  0.87452600  0.74960000  1
  Li  Li10  1  0.24593000  0.75116700  0.00097900  1
  Li  Li11  1  0.24294300  0.42228700  0.00110000  1
  Li  Li12  1  0.25703600  0.07760000  0.00060600  1
  Li  Li13  1  0.12458200  0.62265000  0.25025800  1
  Li  Li14  1  0.01110800  0.83366600  0.50206800  1
  Li  Li15  1  0.99502400  0.50245600  0.50147300  1
  Ti  Ti0  1  0.62605100  0.79326600  0.25025700  1
  Ti  Ti1  1  0.37975000  0.54266800  0.75373600  1
  Ti  Ti2  1  0.36888700  0.20806500  0.74630700  1
  Ti  Ti3  1  0.12573900  0.29345300  0.25106800  1
  Cr  Cr0  1  0.88136200  0.71117900  0.75111400  1
  Cr  Cr1  1  0.86767000  0.03914700  0.74914800  1
  Cr  Cr2  1  0.62426500  0.45680400  0.24901600  1
  Cr  Cr3  1  0.12443000  0.95690000  0.24977200  1
  O  O0  1  0.96521600  0.10379500  0.13861200  1
  O  O1  1  0.93557800  0.78817100  0.13800000  1
  O  O2  1  0.93191800  0.42677200  0.13331000  1
  O  O3  1  0.81808500  0.96513100  0.36433000  1
  O  O4  1  0.81625500  0.32580900  0.36430400  1
  O  O5  1  0.78570900  0.64064200  0.36139000  1
  O  O6  1  0.71211100  0.86272800  0.63862600  1
  O  O7  1  0.68090100  0.53863000  0.63851800  1
  O  O8  1  0.67378700  0.17873900  0.63376200  1
  O  O9  1  0.46457300  0.60402100  0.13820500  1
  O  O10  1  0.57614900  0.71755900  0.86233000  1
  O  O11  1  0.58094700  0.07077800  0.86473200  1
  O  O12  1  0.43093100  0.92676000  0.13309200  1
  O  O13  1  0.43530900  0.28778100  0.13782900  1
  O  O14  1  0.53543000  0.39374000  0.86428500  1
  O  O15  1  0.31729800  0.82581200  0.36470700  1
  O  O16  1  0.31853100  0.46555600  0.36438800  1
  O  O17  1  0.28598900  0.14065600  0.36181100  1
  O  O18  1  0.21394900  0.35691700  0.63543800  1
  O  O19  1  0.16962500  0.68004200  0.63538300  1
  O  O20  1  0.17417000  0.03250300  0.63831600  1
  O  O21  1  0.07613400  0.57186300  0.86647800  1
  O  O22  1  0.07028600  0.21134700  0.86220500  1
  O  O23  1  0.03771000  0.88709900  0.86150000  1
loop_
_geom_bond_atom_site_label_1
_geom_bond_atom_site_label_2
_geom_bond_distance
_geom_bond_site_symmetry_2
Li0 O20 2.080302 1_655
Li0 O17 2.105732 1_655
Li0 O8 2.138268 1_555
Li0 O3 2.170130 1_545
Li0 O4 2.203471 1_555
Li0 O18 2.232255 1_655
Li1 O7 2.116629 1_555
Li1 O18 2.123726 1_655
Li1 O14 2.126457 1_555
Li1 O8 2.129259 1_555
Li1 O21 2.129426 1_655
Li1 O22 2.130253 1_655
Li2 O2 2.036275 1_556
Li2 O11 2.042022 1_555
Li2 O14 2.171335 1_555
Li2 O13 2.183173 1_556
Li2 O22 2.183220 1_655
Li2 O0 2.237168 1_556
Li3 O23 2.092648 1_655
Li3 O1 2.095239 1_556
Li3 O11 2.113385 1_565
Li3 O12 2.132253 1_556
Li3 O10 2.183561 1_555
Li3 O0 2.198152 1_566
Li4 O10 2.107301 1_555
Li4 O9 2.108230 1_556
Li4 O2 2.132562 1_556
Li4 O21 2.136453 1_655
Li4 O14 2.175030 1_555
Li4 O1 2.267569 1_556
Li5 O3 2.097059 1_545
Li5 O0 2.109809 1_555
Li5 O17 2.111273 1_555
Li5 O12 2.111324 1_545
Li5 O13 2.121850 1_555
Li5 O4 2.144169 1_555
Li6 O16 2.074845 1_555
Li6 O18 2.080372 1_555
Li6 O4 2.121285 1_555
Li6 O8 2.133943 1_555
Li6 O7 2.222203 1_555
Li6 O17 2.241413 1_555
Li7 O8 2.030826 1_555
Li7 O15 2.042169 1_545
Li7 O3 2.160492 1_545
Li7 O17 2.160671 1_555
Li7 O6 2.186110 1_545
Li7 O20 2.227222 1_555
Li8 O7 2.062195 1_555
Li8 O5 2.078640 1_555
Li8 O16 2.158816 1_555
Li8 O19 2.193912 1_555
Li8 O15 2.198049 1_555
Li8 O6 2.281131 1_555
Li9 O6 2.095424 1_555
Li9 O20 2.097412 1_565
Li9 O10 2.098430 1_555
Li9 O23 2.104005 1_555
Li9 O19 2.118250 1_555
Li9 O11 2.132756 1_565
Li10 O12 2.033169 1_555
Li10 O21 2.036817 1_554
Li10 O1 2.148779 1_455
Li10 O23 2.152306 1_554
Li10 O9 2.225696 1_555
Li10 O10 2.237522 1_554
Li11 O14 2.073743 1_554
Li11 O13 2.091820 1_555
Li11 O21 2.119139 1_554
Li11 O2 2.121104 1_455
Li11 O9 2.172422 1_555
Li11 O22 2.257932 1_554
Li12 O0 2.078790 1_455
Li12 O22 2.087210 1_554
Li12 O12 2.125652 1_545
Li12 O11 2.195854 1_554
Li12 O23 2.226322 1_544
Li12 O13 2.255466 1_555
Li13 O16 2.092191 1_555
Li13 O5 2.104651 1_455
Li13 O2 2.108890 1_455
Li13 O9 2.114740 1_555
Li13 O1 2.126304 1_455
Li13 O15 2.147351 1_555
Li14 O3 2.082567 1_455
Li14 O6 2.097647 1_455
Li14 O19 2.121810 1_555
Li14 O15 2.134260 1_555
Li14 O20 2.152907 1_565
Li14 O5 2.261793 1_455
Li15 O19 2.032842 1_655
Li15 O4 2.051470 1_555
Li15 O7 2.163543 1_555
Li15 O5 2.171524 1_555
Li15 O18 2.196373 1_655
Li15 O16 2.201855 1_655
Cr0 O23 1.881909 1_655
Cr0 O19 1.920560 1_655
Cr0 O10 1.963065 1_555
Cr0 O7 1.963769 1_555
Cr0 O21 1.989456 1_655
Cr0 O6 1.995910 1_555
Cr1 O6 1.884213 1_545
Cr1 O11 1.913573 1_555
Cr1 O20 1.966074 1_655
Cr1 O22 1.968636 1_655
Cr1 O8 1.989267 1_555
Cr1 O23 1.999895 1_645
Cr2 O13 1.909970 1_555
Cr2 O4 1.932388 1_555
Cr2 O9 1.939165 1_555
Cr2 O5 1.950877 1_555
Cr2 O16 1.989702 1_555
Cr2 O2 2.000393 1_555
Cr3 O1 1.910337 1_455
Cr3 O15 1.932795 1_555
Cr3 O0 1.938291 1_465
Cr3 O17 1.949219 1_565
Cr3 O3 1.987455 1_455
Cr3 O12 2.001507 1_555
O0 Ti3 1.987744 1_655
O1 Ti0 1.988250 1_555
O2 Ti3 1.965689 1_655
O3 Ti0 1.946012 1_555
O4 Ti3 1.994490 1_655
O5 Ti0 1.976737 1_555
O7 Ti1 1.971830 1_555
O8 Ti2 1.969558 1_555
O9 Ti0 1.985189 1_555
O10 Ti1 1.952959 1_555
O11 Ti2 2.036257 1_555
O12 Ti0 1.966045 1_555
O13 Ti3 1.994108 1_555
O14 Ti1 1.941431 1_555
O14 Ti2 1.995219 1_555
O15 Ti0 1.998717 1_555
O16 Ti3 1.946108 1_555
O17 Ti3 1.976630 1_555
O18 Ti2 1.941535 1_555
O18 Ti1 1.995645 1_555
O19 Ti1 2.031661 1_555
O20 Ti2 1.950921 1_555
O21 Ti1 1.965269 1_555
O22 Ti2 1.965930 1_555
