# generated using pymatgen
data_Li10Fe3Co7O20
_symmetry_space_group_name_H-M   'P 1'
_cell_length_a   2.87950200
_cell_length_b   5.81899400
_cell_length_c   20.59599514
_cell_angle_alpha   83.07126762
_cell_angle_beta   90.00000000
_cell_angle_gamma   90.00000000
_symmetry_Int_Tables_number   1
_chemical_formula_structural   Li10Fe3Co7O20
_chemical_formula_sum   'Li10 Fe3 Co7 O20'
_cell_volume   342.58218226
_cell_formula_units_Z   1
loop_
 _symmetry_equiv_pos_site_id
 _symmetry_equiv_pos_as_xyz
  1  'x, y, z'
loop_
 _atom_site_type_symbol
 _atom_site_label
 _atom_site_symmetry_multiplicity
 _atom_site_fract_x
 _atom_site_fract_y
 _atom_site_fract_z
 _atom_site_occupancy
  Li  Li0  1  0.00000000  0.30156800  0.90146200  1
  Li  Li1  1  0.50000000  0.50000000  0.00000000  1
  Li  Li2  1  0.00000000  0.69843200  0.09853800  1
  Li  Li3  1  0.50000000  0.90169500  0.19567200  1
  Li  Li4  1  0.00000000  0.09804700  0.29872700  1
  Li  Li5  1  0.50000000  0.29957700  0.39906300  1
  Li  Li6  1  0.00000000  0.50000000  0.50000000  1
  Li  Li7  1  0.50000000  0.70042300  0.60093700  1
  Li  Li8  1  0.00000000  0.90195300  0.70127300  1
  Li  Li9  1  0.50000000  0.09830500  0.80432800  1
  Fe  Fe0  1  0.00000000  0.00000000  0.50000000  1
  Fe  Fe1  1  0.00000000  0.59812300  0.29727400  1
  Fe  Fe2  1  0.00000000  0.40187700  0.70272600  1
  Co  Co0  1  0.50000000  0.00000000  0.00000000  1
  Co  Co1  1  0.00000000  0.19788100  0.09818800  1
  Co  Co2  1  0.50000000  0.39551000  0.19664500  1
  Co  Co3  1  0.50000000  0.79939600  0.39877600  1
  Co  Co4  1  0.50000000  0.20060400  0.60122400  1
  Co  Co5  1  0.50000000  0.60449000  0.80335500  1
  Co  Co6  1  0.00000000  0.80211900  0.90181200  1
  O  O0  1  0.50000000  0.02584100  0.90561200  1
  O  O1  1  0.00000000  0.77635900  0.99623600  1
  O  O2  1  0.00000000  0.22364100  0.00376400  1
  O  O3  1  0.50000000  0.41998600  0.10252100  1
  O  O4  1  0.50000000  0.97415900  0.09438800  1
  O  O5  1  0.00000000  0.62389400  0.19798100  1
  O  O6  1  0.00000000  0.17313700  0.19270100  1
  O  O7  1  0.50000000  0.35741800  0.29311300  1
  O  O8  1  0.50000000  0.83897600  0.30258600  1
  O  O9  1  0.00000000  0.57283800  0.39705000  1
  O  O10  1  0.00000000  0.02635500  0.40064800  1
  O  O11  1  0.50000000  0.75961600  0.49498600  1
  O  O12  1  0.50000000  0.24038400  0.50501400  1
  O  O13  1  0.00000000  0.42716200  0.60295000  1
  O  O14  1  0.00000000  0.97364500  0.59935200  1
  O  O15  1  0.50000000  0.16102400  0.69741400  1
  O  O16  1  0.50000000  0.64258200  0.70688700  1
  O  O17  1  0.00000000  0.37610600  0.80201900  1
  O  O18  1  0.00000000  0.82686300  0.80729900  1
  O  O19  1  0.50000000  0.58001400  0.89747900  1
loop_
_geom_bond_atom_site_label_1
_geom_bond_atom_site_label_2
_geom_bond_distance
_geom_bond_site_symmetry_2
Li0 O17 2.041721 1_555
Li0 O2 2.101096 1_556
Li0 O0 2.149738 1_455
Li0 O0 2.149738 1_555
Li0 O19 2.161674 1_455
Li0 O19 2.161674 1_555
Li1 O3 2.106683 1_555
Li1 O19 2.106683 1_554
Li1 O1 2.152882 1_554
Li1 O1 2.152882 1_654
Li1 O2 2.152882 1_555
Li1 O2 2.152882 1_655
Li2 O5 2.041721 1_555
Li2 O1 2.101096 1_554
Li2 O4 2.149738 1_455
Li2 O4 2.149738 1_555
Li2 O3 2.161674 1_455
Li2 O3 2.161674 1_555
Li3 O4 2.077778 1_555
Li3 O6 2.132648 1_565
Li3 O6 2.132648 1_665
Li3 O5 2.160958 1_655
Li3 O5 2.160958 1_555
Li3 O8 2.188174 1_555
Li4 O7 2.078959 1_455
Li4 O7 2.078959 1_555
Li4 O8 2.079170 1_545
Li4 O8 2.079170 1_445
Li4 O10 2.090273 1_555
Li4 O6 2.174697 1_555
Li5 O9 2.141758 1_555
Li5 O9 2.141758 1_655
Li5 O10 2.142227 1_555
Li5 O10 2.142227 1_655
Li5 O7 2.167450 1_555
Li5 O12 2.167751 1_555
Li6 O11 2.080417 1_455
Li6 O11 2.080417 1_555
Li6 O12 2.080417 1_455
Li6 O12 2.080417 1_555
Li6 O9 2.111571 1_555
Li6 O13 2.111571 1_555
Li7 O13 2.141758 1_555
Li7 O13 2.141758 1_655
Li7 O14 2.142227 1_655
Li7 O14 2.142227 1_555
Li7 O16 2.167450 1_555
Li7 O11 2.167751 1_555
Li8 O16 2.078959 1_455
Li8 O16 2.078959 1_555
Li8 O15 2.079170 1_465
Li8 O15 2.079170 1_565
Li8 O14 2.090273 1_555
Li8 O18 2.174697 1_555
Li9 O0 2.077778 1_555
Li9 O18 2.132648 1_645
Li9 O18 2.132648 1_545
Li9 O17 2.160958 1_655
Li9 O17 2.160958 1_555
Li9 O15 2.188174 1_555
Fe0 O12 2.018668 1_455
Fe0 O12 2.018668 1_555
Fe0 O11 2.018668 1_445
Fe0 O11 2.018668 1_545
Fe0 O10 2.033460 1_555
Fe0 O14 2.033460 1_545
Fe1 O7 2.017682 1_555
Fe1 O7 2.017682 1_455
Fe1 O8 2.021413 1_455
Fe1 O8 2.021413 1_555
Fe1 O5 2.032407 1_555
Fe1 O9 2.042466 1_555
Fe2 O16 2.017682 1_455
Fe2 O16 2.017682 1_555
Fe2 O15 2.021413 1_455
Fe2 O15 2.021413 1_555
Fe2 O17 2.032407 1_555
Fe2 O13 2.042466 1_555
Co0 O4 1.931651 1_545
Co0 O0 1.931651 1_554
Co0 O2 1.948534 1_555
Co0 O2 1.948534 1_655
Co0 O1 1.948534 1_544
Co0 O1 1.948534 1_644
Co1 O2 1.932411 1_555
Co1 O6 1.934507 1_555
Co1 O3 1.943976 1_555
Co1 O3 1.943976 1_455
Co1 O4 1.948941 1_445
Co1 O4 1.948941 1_545
Co2 O3 1.926591 1_555
Co2 O6 1.944028 1_555
Co2 O6 1.944028 1_655
Co2 O5 1.961788 1_555
Co2 O5 1.961788 1_655
Co2 O7 1.972427 1_555
Co3 O9 1.955370 1_555
Co3 O9 1.955370 1_655
Co3 O10 1.957251 1_565
Co3 O10 1.957251 1_665
Co3 O8 1.966680 1_555
Co3 O11 1.967084 1_555
Co4 O13 1.955370 1_655
Co4 O13 1.955370 1_555
Co4 O14 1.957251 1_545
Co4 O14 1.957251 1_645
Co4 O15 1.966680 1_555
Co4 O12 1.967084 1_555
Co5 O19 1.926591 1_555
Co5 O18 1.944028 1_655
Co5 O18 1.944028 1_555
Co5 O17 1.961788 1_555
Co5 O17 1.961788 1_655
Co5 O16 1.972427 1_555
Co6 O1 1.932411 1_555
Co6 O18 1.934507 1_555
Co6 O19 1.943976 1_555
Co6 O19 1.943976 1_455
Co6 O0 1.948941 1_565
Co6 O0 1.948941 1_465
