# generated using pymatgen
data_Y4Ga2O9
_symmetry_space_group_name_H-M   'P 1'
_cell_length_a   10.67172300
_cell_length_b   7.42484900
_cell_length_c   11.41629580
_cell_angle_alpha   72.28286901
_cell_angle_beta   90.00000000
_cell_angle_gamma   90.00000000
_symmetry_Int_Tables_number   1
_chemical_formula_structural   Y4Ga2O9
_chemical_formula_sum   'Y16 Ga8 O36'
_cell_volume   861.67705100
_cell_formula_units_Z   4
loop_
 _symmetry_equiv_pos_site_id
 _symmetry_equiv_pos_as_xyz
  1  'x, y, z'
loop_
 _atom_site_type_symbol
 _atom_site_label
 _atom_site_symmetry_multiplicity
 _atom_site_fract_x
 _atom_site_fract_y
 _atom_site_fract_z
 _atom_site_occupancy
  Y  Y0  1  0.62864500  0.90643000  0.94141300  1
  Y  Y1  1  0.87135500  0.90643000  0.44141300  1
  Y  Y2  1  0.40098400  0.77370700  0.69986200  1
  Y  Y3  1  0.88446700  0.73740800  0.78018700  1
  Y  Y4  1  0.09901600  0.77370700  0.19986200  1
  Y  Y5  1  0.11550800  0.58269300  0.59203000  1
  Y  Y6  1  0.61553300  0.73740800  0.28018700  1
  Y  Y7  1  0.61550800  0.41730700  0.90797000  1
  Y  Y8  1  0.38449200  0.58269300  0.09203000  1
  Y  Y9  1  0.38446700  0.26259200  0.71981300  1
  Y  Y10  1  0.88449200  0.41730700  0.40797000  1
  Y  Y11  1  0.90098400  0.22629300  0.80013800  1
  Y  Y12  1  0.11553300  0.26259200  0.21981300  1
  Y  Y13  1  0.59901600  0.22629300  0.30013800  1
  Y  Y14  1  0.12864500  0.09357000  0.55858700  1
  Y  Y15  1  0.37135500  0.09357000  0.05858700  1
  Ga  Ga0  1  0.17098100  0.94587800  0.87769000  1
  Ga  Ga1  1  0.32901900  0.94587800  0.37769000  1
  Ga  Ga2  1  0.67610400  0.58608700  0.60868700  1
  Ga  Ga3  1  0.17610400  0.41391300  0.89131300  1
  Ga  Ga4  1  0.82389600  0.58608700  0.10868700  1
  Ga  Ga5  1  0.32389600  0.41391300  0.39131300  1
  Ga  Ga6  1  0.67098100  0.05412200  0.62231000  1
  Ga  Ga7  1  0.82901900  0.05412200  0.12231000  1
  O  O0  1  0.00132700  0.93701300  0.85672000  1
  O  O1  1  0.25516200  0.97978500  0.72870100  1
  O  O2  1  0.00303000  0.83397800  0.60829300  1
  O  O3  1  0.73857300  0.82233700  0.61341700  1
  O  O4  1  0.49400300  0.68751400  0.89472600  1
  O  O5  1  0.49867300  0.93701300  0.35672000  1
  O  O6  1  0.24483800  0.97978500  0.22870100  1
  O  O7  1  0.76121500  0.62064000  0.95306800  1
  O  O8  1  0.26599900  0.80961100  0.52762300  1
  O  O9  1  0.26717100  0.53547300  0.75150700  1
  O  O10  1  0.49697000  0.83397800  0.10829300  1
  O  O11  1  0.76142700  0.82233700  0.11341700  1
  O  O12  1  0.01848100  0.47529200  0.82459900  1
  O  O13  1  0.00599700  0.68751400  0.39472600  1
  O  O14  1  0.51848100  0.52470800  0.67540100  1
  O  O15  1  0.73878500  0.62064000  0.45306800  1
  O  O16  1  0.76717100  0.46452700  0.74849300  1
  O  O17  1  0.23400100  0.80961100  0.02762300  1
  O  O18  1  0.76599900  0.19038900  0.97237700  1
  O  O19  1  0.23282900  0.53547300  0.25150700  1
  O  O20  1  0.26121500  0.37936000  0.54693200  1
  O  O21  1  0.48151900  0.47529200  0.32459900  1
  O  O22  1  0.99400300  0.31248600  0.60527400  1
  O  O23  1  0.98151900  0.52470800  0.17540100  1
  O  O24  1  0.23857300  0.17766300  0.88658300  1
  O  O25  1  0.50303000  0.16602200  0.89170700  1
  O  O26  1  0.73282900  0.46452700  0.24849300  1
  O  O27  1  0.73400100  0.19038900  0.47237700  1
  O  O28  1  0.23878500  0.37936000  0.04693200  1
  O  O29  1  0.75516200  0.02021500  0.77129900  1
  O  O30  1  0.50132700  0.06298700  0.64328000  1
  O  O31  1  0.50599700  0.31248600  0.10527400  1
  O  O32  1  0.26142700  0.17766300  0.38658300  1
  O  O33  1  0.99697000  0.16602200  0.39170700  1
  O  O34  1  0.74483800  0.02021500  0.27129900  1
  O  O35  1  0.99867300  0.06298700  0.14328000  1
loop_
_geom_bond_atom_site_label_1
_geom_bond_atom_site_label_2
_geom_bond_distance
_geom_bond_site_symmetry_2
Ga0 O0 1.830068 1_555
Ga0 O17 1.830783 1_556
Ga0 O1 1.871596 1_555
Ga0 O24 1.897021 1_565
Ga1 O5 1.830068 1_555
Ga1 O8 1.830783 1_555
Ga1 O6 1.871596 1_555
Ga1 O32 1.897021 1_565
Ga2 O15 1.841776 1_555
Ga2 O14 1.845535 1_555
Ga2 O16 1.851960 1_555
Ga2 O3 1.892599 1_555
Ga3 O28 1.841776 1_556
Ga3 O12 1.845535 1_555
Ga3 O9 1.851960 1_555
Ga3 O24 1.892599 1_555
Ga4 O7 1.841776 1_554
Ga4 O23 1.845535 1_555
Ga4 O26 1.851960 1_555
Ga4 O11 1.892599 1_555
Ga5 O20 1.841776 1_555
Ga5 O21 1.845535 1_555
Ga5 O19 1.851960 1_555
Ga5 O32 1.892599 1_555
Ga6 O30 1.830068 1_555
Ga6 O27 1.830783 1_555
Ga6 O29 1.871596 1_555
Ga6 O3 1.897021 1_545
Ga7 O35 1.830068 1_555
Ga7 O18 1.830783 1_554
Ga7 O34 1.871596 1_555
Ga7 O11 1.897021 1_545
O0 Y3 2.302867 1_455
O0 Y11 2.309288 1_465
O1 Y2 2.275494 1_555
O1 Y14 2.304278 1_565
O1 Y9 2.488759 1_565
O2 Y3 2.260446 1_455
O2 Y5 2.273134 1_555
O2 Y14 2.273396 1_565
O2 Y1 2.295605 1_455
O3 Y1 2.346799 1_555
O3 Y3 2.390776 1_555
O4 Y2 2.340386 1_555
O4 Y0 2.349026 1_555
O4 Y7 2.354699 1_555
O4 Y8 2.445037 1_556
O5 Y6 2.302867 1_555
O5 Y13 2.309288 1_565
O6 Y4 2.275494 1_555
O6 Y15 2.304278 1_565
O6 Y12 2.488759 1_565
O7 Y3 2.309889 1_555
O7 Y7 2.331363 1_555
O7 Y0 2.519929 1_555
O8 Y5 2.281346 1_555
O8 Y2 2.386125 1_555
O8 Y14 2.678115 1_565
O9 Y2 2.209284 1_555
O9 Y5 2.380902 1_555
O9 Y9 2.499814 1_555
O10 Y6 2.260446 1_555
O10 Y8 2.273134 1_555
O10 Y15 2.273396 1_565
O10 Y0 2.295605 1_554
O11 Y0 2.346799 1_554
O11 Y6 2.390776 1_555
O12 Y11 2.320011 1_455
O12 Y3 2.342956 1_455
O12 Y5 2.732919 1_555
O13 Y4 2.340386 1_555
O13 Y1 2.349026 1_455
O13 Y10 2.354699 1_455
O13 Y5 2.445037 1_555
O14 Y2 2.320011 1_555
O14 Y9 2.342956 1_555
O14 Y7 2.732919 1_555
O15 Y6 2.309889 1_555
O15 Y10 2.331363 1_555
O15 Y1 2.519929 1_555
O16 Y11 2.209284 1_555
O16 Y7 2.380902 1_555
O16 Y3 2.499814 1_555
O17 Y8 2.281346 1_555
O17 Y4 2.386125 1_555
O17 Y15 2.678115 1_565
O18 Y7 2.281346 1_555
O18 Y11 2.386125 1_555
O18 Y0 2.678115 1_545
O19 Y4 2.209284 1_555
O19 Y8 2.380902 1_555
O19 Y12 2.499814 1_555
O20 Y9 2.309889 1_555
O20 Y5 2.331363 1_555
O20 Y14 2.519929 1_555
O21 Y13 2.320011 1_555
O21 Y6 2.342956 1_555
O21 Y8 2.732919 1_555
O22 Y11 2.340386 1_555
O22 Y14 2.349026 1_655
O22 Y5 2.354699 1_655
O22 Y10 2.445037 1_555
O23 Y4 2.320011 1_655
O23 Y12 2.342956 1_655
O23 Y10 2.732919 1_555
O24 Y15 2.346799 1_556
O24 Y9 2.390776 1_555
O25 Y9 2.260446 1_555
O25 Y7 2.273134 1_555
O25 Y0 2.273396 1_545
O25 Y15 2.295605 1_556
O26 Y13 2.209284 1_555
O26 Y10 2.380902 1_555
O26 Y6 2.499814 1_555
O27 Y10 2.281346 1_555
O27 Y13 2.386125 1_555
O27 Y1 2.678115 1_545
O28 Y12 2.309889 1_555
O28 Y8 2.331363 1_555
O28 Y15 2.519929 1_555
O29 Y11 2.275494 1_555
O29 Y0 2.304278 1_545
O29 Y3 2.488759 1_545
O30 Y9 2.302867 1_555
O30 Y2 2.309288 1_545
O31 Y13 2.340386 1_555
O31 Y15 2.349026 1_555
O31 Y8 2.354699 1_555
O31 Y7 2.445037 1_554
O32 Y14 2.346799 1_555
O32 Y12 2.390776 1_555
O33 Y12 2.260446 1_655
O33 Y10 2.273134 1_555
O33 Y1 2.273396 1_545
O33 Y14 2.295605 1_655
O34 Y13 2.275494 1_555
O34 Y1 2.304278 1_545
O34 Y6 2.488759 1_545
O35 Y12 2.302867 1_655
O35 Y4 2.309288 1_645
