# generated using pymatgen
data_MnOF
_symmetry_space_group_name_H-M   'P 1'
_cell_length_a   5.10936796
_cell_length_b   4.74571400
_cell_length_c   5.84978169
_cell_angle_alpha   90.00078862
_cell_angle_beta   93.12557489
_cell_angle_gamma   89.99865661
_symmetry_Int_Tables_number   1
_chemical_formula_structural   MnOF
_chemical_formula_sum   'Mn4 O4 F4'
_cell_volume   141.63215961
_cell_formula_units_Z   4
loop_
 _symmetry_equiv_pos_site_id
 _symmetry_equiv_pos_as_xyz
  1  'x, y, z'
loop_
 _atom_site_type_symbol
 _atom_site_label
 _atom_site_symmetry_multiplicity
 _atom_site_fract_x
 _atom_site_fract_y
 _atom_site_fract_z
 _atom_site_occupancy
  Mn  Mn0  1  0.22727600  0.47721000  0.66030400  1
  Mn  Mn1  1  0.22727100  0.02279400  0.16031700  1
  Mn  Mn2  1  0.77272800  0.97720700  0.83968500  1
  Mn  Mn3  1  0.77272400  0.52279000  0.33969600  1
  O  O0  1  0.07504300  0.21207100  0.89721800  1
  O  O1  1  0.07504200  0.28793300  0.39721500  1
  O  O2  1  0.92495900  0.71206700  0.60278400  1
  O  O3  1  0.92495700  0.78792800  0.10278200  1
  F  F0  1  0.43406300  0.75323400  0.86844100  1
  F  F1  1  0.43405500  0.74677200  0.36843700  1
  F  F2  1  0.56594600  0.25322700  0.63156300  1
  F  F3  1  0.56593700  0.24676500  0.13155800  1
loop_
_geom_bond_atom_site_label_1
_geom_bond_atom_site_label_2
_geom_bond_distance
_geom_bond_site_symmetry_2
Mn0 O1 1.910466 1_555
Mn0 O2 1.919548 1_455
Mn0 O0 2.055869 1_555
Mn1 O0 1.910504 1_554
Mn1 O3 1.919609 1_445
Mn1 O1 2.055750 1_555
Mn2 O3 1.910501 1_556
Mn2 O0 1.919606 1_665
Mn2 O2 2.055770 1_555
Mn3 O2 1.910463 1_555
Mn3 O1 1.919551 1_655
Mn3 O3 2.055867 1_555
F0 Mn0 2.043135 1_555
F0 Mn2 2.045500 1_555
F0 Mn1 2.421714 1_566
F1 Mn1 2.043055 1_565
F1 Mn3 2.045484 1_555
F1 Mn0 2.421700 1_555
F2 Mn2 2.043050 1_545
F2 Mn0 2.045491 1_555
F2 Mn3 2.421701 1_555
F3 Mn3 2.043141 1_555
F3 Mn1 2.045502 1_555
F3 Mn2 2.421694 1_544
