# generated using pymatgen
data_Li2MnFe(BO3)2
_symmetry_space_group_name_H-M   'P 1'
_cell_length_a   5.22848609
_cell_length_b   5.22873233
_cell_length_c   10.44924090
_cell_angle_alpha   89.19317913
_cell_angle_beta   90.83756292
_cell_angle_gamma   60.18757506
_symmetry_Int_Tables_number   1
_chemical_formula_structural   Li2MnFe(BO3)2
_chemical_formula_sum   'Li4 Mn2 Fe2 B4 O12'
_cell_volume   247.75794002
_cell_formula_units_Z   2
loop_
 _symmetry_equiv_pos_site_id
 _symmetry_equiv_pos_as_xyz
  1  'x, y, z'
loop_
 _atom_site_type_symbol
 _atom_site_label
 _atom_site_symmetry_multiplicity
 _atom_site_fract_x
 _atom_site_fract_y
 _atom_site_fract_z
 _atom_site_occupancy
  Li  Li0  1  0.32245900  0.65199900  0.33185700  1
  Li  Li1  1  0.34798500  0.67759300  0.83185300  1
  Li  Li2  1  0.65271600  0.33713800  0.58417900  1
  Li  Li3  1  0.66283400  0.34736000  0.08419000  1
  Mn  Mn0  1  0.99373100  0.67188000  0.61603700  1
  Mn  Mn1  1  0.32822000  0.00626300  0.11601800  1
  Fe  Fe0  1  0.68259700  0.00391300  0.86777000  1
  Fe  Fe1  1  0.99614600  0.31739700  0.36767000  1
  B  B0  1  0.00249900  0.33921100  0.87353700  1
  B  B1  1  0.66103300  0.99730800  0.37351900  1
  B  B2  1  0.33386900  0.00456900  0.62456200  1
  B  B3  1  0.99550800  0.66607500  0.12459100  1
  O  O0  1  0.07006700  0.24617300  0.58061600  1
  O  O1  1  0.75389000  0.92998500  0.08068500  1
  O  O2  1  0.25755100  0.07060000  0.90218700  1
  O  O3  1  0.92948800  0.74226400  0.40218300  1
  O  O4  1  0.02185400  0.58450400  0.83393900  1
  O  O5  1  0.41530200  0.97816100  0.33388500  1
  O  O6  1  0.57642400  0.03913800  0.65585700  1
  O  O7  1  0.96089800  0.42359700  0.15585400  1
  O  O8  1  0.27030200  0.64152400  0.13941300  1
  O  O9  1  0.35851700  0.72967800  0.63938900  1
  O  O10  1  0.63793500  0.27214500  0.38815800  1
  O  O11  1  0.72757600  0.36212200  0.88825400  1
loop_
_geom_bond_atom_site_label_1
_geom_bond_atom_site_label_2
_geom_bond_distance
_geom_bond_site_symmetry_2
Li0 O10 1.921683 1_555
Li0 O5 1.992084 1_555
Li0 O3 2.018417 1_455
Li0 O8 2.030513 1_555
Li1 O11 1.921053 1_555
Li1 O4 1.992748 1_555
Li1 O2 2.018168 1_565
Li1 O9 2.030876 1_555
Li2 O6 1.934382 1_555
Li2 O9 1.957465 1_555
Li2 O0 1.990004 1_655
Li2 O10 2.087573 1_555
Li3 O7 1.933991 1_555
Li3 O8 1.957468 1_555
Li3 O1 1.990048 1_545
Li3 O11 2.086650 1_554
Mn0 O9 2.085709 1_655
Mn0 O0 2.096452 1_655
Mn0 O6 2.122320 1_565
Mn0 O3 2.252495 1_555
Mn0 O4 2.304081 1_655
Mn1 O8 2.086111 1_545
Mn1 O1 2.096252 1_545
Mn1 O7 2.122568 1_455
Mn1 O2 2.252379 1_554
Mn1 O5 2.303325 1_545
Fe0 O11 2.014190 1_555
Fe0 O4 2.062238 1_645
Fe0 O2 2.108586 1_555
Fe0 O1 2.246412 1_546
Fe0 O6 2.257489 1_555
Fe1 O10 2.015069 1_555
Fe1 O5 2.061262 1_645
Fe1 O3 2.107853 1_555
Fe1 O0 2.246697 1_655
Fe1 O7 2.256721 1_555
B0 O11 1.392828 1_455
B0 O4 1.393474 1_555
B0 O2 1.398113 1_555
B1 O10 1.391855 1_565
B1 O5 1.394906 1_555
B1 O3 1.397677 1_555
B2 O9 1.384015 1_545
B2 O0 1.393480 1_555
B2 O6 1.401925 1_555
B3 O8 1.383575 1_655
B3 O1 1.393716 1_555
B3 O7 1.401821 1_555
