# generated using pymatgen
data_Li3Co5OF11
_symmetry_space_group_name_H-M   'P 1'
_cell_length_a   5.18107840
_cell_length_b   5.55201544
_cell_length_c   9.36411245
_cell_angle_alpha   86.27992939
_cell_angle_beta   72.51940916
_cell_angle_gamma   116.90830893
_symmetry_Int_Tables_number   1
_chemical_formula_structural   Li3Co5OF11
_chemical_formula_sum   'Li3 Co5 O1 F11'
_cell_volume   222.62887461
_cell_formula_units_Z   1
loop_
 _symmetry_equiv_pos_site_id
 _symmetry_equiv_pos_as_xyz
  1  'x, y, z'
loop_
 _atom_site_type_symbol
 _atom_site_label
 _atom_site_symmetry_multiplicity
 _atom_site_fract_x
 _atom_site_fract_y
 _atom_site_fract_z
 _atom_site_occupancy
  Li  Li0  1  0.02248200  0.03520000  0.99939000  1
  Li  Li1  1  0.53053100  0.29890100  0.26623000  1
  Li  Li2  1  0.50840800  0.76430300  0.76095900  1
  Co  Co0  1  0.97807100  0.49542200  0.49802000  1
  Co  Co1  1  0.31276200  0.77182900  0.14608400  1
  Co  Co2  1  0.30308600  0.23260300  0.64761500  1
  Co  Co3  1  0.77091000  0.00475500  0.40110200  1
  Co  Co4  1  0.80851000  0.50741500  0.90652100  1
  O  O0  1  0.60282300  0.25386500  0.45706000  1
  F  F0  1  0.07965200  0.85477400  0.35222400  1
  F  F1  1  0.22358600  0.42394400  0.28868800  1
  F  F2  1  0.20803100  0.89864300  0.80281600  1
  F  F3  1  0.40695500  0.15927200  0.04214400  1
  F  F4  1  0.37723400  0.63819800  0.54260600  1
  F  F5  1  0.09808200  0.34656400  0.84706700  1
  F  F6  1  0.91195500  0.59967200  0.10310400  1
  F  F7  1  0.59604000  0.74982100  0.95067200  1
  F  F8  1  0.70950000  0.00233200  0.19511200  1
  F  F9  1  0.70902000  0.50628500  0.70909000  1
  F  F10  1  0.89211900  0.08060200  0.60837300  1
loop_
_geom_bond_atom_site_label_1
_geom_bond_atom_site_label_2
_geom_bond_distance
_geom_bond_site_symmetry_2
Li1 O0 1.955734 1_555
Co0 O0 1.969851 1_555
Co0 F4 2.039003 1_655
Co0 F9 2.071146 1_555
Co0 F0 2.094253 1_655
Co0 F1 2.162833 1_655
Co0 F10 2.248721 1_555
Co1 F7 2.023685 1_554
Co1 F6 2.035523 1_455
Co1 F1 2.052836 1_555
Co1 F3 2.074958 1_565
Co1 F8 2.082290 1_565
Co1 F0 2.148268 1_555
Co2 O0 1.936905 1_555
Co2 F2 2.046065 1_545
Co2 F10 2.065141 1_455
Co2 F5 2.141632 1_555
Co2 F4 2.210908 1_555
Co2 F9 2.238721 1_555
Co3 O0 1.963656 1_555
Co3 F8 2.047026 1_555
Co3 F0 2.068062 1_645
Co3 F4 2.080143 1_545
Co3 F10 2.222114 1_555
Co3 F1 2.298607 1_655
Co4 F3 2.032648 1_556
Co4 F5 2.033178 1_655
Co4 F9 2.062710 1_555
Co4 F7 2.081776 1_555
Co4 F2 2.096389 1_655
Co4 F6 2.098771 1_556
F0 Li1 2.363091 1_565
F1 Li1 1.967894 1_555
F2 Li2 1.963171 1_555
F2 Li0 2.159868 1_565
F3 Li0 1.968679 1_554
F3 Li1 2.446017 1_555
F4 Li2 2.392219 1_555
F5 Li0 1.976831 1_555
F5 Li2 2.193967 1_555
F6 Li1 1.973761 1_555
F6 Li0 2.286036 1_664
F7 Li2 1.966624 1_555
F7 Li0 2.265144 1_665
F8 Li0 1.981200 1_654
F8 Li1 2.273253 1_555
F9 Li2 2.122035 1_555
F10 Li2 1.971203 1_545
