# generated using pymatgen
data_Li3FeF5
_symmetry_space_group_name_H-M   'P 1'
_cell_length_a   6.62456600
_cell_length_b   7.74515200
_cell_length_c   8.13762000
_cell_angle_alpha   90.00000000
_cell_angle_beta   90.00000000
_cell_angle_gamma   90.00000000
_symmetry_Int_Tables_number   1
_chemical_formula_structural   Li3FeF5
_chemical_formula_sum   'Li12 Fe4 F20'
_cell_volume   417.52720903
_cell_formula_units_Z   4
loop_
 _symmetry_equiv_pos_site_id
 _symmetry_equiv_pos_as_xyz
  1  'x, y, z'
loop_
 _atom_site_type_symbol
 _atom_site_label
 _atom_site_symmetry_multiplicity
 _atom_site_fract_x
 _atom_site_fract_y
 _atom_site_fract_z
 _atom_site_occupancy
  Li  Li0  1  0.48573700  0.07207400  0.27100400  1
  Li  Li1  1  0.48573700  0.42792600  0.27100400  1
  Li  Li2  1  0.71037500  0.25000000  0.02730400  1
  Li  Li3  1  0.78962500  0.75000000  0.52730400  1
  Li  Li4  1  0.01426300  0.92792600  0.77100400  1
  Li  Li5  1  0.01426300  0.57207400  0.77100400  1
  Li  Li6  1  0.98573700  0.42792600  0.22899600  1
  Li  Li7  1  0.98573700  0.07207400  0.22899600  1
  Li  Li8  1  0.21037500  0.25000000  0.47269600  1
  Li  Li9  1  0.28962500  0.75000000  0.97269600  1
  Li  Li10  1  0.51426300  0.57207400  0.72899600  1
  Li  Li11  1  0.51426300  0.92792600  0.72899600  1
  Fe  Fe0  1  0.77140600  0.25000000  0.59989400  1
  Fe  Fe1  1  0.72859400  0.75000000  0.09989400  1
  Fe  Fe2  1  0.27140600  0.25000000  0.90010600  1
  Fe  Fe3  1  0.22859400  0.75000000  0.40010600  1
  F  F0  1  0.49054200  0.75000000  0.54798000  1
  F  F1  1  0.59005000  0.25000000  0.80933100  1
  F  F2  1  0.56967300  0.75000000  0.88129900  1
  F  F3  1  0.72466100  0.48889900  0.14391100  1
  F  F4  1  0.72466100  0.01110100  0.14391100  1
  F  F5  1  0.77533900  0.98889900  0.64391100  1
  F  F6  1  0.77533900  0.51110100  0.64391100  1
  F  F7  1  0.93032700  0.25000000  0.38129900  1
  F  F8  1  0.90995000  0.75000000  0.30933100  1
  F  F9  1  0.00945800  0.25000000  0.04798000  1
  F  F10  1  0.99054200  0.75000000  0.95202000  1
  F  F11  1  0.09005000  0.25000000  0.69066900  1
  F  F12  1  0.06967300  0.75000000  0.61870100  1
  F  F13  1  0.22466100  0.48889900  0.35608900  1
  F  F14  1  0.22466100  0.01110100  0.35608900  1
  F  F15  1  0.27533900  0.51110100  0.85608900  1
  F  F16  1  0.27533900  0.98889900  0.85608900  1
  F  F17  1  0.43032700  0.25000000  0.11870100  1
  F  F18  1  0.40995000  0.75000000  0.19066900  1
  F  F19  1  0.50945800  0.25000000  0.45202000  1
loop_
_geom_bond_atom_site_label_1
_geom_bond_atom_site_label_2
_geom_bond_distance
_geom_bond_site_symmetry_2
F0 Li3 1.988426 1_555
F0 Li10 2.023264 1_555
F0 Li11 2.023264 1_555
F0 Fe3 2.111699 1_555
F1 Li2 1.944652 1_556
F1 Fe0 2.085204 1_555
F1 Fe2 2.236397 1_555
F2 Li10 1.889410 1_555
F2 Li11 1.889410 1_555
F2 Li9 1.998731 1_555
F2 Fe1 2.067035 1_556
F3 Li6 1.921885 1_555
F3 Li1 1.948797 1_555
F3 Fe1 2.053910 1_555
F3 Li2 2.081590 1_555
F4 Li7 1.921885 1_555
F4 Li0 1.948797 1_555
F4 Fe1 2.053910 1_545
F4 Li2 2.081590 1_555
F5 Li11 1.921885 1_555
F5 Li4 1.948797 1_655
F5 Fe0 2.053910 1_565
F5 Li3 2.081590 1_555
F6 Li10 1.921885 1_555
F6 Li5 1.948797 1_655
F6 Fe0 2.053910 1_555
F6 Li3 2.081590 1_555
F7 Li6 1.889410 1_555
F7 Li7 1.889410 1_555
F7 Li8 1.998731 1_655
F7 Fe0 2.067035 1_555
F8 Li3 1.944652 1_555
F8 Fe1 2.085204 1_555
F8 Fe3 2.236397 1_655
F9 Li2 1.988426 1_455
F9 Li6 2.023264 1_455
F9 Li7 2.023264 1_455
F9 Fe2 2.111699 1_554
F10 Li9 1.988426 1_655
F10 Li4 2.023264 1_655
F10 Li5 2.023264 1_655
F10 Fe1 2.111699 1_556
F11 Li8 1.944652 1_555
F11 Fe2 2.085204 1_555
F11 Fe0 2.236397 1_455
F12 Li4 1.889410 1_555
F12 Li5 1.889410 1_555
F12 Li3 1.998731 1_455
F12 Fe3 2.067035 1_555
F13 Li1 1.921885 1_555
F13 Li6 1.948797 1_455
F13 Fe3 2.053910 1_555
F13 Li8 2.081590 1_555
F14 Li0 1.921885 1_555
F14 Li7 1.948797 1_455
F14 Fe3 2.053910 1_545
F14 Li8 2.081590 1_555
F15 Li5 1.921885 1_555
F15 Li10 1.948797 1_555
F15 Fe2 2.053910 1_555
F15 Li9 2.081590 1_555
F16 Li4 1.921885 1_555
F16 Li11 1.948797 1_555
F16 Fe2 2.053910 1_565
F16 Li9 2.081590 1_555
F17 Li1 1.889410 1_555
F17 Li0 1.889410 1_555
F17 Li2 1.998731 1_555
F17 Fe2 2.067035 1_554
F18 Li9 1.944652 1_554
F18 Fe3 2.085204 1_555
F18 Fe1 2.236397 1_555
F19 Li8 1.988426 1_555
F19 Li0 2.023264 1_555
F19 Li1 2.023264 1_555
F19 Fe0 2.111699 1_555
