# generated using pymatgen
data_Li2MnO2F
_symmetry_space_group_name_H-M   'P 1'
_cell_length_a   5.17189551
_cell_length_b   5.17189688
_cell_length_c   9.84703863
_cell_angle_alpha   94.83573405
_cell_angle_beta   85.16432972
_cell_angle_gamma   60.26212474
_symmetry_Int_Tables_number   1
_chemical_formula_structural   Li2MnO2F
_chemical_formula_sum   'Li8 Mn4 O8 F4'
_cell_volume   225.45770757
_cell_formula_units_Z   4
loop_
 _symmetry_equiv_pos_site_id
 _symmetry_equiv_pos_as_xyz
  1  'x, y, z'
loop_
 _atom_site_type_symbol
 _atom_site_label
 _atom_site_symmetry_multiplicity
 _atom_site_fract_x
 _atom_site_fract_y
 _atom_site_fract_z
 _atom_site_occupancy
  Li  Li0  1  0.24998600  0.74999700  0.75000800  1
  Li  Li1  1  0.75000000  0.24998400  0.24999200  1
  Li  Li2  1  0.98666900  0.98666600  0.49999900  1
  Li  Li3  1  0.51331200  0.51331000  0.99999900  1
  Li  Li4  1  0.60972000  0.08273100  0.75488000  1
  Li  Li5  1  0.89026400  0.41724300  0.74512500  1
  Li  Li6  1  0.08273400  0.60971600  0.24511900  1
  Li  Li7  1  0.41724700  0.89026100  0.25487400  1
  Mn  Mn0  1  0.83563000  0.83564300  0.00000200  1
  Mn  Mn1  1  0.15875700  0.15875800  0.99999900  1
  Mn  Mn2  1  0.66435500  0.66436600  0.50000300  1
  Mn  Mn3  1  0.34136800  0.34137200  0.50000000  1
  O  O0  1  0.52920600  0.82992200  0.89449100  1
  O  O1  1  0.67007800  0.97078000  0.39449300  1
  O  O2  1  0.97077800  0.67008000  0.60550800  1
  O  O3  1  0.82992100  0.52920600  0.10550900  1
  O  O4  1  0.61904800  0.39850000  0.61757500  1
  O  O5  1  0.10149700  0.88094900  0.11755200  1
  O  O6  1  0.88095100  0.10149500  0.88244700  1
  O  O7  1  0.39850000  0.61904900  0.38242500  1
  F  F0  1  0.22603700  0.44246200  0.86611700  1
  F  F1  1  0.05750300  0.27397300  0.36611900  1
  F  F2  1  0.27397400  0.05750000  0.63388000  1
  F  F3  1  0.44246400  0.22603600  0.13388300  1
loop_
_geom_bond_atom_site_label_1
_geom_bond_atom_site_label_2
_geom_bond_distance
_geom_bond_site_symmetry_2
Li0 O6 2.094478 1_465
Li0 O4 2.094508 1_555
Li0 O0 2.262716 1_555
Li0 O2 2.262761 1_455
Li1 O5 2.094481 1_645
Li1 O7 2.094520 1_555
Li1 O3 2.262716 1_555
Li1 O1 2.262764 1_545
Li2 O1 2.042787 1_555
Li2 O2 2.042793 1_555
Li2 O7 2.165079 1_655
Li2 O4 2.165101 1_565
Li3 O0 2.042909 1_555
Li3 O3 2.042910 1_556
Li3 O6 2.164994 1_555
Li3 O5 2.164998 1_556
Li4 O6 1.991663 1_555
Li4 O0 2.125932 1_545
Li4 O4 2.221913 1_555
Li4 O2 2.293305 1_545
Li5 O4 1.991450 1_555
Li5 O2 2.126083 1_555
Li5 O6 2.221913 1_555
Li5 O0 2.293344 1_555
Li6 O5 1.991671 1_555
Li6 O3 2.125931 1_455
Li6 O7 2.221915 1_555
Li6 O1 2.293336 1_455
Li7 O7 1.991449 1_555
Li7 O1 2.126083 1_555
Li7 O5 2.221918 1_555
Li7 O3 2.293322 1_555
Mn0 O5 1.956460 1_655
Mn0 O6 1.956462 1_564
Mn0 O0 1.977585 1_554
Mn0 O3 1.977598 1_555
Mn1 O0 1.943321 1_545
Mn1 O3 1.943325 1_456
Mn1 O6 2.033886 1_455
Mn1 O5 2.033899 1_546
Mn2 O4 1.956598 1_555
Mn2 O7 1.956610 1_555
Mn2 O2 1.977533 1_555
Mn2 O1 1.977541 1_555
Mn3 O2 1.943465 1_455
Mn3 O1 1.943470 1_545
Mn3 O7 2.033172 1_555
Mn3 O4 2.033175 1_555
F0 Li4 2.055796 1_555
F0 Li0 2.080992 1_555
F0 Mn1 2.183425 1_555
F0 Li3 2.206499 1_555
F0 Mn0 2.230696 1_456
F0 Li5 2.235962 1_455
F1 Li7 2.055922 1_545
F1 Li1 2.081040 1_455
F1 Mn3 2.184357 1_555
F1 Li2 2.206589 1_445
F1 Mn2 2.230592 1_455
F1 Li6 2.235903 1_555
F2 Li5 2.055915 1_455
F2 Li0 2.081046 1_545
F2 Mn3 2.184370 1_555
F2 Li2 2.206585 1_445
F2 Mn2 2.230506 1_545
F2 Li4 2.235915 1_555
F3 Li6 2.055783 1_555
F3 Li1 2.080993 1_555
F3 Mn1 2.183444 1_554
F3 Li3 2.206509 1_554
F3 Mn0 2.230617 1_545
F3 Li7 2.235962 1_545
