# generated using pymatgen
data_MnV3Ni2(PO4)6
_symmetry_space_group_name_H-M   'P 1'
_cell_length_a   8.32687401
_cell_length_b   8.32687402
_cell_length_c   8.32687398
_cell_angle_alpha   61.40229377
_cell_angle_beta   61.40229381
_cell_angle_gamma   61.40229617
_symmetry_Int_Tables_number   1
_chemical_formula_structural   MnV3Ni2(PO4)6
_chemical_formula_sum   'Mn1 V3 Ni2 P6 O24'
_cell_volume   421.11427534
_cell_formula_units_Z   1
loop_
 _symmetry_equiv_pos_site_id
 _symmetry_equiv_pos_as_xyz
  1  'x, y, z'
loop_
 _atom_site_type_symbol
 _atom_site_label
 _atom_site_symmetry_multiplicity
 _atom_site_fract_x
 _atom_site_fract_y
 _atom_site_fract_z
 _atom_site_occupancy
  Mn  Mn0  1  0.85884355  0.85884355  0.85884355  1
  V  V0  1  0.35732839  0.35732839  0.35732839  1
  V  V1  1  0.14118483  0.14118483  0.14118483  1
  V  V2  1  0.64190629  0.64190629  0.64190629  1
  Ni  Ni0  1  -0.00017412  -0.00017412  -0.00017412  1
  Ni  Ni1  1  0.49892767  0.49892767  0.49892767  1
  P  P0  1  0.75108343  0.04428880  0.45591975  1
  P  P1  1  0.04428880  0.45591975  0.75108343  1
  P  P2  1  0.45591975  0.75108343  0.04428880  1
  P  P3  1  0.54282397  0.25135624  0.95615842  1
  P  P4  1  0.95615842  0.54282397  0.25135625  1
  P  P5  1  0.25135625  0.95615842  0.54282397  1
  O  O0  1  0.88185678  0.49722668  0.68510433  1
  O  O1  1  0.49722668  0.68510433  0.88185678  1
  O  O2  1  0.68510433  0.88185678  0.49722668  1
  O  O3  1  0.91076448  0.05811652  0.25530340  1
  O  O4  1  0.81815332  0.01002853  0.61031259  1
  O  O5  1  0.58931425  0.24343884  0.43614595  1
  O  O6  1  0.05811652  0.25530340  0.91076448  1
  O  O7  1  0.24343884  0.43614595  0.58931425  1
  O  O8  1  0.38221959  0.18416938  0.99665079  1
  O  O9  1  0.43614595  0.58931425  0.24343884  1
  O  O10  1  0.73882162  0.09225637  0.95236075  1
  O  O11  1  0.99665079  0.38221959  0.18416938  1
  O  O12  1  0.01002853  0.61031259  0.81815332  1
  O  O13  1  0.25530340  0.91076448  0.05811652  1
  O  O14  1  0.55929486  0.40976342  0.75514076  1
  O  O15  1  0.61031259  0.81815332  0.01002853  1
  O  O16  1  0.75514076  0.55929486  0.40976342  1
  O  O17  1  0.95236075  0.73882162  0.09225637  1
  O  O18  1  0.40976342  0.75514076  0.55929486  1
  O  O19  1  0.18416938  0.99665079  0.38221959  1
  O  O20  1  0.09225637  0.95236075  0.73882162  1
  O  O21  1  0.33091408  0.11102622  0.49195326  1
  O  O22  1  0.49195326  0.33091408  0.11102622  1
  O  O23  1  0.11102622  0.49195326  0.33091408  1
loop_
_geom_bond_atom_site_label_1
_geom_bond_atom_site_label_2
_geom_bond_distance
_geom_bond_site_symmetry_2
Mn0 O15 1.936816 1_556
Mn0 O4 1.936816 1_565
Mn0 O12 1.936816 1_655
Mn0 O20 2.055993 1_655
Mn0 O17 2.055993 1_556
Mn0 O10 2.055993 1_565
Ni0 O17 2.098049 1_445
Ni0 O20 2.098049 1_544
Ni0 O10 2.098049 1_454
Ni0 O6 2.108245 1_554
Ni0 O3 2.108245 1_455
Ni0 O13 2.108245 1_545
Ni1 O16 2.123329 1_555
Ni1 O14 2.123329 1_555
Ni1 O18 2.123329 1_555
Ni1 O7 2.126237 1_555
Ni1 O9 2.126237 1_555
Ni1 O5 2.126237 1_555
O0 P1 1.527955 1_655
O0 V2 1.881953 1_555
O1 P2 1.527955 1_556
O1 V2 1.881953 1_555
O2 P0 1.527955 1_565
O2 V2 1.881953 1_555
O3 P0 1.551730 1_555
O3 V1 1.989631 1_655
O4 P0 1.493250 1_555
O5 P0 1.550505 1_555
O5 V0 1.981346 1_555
O6 P1 1.551730 1_555
O6 V1 1.989631 1_556
O7 P1 1.550505 1_555
O7 V0 1.981346 1_555
O8 P3 1.522869 1_555
O8 V1 1.888859 1_556
O9 P2 1.550505 1_555
O9 V0 1.981346 1_555
O10 P3 1.529881 1_555
O11 P4 1.522869 1_555
O11 V1 1.888859 1_655
O12 P1 1.493250 1_555
O13 P2 1.551730 1_555
O13 V1 1.989631 1_565
O14 P3 1.549268 1_555
O14 V2 2.001507 1_555
O15 P2 1.493250 1_555
O16 P4 1.549268 1_555
O16 V2 2.001507 1_555
O17 P4 1.529881 1_555
O18 P5 1.549268 1_555
O18 V2 2.001507 1_555
O19 P5 1.522869 1_555
O19 V1 1.888859 1_565
O20 P5 1.529881 1_555
O21 P5 1.519055 1_545
O21 V0 1.872479 1_555
O22 P3 1.519055 1_554
O22 V0 1.872479 1_555
O23 P4 1.519055 1_455
O23 V0 1.872479 1_555
