# generated using pymatgen
data_Bi24Br10O31
_symmetry_space_group_name_H-M   'P 1'
_cell_length_a   8.06187400
_cell_length_b   10.57780485
_cell_length_c   15.50291922
_cell_angle_alpha   90.28126295
_cell_angle_beta   97.59866468
_cell_angle_gamma   90.27949246
_symmetry_Int_Tables_number   1
_chemical_formula_structural   Bi24Br10O31
_chemical_formula_sum   'Bi24 Br10 O31'
_cell_volume   1310.39584893
_cell_formula_units_Z   1
loop_
 _symmetry_equiv_pos_site_id
 _symmetry_equiv_pos_as_xyz
  1  'x, y, z'
loop_
 _atom_site_type_symbol
 _atom_site_label
 _atom_site_symmetry_multiplicity
 _atom_site_fract_x
 _atom_site_fract_y
 _atom_site_fract_z
 _atom_site_occupancy
  Bi  Bi0  1  0.67849100  0.08269100  0.69592300  1
  Bi  Bi1  1  0.14693100  0.05856700  0.69141900  1
  Bi  Bi2  1  0.46355600  0.06754000  0.09500700  1
  Bi  Bi3  1  0.98369100  0.07427200  0.08793400  1
  Bi  Bi4  1  0.72482600  0.25026500  0.93134300  1
  Bi  Bi5  1  0.22443700  0.20718400  0.93012800  1
  Bi  Bi6  1  0.61023300  0.25147700  0.35220200  1
  Bi  Bi7  1  0.11167200  0.25427500  0.35277300  1
  Bi  Bi8  1  0.80136700  0.38684400  0.17178900  1
  Bi  Bi9  1  0.29972500  0.39008300  0.17273800  1
  Bi  Bi10  1  0.15053000  0.43530700  0.59164000  1
  Bi  Bi11  1  0.65219200  0.44896800  0.59391900  1
  Bi  Bi12  1  0.85695000  0.54936700  0.40768200  1
  Bi  Bi13  1  0.35688100  0.54996800  0.40879800  1
  Bi  Bi14  1  0.71001600  0.61161000  0.82452100  1
  Bi  Bi15  1  0.21336500  0.60214800  0.83039000  1
  Bi  Bi16  1  0.94573100  0.74776000  0.65248700  1
  Bi  Bi17  1  0.41445700  0.75097800  0.65412300  1
  Bi  Bi18  1  0.76493000  0.79109100  0.06461000  1
  Bi  Bi19  1  0.27688400  0.75227800  0.06660300  1
  Bi  Bi20  1  0.99915800  0.89825400  0.89834900  1
  Bi  Bi21  1  0.51716400  0.94302500  0.88524400  1
  Bi  Bi22  1  0.81265600  0.91085900  0.31208500  1
  Bi  Bi23  1  0.31971300  0.91072100  0.30598700  1
  Br  Br0  1  0.88123000  0.20613500  0.53050100  1
  Br  Br1  1  0.38036100  0.19917800  0.53101800  1
  Br  Br2  1  0.43886600  0.35715300  0.75617900  1
  Br  Br3  1  0.93986800  0.34323600  0.75789700  1
  Br  Br4  1  0.00302500  0.49964500  0.00263300  1
  Br  Br5  1  0.50611200  0.50915200  0.99833600  1
  Br  Br6  1  0.06890600  0.65199200  0.24531300  1
  Br  Br7  1  0.57024900  0.65734700  0.24584100  1
  Br  Br8  1  0.59864500  0.83673500  0.46720700  1
  Br  Br9  1  0.09999300  0.84472900  0.45469800  1
  O  O0  1  0.76671000  0.97718400  0.00747400  1
  O  O1  1  0.23340000  0.02898500  0.00120200  1
  O  O2  1  0.68901800  0.08926500  0.83373200  1
  O  O3  1  0.23125700  0.05284500  0.82619900  1
  O  O4  1  0.96437900  0.15420500  0.95224600  1
  O  O5  1  0.50338600  0.14094100  0.96022200  1
  O  O6  1  0.80654100  0.10646600  0.31947400  1
  O  O7  1  0.31822000  0.10664300  0.31061900  1
  O  O8  1  0.77834800  0.23040700  0.08143300  1
  O  O9  1  0.27785900  0.23519300  0.08572600  1
  O  O10  1  0.56003300  0.30565700  0.21392200  1
  O  O11  1  0.05786300  0.30279400  0.21345200  1
  O  O12  1  0.83609300  0.37277700  0.32918400  1
  O  O13  1  0.33318200  0.37431100  0.32880800  1
  O  O14  1  0.61517200  0.46447100  0.44329700  1
  O  O15  1  0.11424900  0.45857700  0.44138400  1
  O  O16  1  0.38906700  0.52807400  0.55345100  1
  O  O17  1  0.89489800  0.53399400  0.55333300  1
  O  O18  1  0.68032900  0.62958400  0.67687700  1
  O  O19  1  0.16386100  0.61190900  0.67534000  1
  O  O20  1  0.96151900  0.70610300  0.79181700  1
  O  O21  1  0.44560900  0.68882400  0.79090400  1
  O  O22  1  0.22258800  0.76566800  0.91753300  1
  O  O23  1  0.73990600  0.78287700  0.90274500  1
  O  O24  1  0.53887600  0.91951100  0.71751900  1
  O  O25  1  0.18779800  0.86129600  0.68064700  1
  O  O26  1  0.03151200  0.84205300  0.03976300  1
  O  O27  1  0.49408900  0.86144000  0.03733800  1
  O  O28  1  0.83238200  0.92540000  0.17923000  1
  O  O29  1  0.30629800  0.91571200  0.16974100  1
  O  O30  1  0.90583200  0.97449800  0.70643800  1
loop_
_geom_bond_atom_site_label_1
_geom_bond_atom_site_label_2
_geom_bond_distance
_geom_bond_site_symmetry_2
Bi0 O24 2.108252 1_545
Bi0 O2 2.127664 1_555
Bi0 O30 2.153774 1_545
Bi0 Br0 3.474745 1_555
Bi1 O3 2.111336 1_555
Bi1 O25 2.123338 1_545
Bi1 O30 2.174367 1_445
Bi1 Br0 3.450514 1_455
Bi2 O1 2.235437 1_555
Bi2 O5 2.294155 1_554
Bi2 O9 2.319116 1_555
Bi2 O27 2.378438 1_545
Bi2 O29 2.432236 1_545
Bi3 O0 2.250199 1_545
Bi3 O4 2.257484 1_554
Bi3 O8 2.337204 1_555
Bi3 O28 2.535896 1_545
Bi3 O26 2.609107 1_645
Bi3 O1 2.609414 1_655
Bi4 O4 2.173490 1_555
Bi4 O5 2.218346 1_555
Bi4 O2 2.264497 1_555
Bi4 O8 2.320477 1_556
Bi5 O1 2.184724 1_556
Bi5 O4 2.237793 1_455
Bi5 O3 2.294069 1_555
Bi5 O5 2.346720 1_555
Bi5 O9 2.410201 1_556
Bi6 O10 2.207431 1_555
Bi6 O12 2.289696 1_555
Bi6 O6 2.311566 1_555
Bi6 O13 2.574336 1_555
Bi6 O14 2.650484 1_555
Bi6 O7 2.803313 1_555
Bi6 Br0 3.327135 1_555
Bi7 O11 2.209510 1_555
Bi7 O13 2.257703 1_555
Bi7 O7 2.437551 1_555
Bi7 O12 2.541191 1_455
Bi7 O15 2.553554 1_555
Bi7 Br1 3.333593 1_555
Bi8 O8 2.154149 1_555
Bi8 O11 2.270226 1_655
Bi8 O10 2.296700 1_555
Bi8 O12 2.424423 1_555
Bi9 O9 2.108946 1_555
Bi9 O10 2.297541 1_555
Bi9 O11 2.316577 1_555
Bi9 O13 2.405529 1_555
Bi10 O19 2.263254 1_555
Bi10 O16 2.302161 1_555
Bi10 O17 2.322280 1_455
Bi10 O15 2.323449 1_555
Bi10 Br0 3.297001 1_455
Bi10 Br1 3.322296 1_555
Bi10 Br2 3.326398 1_555
Bi10 Br3 3.412089 1_455
Bi11 O18 2.291303 1_555
Bi11 O16 2.294367 1_555
Bi11 O17 2.312426 1_555
Bi11 O14 2.321313 1_555
Bi11 Br2 3.373507 1_555
Bi11 Br0 3.387563 1_555
Bi11 Br3 3.403825 1_555
Bi12 O12 2.217863 1_555
Bi12 O17 2.245010 1_555
Bi12 O14 2.276623 1_555
Bi12 O15 2.288183 1_655
Bi12 Br7 3.385594 1_555
Bi12 Br6 3.403061 1_655
Bi13 O13 2.222152 1_555
Bi13 O16 2.236461 1_555
Bi13 O14 2.273441 1_555
Bi13 O15 2.294261 1_555
Bi13 Br6 3.387236 1_555
Bi13 Br7 3.433605 1_555
Bi14 O23 2.169699 1_555
Bi14 O18 2.278681 1_555
Bi14 O21 2.282509 1_555
Bi14 O20 2.371559 1_555
Bi15 O22 2.184420 1_555
Bi15 O21 2.238926 1_555
Bi15 O20 2.322975 1_455
Bi15 O19 2.386834 1_555
Bi16 O20 2.193910 1_555
Bi16 O19 2.268885 1_655
Bi16 O25 2.277712 1_655
Bi16 O18 2.544825 1_555
Bi16 O30 2.571825 1_555
Bi16 O17 2.726537 1_555
Bi17 O24 2.203347 1_555
Bi17 O21 2.205972 1_555
Bi17 O25 2.254908 1_555
Bi17 O18 2.489762 1_555
Bi17 O19 2.550523 1_555
Bi17 O16 2.812788 1_555
Bi18 O0 2.163290 1_555
Bi18 O28 2.276783 1_555
Bi18 O26 2.295103 1_655
Bi18 O27 2.296716 1_555
Bi18 O23 2.491795 1_554
Bi19 O26 2.189190 1_555
Bi19 O27 2.191109 1_555
Bi19 O22 2.299732 1_554
Bi19 O29 2.338821 1_555
Bi20 O26 2.256287 1_656
Bi20 O22 2.277496 1_655
Bi20 O23 2.424056 1_555
Bi20 O20 2.603729 1_555
Bi20 O1 2.679078 1_666
Bi20 O0 2.812595 1_556
Bi20 O3 2.822755 1_665
Bi20 O4 2.855511 1_565
Bi21 O2 2.287789 1_565
Bi21 O5 2.399749 1_565
Bi21 O23 2.464394 1_555
Bi21 O27 2.544302 1_556
Bi21 O0 2.597430 1_556
Bi21 O24 2.639722 1_555
Bi21 O3 2.641721 1_565
Bi22 O6 2.072886 1_565
Bi22 O28 2.092979 1_555
Bi22 Br9 3.069209 1_655
Bi22 Br8 3.236885 1_555
Bi22 Br7 3.384646 1_555
Bi23 O7 2.073465 1_565
Bi23 O29 2.101584 1_555
Bi23 Br9 3.166047 1_555
Bi23 Br8 3.235130 1_555
Bi23 Br6 3.446867 1_555
