# generated using pymatgen
data_NaScP2(HO4)2
_symmetry_space_group_name_H-M   'P 1'
_cell_length_a   9.77250491
_cell_length_b   9.77250491
_cell_length_c   9.18436058
_cell_angle_alpha   73.12987275
_cell_angle_beta   73.12987275
_cell_angle_gamma   115.07192207
_symmetry_Int_Tables_number   1
_chemical_formula_structural   NaScP2(HO4)2
_chemical_formula_sum   'Na4 Sc4 P8 H8 O32'
_cell_volume   668.35404375
_cell_formula_units_Z   4
loop_
 _symmetry_equiv_pos_site_id
 _symmetry_equiv_pos_as_xyz
  1  'x, y, z'
loop_
 _atom_site_type_symbol
 _atom_site_label
 _atom_site_symmetry_multiplicity
 _atom_site_fract_x
 _atom_site_fract_y
 _atom_site_fract_z
 _atom_site_occupancy
  Na  Na0  1  0.86857900  0.21456600  0.36560600  1
  Na  Na1  1  0.41458700  0.79153900  0.28618200  1
  Na  Na2  1  0.21456600  0.86857900  0.86560600  1
  Na  Na3  1  0.79153900  0.41458700  0.78618200  1
  Sc  Sc0  1  0.36078100  0.58422500  0.03661200  1
  Sc  Sc1  1  0.58422500  0.36078100  0.53661200  1
  Sc  Sc2  1  0.13298900  0.86380200  0.50282800  1
  Sc  Sc3  1  0.86380200  0.13298900  0.00282800  1
  P  P0  1  0.15762200  0.15505500  0.15216900  1
  P  P1  1  0.03164400  0.58068600  0.32576600  1
  P  P2  1  0.15505500  0.15762200  0.65216900  1
  P  P3  1  0.56534100  0.17990200  0.25397000  1
  P  P4  1  0.58068600  0.03164400  0.82576600  1
  P  P5  1  0.17990200  0.56534100  0.75397000  1
  P  P6  1  0.66006900  0.69121200  0.18071700  1
  P  P7  1  0.69121200  0.66006900  0.68071700  1
  H  H0  1  0.49011200  0.32735800  0.10099900  1
  H  H1  1  0.21874000  0.34673100  0.40451100  1
  H  H2  1  0.32735800  0.49011200  0.60099900  1
  H  H3  1  0.34673100  0.21874000  0.90451100  1
  H  H4  1  0.90952800  0.68120100  0.20665600  1
  H  H5  1  0.83947100  0.87347100  0.42052400  1
  H  H6  1  0.68120100  0.90952800  0.70665600  1
  H  H7  1  0.87347100  0.83947100  0.92052400  1
  O  O0  1  0.01010700  0.16482700  0.13507000  1
  O  O1  1  0.24586900  0.11443800  0.00912400  1
  O  O2  1  0.08191500  0.00232900  0.32818000  1
  O  O3  1  0.39548500  0.00847200  0.32799500  1
  O  O4  1  0.29958500  0.32708200  0.12514400  1
  O  O5  1  0.16482700  0.01010700  0.63507000  1
  O  O6  1  0.11443800  0.24586900  0.50912400  1
  O  O7  1  0.02332300  0.69590400  0.16665100  1
  O  O8  1  0.00232900  0.08191500  0.82818000  1
  O  O9  1  0.13292000  0.51140300  0.24903900  1
  O  O10  1  0.59039900  0.31691100  0.08374900  1
  O  O11  1  0.71986900  0.16600400  0.19313500  1
  O  O12  1  0.56670700  0.24626900  0.38554600  1
  O  O13  1  0.00847200  0.39548500  0.82799500  1
  O  O14  1  0.12295700  0.69398200  0.39533200  1
  O  O15  1  0.32708200  0.29958500  0.62514400  1
  O  O16  1  0.47770800  0.58997500  0.20247300  1
  O  O17  1  0.69590400  0.02332300  0.66665100  1
  O  O18  1  0.51140300  0.13292000  0.74903900  1
  O  O19  1  0.31691100  0.59039900  0.58374900  1
  O  O20  1  0.80271700  0.71894300  0.01414600  1
  O  O21  1  0.16600400  0.71986900  0.69313500  1
  O  O22  1  0.67868500  0.59342400  0.33050500  1
  O  O23  1  0.24626900  0.56670700  0.88554600  1
  O  O24  1  0.69398200  0.12295700  0.89533200  1
  O  O25  1  0.84471400  0.43291200  0.46384400  1
  O  O26  1  0.58997500  0.47770800  0.70247300  1
  O  O27  1  0.70303800  0.86810500  0.16063400  1
  O  O28  1  0.71894300  0.80271700  0.51414600  1
  O  O29  1  0.59342400  0.67868500  0.83050500  1
  O  O30  1  0.43291200  0.84471400  0.96384400  1
  O  O31  1  0.86810500  0.70303800  0.66063400  1
loop_
_geom_bond_atom_site_label_1
_geom_bond_atom_site_label_2
_geom_bond_distance
_geom_bond_site_symmetry_2
Na0 O17 2.367509 1_555
Na0 O11 2.456480 1_555
Na0 O0 2.469753 1_655
Na0 O9 2.544734 1_655
Na0 O25 2.615060 1_555
Na1 O3 2.333013 1_565
Na1 O14 2.349560 1_555
Na1 O27 2.379221 1_555
Na1 O19 2.453921 1_555
Na1 O16 2.546591 1_555
Na1 O30 2.790519 1_554
Na2 O7 2.367509 1_556
Na2 O21 2.456480 1_555
Na2 O5 2.469753 1_565
Na2 O18 2.544734 1_565
Na2 O30 2.615060 1_555
Na3 O13 2.333013 1_655
Na3 O24 2.349560 1_555
Na3 O31 2.379221 1_555
Na3 O10 2.453921 1_556
Na3 O26 2.546591 1_555
Na3 O25 2.790519 1_555
H0 O10 1.000049 1_555
H1 O6 0.981878 1_555
H2 O19 1.000049 1_555
H3 O1 0.981878 1_556
H4 O7 0.994541 1_655
H5 O28 0.990789 1_555
H6 O17 0.994541 1_565
H7 O20 0.990789 1_556
O0 P0 1.533407 1_555
O0 Sc3 2.113386 1_455
O1 P0 1.600772 1_555
O2 P0 1.535522 1_555
O2 Sc2 2.105157 1_545
O3 P3 1.533392 1_555
O3 Sc2 2.091793 1_545
O4 P0 1.547198 1_555
O4 Sc0 2.142845 1_555
O5 P2 1.533407 1_555
O5 Sc2 2.113386 1_545
O6 P2 1.600772 1_555
O7 P1 1.612934 1_555
O8 P2 1.535522 1_555
O8 Sc3 2.105157 1_456
O9 P1 1.540974 1_555
O9 Sc0 2.144981 1_555
O10 P3 1.606799 1_555
O11 P3 1.529463 1_555
O11 Sc3 2.102985 1_555
O12 P3 1.529078 1_555
O12 Sc1 2.020714 1_555
O13 P5 1.533392 1_555
O13 Sc3 2.091793 1_456
O14 P1 1.527917 1_555
O14 Sc2 2.146569 1_555
O15 P2 1.547198 1_555
O15 Sc1 2.142845 1_555
O16 P6 1.542400 1_555
O16 Sc0 2.152889 1_555
O17 P4 1.612934 1_555
O18 P4 1.540974 1_555
O18 Sc1 2.144981 1_555
O19 P5 1.606799 1_555
O20 P6 1.599556 1_555
O21 P5 1.529463 1_555
O21 Sc2 2.102985 1_555
O22 P6 1.538981 1_555
O22 Sc1 2.076899 1_555
O23 P5 1.529078 1_555
O23 Sc0 2.020714 1_556
O24 P4 1.527917 1_555
O24 Sc3 2.146569 1_556
O25 P1 1.545146 1_655
O25 Sc1 2.154554 1_555
O26 P7 1.542400 1_555
O26 Sc1 2.152889 1_555
O27 P6 1.534106 1_555
O27 Sc3 2.079370 1_565
O28 P7 1.599556 1_555
O29 P7 1.538981 1_555
O29 Sc0 2.076899 1_556
O30 P4 1.545146 1_565
O30 Sc0 2.154554 1_556
O31 P7 1.534106 1_555
O31 Sc2 2.079370 1_655
