# generated using pymatgen
data_RbSeO3
_symmetry_space_group_name_H-M   'P 1'
_cell_length_a   5.50549900
_cell_length_b   5.77156849
_cell_length_c   7.39052304
_cell_angle_alpha   107.56534209
_cell_angle_beta   107.94247385
_cell_angle_gamma   92.66571236
_symmetry_Int_Tables_number   1
_chemical_formula_structural   RbSeO3
_chemical_formula_sum   'Rb2 Se2 O6'
_cell_volume   210.46488442
_cell_formula_units_Z   2
loop_
 _symmetry_equiv_pos_site_id
 _symmetry_equiv_pos_as_xyz
  1  'x, y, z'
loop_
 _atom_site_type_symbol
 _atom_site_label
 _atom_site_symmetry_multiplicity
 _atom_site_fract_x
 _atom_site_fract_y
 _atom_site_fract_z
 _atom_site_occupancy
  Rb  Rb0  1  0.12999300  0.36018500  0.77863300  1
  Rb  Rb1  1  0.87000700  0.63981500  0.22136700  1
  Se  Se0  1  0.44741400  0.16090800  0.29166400  1
  Se  Se1  1  0.55258600  0.83909200  0.70833600  1
  O  O0  1  0.76850700  0.16752500  0.34353800  1
  O  O1  1  0.23149300  0.83247500  0.65646200  1
  O  O2  1  0.35622100  0.40539000  0.22243300  1
  O  O3  1  0.64377900  0.59461000  0.77756700  1
  O  O4  1  0.28465200  0.89195400  0.11948300  1
  O  O5  1  0.71534800  0.10804600  0.88051700  1
loop_
_geom_bond_atom_site_label_1
_geom_bond_atom_site_label_2
_geom_bond_distance
_geom_bond_site_symmetry_2
O0 Se0 1.685465 1_555
O0 Rb1 3.035326 1_545
O0 Rb0 3.038128 1_655
O0 Rb1 3.195702 1_555
O1 Se1 1.685465 1_555
O1 Rb0 3.035326 1_565
O1 Rb1 3.038128 1_455
O1 Rb0 3.195702 1_555
O2 Se0 1.687690 1_555
O2 Rb0 3.051801 1_554
O2 Rb1 3.053937 1_455
O2 Rb1 3.081573 1_555
O3 Se1 1.687690 1_555
O3 Rb1 3.051801 1_556
O3 Rb0 3.053937 1_655
O3 Rb0 3.081573 1_555
O4 Se0 1.675601 1_565
O4 Rb1 3.050808 1_455
O4 Rb0 3.202990 1_554
O5 Se1 1.675601 1_545
O5 Rb0 3.050808 1_655
O5 Rb1 3.202990 1_556
