# generated using pymatgen
data_V3OF11
_symmetry_space_group_name_H-M   'P 1'
_cell_length_a   5.26961100
_cell_length_b   5.45281395
_cell_length_c   14.76027724
_cell_angle_alpha   100.32852095
_cell_angle_beta   90.02615138
_cell_angle_gamma   90.06897165
_symmetry_Int_Tables_number   1
_chemical_formula_structural   V3OF11
_chemical_formula_sum   'V6 O2 F22'
_cell_volume   417.25192473
_cell_formula_units_Z   2
loop_
 _symmetry_equiv_pos_site_id
 _symmetry_equiv_pos_as_xyz
  1  'x, y, z'
loop_
 _atom_site_type_symbol
 _atom_site_label
 _atom_site_symmetry_multiplicity
 _atom_site_fract_x
 _atom_site_fract_y
 _atom_site_fract_z
 _atom_site_occupancy
  V  V0  1  0.99004500  0.00085100  0.99384000  1
  V  V1  1  0.49182900  0.84459300  0.66561400  1
  V  V2  1  0.99977300  0.66640600  0.33293800  1
  V  V3  1  0.49507500  0.50251100  0.00128000  1
  V  V4  1  0.97531800  0.37398400  0.66962800  1
  V  V5  1  0.49965600  0.16615400  0.33269400  1
  O  O0  1  0.91924600  0.95447900  0.88546200  1
  O  O1  1  0.79464800  0.62516500  0.68908400  1
  F  F0  1  0.80152300  0.97626000  0.35803400  1
  F  F1  1  0.70760300  0.80667000  0.02625600  1
  F  F2  1  0.30193800  0.85537400  0.30854600  1
  F  F3  1  0.58787200  0.78432800  0.54902600  1
  F  F4  1  0.91233800  0.62391000  0.21555300  1
  F  F5  1  0.42382600  0.87131700  0.78467100  1
  F  F6  1  0.08566900  0.70628500  0.45064800  1
  F  F7  1  0.41792700  0.54369000  0.11878100  1
  F  F8  1  0.69813700  0.47655200  0.35780700  1
  F  F9  1  0.79706900  0.30259100  0.02618600  1
  F  F10  1  0.20154500  0.69627800  0.97508400  1
  F  F11  1  0.28631600  0.53006300  0.64253100  1
  F  F12  1  0.19850500  0.35635300  0.30840000  1
  F  F13  1  0.58925600  0.45712200  0.88443400  1
  F  F14  1  0.92745200  0.27273700  0.55028500  1
  F  F15  1  0.58732800  0.12402800  0.21551700  1
  F  F16  1  0.09304700  0.36575300  0.78178000  1
  F  F17  1  0.41561900  0.20856200  0.45059000  1
  F  F18  1  0.09180600  0.04013100  0.11514100  1
  F  F19  1  0.71004600  0.14342900  0.69148200  1
  F  F20  1  0.29261700  0.19584700  0.97564200  1
  F  F21  1  0.20697100  0.02857900  0.64306500  1
loop_
_geom_bond_atom_site_label_1
_geom_bond_atom_site_label_2
_geom_bond_distance
_geom_bond_site_symmetry_2
O0 V0 1.617503 1_565
O1 V4 1.651411 1_555
O1 V1 2.061729 1_555
F0 V2 1.965569 1_555
F0 V5 1.970979 1_565
F1 V0 1.934889 1_564
F1 V3 1.979084 1_555
F2 V2 1.963761 1_455
F2 V5 1.965494 1_565
F3 V1 1.767469 1_555
F4 V2 1.767217 1_555
F5 V1 1.773888 1_555
F6 V2 1.770426 1_455
F7 V3 1.756381 1_555
F8 V2 1.966169 1_555
F8 V5 1.966331 1_555
F9 V0 1.921446 1_554
F9 V3 2.000848 1_555
F10 V3 1.951486 1_556
F10 V0 1.979107 1_465
F11 V4 1.920776 1_455
F11 V1 2.004008 1_555
F12 V5 1.964537 1_555
F12 V2 1.967552 1_455
F13 V3 1.769209 1_556
F14 V4 1.766906 1_555
F15 V5 1.765255 1_555
F16 V4 1.775668 1_455
F17 V5 1.770439 1_555
F18 V0 1.844025 1_454
F19 V4 1.944274 1_555
F19 V1 1.973663 1_545
F20 V0 1.960525 1_455
F20 V3 1.961134 1_556
F21 V1 1.869076 1_545
F21 V4 2.220893 1_455
