# generated using pymatgen
data_Li2V3(PO4)3
_symmetry_space_group_name_H-M   'P 1'
_cell_length_a   8.57751060
_cell_length_b   8.57751060
_cell_length_c   8.51725269
_cell_angle_alpha   63.19951458
_cell_angle_beta   63.19951458
_cell_angle_gamma   63.14732607
_symmetry_Int_Tables_number   1
_chemical_formula_structural   Li2V3(PO4)3
_chemical_formula_sum   'Li4 V6 P6 O24'
_cell_volume   474.36384958
_cell_formula_units_Z   2
loop_
 _symmetry_equiv_pos_site_id
 _symmetry_equiv_pos_as_xyz
  1  'x, y, z'
loop_
 _atom_site_type_symbol
 _atom_site_label
 _atom_site_symmetry_multiplicity
 _atom_site_fract_x
 _atom_site_fract_y
 _atom_site_fract_z
 _atom_site_occupancy
  Li  Li0  1  0.36025000  0.63975000  0.50000000  1
  Li  Li1  1  0.65461000  0.34539000  0.00000000  1
  Li  Li2  1  0.25142400  0.15139300  0.60059800  1
  Li  Li3  1  0.84860700  0.74857600  0.39940200  1
  V  V0  1  0.50098000  0.00209800  0.24326900  1
  V  V1  1  0.14436500  0.64800300  0.89238300  1
  V  V2  1  0.65168700  0.14930500  0.39730900  1
  V  V3  1  0.99790200  0.49902000  0.75673100  1
  V  V4  1  0.35199700  0.85563500  0.10761700  1
  V  V5  1  0.85069500  0.34831300  0.60269100  1
  P  P0  1  0.75283800  0.56066400  0.18778800  1
  P  P1  1  0.43933600  0.24716200  0.81221200  1
  P  P2  1  0.05894800  0.94105200  0.50000000  1
  P  P3  1  0.95576900  0.04423100  0.00000000  1
  P  P4  1  0.54168300  0.74850000  0.69787100  1
  P  P5  1  0.25150000  0.45831700  0.30212900  1
  O  O0  1  0.59476900  0.30669300  0.78772100  1
  O  O1  1  0.03428300  0.09395500  0.56161300  1
  O  O2  1  0.81172700  0.53378600  0.34571100  1
  O  O3  1  0.58992200  0.74768100  0.17873300  1
  O  O4  1  0.69330700  0.40523100  0.21227900  1
  O  O5  1  0.90903700  0.58232100  0.99687800  1
  O  O6  1  0.41767900  0.09096300  0.00312200  1
  O  O7  1  0.25231900  0.41007800  0.82126700  1
  O  O8  1  0.10639000  0.99950700  0.07563300  1
  O  O9  1  0.08556800  0.74345600  0.65052500  1
  O  O10  1  0.75991900  0.06352500  0.14989800  1
  O  O11  1  0.48167400  0.81149400  0.86226500  1
  O  O12  1  0.46621400  0.18827300  0.65428900  1
  O  O13  1  0.25654400  0.91443200  0.34947500  1
  O  O14  1  0.93647500  0.24008100  0.85010200  1
  O  O15  1  0.90604500  0.96571700  0.43838700  1
  O  O16  1  0.73595400  0.59758600  0.68719200  1
  O  O17  1  0.56931100  0.90228300  0.50445900  1
  O  O18  1  0.09771700  0.43068900  0.49554100  1
  O  O19  1  0.31911400  0.60497000  0.28733200  1
  O  O20  1  0.40241400  0.26404600  0.31280800  1
  O  O21  1  0.18850600  0.51832600  0.13773500  1
  O  O22  1  0.00049300  0.89361000  0.92436700  1
  O  O23  1  0.39503000  0.68088600  0.71266800  1
loop_
_geom_bond_atom_site_label_1
_geom_bond_atom_site_label_2
_geom_bond_distance
_geom_bond_site_symmetry_2
Li0 O9 2.096957 1_555
Li0 O13 2.096957 1_555
Li0 O23 2.157129 1_555
Li0 O19 2.157129 1_555
Li0 O3 2.593761 1_555
Li0 O7 2.593761 1_555
Li1 O14 2.138867 1_554
Li1 O10 2.138867 1_555
Li1 O0 2.274774 1_554
Li1 O4 2.274774 1_555
Li1 O16 2.598958 1_554
Li1 O20 2.598958 1_555
Li2 O18 2.134363 1_555
Li2 O20 2.179741 1_555
Li2 O12 2.262788 1_555
Li2 O1 2.314344 1_555
Li2 O14 2.610936 1_455
Li3 O17 2.134363 1_555
Li3 O16 2.179741 1_555
Li3 O2 2.262788 1_555
Li3 O15 2.314344 1_555
Li3 O10 2.610936 1_565
O0 P1 1.532947 1_555
O0 V5 2.123893 1_555
O1 P2 1.519905 1_545
O1 V5 2.109501 1_455
O2 P0 1.531454 1_555
O2 V5 2.114864 1_555
O3 P0 1.578767 1_555
O3 V4 2.071462 1_555
O3 V0 2.201353 1_565
O4 P0 1.532947 1_555
O4 V2 2.123893 1_555
O5 P0 1.568898 1_556
O5 V1 2.034485 1_655
O5 V3 2.166824 1_555
O6 P1 1.568898 1_554
O6 V4 2.034485 1_545
O6 V0 2.166824 1_555
O7 P1 1.578767 1_555
O7 V1 2.071462 1_555
O7 V3 2.201353 1_455
O8 P3 1.520263 1_465
O8 V4 1.975099 1_555
O9 P2 1.588494 1_555
O9 V1 2.052087 1_555
O9 V3 2.209131 1_455
O10 P3 1.576316 1_555
O10 V2 2.204708 1_555
O10 V0 2.220283 1_555
O11 P4 1.516079 1_555
O11 V4 1.996115 1_556
O12 P1 1.531454 1_555
O12 V2 2.114864 1_555
O13 P2 1.588494 1_555
O13 V4 2.052087 1_555
O13 V0 2.209131 1_565
O14 P3 1.576316 1_556
O14 V5 2.204708 1_555
O14 V3 2.220283 1_555
O15 P2 1.519905 1_655
O15 V2 2.109501 1_565
O16 P4 1.575279 1_555
O16 V5 2.214985 1_555
O16 V3 2.268560 1_555
O17 P4 1.575020 1_555
O17 V2 2.202009 1_565
O17 V0 2.242855 1_565
O18 P5 1.575020 1_555
O18 V5 2.202009 1_455
O18 V3 2.242855 1_455
O19 P5 1.544275 1_555
O19 V4 2.058181 1_555
O20 P5 1.575279 1_555
O20 V2 2.214985 1_555
O20 V0 2.268560 1_555
O21 P5 1.516079 1_555
O21 V1 1.996115 1_554
O22 P3 1.520263 1_466
O22 V1 1.975099 1_555
O23 P4 1.544275 1_555
O23 V1 2.058181 1_555
