# generated using pymatgen
data_Li32Mn13Cr3O48
_symmetry_space_group_name_H-M   'P 1'
_cell_length_a   4.99821300
_cell_length_b   8.67651366
_cell_length_c   19.44913178
_cell_angle_alpha   98.25828434
_cell_angle_beta   94.75983573
_cell_angle_gamma   89.75294727
_symmetry_Int_Tables_number   1
_chemical_formula_structural   Li32Mn13Cr3O48
_chemical_formula_sum   'Li32 Mn13 Cr3 O48'
_cell_volume   831.80224907
_cell_formula_units_Z   1
loop_
 _symmetry_equiv_pos_site_id
 _symmetry_equiv_pos_as_xyz
  1  'x, y, z'
loop_
 _atom_site_type_symbol
 _atom_site_label
 _atom_site_symmetry_multiplicity
 _atom_site_fract_x
 _atom_site_fract_y
 _atom_site_fract_z
 _atom_site_occupancy
  Li  Li0  1  0.99265200  0.16796400  0.24972400  1
  Li  Li1  1  0.87440100  0.37475600  0.37472200  1
  Li  Li2  1  0.74949900  0.24976100  0.00012200  1
  Li  Li3  1  0.74349600  0.91829600  0.99989600  1
  Li  Li4  1  0.99247300  0.16901300  0.75047100  1
  Li  Li5  1  0.75625200  0.57928900  0.50034600  1
  Li  Li6  1  0.87708900  0.37444000  0.87488300  1
  Li  Li7  1  0.75032300  0.25015900  0.49999100  1
  Li  Li8  1  0.74741400  0.92115500  0.50075600  1
  Li  Li9  1  0.62485900  0.12504600  0.12498400  1
  Li  Li10  1  0.75623200  0.58195500  0.99975200  1
  Li  Li11  1  0.50779500  0.33286700  0.25048400  1
  Li  Li12  1  0.62764500  0.12414700  0.62481500  1
  Li  Li13  1  0.50050500  0.00056100  0.24982800  1
  Li  Li14  1  0.49083700  0.66654500  0.24957000  1
  Li  Li15  1  0.50744300  0.33297500  0.75011900  1
  Li  Li16  1  0.37211900  0.87550700  0.37520000  1
  Li  Li17  1  0.49980800  0.99935100  0.75007900  1
  Li  Li18  1  0.25131500  0.74999200  0.99991700  1
  Li  Li19  1  0.49019000  0.66744400  0.74913400  1
  Li  Li20  1  0.24353900  0.41994100  0.00073400  1
  Li  Li21  1  0.37549000  0.87400900  0.87514400  1
  Li  Li22  1  0.25250600  0.07847800  0.49906400  1
  Li  Li23  1  0.25003000  0.75022000  0.49995300  1
  Li  Li24  1  0.12484300  0.62505200  0.12498300  1
  Li  Li25  1  0.24338000  0.42080000  0.49974600  1
  Li  Li26  1  0.00898800  0.83141000  0.24981400  1
  Li  Li27  1  0.25566800  0.08032400  0.99980500  1
  Li  Li28  1  0.12541700  0.62481100  0.62523200  1
  Li  Li29  1  0.99993400  0.50026300  0.25000700  1
  Li  Li30  1  0.00750500  0.83129000  0.75049700  1
  Li  Li31  1  0.00146000  0.50053500  0.75001400  1
  Mn  Mn0  1  0.87745300  0.04282100  0.37576600  1
  Mn  Mn1  1  0.87560900  0.71025000  0.87559400  1
  Mn  Mn2  1  0.87495100  0.04164500  0.87504200  1
  Mn  Mn3  1  0.62583100  0.79147900  0.12503000  1
  Mn  Mn4  1  0.62470400  0.45841600  0.12497700  1
  Mn  Mn5  1  0.62503200  0.79164400  0.62505100  1
  Mn  Mn6  1  0.62631000  0.46029700  0.62573900  1
  Mn  Mn7  1  0.37307400  0.53982900  0.37413300  1
  Mn  Mn8  1  0.37505100  0.20841200  0.37493400  1
  Mn  Mn9  1  0.37290700  0.20693500  0.87441100  1
  Mn  Mn10  1  0.12463200  0.95853300  0.12502000  1
  Mn  Mn11  1  0.12574500  0.29134500  0.12497400  1
  Mn  Mn12  1  0.12262300  0.95695900  0.62430100  1
  Cr  Cr0  1  0.86754800  0.70962700  0.37522000  1
  Cr  Cr1  1  0.38058900  0.53992500  0.87497400  1
  Cr  Cr2  1  0.13187700  0.28993400  0.62492700  1
  O  O0  1  0.96385900  0.10674500  0.06896900  1
  O  O1  1  0.92888500  0.78532600  0.06915800  1
  O  O2  1  0.92776100  0.42744000  0.06786900  1
  O  O3  1  0.96122400  0.10277700  0.56826000  1
  O  O4  1  0.82157800  0.96474800  0.18112400  1
  O  O5  1  0.82274300  0.32246600  0.18193600  1
  O  O6  1  0.92823700  0.78396600  0.56890000  1
  O  O7  1  0.92625300  0.42636300  0.56791200  1
  O  O8  1  0.78621300  0.64314200  0.18106200  1
  O  O9  1  0.72023000  0.85627400  0.31918200  1
  O  O10  1  0.82089700  0.96482200  0.68105800  1
  O  O11  1  0.82190200  0.32359400  0.68210700  1
  O  O12  1  0.67362200  0.53239900  0.31832700  1
  O  O13  1  0.67733600  0.17748700  0.31800200  1
  O  O14  1  0.78784600  0.64416100  0.68111100  1
  O  O15  1  0.71315100  0.85757300  0.81908000  1
  O  O16  1  0.46389400  0.60671500  0.06891300  1
  O  O17  1  0.57247200  0.71270500  0.43092600  1
  O  O18  1  0.57214600  0.07232700  0.43192800  1
  O  O19  1  0.67569300  0.53742100  0.81921600  1
  O  O20  1  0.67742100  0.17782400  0.81794200  1
  O  O21  1  0.42761400  0.92753000  0.06807300  1
  O  O22  1  0.42878500  0.28519000  0.06892300  1
  O  O23  1  0.53613900  0.39277000  0.43094700  1
  O  O24  1  0.46354000  0.60737800  0.56899200  1
  O  O25  1  0.57553000  0.71726600  0.93166600  1
  O  O26  1  0.57251200  0.07227500  0.93198000  1
  O  O27  1  0.32272900  0.82257600  0.18214300  1
  O  O28  1  0.32151200  0.46461300  0.18085100  1
  O  O29  1  0.42782600  0.92777600  0.56807300  1
  O  O30  1  0.42578100  0.28753800  0.56906800  1
  O  O31  1  0.53244600  0.39298400  0.93098200  1
  O  O32  1  0.28631000  0.14313500  0.18101600  1
  O  O33  1  0.21166400  0.35592100  0.31883400  1
  O  O34  1  0.32273900  0.82244400  0.68203400  1
  O  O35  1  0.32687300  0.46768100  0.68189200  1
  O  O36  1  0.17916500  0.67673900  0.31775700  1
  O  O37  1  0.17925700  0.03517000  0.31901600  1
  O  O38  1  0.28117100  0.14332900  0.68081000  1
  O  O39  1  0.21177400  0.35325400  0.81833700  1
  O  O40  1  0.07342900  0.57430900  0.43196000  1
  O  O41  1  0.07170200  0.21608200  0.43106000  1
  O  O42  1  0.17547900  0.67713200  0.81790900  1
  O  O43  1  0.17824200  0.03434600  0.81892900  1
  O  O44  1  0.03854000  0.89704900  0.43180200  1
  O  O45  1  0.07248400  0.57366800  0.93205000  1
  O  O46  1  0.07083400  0.21500300  0.93096300  1
  O  O47  1  0.03751400  0.89416100  0.93106600  1
loop_
_geom_bond_atom_site_label_1
_geom_bond_atom_site_label_2
_geom_bond_distance
_geom_bond_site_symmetry_2
Li0 O32 2.055859 1_655
Li0 O37 2.059578 1_655
Li0 O5 2.137421 1_555
Li0 O13 2.137472 1_555
Li0 O4 2.183579 1_545
Li0 O33 2.192266 1_655
Li1 O33 2.073771 1_655
Li1 O41 2.076255 1_655
Li1 O12 2.077847 1_555
Li1 O23 2.081866 1_555
Li1 O13 2.099647 1_555
Li1 O40 2.122278 1_655
Li2 O2 2.034725 1_555
Li2 O26 2.035028 1_554
Li2 O22 2.165231 1_555
Li2 O0 2.169894 1_555
Li2 O46 2.171998 1_654
Li2 O31 2.180771 1_554
Li3 O1 2.057767 1_556
Li3 O47 2.058846 1_655
Li3 O26 2.137715 1_565
Li3 O21 2.138512 1_556
Li3 O25 2.161240 1_555
Li3 O0 2.197799 1_566
Li4 O38 2.049972 1_655
Li4 O43 2.057312 1_655
Li4 O20 2.126170 1_555
Li4 O11 2.146608 1_555
Li4 O39 2.160549 1_655
Li4 O10 2.197878 1_545
Li5 O24 2.051828 1_555
Li5 O17 2.059295 1_555
Li5 O7 2.124920 1_555
Li5 O40 2.148711 1_655
Li5 O23 2.189206 1_555
Li5 O6 2.193896 1_555
Li6 O39 2.070320 1_655
Li6 O46 2.070672 1_655
Li6 O20 2.102663 1_555
Li6 O19 2.105194 1_555
Li6 O31 2.107790 1_555
Li6 O45 2.111944 1_655
Li7 O7 2.023429 1_555
Li7 O18 2.038539 1_555
Li7 O41 2.168975 1_655
Li7 O23 2.169721 1_555
Li7 O3 2.180195 1_555
Li7 O30 2.184815 1_555
Li8 O44 2.049459 1_655
Li8 O6 2.058000 1_555
Li8 O3 2.129875 1_565
Li8 O18 2.140019 1_565
Li8 O29 2.143298 1_555
Li8 O17 2.234081 1_555
Li9 O22 2.079929 1_555
Li9 O32 2.080911 1_555
Li9 O0 2.082644 1_555
Li9 O4 2.083183 1_545
Li9 O21 2.102996 1_545
Li9 O5 2.104045 1_555
Li10 O25 2.046120 1_555
Li10 O16 2.056934 1_556
Li10 O45 2.134204 1_655
Li10 O2 2.144605 1_556
Li10 O1 2.194555 1_556
Li10 O31 2.205884 1_555
Li11 O28 2.057667 1_555
Li11 O33 2.060473 1_555
Li11 O13 2.138707 1_555
Li11 O5 2.139183 1_555
Li11 O12 2.144730 1_555
Li11 O32 2.211227 1_555
Li12 O3 2.065732 1_555
Li12 O10 2.070769 1_545
Li12 O29 2.099990 1_545
Li12 O30 2.109739 1_555
Li12 O11 2.111869 1_555
Li12 O38 2.114507 1_555
Li13 O13 2.031816 1_555
Li13 O27 2.034951 1_545
Li13 O4 2.165578 1_545
Li13 O32 2.166559 1_555
Li13 O37 2.171967 1_555
Li13 O9 2.195508 1_545
Li14 O12 2.052523 1_555
Li14 O8 2.059696 1_555
Li14 O36 2.121625 1_555
Li14 O27 2.139133 1_555
Li14 O28 2.173629 1_555
Li14 O9 2.230682 1_555
Li15 O35 2.044283 1_555
Li15 O39 2.057023 1_555
Li15 O11 2.130658 1_555
Li15 O20 2.142022 1_555
Li15 O19 2.190967 1_555
Li15 O38 2.220263 1_555
Li16 O44 2.066283 1_555
Li16 O37 2.071456 1_565
Li16 O17 2.102445 1_555
Li16 O18 2.103219 1_565
Li16 O36 2.105850 1_555
Li16 O9 2.121814 1_555
Li17 O34 2.030891 1_555
Li17 O20 2.039203 1_565
Li17 O15 2.162577 1_555
Li17 O43 2.169044 1_565
Li17 O10 2.169161 1_555
Li17 O38 2.190239 1_565
Li18 O45 2.029195 1_555
Li18 O21 2.034148 1_556
Li18 O16 2.169397 1_556
Li18 O25 2.171043 1_555
Li18 O47 2.175320 1_555
Li18 O1 2.177616 1_456
Li19 O19 2.052615 1_555
Li19 O14 2.061986 1_555
Li19 O34 2.127316 1_555
Li19 O35 2.136511 1_555
Li19 O42 2.141572 1_555
Li19 O15 2.221148 1_555
Li20 O31 2.052157 1_554
Li20 O22 2.053146 1_555
Li20 O2 2.125316 1_455
Li20 O45 2.146389 1_554
Li20 O16 2.180196 1_555
Li20 O46 2.207722 1_554
Li21 O25 2.071968 1_555
Li21 O47 2.077237 1_555
Li21 O15 2.077570 1_555
Li21 O43 2.085407 1_565
Li21 O26 2.106810 1_565
Li21 O42 2.107202 1_555
Li22 O3 2.053353 1_455
Li22 O41 2.058496 1_555
Li22 O44 2.126933 1_545
Li22 O29 2.139651 1_545
Li22 O18 2.141416 1_555
Li22 O30 2.236619 1_555
Li23 O40 2.023746 1_555
Li23 O29 2.036771 1_555
Li23 O24 2.169496 1_555
Li23 O6 2.170692 1_455
Li23 O17 2.175931 1_555
Li23 O44 2.176746 1_555
Li24 O1 2.077855 1_455
Li24 O28 2.080915 1_555
Li24 O8 2.081788 1_455
Li24 O16 2.083482 1_555
Li24 O2 2.104730 1_455
Li24 O27 2.106219 1_555
Li25 O23 2.054060 1_555
Li25 O30 2.054412 1_555
Li25 O40 2.131323 1_555
Li25 O7 2.145261 1_455
Li25 O24 2.188254 1_555
Li25 O41 2.194805 1_555
Li26 O9 2.046127 1_455
Li26 O4 2.056122 1_455
Li26 O27 2.123602 1_555
Li26 O36 2.140960 1_555
Li26 O37 2.191040 1_565
Li26 O8 2.199388 1_455
Li27 O0 2.055113 1_456
Li27 O46 2.060714 1_555
Li27 O21 2.136710 1_546
Li27 O26 2.138279 1_555
Li27 O47 2.176741 1_545
Li27 O22 2.202086 1_556
Li28 O14 2.074993 1_455
Li28 O6 2.079006 1_455
Li28 O35 2.079078 1_555
Li28 O24 2.081468 1_555
Li28 O34 2.103130 1_555
Li28 O7 2.116053 1_455
Li29 O36 2.029700 1_655
Li29 O5 2.036517 1_555
Li29 O8 2.168964 1_555
Li29 O33 2.171497 1_655
Li29 O28 2.173294 1_655
Li29 O12 2.180081 1_555
Li30 O15 2.056990 1_455
Li30 O10 2.065752 1_455
Li30 O42 2.127049 1_555
Li30 O34 2.139911 1_555
Li30 O43 2.180487 1_565
Li30 O14 2.191518 1_455
Li31 O42 2.021795 1_555
Li31 O11 2.034553 1_455
Li31 O14 2.172463 1_455
Li31 O35 2.174222 1_555
Li31 O39 2.179032 1_555
Li31 O19 2.191026 1_455
Mn0 O44 1.917633 1_645
Mn0 O41 1.932347 1_655
Mn0 O37 1.937153 1_655
Mn0 O18 1.944282 1_555
Mn0 O9 1.950433 1_545
Mn0 O13 1.951506 1_555
Mn1 O25 1.922025 1_555
Mn1 O47 1.933083 1_655
Mn1 O15 1.935959 1_555
Mn1 O45 1.939778 1_655
Mn1 O42 1.941769 1_655
Mn1 O19 1.951452 1_555
Mn2 O47 1.931221 1_645
Mn2 O43 1.935697 1_655
Mn2 O15 1.937805 1_545
Mn2 O46 1.941635 1_655
Mn2 O26 1.942127 1_555
Mn2 O20 1.946555 1_555
Mn3 O1 1.932328 1_555
Mn3 O8 1.932808 1_555
Mn3 O4 1.942156 1_555
Mn3 O16 1.943769 1_555
Mn3 O21 1.945656 1_555
Mn3 O27 1.947167 1_555
Mn4 O28 1.932903 1_555
Mn4 O16 1.933733 1_555
Mn4 O22 1.941975 1_555
Mn4 O8 1.942471 1_555
Mn4 O5 1.944670 1_555
Mn4 O2 1.946866 1_555
Mn5 O14 1.932117 1_555
Mn5 O6 1.935635 1_555
Mn5 O24 1.939256 1_555
Mn5 O10 1.941188 1_555
Mn5 O34 1.942140 1_555
Mn5 O29 1.944074 1_555
Mn6 O35 1.920194 1_555
Mn6 O14 1.931299 1_555
Mn6 O11 1.936529 1_555
Mn6 O24 1.937831 1_555
Mn6 O7 1.944230 1_555
Mn6 O30 1.954807 1_555
Mn7 O12 1.920539 1_555
Mn7 O33 1.930774 1_555
Mn7 O36 1.934054 1_555
Mn7 O23 1.939056 1_555
Mn7 O40 1.943326 1_555
Mn7 O17 1.953839 1_555
Mn8 O33 1.933836 1_555
Mn8 O41 1.935932 1_555
Mn8 O23 1.938732 1_555
Mn8 O37 1.940705 1_555
Mn8 O13 1.941554 1_555
Mn8 O18 1.943732 1_555
Mn9 O39 1.921693 1_555
Mn9 O43 1.930708 1_555
Mn9 O46 1.935663 1_555
Mn9 O20 1.944473 1_555
Mn9 O26 1.947942 1_555
Mn9 O31 1.951288 1_555
Mn10 O0 1.932946 1_465
Mn10 O4 1.935114 1_455
Mn10 O1 1.939942 1_455
Mn10 O32 1.941276 1_565
Mn10 O21 1.944644 1_555
Mn10 O27 1.946806 1_555
Mn11 O32 1.932443 1_555
Mn11 O22 1.934441 1_555
Mn11 O28 1.940475 1_555
Mn11 O0 1.941723 1_455
Mn11 O5 1.944960 1_455
Mn11 O2 1.947153 1_455
Mn12 O3 1.918566 1_465
Mn12 O6 1.931876 1_455
Mn12 O10 1.936824 1_455
Mn12 O29 1.944500 1_555
Mn12 O34 1.950241 1_555
Mn12 O38 1.951075 1_565
Cr0 O9 1.898977 1_555
Cr0 O17 1.899017 1_555
Cr0 O40 1.956664 1_655
Cr0 O12 1.968386 1_555
Cr0 O44 1.981845 1_655
Cr0 O36 1.987410 1_655
Cr1 O19 1.900134 1_555
Cr1 O31 1.908286 1_555
Cr1 O45 1.968747 1_555
Cr1 O25 1.969765 1_555
Cr1 O42 1.969834 1_555
Cr1 O39 1.973229 1_555
Cr2 O30 1.896515 1_555
Cr2 O38 1.900140 1_555
Cr2 O7 1.965854 1_455
Cr2 O35 1.974527 1_555
Cr2 O11 1.977676 1_455
Cr2 O3 1.980145 1_455
