# generated using pymatgen
data_Mn8O13F3
_symmetry_space_group_name_H-M   'P 1'
_cell_length_a   4.50943900
_cell_length_b   7.45384968
_cell_length_c   7.46820417
_cell_angle_alpha   83.95348568
_cell_angle_beta   88.18204604
_cell_angle_gamma   88.61498421
_symmetry_Int_Tables_number   1
_chemical_formula_structural   Mn8O13F3
_chemical_formula_sum   'Mn8 O13 F3'
_cell_volume   249.44938875
_cell_formula_units_Z   1
loop_
 _symmetry_equiv_pos_site_id
 _symmetry_equiv_pos_as_xyz
  1  'x, y, z'
loop_
 _atom_site_type_symbol
 _atom_site_label
 _atom_site_symmetry_multiplicity
 _atom_site_fract_x
 _atom_site_fract_y
 _atom_site_fract_z
 _atom_site_occupancy
  Mn  Mn0  1  0.50114600  0.70174900  0.95205900  1
  Mn  Mn1  1  0.51724800  0.29423200  0.06180500  1
  Mn  Mn2  1  0.48632500  0.18818900  0.44839900  1
  Mn  Mn3  1  0.50020700  0.80072200  0.55589800  1
  Mn  Mn4  1  0.01403800  0.95397700  0.21006200  1
  Mn  Mn5  1  0.00753500  0.55873200  0.29391900  1
  Mn  Mn6  1  0.99199900  0.45627200  0.69874900  1
  Mn  Mn7  1  0.01627400  0.06262200  0.79565000  1
  O  O0  1  0.24185600  0.09445100  0.01827200  1
  O  O1  1  0.22855900  0.73414800  0.15322300  1
  O  O2  1  0.22876300  0.23666100  0.64878000  1
  O  O3  1  0.22583700  0.59699900  0.51148000  1
  O  O4  1  0.26406400  0.34069700  0.26648600  1
  O  O5  1  0.27320400  0.98154700  0.41278800  1
  O  O6  1  0.25958800  0.84537600  0.76727600  1
  O  O7  1  0.73378600  0.15346300  0.23788300  1
  O  O8  1  0.71966300  0.65249600  0.73216200  1
  O  O9  1  0.73557500  0.51495700  0.09559200  1
  O  O10  1  0.72813400  0.01551000  0.59425200  1
  O  O11  1  0.76589500  0.26678800  0.84562500  1
  O  O12  1  0.76400100  0.76884500  0.34129500  1
  F  F0  1  0.26890200  0.46467500  0.91455300  1
  F  F1  1  0.74900800  0.40146000  0.46719000  1
  F  F2  1  0.77839400  0.91543100  0.97660500  1
loop_
_geom_bond_atom_site_label_1
_geom_bond_atom_site_label_2
_geom_bond_distance
_geom_bond_site_symmetry_2
Mn0 O1 1.941961 1_556
Mn0 O8 1.951810 1_555
Mn0 O9 1.972681 1_556
Mn0 O6 1.991189 1_555
Mn1 O7 1.877472 1_555
Mn1 O4 1.934367 1_555
Mn1 O11 1.961946 1_554
Mn1 O9 1.980240 1_555
Mn1 O0 2.020511 1_555
Mn2 O5 1.881726 1_545
Mn2 O2 1.924147 1_555
Mn2 O10 1.935031 1_555
Mn2 O7 1.935058 1_555
Mn2 O4 1.961748 1_555
Mn3 O8 1.912145 1_555
Mn3 O5 1.925115 1_555
Mn3 O6 1.940286 1_555
Mn3 O10 1.973954 1_565
Mn3 O12 1.996437 1_555
Mn3 O3 2.041992 1_555
Mn4 O7 1.951635 1_465
Mn4 O1 1.960807 1_555
Mn4 O0 1.961126 1_565
Mn4 O12 1.963745 1_455
Mn4 O5 1.972230 1_555
Mn5 O1 1.874621 1_555
Mn5 O12 1.947562 1_455
Mn5 O3 1.975621 1_555
Mn5 O4 1.996413 1_555
Mn5 O9 2.010148 1_455
Mn6 O8 1.918421 1_555
Mn6 O3 1.954240 1_655
Mn6 O11 1.977342 1_555
Mn6 O2 1.994420 1_655
Mn7 O2 1.870234 1_555
Mn7 O11 1.933881 1_455
Mn7 O6 1.960259 1_545
Mn7 O0 2.014286 1_556
Mn7 O10 2.081157 1_455
F0 Mn1 1.947465 1_556
F0 Mn6 2.076855 1_455
F0 Mn0 2.123751 1_555
F1 Mn5 2.014603 1_655
F1 Mn2 2.024488 1_555
F1 Mn6 2.156130 1_555
F2 Mn7 1.957875 1_665
F2 Mn0 2.075058 1_555
F2 Mn4 2.118812 1_656
