# generated using pymatgen
data_Li3As
_symmetry_space_group_name_H-M   'P 1'
_cell_length_a   4.34147100
_cell_length_b   4.34147196
_cell_length_c   7.74560900
_cell_angle_alpha   90.00000000
_cell_angle_beta   90.00000000
_cell_angle_gamma   120.00000028
_symmetry_Int_Tables_number   1
_chemical_formula_structural   Li3As
_chemical_formula_sum   'Li6 As2'
_cell_volume   126.43290178
_cell_formula_units_Z   2
loop_
 _symmetry_equiv_pos_site_id
 _symmetry_equiv_pos_as_xyz
  1  'x, y, z'
loop_
 _atom_site_type_symbol
 _atom_site_label
 _atom_site_symmetry_multiplicity
 _atom_site_fract_x
 _atom_site_fract_y
 _atom_site_fract_z
 _atom_site_occupancy
  Li  Li0  1  0.00000000  0.00000000  0.25000000  1
  Li  Li1  1  0.00000000  0.00000000  0.75000000  1
  Li  Li2  1  0.33333300  0.66666700  0.58521500  1
  Li  Li3  1  0.66666700  0.33333300  0.08521500  1
  Li  Li4  1  0.66666700  0.33333300  0.41478500  1
  Li  Li5  1  0.33333300  0.66666700  0.91478500  1
  As  As0  1  0.33333300  0.66666700  0.25000000  1
  As  As1  1  0.66666700  0.33333300  0.75000000  1
loop_
_geom_bond_atom_site_label_1
_geom_bond_atom_site_label_2
_geom_bond_distance
_geom_bond_site_symmetry_2
Li0 Li4 2.812805 1_455
Li0 Li3 2.812805 1_455
Li0 Li4 2.812809 1_555
Li0 Li3 2.812809 1_555
Li0 Li4 2.812809 1_445
Li0 Li3 2.812809 1_445
Li1 Li5 2.812805 1_545
Li1 Li2 2.812805 1_545
Li1 Li5 2.812809 1_445
Li1 Li2 2.812809 1_445
Li1 Li5 2.812809 1_555
Li1 Li2 2.812809 1_555
Li2 Li5 2.552720 1_555
Li2 Li4 2.832914 1_455
Li2 Li4 2.832914 1_565
Li2 Li4 2.832921 1_555
Li3 Li4 2.552720 1_555
Li3 Li5 2.832914 1_654
Li3 Li5 2.832914 1_544
Li3 Li5 2.832921 1_554
As0 Li0 2.506547 1_565
As0 Li0 2.506551 1_665
As0 Li0 2.506551 1_555
As0 Li2 2.596444 1_555
As0 Li5 2.596444 1_554
As0 Li4 2.812805 1_455
As0 Li3 2.812805 1_455
As0 Li4 2.812806 1_565
As0 Li3 2.812806 1_565
As0 Li4 2.812812 1_555
As0 Li3 2.812812 1_555
As1 Li1 2.506547 1_655
As1 Li1 2.506551 1_555
As1 Li1 2.506551 1_665
As1 Li3 2.596444 1_556
As1 Li4 2.596444 1_555
As1 Li5 2.812805 1_655
As1 Li2 2.812805 1_655
As1 Li5 2.812806 1_545
As1 Li2 2.812806 1_545
As1 Li5 2.812812 1_555
As1 Li2 2.812812 1_555
