# generated using pymatgen
data_LiTi2Co3O10
_symmetry_space_group_name_H-M   'P 1'
_cell_length_a   4.91977100
_cell_length_b   4.97212594
_cell_length_c   7.80419131
_cell_angle_alpha   75.45696331
_cell_angle_beta   73.69393943
_cell_angle_gamma   82.69047624
_symmetry_Int_Tables_number   1
_chemical_formula_structural   LiTi2Co3O10
_chemical_formula_sum   'Li1 Ti2 Co3 O10'
_cell_volume   177.02336684
_cell_formula_units_Z   1
loop_
 _symmetry_equiv_pos_site_id
 _symmetry_equiv_pos_as_xyz
  1  'x, y, z'
loop_
 _atom_site_type_symbol
 _atom_site_label
 _atom_site_symmetry_multiplicity
 _atom_site_fract_x
 _atom_site_fract_y
 _atom_site_fract_z
 _atom_site_occupancy
  Li  Li0  1  0.67753700  0.50240100  0.45168600  1
  Ti  Ti0  1  0.12440400  0.99765700  0.31212300  1
  Ti  Ti1  1  0.89313300  0.98354600  0.67881100  1
  Co  Co0  1  0.00995600  0.50203600  0.99742900  1
  Co  Co1  1  0.70972900  0.01265600  0.09009000  1
  Co  Co2  1  0.30756400  0.99697800  0.90088200  1
  O  O0  1  0.04644200  0.79002900  0.11914700  1
  O  O1  1  0.09201700  0.22389200  0.47233300  1
  O  O2  1  0.36182100  0.20915700  0.05098100  1
  O  O3  1  0.19730100  0.74820700  0.79167700  1
  O  O4  1  0.48671500  0.82466300  0.30037200  1
  O  O5  1  0.53775300  0.17615700  0.69158800  1
  O  O6  1  0.81751100  0.25939400  0.20483400  1
  O  O7  1  0.65294800  0.79627100  0.94359900  1
  O  O8  1  0.89987600  0.76645300  0.51600000  1
  O  O9  1  0.96827000  0.21621600  0.87586800  1
loop_
_geom_bond_atom_site_label_1
_geom_bond_atom_site_label_2
_geom_bond_distance
_geom_bond_site_symmetry_2
Li0 O4 2.032921 1_555
Li0 O8 2.043729 1_555
Li0 O5 2.155259 1_555
Li0 O1 2.335726 1_655
Li0 O6 2.420281 1_555
Co0 O3 1.842550 1_555
Co0 O6 1.849665 1_456
Co0 O9 1.955042 1_455
Co0 O0 1.956852 1_556
Co0 O2 2.179705 1_556
Co0 O7 2.203075 1_455
Co1 O4 1.802821 1_545
Co1 O7 1.848277 1_544
Co1 O6 1.889985 1_555
Co1 O0 1.907658 1_645
Co1 O2 1.922360 1_555
Co1 O9 1.928984 1_554
Co2 O5 1.797589 1_565
Co2 O2 1.850486 1_566
Co2 O3 1.873595 1_555
Co2 O9 1.904171 1_465
Co2 O7 1.927138 1_555
Co2 O0 1.959076 1_556
O0 Ti0 2.164926 1_555
O1 Ti0 1.844681 1_545
O1 Ti1 1.851257 1_445
O2 Ti0 2.126768 1_545
O3 Ti1 2.039943 1_455
O4 Ti0 1.866336 1_555
O5 Ti1 1.872955 1_545
O6 Ti0 2.082543 1_645
O7 Ti1 2.115666 1_555
O8 Ti1 1.853832 1_555
O8 Ti0 1.868396 1_655
O9 Ti1 2.271907 1_545
