# generated using pymatgen
data_NaDyO2
_symmetry_space_group_name_H-M   'P 1'
_cell_length_a   6.06493690
_cell_length_b   6.06493690
_cell_length_c   6.06493690
_cell_angle_alpha   135.58349265
_cell_angle_beta   135.58349265
_cell_angle_gamma   64.62492358
_symmetry_Int_Tables_number   1
_chemical_formula_structural   NaDyO2
_chemical_formula_sum   'Na2 Dy2 O4'
_cell_volume   107.74437342
_cell_formula_units_Z   2
loop_
 _symmetry_equiv_pos_site_id
 _symmetry_equiv_pos_as_xyz
  1  'x, y, z'
loop_
 _atom_site_type_symbol
 _atom_site_label
 _atom_site_symmetry_multiplicity
 _atom_site_fract_x
 _atom_site_fract_y
 _atom_site_fract_z
 _atom_site_occupancy
  Na  Na0  1  0.00000000  0.00000000  -0.00000000  1
  Na  Na1  1  0.75000000  0.25000000  0.50000000  1
  Dy  Dy0  1  0.50000000  0.50000000  -0.00000000  1
  Dy  Dy1  1  0.25000000  0.75000000  0.50000000  1
  O  O0  1  0.47227652  0.97227652  0.50000000  1
  O  O1  1  0.27772348  0.27772348  -0.00000000  1
  O  O2  1  0.72227652  0.72227652  0.00000000  1
  O  O3  1  0.02772348  0.52772348  0.50000000  1
loop_
_geom_bond_atom_site_label_1
_geom_bond_atom_site_label_2
_geom_bond_distance
_geom_bond_site_symmetry_2
Na0 O3 2.309940 1_555
Na0 O0 2.309940 1_444
Na0 O3 2.309940 1_544
Na0 O0 2.309940 1_545
Na0 O2 2.847085 1_445
Na0 O1 2.847085 1_555
Na1 O1 2.309940 1_656
Na1 O2 2.309940 1_545
Na1 O1 2.309940 1_555
Na1 O2 2.309940 1_556
Na1 O3 2.847085 1_655
Na1 O0 2.847085 1_545
Dy0 O2 2.278670 1_555
Dy0 O1 2.278670 1_555
Dy0 O0 2.309940 1_555
Dy0 O3 2.309940 1_554
Dy0 O0 2.309940 1_544
Dy0 O3 2.309940 1_655
Dy1 O3 2.278670 1_555
Dy1 O0 2.278670 1_555
Dy1 O1 2.309940 1_555
Dy1 O2 2.309940 1_455
Dy1 O1 2.309940 1_566
Dy1 O2 2.309940 1_556
