# generated using pymatgen
data_Li2Mn3FeO8
_symmetry_space_group_name_H-M   'P 1'
_cell_length_a   8.33784200
_cell_length_b   8.33784200
_cell_length_c   8.53667300
_cell_angle_alpha   90.00000000
_cell_angle_beta   90.00000000
_cell_angle_gamma   90.00000000
_symmetry_Int_Tables_number   1
_chemical_formula_structural   Li2Mn3FeO8
_chemical_formula_sum   'Li8 Mn12 Fe4 O32'
_cell_volume   593.46617097
_cell_formula_units_Z   4
loop_
 _symmetry_equiv_pos_site_id
 _symmetry_equiv_pos_as_xyz
  1  'x, y, z'
loop_
 _atom_site_type_symbol
 _atom_site_label
 _atom_site_symmetry_multiplicity
 _atom_site_fract_x
 _atom_site_fract_y
 _atom_site_fract_z
 _atom_site_occupancy
  Li  Li0  1  0.49766600  0.74767000  0.87045300  1
  Li  Li1  1  0.25233000  0.50233400  0.62954700  1
  Li  Li2  1  0.24767000  0.00233400  0.12045300  1
  Li  Li3  1  0.00233400  0.24767000  0.87954700  1
  Li  Li4  1  0.99766600  0.75233000  0.37954700  1
  Li  Li5  1  0.75233000  0.99766600  0.62045300  1
  Li  Li6  1  0.74767000  0.49766600  0.12954700  1
  Li  Li7  1  0.50233400  0.25233000  0.37045300  1
  Mn  Mn0  1  0.37734100  0.12339200  0.75171200  1
  Mn  Mn1  1  0.37660800  0.87734100  0.50171200  1
  Mn  Mn2  1  0.37159400  0.62840600  0.25000000  1
  Mn  Mn3  1  0.12840600  0.12840600  0.50000000  1
  Mn  Mn4  1  0.12339200  0.37734100  0.24828800  1
  Mn  Mn5  1  0.12265900  0.62339200  0.99828800  1
  Mn  Mn6  1  0.87734100  0.37660800  0.49828800  1
  Mn  Mn7  1  0.87660800  0.62265900  0.74828800  1
  Mn  Mn8  1  0.87159400  0.87159400  0.00000000  1
  Mn  Mn9  1  0.62840600  0.37159400  0.75000000  1
  Mn  Mn10  1  0.62339200  0.12265900  0.00171200  1
  Mn  Mn11  1  0.62265900  0.87660800  0.25171200  1
  Fe  Fe0  1  0.37637400  0.37637400  0.00000000  1
  Fe  Fe1  1  0.12362600  0.87637400  0.75000000  1
  Fe  Fe2  1  0.87637400  0.12362600  0.25000000  1
  Fe  Fe3  1  0.62362600  0.62362600  0.50000000  1
  O  O0  1  0.39086700  0.35586000  0.76051300  1
  O  O1  1  0.39147900  0.12794600  0.97948900  1
  O  O2  1  0.38579200  0.86625200  0.26997100  1
  O  O3  1  0.37205400  0.89147900  0.72948900  1
  O  O4  1  0.38575800  0.64964900  0.50487100  1
  O  O5  1  0.36625200  0.11420800  0.51997100  1
  O  O6  1  0.35586000  0.39086700  0.23948700  1
  O  O7  1  0.35035100  0.61424200  0.99512900  1
  O  O8  1  0.14964900  0.11424200  0.75487100  1
  O  O9  1  0.14414000  0.89086700  0.51051300  1
  O  O10  1  0.13374800  0.61420800  0.23002900  1
  O  O11  1  0.11424200  0.14964900  0.24512900  1
  O  O12  1  0.12794600  0.39147900  0.02051100  1
  O  O13  1  0.11420800  0.36625200  0.48002900  1
  O  O14  1  0.10852100  0.62794600  0.77051100  1
  O  O15  1  0.10913300  0.85586000  0.98948700  1
  O  O16  1  0.89086700  0.14414000  0.48948700  1
  O  O17  1  0.89147900  0.37205400  0.27051100  1
  O  O18  1  0.88579200  0.63374800  0.98002900  1
  O  O19  1  0.87205400  0.60852100  0.52051100  1
  O  O20  1  0.88575800  0.85035100  0.74512900  1
  O  O21  1  0.86625200  0.38579200  0.73002900  1
  O  O22  1  0.85586000  0.10913300  0.01051300  1
  O  O23  1  0.85035100  0.88575800  0.25487100  1
  O  O24  1  0.64964900  0.38575800  0.49512900  1
  O  O25  1  0.64414000  0.60913300  0.73948700  1
  O  O26  1  0.63374800  0.88579200  0.01997100  1
  O  O27  1  0.61424200  0.35035100  0.00487100  1
  O  O28  1  0.62794600  0.10852100  0.22948900  1
  O  O29  1  0.61420800  0.13374800  0.76997100  1
  O  O30  1  0.60852100  0.87205400  0.47948900  1
  O  O31  1  0.60913300  0.64414000  0.26051300  1
loop_
_geom_bond_atom_site_label_1
_geom_bond_atom_site_label_2
_geom_bond_distance
_geom_bond_site_symmetry_2
Li0 O7 1.969550 1_555
Li0 O3 1.995677 1_555
Li0 O25 2.018843 1_555
Li0 O26 2.059811 1_556
Li1 O4 1.969550 1_555
Li1 O14 1.995677 1_555
Li1 O0 2.018843 1_555
Li1 O13 2.059811 1_555
Li2 O11 1.969550 1_555
Li2 O1 1.995677 1_554
Li2 O15 2.018843 1_544
Li2 O2 2.059811 1_545
Li3 O8 1.969550 1_555
Li3 O12 1.995677 1_556
Li3 O22 2.018843 1_456
Li3 O21 2.059811 1_455
Li4 O23 1.969550 1_555
Li4 O19 1.995677 1_555
Li4 O9 2.018843 1_655
Li4 O10 2.059811 1_655
Li5 O20 1.969550 1_555
Li5 O30 1.995677 1_555
Li5 O16 2.018843 1_565
Li5 O29 2.059811 1_565
Li6 O27 1.969550 1_555
Li6 O17 1.995677 1_555
Li6 O31 2.018843 1_555
Li6 O18 2.059811 1_554
Li7 O24 1.969550 1_555
Li7 O28 1.995677 1_555
Li7 O6 2.018843 1_555
Li7 O5 2.059811 1_555
Mn0 O8 1.900184 1_555
Mn0 O0 1.943013 1_555
Mn0 O3 1.943438 1_545
Mn0 O1 1.948398 1_555
Mn0 O5 1.981936 1_555
Mn0 O29 1.982982 1_555
Mn1 O4 1.900184 1_555
Mn1 O9 1.943013 1_555
Mn1 O30 1.943438 1_555
Mn1 O3 1.948398 1_555
Mn1 O2 1.981936 1_555
Mn1 O5 1.982982 1_565
Mn2 O6 1.986931 1_555
Mn2 O31 1.986931 1_555
Mn2 O10 1.993954 1_555
Mn2 O2 1.993954 1_555
Mn2 O7 2.186140 1_554
Mn2 O4 2.186140 1_555
Mn3 O16 1.986931 1_455
Mn3 O9 1.986931 1_545
Mn3 O13 1.993954 1_555
Mn3 O5 1.993954 1_555
Mn3 O11 2.186140 1_555
Mn3 O8 2.186140 1_555
Mn4 O11 1.900184 1_555
Mn4 O6 1.943013 1_555
Mn4 O17 1.943438 1_455
Mn4 O12 1.948398 1_555
Mn4 O13 1.981936 1_555
Mn4 O10 1.982982 1_555
Mn5 O7 1.900184 1_555
Mn5 O15 1.943013 1_555
Mn5 O12 1.943438 1_556
Mn5 O14 1.948398 1_555
Mn5 O10 1.981936 1_556
Mn5 O18 1.982982 1_455
Mn6 O24 1.900184 1_555
Mn6 O16 1.943013 1_555
Mn6 O19 1.943438 1_555
Mn6 O17 1.948398 1_555
Mn6 O21 1.981936 1_555
Mn6 O13 1.982982 1_655
Mn7 O20 1.900184 1_555
Mn7 O25 1.943013 1_555
Mn7 O14 1.943438 1_655
Mn7 O19 1.948398 1_555
Mn7 O18 1.981936 1_555
Mn7 O21 1.982982 1_555
Mn8 O22 1.986931 1_565
Mn8 O15 1.986931 1_654
Mn8 O26 1.993954 1_555
Mn8 O18 1.993954 1_554
Mn8 O20 2.186140 1_554
Mn8 O23 2.186140 1_555
Mn9 O0 1.986931 1_555
Mn9 O25 1.986931 1_555
Mn9 O29 1.993954 1_555
Mn9 O21 1.993954 1_555
Mn9 O24 2.186140 1_555
Mn9 O27 2.186140 1_556
Mn10 O27 1.900184 1_555
Mn10 O22 1.943013 1_555
Mn10 O1 1.943438 1_554
Mn10 O28 1.948398 1_555
Mn10 O29 1.981936 1_554
Mn10 O26 1.982982 1_545
Mn11 O23 1.900184 1_555
Mn11 O31 1.943013 1_555
Mn11 O28 1.943438 1_565
Mn11 O30 1.948398 1_555
Mn11 O26 1.981936 1_555
Mn11 O2 1.982982 1_555
Fe0 O7 1.995572 1_554
Fe0 O27 1.995572 1_555
Fe0 O0 2.055120 1_554
Fe0 O6 2.055120 1_555
Fe0 O1 2.082553 1_554
Fe0 O12 2.082553 1_555
Fe1 O8 1.995572 1_565
Fe1 O20 1.995572 1_455
Fe1 O15 2.055120 1_555
Fe1 O9 2.055120 1_555
Fe1 O14 2.082553 1_555
Fe1 O3 2.082553 1_555
Fe2 O23 1.995572 1_545
Fe2 O11 1.995572 1_655
Fe2 O16 2.055120 1_555
Fe2 O22 2.055120 1_555
Fe2 O28 2.082553 1_555
Fe2 O17 2.082553 1_555
Fe3 O4 1.995572 1_555
Fe3 O24 1.995572 1_555
Fe3 O31 2.055120 1_555
Fe3 O25 2.055120 1_555
Fe3 O30 2.082553 1_555
Fe3 O19 2.082553 1_555
