# generated using pymatgen
data_LaSi
_symmetry_space_group_name_H-M   'P 1'
_cell_length_a   4.60491837
_cell_length_b   6.64603379
_cell_length_c   7.10898102
_cell_angle_alpha   90.00000000
_cell_angle_beta   108.89774504
_cell_angle_gamma   90.00000000
_symmetry_Int_Tables_number   1
_chemical_formula_structural   LaSi
_chemical_formula_sum   'La4 Si4'
_cell_volume   205.83916404
_cell_formula_units_Z   4
loop_
 _symmetry_equiv_pos_site_id
 _symmetry_equiv_pos_as_xyz
  1  'x, y, z'
loop_
 _atom_site_type_symbol
 _atom_site_label
 _atom_site_symmetry_multiplicity
 _atom_site_fract_x
 _atom_site_fract_y
 _atom_site_fract_z
 _atom_site_occupancy
  La  La0  1  0.72501644  0.75000000  0.45003188  1
  La  La1  1  0.27498356  0.25000000  0.54996812  1
  La  La2  1  0.44851633  0.75000000  0.89703467  1
  La  La3  1  0.55148367  0.25000000  0.10296533  1
  Si  Si0  1  0.90868465  0.06387269  0.81736830  1
  Si  Si1  1  0.09131535  0.93612731  0.18263170  1
  Si  Si2  1  0.09131535  0.56387269  0.18263170  1
  Si  Si3  1  0.90868465  0.43612731  0.81736830  1
loop_
_geom_bond_atom_site_label_1
_geom_bond_atom_site_label_2
_geom_bond_distance
_geom_bond_site_symmetry_2
La0 Si1 3.172698 1_655
La0 Si2 3.172698 1_655
La0 Si1 3.172705 1_555
La0 Si2 3.172705 1_555
La0 Si0 3.233487 1_565
La0 Si3 3.233487 1_555
La1 Si0 3.172698 1_455
La1 Si3 3.172698 1_455
La1 Si3 3.172705 1_555
La1 Si0 3.172705 1_555
La1 Si1 3.233487 1_545
La1 Si2 3.233487 1_555
La2 Si0 3.152748 1_465
La2 Si3 3.152748 1_455
La2 Si0 3.152758 1_565
La2 Si3 3.152758 1_555
La2 Si2 3.243644 1_556
La2 Si1 3.243644 1_556
La2 Si2 3.243647 1_656
La2 Si1 3.243647 1_656
La3 Si1 3.152748 1_645
La3 Si2 3.152748 1_655
La3 Si2 3.152758 1_555
La3 Si1 3.152758 1_545
La3 Si3 3.243644 1_554
La3 Si0 3.243644 1_554
La3 Si0 3.243647 1_454
La3 Si3 3.243647 1_454
Si0 Si3 2.474017 1_555
Si0 Si1 2.599251 1_646
Si1 Si2 2.474017 1_555
Si2 Si3 2.599251 1_454
