# generated using pymatgen
data_Na2Si(H3O2)6
_symmetry_space_group_name_H-M   'P 1'
_cell_length_a   11.79742630
_cell_length_b   11.79742630
_cell_length_c   11.79742630
_cell_angle_alpha   121.50831694
_cell_angle_beta   120.41474880
_cell_angle_gamma   88.34517679
_symmetry_Int_Tables_number   1
_chemical_formula_structural   Na2Si(H3O2)6
_chemical_formula_sum   'Na8 Si4 H72 O48'
_cell_volume   1143.51231432
_cell_formula_units_Z   4
loop_
 _symmetry_equiv_pos_site_id
 _symmetry_equiv_pos_as_xyz
  1  'x, y, z'
loop_
 _atom_site_type_symbol
 _atom_site_label
 _atom_site_symmetry_multiplicity
 _atom_site_fract_x
 _atom_site_fract_y
 _atom_site_fract_z
 _atom_site_occupancy
  Na  Na0  1  0.19249800  0.90621300  0.46627000  1
  Na  Na1  1  0.56005700  0.59378700  0.78628500  1
  Na  Na2  1  0.93994300  0.72622800  0.03373000  1
  Na  Na3  1  0.30750200  0.77377200  0.71371500  1
  Na  Na4  1  0.80750200  0.09378700  0.53373000  1
  Na  Na5  1  0.43994300  0.40621300  0.21371500  1
  Na  Na6  1  0.06005700  0.27377200  0.96627000  1
  Na  Na7  1  0.69249800  0.22622800  0.28628500  1
  Si  Si0  1  0.12861700  0.25000000  0.37861700  1
  Si  Si1  1  0.37138300  0.75000000  0.12138300  1
  Si  Si2  1  0.87138300  0.75000000  0.62138300  1
  Si  Si3  1  0.62861700  0.25000000  0.87861700  1
  H  H0  1  0.24409200  0.35731800  0.64941800  1
  H  H1  1  0.29210000  0.14268200  0.38677400  1
  H  H2  1  0.20790000  0.59467400  0.85058200  1
  H  H3  1  0.25590800  0.90532600  0.11322600  1
  H  H4  1  0.75590800  0.64268200  0.35058200  1
  H  H5  1  0.70790000  0.85731800  0.61322600  1
  H  H6  1  0.79210000  0.40532600  0.14941800  1
  H  H7  1  0.74409200  0.09467400  0.88677400  1
  H  H8  1  0.36054900  0.94559100  0.38181600  1
  H  H9  1  0.43622500  0.55440900  0.91495800  1
  H  H10  1  0.06377500  0.97873300  0.11818400  1
  H  H11  1  0.13945100  0.52126700  0.58504200  1
  H  H12  1  0.63945100  0.05440900  0.61818400  1
  H  H13  1  0.56377500  0.44559100  0.08504200  1
  H  H14  1  0.93622500  0.02126700  0.88181600  1
  H  H15  1  0.86054900  0.47873300  0.41495800  1
  H  H16  1  0.43983800  0.09919900  0.54729200  1
  H  H17  1  0.44809300  0.40080100  0.84063900  1
  H  H18  1  0.05190700  0.89254600  0.95270800  1
  H  H19  1  0.06016200  0.60745400  0.65936100  1
  H  H20  1  0.56016200  0.90080100  0.45270800  1
  H  H21  1  0.55190700  0.59919900  0.15936100  1
  H  H22  1  0.94809300  0.10745400  0.04729200  1
  H  H23  1  0.93983800  0.39254600  0.34063900  1
  H  H24  1  0.33425700  0.18721800  0.76440500  1
  H  H25  1  0.57718700  0.31278200  0.64703800  1
  H  H26  1  0.92281300  0.56985200  0.73559500  1
  H  H27  1  0.16574300  0.93014800  0.85296200  1
  H  H28  1  0.66574300  0.81278200  0.23559500  1
  H  H29  1  0.42281300  0.68721800  0.35296200  1
  H  H30  1  0.07718700  0.43014800  0.26440500  1
  H  H31  1  0.83425700  0.06985200  0.14703800  1
  H  H32  1  0.19279300  0.17384500  0.62302300  1
  H  H33  1  0.44917700  0.32615500  0.51894800  1
  H  H34  1  0.05082300  0.56977000  0.87697700  1
  H  H35  1  0.30720700  0.93023000  0.98105200  1
  H  H36  1  0.80720700  0.82615500  0.37697700  1
  H  H37  1  0.55082300  0.67384500  0.48105200  1
  H  H38  1  0.94917700  0.43023000  0.12302300  1
  H  H39  1  0.69279300  0.06977000  0.01894800  1
  H  H40  1  0.99760900  0.27384500  0.53951400  1
  H  H41  1  0.26567000  0.22615500  0.22376500  1
  H  H42  1  0.23433000  0.45809500  0.96048600  1
  H  H43  1  0.50239100  0.04190500  0.27623500  1
  H  H44  1  0.00239100  0.72615500  0.46048600  1
  H  H45  1  0.73433000  0.77384500  0.77623500  1
  H  H46  1  0.76567000  0.54190500  0.03951400  1
  H  H47  1  0.49760900  0.95809500  0.72376500  1
  H  H48  1  0.92669700  0.35689600  0.62536600  1
  H  H49  1  0.26847100  0.14310400  0.06980100  1
  H  H50  1  0.23152900  0.30133100  0.87463400  1
  H  H51  1  0.57330300  0.19866900  0.43019900  1
  H  H52  1  0.07330300  0.64310400  0.37463400  1
  H  H53  1  0.73152900  0.85689600  0.93019900  1
  H  H54  1  0.76847100  0.69866900  0.12536600  1
  H  H55  1  0.42669700  0.80133100  0.56980100  1
  H  H56  1  0.98656500  0.00049600  0.27186400  1
  H  H57  1  0.27136800  0.49950400  0.48606900  1
  H  H58  1  0.22863200  0.71470100  0.22813600  1
  H  H59  1  0.51343500  0.78529900  0.01393100  1
  H  H60  1  0.01343500  0.99950400  0.72813600  1
  H  H61  1  0.72863200  0.50049600  0.51393100  1
  H  H62  1  0.77136800  0.28529900  0.77186400  1
  H  H63  1  0.48656500  0.21470100  0.98606900  1
  H  H64  1  0.90547700  0.91786700  0.29632400  1
  H  H65  1  0.37845700  0.58213300  0.48761000  1
  H  H66  1  0.12154300  0.60915200  0.20367600  1
  H  H67  1  0.59452300  0.89084800  0.01239000  1
  H  H68  1  0.09452300  0.08213300  0.70367600  1
  H  H69  1  0.62154300  0.41786700  0.51239000  1
  H  H70  1  0.87845700  0.39084800  0.79632400  1
  H  H71  1  0.40547700  0.10915200  0.98761000  1
  O  O0  1  0.15776900  0.27576600  0.54746200  1
  O  O1  1  0.27169700  0.22423400  0.38200300  1
  O  O2  1  0.22830300  0.61030700  0.95253800  1
  O  O3  1  0.34223100  0.88969300  0.11799700  1
  O  O4  1  0.84223100  0.72423400  0.45253800  1
  O  O5  1  0.72830300  0.77576600  0.61799700  1
  O  O6  1  0.77169700  0.38969300  0.04746200  1
  O  O7  1  0.65776900  0.11030700  0.88200300  1
  O  O8  1  0.99964700  0.10726600  0.22002600  1
  O  O9  1  0.11276000  0.39273400  0.39238100  1
  O  O10  1  0.38724000  0.77962100  0.27997400  1
  O  O11  1  0.50035300  0.72037900  0.10761900  1
  O  O12  1  0.00035300  0.89273400  0.77997400  1
  O  O13  1  0.88724000  0.60726600  0.60761900  1
  O  O14  1  0.61276000  0.22037900  0.72002600  1
  O  O15  1  0.49964700  0.27962100  0.89238100  1
  O  O16  1  0.34560700  0.03442200  0.44599300  1
  O  O17  1  0.41157000  0.46557800  0.81118500  1
  O  O18  1  0.08843000  0.89961400  0.05400700  1
  O  O19  1  0.15439300  0.60038600  0.68881500  1
  O  O20  1  0.65439300  0.96557800  0.55400700  1
  O  O21  1  0.58843000  0.53442200  0.18881500  1
  O  O22  1  0.91157000  0.10038600  0.94599300  1
  O  O23  1  0.84560700  0.39961400  0.31118500  1
  O  O24  1  0.23000500  0.14135800  0.69373000  1
  O  O25  1  0.55237200  0.35864200  0.58864700  1
  O  O26  1  0.94762800  0.53627500  0.80627000  1
  O  O27  1  0.26999500  0.96372500  0.91135300  1
  O  O28  1  0.76999500  0.85864200  0.30627000  1
  O  O29  1  0.44762800  0.64135800  0.41135300  1
  O  O30  1  0.05237200  0.46372500  0.19373000  1
  O  O31  1  0.73000500  0.03627500  0.08864700  1
  O  O32  1  0.90905100  0.26684100  0.52917000  1
  O  O33  1  0.26232900  0.23315900  0.14221000  1
  O  O34  1  0.23767100  0.37988100  0.97083000  1
  O  O35  1  0.59094900  0.12011900  0.35779000  1
  O  O36  1  0.09094900  0.73315900  0.47083000  1
  O  O37  1  0.73767100  0.76684100  0.85779000  1
  O  O38  1  0.76232900  0.62011900  0.02917000  1
  O  O39  1  0.40905100  0.87988100  0.64221000  1
  O  O40  1  0.98423400  0.92658200  0.28951900  1
  O  O41  1  0.36293700  0.57341800  0.55765200  1
  O  O42  1  0.13706300  0.69471500  0.21048100  1
  O  O43  1  0.51576600  0.80528500  0.94234800  1
  O  O44  1  0.01576600  0.07341800  0.71048100  1
  O  O45  1  0.63706300  0.42658200  0.44234800  1
  O  O46  1  0.86293700  0.30528500  0.78951900  1
  O  O47  1  0.48423400  0.19471500  0.05765200  1
loop_
_geom_bond_atom_site_label_1
_geom_bond_atom_site_label_2
_geom_bond_distance
_geom_bond_site_symmetry_2
Na0 O40 2.396835 1_455
Na0 O36 2.434657 1_555
Na0 O42 2.446537 1_555
Na0 O24 2.485963 1_565
Na0 O39 2.488098 1_555
Na0 O16 2.565379 1_565
Na1 O41 2.396835 1_555
Na1 O37 2.434657 1_555
Na1 O43 2.446537 1_555
Na1 O25 2.485963 1_555
Na1 O38 2.488098 1_556
Na1 O17 2.565388 1_555
Na2 O42 2.396835 1_655
Na2 O38 2.434657 1_555
Na2 O40 2.446537 1_555
Na2 O26 2.485963 1_554
Na2 O37 2.488098 1_554
Na2 O18 2.565387 1_655
Na3 O43 2.396835 1_555
Na3 O39 2.434657 1_555
Na3 O41 2.446537 1_555
Na3 O27 2.485963 1_555
Na3 O36 2.488098 1_555
Na3 O19 2.565379 1_555
Na4 O44 2.396835 1_655
Na4 O32 2.434657 1_555
Na4 O46 2.446537 1_555
Na4 O28 2.485963 1_545
Na4 O35 2.488098 1_555
Na4 O20 2.565379 1_545
Na5 O45 2.396835 1_555
Na5 O33 2.434657 1_555
Na5 O47 2.446537 1_555
Na5 O29 2.485963 1_555
Na5 O34 2.488098 1_554
Na5 O21 2.565388 1_555
Na6 O46 2.396835 1_455
Na6 O34 2.434657 1_555
Na6 O44 2.446537 1_555
Na6 O30 2.485963 1_556
Na6 O33 2.488098 1_556
Na6 O22 2.565387 1_455
Na7 O47 2.396835 1_555
Na7 O35 2.434657 1_555
Na7 O45 2.446537 1_555
Na7 O31 2.485963 1_555
Na7 O32 2.488098 1_555
Na7 O23 2.565379 1_555
H0 O0 1.008099 1_555
H1 O1 1.008097 1_555
H2 O2 1.008103 1_555
H3 O3 1.008099 1_555
H4 O4 1.008099 1_555
H5 O5 1.008097 1_555
H6 O6 1.008103 1_555
H7 O7 1.008099 1_555
H8 O16 0.998840 1_565
H9 O17 0.998837 1_555
H10 O18 0.998848 1_555
H11 O19 0.998840 1_555
H12 O20 0.998840 1_545
H13 O21 0.998837 1_555
H14 O22 0.998848 1_555
H15 O23 0.998840 1_555
H16 O16 0.998672 1_555
H17 O17 0.998674 1_555
H18 O18 0.998670 1_556
H19 O19 0.998672 1_555
H20 O20 0.998672 1_555
H21 O21 0.998674 1_555
H22 O22 0.998670 1_554
H23 O23 0.998672 1_555
H24 O24 1.014490 1_555
H24 O15 1.641561 1_555
H25 O25 1.014481 1_555
H25 O14 1.641569 1_555
H26 O26 1.014490 1_555
H26 O13 1.641561 1_555
H27 O27 1.014492 1_555
H27 O12 1.641558 1_555
H28 O28 1.014490 1_555
H28 O11 1.641561 1_555
H29 O29 1.014481 1_555
H29 O10 1.641569 1_555
H30 O30 1.014490 1_555
H30 O9 1.641561 1_555
H31 O31 1.014492 1_555
H31 O8 1.641558 1_555
H32 O24 0.994539 1_555
H33 O25 0.994548 1_555
H34 O26 0.994548 1_455
H35 O27 0.994539 1_555
H36 O28 0.994539 1_555
H37 O29 0.994548 1_555
H38 O30 0.994548 1_655
H39 O31 0.994539 1_555
H40 O32 0.989238 1_555
H41 O33 0.989245 1_555
H42 O34 0.989238 1_555
H43 O35 0.989238 1_555
H44 O36 0.989238 1_555
H45 O37 0.989245 1_555
H46 O38 0.989238 1_555
H47 O39 0.989238 1_555
H48 O32 0.986560 1_555
H49 O33 0.986565 1_555
H50 O34 0.986554 1_555
H51 O35 0.986560 1_555
H52 O36 0.986560 1_555
H53 O37 0.986565 1_555
H54 O38 0.986554 1_555
H55 O39 0.986560 1_555
H56 O40 1.000768 1_545
H56 O8 1.701883 1_555
H57 O41 1.000768 1_555
H57 O9 1.701883 1_555
H58 O42 1.000768 1_555
H58 O10 1.701883 1_555
H59 O43 1.000768 1_554
H59 O11 1.701883 1_555
H60 O44 1.000768 1_565
H60 O12 1.701883 1_555
H61 O45 1.000768 1_555
H61 O13 1.701883 1_555
H62 O46 1.000768 1_555
H62 O14 1.701883 1_555
H63 O47 1.000768 1_556
H63 O15 1.701883 1_555
H64 O40 0.984870 1_555
H65 O41 0.984870 1_555
H66 O42 0.984881 1_555
H67 O43 0.984877 1_554
H68 O44 0.984870 1_555
H69 O45 0.984870 1_555
H70 O46 0.984881 1_555
H71 O47 0.984877 1_556
O0 Si0 1.690563 1_555
O1 Si0 1.690575 1_555
O2 Si1 1.690568 1_556
O3 Si1 1.690563 1_555
O4 Si2 1.690563 1_555
O5 Si2 1.690575 1_555
O6 Si3 1.690568 1_554
O7 Si3 1.690563 1_555
O8 Si0 1.619760 1_655
O9 Si0 1.619760 1_555
O10 Si1 1.619760 1_555
O11 Si1 1.619760 1_555
O12 Si2 1.619760 1_455
O13 Si2 1.619760 1_555
O14 Si3 1.619760 1_555
O15 Si3 1.619760 1_555
