# generated using pymatgen
data_Li4CrH8SO7
_symmetry_space_group_name_H-M   'P 1'
_cell_length_a   13.15412000
_cell_length_b   5.35777600
_cell_length_c   10.54289254
_cell_angle_alpha   74.92902081
_cell_angle_beta   90.00000000
_cell_angle_gamma   90.00000000
_symmetry_Int_Tables_number   1
_chemical_formula_structural   Li4CrH8SO7
_chemical_formula_sum   'Li16 Cr4 H32 S4 O28'
_cell_volume   717.47271937
_cell_formula_units_Z   4
loop_
 _symmetry_equiv_pos_site_id
 _symmetry_equiv_pos_as_xyz
  1  'x, y, z'
loop_
 _atom_site_type_symbol
 _atom_site_label
 _atom_site_symmetry_multiplicity
 _atom_site_fract_x
 _atom_site_fract_y
 _atom_site_fract_z
 _atom_site_occupancy
  Li  Li0  1  0.69835500  0.98697700  0.75920500  1
  Li  Li1  1  0.04901200  0.74848800  0.99206000  1
  Li  Li2  1  0.28027000  0.75129000  0.97770900  1
  Li  Li3  1  0.80164500  0.98697700  0.25920500  1
  Li  Li4  1  0.45098800  0.74848800  0.49206000  1
  Li  Li5  1  0.21973000  0.75129000  0.47770900  1
  Li  Li6  1  0.78322100  0.50173200  0.77769800  1
  Li  Li7  1  0.28322100  0.49826800  0.72230200  1
  Li  Li8  1  0.71677900  0.50173200  0.27769800  1
  Li  Li9  1  0.21677900  0.49826800  0.22230200  1
  Li  Li10  1  0.78027000  0.24871000  0.52229100  1
  Li  Li11  1  0.54901200  0.25151200  0.50794000  1
  Li  Li12  1  0.19835500  0.01302300  0.74079500  1
  Li  Li13  1  0.71973000  0.24871000  0.02229100  1
  Li  Li14  1  0.95098800  0.25151200  0.00794000  1
  Li  Li15  1  0.30164500  0.01302300  0.24079500  1
  Cr  Cr0  1  0.68575100  0.75032100  0.51659800  1
  Cr  Cr1  1  0.81424900  0.75032100  0.01659800  1
  Cr  Cr2  1  0.18575100  0.24967900  0.98340200  1
  Cr  Cr3  1  0.31424900  0.24967900  0.48340200  1
  H  H0  1  0.35819300  0.86413600  0.67084100  1
  H  H1  1  0.45925400  0.78526300  0.85344400  1
  H  H2  1  0.93161100  0.74860400  0.82044700  1
  H  H3  1  0.85839100  0.85431400  0.62052600  1
  H  H4  1  0.63754700  0.66549300  0.93793100  1
  H  H5  1  0.54065400  0.76649200  0.68595700  1
  H  H6  1  0.11941700  0.60434400  0.80412000  1
  H  H7  1  0.14180700  0.86413600  0.17084100  1
  H  H8  1  0.04074600  0.78526300  0.35344400  1
  H  H9  1  0.56838900  0.74860400  0.32044700  1
  H  H10  1  0.64160900  0.85431400  0.12052600  1
  H  H11  1  0.46143700  0.48020700  0.86069900  1
  H  H12  1  0.86245300  0.66549300  0.43793100  1
  H  H13  1  0.95934600  0.76649200  0.18595700  1
  H  H14  1  0.96143700  0.51979300  0.63930100  1
  H  H15  1  0.61941700  0.39565600  0.69588000  1
  H  H16  1  0.38058300  0.60434400  0.30412000  1
  H  H17  1  0.03856300  0.48020700  0.36069900  1
  H  H18  1  0.04065400  0.23350800  0.81404300  1
  H  H19  1  0.13754700  0.33450700  0.56206900  1
  H  H20  1  0.53856300  0.51979300  0.13930100  1
  H  H21  1  0.35839100  0.14568600  0.87947400  1
  H  H22  1  0.43161100  0.25139600  0.67955300  1
  H  H23  1  0.95925400  0.21473700  0.64655600  1
  H  H24  1  0.85819300  0.13586400  0.82915900  1
  H  H25  1  0.88058300  0.39565600  0.19588000  1
  H  H26  1  0.45934600  0.23350800  0.31404300  1
  H  H27  1  0.36245300  0.33450700  0.06206900  1
  H  H28  1  0.14160900  0.14568600  0.37947400  1
  H  H29  1  0.06838900  0.25139600  0.17955300  1
  H  H30  1  0.54074600  0.21473700  0.14655600  1
  H  H31  1  0.64180700  0.13586400  0.32915900  1
  S  S0  1  0.02639000  0.90577700  0.59539100  1
  S  S1  1  0.47361000  0.90577700  0.09539100  1
  S  S2  1  0.52639000  0.09422300  0.90460900  1
  S  S3  1  0.97361000  0.09422300  0.40460900  1
  O  O0  1  0.30262000  0.89223600  0.60699600  1
  O  O1  1  0.57596100  0.88753400  0.61417300  1
  O  O2  1  0.78494600  0.86836300  0.63632200  1
  O  O3  1  0.70502800  0.61909300  0.91372100  1
  O  O4  1  0.91840800  0.62523300  0.90508100  1
  O  O5  1  0.42087100  0.64223300  0.82903500  1
  O  O6  1  0.18065100  0.60955500  0.85526200  1
  O  O7  1  0.19738000  0.89223600  0.10699600  1
  O  O8  1  0.92403900  0.88753400  0.11417300  1
  O  O9  1  0.71505400  0.86836300  0.13632200  1
  O  O10  1  0.79497200  0.61909300  0.41372100  1
  O  O11  1  0.58159200  0.62523300  0.40508100  1
  O  O12  1  0.07912900  0.64223300  0.32903500  1
  O  O13  1  0.31934900  0.60955500  0.35526200  1
  O  O14  1  0.68065100  0.39044500  0.64473800  1
  O  O15  1  0.92087100  0.35776700  0.67096500  1
  O  O16  1  0.41840800  0.37476700  0.59491900  1
  O  O17  1  0.20502800  0.38090700  0.58627900  1
  O  O18  1  0.28494600  0.13163700  0.86367800  1
  O  O19  1  0.07596100  0.11246600  0.88582700  1
  O  O20  1  0.80262000  0.10776400  0.89300400  1
  O  O21  1  0.81934900  0.39044500  0.14473800  1
  O  O22  1  0.57912900  0.35776700  0.17096500  1
  O  O23  1  0.08159200  0.37476700  0.09491900  1
  O  O24  1  0.29497200  0.38090700  0.08627900  1
  O  O25  1  0.21505400  0.13163700  0.36367800  1
  O  O26  1  0.42403900  0.11246600  0.38582700  1
  O  O27  1  0.69738000  0.10776400  0.39300400  1
loop_
_geom_bond_atom_site_label_1
_geom_bond_atom_site_label_2
_geom_bond_distance
_geom_bond_site_symmetry_2
Li0 O2 1.951369 1_555
Li0 O20 2.182764 1_565
Li0 O14 2.197022 1_565
Li0 O3 2.208329 1_555
Li0 O1 2.374361 1_555
Li1 O19 2.011764 1_565
Li1 O23 2.059062 1_556
Li1 O4 2.131519 1_455
Li2 O24 2.025916 1_556
Li2 O7 2.037725 1_556
Li2 O18 2.080330 1_565
Li2 O6 2.114274 1_555
Li3 O9 1.951369 1_555
Li3 O27 2.182764 1_565
Li3 O21 2.197022 1_565
Li3 O10 2.208329 1_555
Li3 O8 2.374361 1_555
Li4 O26 2.011764 1_565
Li4 O16 2.059062 1_555
Li4 O11 2.131519 1_555
Li5 O17 2.025916 1_555
Li5 O0 2.037725 1_555
Li5 O25 2.080330 1_565
Li5 O13 2.114274 1_555
Li6 O3 1.994699 1_555
Li6 O2 2.134982 1_555
Li6 O14 2.139053 1_555
Li6 O20 2.159626 1_555
Li6 O15 2.364544 1_555
Li6 O4 2.421940 1_555
Li7 O17 1.994699 1_555
Li7 O18 2.134982 1_555
Li7 O6 2.139053 1_555
Li7 O0 2.159626 1_555
Li7 O5 2.364544 1_555
Li7 O16 2.421940 1_555
Li8 O10 1.994699 1_555
Li8 O9 2.134982 1_555
Li8 O21 2.139053 1_555
Li8 O27 2.159626 1_555
Li8 O22 2.364544 1_555
Li8 O11 2.421940 1_555
Li9 O24 1.994699 1_555
Li9 O25 2.134982 1_555
Li9 O13 2.139053 1_555
Li9 O7 2.159626 1_555
Li9 O12 2.364544 1_555
Li9 O23 2.421940 1_555
Li10 O10 2.025916 1_555
Li10 O27 2.037725 1_555
Li10 O2 2.080330 1_545
Li10 O14 2.114274 1_555
Li11 O1 2.011764 1_545
Li11 O11 2.059062 1_555
Li11 O16 2.131519 1_555
Li12 O18 1.951369 1_555
Li12 O0 2.182764 1_545
Li12 O6 2.197022 1_545
Li12 O17 2.208329 1_555
Li12 O19 2.374361 1_555
Li13 O3 2.025916 1_554
Li13 O20 2.037725 1_554
Li13 O9 2.080330 1_545
Li13 O21 2.114274 1_555
Li14 O8 2.011764 1_545
Li14 O4 2.059062 1_554
Li14 O23 2.131519 1_655
Li15 O25 1.951369 1_555
Li15 O7 2.182764 1_545
Li15 O13 2.197022 1_545
Li15 O24 2.208329 1_555
Li15 O26 2.374361 1_555
Cr0 O1 2.019331 1_555
Cr0 O27 2.022673 1_565
Cr0 O2 2.027542 1_555
Cr0 O11 2.029396 1_555
Cr0 O10 2.032592 1_555
Cr0 O14 2.047612 1_555
Cr1 O8 2.019331 1_555
Cr1 O20 2.022673 1_564
Cr1 O9 2.027542 1_555
Cr1 O4 2.029396 1_554
Cr1 O3 2.032592 1_554
Cr1 O21 2.047612 1_555
Cr2 O19 2.019331 1_555
Cr2 O7 2.022673 1_546
Cr2 O18 2.027542 1_555
Cr2 O23 2.029396 1_556
Cr2 O24 2.032592 1_556
Cr2 O6 2.047612 1_555
Cr3 O26 2.019331 1_555
Cr3 O0 2.022673 1_545
Cr3 O25 2.027542 1_555
Cr3 O16 2.029396 1_555
Cr3 O17 2.032592 1_555
Cr3 O13 2.047612 1_555
H0 O0 0.978482 1_555
H0 Li7 2.134573 1_555
H1 O5 1.005459 1_555
H2 O4 0.978029 1_555
H3 O2 0.986548 1_555
H4 O3 0.973590 1_555
H5 O1 0.976627 1_555
H6 O6 0.973717 1_555
H7 O7 0.978482 1_555
H7 Li9 2.134573 1_555
H8 O12 1.005459 1_555
H9 O11 0.978029 1_555
H10 O9 0.986548 1_555
H11 O5 0.999537 1_555
H12 O10 0.973590 1_555
H13 O8 0.976627 1_555
H14 O15 0.999537 1_555
H15 O14 0.973717 1_555
H16 O13 0.973717 1_555
H17 O12 0.999537 1_555
H18 O19 0.976627 1_555
H19 O17 0.973590 1_555
H20 O22 0.999537 1_555
H21 O18 0.986548 1_555
H22 O16 0.978029 1_555
H23 O15 1.005459 1_555
H24 O20 0.978482 1_555
H24 Li6 2.134573 1_555
H25 O21 0.973717 1_555
H26 O26 0.976627 1_555
H27 O24 0.973590 1_555
H28 O25 0.986548 1_555
H29 O23 0.978029 1_555
H30 O22 1.005459 1_555
H31 O27 0.978482 1_555
H31 Li8 2.134573 1_555
