# generated using pymatgen
data_Na2FePCO7
_symmetry_space_group_name_H-M   'P 1'
_cell_length_a   6.55367800
_cell_length_b   5.23498000
_cell_length_c   17.93641194
_cell_angle_alpha   89.54164260
_cell_angle_beta   90.00000000
_cell_angle_gamma   90.00000000
_symmetry_Int_Tables_number   1
_chemical_formula_structural   Na2FePCO7
_chemical_formula_sum   'Na8 Fe4 P4 C4 O28'
_cell_volume   615.34942477
_cell_formula_units_Z   4
loop_
 _symmetry_equiv_pos_site_id
 _symmetry_equiv_pos_as_xyz
  1  'x, y, z'
loop_
 _atom_site_type_symbol
 _atom_site_label
 _atom_site_symmetry_multiplicity
 _atom_site_fract_x
 _atom_site_fract_y
 _atom_site_fract_z
 _atom_site_occupancy
  Na  Na0  1  0.27990700  0.76356000  0.04013500  1
  Na  Na1  1  0.01107400  0.25097000  0.13126900  1
  Na  Na2  1  0.51107400  0.74903000  0.36873100  1
  Na  Na3  1  0.77990700  0.23644000  0.45986500  1
  Na  Na4  1  0.22009300  0.76356000  0.54013500  1
  Na  Na5  1  0.48892600  0.25097000  0.63126900  1
  Na  Na6  1  0.98892600  0.74903000  0.86873100  1
  Na  Na7  1  0.72009300  0.23644000  0.95986500  1
  Fe  Fe0  1  0.73440000  0.78427200  0.17283100  1
  Fe  Fe1  1  0.23440000  0.21572800  0.32716900  1
  Fe  Fe2  1  0.76560000  0.78427200  0.67283100  1
  Fe  Fe3  1  0.26560000  0.21572800  0.82716900  1
  P  P0  1  0.24507800  0.70972500  0.21230500  1
  P  P1  1  0.74507800  0.29027500  0.28769500  1
  P  P2  1  0.25492200  0.70972500  0.71230500  1
  P  P3  1  0.75492200  0.29027500  0.78769500  1
  C  C0  1  0.76405700  0.72990000  0.03286600  1
  C  C1  1  0.26405700  0.27010000  0.46713400  1
  C  C2  1  0.73594300  0.72990000  0.53286600  1
  C  C3  1  0.23594300  0.27010000  0.96713400  1
  O  O0  1  0.23358400  0.29833600  0.03757000  1
  O  O1  1  0.75988800  0.95647600  0.06399900  1
  O  O2  1  0.75829700  0.53595100  0.07947500  1
  O  O3  1  0.05691300  0.77448800  0.16310300  1
  O  O4  1  0.43307300  0.76023800  0.16148000  1
  O  O5  1  0.75643300  0.12898600  0.21598700  1
  O  O6  1  0.23517900  0.42205100  0.23508100  1
  O  O7  1  0.73517900  0.57794900  0.26491900  1
  O  O8  1  0.25643300  0.87101400  0.28401300  1
  O  O9  1  0.55691300  0.22551200  0.33689700  1
  O  O10  1  0.93307300  0.23976200  0.33852000  1
  O  O11  1  0.25829700  0.46404900  0.42052500  1
  O  O12  1  0.25988800  0.04352400  0.43600100  1
  O  O13  1  0.73358400  0.70166400  0.46243000  1
  O  O14  1  0.26641600  0.29833600  0.53757000  1
  O  O15  1  0.74011200  0.95647600  0.56399900  1
  O  O16  1  0.74170300  0.53595100  0.57947500  1
  O  O17  1  0.06692700  0.76023800  0.66148000  1
  O  O18  1  0.44308700  0.77448800  0.66310300  1
  O  O19  1  0.74356700  0.12898600  0.71598700  1
  O  O20  1  0.26482100  0.42205100  0.73508100  1
  O  O21  1  0.76482100  0.57794900  0.76491900  1
  O  O22  1  0.24356700  0.87101400  0.78401300  1
  O  O23  1  0.56692700  0.23976200  0.83852000  1
  O  O24  1  0.94308700  0.22551200  0.83689700  1
  O  O25  1  0.24170300  0.46404900  0.92052500  1
  O  O26  1  0.24011200  0.04352400  0.93600100  1
  O  O27  1  0.76641600  0.70166400  0.96243000  1
loop_
_geom_bond_atom_site_label_1
_geom_bond_atom_site_label_2
_geom_bond_distance
_geom_bond_site_symmetry_2
Na0 O26 2.379257 1_564
Na0 O4 2.396756 1_555
Na0 O0 2.455083 1_555
Na0 O3 2.646840 1_555
Na0 O25 2.679096 1_554
Na0 O0 2.815964 1_565
Na1 O0 2.237372 1_555
Na1 O5 2.342278 1_455
Na1 O2 2.410586 1_455
Na1 O6 2.540277 1_555
Na1 O1 2.563649 1_445
Na1 O3 2.572040 1_545
Na1 O3 2.819971 1_555
Na2 O13 2.237372 1_555
Na2 O8 2.342278 1_555
Na2 O11 2.410586 1_555
Na2 O7 2.540277 1_555
Na2 O12 2.563649 1_565
Na2 O9 2.572040 1_565
Na2 O9 2.819971 1_555
Na3 O15 2.379257 1_545
Na3 O10 2.396756 1_555
Na3 O13 2.455083 1_555
Na3 O9 2.646840 1_555
Na3 O16 2.679096 1_555
Na3 O13 2.815964 1_545
Na4 O12 2.379257 1_565
Na4 O17 2.396756 1_555
Na4 O14 2.455083 1_555
Na4 O18 2.646840 1_555
Na4 O11 2.679096 1_555
Na4 O14 2.815964 1_565
Na5 O14 2.237372 1_555
Na5 O19 2.342278 1_555
Na5 O16 2.410586 1_555
Na5 O20 2.540277 1_555
Na5 O15 2.563649 1_545
Na5 O18 2.572040 1_545
Na5 O18 2.819971 1_555
Na6 O27 2.237372 1_555
Na6 O22 2.342278 1_655
Na6 O25 2.410586 1_655
Na6 O21 2.540277 1_555
Na6 O26 2.563649 1_665
Na6 O24 2.572040 1_565
Na6 O24 2.819971 1_555
Na7 O1 2.379257 1_546
Na7 O23 2.396756 1_555
Na7 O27 2.455083 1_555
Na7 O24 2.646840 1_555
Na7 O2 2.679096 1_556
Na7 O27 2.815964 1_545
Fe0 O7 1.966290 1_555
Fe0 O5 1.974551 1_565
Fe0 O4 1.989353 1_555
Fe0 O3 2.121488 1_655
Fe0 O2 2.133798 1_555
Fe0 O1 2.150103 1_555
Fe1 O6 1.966290 1_555
Fe1 O8 1.974551 1_545
Fe1 O10 1.989353 1_455
Fe1 O9 2.121488 1_555
Fe1 O11 2.133798 1_555
Fe1 O12 2.150103 1_555
Fe2 O21 1.966290 1_555
Fe2 O19 1.974551 1_565
Fe2 O17 1.989353 1_655
Fe2 O18 2.121488 1_555
Fe2 O16 2.133798 1_555
Fe2 O15 2.150103 1_555
Fe3 O20 1.966290 1_555
Fe3 O22 1.974551 1_545
Fe3 O23 1.989353 1_555
Fe3 O24 2.121488 1_455
Fe3 O25 2.133798 1_555
Fe3 O26 2.150103 1_555
C0 O27 1.273255 1_554
C0 O2 1.310576 1_555
C0 O1 1.315315 1_555
C1 O14 1.273255 1_555
C1 O11 1.310576 1_555
C1 O12 1.315315 1_555
C2 O13 1.273255 1_555
C2 O16 1.310576 1_555
C2 O15 1.315315 1_555
C3 O0 1.273255 1_556
C3 O25 1.310576 1_555
C3 O26 1.315315 1_555
O3 P0 1.552318 1_555
O4 P0 1.554054 1_555
O5 P1 1.545995 1_555
O6 P0 1.558587 1_555
O7 P1 1.558587 1_555
O8 P0 1.545995 1_555
O9 P1 1.552318 1_555
O10 P1 1.554054 1_555
O17 P2 1.554054 1_555
O18 P2 1.552318 1_555
O19 P3 1.545995 1_555
O20 P2 1.558587 1_555
O21 P3 1.558587 1_555
O22 P2 1.545995 1_555
O23 P3 1.554054 1_555
O24 P3 1.552318 1_555
