# generated using pymatgen
data_Nb2OF8
_symmetry_space_group_name_H-M   'P 1'
_cell_length_a   5.45735100
_cell_length_b   9.39014700
_cell_length_c   15.69637063
_cell_angle_alpha   75.64349223
_cell_angle_beta   90.00000000
_cell_angle_gamma   90.00000000
_symmetry_Int_Tables_number   1
_chemical_formula_structural   Nb2OF8
_chemical_formula_sum   'Nb8 O4 F32'
_cell_volume   779.24665722
_cell_formula_units_Z   4
loop_
 _symmetry_equiv_pos_site_id
 _symmetry_equiv_pos_as_xyz
  1  'x, y, z'
loop_
 _atom_site_type_symbol
 _atom_site_label
 _atom_site_symmetry_multiplicity
 _atom_site_fract_x
 _atom_site_fract_y
 _atom_site_fract_z
 _atom_site_occupancy
  Nb  Nb0  1  0.80129100  0.90664900  0.87712700  1
  Nb  Nb1  1  0.19870900  0.90664900  0.37712700  1
  Nb  Nb2  1  0.06637100  0.53605300  0.84474400  1
  Nb  Nb3  1  0.06637100  0.46394700  0.65525600  1
  Nb  Nb4  1  0.93362900  0.53605300  0.34474400  1
  Nb  Nb5  1  0.93362900  0.46394700  0.15525600  1
  Nb  Nb6  1  0.80129100  0.09335100  0.62287300  1
  Nb  Nb7  1  0.19870900  0.09335100  0.12287300  1
  O  O0  1  0.94451200  0.70498300  0.86044000  1
  O  O1  1  0.05548800  0.70498300  0.36044000  1
  O  O2  1  0.94451200  0.29501700  0.63956000  1
  O  O3  1  0.05548800  0.29501700  0.13956000  1
  F  F0  1  0.94982700  0.00000000  0.75000000  1
  F  F1  1  0.12407900  0.93251500  0.91584900  1
  F  F2  1  0.67289600  0.80316400  0.98576400  1
  F  F3  1  0.54160500  0.86061400  0.80765900  1
  F  F4  1  0.69526100  0.90517400  0.61786700  1
  F  F5  1  0.05017300  0.00000000  0.25000000  1
  F  F6  1  0.87592100  0.93251500  0.41584900  1
  F  F7  1  0.32710400  0.80316400  0.48576400  1
  F  F8  1  0.45839500  0.86061400  0.30765900  1
  F  F9  1  0.30473900  0.90517400  0.11786700  1
  F  F10  1  0.19751500  0.63487400  0.72038600  1
  F  F11  1  0.37634800  0.52694600  0.89824400  1
  F  F12  1  0.89609100  0.60444700  0.56850200  1
  F  F13  1  0.80821200  0.50000000  0.75000000  1
  F  F14  1  0.80248500  0.63487400  0.22038600  1
  F  F15  1  0.89609100  0.39555300  0.93149800  1
  F  F16  1  0.62365200  0.52694600  0.39824400  1
  F  F17  1  0.37634800  0.47305400  0.60175600  1
  F  F18  1  0.10390900  0.60444700  0.06850200  1
  F  F19  1  0.19751500  0.36512600  0.77961400  1
  F  F20  1  0.19178800  0.50000000  0.25000000  1
  F  F21  1  0.10390900  0.39555300  0.43149800  1
  F  F22  1  0.62365200  0.47305400  0.10175600  1
  F  F23  1  0.80248500  0.36512600  0.27961400  1
  F  F24  1  0.69526100  0.09482600  0.88213300  1
  F  F25  1  0.54160500  0.13938600  0.69234100  1
  F  F26  1  0.67289600  0.19683600  0.51423600  1
  F  F27  1  0.12407900  0.06748500  0.58415100  1
  F  F28  1  0.30473900  0.09482600  0.38213300  1
  F  F29  1  0.45839500  0.13938600  0.19234100  1
  F  F30  1  0.32710400  0.19683600  0.01423600  1
  F  F31  1  0.87592100  0.06748500  0.08415100  1
loop_
_geom_bond_atom_site_label_1
_geom_bond_atom_site_label_2
_geom_bond_distance
_geom_bond_site_symmetry_2
Nb0 O0 2.124026 1_555
Nb1 O1 2.124026 1_555
Nb2 O0 1.792496 1_455
Nb3 O2 1.792496 1_455
Nb4 O1 1.792496 1_655
Nb5 O3 1.792496 1_655
Nb6 O2 2.124026 1_555
Nb7 O3 2.124026 1_555
F0 Nb6 2.130684 1_555
F0 Nb0 2.130684 1_545
F1 Nb0 1.898614 1_455
F2 Nb0 1.876500 1_555
F3 Nb0 1.902110 1_555
F4 Nb6 1.879409 1_565
F5 Nb7 2.130684 1_555
F5 Nb1 2.130684 1_545
F6 Nb1 1.898614 1_655
F7 Nb1 1.876500 1_555
F8 Nb1 1.902110 1_555
F9 Nb7 1.879409 1_565
F10 Nb2 2.070082 1_555
F10 Nb3 2.224220 1_555
F11 Nb2 1.881112 1_555
F12 Nb3 1.888788 1_655
F13 Nb2 2.135593 1_655
F13 Nb3 2.135593 1_655
F14 Nb4 2.070082 1_555
F14 Nb5 2.224220 1_555
F15 Nb2 1.888788 1_655
F16 Nb4 1.881112 1_555
F17 Nb3 1.881112 1_555
F18 Nb5 1.888788 1_455
F19 Nb3 2.070082 1_555
F19 Nb2 2.224220 1_555
F20 Nb4 2.135593 1_455
F20 Nb5 2.135593 1_455
F21 Nb4 1.888788 1_455
F22 Nb5 1.881112 1_555
F23 Nb5 2.070082 1_555
F23 Nb4 2.224220 1_555
F24 Nb0 1.879409 1_545
F25 Nb6 1.902110 1_555
F26 Nb6 1.876500 1_555
F27 Nb6 1.898614 1_455
F28 Nb1 1.879409 1_545
F29 Nb7 1.902110 1_555
F30 Nb7 1.876500 1_555
F31 Nb7 1.898614 1_655
