# generated using pymatgen
data_CrPO5
_symmetry_space_group_name_H-M   'P 1'
_cell_length_a   7.84193378
_cell_length_b   7.84336312
_cell_length_c   7.84165739
_cell_angle_alpha   64.52171953
_cell_angle_beta   98.03333376
_cell_angle_gamma   64.53909058
_symmetry_Int_Tables_number   1
_chemical_formula_structural   CrPO5
_chemical_formula_sum   'Cr4 P4 O20'
_cell_volume   360.58802527
_cell_formula_units_Z   4
loop_
 _symmetry_equiv_pos_site_id
 _symmetry_equiv_pos_as_xyz
  1  'x, y, z'
loop_
 _atom_site_type_symbol
 _atom_site_label
 _atom_site_symmetry_multiplicity
 _atom_site_fract_x
 _atom_site_fract_y
 _atom_site_fract_z
 _atom_site_occupancy
  Cr  Cr0  1  0.88333200  0.25007200  0.63337400  1
  Cr  Cr1  1  0.61667900  0.75001400  0.86664700  1
  Cr  Cr2  1  0.38331300  0.24994400  0.13333900  1
  Cr  Cr3  1  0.11654300  0.75002600  0.36653000  1
  P  P0  1  0.00013600  0.75001600  0.75014900  1
  P  P1  1  0.50015700  0.74996600  0.25013100  1
  P  P2  1  0.49985600  0.25007400  0.74983000  1
  P  P3  1  0.99991100  0.24993400  0.24991300  1
  O  O0  1  0.03662600  0.25002100  0.78662300  1
  O  O1  1  0.53654200  0.24997900  0.28658600  1
  O  O2  1  0.46344300  0.74999900  0.71343800  1
  O  O3  1  0.96332900  0.74998300  0.21331700  1
  O  O4  1  0.77701900  0.82084000  0.72611300  1
  O  O5  1  0.27711000  0.82067800  0.22630200  1
  O  O6  1  0.15230700  0.55083300  0.97321400  1
  O  O7  1  0.65254100  0.55098500  0.47319400  1
  O  O8  1  0.02414000  0.94906200  0.70351500  1
  O  O9  1  0.52404300  0.94913900  0.20317700  1
  O  O10  1  0.04698900  0.67931000  0.59780300  1
  O  O11  1  0.54696900  0.67914200  0.09785500  1
  O  O12  1  0.45286200  0.32093600  0.90205000  1
  O  O13  1  0.95323700  0.32061000  0.40231300  1
  O  O14  1  0.47605800  0.05085200  0.79676000  1
  O  O15  1  0.97578900  0.05094200  0.29658700  1
  O  O16  1  0.34754600  0.44903500  0.52674200  1
  O  O17  1  0.84761300  0.44914200  0.02688700  1
  O  O18  1  0.72291200  0.17943300  0.77379500  1
  O  O19  1  0.22299800  0.17903400  0.27381600  1
loop_
_geom_bond_atom_site_label_1
_geom_bond_atom_site_label_2
_geom_bond_distance
_geom_bond_site_symmetry_2
Cr0 O0 1.576276 1_655
Cr0 O18 1.887749 1_555
Cr0 O7 1.888158 1_555
Cr0 O13 1.888261 1_555
Cr0 O8 1.888757 1_645
Cr1 O2 1.576111 1_555
Cr1 O4 1.888171 1_555
Cr1 O14 1.888223 1_565
Cr1 O17 1.888346 1_556
Cr1 O11 1.888442 1_556
Cr2 O1 1.576374 1_555
Cr2 O19 1.887971 1_555
Cr2 O9 1.888129 1_545
Cr2 O12 1.888308 1_554
Cr2 O6 1.888611 1_554
Cr3 O3 1.576163 1_455
Cr3 O5 1.887959 1_555
Cr3 O10 1.888208 1_555
Cr3 O15 1.888620 1_465
Cr3 O16 1.889040 1_555
O4 P0 1.545163 1_655
O5 P1 1.545104 1_555
O6 P0 1.544998 1_555
O7 P1 1.544987 1_555
O8 P0 1.545061 1_555
O9 P1 1.545020 1_555
O10 P0 1.545058 1_555
O11 P1 1.545015 1_555
O12 P2 1.545042 1_555
O13 P3 1.545058 1_555
O14 P2 1.545016 1_555
O15 P3 1.545142 1_555
O16 P2 1.544968 1_555
O17 P3 1.545035 1_555
O18 P2 1.545068 1_555
O19 P3 1.545030 1_455
