# generated using pymatgen
data_Na4Cr2C4SO16
_symmetry_space_group_name_H-M   'P 1'
_cell_length_a   9.92293495
_cell_length_b   9.88472090
_cell_length_c   9.71476857
_cell_angle_alpha   60.82609288
_cell_angle_beta   60.43327112
_cell_angle_gamma   58.74063601
_symmetry_Int_Tables_number   1
_chemical_formula_structural   Na4Cr2C4SO16
_chemical_formula_sum   'Na8 Cr4 C8 S2 O32'
_cell_volume   673.28740652
_cell_formula_units_Z   2
loop_
 _symmetry_equiv_pos_site_id
 _symmetry_equiv_pos_as_xyz
  1  'x, y, z'
loop_
 _atom_site_type_symbol
 _atom_site_label
 _atom_site_symmetry_multiplicity
 _atom_site_fract_x
 _atom_site_fract_y
 _atom_site_fract_z
 _atom_site_occupancy
  Na  Na0  1  0.54119300  0.95880700  0.54119300  1
  Na  Na1  1  0.95937600  0.54062400  0.54062500  1
  Na  Na2  1  0.70937500  0.29062400  0.29062400  1
  Na  Na3  1  0.29119300  0.70880700  0.29119300  1
  Na  Na4  1  0.95880700  0.54119300  0.95880700  1
  Na  Na5  1  0.54062400  0.95937600  0.95937600  1
  Na  Na6  1  0.29062400  0.70937600  0.70937600  1
  Na  Na7  1  0.70880700  0.29119300  0.70880700  1
  Cr  Cr0  1  0.12500000  0.12500000  0.62500000  1
  Cr  Cr1  1  0.12500000  0.12500000  0.12500000  1
  Cr  Cr2  1  0.62500000  0.12500000  0.12500000  1
  Cr  Cr3  1  0.12500000  0.62500000  0.12500000  1
  C  C0  1  0.91417200  0.91680100  0.26360500  1
  C  C1  1  0.33319900  0.33582800  0.34457700  1
  C  C2  1  0.26360500  0.90542300  0.91417200  1
  C  C3  1  0.90542300  0.26360500  0.91680100  1
  C  C4  1  0.34457700  0.98639500  0.33319900  1
  C  C5  1  0.98639500  0.34457700  0.33582800  1
  C  C6  1  0.91680100  0.91417200  0.90542300  1
  C  C7  1  0.33582800  0.33319900  0.98639500  1
  S  S0  1  0.50000000  0.50000000  0.50000000  1
  S  S1  1  0.75000000  0.75000000  0.75000000  1
  O  O0  1  0.76999800  0.94289400  0.26896200  1
  O  O1  1  0.56811200  0.31335400  0.55894100  1
  O  O2  1  0.94055600  0.03324300  0.26036400  1
  O  O3  1  0.21675700  0.30944400  0.48416300  1
  O  O4  1  0.26036400  0.76583700  0.94055600  1
  O  O5  1  0.48075700  0.21920400  0.31956400  1
  O  O6  1  0.55894100  0.55959200  0.56811200  1
  O  O7  1  0.31335400  0.56811200  0.55959200  1
  O  O8  1  0.98047500  0.31956400  0.21920400  1
  O  O9  1  0.76583700  0.26036400  0.03324300  1
  O  O10  1  0.30710600  0.48000200  0.23185300  1
  O  O11  1  0.55959200  0.55894100  0.31335400  1
  O  O12  1  0.26896200  0.01814700  0.76999800  1
  O  O13  1  0.01814700  0.26896200  0.94289400  1
  O  O14  1  0.03079600  0.76924300  0.26952500  1
  O  O15  1  0.31956400  0.98047500  0.48075700  1
  O  O16  1  0.93043600  0.26952500  0.76924300  1
  O  O17  1  0.21920400  0.48075700  0.98047500  1
  O  O18  1  0.23185300  0.98103800  0.30710600  1
  O  O19  1  0.98103800  0.23185300  0.48000200  1
  O  O20  1  0.69040800  0.69105900  0.93664600  1
  O  O21  1  0.94289400  0.76999800  0.01814700  1
  O  O22  1  0.48416300  0.98963600  0.21675700  1
  O  O23  1  0.26952500  0.93043600  0.03079600  1
  O  O24  1  0.93664600  0.68188800  0.69040800  1
  O  O25  1  0.69105900  0.69040800  0.68188800  1
  O  O26  1  0.76924300  0.03079600  0.93043600  1
  O  O27  1  0.98963600  0.48416300  0.30944400  1
  O  O28  1  0.03324300  0.94055600  0.76583700  1
  O  O29  1  0.30944400  0.21675700  0.98963600  1
  O  O30  1  0.68188800  0.93664600  0.69105900  1
  O  O31  1  0.48000200  0.30710600  0.98103800  1
loop_
_geom_bond_atom_site_label_1
_geom_bond_atom_site_label_2
_geom_bond_distance
_geom_bond_site_symmetry_2
Na0 O25 2.344007 1_555
Na0 O30 2.344013 1_555
Na0 O15 2.426916 1_555
Na0 O5 2.426916 1_565
Na0 O0 2.506597 1_555
Na0 O12 2.506598 1_565
Na1 O24 2.334131 1_555
Na1 O25 2.334131 1_555
Na1 O3 2.414144 1_655
Na1 O27 2.414152 1_555
Na1 O16 2.561839 1_555
Na1 O14 2.561847 1_655
Na2 O11 2.334131 1_555
Na2 O1 2.334131 1_555
Na2 O9 2.414139 1_555
Na2 O2 2.414146 1_555
Na2 O5 2.561832 1_555
Na2 O8 2.561852 1_555
Na3 O11 2.344004 1_555
Na3 O7 2.344004 1_555
Na3 O23 2.426916 1_555
Na3 O14 2.426916 1_555
Na3 O18 2.506593 1_555
Na3 O10 2.506603 1_555
Na4 O20 2.344004 1_555
Na4 O24 2.344004 1_555
Na4 O8 2.426916 1_556
Na4 O17 2.426916 1_655
Na4 O13 2.506593 1_655
Na4 O21 2.506603 1_556
Na5 O30 2.334131 1_555
Na5 O20 2.334131 1_555
Na5 O22 2.414143 1_556
Na5 O29 2.414143 1_565
Na5 O26 2.561842 1_565
Na5 O23 2.561842 1_556
Na6 O6 2.334134 1_555
Na6 O7 2.334139 1_555
Na6 O28 2.414143 1_555
Na6 O4 2.414143 1_555
Na6 O15 2.561842 1_555
Na6 O17 2.561842 1_555
Na7 O6 2.344007 1_555
Na7 O1 2.344013 1_555
Na7 O16 2.426916 1_555
Na7 O26 2.426916 1_555
Na7 O31 2.506597 1_555
Na7 O19 2.506598 1_555
Cr0 O3 2.021493 1_555
Cr0 O28 2.021493 1_545
Cr0 O12 2.027296 1_555
Cr0 O19 2.027296 1_455
Cr0 O15 2.037456 1_545
Cr0 O16 2.037456 1_455
Cr1 O29 2.021493 1_554
Cr1 O2 2.021493 1_455
Cr1 O18 2.027289 1_545
Cr1 O13 2.027289 1_554
Cr1 O8 2.037456 1_455
Cr1 O23 2.037456 1_545
Cr2 O9 2.021493 1_555
Cr2 O22 2.021493 1_545
Cr2 O0 2.027294 1_545
Cr2 O31 2.027294 1_554
Cr2 O5 2.037456 1_555
Cr2 O26 2.037456 1_554
Cr3 O4 2.021493 1_554
Cr3 O27 2.021493 1_455
Cr3 O10 2.027289 1_555
Cr3 O21 2.027289 1_455
Cr3 O14 2.037456 1_555
Cr3 O17 2.037456 1_554
C0 O2 1.289806 1_565
C0 O0 1.293288 1_555
C0 O14 1.304640 1_655
C1 O3 1.289811 1_555
C1 O10 1.293288 1_555
C1 O5 1.304640 1_555
C2 O4 1.289815 1_555
C2 O12 1.293288 1_565
C2 O23 1.304634 1_556
C3 O9 1.289812 1_556
C3 O13 1.293288 1_655
C3 O16 1.304643 1_555
C4 O22 1.289812 1_555
C4 O18 1.293288 1_555
C4 O15 1.304643 1_555
C5 O27 1.289815 1_555
C5 O19 1.293288 1_555
C5 O8 1.304634 1_555
C6 O28 1.289811 1_655
C6 O21 1.293288 1_556
C6 O26 1.304640 1_565
C7 O29 1.289806 1_555
C7 O31 1.293288 1_555
C7 O17 1.304640 1_555
O1 S0 1.498792 1_555
O6 S0 1.498784 1_555
O7 S0 1.498792 1_555
O11 S0 1.498792 1_555
O20 S1 1.498792 1_555
O24 S1 1.498792 1_555
O25 S1 1.498784 1_555
O30 S1 1.498792 1_555
