# generated using pymatgen
data_Mn6O7F5
_symmetry_space_group_name_H-M   'P 1'
_cell_length_a   4.59353000
_cell_length_b   5.64779051
_cell_length_c   15.30854161
_cell_angle_alpha   89.66359721
_cell_angle_beta   89.76842527
_cell_angle_gamma   88.65870276
_symmetry_Int_Tables_number   1
_chemical_formula_structural   Mn6O7F5
_chemical_formula_sum   'Mn12 O14 F10'
_cell_volume   397.03532032
_cell_formula_units_Z   2
loop_
 _symmetry_equiv_pos_site_id
 _symmetry_equiv_pos_as_xyz
  1  'x, y, z'
loop_
 _atom_site_type_symbol
 _atom_site_label
 _atom_site_symmetry_multiplicity
 _atom_site_fract_x
 _atom_site_fract_y
 _atom_site_fract_z
 _atom_site_occupancy
  Mn  Mn0  1  0.03054200  0.16003700  0.41219600  1
  Mn  Mn1  1  0.99614100  0.84359600  0.24219500  1
  Mn  Mn2  1  0.00440500  0.15459700  0.07534900  1
  Mn  Mn3  1  0.01518000  0.16889000  0.75077600  1
  Mn  Mn4  1  0.01703800  0.82475500  0.57711200  1
  Mn  Mn5  1  0.04595800  0.84501100  0.91288500  1
  Mn  Mn6  1  0.51217100  0.37362700  0.58593800  1
  Mn  Mn7  1  0.48271800  0.35471400  0.92504800  1
  Mn  Mn8  1  0.50649700  0.34585900  0.25752700  1
  Mn  Mn9  1  0.49878800  0.65078100  0.08682000  1
  Mn  Mn10  1  0.49797000  0.63770200  0.42333100  1
  Mn  Mn11  1  0.48329000  0.63459600  0.75103000  1
  O  O0  1  0.21411700  0.11266200  0.30040600  1
  O  O1  1  0.23248400  0.11908800  0.96974200  1
  O  O2  1  0.21439000  0.88487000  0.13333200  1
  O  O3  1  0.23623000  0.88634800  0.46769400  1
  O  O4  1  0.23508300  0.88219800  0.80463100  1
  O  O5  1  0.28425100  0.40056100  0.48065000  1
  O  O6  1  0.27663200  0.60629500  0.64380700  1
  O  O7  1  0.28109600  0.39496000  0.81337900  1
  O  O8  1  0.27502000  0.61125000  0.97691300  1
  O  O9  1  0.71819100  0.38137700  0.02816400  1
  O  O10  1  0.71099900  0.61511500  0.19725100  1
  O  O11  1  0.72452000  0.38349100  0.36416200  1
  O  O12  1  0.72137500  0.61581000  0.52683600  1
  O  O13  1  0.72603500  0.39283300  0.69358300  1
  F  F0  1  0.25200900  0.11706400  0.63334200  1
  F  F1  1  0.25095400  0.38276500  0.15253800  1
  F  F2  1  0.24887800  0.61665600  0.31859100  1
  F  F3  1  0.73993800  0.61635600  0.85885100  1
  F  F4  1  0.74668000  0.11416900  0.17942500  1
  F  F5  1  0.77821300  0.12932500  0.52779500  1
  F  F6  1  0.74790500  0.87132900  0.35778600  1
  F  F7  1  0.77517500  0.87065100  0.01309300  1
  F  F8  1  0.75515700  0.11711900  0.86506200  1
  F  F9  1  0.76396900  0.88354100  0.69276300  1
loop_
_geom_bond_atom_site_label_1
_geom_bond_atom_site_label_2
_geom_bond_distance
_geom_bond_site_symmetry_2
Mn0 O0 1.922112 1_555
Mn0 O3 1.981545 1_545
Mn0 O11 2.005958 1_455
Mn0 O5 2.098189 1_555
Mn1 O2 1.956942 1_655
Mn1 O10 1.987708 1_555
Mn1 O0 2.049459 1_665
Mn2 O1 1.931795 1_554
Mn2 O9 1.951597 1_455
Mn2 O2 1.990271 1_545
Mn3 O13 2.011991 1_455
Mn3 O7 2.034098 1_555
Mn3 O4 2.058224 1_545
Mn4 O6 1.978096 1_555
Mn4 O12 1.980816 1_455
Mn4 O3 1.984045 1_555
Mn5 O4 1.880958 1_555
Mn5 O8 1.933649 1_555
Mn5 O1 1.992924 1_565
Mn6 O6 1.903035 1_555
Mn6 O12 1.911267 1_555
Mn6 O13 1.926802 1_555
Mn6 O5 1.928855 1_555
Mn7 O8 1.892753 1_555
Mn7 O1 1.901285 1_555
Mn7 O9 1.925800 1_556
Mn7 O7 1.957081 1_555
Mn8 O11 1.933969 1_555
Mn8 O0 2.008688 1_555
Mn8 O10 2.022330 1_555
Mn9 O10 1.961849 1_555
Mn9 O2 1.970845 1_555
Mn9 O8 1.991579 1_554
Mn9 O9 2.018424 1_555
Mn10 O5 1.888998 1_555
Mn10 O12 1.893142 1_555
Mn10 O3 1.950484 1_555
Mn10 O11 1.975466 1_555
Mn11 O7 1.908376 1_555
Mn11 O6 1.908865 1_555
Mn11 O13 1.953467 1_555
Mn11 O4 1.964700 1_555
F0 Mn6 2.028829 1_555
F0 Mn3 2.115775 1_555
F0 Mn4 2.176937 1_545
F1 Mn8 2.001100 1_555
F1 Mn2 2.106313 1_555
F1 Mn9 2.157076 1_555
F2 Mn10 1.979325 1_555
F2 Mn1 2.069315 1_455
F2 Mn8 2.129891 1_555
F3 Mn11 2.032962 1_555
F3 Mn5 2.105917 1_655
F3 Mn7 2.158950 1_555
F4 Mn2 1.996313 1_655
F4 Mn8 2.073441 1_555
F4 Mn1 2.116921 1_545
F5 Mn6 2.028831 1_555
F5 Mn0 2.120012 1_655
F5 Mn4 2.153023 1_645
F6 Mn10 2.027803 1_555
F6 Mn1 2.105846 1_555
F6 Mn0 2.271982 1_665
F7 Mn5 1.974882 1_654
F7 Mn9 2.115066 1_555
F7 Mn2 2.166546 1_665
F8 Mn7 2.033873 1_555
F8 Mn3 2.136943 1_655
F8 Mn5 2.140259 1_645
F9 Mn11 2.120282 1_555
F9 Mn4 2.137352 1_655
F9 Mn3 2.197654 1_665
