# generated using pymatgen
data_K2LiMnPCO7
_symmetry_space_group_name_H-M   'P 1'
_cell_length_a   8.89849811
_cell_length_b   8.89696727
_cell_length_c   11.17910393
_cell_angle_alpha   74.26671898
_cell_angle_beta   74.29005005
_cell_angle_gamma   106.10170537
_symmetry_Int_Tables_number   1
_chemical_formula_structural   K2LiMnPCO7
_chemical_formula_sum   'K8 Li4 Mn4 P4 C4 O28'
_cell_volume   759.03303070
_cell_formula_units_Z   4
loop_
 _symmetry_equiv_pos_site_id
 _symmetry_equiv_pos_as_xyz
  1  'x, y, z'
loop_
 _atom_site_type_symbol
 _atom_site_label
 _atom_site_symmetry_multiplicity
 _atom_site_fract_x
 _atom_site_fract_y
 _atom_site_fract_z
 _atom_site_occupancy
  K  K0  1  0.24731400  0.76452900  0.73701600  1
  K  K1  1  0.74747300  0.26456900  0.73707100  1
  K  K2  1  0.01460100  0.99707000  0.73686000  1
  K  K3  1  0.51462500  0.49714700  0.73689200  1
  K  K4  1  0.25258400  0.73549200  0.26291900  1
  K  K5  1  0.75259900  0.23542400  0.26291000  1
  K  K6  1  0.48546000  0.50301600  0.26301300  1
  K  K7  1  0.98529900  0.00280600  0.26313500  1
  Li  Li0  1  0.22315400  0.47315600  0.99525600  1
  Li  Li1  1  0.72316400  0.97312300  0.99529200  1
  Li  Li2  1  0.27682400  0.02686800  0.00475200  1
  Li  Li3  1  0.77686300  0.52685400  0.00475300  1
  Mn  Mn0  1  0.17863000  0.42846700  0.62552000  1
  Mn  Mn1  1  0.32171000  0.07189800  0.37435300  1
  Mn  Mn2  1  0.67842700  0.92820600  0.62564300  1
  Mn  Mn3  1  0.82151500  0.57098800  0.37466600  1
  P  P0  1  0.97813600  0.72808200  0.57718100  1
  P  P1  1  0.47804100  0.22797000  0.57732200  1
  P  P2  1  0.52190000  0.77197700  0.42270600  1
  P  P3  1  0.02185900  0.27193200  0.42275400  1
  C  C0  1  0.03220100  0.28218300  0.93180700  1
  C  C1  1  0.53224800  0.78224300  0.93186300  1
  C  C2  1  0.46779900  0.21783600  0.06808900  1
  C  C3  1  0.96774200  0.71776800  0.06816600  1
  O  O0  1  0.97831600  0.72816700  0.94764800  1
  O  O1  1  0.47841800  0.22817600  0.94759000  1
  O  O2  1  0.52160700  0.77186500  0.05236000  1
  O  O3  1  0.02163100  0.27189500  0.05232800  1
  O  O4  1  0.92379900  0.17373600  0.90932700  1
  O  O5  1  0.42383600  0.67377900  0.90929800  1
  O  O6  1  0.57618200  0.32626000  0.09066100  1
  O  O7  1  0.07617900  0.82622500  0.09068000  1
  O  O8  1  0.15999700  0.40973300  0.83238100  1
  O  O9  1  0.65999300  0.90975000  0.83238300  1
  O  O10  1  0.34000300  0.09030300  0.16754500  1
  O  O11  1  0.84001400  0.59019700  0.16762000  1
  O  O12  1  0.52447900  0.77459900  0.56133100  1
  O  O13  1  0.02459500  0.27469600  0.56131200  1
  O  O14  1  0.97534600  0.72524300  0.43865900  1
  O  O15  1  0.47553500  0.22549800  0.43864700  1
  O  O16  1  0.13625400  0.88616900  0.54695000  1
  O  O17  1  0.63613900  0.38592100  0.54733200  1
  O  O18  1  0.36375000  0.61398500  0.45278600  1
  O  O19  1  0.86371200  0.11388800  0.45294300  1
  O  O20  1  0.81793500  0.74766800  0.65932400  1
  O  O21  1  0.31782100  0.24756500  0.65936700  1
  O  O22  1  0.99749500  0.56781500  0.65953200  1
  O  O23  1  0.49727400  0.06759800  0.65958900  1
  O  O24  1  0.50262000  0.93234500  0.34039400  1
  O  O25  1  0.00250000  0.43223800  0.34042900  1
  O  O26  1  0.68208000  0.75235200  0.34063200  1
  O  O27  1  0.18207800  0.25246000  0.34057700  1
loop_
_geom_bond_atom_site_label_1
_geom_bond_atom_site_label_2
_geom_bond_distance
_geom_bond_site_symmetry_2
K0 O12 2.665910 1_555
K0 O16 2.673175 1_555
K0 O23 2.707780 1_565
K0 O0 2.735676 1_455
K0 O8 2.840841 1_555
K0 O5 2.885656 1_555
K0 O22 2.908950 1_455
K1 O13 2.665816 1_655
K1 O17 2.671258 1_555
K1 O22 2.708890 1_555
K1 O1 2.735139 1_555
K1 O9 2.840835 1_545
K1 O4 2.884226 1_555
K1 O23 2.912304 1_555
K2 O13 2.667409 1_565
K2 O16 2.671433 1_555
K2 O21 2.710952 1_565
K2 O0 2.735470 1_455
K2 O9 2.840153 1_455
K2 O4 2.888769 1_465
K2 O20 2.906561 1_455
K3 O12 2.666895 1_555
K3 O17 2.670018 1_555
K3 O20 2.711458 1_555
K3 O1 2.735491 1_555
K3 O8 2.840204 1_555
K3 O5 2.887993 1_555
K3 O21 2.908142 1_555
K4 O14 2.665995 1_455
K4 O18 2.671740 1_555
K4 O25 2.709247 1_555
K4 O2 2.735294 1_555
K4 O10 2.840842 1_565
K4 O7 2.884427 1_555
K4 O24 2.910774 1_555
K5 O15 2.666085 1_555
K5 O19 2.672944 1_555
K5 O24 2.707808 1_545
K5 O3 2.735183 1_655
K5 O11 2.840532 1_555
K5 O6 2.884825 1_555
K5 O25 2.910125 1_655
K6 O15 2.667437 1_555
K6 O18 2.670802 1_555
K6 O27 2.712045 1_555
K6 O2 2.734723 1_555
K6 O11 2.839872 1_555
K6 O6 2.888283 1_555
K6 O26 2.906591 1_555
K7 O14 2.667033 1_545
K7 O19 2.671490 1_555
K7 O26 2.710770 1_545
K7 O3 2.736453 1_655
K7 O10 2.840736 1_655
K7 O7 2.888236 1_645
K7 O27 2.907851 1_655
Li0 O5 1.915944 1_555
Li0 O3 1.951628 1_556
Li0 O8 2.210201 1_555
Li1 O4 1.915671 1_565
Li1 O2 1.951795 1_556
Li1 O9 2.210436 1_555
Li2 O7 1.915863 1_545
Li2 O1 1.952061 1_554
Li2 O10 2.209442 1_555
Li3 O6 1.915802 1_555
Li3 O0 1.951472 1_554
Li3 O11 2.209803 1_555
Mn0 O18 2.051204 1_555
Mn0 O13 2.071439 1_555
Mn0 O8 2.229579 1_555
Mn0 O21 2.301518 1_555
Mn0 O22 2.304734 1_455
Mn1 O16 2.052019 1_545
Mn1 O15 2.070179 1_555
Mn1 O10 2.230343 1_555
Mn1 O27 2.302042 1_555
Mn1 O24 2.304470 1_545
Mn2 O19 2.051967 1_565
Mn2 O12 2.070983 1_555
Mn2 O9 2.229196 1_555
Mn2 O20 2.300884 1_555
Mn2 O23 2.305078 1_565
Mn3 O17 2.050256 1_555
Mn3 O14 2.071172 1_555
Mn3 O11 2.230956 1_555
Mn3 O25 2.299837 1_655
Mn3 O26 2.306761 1_555
C0 O4 1.292708 1_455
C0 O3 1.300848 1_556
C0 O8 1.316077 1_555
C1 O5 1.293419 1_555
C1 O2 1.300252 1_556
C1 O9 1.315974 1_555
C2 O6 1.293103 1_555
C2 O1 1.300397 1_554
C2 O10 1.316144 1_555
C3 O7 1.293172 1_655
C3 O0 1.300579 1_554
C3 O11 1.316029 1_555
O12 P2 1.562440 1_555
O13 P3 1.562435 1_555
O14 P0 1.562354 1_555
O15 P1 1.562445 1_555
O16 P0 1.568165 1_455
O17 P1 1.568077 1_555
O18 P2 1.568292 1_555
O19 P3 1.568218 1_655
O20 P0 1.556107 1_555
O21 P1 1.555875 1_555
O22 P0 1.555827 1_555
O23 P1 1.555623 1_555
O24 P2 1.556002 1_555
O25 P3 1.555991 1_555
O26 P2 1.555855 1_555
O27 P3 1.555841 1_555
