# generated using pymatgen
data_SrCaI4
_symmetry_space_group_name_H-M   'P 1'
_cell_length_a   7.19542100
_cell_length_b   7.94285800
_cell_length_c   18.83531600
_cell_angle_alpha   90.00000000
_cell_angle_beta   90.00000000
_cell_angle_gamma   90.00000000
_symmetry_Int_Tables_number   1
_chemical_formula_structural   SrCaI4
_chemical_formula_sum   'Sr4 Ca4 I16'
_cell_volume   1076.47988371
_cell_formula_units_Z   4
loop_
 _symmetry_equiv_pos_site_id
 _symmetry_equiv_pos_as_xyz
  1  'x, y, z'
loop_
 _atom_site_type_symbol
 _atom_site_label
 _atom_site_symmetry_multiplicity
 _atom_site_fract_x
 _atom_site_fract_y
 _atom_site_fract_z
 _atom_site_occupancy
  Sr  Sr0  1  0.00000000  0.25000000  0.07085200  1
  Sr  Sr1  1  0.00000000  0.75000000  0.92914800  1
  Sr  Sr2  1  0.50000000  0.75000000  0.42914800  1
  Sr  Sr3  1  0.50000000  0.25000000  0.57085200  1
  Ca  Ca0  1  0.00000000  0.25000000  0.31767900  1
  Ca  Ca1  1  0.00000000  0.75000000  0.68232100  1
  Ca  Ca2  1  0.50000000  0.25000000  0.81767900  1
  Ca  Ca3  1  0.50000000  0.75000000  0.18232100  1
  I  I0  1  0.25791500  0.59143500  0.05916200  1
  I  I1  1  0.25791500  0.09143500  0.94083800  1
  I  I2  1  0.25276800  0.08623200  0.19812700  1
  I  I3  1  0.25276800  0.58623200  0.80187300  1
  I  I4  1  0.24723200  0.58623200  0.30187300  1
  I  I5  1  0.24723200  0.08623200  0.69812700  1
  I  I6  1  0.24208500  0.09143500  0.44083800  1
  I  I7  1  0.24208500  0.59143500  0.55916200  1
  I  I8  1  0.75791500  0.40856500  0.44083800  1
  I  I9  1  0.75791500  0.90856500  0.55916200  1
  I  I10  1  0.75276800  0.41376800  0.69812700  1
  I  I11  1  0.75276800  0.91376800  0.30187300  1
  I  I12  1  0.74723200  0.41376800  0.19812700  1
  I  I13  1  0.74723200  0.91376800  0.80187300  1
  I  I14  1  0.74208500  0.90856500  0.05916200  1
  I  I15  1  0.74208500  0.40856500  0.94083800  1
loop_
_geom_bond_atom_site_label_1
_geom_bond_atom_site_label_2
_geom_bond_distance
_geom_bond_site_symmetry_2
Ca0 I6 3.162539 1_555
Ca0 I8 3.162539 1_455
Ca0 I2 3.173417 1_555
Ca0 I12 3.173417 1_455
Ca0 I11 3.222668 1_445
Ca0 I4 3.222668 1_555
Ca1 I9 3.162539 1_455
Ca1 I7 3.162539 1_555
Ca1 I13 3.173417 1_455
Ca1 I3 3.173417 1_555
Ca1 I10 3.222668 1_455
Ca1 I5 3.222668 1_565
Ca2 I1 3.162539 1_555
Ca2 I15 3.162539 1_555
Ca2 I10 3.173417 1_555
Ca2 I5 3.173417 1_555
Ca2 I3 3.222668 1_555
Ca2 I13 3.222668 1_545
Ca3 I0 3.162539 1_555
Ca3 I14 3.162539 1_555
Ca3 I4 3.173417 1_555
Ca3 I11 3.173417 1_555
Ca3 I12 3.222668 1_555
Ca3 I2 3.222668 1_565
I0 Sr0 3.293521 1_555
I0 Sr1 3.320715 1_554
I1 Sr1 3.293521 1_545
I1 Sr0 3.320715 1_556
I2 Sr0 3.278240 1_555
I3 Sr1 3.278240 1_555
I4 Sr2 3.278240 1_555
I5 Sr3 3.278240 1_555
I6 Sr2 3.293521 1_545
I6 Sr3 3.320715 1_555
I7 Sr3 3.293521 1_555
I7 Sr2 3.320715 1_555
I8 Sr2 3.293521 1_555
I8 Sr3 3.320715 1_555
I9 Sr3 3.293521 1_565
I9 Sr2 3.320715 1_555
I10 Sr3 3.278240 1_555
I11 Sr2 3.278240 1_555
I12 Sr0 3.278240 1_655
I13 Sr1 3.278240 1_655
I14 Sr0 3.293521 1_665
I14 Sr1 3.320715 1_654
I15 Sr1 3.293521 1_655
I15 Sr0 3.320715 1_656
