# generated using pymatgen
data_Li3VF8
_symmetry_space_group_name_H-M   'P 1'
_cell_length_a   5.84853892
_cell_length_b   5.84853892
_cell_length_c   5.59875712
_cell_angle_alpha   72.07798121
_cell_angle_beta   72.07798121
_cell_angle_gamma   106.03276284
_symmetry_Int_Tables_number   1
_chemical_formula_structural   Li3VF8
_chemical_formula_sum   'Li3 V1 F8'
_cell_volume   158.15675567
_cell_formula_units_Z   1
loop_
 _symmetry_equiv_pos_site_id
 _symmetry_equiv_pos_as_xyz
  1  'x, y, z'
loop_
 _atom_site_type_symbol
 _atom_site_label
 _atom_site_symmetry_multiplicity
 _atom_site_fract_x
 _atom_site_fract_y
 _atom_site_fract_z
 _atom_site_occupancy
  Li  Li0  1  0.00000000  0.50000000  0.50000000  1
  Li  Li1  1  0.50000000  0.00000000  0.50000000  1
  Li  Li2  1  0.50000000  0.50000000  0.50000000  1
  V  V0  1  0.00000000  0.00000000  0.00000000  1
  F  F0  1  0.16330800  0.16330800  0.61576600  1
  F  F1  1  0.19389800  0.80610200  0.00000000  1
  F  F2  1  0.80610200  0.19389800  0.00000000  1
  F  F3  1  0.83669200  0.83669200  0.38423400  1
  F  F4  1  0.25414200  0.25414200  0.00103400  1
  F  F5  1  0.30252700  0.69747300  0.50000000  1
  F  F6  1  0.69747300  0.30252700  0.50000000  1
  F  F7  1  0.74585800  0.74585800  0.99896600  1
loop_
_geom_bond_atom_site_label_1
_geom_bond_atom_site_label_2
_geom_bond_distance
_geom_bond_site_symmetry_2
F0 V0 1.849139 1_556
F0 Li2 2.112437 1_555
F0 Li0 2.417498 1_555
F0 Li1 2.417498 1_555
F1 V0 1.811727 1_565
F1 Li1 2.483542 1_564
F1 Li0 2.483542 1_555
F2 V0 1.811727 1_655
F2 Li0 2.483542 1_654
F2 Li1 2.483542 1_555
F3 V0 1.849139 1_665
F3 Li2 2.112437 1_555
F3 Li0 2.417498 1_655
F3 Li1 2.417498 1_565
F4 V0 1.791316 1_555
F4 Li2 2.428408 1_554
F5 Li0 1.826382 1_555
F5 Li1 1.826382 1_565
F5 Li2 1.845131 1_555
F6 Li0 1.826382 1_655
F6 Li1 1.826382 1_555
F6 Li2 1.845131 1_555
F7 V0 1.791316 1_666
F7 Li2 2.428408 1_556
