# generated using pymatgen
data_Na2PRuCO7
_symmetry_space_group_name_H-M   'P 1'
_cell_length_a   6.56041200
_cell_length_b   5.24760400
_cell_length_c   9.13315469
_cell_angle_alpha   88.82187599
_cell_angle_beta   90.00000000
_cell_angle_gamma   90.00000000
_symmetry_Int_Tables_number   1
_chemical_formula_structural   Na2PRuCO7
_chemical_formula_sum   'Na4 P2 Ru2 C2 O14'
_cell_volume   314.35557400
_cell_formula_units_Z   2
loop_
 _symmetry_equiv_pos_site_id
 _symmetry_equiv_pos_as_xyz
  1  'x, y, z'
loop_
 _atom_site_type_symbol
 _atom_site_label
 _atom_site_symmetry_multiplicity
 _atom_site_fract_x
 _atom_site_fract_y
 _atom_site_fract_z
 _atom_site_occupancy
  Na  Na0  1  0.99533800  0.76376700  0.76171100  1
  Na  Na1  1  0.50466200  0.76376700  0.76171100  1
  Na  Na2  1  0.49533800  0.23623300  0.23828900  1
  Na  Na3  1  0.00466200  0.23623300  0.23828900  1
  P  P0  1  0.75000000  0.29141300  0.57720800  1
  P  P1  1  0.25000000  0.70858700  0.42279200  1
  Ru  Ru0  1  0.25000000  0.21842500  0.65480300  1
  Ru  Ru1  1  0.75000000  0.78157500  0.34519700  1
  C  C0  1  0.25000000  0.27512200  0.92826600  1
  C  C1  1  0.75000000  0.72487800  0.07173400  1
  O  O0  1  0.75000000  0.70997100  0.93529000  1
  O  O1  1  0.25000000  0.05608600  0.85871300  1
  O  O2  1  0.25000000  0.47204300  0.83484400  1
  O  O3  1  0.93821500  0.20869100  0.67032300  1
  O  O4  1  0.56178500  0.20869100  0.67032300  1
  O  O5  1  0.25000000  0.84133800  0.57313700  1
  O  O6  1  0.75000000  0.58745300  0.55402600  1
  O  O7  1  0.25000000  0.41254700  0.44597400  1
  O  O8  1  0.75000000  0.15866200  0.42686300  1
  O  O9  1  0.43821500  0.79130900  0.32967700  1
  O  O10  1  0.06178500  0.79130900  0.32967700  1
  O  O11  1  0.75000000  0.52795700  0.16515600  1
  O  O12  1  0.75000000  0.94391400  0.14128700  1
  O  O13  1  0.25000000  0.29002900  0.06471000  1
loop_
_geom_bond_atom_site_label_1
_geom_bond_atom_site_label_2
_geom_bond_distance
_geom_bond_site_symmetry_2
Na0 O0 2.272684 1_555
Na0 O2 2.353465 1_655
Na0 O5 2.427818 1_655
Na0 O1 2.446434 1_665
Na0 O3 2.491622 1_565
Na0 O6 2.667711 1_555
Na1 O0 2.272684 1_555
Na1 O2 2.353465 1_555
Na1 O5 2.427818 1_555
Na1 O1 2.446434 1_565
Na1 O4 2.491622 1_565
Na1 O6 2.667711 1_555
Na2 O13 2.272684 1_555
Na2 O11 2.353465 1_555
Na2 O8 2.427818 1_555
Na2 O12 2.446434 1_545
Na2 O9 2.491622 1_545
Na2 O7 2.667711 1_555
Na3 O13 2.272684 1_555
Na3 O11 2.353465 1_455
Na3 O8 2.427818 1_455
Na3 O12 2.446434 1_445
Na3 O10 2.491622 1_545
Na3 O7 2.667711 1_555
C0 O13 1.250221 1_556
C0 O1 1.324653 1_555
C0 O2 1.326498 1_555
C1 O0 1.250221 1_554
C1 O12 1.324653 1_555
C1 O11 1.326498 1_555
O1 Ru0 2.031944 1_555
O2 Ru0 2.136612 1_555
O3 P0 1.556003 1_555
O3 Ru0 2.050907 1_655
O4 P0 1.556003 1_555
O4 Ru0 2.050907 1_555
O5 P1 1.552447 1_555
O5 Ru0 2.129008 1_565
O6 P0 1.563543 1_555
O6 Ru1 2.143706 1_555
O7 P1 1.563543 1_555
O7 Ru0 2.143706 1_555
O8 P0 1.552447 1_555
O8 Ru1 2.129008 1_545
O9 P1 1.556003 1_555
O9 Ru1 2.050907 1_555
O10 P1 1.556003 1_555
O10 Ru1 2.050907 1_455
O11 Ru1 2.136612 1_555
O12 Ru1 2.031944 1_555
