# generated using pymatgen
data_KSiPCO7
_symmetry_space_group_name_H-M   'P 1'
_cell_length_a   6.00884300
_cell_length_b   5.09732700
_cell_length_c   10.11097527
_cell_angle_alpha   88.77197923
_cell_angle_beta   90.00000000
_cell_angle_gamma   90.00000000
_symmetry_Int_Tables_number   1
_chemical_formula_structural   KSiPCO7
_chemical_formula_sum   'K2 Si2 P2 C2 O14'
_cell_volume   309.61831346
_cell_formula_units_Z   2
loop_
 _symmetry_equiv_pos_site_id
 _symmetry_equiv_pos_as_xyz
  1  'x, y, z'
loop_
 _atom_site_type_symbol
 _atom_site_label
 _atom_site_symmetry_multiplicity
 _atom_site_fract_x
 _atom_site_fract_y
 _atom_site_fract_z
 _atom_site_occupancy
  K  K0  1  0.63242700  0.75121800  0.79021300  1
  K  K1  1  0.13242700  0.24878200  0.20978700  1
  Si  Si0  1  0.22207900  0.23292800  0.64556700  1
  Si  Si1  1  0.72207900  0.76707200  0.35443300  1
  P  P0  1  0.72544500  0.26463300  0.55225600  1
  P  P1  1  0.22544500  0.73536700  0.44774400  1
  C  C0  1  0.25654500  0.28742600  0.86585300  1
  C  C1  1  0.75654500  0.71257400  0.13414700  1
  O  O0  1  0.79877000  0.68052600  0.01656800  1
  O  O1  1  0.23425300  0.05847100  0.80377800  1
  O  O2  1  0.23526400  0.47763400  0.77163200  1
  O  O3  1  0.92504400  0.23237100  0.64730500  1
  O  O4  1  0.52460800  0.23033300  0.64549600  1
  O  O5  1  0.22498100  0.94250500  0.55491800  1
  O  O6  1  0.72273400  0.54667200  0.49263700  1
  O  O7  1  0.22273400  0.45332800  0.50736300  1
  O  O8  1  0.72498100  0.05749500  0.44508200  1
  O  O9  1  0.02460800  0.76966700  0.35450400  1
  O  O10  1  0.42504400  0.76762900  0.35269500  1
  O  O11  1  0.73526400  0.52236600  0.22836800  1
  O  O12  1  0.73425300  0.94152900  0.19622200  1
  O  O13  1  0.29877000  0.31947400  0.98343200  1
loop_
_geom_bond_atom_site_label_1
_geom_bond_atom_site_label_2
_geom_bond_distance
_geom_bond_site_symmetry_2
K0 O0 2.516260 1_556
K0 O2 2.772476 1_555
K0 O1 2.864485 1_565
K0 O4 2.893436 1_565
K0 O4 3.126814 1_555
K0 O6 3.250968 1_555
K0 O3 3.323063 1_565
K1 O13 2.516260 1_554
K1 O11 2.772476 1_455
K1 O12 2.864485 1_445
K1 O9 2.893436 1_545
K1 O9 3.126814 1_555
K1 O7 3.250968 1_555
K1 O10 3.323063 1_545
C0 O13 1.229928 1_555
C0 O1 1.343613 1_555
C0 O2 1.350691 1_555
C1 O0 1.229928 1_555
C1 O12 1.343613 1_555
C1 O11 1.350691 1_555
O1 Si0 1.814967 1_555
O2 Si0 1.804163 1_555
O3 P0 1.543479 1_555
O3 Si0 1.784925 1_655
O4 P0 1.539038 1_555
O4 Si0 1.817898 1_555
O5 P1 1.529095 1_555
O5 Si0 1.757855 1_565
O6 P0 1.547035 1_555
O6 Si1 1.774128 1_555
O7 P1 1.547035 1_555
O7 Si0 1.774128 1_555
O8 P0 1.529095 1_555
O8 Si1 1.757855 1_545
O9 P1 1.539038 1_555
O9 Si1 1.817898 1_455
O10 P1 1.543479 1_555
O10 Si1 1.784925 1_555
O11 Si1 1.804163 1_555
O12 Si1 1.814967 1_555
