# generated using pymatgen
data_Ba3(BrO)2
_symmetry_space_group_name_H-M   'P 1'
_cell_length_a   8.20069600
_cell_length_b   7.59881100
_cell_length_c   7.89815471
_cell_angle_alpha   65.24476271
_cell_angle_beta   90.00000000
_cell_angle_gamma   90.00000000
_symmetry_Int_Tables_number   1
_chemical_formula_structural   Ba3(BrO)2
_chemical_formula_sum   'Ba6 Br4 O4'
_cell_volume   446.94904290
_cell_formula_units_Z   2
loop_
 _symmetry_equiv_pos_site_id
 _symmetry_equiv_pos_as_xyz
  1  'x, y, z'
loop_
 _atom_site_type_symbol
 _atom_site_label
 _atom_site_symmetry_multiplicity
 _atom_site_fract_x
 _atom_site_fract_y
 _atom_site_fract_z
 _atom_site_occupancy
  Ba  Ba0  1  0.50000000  0.00000000  0.50000000  1
  Ba  Ba1  1  0.00000000  0.00000000  0.00000000  1
  Ba  Ba2  1  0.87531900  0.59122400  0.77646000  1
  Ba  Ba3  1  0.37531900  0.40877600  0.72354000  1
  Ba  Ba4  1  0.62468100  0.59122400  0.27646000  1
  Ba  Ba5  1  0.12468100  0.40877600  0.22354000  1
  Br  Br0  1  0.35138300  0.81468300  0.92733100  1
  Br  Br1  1  0.14861700  0.81468300  0.42733100  1
  Br  Br2  1  0.85138300  0.18531700  0.57266900  1
  Br  Br3  1  0.64861700  0.18531700  0.07266900  1
  O  O0  1  0.60997800  0.66017700  0.56642500  1
  O  O1  1  0.10997800  0.33982300  0.93357500  1
  O  O2  1  0.89002200  0.66017700  0.06642500  1
  O  O3  1  0.39002200  0.33982300  0.43357500  1
loop_
_geom_bond_atom_site_label_1
_geom_bond_atom_site_label_2
_geom_bond_distance
_geom_bond_site_symmetry_2
Ba0 O0 2.573345 1_545
Ba0 O3 2.573345 1_555
Ba0 Br0 3.298400 1_545
Ba0 Br3 3.298400 1_555
Ba0 Br1 3.360481 1_545
Ba0 Br2 3.360481 1_555
Ba1 O2 2.573345 1_445
Ba1 O1 2.573345 1_554
Ba1 Br2 3.298400 1_454
Ba1 Br1 3.298400 1_545
Ba1 Br0 3.360481 1_544
Ba1 Br3 3.360481 1_455
Ba2 O2 2.557145 1_556
Ba2 O1 2.628149 1_655
Ba2 O0 2.652057 1_555
Ba2 Br1 3.404226 1_655
Ba2 Br3 3.521347 1_556
Ba3 O3 2.557145 1_555
Ba3 O0 2.628149 1_555
Ba3 O1 2.652057 1_555
Ba3 Br3 3.404226 1_556
Ba3 Br1 3.521347 1_555
Ba4 O0 2.557145 1_555
Ba4 O3 2.628149 1_555
Ba4 O2 2.652057 1_555
Ba4 Br0 3.404226 1_554
Ba4 Br2 3.521347 1_555
Ba5 O1 2.557145 1_554
Ba5 O2 2.628149 1_455
Ba5 O3 2.652057 1_555
Ba5 Br2 3.404226 1_455
Ba5 Br0 3.521347 1_554
