# generated using pymatgen
data_Rb3P3(HO3)4
_symmetry_space_group_name_H-M   'P 1'
_cell_length_a   8.70876800
_cell_length_b   9.72170004
_cell_length_c   9.78200371
_cell_angle_alpha   119.44829971
_cell_angle_beta   111.72985165
_cell_angle_gamma   86.26054615
_symmetry_Int_Tables_number   1
_chemical_formula_structural   Rb3P3(HO3)4
_chemical_formula_sum   'Rb6 P6 H8 O24'
_cell_volume   662.91453478
_cell_formula_units_Z   2
loop_
 _symmetry_equiv_pos_site_id
 _symmetry_equiv_pos_as_xyz
  1  'x, y, z'
loop_
 _atom_site_type_symbol
 _atom_site_label
 _atom_site_symmetry_multiplicity
 _atom_site_fract_x
 _atom_site_fract_y
 _atom_site_fract_z
 _atom_site_occupancy
  Rb  Rb0  1  0.40582900  0.66683300  0.18624400  1
  Rb  Rb1  1  0.59417100  0.33316700  0.81375600  1
  Rb  Rb2  1  0.14392800  0.06816600  0.27437100  1
  Rb  Rb3  1  0.85607200  0.93183400  0.72562900  1
  Rb  Rb4  1  0.25664000  0.68055500  0.69599800  1
  Rb  Rb5  1  0.74336000  0.31944500  0.30400200  1
  P  P0  1  0.91364500  0.69530700  0.29860800  1
  P  P1  1  0.08635500  0.30469300  0.70139200  1
  P  P2  1  0.74813400  0.77805700  0.02672500  1
  P  P3  1  0.25186600  0.22194300  0.97327500  1
  P  P4  1  0.95372000  0.60648300  0.83206300  1
  P  P5  1  0.04628000  0.39351700  0.16793700  1
  H  H0  1  0.62187000  0.96379300  0.88574000  1
  H  H1  1  0.37813000  0.03620700  0.11426000  1
  H  H2  1  0.50745400  0.91425700  0.11737500  1
  H  H3  1  0.49254600  0.08574300  0.88262500  1
  H  H4  1  0.40245800  0.94294100  0.58990400  1
  H  H5  1  0.59754200  0.05705900  0.41009600  1
  H  H6  1  0.21271200  0.88151000  0.48218900  1
  H  H7  1  0.78728800  0.11849000  0.51781100  1
  O  O0  1  0.03046500  0.80288000  0.47967600  1
  O  O1  1  0.96953500  0.19712000  0.52032400  1
  O  O2  1  0.87981700  0.80397700  0.20790300  1
  O  O3  1  0.12018300  0.19602300  0.79209700  1
  O  O4  1  0.02061800  0.57170700  0.19678500  1
  O  O5  1  0.97938200  0.42829300  0.80321500  1
  O  O6  1  0.75251400  0.60751500  0.25687000  1
  O  O7  1  0.24748600  0.39248500  0.74313000  1
  O  O8  1  0.78872800  0.92145700  0.01883400  1
  O  O9  1  0.21127200  0.07854300  0.98116600  1
  O  O10  1  0.57144900  0.73424600  0.99787700  1
  O  O11  1  0.42855100  0.26575400  0.00212300  1
  O  O12  1  0.79478800  0.61915700  0.88949700  1
  O  O13  1  0.20521200  0.38084300  0.11050300  1
  O  O14  1  0.88752900  0.59933300  0.66308200  1
  O  O15  1  0.11247100  0.40066700  0.33691800  1
  O  O16  1  0.10274700  0.72571000  0.97518800  1
  O  O17  1  0.89725300  0.27429000  0.02481200  1
  O  O18  1  0.47065700  0.01107000  0.19258700  1
  O  O19  1  0.52934300  0.98893000  0.80741300  1
  O  O20  1  0.31556300  0.91320400  0.47662900  1
  O  O21  1  0.68443700  0.08679600  0.52337100  1
  O  O22  1  0.45558900  0.44855100  0.49357700  1
  O  O23  1  0.54441100  0.55144900  0.50642300  1
loop_
_geom_bond_atom_site_label_1
_geom_bond_atom_site_label_2
_geom_bond_distance
_geom_bond_site_symmetry_2
H0 O19 0.998671 1_555
H0 Rb3 2.917838 1_555
H1 O18 0.998671 1_555
H1 Rb2 2.917838 1_555
H2 O18 0.992057 1_565
H3 O19 0.992057 1_545
H4 O20 0.988282 1_555
H5 O21 0.988282 1_555
H6 O20 0.994350 1_555
H7 O21 0.994350 1_555
O0 P0 1.499681 1_455
O0 Rb4 2.975606 1_555
O0 Rb3 3.026251 1_455
O1 P1 1.499681 1_655
O1 Rb5 2.975606 1_555
O1 Rb2 3.026251 1_655
O2 P2 1.616555 1_555
O2 P0 1.636367 1_555
O2 Rb2 3.214162 1_665
O3 P3 1.616555 1_555
O3 P1 1.636367 1_555
O3 Rb3 3.214162 1_445
O4 P5 1.626655 1_555
O4 P0 1.633419 1_455
O5 P4 1.626655 1_555
O5 P1 1.633419 1_655
O6 P0 1.501203 1_555
O6 Rb0 2.923276 1_555
O6 Rb5 3.063952 1_555
O7 P1 1.501203 1_555
O7 Rb1 2.923276 1_555
O7 Rb4 3.063952 1_555
O8 P2 1.504902 1_555
O8 Rb2 3.032460 1_665
O8 Rb3 3.180894 1_554
O9 P3 1.504902 1_555
O9 Rb3 3.032460 1_445
O9 Rb2 3.180894 1_556
O10 P2 1.508128 1_556
O10 Rb0 3.030457 1_556
O10 Rb4 3.030725 1_555
O11 P3 1.508128 1_554
O11 Rb1 3.030457 1_554
O11 Rb5 3.030725 1_555
O12 P2 1.623689 1_556
O12 P4 1.652890 1_555
O12 Rb1 2.996857 1_555
O13 P3 1.623689 1_554
O13 P5 1.652890 1_555
O13 Rb0 2.996857 1_555
O14 P4 1.502046 1_555
O14 Rb3 2.993697 1_555
O14 Rb5 3.016683 1_555
O14 Rb4 3.221008 1_655
O15 P5 1.502046 1_555
O15 Rb2 2.993697 1_555
O15 Rb4 3.016683 1_555
O15 Rb5 3.221008 1_455
O16 P4 1.497714 1_455
O16 Rb0 2.913190 1_556
O16 Rb2 3.094460 1_566
O16 Rb4 3.301835 1_555
O17 P5 1.497714 1_655
O17 Rb1 2.913190 1_554
O17 Rb3 3.094460 1_544
O17 Rb5 3.301835 1_555
O18 Rb5 3.408082 1_555
O19 Rb4 3.408082 1_555
O20 Rb2 2.977482 1_565
O20 Rb0 3.023489 1_555
O21 Rb3 2.977482 1_545
O21 Rb1 3.023489 1_555
O22 O23 1.232958 1_555
O22 Rb4 3.106287 1_555
O23 Rb5 3.106287 1_555
