# generated using pymatgen
data_NaMn2V3(PbO6)2
_symmetry_space_group_name_H-M   'P 1'
_cell_length_a   11.32151967
_cell_length_b   11.32151967
_cell_length_c   11.32151967
_cell_angle_alpha   109.14120876
_cell_angle_beta   109.14120876
_cell_angle_gamma   110.13327986
_symmetry_Int_Tables_number   1
_chemical_formula_structural   NaMn2V3(PbO6)2
_chemical_formula_sum   'Na4 Mn8 V12 Pb8 O48'
_cell_volume   1116.98858372
_cell_formula_units_Z   4
loop_
 _symmetry_equiv_pos_site_id
 _symmetry_equiv_pos_as_xyz
  1  'x, y, z'
loop_
 _atom_site_type_symbol
 _atom_site_label
 _atom_site_symmetry_multiplicity
 _atom_site_fract_x
 _atom_site_fract_y
 _atom_site_fract_z
 _atom_site_occupancy
  Na  Na0  1  0.50000000  0.00000000  0.50000000  1
  Na  Na1  1  0.00000000  0.50000000  0.50000000  1
  Na  Na2  1  0.25000000  0.25000000  0.00000000  1
  Na  Na3  1  0.75000000  0.75000000  0.00000000  1
  Mn  Mn0  1  0.12500000  0.87500000  0.25000000  1
  Mn  Mn1  1  0.62500000  0.37500000  0.75000000  1
  Mn  Mn2  1  0.62500000  0.37500000  0.25000000  1
  Mn  Mn3  1  0.12500000  0.37500000  0.75000000  1
  Mn  Mn4  1  0.12500000  0.37500000  0.25000000  1
  Mn  Mn5  1  0.62500000  0.87500000  0.75000000  1
  Mn  Mn6  1  0.62500000  0.87500000  0.25000000  1
  Mn  Mn7  1  0.12500000  0.87500000  0.75000000  1
  V  V0  1  0.24975800  0.12500000  0.62475800  1
  V  V1  1  0.50000000  0.50000000  0.00000000  1
  V  V2  1  0.87500000  0.49975800  0.12475800  1
  V  V3  1  0.87500000  0.99975800  0.62475800  1
  V  V4  1  0.25000000  0.75000000  0.50000000  1
  V  V5  1  0.50024200  0.62500000  0.37524200  1
  V  V6  1  0.74975800  0.12500000  0.12475800  1
  V  V7  1  0.37500000  0.25024200  0.37524200  1
  V  V8  1  0.00000000  0.00000000  0.00000000  1
  V  V9  1  0.37500000  0.75024200  0.87524200  1
  V  V10  1  0.75000000  0.25000000  0.50000000  1
  V  V11  1  0.00024200  0.62500000  0.87524200  1
  Pb  Pb0  1  0.87500000  0.74728000  0.37228000  1
  Pb  Pb1  1  0.25272000  0.62500000  0.12772000  1
  Pb  Pb2  1  0.87500000  0.24728000  0.87228000  1
  Pb  Pb3  1  0.49728000  0.12500000  0.87228000  1
  Pb  Pb4  1  0.37500000  0.50272000  0.62772000  1
  Pb  Pb5  1  0.75272000  0.62500000  0.62772000  1
  Pb  Pb6  1  0.99728000  0.12500000  0.37228000  1
  Pb  Pb7  1  0.37500000  0.00272000  0.12772000  1
  O  O0  1  0.82843400  0.96343500  0.44695600  1
  O  O1  1  0.71439000  0.26201300  0.64227700  1
  O  O2  1  0.42700200  0.17264100  0.66083400  1
  O  O3  1  0.11852200  0.98352000  0.44695600  1
  O  O4  1  0.63026400  0.67788600  0.14227700  1
  O  O5  1  0.92264100  0.67700200  0.16083400  1
  O  O6  1  0.23798700  0.78561000  0.35772300  1
  O  O7  1  0.11973600  0.76201300  0.54762300  1
  O  O8  1  0.73383200  0.98819300  0.66083400  1
  O  O9  1  0.42788600  0.88026400  0.64227700  1
  O  O10  1  0.51201300  0.36973600  0.04762300  1
  O  O11  1  0.03656500  0.48352000  0.86499900  1
  O  O12  1  0.51180700  0.76616800  0.33916600  1
  O  O13  1  0.73352000  0.36852200  0.94695600  1
  O  O14  1  0.82735900  0.48819300  0.25436100  1
  O  O15  1  0.01648000  0.46343500  0.13500100  1
  O  O16  1  0.23819300  0.07735900  0.75436100  1
  O  O17  1  0.32211400  0.46439000  0.95237700  1
  O  O18  1  0.21439000  0.57211400  0.45237700  1
  O  O19  1  0.92156600  0.86852200  0.63500100  1
  O  O20  1  0.53656500  0.67156600  0.55304400  1
  O  O21  1  0.32299800  0.48383200  0.24563900  1
  O  O22  1  0.23383200  0.57299800  0.74563900  1
  O  O23  1  0.63147800  0.57843400  0.36499900  1
  O  O24  1  0.61852200  0.17156600  0.13500100  1
  O  O25  1  0.01616800  0.17700200  0.75436100  1
  O  O26  1  0.92700200  0.26616800  0.25436100  1
  O  O27  1  0.71343500  0.07843400  0.94695600  1
  O  O28  1  0.32843400  0.88147800  0.86499900  1
  O  O29  1  0.03561000  0.17788600  0.04762300  1
  O  O30  1  0.92788600  0.28561000  0.54762300  1
  O  O31  1  0.01180700  0.67264100  0.74563900  1
  O  O32  1  0.23352000  0.28656500  0.36499900  1
  O  O33  1  0.42264100  0.26180700  0.24563900  1
  O  O34  1  0.51648000  0.38147800  0.55304400  1
  O  O35  1  0.73819300  0.98383200  0.16083400  1
  O  O36  1  0.21343500  0.26648000  0.63500100  1
  O  O37  1  0.73798700  0.38026400  0.45237700  1
  O  O38  1  0.82211400  0.86973600  0.85772300  1
  O  O39  1  0.51616800  0.76180700  0.83916600  1
  O  O40  1  0.13026400  0.98798700  0.95237700  1
  O  O41  1  0.01201300  0.96439000  0.14227700  1
  O  O42  1  0.32735900  0.07299800  0.33916600  1
  O  O43  1  0.61973600  0.07211400  0.35772300  1
  O  O44  1  0.13147800  0.76648000  0.05304400  1
  O  O45  1  0.82299800  0.57735900  0.83916600  1
  O  O46  1  0.53561000  0.48798700  0.85772300  1
  O  O47  1  0.42156600  0.78656500  0.05304400  1
loop_
_geom_bond_atom_site_label_1
_geom_bond_atom_site_label_2
_geom_bond_distance
_geom_bond_site_symmetry_2
Na0 O1 2.575142 1_555
Na0 O6 2.575142 1_545
Na0 O9 2.575146 1_545
Na0 O43 2.575146 1_555
Na0 O8 2.753879 1_545
Na0 O2 2.753879 1_555
Na0 O12 2.753879 1_545
Na0 O42 2.753879 1_555
Na1 O7 2.575142 1_555
Na1 O37 2.575142 1_455
Na1 O30 2.575143 1_455
Na1 O18 2.575143 1_555
Na1 O22 2.753879 1_555
Na1 O31 2.753879 1_555
Na1 O26 2.753879 1_455
Na1 O14 2.753879 1_455
Na2 O10 2.575142 1_555
Na2 O40 2.575142 1_544
Na2 O29 2.575143 1_555
Na2 O17 2.575143 1_554
Na2 O33 2.753879 1_555
Na2 O21 2.753879 1_555
Na2 O25 2.753879 1_554
Na2 O16 2.753879 1_554
Na3 O46 2.575142 1_554
Na3 O41 2.575142 1_655
Na3 O38 2.575146 1_554
Na3 O4 2.575146 1_555
Na3 O35 2.753879 1_555
Na3 O5 2.753879 1_555
Na3 O45 2.753879 1_554
Na3 O39 2.753879 1_554
Mn0 O42 2.180970 1_565
Mn0 O5 2.180970 1_455
Mn0 O6 2.196689 1_555
Mn0 O41 2.196689 1_555
Mn0 O44 2.204476 1_555
Mn0 O3 2.204476 1_555
Mn1 O2 2.180970 1_555
Mn1 O45 2.180970 1_555
Mn1 O46 2.196689 1_555
Mn1 O1 2.196689 1_555
Mn1 O13 2.204476 1_555
Mn1 O34 2.204476 1_555
Mn2 O14 2.180970 1_555
Mn2 O33 2.180970 1_555
Mn2 O37 2.196689 1_555
Mn2 O10 2.196689 1_555
Mn2 O23 2.204479 1_555
Mn2 O24 2.204479 1_555
Mn3 O25 2.180970 1_555
Mn3 O22 2.180970 1_555
Mn3 O17 2.196695 1_555
Mn3 O30 2.196695 1_455
Mn3 O36 2.204473 1_555
Mn3 O11 2.204473 1_555
Mn4 O26 2.180970 1_455
Mn4 O21 2.180970 1_555
Mn4 O18 2.196695 1_555
Mn4 O29 2.196695 1_555
Mn4 O32 2.204473 1_555
Mn4 O15 2.204473 1_555
Mn5 O39 2.180970 1_555
Mn5 O8 2.180970 1_555
Mn5 O9 2.196699 1_555
Mn5 O38 2.196699 1_555
Mn5 O27 2.204479 1_565
Mn5 O20 2.204479 1_555
Mn6 O12 2.180970 1_555
Mn6 O35 2.180970 1_555
Mn6 O4 2.196699 1_555
Mn6 O43 2.196699 1_565
Mn6 O0 2.204479 1_555
Mn6 O47 2.204479 1_555
Mn7 O16 2.180970 1_565
Mn7 O31 2.180970 1_555
Mn7 O40 2.196689 1_555
Mn7 O7 2.196689 1_555
Mn7 O19 2.204479 1_455
Mn7 O28 2.204479 1_555
O0 V3 1.763830 1_555
O0 Pb0 2.608669 1_555
O0 Pb6 2.716931 1_565
O1 V10 1.759443 1_555
O1 Pb2 2.739238 1_555
O2 V0 1.748548 1_555
O2 Pb3 2.558863 1_555
O3 V0 1.763833 1_565
O3 Pb6 2.608679 1_465
O3 Pb0 2.716925 1_455
O4 V1 1.759437 1_555
O4 Pb0 2.739234 1_555
O5 V2 1.748548 1_555
O5 Pb0 2.558863 1_555
O6 V4 1.759443 1_555
O6 Pb1 2.739238 1_555
O7 V4 1.759443 1_555
O7 Pb0 2.739238 1_455
O8 V3 1.748548 1_555
O8 Pb2 2.558863 1_565
O9 V4 1.759437 1_555
O9 Pb3 2.739234 1_565
O10 V1 1.759443 1_555
O10 Pb3 2.739238 1_554
O11 V11 1.763841 1_555
O11 Pb1 2.608668 1_556
O11 Pb2 2.716923 1_455
O12 V5 1.748548 1_555
O12 Pb1 2.558863 1_555
O13 V2 1.763833 1_556
O13 Pb2 2.608679 1_555
O13 Pb3 2.716925 1_555
O14 V2 1.748548 1_555
O14 Pb0 2.558863 1_555
O15 V2 1.763841 1_455
O15 Pb2 2.608668 1_454
O15 Pb1 2.716923 1_555
O16 V0 1.748548 1_555
O16 Pb3 2.558863 1_555
O17 V1 1.759432 1_556
O17 Pb1 2.739247 1_556
O18 V4 1.759432 1_555
O18 Pb4 2.739247 1_555
O19 V3 1.763830 1_555
O19 Pb0 2.608669 1_555
O19 Pb5 2.716931 1_555
O20 V5 1.763830 1_555
O20 Pb5 2.608669 1_555
O20 Pb4 2.716931 1_555
O21 V5 1.748548 1_555
O21 Pb1 2.558863 1_555
O22 V9 1.748548 1_555
O22 Pb4 2.558863 1_555
O23 V5 1.763830 1_555
O23 Pb5 2.608669 1_555
O23 Pb0 2.716931 1_555
O24 V6 1.763830 1_555
O24 Pb3 2.608669 1_554
O24 Pb7 2.716931 1_555
O25 V3 1.748548 1_445
O25 Pb2 2.558863 1_455
O26 V6 1.748548 1_555
O26 Pb6 2.558863 1_555
O27 V6 1.763830 1_556
O27 Pb3 2.608669 1_555
O27 Pb2 2.716931 1_555
O28 V9 1.763830 1_555
O28 Pb7 2.608669 1_566
O28 Pb3 2.716931 1_565
O29 V8 1.759432 1_555
O29 Pb2 2.739247 1_454
O30 V10 1.759432 1_555
O30 Pb6 2.739247 1_555
O31 V11 1.748548 1_555
O31 Pb5 2.558863 1_455
O32 V7 1.763841 1_555
O32 Pb4 2.608668 1_555
O32 Pb6 2.716923 1_455
O33 V7 1.748548 1_555
O33 Pb7 2.558863 1_555
O34 V7 1.763833 1_555
O34 Pb4 2.608679 1_555
O34 Pb5 2.716925 1_555
O35 V6 1.748548 1_565
O35 Pb6 2.558863 1_565
O36 V0 1.763841 1_555
O36 Pb6 2.608668 1_455
O36 Pb4 2.716923 1_555
O37 V10 1.759443 1_555
O37 Pb5 2.739238 1_555
O38 V8 1.759437 1_666
O38 Pb5 2.739234 1_555
O39 V9 1.748548 1_555
O39 Pb4 2.558863 1_555
O40 V8 1.759443 1_566
O40 Pb7 2.739238 1_566
O41 V8 1.759443 1_565
O41 Pb6 2.739238 1_465
O42 V7 1.748548 1_555
O42 Pb7 2.558863 1_555
O43 V10 1.759437 1_555
O43 Pb7 2.739234 1_555
O44 V11 1.763833 1_554
O44 Pb1 2.608679 1_555
O44 Pb7 2.716925 1_565
O45 V11 1.748548 1_655
O45 Pb5 2.558863 1_555
O46 V1 1.759443 1_556
O46 Pb4 2.739238 1_555
O47 V9 1.763830 1_554
O47 Pb7 2.608669 1_565
O47 Pb1 2.716931 1_555
