# generated using pymatgen
data_NbPHO5
_symmetry_space_group_name_H-M   'P 1'
_cell_length_a   5.45087126
_cell_length_b   7.72693029
_cell_length_c   5.36730337
_cell_angle_alpha   109.57607632
_cell_angle_beta   97.42070045
_cell_angle_gamma   106.24707760
_symmetry_Int_Tables_number   1
_chemical_formula_structural   NbPHO5
_chemical_formula_sum   'Nb2 P2 H2 O10'
_cell_volume   198.18422125
_cell_formula_units_Z   2
loop_
 _symmetry_equiv_pos_site_id
 _symmetry_equiv_pos_as_xyz
  1  'x, y, z'
loop_
 _atom_site_type_symbol
 _atom_site_label
 _atom_site_symmetry_multiplicity
 _atom_site_fract_x
 _atom_site_fract_y
 _atom_site_fract_z
 _atom_site_occupancy
  Nb  Nb0  1  0.00000000  0.50000000  0.00000000  1
  Nb  Nb1  1  0.00000000  0.00000000  0.00000000  1
  P  P0  1  0.35177800  0.22823200  0.67193700  1
  P  P1  1  0.64822200  0.77176800  0.32806300  1
  H  H0  1  0.02304700  0.33392300  0.36302600  1
  H  H1  1  0.97695300  0.66607700  0.63697400  1
  O  O0  1  0.03113700  0.71840000  0.83928400  1
  O  O1  1  0.19974100  0.37573100  0.72135900  1
  O  O2  1  0.35231700  0.65895700  0.27678800  1
  O  O3  1  0.24727200  0.07694500  0.37605700  1
  O  O4  1  0.31108000  0.12179300  0.87088600  1
  O  O5  1  0.68892000  0.87820700  0.12911400  1
  O  O6  1  0.75272800  0.92305500  0.62394300  1
  O  O7  1  0.64768300  0.34104300  0.72321200  1
  O  O8  1  0.80025900  0.62426900  0.27864100  1
  O  O9  1  0.96886300  0.28160000  0.16071600  1
loop_
_geom_bond_atom_site_label_1
_geom_bond_atom_site_label_2
_geom_bond_distance
_geom_bond_site_symmetry_2
Nb0 O2 2.030789 1_555
Nb0 O7 2.030789 1_454
Nb0 O1 2.094604 1_554
Nb0 O8 2.094604 1_455
Nb0 O9 2.115139 1_455
Nb0 O0 2.115139 1_554
Nb1 O5 2.022072 1_445
Nb1 O4 2.022072 1_554
Nb1 O3 2.070956 1_555
Nb1 O6 2.070956 1_444
Nb1 O0 2.119940 1_544
Nb1 O9 2.119940 1_455
H0 O9 0.992941 1_455
H1 O0 0.992941 1_655
O1 P0 1.561673 1_555
O2 P1 1.541104 1_555
O3 P0 1.537105 1_555
O4 P0 1.553538 1_555
O5 P1 1.553538 1_555
O6 P1 1.537105 1_555
O7 P0 1.541104 1_555
O8 P1 1.561673 1_555
