# generated using pymatgen
data_NaAgO2
_symmetry_space_group_name_H-M   'P 1'
_cell_length_a   3.51253075
_cell_length_b   3.51253075
_cell_length_c   6.33576987
_cell_angle_alpha   61.77904163
_cell_angle_beta   118.22095837
_cell_angle_gamma   129.67311978
_symmetry_Int_Tables_number   1
_chemical_formula_structural   NaAgO2
_chemical_formula_sum   'Na1 Ag1 O2'
_cell_volume   51.30268644
_cell_formula_units_Z   1
loop_
 _symmetry_equiv_pos_site_id
 _symmetry_equiv_pos_as_xyz
  1  'x, y, z'
loop_
 _atom_site_type_symbol
 _atom_site_label
 _atom_site_symmetry_multiplicity
 _atom_site_fract_x
 _atom_site_fract_y
 _atom_site_fract_z
 _atom_site_occupancy
  Na  Na0  1  0.50000000  0.50000000  0.50000000  1
  Ag  Ag0  1  0.00000000  -0.00000000  0.00000000  1
  O  O0  1  0.32847169  0.67152831  0.75590582  1
  O  O1  1  0.67152831  0.32847169  0.24409418  1
loop_
_geom_bond_atom_site_label_1
_geom_bond_atom_site_label_2
_geom_bond_distance
_geom_bond_site_symmetry_2
Na0 O0 2.380345 1_555
Na0 O1 2.380345 1_555
Na0 O1 2.383929 1_455
Na0 O0 2.383929 1_545
Na0 O1 2.383929 1_565
Na0 O0 2.383929 1_655
Ag0 O1 2.012319 1_555
Ag0 O1 2.012319 1_445
Ag0 O0 2.012319 1_444
Ag0 O0 2.012319 1_554
