# generated using pymatgen
data_Li2NbCo3O8
_symmetry_space_group_name_H-M   'P 1'
_cell_length_a   5.77939485
_cell_length_b   5.77939485
_cell_length_c   9.40659400
_cell_angle_alpha   90.00000000
_cell_angle_beta   90.00000000
_cell_angle_gamma   120.00000969
_symmetry_Int_Tables_number   1
_chemical_formula_structural   Li2NbCo3O8
_chemical_formula_sum   'Li4 Nb2 Co6 O16'
_cell_volume   272.09948622
_cell_formula_units_Z   2
loop_
 _symmetry_equiv_pos_site_id
 _symmetry_equiv_pos_as_xyz
  1  'x, y, z'
loop_
 _atom_site_type_symbol
 _atom_site_label
 _atom_site_symmetry_multiplicity
 _atom_site_fract_x
 _atom_site_fract_y
 _atom_site_fract_z
 _atom_site_occupancy
  Li  Li0  1  0.33333300  0.66666700  0.89600200  1
  Li  Li1  1  0.00000000  0.00000000  0.99606100  1
  Li  Li2  1  0.00000000  0.00000000  0.49606100  1
  Li  Li3  1  0.66666700  0.33333300  0.39600200  1
  Nb  Nb0  1  0.33333300  0.66666700  0.49648700  1
  Nb  Nb1  1  0.66666700  0.33333300  0.99648700  1
  Co  Co0  1  0.16981400  0.83018600  0.21583900  1
  Co  Co1  1  0.16981400  0.33962800  0.21583900  1
  Co  Co2  1  0.66037200  0.83018600  0.21583900  1
  Co  Co3  1  0.33962800  0.16981400  0.71583900  1
  Co  Co4  1  0.83018600  0.66037200  0.71583900  1
  Co  Co5  1  0.83018600  0.16981400  0.71583900  1
  O  O0  1  0.16493600  0.83506400  0.59965800  1
  O  O1  1  0.03794000  0.51897000  0.33408200  1
  O  O2  1  0.33333300  0.66666700  0.11227400  1
  O  O3  1  0.00000000  0.00000000  0.30777800  1
  O  O4  1  0.00000000  0.00000000  0.80777800  1
  O  O5  1  0.16493600  0.32987200  0.59965800  1
  O  O6  1  0.48103000  0.96206000  0.33408200  1
  O  O7  1  0.48103000  0.51897000  0.33408200  1
  O  O8  1  0.32987200  0.16493600  0.09965800  1
  O  O9  1  0.67012800  0.83506400  0.59965800  1
  O  O10  1  0.51897000  0.48103000  0.83408200  1
  O  O11  1  0.51897000  0.03794000  0.83408200  1
  O  O12  1  0.66666700  0.33333300  0.61227400  1
  O  O13  1  0.83506400  0.67012800  0.09965800  1
  O  O14  1  0.96206000  0.48103000  0.83408200  1
  O  O15  1  0.83506400  0.16493600  0.09965800  1
loop_
_geom_bond_atom_site_label_1
_geom_bond_atom_site_label_2
_geom_bond_distance
_geom_bond_site_symmetry_2
Li0 O14 1.947404 1_455
Li0 O11 1.947404 1_565
Li0 O10 1.947409 1_555
Li0 O2 2.034383 1_556
Li1 O4 1.771102 1_555
Li1 O8 1.917181 1_556
Li1 O13 1.917181 1_446
Li1 O15 1.917181 1_456
Li2 O3 1.771102 1_555
Li2 O5 1.917181 1_555
Li2 O9 1.917181 1_445
Li2 O0 1.917181 1_545
Li3 O6 1.947404 1_545
Li3 O1 1.947404 1_655
Li3 O7 1.947409 1_555
Li3 O12 2.034383 1_555
Nb0 O0 1.945095 1_555
Nb0 O9 1.945099 1_555
Nb0 O5 1.945099 1_555
Nb0 O6 2.125954 1_555
Nb0 O1 2.125954 1_555
Nb0 O7 2.125957 1_555
Nb1 O15 1.945095 1_556
Nb1 O13 1.945099 1_556
Nb1 O8 1.945099 1_556
Nb1 O14 2.125954 1_555
Nb1 O11 2.125954 1_555
Nb1 O10 2.125957 1_555
Co0 O2 1.904826 1_555
Co0 O3 1.907224 1_565
Co0 O1 1.918926 1_555
Co0 O6 1.918926 1_555
Co0 O8 2.000827 1_565
Co0 O13 2.000827 1_455
Co1 O2 1.904830 1_555
Co1 O3 1.907224 1_555
Co1 O7 1.918926 1_555
Co1 O1 1.918926 1_555
Co1 O15 2.000827 1_455
Co1 O8 2.000827 1_555
Co2 O2 1.904830 1_555
Co2 O3 1.907224 1_665
Co2 O7 1.918926 1_555
Co2 O6 1.918926 1_555
Co2 O15 2.000827 1_565
Co2 O13 2.000827 1_555
Co3 O12 1.904830 1_555
Co3 O4 1.907224 1_555
Co3 O10 1.918926 1_555
Co3 O11 1.918926 1_555
Co3 O0 2.000827 1_545
Co3 O5 2.000827 1_555
Co4 O12 1.904830 1_555
Co4 O4 1.907224 1_665
Co4 O10 1.918926 1_555
Co4 O14 1.918926 1_555
Co4 O0 2.000827 1_655
Co4 O9 2.000827 1_555
Co5 O12 1.904826 1_555
Co5 O4 1.907224 1_655
Co5 O11 1.918926 1_555
Co5 O14 1.918926 1_555
Co5 O9 2.000827 1_545
Co5 O5 2.000827 1_655
