# generated using pymatgen
data_AgPO3
_symmetry_space_group_name_H-M   'P 1'
_cell_length_a   4.05025800
_cell_length_b   5.87268600
_cell_length_c   11.96470882
_cell_angle_alpha   68.46602396
_cell_angle_beta   90.00000000
_cell_angle_gamma   90.00000000
_symmetry_Int_Tables_number   1
_chemical_formula_structural   AgPO3
_chemical_formula_sum   'Ag4 P4 O12'
_cell_volume   264.72683756
_cell_formula_units_Z   4
loop_
 _symmetry_equiv_pos_site_id
 _symmetry_equiv_pos_as_xyz
  1  'x, y, z'
loop_
 _atom_site_type_symbol
 _atom_site_label
 _atom_site_symmetry_multiplicity
 _atom_site_fract_x
 _atom_site_fract_y
 _atom_site_fract_z
 _atom_site_occupancy
  Ag  Ag0  1  0.85963300  0.31813100  0.90952500  1
  Ag  Ag1  1  0.35963300  0.68186900  0.59047500  1
  Ag  Ag2  1  0.64036700  0.31813100  0.40952500  1
  Ag  Ag3  1  0.14036700  0.68186900  0.09047500  1
  P  P0  1  0.51178500  0.84530900  0.82895600  1
  P  P1  1  0.01178500  0.15469100  0.67104400  1
  P  P2  1  0.98821500  0.84530900  0.32895600  1
  P  P3  1  0.48821500  0.15469100  0.17104400  1
  O  O0  1  0.68078100  0.85391200  0.93908000  1
  O  O1  1  0.35050800  0.61314800  0.82973500  1
  O  O2  1  0.25716100  0.07491500  0.78706700  1
  O  O3  1  0.75716100  0.92508500  0.71293300  1
  O  O4  1  0.85050800  0.38685200  0.67026500  1
  O  O5  1  0.18078100  0.14608800  0.56092000  1
  O  O6  1  0.81921900  0.85391200  0.43908000  1
  O  O7  1  0.14949200  0.61314800  0.32973500  1
  O  O8  1  0.24283900  0.07491500  0.28706700  1
  O  O9  1  0.74283900  0.92508500  0.21293300  1
  O  O10  1  0.64949200  0.38685200  0.17026500  1
  O  O11  1  0.31921900  0.14608800  0.06092000  1
loop_
_geom_bond_atom_site_label_1
_geom_bond_atom_site_label_2
_geom_bond_distance
_geom_bond_site_symmetry_2
Ag0 O11 2.534446 1_656
Ag0 O1 2.579089 1_655
Ag0 O1 2.636491 1_555
Ag0 O0 2.715571 1_545
Ag0 O4 2.740627 1_555
Ag0 O11 2.783768 1_556
Ag1 O6 2.534446 1_555
Ag1 O4 2.579089 1_555
Ag1 O4 2.636491 1_455
Ag1 O5 2.715571 1_565
Ag1 O1 2.740627 1_555
Ag1 O6 2.783768 1_455
Ag2 O5 2.534446 1_555
Ag2 O7 2.579089 1_555
Ag2 O7 2.636491 1_655
Ag2 O6 2.715571 1_545
Ag2 O10 2.740627 1_555
Ag2 O5 2.783768 1_655
Ag3 O0 2.534446 1_454
Ag3 O10 2.579089 1_455
Ag3 O10 2.636491 1_555
Ag3 O11 2.715571 1_565
Ag3 O7 2.740627 1_555
Ag3 O0 2.783768 1_554
O0 P0 1.502000 1_555
O1 P0 1.508751 1_555
O2 P0 1.623834 1_545
O2 P1 1.629974 1_555
O3 P1 1.623834 1_665
O3 P0 1.629974 1_555
O4 P1 1.508751 1_655
O5 P1 1.502000 1_555
O6 P2 1.502000 1_555
O7 P2 1.508751 1_455
O8 P2 1.623834 1_445
O8 P3 1.629974 1_555
O9 P3 1.623834 1_565
O9 P2 1.629974 1_555
O10 P3 1.508751 1_555
O11 P3 1.502000 1_555
