# generated using pymatgen
data_Sr3Li3Cu3(PO4)4
_symmetry_space_group_name_H-M   'P 1'
_cell_length_a   4.87419700
_cell_length_b   9.24462100
_cell_length_c   18.39025250
_cell_angle_alpha   65.43096844
_cell_angle_beta   90.00000000
_cell_angle_gamma   90.00000000
_symmetry_Int_Tables_number   1
_chemical_formula_structural   Sr3Li3Cu3(PO4)4
_chemical_formula_sum   'Sr6 Li6 Cu6 P8 O32'
_cell_volume   753.64001651
_cell_formula_units_Z   2
loop_
 _symmetry_equiv_pos_site_id
 _symmetry_equiv_pos_as_xyz
  1  'x, y, z'
loop_
 _atom_site_type_symbol
 _atom_site_label
 _atom_site_symmetry_multiplicity
 _atom_site_fract_x
 _atom_site_fract_y
 _atom_site_fract_z
 _atom_site_occupancy
  Sr  Sr0  1  0.23738100  0.79658700  0.23165500  1
  Sr  Sr1  1  0.78186400  0.17932900  0.27942400  1
  Sr  Sr2  1  0.76261900  0.79658700  0.73165500  1
  Sr  Sr3  1  0.76671100  0.49340400  0.00742700  1
  Sr  Sr4  1  0.21813600  0.17932900  0.77942400  1
  Sr  Sr5  1  0.23328900  0.49340400  0.50742700  1
  Li  Li0  1  0.32409300  0.53236000  0.71427600  1
  Li  Li1  1  0.74489600  0.78172400  0.40425300  1
  Li  Li2  1  0.23934200  0.20592700  0.10044800  1
  Li  Li3  1  0.25510400  0.78172400  0.90425300  1
  Li  Li4  1  0.67590700  0.53236000  0.21427600  1
  Li  Li5  1  0.76065800  0.20592700  0.60044800  1
  Cu  Cu0  1  0.80293900  0.27832500  0.89512300  1
  Cu  Cu1  1  0.39312200  0.77937200  0.57754500  1
  Cu  Cu2  1  0.74709000  0.99869400  0.50334100  1
  Cu  Cu3  1  0.19706100  0.27832500  0.39512300  1
  Cu  Cu4  1  0.60687800  0.77937200  0.07754500  1
  Cu  Cu5  1  0.25291000  0.99869400  0.00334100  1
  P  P0  1  0.77633400  0.45350200  0.65620400  1
  P  P1  1  0.80539100  0.05940300  0.10100600  1
  P  P2  1  0.29020400  0.53749300  0.84878300  1
  P  P3  1  0.31391500  0.93526600  0.39847400  1
  P  P4  1  0.19460900  0.05940300  0.60100600  1
  P  P5  1  0.22366600  0.45350200  0.15620400  1
  P  P6  1  0.68608500  0.93526600  0.89847400  1
  P  P7  1  0.70979600  0.53749300  0.34878300  1
  O  O0  1  0.68646200  0.42281600  0.58282800  1
  O  O1  1  0.93091200  0.91597600  0.08487200  1
  O  O2  1  0.67711900  0.31845800  0.73499100  1
  O  O3  1  0.09624200  0.45848400  0.65504300  1
  O  O4  1  0.49150700  0.03832500  0.11201500  1
  O  O5  1  0.17041800  0.38533800  0.84335900  1
  O  O6  1  0.94444100  0.05919500  0.17744700  1
  O  O7  1  0.88893400  0.21659700  0.03049800  1
  O  O8  1  0.40832300  0.77355100  0.46659900  1
  O  O9  1  0.44396200  0.93902800  0.32055000  1
  O  O10  1  0.65687800  0.61590900  0.65162100  1
  O  O11  1  0.60359500  0.51652200  0.86767300  1
  O  O12  1  0.25849700  0.67771600  0.76346700  1
  O  O13  1  0.00052100  0.94541400  0.39342400  1
  O  O14  1  0.14356800  0.58338500  0.91024200  1
  O  O15  1  0.44086500  0.07569500  0.41631800  1
  O  O16  1  0.06908800  0.91597600  0.58487200  1
  O  O17  1  0.31353800  0.42281600  0.08282800  1
  O  O18  1  0.50849300  0.03832500  0.61201500  1
  O  O19  1  0.32288100  0.31845800  0.23499100  1
  O  O20  1  0.90375800  0.45848400  0.15504300  1
  O  O21  1  0.82958200  0.38533800  0.34335900  1
  O  O22  1  0.05555900  0.05919500  0.67744700  1
  O  O23  1  0.11106600  0.21659700  0.53049800  1
  O  O24  1  0.59167700  0.77355100  0.96659900  1
  O  O25  1  0.55603800  0.93902800  0.82055000  1
  O  O26  1  0.34312200  0.61590900  0.15162100  1
  O  O27  1  0.99947900  0.94541400  0.89342400  1
  O  O28  1  0.39640500  0.51652200  0.36767300  1
  O  O29  1  0.74150300  0.67771600  0.26346700  1
  O  O30  1  0.55913500  0.07569500  0.91631800  1
  O  O31  1  0.85643200  0.58338500  0.41024200  1
loop_
_geom_bond_atom_site_label_1
_geom_bond_atom_site_label_2
_geom_bond_distance
_geom_bond_site_symmetry_2
Li0 O3 1.872188 1_555
Li0 O12 1.933174 1_555
Li0 O10 1.953261 1_555
Li0 O5 2.315291 1_555
Li1 O31 1.871289 1_555
Li1 O13 1.905628 1_655
Li1 O8 1.984838 1_555
Li1 O9 2.185016 1_555
Li2 O4 1.918998 1_555
Li2 O17 1.927629 1_555
Li2 O6 2.077019 1_455
Li2 O7 2.115691 1_455
Li3 O14 1.871289 1_555
Li3 O27 1.905628 1_455
Li3 O24 1.984838 1_555
Li3 O25 2.185016 1_555
Li4 O20 1.872188 1_555
Li4 O29 1.933174 1_555
Li4 O26 1.953261 1_555
Li4 O21 2.315291 1_555
Li5 O18 1.918998 1_555
Li5 O0 1.927629 1_555
Li5 O22 2.077019 1_655
Li5 O23 2.115691 1_655
Cu0 O5 2.076064 1_655
Cu0 O30 2.113277 1_555
Cu0 O11 2.263517 1_555
Cu0 O7 2.349029 1_556
Cu1 O10 2.019963 1_555
Cu1 O16 2.061305 1_555
Cu1 O8 2.064610 1_555
Cu2 O16 2.083915 1_655
Cu2 O15 2.085289 1_565
Cu2 O18 2.467750 1_565
Cu2 O13 2.585059 1_655
Cu3 O21 2.076064 1_455
Cu3 O15 2.113277 1_555
Cu3 O28 2.263517 1_555
Cu3 O23 2.349029 1_555
Cu4 O26 2.019963 1_555
Cu4 O1 2.061305 1_555
Cu4 O24 2.064610 1_554
Cu5 O1 2.083915 1_455
Cu5 O30 2.085289 1_564
Cu5 O4 2.467750 1_565
Cu5 O27 2.585059 1_454
O0 P0 1.552927 1_555
O0 Sr5 2.544638 1_555
O0 Sr5 2.949610 1_655
O1 P1 1.596118 1_565
O1 Sr0 2.873791 1_655
O2 P0 1.545178 1_555
O2 Sr4 2.540269 1_555
O2 Sr4 2.898606 1_655
O3 P0 1.559859 1_455
O3 Sr5 2.681648 1_555
O3 Sr4 2.708553 1_555
O4 P1 1.544942 1_555
O4 Sr0 2.698254 1_545
O5 P2 1.563997 1_555
O5 Sr4 2.631671 1_555
O6 P1 1.559903 1_555
O6 Sr0 2.629404 1_645
O6 Sr1 2.666539 1_555
O7 P1 1.546604 1_555
O7 Sr3 2.486043 1_555
O8 P3 1.568063 1_555
O8 Sr5 2.526244 1_555
O9 P3 1.554082 1_555
O9 Sr1 2.611987 1_565
O9 Sr0 2.685259 1_555
O10 P0 1.579578 1_555
O10 Sr2 2.695597 1_555
O11 P2 1.560643 1_555
O11 Sr3 2.612757 1_556
O11 Sr2 2.859305 1_555
O12 P2 1.573109 1_555
O12 Sr2 2.618622 1_455
O12 Sr2 2.655756 1_555
O13 P3 1.530873 1_555
O13 Sr1 2.537193 1_465
O14 P2 1.538520 1_555
O14 Sr3 2.454391 1_456
O15 P3 1.590659 1_545
O15 Sr1 2.830657 1_555
O16 P4 1.596118 1_565
O16 Sr2 2.873791 1_455
O17 P5 1.552927 1_555
O17 Sr3 2.544638 1_555
O17 Sr3 2.949610 1_455
O18 P4 1.544942 1_555
O18 Sr2 2.698254 1_545
O19 P5 1.545178 1_555
O19 Sr1 2.540269 1_555
O19 Sr1 2.898606 1_455
O20 P5 1.559859 1_655
O20 Sr3 2.681648 1_555
O20 Sr1 2.708553 1_555
O21 P7 1.563997 1_555
O21 Sr1 2.631671 1_555
O22 P4 1.559903 1_555
O22 Sr2 2.629404 1_445
O22 Sr4 2.666539 1_555
O23 P4 1.546604 1_555
O23 Sr5 2.486043 1_555
O24 P6 1.568063 1_555
O24 Sr3 2.526244 1_556
O25 P6 1.554082 1_555
O25 Sr4 2.611987 1_565
O25 Sr2 2.685259 1_555
O26 P5 1.579578 1_555
O26 Sr0 2.695597 1_555
O27 P6 1.530873 1_555
O27 Sr4 2.537193 1_665
O28 P7 1.560643 1_555
O28 Sr5 2.612757 1_555
O28 Sr0 2.859305 1_555
O29 P7 1.573109 1_555
O29 Sr0 2.618622 1_655
O29 Sr0 2.655756 1_555
O30 P6 1.590659 1_545
O30 Sr4 2.830657 1_555
O31 P7 1.538520 1_555
O31 Sr5 2.454391 1_655
