# generated using pymatgen
data_LiVP2HO8
_symmetry_space_group_name_H-M   'P 1'
_cell_length_a   7.78885600
_cell_length_b   7.96969614
_cell_length_c   9.75459227
_cell_angle_alpha   90.42914438
_cell_angle_beta   112.40990388
_cell_angle_gamma   89.89205402
_symmetry_Int_Tables_number   1
_chemical_formula_structural   LiVP2HO8
_chemical_formula_sum   'Li4 V4 P8 H4 O32'
_cell_volume   559.77014034
_cell_formula_units_Z   4
loop_
 _symmetry_equiv_pos_site_id
 _symmetry_equiv_pos_as_xyz
  1  'x, y, z'
loop_
 _atom_site_type_symbol
 _atom_site_label
 _atom_site_symmetry_multiplicity
 _atom_site_fract_x
 _atom_site_fract_y
 _atom_site_fract_z
 _atom_site_occupancy
  Li  Li0  1  0.34859700  0.36741700  0.22759400  1
  Li  Li1  1  0.14975800  0.87177900  0.27298800  1
  Li  Li2  1  0.65431300  0.63649700  0.77708400  1
  Li  Li3  1  0.34560000  0.36613100  0.72901400  1
  V  V0  1  0.98600600  0.49701100  0.24756800  1
  V  V1  1  0.51372400  0.99694900  0.25356600  1
  V  V2  1  0.99772200  0.50173900  0.74890000  1
  V  V3  1  0.50430900  0.00289600  0.75066100  1
  P  P0  1  0.76920900  0.84699500  0.06864900  1
  P  P1  1  0.26157000  0.65134800  0.06868800  1
  P  P2  1  0.73157500  0.35030100  0.43173600  1
  P  P3  1  0.77231300  0.85465300  0.57022100  1
  P  P4  1  0.23511600  0.15430200  0.43139200  1
  P  P5  1  0.26115800  0.65917100  0.56564200  1
  P  P6  1  0.73343200  0.34780700  0.93207300  1
  P  P7  1  0.23508000  0.15192000  0.93068500  1
  H  H0  1  0.48865300  0.50944000  0.01225000  1
  H  H1  1  0.49016400  0.51017400  0.50935500  1
  H  H2  1  0.00424700  0.00283800  0.49572600  1
  H  H3  1  0.01271200  0.01168800  0.98579200  1
  O  O0  1  0.94725500  0.94135000  0.09483800  1
  O  O1  1  0.85943500  0.33145700  0.09828200  1
  O  O2  1  0.81385900  0.67131600  0.13899000  1
  O  O3  1  0.64734000  0.94296200  0.14146300  1
  O  O4  1  0.44102700  0.54787500  0.09645400  1
  O  O5  1  0.35512200  0.17394200  0.09857600  1
  O  O6  1  0.30948200  0.82460900  0.14264000  1
  O  O7  1  0.15423700  0.54856400  0.14625700  1
  O  O8  1  0.84937900  0.44616300  0.35731900  1
  O  O9  1  0.68796900  0.17341200  0.36431900  1
  O  O10  1  0.63825200  0.83280200  0.40492500  1
  O  O11  1  0.55179600  0.44417300  0.40654100  1
  O  O12  1  0.34818300  0.05210000  0.35566400  1
  O  O13  1  0.18722700  0.32604600  0.35387000  1
  O  O14  1  0.94919400  0.94647800  0.58866800  1
  O  O15  1  0.85999100  0.34517600  0.59893400  1
  O  O16  1  0.14444600  0.67547400  0.39817200  1
  O  O17  1  0.06048900  0.05009300  0.40625800  1
  O  O18  1  0.81380900  0.68034400  0.64875800  1
  O  O19  1  0.65316700  0.94796600  0.64699300  1
  O  O20  1  0.44624100  0.55688900  0.59524500  1
  O  O21  1  0.35824200  0.17862000  0.59875000  1
  O  O22  1  0.31925900  0.82907200  0.64108800  1
  O  O23  1  0.15864000  0.54891200  0.63995300  1
  O  O24  1  0.84108600  0.45388900  0.85664600  1
  O  O25  1  0.68552500  0.17290500  0.86173300  1
  O  O26  1  0.64243700  0.82745000  0.90147700  1
  O  O27  1  0.55356200  0.44771500  0.90412300  1
  O  O28  1  0.35338300  0.05704300  0.85729600  1
  O  O29  1  0.18626300  0.32408400  0.85088400  1
  O  O30  1  0.14098400  0.66005400  0.90103300  1
  O  O31  1  0.05299900  0.05743000  0.90267900  1
loop_
_geom_bond_atom_site_label_1
_geom_bond_atom_site_label_2
_geom_bond_distance
_geom_bond_site_symmetry_2
Li0 O11 1.951229 1_555
Li0 O5 1.995851 1_555
Li0 O7 2.024495 1_555
Li0 O13 2.096145 1_555
Li0 O4 2.226372 1_555
Li1 O0 1.932965 1_455
Li1 O16 2.001964 1_555
Li1 O12 2.035907 1_565
Li1 O6 2.121997 1_555
Li1 O17 2.202445 1_565
Li2 O26 1.963232 1_555
Li2 O20 1.992605 1_555
Li2 O24 1.996173 1_555
Li2 O18 2.103850 1_555
Li2 O27 2.277920 1_555
Li3 O27 1.960076 1_555
Li3 O21 1.980896 1_555
Li3 O23 2.010884 1_555
Li3 O29 2.048943 1_555
Li3 O20 2.332913 1_555
H0 O4 1.064993 1_555
H0 O27 1.417012 1_554
H1 O20 1.082120 1_555
H1 O11 1.367909 1_555
H2 O17 1.180007 1_555
H2 O14 1.229148 1_445
H3 O31 1.042822 1_555
H3 O0 1.459154 1_446
O0 P0 1.511561 1_555
O1 P6 1.548630 1_554
O1 V0 1.927396 1_555
O2 P0 1.543588 1_555
O2 V0 1.944629 1_555
O3 P0 1.579128 1_555
O3 V1 1.822903 1_555
O4 P1 1.554831 1_555
O5 P7 1.554317 1_554
O5 V1 2.098304 1_545
O6 P1 1.532357 1_555
O6 V1 2.064344 1_555
O7 P1 1.560965 1_555
O7 V0 1.964138 1_455
O8 P2 1.572047 1_555
O8 V0 1.821972 1_555
O9 P2 1.533898 1_555
O9 V1 1.963009 1_545
O10 P3 1.559883 1_555
O10 V1 1.940185 1_555
O11 P2 1.522261 1_555
O12 P4 1.571297 1_555
O12 V1 1.953956 1_545
O13 P4 1.543681 1_555
O13 V0 2.040124 1_455
O14 P3 1.509570 1_555
O15 P2 1.555356 1_555
O15 V2 1.904955 1_555
O16 P5 1.543493 1_555
O16 V0 2.072935 1_455
O17 P4 1.531929 1_555
O18 P3 1.564185 1_555
O18 V2 1.994638 1_555
O19 P3 1.579247 1_555
O19 V3 1.855789 1_565
O20 P5 1.583583 1_555
O21 P4 1.557115 1_555
O21 V3 2.047230 1_555
O22 P5 1.520964 1_555
O22 V3 1.987386 1_565
O23 P5 1.545546 1_555
O23 V2 1.965967 1_455
O24 P6 1.562554 1_555
O24 V2 1.929749 1_555
O25 P6 1.531484 1_555
O25 V3 1.954774 1_555
O26 P0 1.558042 1_556
O26 V3 2.023665 1_565
O27 P6 1.542365 1_555
O28 P7 1.557406 1_555
O28 V3 1.890444 1_555
O29 P7 1.556125 1_555
O29 V2 2.012519 1_455
O30 P1 1.546550 1_556
O30 V2 1.937522 1_455
O31 P7 1.535761 1_555
