# generated using pymatgen
data_Li6NiO4
_symmetry_space_group_name_H-M   'P 1'
_cell_length_a   8.02271877
_cell_length_b   8.14720143
_cell_length_c   8.02135627
_cell_angle_alpha   109.46384836
_cell_angle_beta   108.82614448
_cell_angle_gamma   109.48287074
_symmetry_Int_Tables_number   1
_chemical_formula_structural   Li6NiO4
_chemical_formula_sum   'Li24 Ni4 O16'
_cell_volume   406.75196471
_cell_formula_units_Z   4
loop_
 _symmetry_equiv_pos_site_id
 _symmetry_equiv_pos_as_xyz
  1  'x, y, z'
loop_
 _atom_site_type_symbol
 _atom_site_label
 _atom_site_symmetry_multiplicity
 _atom_site_fract_x
 _atom_site_fract_y
 _atom_site_fract_z
 _atom_site_occupancy
  Li  Li0  1  0.34950300  0.24999200  0.59951200  1
  Li  Li1  1  0.84952400  0.25006000  0.09948900  1
  Li  Li2  1  0.15048100  0.74999200  0.90052300  1
  Li  Li3  1  0.65046600  0.75000600  0.40051900  1
  Li  Li4  1  0.09963300  0.25009700  0.34965900  1
  Li  Li5  1  0.59960700  0.24996300  0.84955100  1
  Li  Li6  1  0.40038000  0.75005100  0.15045100  1
  Li  Li7  1  0.90032300  0.74994100  0.65036500  1
  Li  Li8  1  0.12368500  0.03207200  0.65590700  1
  Li  Li9  1  0.62365300  0.03204400  0.15589400  1
  Li  Li10  1  0.90516200  0.03116900  0.87393300  1
  Li  Li11  1  0.40526000  0.03121300  0.37402200  1
  Li  Li12  1  0.34282100  0.46888100  0.87404300  1
  Li  Li13  1  0.84280100  0.46883400  0.37405200  1
  Li  Li14  1  0.12379800  0.46800500  0.09169000  1
  Li  Li15  1  0.62382200  0.46795900  0.59163800  1
  Li  Li16  1  0.37581800  0.53092000  0.40693700  1
  Li  Li17  1  0.87587200  0.53080500  0.90684700  1
  Li  Li18  1  0.15863600  0.53242100  0.62610700  1
  Li  Li19  1  0.65847400  0.53223100  0.12610800  1
  Li  Li20  1  0.59381400  0.96776500  0.62625000  1
  Li  Li21  1  0.09384300  0.96776900  0.12630500  1
  Li  Li22  1  0.37602000  0.96907300  0.84490500  1
  Li  Li23  1  0.87599100  0.96907500  0.34495600  1
  Ni  Ni0  1  0.36821200  0.25001400  0.11820300  1
  Ni  Ni1  1  0.63215500  0.74998500  0.88223100  1
  Ni  Ni2  1  0.86840000  0.25003800  0.61816200  1
  Ni  Ni3  1  0.13168600  0.75004800  0.38183900  1
  O  O0  1  0.36355500  0.01724800  0.61390100  1
  O  O1  1  0.86356800  0.01728300  0.11395900  1
  O  O2  1  0.59701700  0.48330700  0.84642900  1
  O  O3  1  0.09703900  0.48349500  0.34656000  1
  O  O4  1  0.90350500  0.51654700  0.65296200  1
  O  O5  1  0.40341200  0.51654600  0.15293300  1
  O  O6  1  0.13606700  0.98275000  0.88641100  1
  O  O7  1  0.63614600  0.98281600  0.38648300  1
  O  O8  1  0.35048300  0.24913800  0.36084100  1
  O  O9  1  0.85054900  0.24919500  0.86059300  1
  O  O10  1  0.11180900  0.25075100  0.60162600  1
  O  O11  1  0.61178100  0.25079500  0.10163200  1
  O  O12  1  0.14820300  0.74895300  0.13831900  1
  O  O13  1  0.64828400  0.74873800  0.63828800  1
  O  O14  1  0.38944700  0.75122200  0.89971300  1
  O  O15  1  0.88928800  0.75114800  0.39961200  1
loop_
_geom_bond_atom_site_label_1
_geom_bond_atom_site_label_2
_geom_bond_distance
_geom_bond_site_symmetry_2
Li0 O10 1.914539 1_555
Li0 O8 1.914722 1_555
Li0 O0 1.975273 1_555
Li0 O2 1.978401 1_555
Li1 O11 1.914943 1_555
Li1 O9 1.916616 1_554
Li1 O1 1.975752 1_555
Li1 O3 1.979131 1_655
Li2 O14 1.915960 1_555
Li2 O12 1.916224 1_556
Li2 O6 1.975632 1_555
Li2 O4 1.979016 1_455
Li3 O15 1.915294 1_555
Li3 O13 1.916376 1_555
Li3 O7 1.975565 1_555
Li3 O5 1.979347 1_555
Li4 O1 1.913644 1_455
Li4 O3 1.916891 1_555
Li4 O8 1.988143 1_555
Li4 O10 1.989859 1_555
Li5 O0 1.913206 1_555
Li5 O2 1.916503 1_555
Li5 O9 1.988642 1_555
Li5 O11 1.990267 1_556
Li6 O7 1.913601 1_555
Li6 O5 1.917279 1_555
Li6 O14 1.988074 1_554
Li6 O12 1.990715 1_555
Li7 O6 1.913698 1_655
Li7 O4 1.917095 1_555
Li7 O15 1.988069 1_555
Li7 O13 1.989433 1_555
Li8 O10 1.994055 1_555
Li8 O6 1.998299 1_545
Li8 O0 2.092337 1_555
Li8 O15 2.121157 1_445
Li9 O11 1.994546 1_555
Li9 O7 1.998400 1_545
Li9 O1 2.092285 1_555
Li9 O14 2.120151 1_544
Li10 O9 1.993547 1_555
Li10 O6 1.997859 1_645
Li10 O1 2.089424 1_556
Li10 O13 2.130458 1_545
Li11 O8 1.993041 1_555
Li11 O7 1.997641 1_545
Li11 O0 2.088845 1_555
Li11 O12 2.130377 1_545
Li12 O10 1.992309 1_555
Li12 O5 1.996223 1_556
Li12 O2 2.090646 1_555
Li12 O14 2.129394 1_555
Li13 O11 1.992179 1_555
Li13 O4 1.996112 1_555
Li13 O3 2.090102 1_655
Li13 O15 2.129700 1_555
Li14 O9 1.997041 1_454
Li14 O5 1.999372 1_555
Li14 O3 2.090691 1_555
Li14 O12 2.121491 1_555
Li15 O8 1.996758 1_555
Li15 O4 1.999695 1_555
Li15 O2 2.090493 1_555
Li15 O13 2.119945 1_555
Li16 O13 1.992724 1_555
Li16 O3 1.996457 1_555
Li16 O5 2.088861 1_555
Li16 O8 2.126727 1_555
Li17 O12 1.993034 1_656
Li17 O2 1.996837 1_555
Li17 O4 2.088274 1_555
Li17 O9 2.125097 1_555
Li18 O3 1.997244 1_555
Li18 O14 1.997823 1_555
Li18 O4 2.092667 1_455
Li18 O10 2.126712 1_555
Li19 O15 1.997625 1_555
Li19 O2 1.998486 1_554
Li19 O5 2.092368 1_555
Li19 O11 2.125068 1_555
Li20 O0 1.997539 1_565
Li20 O13 1.998085 1_555
Li20 O7 2.092901 1_555
Li20 O9 2.124092 1_565
Li21 O12 1.995901 1_555
Li21 O1 1.997801 1_465
Li21 O6 2.093353 1_554
Li21 O8 2.123946 1_565
Li22 O14 1.992999 1_555
Li22 O0 1.997196 1_565
Li22 O6 2.088347 1_555
Li22 O11 2.127623 1_566
Li23 O15 1.992706 1_555
Li23 O1 1.997343 1_565
Li23 O7 2.087722 1_555
Li23 O10 2.127403 1_665
Ni0 O8 1.998888 1_555
Ni0 O11 1.999016 1_555
Ni0 O5 2.002437 1_555
Ni0 O6 2.007208 1_544
Ni1 O13 1.999194 1_555
Ni1 O14 1.999911 1_555
Ni1 O2 2.001463 1_555
Ni1 O1 2.005640 1_566
Ni2 O9 1.997526 1_555
Ni2 O10 1.997794 1_655
Ni2 O4 2.002303 1_555
Ni2 O7 2.007041 1_545
Ni3 O12 1.997370 1_555
Ni3 O15 1.997982 1_455
Ni3 O3 2.002618 1_555
Ni3 O0 2.006951 1_565
