# generated using pymatgen
data_Na2Li4Ti3Al(PO4)6
_symmetry_space_group_name_H-M   'P 1'
_cell_length_a   8.76411700
_cell_length_b   8.78035286
_cell_length_c   8.78179651
_cell_angle_alpha   60.31344166
_cell_angle_beta   60.12736045
_cell_angle_gamma   60.18779261
_symmetry_Int_Tables_number   1
_chemical_formula_structural   Na2Li4Ti3Al(PO4)6
_chemical_formula_sum   'Na2 Li4 Ti3 Al1 P6 O24'
_cell_volume   480.11103015
_cell_formula_units_Z   1
loop_
 _symmetry_equiv_pos_site_id
 _symmetry_equiv_pos_as_xyz
  1  'x, y, z'
loop_
 _atom_site_type_symbol
 _atom_site_label
 _atom_site_symmetry_multiplicity
 _atom_site_fract_x
 _atom_site_fract_y
 _atom_site_fract_z
 _atom_site_occupancy
  Na  Na0  1  0.98770700  0.99112400  0.00113200  1
  Na  Na1  1  0.50410700  0.50129300  0.50933900  1
  Li  Li0  1  0.74674500  0.34699900  0.15833900  1
  Li  Li1  1  0.25216000  0.65798400  0.84916700  1
  Li  Li2  1  0.25153100  0.84752600  0.24105600  1
  Li  Li3  1  0.25162700  0.24026700  0.66034100  1
  Ti  Ti0  1  0.93068100  0.35458400  0.36283600  1
  Ti  Ti1  1  0.56555800  0.13869300  0.14697300  1
  Ti  Ti2  1  0.05425200  0.65052100  0.64800400  1
  Al  Al0  1  0.44913800  0.85043500  0.84855000  1
  P  P0  1  0.74715400  0.46014800  0.75254400  1
  P  P1  1  0.74464800  0.74690100  0.04320200  1
  P  P2  1  0.74572500  0.04179500  0.46251400  1
  P  P3  1  0.25243900  0.95999700  0.54806500  1
  P  P4  1  0.24611300  0.24083700  0.96358400  1
  P  P5  1  0.25794600  0.54410900  0.23982700  1
  O  O0  1  0.93245200  0.70258200  0.88423100  1
  O  O1  1  0.93228400  0.88633300  0.48152100  1
  O  O2  1  0.93328400  0.48503200  0.69985600  1
  O  O3  1  0.74523700  0.28426500  0.92823900  1
  O  O4  1  0.74806300  0.43571600  0.59037900  1
  O  O5  1  0.57259000  0.62866900  0.79572200  1
  O  O6  1  0.73828400  0.90735300  0.07574900  1
  O  O7  1  0.74258900  0.56900100  0.21651900  1
  O  O8  1  0.74165800  0.23051400  0.43894800  1
  O  O9  1  0.42541000  0.98753800  0.37977800  1
  O  O10  1  0.26578200  0.92948500  0.73405100  1
  O  O11  1  0.41505500  0.21246300  0.99713400  1
  O  O12  1  0.57178300  0.79927600  0.99759700  1
  O  O13  1  0.74479500  0.07153500  0.27325100  1
  O  O14  1  0.57160600  0.00176100  0.62742500  1
  O  O15  1  0.24466700  0.77078700  0.58113600  1
  O  O16  1  0.24234900  0.40332500  0.77443700  1
  O  O17  1  0.26373800  0.07013800  0.93333200  1
  O  O18  1  0.43765400  0.37734900  0.20969000  1
  O  O19  1  0.24536500  0.58055800  0.40361900  1
  O  O20  1  0.26829800  0.72876300  0.07051600  1
  O  O21  1  0.08707600  0.51278500  0.26926700  1
  O  O22  1  0.07824900  0.12741000  0.52297300  1
  O  O23  1  0.06419600  0.27515000  0.12815600  1
loop_
_geom_bond_atom_site_label_1
_geom_bond_atom_site_label_2
_geom_bond_distance
_geom_bond_site_symmetry_2
Na0 O6 2.333091 1_555
Na0 O3 2.415569 1_564
Na0 O13 2.418717 1_565
Na0 O10 2.446475 1_654
Na0 O20 2.488946 1_655
Na0 O17 2.552062 1_664
Na1 O4 2.301107 1_555
Na1 O8 2.370913 1_555
Na1 O7 2.387836 1_555
Na1 O15 2.422115 1_555
Na1 O16 2.465956 1_555
Na1 O19 2.525167 1_555
Li0 O13 2.115404 1_555
Li0 O8 2.135423 1_555
Li0 O7 2.226950 1_555
Li0 O3 2.350129 1_554
Li0 O18 2.407682 1_555
Li0 O23 2.427877 1_655
Li1 O15 2.075033 1_555
Li1 O10 2.120092 1_555
Li1 O20 2.396367 1_556
Li1 O5 2.502191 1_555
Li1 O0 2.503621 1_455
Li2 O19 2.066422 1_555
Li2 O20 2.127731 1_555
Li2 O17 2.413033 1_564
Li2 O1 2.506575 1_455
Li2 O12 2.522983 1_554
Li3 O16 2.069863 1_555
Li3 O17 2.130409 1_555
Li3 O10 2.423720 1_545
Li3 O14 2.507210 1_555
Li3 O2 2.517044 1_455
Al0 O12 1.846451 1_555
Al0 O14 1.863987 1_565
Al0 O5 1.864765 1_555
Al0 O10 1.970879 1_555
Al0 O20 1.999063 1_556
Al0 O17 2.004168 1_565
O0 P1 1.556206 1_556
O0 Ti2 1.974880 1_655
O1 P2 1.546434 1_565
O1 Ti2 1.981129 1_655
O2 P0 1.557317 1_555
O2 Ti2 1.959121 1_655
O3 P0 1.551007 1_555
O3 Ti1 2.087938 1_556
O4 P0 1.537447 1_555
O4 Ti0 2.037758 1_555
O5 P0 1.549446 1_555
O6 P1 1.540919 1_555
O6 Ti1 2.016576 1_565
O7 P1 1.550036 1_555
O7 Ti0 2.130933 1_555
O8 P2 1.548795 1_555
O8 Ti0 2.085204 1_555
O9 P3 1.522965 1_555
O9 Ti1 1.970194 1_565
O10 P3 1.574415 1_555
O11 P4 1.528464 1_555
O11 Ti1 1.981433 1_556
O12 P1 1.548020 1_556
O13 P2 1.553130 1_555
O13 Ti1 2.052221 1_555
O14 P2 1.541825 1_555
O15 P3 1.569684 1_555
O15 Ti2 2.099214 1_555
O16 P4 1.567198 1_555
O16 Ti2 2.130696 1_555
O17 P4 1.569763 1_555
O18 P5 1.539525 1_555
O18 Ti1 2.035560 1_555
O19 P5 1.564107 1_555
O19 Ti2 2.119124 1_555
O20 P5 1.572181 1_555
O21 P5 1.529213 1_555
O21 Ti0 2.030768 1_455
O22 P3 1.524085 1_545
O22 Ti0 2.024161 1_455
O23 P4 1.542646 1_554
O23 Ti0 2.076786 1_455
