# generated using pymatgen
data_Li6V3Sb3O16
_symmetry_space_group_name_H-M   'P 1'
_cell_length_a   6.10156291
_cell_length_b   6.03742445
_cell_length_c   10.05670900
_cell_angle_alpha   90.00026979
_cell_angle_beta   89.98573017
_cell_angle_gamma   119.65995229
_symmetry_Int_Tables_number   1
_chemical_formula_structural   Li6V3Sb3O16
_chemical_formula_sum   'Li6 V3 Sb3 O16'
_cell_volume   321.92689073
_cell_formula_units_Z   1
loop_
 _symmetry_equiv_pos_site_id
 _symmetry_equiv_pos_as_xyz
  1  'x, y, z'
loop_
 _atom_site_type_symbol
 _atom_site_label
 _atom_site_symmetry_multiplicity
 _atom_site_fract_x
 _atom_site_fract_y
 _atom_site_fract_z
 _atom_site_occupancy
  Li  Li0  1  0.33029800  0.66517600  0.50628300  1
  Li  Li1  1  0.33611100  0.66809200  0.87831000  1
  Li  Li2  1  0.97739400  0.98872400  0.99588800  1
  Li  Li3  1  0.98885800  0.99444100  0.50512700  1
  Li  Li4  1  0.67466600  0.33733400  0.99923000  1
  Li  Li5  1  0.65988000  0.32995800  0.38978600  1
  V  V0  1  0.83570100  0.66161100  0.71587000  1
  V  V1  1  0.66598000  0.83299300  0.21679000  1
  V  V2  1  0.83317400  0.16963700  0.71419600  1
  Sb  Sb0  1  0.16944900  0.83306900  0.21555200  1
  Sb  Sb1  1  0.16945500  0.33639500  0.21555800  1
  Sb  Sb2  1  0.33869500  0.16960000  0.71583200  1
  O  O0  1  0.14893900  0.84262200  0.60929500  1
  O  O1  1  0.02600800  0.51300600  0.32911900  1
  O  O2  1  0.33282700  0.66641500  0.10198100  1
  O  O3  1  0.00153500  0.00076800  0.32253400  1
  O  O4  1  0.00306200  0.00142700  0.81768900  1
  O  O5  1  0.14897800  0.30676800  0.60937600  1
  O  O6  1  0.48575600  0.97068000  0.31980100  1
  O  O7  1  0.48574700  0.51508600  0.31980500  1
  O  O8  1  0.30591900  0.15297100  0.10173600  1
  O  O9  1  0.70368900  0.85293500  0.61938700  1
  O  O10  1  0.52399700  0.49247400  0.82226800  1
  O  O11  1  0.52416300  0.03212800  0.82240000  1
  O  O12  1  0.66681500  0.33346400  0.60432000  1
  O  O13  1  0.84792200  0.69454500  0.11283700  1
  O  O14  1  0.96705700  0.48458600  0.81403800  1
  O  O15  1  0.84792300  0.15339300  0.11283300  1
loop_
_geom_bond_atom_site_label_1
_geom_bond_atom_site_label_2
_geom_bond_distance
_geom_bond_site_symmetry_2
Li0 O5 2.147399 1_555
Li0 O0 2.148986 1_555
Li0 O9 2.283547 1_555
Li0 O1 2.403964 1_555
Li0 O6 2.467079 1_555
Li0 O7 2.467269 1_555
Li1 O10 1.989655 1_555
Li1 O11 1.991741 1_565
Li1 O14 2.060945 1_455
Li1 O2 2.249457 1_556
Li2 O4 1.797217 1_665
Li2 O15 1.942275 1_566
Li2 O13 1.942354 1_556
Li2 O8 2.041646 1_666
Li3 O3 1.837495 1_665
Li3 O9 1.898839 1_555
Li3 O0 1.943758 1_655
Li3 O5 1.945902 1_665
Li4 O13 2.195027 1_556
Li4 O15 2.195124 1_556
Li4 O8 2.210007 1_556
Li4 O11 2.393158 1_555
Li4 O10 2.396385 1_555
Li4 O14 2.422895 1_555
Li5 O6 2.012146 1_545
Li5 O7 2.012239 1_555
Li5 O1 2.034707 1_655
Li5 O12 2.157830 1_555
O0 V0 1.981843 1_455
O0 Sb2 2.030771 1_565
O1 Sb0 2.032272 1_555
O1 Sb1 2.032345 1_555
O2 Sb1 2.074128 1_555
O2 Sb0 2.074294 1_555
O2 V1 2.110567 1_555
O3 Sb1 2.063461 1_555
O3 Sb0 2.063584 1_545
O3 V1 2.073007 1_445
O4 Sb2 2.053074 1_555
O4 V0 2.056073 1_445
O4 V2 2.057069 1_455
O5 V2 1.982351 1_455
O5 Sb2 2.030111 1_555
O6 V1 1.969152 1_555
O6 Sb0 1.981978 1_555
O7 V1 1.969003 1_555
O7 Sb1 1.981875 1_555
O8 Sb0 2.035098 1_545
O8 Sb1 2.035196 1_555
O9 V2 1.922122 1_565
O9 V0 1.961066 1_555
O10 V0 1.970208 1_555
O10 Sb2 2.010786 1_555
O11 V2 1.969285 1_555
O11 Sb2 2.012027 1_555
O12 V2 2.055200 1_555
O12 V0 2.055582 1_555
O12 Sb2 2.069589 1_555
O13 V1 1.985388 1_555
O13 Sb0 1.998095 1_655
O14 V0 1.899338 1_555
O14 V2 1.937576 1_555
O15 V1 1.985292 1_545
O15 Sb1 1.998139 1_655
