# generated using pymatgen
data_TiMn3Cr2(PO4)6
_symmetry_space_group_name_H-M   'P 1'
_cell_length_a   8.45865203
_cell_length_b   8.45865203
_cell_length_c   8.45865208
_cell_angle_alpha   61.71215832
_cell_angle_beta   61.71215832
_cell_angle_gamma   61.71216293
_symmetry_Int_Tables_number   1
_chemical_formula_structural   TiMn3Cr2(PO4)6
_chemical_formula_sum   'Ti1 Mn3 Cr2 P6 O24'
_cell_volume   444.36839143
_cell_formula_units_Z   1
loop_
 _symmetry_equiv_pos_site_id
 _symmetry_equiv_pos_as_xyz
  1  'x, y, z'
loop_
 _atom_site_type_symbol
 _atom_site_label
 _atom_site_symmetry_multiplicity
 _atom_site_fract_x
 _atom_site_fract_y
 _atom_site_fract_z
 _atom_site_occupancy
  Ti  Ti0  1  0.85297400  0.85297400  0.85297400  1
  Mn  Mn0  1  0.14656400  0.14656400  0.14656400  1
  Mn  Mn1  1  0.35393500  0.35393500  0.35393500  1
  Mn  Mn2  1  0.64560200  0.64560200  0.64560200  1
  Cr  Cr0  1  0.99972400  0.99972400  0.99972400  1
  Cr  Cr1  1  0.50121900  0.50121900  0.50121900  1
  P  P0  1  0.55057200  0.25083200  0.94941200  1
  P  P1  1  0.94941200  0.55057200  0.25083200  1
  P  P2  1  0.25083200  0.94941200  0.55057200  1
  P  P3  1  0.74976400  0.04946900  0.44969300  1
  P  P4  1  0.04946900  0.44969300  0.74976400  1
  P  P5  1  0.44969300  0.74976400  0.04946900  1
  O  O0  1  0.32030200  0.09865600  0.51862800  1
  O  O1  1  0.51862800  0.32030200  0.09865600  1
  O  O2  1  0.90651800  0.06483100  0.24801800  1
  O  O3  1  0.09865600  0.51862800  0.32030200  1
  O  O4  1  0.82841200  0.98868700  0.61101300  1
  O  O5  1  0.60156500  0.24937800  0.44596200  1
  O  O6  1  0.06483100  0.24801800  0.90651800  1
  O  O7  1  0.24937800  0.44596200  0.60156500  1
  O  O8  1  0.39627300  0.17778500  0.98994000  1
  O  O9  1  0.44596200  0.60156500  0.24937800  1
  O  O10  1  0.75458100  0.09052100  0.93090500  1
  O  O11  1  0.98994000  0.39627300  0.17778500  1
  O  O12  1  0.98868700  0.61101300  0.82841200  1
  O  O13  1  0.24801800  0.90651800  0.06483100  1
  O  O14  1  0.56794300  0.40149100  0.74514500  1
  O  O15  1  0.61101300  0.82841200  0.98868700  1
  O  O16  1  0.74514500  0.56794300  0.40149100  1
  O  O17  1  0.93090500  0.75458100  0.09052100  1
  O  O18  1  0.40149100  0.74514500  0.56794300  1
  O  O19  1  0.17778500  0.98994000  0.39627300  1
  O  O20  1  0.89782400  0.48737400  0.67848800  1
  O  O21  1  0.09052100  0.93090500  0.75458100  1
  O  O22  1  0.48737400  0.67848800  0.89782400  1
  O  O23  1  0.67848800  0.89782400  0.48737400  1
loop_
_geom_bond_atom_site_label_1
_geom_bond_atom_site_label_2
_geom_bond_distance
_geom_bond_site_symmetry_2
Mn0 O8 1.957332 1_554
Mn0 O19 1.957332 1_545
Mn0 O11 1.957332 1_455
Mn0 O2 2.110414 1_455
Mn0 O6 2.110415 1_554
Mn0 O13 2.110415 1_545
Mn1 O0 2.009919 1_555
Mn1 O1 2.009919 1_555
Mn1 O3 2.009919 1_555
Mn1 O9 2.216443 1_555
Mn1 O7 2.216443 1_555
Mn1 O5 2.216443 1_555
Mn2 O23 1.980803 1_555
Mn2 O22 1.980803 1_555
Mn2 O20 1.980803 1_555
Mn2 O14 2.125458 1_555
Mn2 O16 2.125458 1_555
Mn2 O18 2.125458 1_555
Cr0 O17 2.106974 1_556
Cr0 O21 2.106974 1_655
Cr0 O10 2.106974 1_565
Cr0 O6 2.109784 1_665
Cr0 O2 2.109784 1_566
Cr0 O13 2.109784 1_656
Cr1 O16 2.071255 1_555
Cr1 O14 2.071255 1_555
Cr1 O18 2.071255 1_555
Cr1 O7 2.081045 1_555
Cr1 O9 2.081045 1_555
Cr1 O5 2.081045 1_555
O0 P2 1.497089 1_545
O1 P0 1.497090 1_554
O2 P3 1.579376 1_555
O3 P1 1.497090 1_455
O4 P3 1.562104 1_565
O4 Ti0 1.870809 1_555
O5 P3 1.552289 1_555
O6 P4 1.579376 1_555
O7 P4 1.552289 1_555
O8 P0 1.530441 1_555
O9 P5 1.552289 1_555
O10 P0 1.602630 1_555
O10 Ti0 2.077256 1_545
O11 P1 1.530441 1_555
O12 P4 1.562104 1_655
O12 Ti0 1.870809 1_555
O13 P5 1.579376 1_555
O14 P0 1.575081 1_555
O15 P5 1.562104 1_556
O15 Ti0 1.870809 1_555
O16 P1 1.575081 1_555
O17 P1 1.602630 1_555
O17 Ti0 2.077256 1_554
O18 P2 1.575081 1_555
O19 P2 1.530441 1_555
O20 P4 1.507904 1_655
O21 P2 1.602630 1_555
O21 Ti0 2.077256 1_455
O22 P5 1.507904 1_556
O23 P3 1.507904 1_565
