# generated using pymatgen
data_Fe3P4O15
_symmetry_space_group_name_H-M   'P 1'
_cell_length_a   6.39415700
_cell_length_b   10.81786400
_cell_length_c   17.39669700
_cell_angle_alpha   90.00000000
_cell_angle_beta   90.00000000
_cell_angle_gamma   90.00000000
_symmetry_Int_Tables_number   1
_chemical_formula_structural   Fe3P4O15
_chemical_formula_sum   'Fe12 P16 O60'
_cell_volume   1203.34903007
_cell_formula_units_Z   4
loop_
 _symmetry_equiv_pos_site_id
 _symmetry_equiv_pos_as_xyz
  1  'x, y, z'
loop_
 _atom_site_type_symbol
 _atom_site_label
 _atom_site_symmetry_multiplicity
 _atom_site_fract_x
 _atom_site_fract_y
 _atom_site_fract_z
 _atom_site_occupancy
  Fe  Fe0  1  0.58636200  0.00606500  0.37443300  1
  Fe  Fe1  1  0.08636200  0.50606500  0.12556700  1
  Fe  Fe2  1  0.81089400  0.25908000  0.24459400  1
  Fe  Fe3  1  0.08636200  0.99393500  0.62556700  1
  Fe  Fe4  1  0.58636200  0.49393500  0.87443300  1
  Fe  Fe5  1  0.10194000  0.50692800  0.66023100  1
  Fe  Fe6  1  0.10194000  0.99307200  0.16023100  1
  Fe  Fe7  1  0.60194000  0.49307200  0.33976900  1
  Fe  Fe8  1  0.81089400  0.24092000  0.74459400  1
  Fe  Fe9  1  0.31089400  0.74092000  0.75540600  1
  Fe  Fe10  1  0.60194000  0.00692800  0.83976900  1
  Fe  Fe11  1  0.31089400  0.75908000  0.25540600  1
  P  P0  1  0.08577500  0.47555500  0.82229900  1
  P  P1  1  0.64589100  0.22731900  0.94799800  1
  P  P2  1  0.46368000  0.73565000  0.42738700  1
  P  P3  1  0.59744400  0.50373700  0.70822100  1
  P  P4  1  0.14589100  0.77268100  0.05200200  1
  P  P5  1  0.08577500  0.02444500  0.32229900  1
  P  P6  1  0.09744400  0.00373700  0.79177900  1
  P  P7  1  0.96368000  0.23565000  0.07261300  1
  P  P8  1  0.58577500  0.97555500  0.67770100  1
  P  P9  1  0.64589100  0.27268100  0.44799800  1
  P  P10  1  0.14589100  0.72731900  0.55200200  1
  P  P11  1  0.96368000  0.26435000  0.57261300  1
  P  P12  1  0.59744400  0.99626300  0.20822100  1
  P  P13  1  0.46368000  0.76435000  0.92738700  1
  P  P14  1  0.09744400  0.49626300  0.29177900  1
  P  P15  1  0.58577500  0.52444500  0.17770100  1
  O  O0  1  0.11432900  0.59042100  0.76603200  1
  O  O1  1  0.61432900  0.40957900  0.23396800  1
  O  O2  1  0.86743100  0.29432300  0.48939700  1
  O  O3  1  0.28459800  0.45708100  0.86889700  1
  O  O4  1  0.18938500  0.68909500  0.63724500  1
  O  O5  1  0.62425800  0.11050300  0.26479600  1
  O  O6  1  0.07978500  0.14210800  0.56345900  1
  O  O7  1  0.09373300  0.63537400  0.04527200  1
  O  O8  1  0.55035600  0.86884400  0.73859800  1
  O  O9  1  0.79569000  0.52892100  0.66166100  1
  O  O10  1  0.55035600  0.63115600  0.23859800  1
  O  O11  1  0.62425800  0.38949700  0.76479600  1
  O  O12  1  0.36743100  0.70567700  0.51060300  1
  O  O13  1  0.28459800  0.04291900  0.36889800  1
  O  O14  1  0.48579200  0.35788200  0.48396300  1
  O  O15  1  0.60800800  0.87380000  0.91272900  1
  O  O16  1  0.39489100  0.99318000  0.62644900  1
  O  O17  1  0.29569000  0.02892100  0.83833900  1
  O  O18  1  0.05035600  0.36884400  0.76140200  1
  O  O19  1  0.11432900  0.90957900  0.26603200  1
  O  O20  1  0.78459800  0.54291900  0.13110300  1
  O  O21  1  0.98579200  0.64211800  0.51603700  1
  O  O22  1  0.78788200  0.24327700  0.13308900  1
  O  O23  1  0.89489100  0.49318000  0.87355100  1
  O  O24  1  0.41003400  0.01617200  0.15593600  1
  O  O25  1  0.04978600  0.38952800  0.23209100  1
  O  O26  1  0.78459800  0.95708100  0.63110300  1
  O  O27  1  0.98579200  0.85788200  0.01603700  1
  O  O28  1  0.54978600  0.61047200  0.76790900  1
  O  O29  1  0.29569000  0.47107900  0.33833900  1
  O  O30  1  0.57978500  0.64210800  0.93654100  1
  O  O31  1  0.68938500  0.31090500  0.36275500  1
  O  O32  1  0.10800800  0.37380000  0.58727100  1
  O  O33  1  0.07978500  0.35789200  0.06345900  1
  O  O34  1  0.91003400  0.98382800  0.84406400  1
  O  O35  1  0.54978600  0.88952800  0.26790900  1
  O  O36  1  0.57978500  0.85789200  0.43654100  1
  O  O37  1  0.86743100  0.20567700  0.98939700  1
  O  O38  1  0.60800800  0.62620000  0.41272900  1
  O  O39  1  0.61432900  0.09042100  0.73396800  1
  O  O40  1  0.59373300  0.36462600  0.95472800  1
  O  O41  1  0.10800800  0.12620000  0.08727100  1
  O  O42  1  0.12425800  0.88949700  0.73520400  1
  O  O43  1  0.89489100  0.00682000  0.37355100  1
  O  O44  1  0.48579200  0.14211800  0.98396300  1
  O  O45  1  0.78788200  0.25672300  0.63308900  1
  O  O46  1  0.09373300  0.86462600  0.54527200  1
  O  O47  1  0.05035600  0.13115600  0.26140200  1
  O  O48  1  0.18938500  0.81090500  0.13724500  1
  O  O49  1  0.41003400  0.48382800  0.65593600  1
  O  O50  1  0.04978600  0.11047200  0.73209100  1
  O  O51  1  0.39489100  0.50682000  0.12644900  1
  O  O52  1  0.79569000  0.97107900  0.16166100  1
  O  O53  1  0.12425800  0.61050300  0.23520400  1
  O  O54  1  0.68938500  0.18909500  0.86275500  1
  O  O55  1  0.91003400  0.51617200  0.34406400  1
  O  O56  1  0.36743100  0.79432300  0.01060300  1
  O  O57  1  0.59373300  0.13537400  0.45472800  1
  O  O58  1  0.28788200  0.74327700  0.36691100  1
  O  O59  1  0.28788200  0.75672300  0.86691100  1
loop_
_geom_bond_atom_site_label_1
_geom_bond_atom_site_label_2
_geom_bond_distance
_geom_bond_site_symmetry_2
Fe0 O36 1.933528 1_545
Fe0 O13 1.972636 1_555
Fe0 O43 1.972859 1_555
Fe0 O57 1.977431 1_555
Fe0 O5 2.230029 1_555
Fe0 O35 2.253494 1_545
Fe1 O33 1.933528 1_555
Fe1 O20 1.972636 1_455
Fe1 O51 1.972859 1_555
Fe1 O7 1.977431 1_555
Fe1 O53 2.230029 1_555
Fe1 O25 2.253494 1_555
Fe2 O22 1.952888 1_555
Fe2 O5 2.032496 1_555
Fe2 O1 2.065073 1_555
Fe2 O47 2.084472 1_655
Fe2 O25 2.090934 1_655
Fe2 O31 2.267928 1_555
Fe3 O6 1.933528 1_565
Fe3 O26 1.972636 1_455
Fe3 O16 1.972859 1_555
Fe3 O46 1.977431 1_555
Fe3 O42 2.230029 1_555
Fe3 O50 2.253494 1_565
Fe4 O30 1.933528 1_555
Fe4 O3 1.972636 1_555
Fe4 O23 1.972859 1_555
Fe4 O40 1.977431 1_555
Fe4 O11 2.230029 1_555
Fe4 O28 2.253494 1_555
Fe5 O32 1.920051 1_555
Fe5 O9 1.972768 1_455
Fe5 O49 1.987193 1_555
Fe5 O0 2.051789 1_555
Fe5 O4 2.087111 1_555
Fe5 O18 2.331930 1_555
Fe6 O41 1.920051 1_565
Fe6 O52 1.972768 1_455
Fe6 O24 1.987193 1_565
Fe6 O19 2.051789 1_555
Fe6 O48 2.087111 1_555
Fe6 O47 2.331930 1_565
Fe7 O38 1.920051 1_555
Fe7 O29 1.972768 1_555
Fe7 O55 1.987193 1_555
Fe7 O1 2.051789 1_555
Fe7 O31 2.087111 1_555
Fe7 O10 2.331930 1_555
Fe8 O45 1.952888 1_555
Fe8 O11 2.032496 1_555
Fe8 O39 2.065073 1_555
Fe8 O18 2.084472 1_655
Fe8 O50 2.090934 1_655
Fe8 O54 2.267928 1_555
Fe9 O59 1.952888 1_555
Fe9 O42 2.032496 1_555
Fe9 O0 2.065073 1_555
Fe9 O8 2.084472 1_555
Fe9 O28 2.090934 1_555
Fe9 O4 2.267928 1_555
Fe10 O15 1.920051 1_545
Fe10 O17 1.972768 1_555
Fe10 O34 1.987193 1_545
Fe10 O39 2.051789 1_555
Fe10 O54 2.087111 1_555
Fe10 O8 2.331930 1_545
Fe11 O58 1.952888 1_555
Fe11 O53 2.032496 1_555
Fe11 O19 2.065073 1_555
Fe11 O10 2.084472 1_555
Fe11 O35 2.090934 1_555
Fe11 O48 2.267928 1_555
O0 P0 1.592347 1_555
O1 P15 1.592347 1_555
O2 P11 1.606137 1_555
O2 P9 1.606286 1_555
O3 P0 1.520958 1_555
O4 P10 1.564436 1_555
O5 P12 1.589139 1_545
O6 P11 1.524875 1_455
O7 P4 1.526844 1_555
O8 P8 1.583110 1_555
O9 P3 1.528776 1_555
O10 P15 1.583110 1_555
O11 P3 1.589139 1_555
O12 P2 1.606137 1_555
O12 P10 1.606286 1_555
O13 P5 1.520967 1_555
O14 P9 1.512925 1_555
O15 P13 1.522689 1_555
O16 P8 1.523501 1_555
O17 P6 1.528776 1_555
O18 P0 1.583110 1_555
O19 P5 1.592347 1_565
O20 P15 1.520958 1_555
O21 P10 1.512925 1_655
O22 P7 1.541831 1_555
O23 P0 1.523501 1_655
O24 P12 1.519778 1_545
O25 P14 1.582494 1_555
O26 P8 1.520958 1_555
O27 P4 1.512925 1_655
O28 P3 1.582494 1_555
O29 P14 1.528776 1_555
O30 P13 1.524875 1_555
O31 P9 1.564436 1_555
O32 P11 1.522689 1_455
O33 P7 1.524875 1_455
O34 P6 1.519778 1_665
O35 P12 1.582494 1_555
O36 P2 1.524875 1_555
O37 P7 1.606137 1_556
O37 P1 1.606286 1_555
O38 P2 1.522689 1_555
O39 P8 1.592347 1_545
O40 P1 1.526844 1_555
O41 P7 1.522689 1_455
O42 P6 1.589139 1_565
O43 P5 1.523501 1_655
O44 P1 1.512925 1_555
O45 P11 1.541831 1_555
O46 P10 1.526844 1_555
O47 P5 1.583110 1_555
O48 P4 1.564436 1_555
O49 P3 1.519778 1_555
O50 P6 1.582494 1_555
O51 P15 1.523501 1_555
O52 P12 1.528776 1_555
O53 P14 1.589139 1_555
O54 P1 1.564436 1_555
O55 P14 1.519778 1_655
O56 P13 1.606137 1_554
O56 P4 1.606286 1_555
O57 P9 1.526844 1_555
O58 P2 1.541831 1_555
O59 P13 1.541831 1_555
