# generated using pymatgen
data_Li2V2(PO4)3
_symmetry_space_group_name_H-M   'P 1'
_cell_length_a   8.65231500
_cell_length_b   8.72342769
_cell_length_c   12.18821273
_cell_angle_alpha   90.10200049
_cell_angle_beta   90.02658839
_cell_angle_gamma   90.58627961
_symmetry_Int_Tables_number   1
_chemical_formula_structural   Li2V2(PO4)3
_chemical_formula_sum   'Li8 V8 P12 O48'
_cell_volume   919.89029677
_cell_formula_units_Z   4
loop_
 _symmetry_equiv_pos_site_id
 _symmetry_equiv_pos_as_xyz
  1  'x, y, z'
loop_
 _atom_site_type_symbol
 _atom_site_label
 _atom_site_symmetry_multiplicity
 _atom_site_fract_x
 _atom_site_fract_y
 _atom_site_fract_z
 _atom_site_occupancy
  Li  Li0  1  0.77509100  0.22660500  0.81912400  1
  Li  Li1  1  0.71430500  0.77422700  0.31781600  1
  Li  Li2  1  0.71179500  0.72866600  0.68329300  1
  Li  Li3  1  0.30622500  0.26579700  0.31231800  1
  Li  Li4  1  0.21801100  0.72339000  0.82054300  1
  Li  Li5  1  0.21766000  0.77441400  0.18114900  1
  Li  Li6  1  0.07997900  0.08918900  0.70203100  1
  Li  Li7  1  0.03779300  0.41331400  0.27955900  1
  V  V0  1  0.74552000  0.04042700  0.61374500  1
  V  V1  1  0.74195400  0.45850600  0.38256100  1
  V  V2  1  0.74715600  0.54083600  0.88840000  1
  V  V3  1  0.74913900  0.97048300  0.11562400  1
  V  V4  1  0.25778100  0.04187200  0.88544200  1
  V  V5  1  0.25588000  0.46169800  0.11053700  1
  V  V6  1  0.25119500  0.53203300  0.61702900  1
  V  V7  1  0.24578700  0.95731600  0.38738500  1
  P  P0  1  0.96123100  0.74793600  0.50258600  1
  P  P1  1  0.89508400  0.89730600  0.85623000  1
  P  P2  1  0.89270800  0.60855700  0.14563500  1
  P  P3  1  0.60528100  0.39947700  0.64739300  1
  P  P4  1  0.60405900  0.10249400  0.35262800  1
  P  P5  1  0.54152700  0.25074000  0.00213200  1
  P  P6  1  0.46537900  0.75093600  0.00103700  1
  P  P7  1  0.38829300  0.89327500  0.64620800  1
  P  P8  1  0.38819500  0.60435700  0.35641700  1
  P  P9  1  0.10575100  0.10054100  0.14781100  1
  P  P10  1  0.10092100  0.39419400  0.85207300  1
  P  P11  1  0.04394800  0.25145900  0.49705900  1
  O  O0  1  0.94791800  0.35057800  0.41899500  1
  O  O1  1  0.95088200  0.14300600  0.57235000  1
  O  O2  1  0.92059300  0.40937500  0.84423700  1
  O  O3  1  0.92709200  0.08269400  0.15628200  1
  O  O4  1  0.84274800  0.93995800  0.97158800  1
  O  O5  1  0.84270700  0.56710500  0.02788800  1
  O  O6  1  0.83374500  0.73513400  0.82314800  1
  O  O7  1  0.83659000  0.77133500  0.17655800  1
  O  O8  1  0.85854900  0.83940300  0.58260000  1
  O  O9  1  0.85472700  0.66142000  0.42149600  1
  O  O10  1  0.83671000  0.02066300  0.77360200  1
  O  O11  1  0.83145600  0.48857000  0.22825400  1
  O  O12  1  0.67585500  0.51799200  0.73056100  1
  O  O13  1  0.67522800  0.98547100  0.27047900  1
  O  O14  1  0.65088000  0.34437900  0.92454500  1
  O  O15  1  0.64547800  0.15306100  0.07706600  1
  O  O16  1  0.63846700  0.26972100  0.32419300  1
  O  O17  1  0.65410300  0.23600700  0.68076200  1
  O  O18  1  0.65782300  0.43974400  0.53184800  1
  O  O19  1  0.65620100  0.05650400  0.46724800  1
  O  O20  1  0.56415800  0.60559100  0.33931300  1
  O  O21  1  0.56542500  0.89988800  0.65946700  1
  O  O22  1  0.56456200  0.64121100  0.93044100  1
  O  O23  1  0.57080400  0.85628800  0.07136000  1
  O  O24  1  0.44595300  0.35277000  0.07651900  1
  O  O25  1  0.44712400  0.14851900  0.92410900  1
  O  O26  1  0.42663000  0.41545500  0.65546700  1
  O  O27  1  0.42390200  0.08180700  0.34364200  1
  O  O28  1  0.33952500  0.92959400  0.52734000  1
  O  O29  1  0.34274800  0.56610900  0.47412400  1
  O  O30  1  0.33502100  0.72824600  0.67839100  1
  O  O31  1  0.32898800  0.76698100  0.32340200  1
  O  O32  1  0.36120600  0.83623900  0.92077300  1
  O  O33  1  0.36223500  0.66274900  0.08320300  1
  O  O34  1  0.30507200  0.00882800  0.72207000  1
  O  O35  1  0.30611300  0.48391100  0.28032500  1
  O  O36  1  0.17276900  0.51315900  0.77126500  1
  O  O37  1  0.17596400  0.98286100  0.22934200  1
  O  O38  1  0.14330600  0.34759900  0.57676100  1
  O  O39  1  0.15565000  0.16067700  0.42048000  1
  O  O40  1  0.13897200  0.22809700  0.82024700  1
  O  O41  1  0.14913700  0.26647600  0.18506500  1
  O  O42  1  0.15557700  0.43719900  0.96720000  1
  O  O43  1  0.16104700  0.06643000  0.03275200  1
  O  O44  1  0.07177100  0.60333900  0.15634000  1
  O  O45  1  0.07352500  0.89545900  0.84499100  1
  O  O46  1  0.06626000  0.64411600  0.57074100  1
  O  O47  1  0.06203800  0.85824300  0.43017700  1
loop_
_geom_bond_atom_site_label_1
_geom_bond_atom_site_label_2
_geom_bond_distance
_geom_bond_site_symmetry_2
Li0 O10 1.958544 1_555
Li0 O14 1.969942 1_555
Li0 O17 1.986726 1_555
Li0 O2 2.043885 1_555
Li1 O13 1.964524 1_555
Li1 O20 1.970539 1_555
Li1 O9 2.017149 1_555
Li1 O7 2.021479 1_555
Li2 O12 1.948936 1_555
Li2 O21 1.989744 1_555
Li2 O6 2.004718 1_555
Li2 O8 2.008038 1_555
Li3 O35 1.942937 1_555
Li3 O27 1.947771 1_555
Li3 O41 2.061842 1_555
Li3 O39 2.063399 1_555
Li4 O36 1.964294 1_555
Li4 O45 1.985419 1_555
Li4 O32 1.991448 1_555
Li4 O30 2.007387 1_555
Li5 O37 1.947170 1_555
Li5 O44 1.967589 1_555
Li5 O31 1.984508 1_555
Li5 O33 1.990215 1_555
Li6 O40 1.945598 1_555
Li6 O1 1.994500 1_455
Li6 O34 2.090992 1_555
Li6 O10 2.350841 1_455
Li6 O45 2.429790 1_545
Li7 O0 1.946345 1_455
Li7 O41 1.978981 1_555
Li7 O11 2.008403 1_455
Li7 O44 2.255894 1_555
Li7 O35 2.395795 1_555
O0 P11 1.536285 1_655
O0 V1 2.072310 1_555
O1 P11 1.540704 1_655
O1 V0 2.045094 1_555
O2 P10 1.570092 1_655
O2 V2 1.972442 1_555
O3 P9 1.555545 1_655
O3 V3 1.881796 1_545
O4 P1 1.523983 1_555
O4 V3 1.952664 1_556
O5 P2 1.540091 1_555
O5 V2 1.902580 1_554
O6 P1 1.558209 1_555
O6 V2 2.011469 1_555
O7 P2 1.551301 1_555
O7 V3 2.042820 1_555
O8 P0 1.545828 1_555
O8 V0 2.051525 1_565
O9 P0 1.542030 1_555
O9 V1 2.066830 1_555
O10 P1 1.562630 1_545
O10 V0 2.109729 1_555
O11 P2 1.543809 1_555
O11 V1 2.050502 1_555
O12 P3 1.565895 1_555
O12 V2 2.028849 1_555
O13 P4 1.559999 1_565
O13 V3 1.997576 1_555
O14 P5 1.563481 1_556
O14 V2 1.949060 1_555
O15 P5 1.544943 1_555
O15 V3 1.895658 1_545
O16 P4 1.526377 1_555
O16 V1 1.996251 1_555
O17 P3 1.546485 1_555
O17 V0 2.055955 1_555
O18 P3 1.520664 1_555
O18 V1 1.966533 1_555
O19 P4 1.523565 1_555
O19 V0 1.951124 1_555
O20 P8 1.536720 1_555
O20 V1 2.081519 1_555
O21 P7 1.541506 1_555
O21 V0 2.050812 1_565
O22 P6 1.551629 1_556
O22 V2 1.884856 1_555
O23 P6 1.546165 1_555
O23 V3 1.905297 1_555
O24 P5 1.520166 1_555
O24 V5 1.952092 1_555
O25 P5 1.532322 1_556
O25 V4 1.933398 1_555
O26 P3 1.556580 1_555
O26 V6 1.894834 1_555
O27 P4 1.571100 1_555
O27 V7 1.951206 1_545
O28 P7 1.543119 1_555
O28 V7 1.905319 1_555
O29 P8 1.524361 1_555
O29 V6 1.935944 1_555
O30 P7 1.558017 1_555
O30 V6 1.996163 1_555
O31 P8 1.566397 1_555
O31 V7 1.975750 1_555
O32 P6 1.529270 1_556
O32 V4 2.058949 1_565
O33 P6 1.542948 1_555
O33 V5 2.000782 1_555
O34 P7 1.549728 1_545
O34 V4 2.053429 1_555
O35 P8 1.564968 1_555
O35 V5 2.122483 1_555
O36 P10 1.557076 1_555
O36 V6 2.005352 1_555
O37 P9 1.557634 1_565
O37 V7 2.031826 1_555
O38 P11 1.538716 1_555
O38 V6 1.914904 1_555
O39 P11 1.564056 1_555
O39 V7 1.985974 1_545
O40 P10 1.538230 1_555
O40 V4 2.089309 1_555
O41 P9 1.558457 1_555
O41 V5 2.133644 1_555
O42 P10 1.525517 1_555
O42 V5 1.960713 1_556
O43 P9 1.511993 1_555
O43 V4 1.993424 1_554
O44 P2 1.555870 1_455
O44 V5 2.101082 1_555
O45 P1 1.550301 1_455
O45 V4 2.090774 1_565
O46 P0 1.534572 1_455
O46 V6 1.966670 1_555
O47 P0 1.565926 1_455
O47 V7 1.876394 1_555
