# generated using pymatgen
data_Li9Cr4C8(SO16)2
_symmetry_space_group_name_H-M   'P 1'
_cell_length_a   9.50280090
_cell_length_b   9.50280090
_cell_length_c   9.28047835
_cell_angle_alpha   61.09972852
_cell_angle_beta   61.09972852
_cell_angle_gamma   93.02746797
_symmetry_Int_Tables_number   1
_chemical_formula_structural   Li9Cr4C8(SO16)2
_chemical_formula_sum   'Li9 Cr4 C8 S2 O32'
_cell_volume   595.79168642
_cell_formula_units_Z   1
loop_
 _symmetry_equiv_pos_site_id
 _symmetry_equiv_pos_as_xyz
  1  'x, y, z'
loop_
 _atom_site_type_symbol
 _atom_site_label
 _atom_site_symmetry_multiplicity
 _atom_site_fract_x
 _atom_site_fract_y
 _atom_site_fract_z
 _atom_site_occupancy
  Li  Li0  1  0.81427200  0.57305100  0.59242200  1
  Li  Li1  1  0.42694900  0.18572800  0.40757800  1
  Li  Li2  1  0.42353000  0.18061500  0.98874200  1
  Li  Li3  1  0.16677600  0.41004400  0.50496800  1
  Li  Li4  1  0.81938500  0.57647000  0.01125800  1
  Li  Li5  1  0.58995600  0.83322400  0.49503200  1
  Li  Li6  1  0.58824300  0.83315800  0.08132000  1
  Li  Li7  1  0.16684200  0.41175700  0.91868000  1
  Li  Li8  1  0.16341100  0.83658900  0.50000000  1
  Cr  Cr0  1  0.00026500  0.99878000  0.75253600  1
  Cr  Cr1  1  0.50194200  0.99950500  0.74880500  1
  Cr  Cr2  1  0.00122000  0.99973500  0.24746400  1
  Cr  Cr3  1  0.00049500  0.49805800  0.25119500  1
  C  C0  1  0.78991100  0.21611800  0.68890400  1
  C  C1  1  0.83871400  0.76701700  0.19379400  1
  C  C2  1  0.78388200  0.21008900  0.31109600  1
  C  C3  1  0.77113900  0.83847000  0.69382000  1
  C  C4  1  0.21771000  0.78603000  0.19186500  1
  C  C5  1  0.23298300  0.16128600  0.80620600  1
  C  C6  1  0.16153000  0.22886100  0.30618000  1
  C  C7  1  0.21397000  0.78229000  0.80813500  1
  S  S0  1  0.36787000  0.63213000  0.50000000  1
  S  S1  1  0.62473400  0.37526600  0.00000000  1
  O  O0  1  0.17324400  0.56356000  0.62808400  1
  O  O1  1  0.42441100  0.57077100  0.63663300  1
  O  O2  1  0.43644000  0.82675600  0.37191600  1
  O  O3  1  0.22423800  0.17555900  0.66476700  1
  O  O4  1  0.42922900  0.57558900  0.36336700  1
  O  O5  1  0.82444100  0.77576200  0.33523300  1
  O  O6  1  0.36080600  0.91325600  0.67881600  1
  O  O7  1  0.83070600  0.89024800  0.05610400  1
  O  O8  1  0.80441900  0.36115800  0.54884800  1
  O  O9  1  0.63884200  0.19558100  0.45115200  1
  O  O10  1  0.10975200  0.16929400  0.94389600  1
  O  O11  1  0.91736300  0.20073400  0.70104100  1
  O  O12  1  0.86072200  0.63583300  0.18792100  1
  O  O13  1  0.63875900  0.85560400  0.69010900  1
  O  O14  1  0.20253700  0.90872500  0.21803000  1
  O  O15  1  0.08674400  0.63919400  0.32118400  1
  O  O16  1  0.91426900  0.35870400  0.17926300  1
  O  O17  1  0.79926600  0.08263700  0.29895900  1
  O  O18  1  0.36416700  0.13927800  0.81207900  1
  O  O19  1  0.09127500  0.79746300  0.78197000  1
  O  O20  1  0.14439600  0.36124100  0.30989100  1
  O  O21  1  0.89909400  0.83502100  0.55265800  1
  O  O22  1  0.35963000  0.80521300  0.04680800  1
  O  O23  1  0.19478700  0.64037000  0.95319200  1
  O  O24  1  0.16497900  0.10090600  0.44734200  1
  O  O25  1  0.64129600  0.08573100  0.82073700  1
  O  O26  1  0.17565000  0.22063100  0.16521200  1
  O  O27  1  0.56418200  0.43290500  0.13707500  1
  O  O28  1  0.77936900  0.82435000  0.83478800  1
  O  O29  1  0.56709500  0.43581800  0.86292500  1
  O  O30  1  0.54807900  0.18195100  0.13260300  1
  O  O31  1  0.81804900  0.45192100  0.86739700  1
loop_
_geom_bond_atom_site_label_1
_geom_bond_atom_site_label_2
_geom_bond_distance
_geom_bond_site_symmetry_2
Li0 O29 2.081476 1_555
Li0 O5 2.174929 1_555
Li0 O8 2.242882 1_555
Li0 O31 2.256570 1_555
Li0 O15 2.331227 1_655
Li0 O21 2.365546 1_555
Li1 O27 2.081476 1_555
Li1 O3 2.174929 1_555
Li1 O9 2.242882 1_555
Li1 O30 2.256570 1_555
Li1 O6 2.331227 1_545
Li1 O24 2.365546 1_555
Li2 O29 2.116527 1_555
Li2 O18 2.157221 1_555
Li2 O30 2.173851 1_556
Li2 O26 2.311526 1_556
Li2 O14 2.325337 1_546
Li2 O25 2.442056 1_555
Li3 O20 2.170520 1_555
Li3 O11 2.172533 1_455
Li3 O4 2.200311 1_555
Li3 O0 2.259859 1_555
Li3 O3 2.275923 1_555
Li3 O15 2.463351 1_555
Li4 O27 2.116527 1_555
Li4 O12 2.157221 1_555
Li4 O31 2.173851 1_554
Li4 O28 2.311526 1_554
Li4 O19 2.325337 1_654
Li4 O16 2.442056 1_555
Li5 O13 2.170520 1_555
Li5 O17 2.172533 1_565
Li5 O1 2.200311 1_555
Li5 O2 2.259859 1_555
Li5 O5 2.275923 1_555
Li5 O6 2.463351 1_555
Li6 O4 2.172410 1_555
Li6 O28 2.173705 1_554
Li6 O7 2.209511 1_555
Li6 O25 2.224100 1_564
Li6 O2 2.330146 1_555
Li6 O22 2.363584 1_555
Li7 O1 2.172410 1_555
Li7 O26 2.173705 1_556
Li7 O10 2.209511 1_555
Li7 O16 2.224100 1_456
Li7 O0 2.330146 1_555
Li7 O23 2.363584 1_555
Li8 O14 2.180521 1_555
Li8 O19 2.180521 1_555
Li8 O0 2.303326 1_555
Li8 O2 2.303326 1_555
Li8 O21 2.313116 1_455
Li8 O24 2.313116 1_565
Cr0 O11 2.041858 1_465
Cr0 O7 2.055528 1_456
Cr0 O24 2.076433 1_565
Cr0 O19 2.092951 1_555
Cr0 O28 2.144125 1_455
Cr0 O3 2.153955 1_565
Cr1 O18 2.004401 1_565
Cr1 O22 2.017927 1_556
Cr1 O13 2.019975 1_555
Cr1 O9 2.022450 1_565
Cr1 O6 2.032955 1_555
Cr1 O25 2.034515 1_565
Cr2 O17 2.041858 1_465
Cr2 O10 2.055528 1_564
Cr2 O21 2.076433 1_455
Cr2 O14 2.092951 1_555
Cr2 O26 2.144125 1_565
Cr2 O5 2.153955 1_455
Cr3 O12 2.004401 1_455
Cr3 O23 2.017927 1_554
Cr3 O20 2.019975 1_555
Cr3 O8 2.022450 1_455
Cr3 O15 2.032955 1_555
Cr3 O16 2.034515 1_455
C0 O11 1.278903 1_555
C0 O8 1.297402 1_555
C0 O25 1.306287 1_555
C1 O7 1.291126 1_555
C1 O5 1.297235 1_555
C1 O12 1.297288 1_555
C2 O17 1.278903 1_555
C2 O9 1.297402 1_555
C2 O16 1.306287 1_555
C3 O28 1.290725 1_555
C3 O13 1.291629 1_555
C3 O21 1.304539 1_555
C4 O22 1.283079 1_555
C4 O15 1.300177 1_555
C4 O14 1.302596 1_555
C5 O10 1.291126 1_555
C5 O3 1.297235 1_555
C5 O18 1.297288 1_555
C6 O26 1.290725 1_555
C6 O20 1.291629 1_555
C6 O24 1.304539 1_555
C7 O23 1.283079 1_555
C7 O6 1.300177 1_555
C7 O19 1.302596 1_555
O0 S0 1.502414 1_555
O1 S0 1.487792 1_555
O2 S0 1.502414 1_555
O4 S0 1.487792 1_555
O27 S1 1.499553 1_555
O29 S1 1.499553 1_556
O30 S1 1.492248 1_555
O31 S1 1.492248 1_556
