# generated using pymatgen
data_Li6VSn3(PO4)6
_symmetry_space_group_name_H-M   'P 1'
_cell_length_a   8.60393500
_cell_length_b   8.63187971
_cell_length_c   8.64903103
_cell_angle_alpha   64.24934766
_cell_angle_beta   64.53823153
_cell_angle_gamma   64.41086475
_symmetry_Int_Tables_number   1
_chemical_formula_structural   Li6VSn3(PO4)6
_chemical_formula_sum   'Li6 V1 Sn3 P6 O24'
_cell_volume   498.06546752
_cell_formula_units_Z   1
loop_
 _symmetry_equiv_pos_site_id
 _symmetry_equiv_pos_as_xyz
  1  'x, y, z'
loop_
 _atom_site_type_symbol
 _atom_site_label
 _atom_site_symmetry_multiplicity
 _atom_site_fract_x
 _atom_site_fract_y
 _atom_site_fract_z
 _atom_site_occupancy
  Li  Li0  1  0.97513400  0.01814400  0.01445700  1
  Li  Li1  1  0.25342100  0.63123200  0.84476500  1
  Li  Li2  1  0.52101800  0.48325900  0.48144100  1
  Li  Li3  1  0.76926900  0.32375700  0.14797700  1
  Li  Li4  1  0.31552600  0.14531000  0.77155200  1
  Li  Li5  1  0.14931300  0.77004500  0.31869600  1
  V  V0  1  0.15242000  0.15436400  0.15250200  1
  Sn  Sn0  1  0.85379800  0.85673900  0.85190300  1
  Sn  Sn1  1  0.64261000  0.64579100  0.63725300  1
  Sn  Sn2  1  0.33420700  0.33467200  0.33543300  1
  P  P0  1  0.92659600  0.57940700  0.25387400  1
  P  P1  1  0.57938400  0.25482100  0.92911500  1
  P  P2  1  0.25270700  0.93362400  0.57292000  1
  P  P3  1  0.75742200  0.04285800  0.44653900  1
  P  P4  1  0.44239600  0.75607900  0.03629400  1
  P  P5  1  0.04601700  0.45104700  0.75840300  1
  O  O0  1  0.88005600  0.50723400  0.69746200  1
  O  O1  1  0.68230400  0.89161200  0.48486400  1
  O  O2  1  0.90626700  0.75882000  0.09238600  1
  O  O3  1  0.45890600  0.68787000  0.88691600  1
  O  O4  1  0.73701800  0.58404200  0.40058500  1
  O  O5  1  0.98416200  0.41231100  0.19781900  1
  O  O6  1  0.75971000  0.09828100  0.89812800  1
  O  O7  1  0.57423800  0.40906500  0.74323000  1
  O  O8  1  0.39606600  0.73892300  0.58680200  1
  O  O9  1  0.82797100  0.99490400  0.60265600  1
  O  O10  1  0.91512800  0.05067000  0.26661500  1
  O  O11  1  0.61483300  0.80653100  0.97728400  1
  O  O12  1  0.40916100  0.20275000  0.98677300  1
  O  O13  1  0.10145500  0.89746900  0.75906000  1
  O  O14  1  0.19901800  0.98700200  0.40687800  1
  O  O15  1  0.61510600  0.23250200  0.42278000  1
  O  O16  1  0.42010600  0.61506800  0.22557700  1
  O  O17  1  0.27013000  0.92214600  0.04550500  1
  O  O18  1  0.02910100  0.60680300  0.81679000  1
  O  O19  1  0.23075600  0.41674500  0.61296100  1
  O  O20  1  0.59398700  0.31814100  0.06158600  1
  O  O21  1  0.04583400  0.27370000  0.91911200  1
  O  O22  1  0.31799300  0.06645300  0.58429600  1
  O  O23  1  0.05945800  0.58881400  0.32181400  1
loop_
_geom_bond_atom_site_label_1
_geom_bond_atom_site_label_2
_geom_bond_distance
_geom_bond_site_symmetry_2
Li0 O10 2.130844 1_555
Li0 O6 2.194858 1_554
Li0 O21 2.250195 1_654
Li0 O2 2.303789 1_545
Li0 O17 2.403481 1_645
Li0 O13 2.470385 1_644
Li1 O8 2.043847 1_555
Li1 O13 2.073142 1_555
Li1 O18 2.150688 1_555
Li1 O3 2.225621 1_555
Li2 O4 2.109550 1_555
Li2 O15 2.164551 1_555
Li2 O7 2.263771 1_555
Li2 O16 2.357232 1_555
Li2 O8 2.389986 1_555
Li2 O19 2.467609 1_555
Li3 O20 1.974484 1_555
Li3 O15 2.143372 1_555
Li3 O10 2.152794 1_555
Li3 O21 2.360570 1_654
Li3 O5 2.526089 1_555
Li4 O22 2.000675 1_555
Li4 O19 2.120033 1_555
Li4 O21 2.168554 1_555
Li4 O17 2.316403 1_546
Li4 O12 2.606971 1_555
Li5 O23 2.008932 1_555
Li5 O16 2.120602 1_555
Li5 O17 2.181478 1_555
Li5 O10 2.397197 1_465
Li5 O14 2.546593 1_555
O0 P5 1.542320 1_655
O0 Sn1 2.034261 1_555
O1 P3 1.549412 1_565
O1 Sn1 2.040868 1_555
O2 P0 1.573642 1_555
O2 Sn0 2.048058 1_554
O3 P4 1.570651 1_556
O3 Sn1 2.131650 1_555
O4 P0 1.574933 1_555
O4 Sn1 2.068407 1_555
O5 P0 1.531270 1_555
O5 V0 2.166333 1_655
O6 P1 1.565572 1_555
O6 Sn0 2.037218 1_545
O7 P1 1.584217 1_555
O7 Sn1 2.075806 1_555
O8 P2 1.587971 1_555
O8 Sn1 2.086707 1_555
O9 P3 1.537860 1_565
O9 Sn0 2.016918 1_555
O10 P3 1.561945 1_555
O10 V0 2.240980 1_655
O11 P4 1.537939 1_556
O11 Sn0 2.008829 1_555
O12 P1 1.530239 1_555
O12 V0 2.159391 1_556
O13 P2 1.579770 1_555
O13 Sn0 2.058996 1_455
O14 P2 1.516462 1_555
O14 V0 2.141165 1_565
O15 P3 1.553655 1_555
O15 Sn2 2.517810 1_555
O16 P4 1.548776 1_555
O16 Sn2 2.500057 1_555
O17 P4 1.555755 1_555
O17 V0 2.225390 1_565
O18 P5 1.562531 1_555
O18 Sn0 2.094319 1_455
O19 P5 1.547397 1_555
O19 Sn2 2.480260 1_555
O20 P1 1.534436 1_554
O20 Sn2 2.468270 1_555
O21 P5 1.557822 1_555
O21 V0 2.223895 1_556
O22 P2 1.530262 1_545
O22 Sn2 2.388184 1_555
O23 P0 1.535528 1_455
O23 Sn2 2.439195 1_555
