# generated using pymatgen
data_Li3V4(PO4)6
_symmetry_space_group_name_H-M   'P 1'
_cell_length_a   8.50707700
_cell_length_b   8.53375819
_cell_length_c   8.57564569
_cell_angle_alpha   60.63802772
_cell_angle_beta   60.87750875
_cell_angle_gamma   60.97775163
_symmetry_Int_Tables_number   1
_chemical_formula_structural   Li3V4(PO4)6
_chemical_formula_sum   'Li3 V4 P6 O24'
_cell_volume   448.46517468
_cell_formula_units_Z   1
loop_
 _symmetry_equiv_pos_site_id
 _symmetry_equiv_pos_as_xyz
  1  'x, y, z'
loop_
 _atom_site_type_symbol
 _atom_site_label
 _atom_site_symmetry_multiplicity
 _atom_site_fract_x
 _atom_site_fract_y
 _atom_site_fract_z
 _atom_site_occupancy
  Li  Li0  1  0.51542700  0.99965100  0.98236800  1
  Li  Li1  1  0.25211800  0.13613400  0.34233700  1
  Li  Li2  1  0.99295400  0.50855900  0.50143300  1
  V  V0  1  0.64276400  0.13809500  0.14196400  1
  V  V1  1  0.85578800  0.36525800  0.35100000  1
  V  V2  1  0.13629100  0.63674000  0.64768700  1
  V  V3  1  0.36310800  0.86201300  0.85480400  1
  P  P0  1  0.25000400  0.45936800  0.03583400  1
  P  P1  1  0.96130300  0.03831800  0.74923600  1
  P  P2  1  0.54019500  0.74529300  0.46773600  1
  P  P3  1  0.45242400  0.25058000  0.53762800  1
  P  P4  1  0.04668600  0.95770000  0.24983900  1
  P  P5  1  0.74718100  0.54562500  0.96019600  1
  O  O0  1  0.81378300  0.51315000  0.11789700  1
  O  O1  1  0.87655200  0.99492700  0.20635800  1
  O  O2  1  0.68382300  0.38315500  0.01161300  1
  O  O3  1  0.95391100  0.22547800  0.57448600  1
  O  O4  1  0.40617600  0.26206400  0.06069500  1
  O  O5  1  0.73526500  0.58527900  0.44190200  1
  O  O6  1  0.53375900  0.91591000  0.28024100  1
  O  O7  1  0.99768700  0.87273300  0.69591500  1
  O  O8  1  0.23497300  0.93591000  0.08134700  1
  O  O9  1  0.62703100  0.30619700  0.47958800  1
  O  O10  1  0.90927300  0.55856400  0.76692900  1
  O  O11  1  0.46650100  0.19240300  0.38748300  1
  O  O12  1  0.51417800  0.80753800  0.62311200  1
  O  O13  1  0.09049200  0.44041500  0.23430500  1
  O  O14  1  0.37742600  0.67752700  0.52392400  1
  O  O15  1  0.77083300  0.05980100  0.90999300  1
  O  O16  1  0.02652500  0.12318400  0.29670400  1
  O  O17  1  0.44560900  0.08817500  0.73169500  1
  O  O18  1  0.26190200  0.41584300  0.56280200  1
  O  O19  1  0.58569100  0.73909300  0.94280200  1
  O  O20  1  0.06817000  0.76715600  0.41628300  1
  O  O21  1  0.31341900  0.62222700  0.98716800  1
  O  O22  1  0.12911600  0.00471300  0.79951200  1
  O  O23  1  0.18046500  0.49038100  0.88451500  1
loop_
_geom_bond_atom_site_label_1
_geom_bond_atom_site_label_2
_geom_bond_distance
_geom_bond_site_symmetry_2
Li0 O19 2.160872 1_555
Li0 O17 2.181623 1_565
Li0 O15 2.196976 1_565
Li0 O4 2.275462 1_566
Li0 O8 2.354548 1_556
Li0 O6 2.355782 1_556
Li1 O4 2.108597 1_555
Li1 O16 2.197192 1_555
Li1 O13 2.215395 1_555
Li1 O6 2.219573 1_545
Li1 O11 2.329364 1_555
Li1 O3 2.382491 1_455
Li2 O5 2.205418 1_555
Li2 O10 2.225553 1_555
Li2 O18 2.268245 1_655
Li2 O20 2.268854 1_655
Li2 O13 2.293998 1_655
Li2 O3 2.330342 1_555
O0 P5 1.566114 1_554
O0 V1 1.870876 1_555
O1 P4 1.515835 1_655
O1 V0 1.950089 1_565
O2 P5 1.517076 1_554
O2 V0 1.944549 1_555
O3 P1 1.564538 1_555
O3 V1 2.035173 1_555
O4 P0 1.548770 1_555
O4 V0 2.057195 1_555
O5 P2 1.551664 1_555
O5 V1 1.993436 1_555
O6 P2 1.555892 1_555
O6 V0 2.071710 1_565
O7 P1 1.540497 1_565
O7 V2 1.911864 1_655
O8 P4 1.552343 1_555
O8 V3 1.957892 1_554
O9 P3 1.553117 1_555
O9 V1 1.890777 1_555
O10 P5 1.550586 1_555
O10 V2 1.969619 1_655
O11 P3 1.528992 1_555
O11 V0 2.026300 1_555
O12 P2 1.549038 1_555
O12 V3 1.912117 1_555
O13 P0 1.568232 1_555
O13 V1 2.016848 1_455
O14 P2 1.529135 1_555
O14 V2 1.914941 1_555
O15 P1 1.531332 1_555
O15 V0 2.019467 1_556
O16 P4 1.561960 1_545
O16 V1 1.991884 1_455
O17 P3 1.554358 1_555
O17 V3 1.981681 1_545
O18 P3 1.550035 1_555
O18 V2 1.964512 1_555
O19 P5 1.546798 1_555
O19 V3 1.985598 1_555
O20 P4 1.550590 1_555
O20 V2 1.959642 1_555
O21 P0 1.528496 1_556
O21 V3 1.936194 1_555
O22 P1 1.544921 1_455
O22 V3 1.915887 1_545
O23 P0 1.537018 1_556
O23 V2 1.904171 1_555
