# generated using pymatgen
data_Ho2Bi2O7
_symmetry_space_group_name_H-M   'P 1'
_cell_length_a   7.71471883
_cell_length_b   7.71471883
_cell_length_c   7.71471883
_cell_angle_alpha   60.00000000
_cell_angle_beta   60.00000000
_cell_angle_gamma   60.00000000
_symmetry_Int_Tables_number   1
_chemical_formula_structural   Ho2Bi2O7
_chemical_formula_sum   'Ho4 Bi4 O14'
_cell_volume   324.67235378
_cell_formula_units_Z   2
loop_
 _symmetry_equiv_pos_site_id
 _symmetry_equiv_pos_as_xyz
  1  'x, y, z'
loop_
 _atom_site_type_symbol
 _atom_site_label
 _atom_site_symmetry_multiplicity
 _atom_site_fract_x
 _atom_site_fract_y
 _atom_site_fract_z
 _atom_site_occupancy
  Ho  Ho0  1  0.12500000  0.12500000  0.62500000  1
  Ho  Ho1  1  0.12500000  0.62500000  0.12500000  1
  Ho  Ho2  1  0.62500000  0.12500000  0.12500000  1
  Ho  Ho3  1  0.12500000  0.12500000  0.12500000  1
  Bi  Bi0  1  0.12500000  0.62500000  0.62500000  1
  Bi  Bi1  1  0.62500000  0.62500000  0.62500000  1
  Bi  Bi2  1  0.62500000  0.12500000  0.62500000  1
  Bi  Bi3  1  0.62500000  0.62500000  0.12500000  1
  O  O0  1  0.27169100  0.72830900  0.72830900  1
  O  O1  1  0.52169100  0.97830900  0.97830900  1
  O  O2  1  0.27169100  0.72830900  0.27169100  1
  O  O3  1  0.72830900  0.27169100  0.72830900  1
  O  O4  1  0.72830900  0.72830900  0.27169100  1
  O  O5  1  0.00000000  0.00000000  0.00000000  1
  O  O6  1  0.27169100  0.27169100  0.72830900  1
  O  O7  1  0.97830900  0.52169100  0.97830900  1
  O  O8  1  0.25000000  0.25000000  0.25000000  1
  O  O9  1  0.52169100  0.52169100  0.97830900  1
  O  O10  1  0.97830900  0.97830900  0.52169100  1
  O  O11  1  0.52169100  0.97830900  0.52169100  1
  O  O12  1  0.72830900  0.27169100  0.27169100  1
  O  O13  1  0.97830900  0.52169100  0.52169100  1
loop_
_geom_bond_atom_site_label_1
_geom_bond_atom_site_label_2
_geom_bond_distance
_geom_bond_site_symmetry_2
Ho0 O5 2.362141 1_556
Ho0 O8 2.362141 1_555
Ho0 O6 2.506233 1_555
Ho0 O11 2.506233 1_545
Ho0 O13 2.506233 1_455
Ho0 O10 2.506233 1_445
Ho0 O0 2.506233 1_545
Ho0 O3 2.506233 1_455
Ho1 O8 2.362141 1_555
Ho1 O5 2.362141 1_565
Ho1 O2 2.506233 1_555
Ho1 O13 2.506233 1_455
Ho1 O7 2.506233 1_454
Ho1 O4 2.506233 1_455
Ho1 O9 2.506233 1_554
Ho1 O0 2.506233 1_554
Ho2 O8 2.362141 1_555
Ho2 O5 2.362141 1_655
Ho2 O12 2.506233 1_555
Ho2 O11 2.506233 1_545
Ho2 O3 2.506233 1_554
Ho2 O9 2.506233 1_554
Ho2 O4 2.506233 1_545
Ho2 O1 2.506233 1_544
Ho3 O8 2.362141 1_555
Ho3 O5 2.362141 1_555
Ho3 O6 2.506233 1_554
Ho3 O2 2.506233 1_545
Ho3 O12 2.506233 1_455
Ho3 O10 2.506233 1_445
Ho3 O1 2.506233 1_544
Ho3 O7 2.506233 1_454
Bi0 O0 2.233881 1_555
Bi0 O13 2.233881 1_455
Bi0 O7 2.233881 1_455
Bi0 O10 2.233881 1_455
Bi0 O2 2.233881 1_555
Bi0 O6 2.233881 1_555
Bi1 O13 2.233881 1_555
Bi1 O11 2.233881 1_555
Bi1 O9 2.233881 1_555
Bi1 O3 2.233881 1_555
Bi1 O0 2.233881 1_555
Bi1 O4 2.233881 1_555
Bi2 O3 2.233881 1_555
Bi2 O1 2.233881 1_545
Bi2 O11 2.233881 1_545
Bi2 O10 2.233881 1_545
Bi2 O12 2.233881 1_555
Bi2 O6 2.233881 1_555
Bi3 O4 2.233881 1_555
Bi3 O9 2.233881 1_554
Bi3 O7 2.233881 1_554
Bi3 O1 2.233881 1_554
Bi3 O2 2.233881 1_555
Bi3 O12 2.233881 1_555
