# generated using pymatgen
data_CuH9CSN4Cl3O
_symmetry_space_group_name_H-M   'P 1'
_cell_length_a   8.94107200
_cell_length_b   9.66659999
_cell_length_c   7.50572232
_cell_angle_alpha   98.40295440
_cell_angle_beta   92.15123770
_cell_angle_gamma   112.36730882
_symmetry_Int_Tables_number   1
_chemical_formula_structural   CuH9CSN4Cl3O
_chemical_formula_sum   'Cu2 H18 C2 S2 N8 Cl6 O2'
_cell_volume   590.38598950
_cell_formula_units_Z   2
loop_
 _symmetry_equiv_pos_site_id
 _symmetry_equiv_pos_as_xyz
  1  'x, y, z'
loop_
 _atom_site_type_symbol
 _atom_site_label
 _atom_site_symmetry_multiplicity
 _atom_site_fract_x
 _atom_site_fract_y
 _atom_site_fract_z
 _atom_site_occupancy
  Cu  Cu0  1  0.88540100  0.77537100  0.90818300  1
  Cu  Cu1  1  0.11459900  0.22462900  0.09181700  1
  H  H0  1  0.96620500  0.75071700  0.36281600  1
  H  H1  1  0.03379500  0.24928300  0.63718400  1
  H  H2  1  0.67970400  0.71754700  0.52992000  1
  H  H3  1  0.32029600  0.28245300  0.47008000  1
  H  H4  1  0.72871800  0.93896900  0.49349500  1
  H  H5  1  0.27128200  0.06103100  0.50650500  1
  H  H6  1  0.36667800  0.79930900  0.49508700  1
  H  H7  1  0.63332200  0.20069100  0.50491300  1
  H  H8  1  0.25309200  0.43425100  0.91779900  1
  H  H9  1  0.74690800  0.56574900  0.08220100  1
  H  H10  1  0.38394800  0.85708600  0.09294800  1
  H  H11  1  0.61605200  0.14291400  0.90705200  1
  H  H12  1  0.46854000  0.62604700  0.75478600  1
  H  H13  1  0.53146000  0.37395300  0.24521400  1
  H  H14  1  0.33539100  0.77336700  0.40507700  1
  H  H15  1  0.66460900  0.22663300  0.59492300  1
  H  H16  1  0.12106000  0.69931000  0.40280400  1
  H  H17  1  0.87894000  0.30069000  0.59719600  1
  C  C0  1  0.15465300  0.74215200  0.79435500  1
  C  C1  1  0.84534700  0.25784800  0.20564500  1
  S  S0  1  0.08792000  0.65298900  0.03913600  1
  S  S1  1  0.91208000  0.34701100  0.96086400  1
  N  N0  1  0.81568600  0.89353800  0.72608300  1
  N  N1  1  0.18431400  0.10646200  0.27391700  1
  N  N2  1  0.73895700  0.84640200  0.57974500  1
  N  N3  1  0.26104300  0.15359800  0.42025500  1
  N  N4  1  0.19926900  0.66566900  0.93158800  1
  N  N5  1  0.80073100  0.33433100  0.06841200  1
  N  N6  1  0.12960500  0.81700900  0.67514000  1
  N  N7  1  0.87039500  0.18299100  0.32486000  1
  Cl  Cl0  1  0.50494700  0.02485300  0.80023200  1
  Cl  Cl1  1  0.49505300  0.97514700  0.19976800  1
  Cl  Cl2  1  0.72892900  0.73881000  0.06850400  1
  Cl  Cl3  1  0.27107100  0.26119000  0.93149600  1
  Cl  Cl4  1  0.51154400  0.48652200  0.70869900  1
  Cl  Cl5  1  0.48845600  0.51347800  0.29130100  1
  O  O0  1  0.01799000  0.67158900  0.32080500  1
  O  O1  1  0.98201000  0.32841100  0.67919500  1
loop_
_geom_bond_atom_site_label_1
_geom_bond_atom_site_label_2
_geom_bond_distance
_geom_bond_site_symmetry_2
Cu0 N0 2.120304 1_555
Cu1 N1 2.120304 1_555
H0 O0 1.053040 1_655
H1 O1 1.053040 1_455
H2 N2 1.148376 1_555
H3 N3 1.148376 1_555
H4 N2 1.206378 1_555
H5 N3 1.206378 1_555
H14 H6 0.693158 1_555
H15 H7 0.693158 1_555
H16 O0 1.010512 1_555
H17 O1 1.010512 1_555
C0 N6 1.293044 1_555
C0 N4 1.477465 1_555
C1 N7 1.293044 1_555
C1 N5 1.477465 1_555
N0 N2 1.201638 1_555
N1 N3 1.201638 1_555
N4 S0 1.286154 1_556
N5 S1 1.286154 1_554
Cl0 H11 1.319861 1_555
Cl1 H10 1.319861 1_555
Cl2 H9 1.757482 1_555
Cl2 Cu0 1.845140 1_554
Cl3 H8 1.757482 1_555
Cl3 Cu1 1.845140 1_556
Cl4 H12 1.534568 1_555
Cl5 H13 1.534568 1_555
