# generated using pymatgen
data_LiZr2(PO4)3
_symmetry_space_group_name_H-M   'P 1'
_cell_length_a   9.00317886
_cell_length_b   9.00317886
_cell_length_c   9.05235562
_cell_angle_alpha   60.42499452
_cell_angle_beta   60.42499452
_cell_angle_gamma   60.63413826
_symmetry_Int_Tables_number   1
_chemical_formula_structural   LiZr2(PO4)3
_chemical_formula_sum   'Li2 Zr4 P6 O24'
_cell_volume   524.64236351
_cell_formula_units_Z   2
loop_
 _symmetry_equiv_pos_site_id
 _symmetry_equiv_pos_as_xyz
  1  'x, y, z'
loop_
 _atom_site_type_symbol
 _atom_site_label
 _atom_site_symmetry_multiplicity
 _atom_site_fract_x
 _atom_site_fract_y
 _atom_site_fract_z
 _atom_site_occupancy
  Li  Li0  1  0.35008900  0.14953300  0.46144500  1
  Li  Li1  1  0.14953300  0.35008900  0.96144500  1
  Zr  Zr0  1  0.36471100  0.85320500  0.92096500  1
  Zr  Zr1  1  0.13555500  0.64651100  0.57714600  1
  Zr  Zr2  1  0.64651100  0.13555500  0.07714600  1
  Zr  Zr3  1  0.85320500  0.36471100  0.42096500  1
  P  P0  1  0.45950000  0.53086000  0.75542100  1
  P  P1  1  0.24878400  0.04271400  0.24952400  1
  P  P2  1  0.96345000  0.75009400  0.24939700  1
  P  P3  1  0.04271400  0.24878400  0.74952400  1
  P  P4  1  0.75009400  0.96345000  0.74939700  1
  P  P5  1  0.53086000  0.45950000  0.25542100  1
  O  O0  1  0.28173000  0.53898500  0.75729500  1
  O  O1  1  0.61873500  0.49943600  0.58413100  1
  O  O2  1  0.94266800  0.58610700  0.25706500  1
  O  O3  1  0.20166400  0.88268400  0.41588600  1
  O  O4  1  0.70449900  0.99750800  0.92073500  1
  O  O5  1  0.43185600  0.71163800  0.76062100  1
  O  O6  1  0.08854100  0.22442400  0.24435700  1
  O  O7  1  0.40214200  0.06781700  0.26023600  1
  O  O8  1  0.12451500  0.79690500  0.08201400  1
  O  O9  1  0.49943600  0.61873500  0.08413100  1
  O  O10  1  0.99750800  0.70449900  0.42073500  1
  O  O11  1  0.78823300  0.91168200  0.23995200  1
  O  O12  1  0.22442400  0.08854100  0.74435700  1
  O  O13  1  0.01651300  0.30044300  0.57210200  1
  O  O14  1  0.49804600  0.37192400  0.92340300  1
  O  O15  1  0.88268400  0.20166400  0.91588600  1
  O  O16  1  0.91168200  0.78823300  0.73995200  1
  O  O17  1  0.58610700  0.94266800  0.75706500  1
  O  O18  1  0.53898500  0.28173000  0.25729500  1
  O  O19  1  0.30044300  0.01651300  0.07210200  1
  O  O20  1  0.79690500  0.12451500  0.58201400  1
  O  O21  1  0.06781700  0.40214200  0.76023600  1
  O  O22  1  0.37192400  0.49804600  0.42340300  1
  O  O23  1  0.71163800  0.43185600  0.26062100  1
loop_
_geom_bond_atom_site_label_1
_geom_bond_atom_site_label_2
_geom_bond_distance
_geom_bond_site_symmetry_2
Li0 O7 2.054375 1_555
Li0 O18 2.106093 1_555
Li0 O12 2.121629 1_555
Li0 O13 2.498151 1_555
Li1 O21 2.054375 1_555
Li1 O0 2.106093 1_555
Li1 O6 2.121629 1_556
Li1 O19 2.498151 1_556
O0 P0 1.557826 1_555
O0 Zr1 2.153873 1_555
O1 P0 1.542894 1_555
O1 Zr3 2.070870 1_555
O2 P2 1.541604 1_555
O2 Zr3 2.073364 1_555
O3 P1 1.533212 1_565
O3 Zr1 2.079898 1_555
O4 P4 1.544569 1_555
O4 Zr2 2.047689 1_566
O5 P0 1.542705 1_555
O5 Zr0 2.073911 1_555
O6 P1 1.560837 1_555
O6 Zr3 2.159920 1_455
O7 P1 1.557782 1_555
O7 Zr2 2.162872 1_555
O8 P2 1.541550 1_455
O8 Zr0 2.071800 1_554
O9 P5 1.542894 1_555
O9 Zr0 2.070870 1_554
O10 P2 1.544569 1_555
O10 Zr1 2.047689 1_655
O11 P2 1.540074 1_555
O11 Zr2 2.065012 1_565
O12 P3 1.560837 1_555
O12 Zr0 2.159920 1_545
O13 P3 1.542884 1_555
O13 Zr3 2.176749 1_455
O14 P0 1.538278 1_555
O14 Zr2 2.091701 1_556
O15 P3 1.533212 1_655
O15 Zr2 2.079898 1_556
O16 P4 1.540074 1_555
O16 Zr1 2.065012 1_655
O17 P4 1.541604 1_555
O17 Zr0 2.073364 1_555
O18 P5 1.557826 1_555
O18 Zr2 2.153873 1_555
O19 P1 1.542884 1_555
O19 Zr0 2.176749 1_544
O20 P4 1.541550 1_545
O20 Zr3 2.071800 1_555
O21 P3 1.557782 1_555
O21 Zr1 2.162872 1_555
O22 P5 1.538278 1_555
O22 Zr1 2.091701 1_555
O23 P5 1.542705 1_555
O23 Zr3 2.073911 1_555
