# generated using pymatgen
data_Li2SiSnCO7
_symmetry_space_group_name_H-M   'P 1'
_cell_length_a   6.56807900
_cell_length_b   5.11357900
_cell_length_c   8.66751629
_cell_angle_alpha   87.83705808
_cell_angle_beta   90.00000000
_cell_angle_gamma   90.00000000
_symmetry_Int_Tables_number   1
_chemical_formula_structural   Li2SiSnCO7
_chemical_formula_sum   'Li4 Si2 Sn2 C2 O14'
_cell_volume   290.90318407
_cell_formula_units_Z   2
loop_
 _symmetry_equiv_pos_site_id
 _symmetry_equiv_pos_as_xyz
  1  'x, y, z'
loop_
 _atom_site_type_symbol
 _atom_site_label
 _atom_site_symmetry_multiplicity
 _atom_site_fract_x
 _atom_site_fract_y
 _atom_site_fract_z
 _atom_site_occupancy
  Li  Li0  1  0.50265200  0.77974300  0.78297800  1
  Li  Li1  1  0.99734800  0.77974300  0.78297800  1
  Li  Li2  1  0.49734800  0.22025700  0.21702200  1
  Li  Li3  1  0.00265200  0.22025700  0.21702200  1
  Si  Si0  1  0.75000000  0.28713800  0.58016200  1
  Si  Si1  1  0.25000000  0.71286200  0.41983800  1
  Sn  Sn0  1  0.25000000  0.20551100  0.64633400  1
  Sn  Sn1  1  0.75000000  0.79448900  0.35366600  1
  C  C0  1  0.25000000  0.26572100  0.94579400  1
  C  C1  1  0.75000000  0.73427900  0.05420600  1
  O  O0  1  0.75000000  0.69727100  0.91122900  1
  O  O1  1  0.25000000  0.03276300  0.88677300  1
  O  O2  1  0.25000000  0.46401600  0.84082200  1
  O  O3  1  0.94621000  0.17363500  0.67650600  1
  O  O4  1  0.55379000  0.17363500  0.67650600  1
  O  O5  1  0.25000000  0.81205600  0.59938700  1
  O  O6  1  0.75000000  0.61140900  0.56613100  1
  O  O7  1  0.25000000  0.38859100  0.43386900  1
  O  O8  1  0.75000000  0.18794400  0.40061300  1
  O  O9  1  0.44621000  0.82636500  0.32349400  1
  O  O10  1  0.05379000  0.82636500  0.32349400  1
  O  O11  1  0.75000000  0.53598400  0.15917800  1
  O  O12  1  0.75000000  0.96723700  0.11322700  1
  O  O13  1  0.25000000  0.30272900  0.08877100  1
loop_
_geom_bond_atom_site_label_1
_geom_bond_atom_site_label_2
_geom_bond_distance
_geom_bond_site_symmetry_2
Li0 O0 2.004368 1_555
Li0 O4 2.209332 1_565
Li0 O5 2.300730 1_555
Li0 O1 2.307591 1_565
Li0 O2 2.355970 1_555
Li1 O0 2.004368 1_555
Li1 O3 2.209332 1_565
Li1 O5 2.300730 1_655
Li1 O1 2.307591 1_665
Li1 O2 2.355970 1_655
Li2 O13 2.004368 1_555
Li2 O9 2.209332 1_545
Li2 O8 2.300730 1_555
Li2 O12 2.307591 1_545
Li2 O11 2.355970 1_555
Li3 O13 2.004368 1_555
Li3 O10 2.209332 1_545
Li3 O8 2.300730 1_455
Li3 O12 2.307591 1_445
Li3 O11 2.355970 1_455
C0 O13 1.260662 1_556
C0 O1 1.314067 1_555
C0 O2 1.336552 1_555
C1 O0 1.260662 1_554
C1 O12 1.314067 1_555
C1 O11 1.336552 1_555
O1 Sn0 2.232590 1_555
O2 Sn0 2.181115 1_555
O3 Si0 1.630467 1_555
O3 Sn0 2.018175 1_655
O4 Si0 1.630467 1_555
O4 Sn0 2.018175 1_555
O5 Si1 1.654923 1_555
O5 Sn0 2.067697 1_565
O6 Si0 1.658055 1_555
O6 Sn1 2.034111 1_555
O7 Si1 1.658055 1_555
O7 Sn0 2.034111 1_555
O8 Si0 1.654923 1_555
O8 Sn1 2.067697 1_545
O9 Si1 1.630467 1_555
O9 Sn1 2.018175 1_555
O10 Si1 1.630467 1_555
O10 Sn1 2.018175 1_455
O11 Sn1 2.181115 1_555
O12 Sn1 2.232590 1_555
