# generated using pymatgen
data_Na5LiFe2P2(CO7)2
_symmetry_space_group_name_H-M   'P 1'
_cell_length_a   5.21842714
_cell_length_b   6.63775918
_cell_length_c   8.95824399
_cell_angle_alpha   89.42613858
_cell_angle_beta   88.90652124
_cell_angle_gamma   89.84549910
_symmetry_Int_Tables_number   1
_chemical_formula_structural   Na5LiFe2P2(CO7)2
_chemical_formula_sum   'Na5 Li1 Fe2 P2 C2 O14'
_cell_volume   310.22854776
_cell_formula_units_Z   1
loop_
 _symmetry_equiv_pos_site_id
 _symmetry_equiv_pos_as_xyz
  1  'x, y, z'
loop_
 _atom_site_type_symbol
 _atom_site_label
 _atom_site_symmetry_multiplicity
 _atom_site_fract_x
 _atom_site_fract_y
 _atom_site_fract_z
 _atom_site_occupancy
  Na  Na0  1  0.76271300  0.23719600  0.08296000  1
  Na  Na1  1  0.25079200  0.49959100  0.26072900  1
  Na  Na2  1  0.74901600  0.50289800  0.73758500  1
  Na  Na3  1  0.74835600  0.99661100  0.73732800  1
  Na  Na4  1  0.23540400  0.75773800  0.91886700  1
  Li  Li0  1  0.22871200  0.02385400  0.28527400  1
  Fe  Fe0  1  0.21832100  0.24889900  0.64534300  1
  Fe  Fe1  1  0.78360800  0.75481900  0.34972400  1
  P  P0  1  0.70889900  0.24659900  0.41178900  1
  P  P1  1  0.30047600  0.75491800  0.58036100  1
  C  C0  1  0.72036100  0.75140200  0.05862700  1
  C  C1  1  0.27225800  0.24107200  0.94662400  1
  O  O0  1  0.28244900  0.22923400  0.09102000  1
  O  O1  1  0.94617600  0.74463700  0.11836000  1
  O  O2  1  0.51806200  0.76390100  0.14568500  1
  O  O3  1  0.82189500  0.06906200  0.31799700  1
  O  O4  1  0.76969100  0.44100900  0.31908500  1
  O  O5  1  0.17596300  0.76808400  0.42512900  1
  O  O6  1  0.41091500  0.22355700  0.42896000  1
  O  O7  1  0.59802100  0.75247600  0.56101000  1
  O  O8  1  0.83013200  0.25241000  0.56775000  1
  O  O9  1  0.21580800  0.56207700  0.66958100  1
  O  O10  1  0.22037700  0.93662300  0.68104100  1
  O  O11  1  0.48133500  0.24821200  0.86457700  1
  O  O12  1  0.05178000  0.24626800  0.87977400  1
  O  O13  1  0.69847800  0.74684900  0.91482000  1
loop_
_geom_bond_atom_site_label_1
_geom_bond_atom_site_label_2
_geom_bond_distance
_geom_bond_site_symmetry_2
Na0 O12 2.342160 1_654
Na0 O3 2.397918 1_555
Na0 O11 2.468768 1_554
Na0 O0 2.506569 1_555
Na0 O4 2.523180 1_555
Na0 O0 2.714900 1_655
Na1 O5 2.350428 1_555
Na1 O0 2.366963 1_555
Na1 O2 2.451024 1_555
Na1 O6 2.512180 1_555
Na1 O4 2.584310 1_455
Na1 O1 2.611710 1_455
Na1 O4 2.793054 1_555
Na2 O13 2.290349 1_555
Na2 O8 2.297979 1_555
Na2 O7 2.419807 1_555
Na2 O11 2.452947 1_555
Na2 O9 2.530387 1_655
Na2 O12 2.653166 1_655
Na2 O9 2.884749 1_555
Na3 O13 2.297418 1_555
Na3 O8 2.302240 1_565
Na3 O7 2.416972 1_555
Na3 O11 2.448502 1_565
Na3 O10 2.536044 1_655
Na3 O12 2.648642 1_665
Na3 O10 2.840247 1_555
Na4 O1 2.318187 1_456
Na4 O13 2.416995 1_555
Na4 O10 2.431111 1_555
Na4 O2 2.534236 1_556
Na4 O9 2.598416 1_555
Na4 O13 2.803971 1_455
Li0 O6 2.098979 1_555
Li0 O5 2.115299 1_545
Li0 O3 2.158112 1_455
Li0 O0 2.213876 1_555
Li0 O2 2.603480 1_545
Fe0 O9 2.092251 1_555
Fe0 O10 2.094199 1_545
Fe0 O8 2.154176 1_455
Fe0 O6 2.174189 1_555
Fe0 O12 2.257360 1_555
Fe0 O11 2.417355 1_555
Fe1 O4 2.105352 1_555
Fe1 O7 2.109554 1_555
Fe1 O3 2.111813 1_565
Fe1 O5 2.170520 1_655
Fe1 O1 2.226069 1_555
Fe1 O2 2.314924 1_555
C0 O13 1.296139 1_554
C0 O2 1.303446 1_555
C0 O1 1.303946 1_555
C1 O0 1.297228 1_556
C1 O11 1.304545 1_555
C1 O12 1.307384 1_555
O3 P0 1.561913 1_555
O4 P0 1.557643 1_555
O5 P1 1.547695 1_555
O6 P0 1.567414 1_555
O7 P1 1.559131 1_555
O8 P0 1.545531 1_555
O9 P1 1.562557 1_555
O10 P1 1.564469 1_555
