# generated using pymatgen
data_Ge
_symmetry_space_group_name_H-M   'P 1'
_cell_length_a   5.58965057
_cell_length_b   7.79968020
_cell_length_c   7.79968252
_cell_angle_alpha   82.62301434
_cell_angle_beta   69.00259718
_cell_angle_gamma   69.00259756
_symmetry_Int_Tables_number   1
_chemical_formula_structural   Ge
_chemical_formula_sum   Ge16
_cell_volume   296.38551183
_cell_formula_units_Z   16
loop_
 _symmetry_equiv_pos_site_id
 _symmetry_equiv_pos_as_xyz
  1  'x, y, z'
loop_
 _atom_site_type_symbol
 _atom_site_label
 _atom_site_symmetry_multiplicity
 _atom_site_fract_x
 _atom_site_fract_y
 _atom_site_fract_z
 _atom_site_occupancy
  Ge  Ge0_0  1  0.18750000  0.12500000  0.37500000  1
  Ge  Ge0_1  1  0.18750000  0.12500000  0.87500000  1
  Ge  Ge0_2  1  0.18750000  0.62500000  0.37500000  1
  Ge  Ge0_3  1  0.18750000  0.62500000  0.87500000  1
  Ge  Ge0_4  1  0.68750000  0.12500000  0.37500000  1
  Ge  Ge0_5  1  0.68750000  0.12500000  0.87500000  1
  Ge  Ge0_6  1  0.68750000  0.62500000  0.37500000  1
  Ge  Ge0_7  1  0.68750000  0.62500000  0.87500000  1
  Ge  Ge1_0  1  0.31250000  0.37500000  0.12500000  1
  Ge  Ge1_1  1  0.31250000  0.37500000  0.62500000  1
  Ge  Ge1_2  1  0.31250000  0.87500000  0.12500000  1
  Ge  Ge1_3  1  0.31250000  0.87500000  0.62500000  1
  Ge  Ge1_4  1  0.81250000  0.37500000  0.12500000  1
  Ge  Ge1_5  1  0.81250000  0.37500000  0.62500000  1
  Ge  Ge1_6  1  0.81250000  0.87500000  0.12500000  1
  Ge  Ge1_7  1  0.81250000  0.87500000  0.62500000  1
loop_
_geom_bond_atom_site_label_1
_geom_bond_atom_site_label_2
_geom_bond_distance
_geom_bond_site_symmetry_2
Ge0_0 Ge1_0 2.667618 1_555
Ge0_0 Ge1_5 2.667618 1_455
Ge0_0 Ge1_3 2.667618 1_545
Ge0_0 Ge1_2 2.667618 1_545
Ge0_0 Ge0_4 2.794825 1_555
Ge0_0 Ge0_4 2.794825 1_455
Ge0_1 Ge1_1 2.667618 1_555
Ge0_1 Ge1_4 2.667618 1_456
Ge0_1 Ge1_2 2.667618 1_546
Ge0_1 Ge1_3 2.667618 1_545
Ge0_1 Ge0_5 2.794825 1_555
Ge0_1 Ge0_5 2.794825 1_455
Ge0_2 Ge1_2 2.667618 1_555
Ge0_2 Ge1_7 2.667618 1_455
Ge0_2 Ge1_1 2.667618 1_555
Ge0_2 Ge1_0 2.667618 1_555
Ge0_2 Ge0_6 2.794825 1_455
Ge0_2 Ge0_6 2.794825 1_555
Ge0_3 Ge1_3 2.667618 1_555
Ge0_3 Ge1_6 2.667618 1_456
Ge0_3 Ge1_0 2.667618 1_556
Ge0_3 Ge1_1 2.667618 1_555
Ge0_3 Ge0_7 2.794825 1_555
Ge0_3 Ge0_7 2.794825 1_455
Ge0_4 Ge1_4 2.667618 1_555
Ge0_4 Ge1_1 2.667618 1_555
Ge0_4 Ge1_7 2.667618 1_545
Ge0_4 Ge1_6 2.667618 1_545
Ge0_5 Ge1_5 2.667618 1_555
Ge0_5 Ge1_0 2.667618 1_556
Ge0_5 Ge1_6 2.667618 1_546
Ge0_5 Ge1_7 2.667618 1_545
Ge0_6 Ge1_6 2.667618 1_555
Ge0_6 Ge1_3 2.667618 1_555
Ge0_6 Ge1_5 2.667618 1_555
Ge0_6 Ge1_4 2.667618 1_555
Ge0_7 Ge1_7 2.667618 1_555
Ge0_7 Ge1_2 2.667618 1_556
Ge0_7 Ge1_4 2.667618 1_556
Ge0_7 Ge1_5 2.667618 1_555
Ge1_0 Ge1_4 2.794825 1_555
Ge1_0 Ge1_4 2.794825 1_455
Ge1_1 Ge1_5 2.794825 1_555
Ge1_1 Ge1_5 2.794825 1_455
Ge1_2 Ge1_6 2.794825 1_555
Ge1_2 Ge1_6 2.794825 1_455
Ge1_3 Ge1_7 2.794825 1_455
Ge1_3 Ge1_7 2.794825 1_555
