# generated using pymatgen
data_K3NiPCO7
_symmetry_space_group_name_H-M   'P 1'
_cell_length_a   5.63411078
_cell_length_b   9.52297842
_cell_length_c   6.89381600
_cell_angle_alpha   90.00090550
_cell_angle_beta   89.99839910
_cell_angle_gamma   89.91370160
_symmetry_Int_Tables_number   1
_chemical_formula_structural   K3NiPCO7
_chemical_formula_sum   'K6 Ni2 P2 C2 O14'
_cell_volume   369.87704263
_cell_formula_units_Z   2
loop_
 _symmetry_equiv_pos_site_id
 _symmetry_equiv_pos_as_xyz
  1  'x, y, z'
loop_
 _atom_site_type_symbol
 _atom_site_label
 _atom_site_symmetry_multiplicity
 _atom_site_fract_x
 _atom_site_fract_y
 _atom_site_fract_z
 _atom_site_occupancy
  K  K0  1  0.75352700  0.06975100  0.25010200  1
  K  K1  1  0.24635800  0.93018400  0.75017700  1
  K  K2  1  0.25437800  0.29574400  0.01087700  1
  K  K3  1  0.25438400  0.29573900  0.48913100  1
  K  K4  1  0.74563300  0.70414900  0.51086800  1
  K  K5  1  0.74565000  0.70413700  0.98907400  1
  Ni  Ni0  1  0.24424300  0.65264800  0.24984900  1
  Ni  Ni1  1  0.75561800  0.34720600  0.74981800  1
  P  P0  1  0.74285000  0.41991800  0.24999200  1
  P  P1  1  0.25706300  0.58013000  0.74999100  1
  C  C0  1  0.74689300  0.08286100  0.75006300  1
  C  C1  1  0.25319200  0.91713300  0.25002100  1
  O  O0  1  0.25612500  0.05217900  0.25020500  1
  O  O1  1  0.74392500  0.94789700  0.75019800  1
  O  O2  1  0.94603200  0.15404000  0.74996900  1
  O  O3  1  0.05409000  0.84600600  0.24991100  1
  O  O4  1  0.55071200  0.15757200  0.74998500  1
  O  O5  1  0.44941000  0.84249700  0.24992700  1
  O  O6  1  0.50228700  0.50080200  0.24994700  1
  O  O7  1  0.49759000  0.49918900  0.74997300  1
  O  O8  1  0.04752900  0.47470100  0.74998600  1
  O  O9  1  0.95238600  0.52530400  0.24995100  1
  O  O10  1  0.75612600  0.32379800  0.06690800  1
  O  O11  1  0.75614500  0.32377000  0.43309300  1
  O  O12  1  0.24394000  0.67630700  0.56695200  1
  O  O13  1  0.24391600  0.67633800  0.93303100  1
loop_
_geom_bond_atom_site_label_1
_geom_bond_atom_site_label_2
_geom_bond_distance
_geom_bond_site_symmetry_2
K0 O3 2.719690 1_645
K0 O11 2.728236 1_555
K0 O10 2.729154 1_555
K0 O5 2.762334 1_545
K0 O0 2.807661 1_555
K0 O0 2.836381 1_655
K1 O2 2.719688 1_465
K1 O13 2.726367 1_555
K1 O12 2.727777 1_555
K1 O4 2.764165 1_565
K1 O1 2.808671 1_555
K1 O1 2.835531 1_455
K2 O8 2.737051 1_554
K2 O4 2.783296 1_554
K2 O2 2.842774 1_454
K2 O10 2.845815 1_455
K2 O0 2.846433 1_555
K2 O10 2.866059 1_555
K2 O6 2.913533 1_555
K2 O7 2.978963 1_554
K2 O9 3.221619 1_455
K3 O8 2.736854 1_555
K3 O4 2.783171 1_555
K3 O2 2.842432 1_455
K3 O0 2.844746 1_555
K3 O11 2.845752 1_455
K3 O11 2.866097 1_555
K3 O6 2.913984 1_555
K3 O7 2.978730 1_555
K3 O9 3.222127 1_455
K4 O9 2.736198 1_555
K4 O5 2.784018 1_555
K4 O3 2.844029 1_655
K4 O12 2.846007 1_655
K4 O1 2.847818 1_555
K4 O12 2.865592 1_555
K4 O7 2.913397 1_555
K4 O6 2.978784 1_555
K4 O8 3.220850 1_655
K5 O9 2.735983 1_556
K5 O5 2.783650 1_556
K5 O3 2.843536 1_656
K5 O13 2.845681 1_655
K5 O1 2.846142 1_555
K5 O13 2.865763 1_555
K5 O7 2.913360 1_555
K5 O6 2.978545 1_556
K5 O8 3.220533 1_655
Ni0 O9 2.044636 1_455
Ni0 O6 2.048984 1_555
Ni0 O3 2.128939 1_555
Ni0 O5 2.147343 1_555
Ni0 O13 2.195710 1_554
Ni0 O12 2.197626 1_555
Ni1 O8 2.045736 1_655
Ni1 O7 2.049840 1_555
Ni1 O2 2.128098 1_555
Ni1 O4 2.144824 1_555
Ni1 O11 2.194818 1_555
Ni1 O10 2.197302 1_556
C0 O1 1.285394 1_545
C0 O2 1.311706 1_555
C0 O4 1.313592 1_555
C1 O0 1.286172 1_565
C1 O3 1.311271 1_555
C1 O5 1.313381 1_555
O6 P0 1.557930 1_555
O7 P1 1.558022 1_555
O8 P1 1.550888 1_555
O9 P0 1.550631 1_555
O10 P0 1.560841 1_555
O11 P0 1.561124 1_555
O12 P1 1.560895 1_555
O13 P1 1.561054 1_555
