# generated using pymatgen
data_ZnP2H15C5NO9
_symmetry_space_group_name_H-M   'P 1'
_cell_length_a   10.46189400
_cell_length_b   10.65912900
_cell_length_c   11.90991600
_cell_angle_alpha   90.00000000
_cell_angle_beta   90.00000000
_cell_angle_gamma   90.00000000
_symmetry_Int_Tables_number   1
_chemical_formula_structural   ZnP2H15C5NO9
_chemical_formula_sum   'Zn4 P8 H60 C20 N4 O36'
_cell_volume   1328.13044454
_cell_formula_units_Z   4
loop_
 _symmetry_equiv_pos_site_id
 _symmetry_equiv_pos_as_xyz
  1  'x, y, z'
loop_
 _atom_site_type_symbol
 _atom_site_label
 _atom_site_symmetry_multiplicity
 _atom_site_fract_x
 _atom_site_fract_y
 _atom_site_fract_z
 _atom_site_occupancy
  Zn  Zn0  1  0.44719900  0.70562700  0.37765600  1
  Zn  Zn1  1  0.05280100  0.29437300  0.87765600  1
  Zn  Zn2  1  0.94719900  0.79437300  0.62234400  1
  Zn  Zn3  1  0.55280100  0.20562700  0.12234400  1
  P  P0  1  0.69014200  0.65583700  0.54258100  1
  P  P1  1  0.80985800  0.34416300  0.04258100  1
  P  P2  1  0.19014200  0.84416300  0.45741900  1
  P  P3  1  0.30985800  0.15583700  0.95741900  1
  P  P4  1  0.48659400  0.93358000  0.20162800  1
  P  P5  1  0.01340600  0.06642000  0.70162800  1
  P  P6  1  0.98659400  0.56642000  0.79837200  1
  P  P7  1  0.51340600  0.43358000  0.29837200  1
  H  H0  1  0.71745900  0.54779200  0.38265500  1
  H  H1  1  0.78254100  0.45220800  0.88265500  1
  H  H2  1  0.21745900  0.95220800  0.61734500  1
  H  H3  1  0.28254100  0.04779200  0.11734500  1
  H  H4  1  0.46465500  0.81392800  0.04549100  1
  H  H5  1  0.03534500  0.18607200  0.54549100  1
  H  H6  1  0.96465500  0.68607200  0.95450900  1
  H  H7  1  0.53534500  0.31392800  0.45450900  1
  H  H8  1  0.75322300  0.54566100  0.69348000  1
  H  H9  1  0.74677700  0.45433900  0.19348000  1
  H  H10  1  0.25322300  0.95433900  0.30652000  1
  H  H11  1  0.24677700  0.04566100  0.80652000  1
  H  H12  1  0.73167100  0.97143800  0.68897300  1
  H  H13  1  0.76832900  0.02856200  0.18897300  1
  H  H14  1  0.23167100  0.52856200  0.31102700  1
  H  H15  1  0.26832900  0.47143900  0.81102700  1
  H  H16  1  0.46974700  0.04376300  0.48565900  1
  H  H17  1  0.03025300  0.95623700  0.98565900  1
  H  H18  1  0.96974700  0.45623700  0.51434100  1
  H  H19  1  0.53025300  0.54376300  0.01434100  1
  H  H20  1  0.63855400  0.02107100  0.49316400  1
  H  H21  1  0.86144600  0.97892900  0.99316400  1
  H  H22  1  0.13855400  0.47892900  0.50683600  1
  H  H23  1  0.36144600  0.52107100  0.00683600  1
  H  H24  1  0.53075600  0.88044400  0.62697200  1
  H  H25  1  0.96924400  0.11955600  0.12697200  1
  H  H26  1  0.03075600  0.61955600  0.37302800  1
  H  H27  1  0.46924400  0.38044400  0.87302800  1
  H  H28  1  0.44952600  0.01065600  0.69107900  1
  H  H29  1  0.05047400  0.98934400  0.19107900  1
  H  H30  1  0.94952600  0.48934400  0.30892100  1
  H  H31  1  0.55047400  0.51065600  0.80892100  1
  H  H32  1  0.57459100  0.17214000  0.79078000  1
  H  H33  1  0.92540900  0.82786000  0.29078000  1
  H  H34  1  0.07459100  0.32786000  0.20922000  1
  H  H35  1  0.42540900  0.67214000  0.70922000  1
  H  H36  1  0.74586900  0.15692000  0.79676200  1
  H  H37  1  0.75413100  0.84308000  0.29676200  1
  H  H38  1  0.24586900  0.34308000  0.20323800  1
  H  H39  1  0.25413100  0.65692000  0.70323800  1
  H  H40  1  0.76419000  0.17892100  0.59140300  1
  H  H41  1  0.73581000  0.82107900  0.09140300  1
  H  H42  1  0.26419000  0.32107900  0.40859700  1
  H  H43  1  0.23581000  0.67892100  0.90859700  1
  H  H44  1  0.68132100  0.31115300  0.64704600  1
  H  H45  1  0.81867900  0.68884700  0.14704600  1
  H  H46  1  0.18132100  0.18884700  0.35295400  1
  H  H47  1  0.31867900  0.81115300  0.85295400  1
  H  H48  1  0.62552900  0.83247600  0.81265700  1
  H  H49  1  0.87447100  0.16752400  0.31265700  1
  H  H50  1  0.12552900  0.66752400  0.18734300  1
  H  H51  1  0.37447100  0.33247600  0.68734300  1
  H  H52  1  0.71336100  0.95241700  0.88392100  1
  H  H53  1  0.78663900  0.04758300  0.38392100  1
  H  H54  1  0.21336100  0.54758300  0.11607900  1
  H  H55  1  0.28663900  0.45241700  0.61607900  1
  H  H56  1  0.54266600  0.96487300  0.87258400  1
  H  H57  1  0.95733400  0.03512700  0.37258400  1
  H  H58  1  0.04266600  0.53512700  0.12741600  1
  H  H59  1  0.45733400  0.46487300  0.62741600  1
  C  C0  1  0.55390500  0.05607600  0.53887600  1
  C  C1  1  0.94609500  0.94392400  0.03887600  1
  C  C2  1  0.05390500  0.44392400  0.46112400  1
  C  C3  1  0.44609500  0.55607600  0.96112400  1
  C  C4  1  0.53584300  0.98100400  0.64598500  1
  C  C5  1  0.96415700  0.01899600  0.14598500  1
  C  C6  1  0.03584300  0.51899600  0.35401500  1
  C  C7  1  0.46415700  0.48100400  0.85401500  1
  C  C8  1  0.66051500  0.14244200  0.74486500  1
  C  C9  1  0.83948500  0.85755800  0.24486500  1
  C  C10  1  0.16051500  0.35755800  0.25513500  1
  C  C11  1  0.33948500  0.64244200  0.75513500  1
  C  C12  1  0.67540400  0.20970200  0.63329600  1
  C  C13  1  0.82459600  0.79029800  0.13329600  1
  C  C14  1  0.17540400  0.29029800  0.36670400  1
  C  C15  1  0.32459600  0.70970200  0.86670400  1
  C  C16  1  0.63026800  0.93280600  0.83140400  1
  C  C17  1  0.86973200  0.06719400  0.33140400  1
  C  C18  1  0.13026800  0.56719400  0.16859600  1
  C  C19  1  0.36973200  0.43280600  0.66859600  1
  N  N0  1  0.64635100  0.00339900  0.72434000  1
  N  N1  1  0.85364900  0.99660100  0.22434000  1
  N  N2  1  0.14635100  0.49660100  0.27566000  1
  N  N3  1  0.35364900  0.50339900  0.77566000  1
  O  O0  1  0.57503800  0.04906000  0.20850100  1
  O  O1  1  0.92496200  0.95094000  0.70850100  1
  O  O2  1  0.07503800  0.45094000  0.79149900  1
  O  O3  1  0.42496200  0.54906000  0.29149900  1
  O  O4  1  0.52553000  0.84157900  0.29395200  1
  O  O5  1  0.97447000  0.15842100  0.79395200  1
  O  O6  1  0.02553000  0.65842100  0.70604800  1
  O  O7  1  0.47447000  0.34157900  0.20604800  1
  O  O8  1  0.76570900  0.60892800  0.43562600  1
  O  O9  1  0.73429100  0.39107200  0.93562600  1
  O  O10  1  0.26570900  0.89107200  0.56437400  1
  O  O11  1  0.23429100  0.10892800  0.06437400  1
  O  O12  1  0.55085000  0.68617200  0.51439600  1
  O  O13  1  0.94915000  0.31382800  0.01439600  1
  O  O14  1  0.05085000  0.81382800  0.48560400  1
  O  O15  1  0.44915000  0.18617200  0.98560400  1
  O  O16  1  0.76341500  0.76626100  0.59214100  1
  O  O17  1  0.73658500  0.23373900  0.09214100  1
  O  O18  1  0.26341500  0.73373900  0.40785900  1
  O  O19  1  0.23658500  0.26626100  0.90785900  1
  O  O20  1  0.34246100  0.96357500  0.20321400  1
  O  O21  1  0.15753900  0.03642500  0.70321400  1
  O  O22  1  0.84246100  0.53642500  0.79678600  1
  O  O23  1  0.65753900  0.46357500  0.29678600  1
  O  O24  1  0.52150400  0.87689900  0.07987200  1
  O  O25  1  0.97849600  0.12310100  0.57987200  1
  O  O26  1  0.02150400  0.62310100  0.92012800  1
  O  O27  1  0.47849600  0.37689900  0.42012800  1
  O  O28  1  0.68499900  0.54412500  0.63095200  1
  O  O29  1  0.81500100  0.45587500  0.13095200  1
  O  O30  1  0.18499900  0.95587500  0.36904800  1
  O  O31  1  0.31500100  0.04412500  0.86904800  1
  O  O32  1  0.56699100  0.18819600  0.56097300  1
  O  O33  1  0.93300900  0.81180400  0.06097300  1
  O  O34  1  0.06699100  0.31180400  0.43902700  1
  O  O35  1  0.43300900  0.68819600  0.93902700  1
loop_
_geom_bond_atom_site_label_1
_geom_bond_atom_site_label_2
_geom_bond_distance
_geom_bond_site_symmetry_2
H0 O8 1.038015 1_555
H0 O23 1.498234 1_555
H1 O9 1.038015 1_555
H1 O22 1.498234 1_555
H2 O10 1.038015 1_555
H2 O21 1.498234 1_565
H3 O11 1.038015 1_555
H3 O20 1.498234 1_545
H4 O24 0.985863 1_555
H5 O25 0.985863 1_455
H6 O26 0.985863 1_655
H7 O27 0.985863 1_555
H8 O28 1.031646 1_555
H8 O22 1.547610 1_555
H9 O29 1.031646 1_555
H9 O23 1.547610 1_555
H10 O30 1.031646 1_555
H10 O20 1.547610 1_555
H11 O31 1.031646 1_555
H11 O21 1.547610 1_555
H12 N0 1.044143 1_565
H13 N1 1.044143 1_545
H14 N2 1.044143 1_555
H15 N3 1.044140 1_555
C0 H16 1.092766 1_555
C0 H20 1.104485 1_555
C0 O32 1.439190 1_555
C1 H17 1.092766 1_654
C1 H21 1.104485 1_554
C1 O33 1.439190 1_555
C2 H18 1.092766 1_455
C2 H22 1.104485 1_555
C2 O34 1.439190 1_555
C3 H19 1.092766 1_556
C3 H23 1.104485 1_556
C3 O35 1.439190 1_555
C4 H24 1.096832 1_555
C4 H28 1.097186 1_565
C4 N0 1.504815 1_565
C5 H25 1.096832 1_555
C5 H29 1.097186 1_645
C5 N1 1.504815 1_545
C6 H26 1.096832 1_555
C6 H30 1.097186 1_455
C6 N2 1.504815 1_555
C7 H27 1.096832 1_555
C7 H31 1.097186 1_555
C7 N3 1.504815 1_555
C8 H36 1.096921 1_555
C8 H32 1.098779 1_555
C8 N0 1.509393 1_555
C9 H37 1.096921 1_555
C9 H33 1.098779 1_555
C9 N1 1.509393 1_555
C10 H38 1.096921 1_555
C10 H34 1.098779 1_555
C10 N2 1.509393 1_555
C11 H39 1.096921 1_555
C11 H35 1.098779 1_555
C11 N3 1.509393 1_555
C12 H44 1.095459 1_555
C12 H40 1.104260 1_555
C12 O32 1.442537 1_555
C13 H45 1.095459 1_555
C13 H41 1.104260 1_555
C13 O33 1.442537 1_555
C14 H46 1.095459 1_555
C14 H42 1.104260 1_555
C14 O34 1.442537 1_555
C15 H47 1.095459 1_555
C15 H43 1.104260 1_555
C15 O35 1.442537 1_555
C16 H52 1.091152 1_555
C16 H48 1.093614 1_555
C16 H56 1.094218 1_555
C16 N0 1.490116 1_565
C17 H53 1.091152 1_555
C17 H49 1.093614 1_555
C17 H57 1.094218 1_555
C17 N1 1.490116 1_545
C18 H54 1.091152 1_555
C18 H50 1.093614 1_555
C18 H58 1.094218 1_555
C18 N2 1.490116 1_555
C19 H55 1.091152 1_555
C19 H51 1.093614 1_555
C19 H59 1.094218 1_555
C19 N3 1.490116 1_555
O0 P4 1.542083 1_545
O0 Zn3 1.972858 1_555
O1 P5 1.542083 1_665
O1 Zn2 1.972858 1_555
O2 P6 1.542083 1_455
O2 Zn1 1.972858 1_555
O3 P7 1.542083 1_555
O3 Zn0 1.972858 1_555
O4 P4 1.528614 1_555
O4 Zn0 1.940455 1_555
O5 P5 1.528614 1_655
O5 Zn1 1.940455 1_655
O6 P6 1.528614 1_455
O6 Zn2 1.940455 1_455
O7 P7 1.528614 1_555
O7 Zn3 1.940455 1_555
O8 P0 1.580394 1_555
O9 P1 1.580394 1_556
O10 P2 1.580394 1_555
O11 P3 1.580394 1_554
O12 P0 1.529979 1_555
O12 Zn0 1.967514 1_555
O13 P1 1.529979 1_555
O13 Zn1 1.967514 1_654
O14 P2 1.529979 1_555
O14 Zn2 1.967514 1_455
O15 P3 1.529979 1_555
O15 Zn3 1.967514 1_556
O16 P0 1.523621 1_555
O16 Zn2 1.978906 1_555
O17 P1 1.523621 1_555
O17 Zn3 1.978906 1_555
O18 P2 1.523621 1_555
O18 Zn0 1.978906 1_555
O19 P3 1.523621 1_555
O19 Zn1 1.978906 1_555
O20 P4 1.541542 1_555
O21 P5 1.541542 1_555
O22 P6 1.541542 1_555
O23 P7 1.541542 1_555
O24 P4 1.612827 1_555
O25 P5 1.612827 1_655
O26 P6 1.612827 1_455
O27 P7 1.612827 1_555
O28 P0 1.590133 1_555
O29 P1 1.590133 1_555
O30 P2 1.590133 1_555
O31 P3 1.590133 1_555
