# generated using pymatgen
data_K4MoO8
_symmetry_space_group_name_H-M   'P 1'
_cell_length_a   6.26027700
_cell_length_b   6.34168361
_cell_length_c   7.17010898
_cell_angle_alpha   88.98773238
_cell_angle_beta   89.12340165
_cell_angle_gamma   65.41485524
_symmetry_Int_Tables_number   1
_chemical_formula_structural   K4MoO8
_chemical_formula_sum   'K4 Mo1 O8'
_cell_volume   258.80204669
_cell_formula_units_Z   1
loop_
 _symmetry_equiv_pos_site_id
 _symmetry_equiv_pos_as_xyz
  1  'x, y, z'
loop_
 _atom_site_type_symbol
 _atom_site_label
 _atom_site_symmetry_multiplicity
 _atom_site_fract_x
 _atom_site_fract_y
 _atom_site_fract_z
 _atom_site_occupancy
  K  K0  1  0.90828800  0.01582800  0.95169600  1
  K  K1  1  0.97301900  0.00411500  0.42780100  1
  K  K2  1  0.21263200  0.40671200  0.74559100  1
  K  K3  1  0.60214700  0.65993500  0.31646500  1
  Mo  Mo0  1  0.53259000  0.76688500  0.81017000  1
  O  O0  1  0.19459400  0.68719300  0.16579200  1
  O  O1  1  0.45896700  0.94924200  0.01005300  1
  O  O2  1  0.70130700  0.87857000  0.67007900  1
  O  O3  1  0.05870900  0.54637900  0.19115200  1
  O  O4  1  0.07073900  0.45671000  0.38350400  1
  O  O5  1  0.26513900  0.82065900  0.69260800  1
  O  O6  1  0.68786000  0.46895700  0.94713300  1
  O  O7  1  0.73061000  0.41951500  0.73695600  1
loop_
_geom_bond_atom_site_label_1
_geom_bond_atom_site_label_2
_geom_bond_distance
_geom_bond_site_symmetry_2
K0 O0 2.602966 1_646
K0 O6 2.619423 1_555
K0 O2 2.755830 1_545
K0 O5 2.761726 1_645
K0 O7 2.775880 1_555
K0 O1 3.035084 1_546
K1 O5 2.561397 1_645
K1 O0 2.688245 1_645
K1 O2 2.744554 1_545
K1 O4 3.183730 1_655
K1 O7 3.306546 1_555
K2 O4 2.727083 1_555
K2 O5 2.796888 1_555
K2 O7 2.986294 1_455
K2 O7 3.276918 1_555
K3 O4 2.715314 1_655
K3 O0 2.723489 1_555
K3 O1 2.746966 1_555
K3 O3 2.779720 1_655
K3 O6 2.880371 1_554
K3 O2 3.102393 1_555
K3 O5 3.301126 1_555
K3 O7 3.309515 1_555
Mo0 O5 1.785523 1_555
Mo0 O2 1.786356 1_555
Mo0 O1 1.788479 1_556
Mo0 O6 1.978496 1_555
Mo0 O7 2.100898 1_555
O0 O3 1.475056 1_555
O3 O4 1.473438 1_555
O6 O7 1.541263 1_555
