# generated using pymatgen
data_Ho
_symmetry_space_group_name_H-M   'P 1'
_cell_length_a   6.89535362
_cell_length_b   6.89535460
_cell_length_c   6.89535372
_cell_angle_alpha   109.47119932
_cell_angle_beta   109.47120227
_cell_angle_gamma   109.47122741
_symmetry_Int_Tables_number   1
_chemical_formula_structural   Ho
_chemical_formula_sum   Ho8
_cell_volume   252.37595966
_cell_formula_units_Z   8
loop_
 _symmetry_equiv_pos_site_id
 _symmetry_equiv_pos_as_xyz
  1  'x, y, z'
loop_
 _atom_site_type_symbol
 _atom_site_label
 _atom_site_symmetry_multiplicity
 _atom_site_fract_x
 _atom_site_fract_y
 _atom_site_fract_z
 _atom_site_occupancy
  Ho  Ho0_0  1  0.00000000  0.00000000  0.00000000  1
  Ho  Ho0_1  1  0.00000000  0.00000000  0.50000000  1
  Ho  Ho0_2  1  0.00000000  0.50000000  0.00000000  1
  Ho  Ho0_3  1  0.00000000  0.50000000  0.50000000  1
  Ho  Ho0_4  1  0.50000000  0.00000000  0.00000000  1
  Ho  Ho0_5  1  0.50000000  0.00000000  0.50000000  1
  Ho  Ho0_6  1  0.50000000  0.50000000  0.00000000  1
  Ho  Ho0_7  1  0.50000000  0.50000000  0.50000000  1
loop_
_geom_bond_atom_site_label_1
_geom_bond_atom_site_label_2
_geom_bond_distance
_geom_bond_site_symmetry_2
Ho0_0 Ho0_4 3.447677 1_455
Ho0_0 Ho0_4 3.447677 1_555
Ho0_0 Ho0_1 3.447677 1_555
Ho0_0 Ho0_1 3.447677 1_554
Ho0_0 Ho0_2 3.447677 1_555
Ho0_0 Ho0_2 3.447677 1_545
Ho0_0 Ho0_7 3.447679 1_444
Ho0_0 Ho0_7 3.447679 1_555
Ho0_1 Ho0_5 3.447677 1_455
Ho0_1 Ho0_5 3.447677 1_555
Ho0_1 Ho0_3 3.447677 1_555
Ho0_1 Ho0_3 3.447677 1_545
Ho0_1 Ho0_6 3.447679 1_445
Ho0_1 Ho0_6 3.447679 1_556
Ho0_2 Ho0_6 3.447677 1_455
Ho0_2 Ho0_6 3.447677 1_555
Ho0_2 Ho0_3 3.447677 1_554
Ho0_2 Ho0_3 3.447677 1_555
Ho0_2 Ho0_5 3.447679 1_454
Ho0_2 Ho0_5 3.447679 1_565
Ho0_3 Ho0_7 3.447677 1_455
Ho0_3 Ho0_7 3.447677 1_555
Ho0_3 Ho0_4 3.447679 1_455
Ho0_3 Ho0_4 3.447679 1_566
Ho0_4 Ho0_5 3.447677 1_555
Ho0_4 Ho0_5 3.447677 1_554
Ho0_4 Ho0_6 3.447677 1_545
Ho0_4 Ho0_6 3.447677 1_555
Ho0_5 Ho0_7 3.447677 1_555
Ho0_5 Ho0_7 3.447677 1_545
Ho0_6 Ho0_7 3.447677 1_555
Ho0_6 Ho0_7 3.447677 1_554
