# generated using pymatgen
data_Li3Ti2V3O12
_symmetry_space_group_name_H-M   'P 1'
_cell_length_a   9.27891100
_cell_length_b   8.79517000
_cell_length_c   15.24505126
_cell_angle_alpha   55.79649147
_cell_angle_beta   90.00000000
_cell_angle_gamma   90.00000000
_symmetry_Int_Tables_number   1
_chemical_formula_structural   Li3Ti2V3O12
_chemical_formula_sum   'Li12 Ti8 V12 O48'
_cell_volume   1028.96329358
_cell_formula_units_Z   4
loop_
 _symmetry_equiv_pos_site_id
 _symmetry_equiv_pos_as_xyz
  1  'x, y, z'
loop_
 _atom_site_type_symbol
 _atom_site_label
 _atom_site_symmetry_multiplicity
 _atom_site_fract_x
 _atom_site_fract_y
 _atom_site_fract_z
 _atom_site_occupancy
  Li  Li0  1  0.91287100  0.36687900  0.70206900  1
  Li  Li1  1  0.48503600  0.72010700  0.34806900  1
  Li  Li2  1  0.22626500  0.00032000  0.18409700  1
  Li  Li3  1  0.72626500  0.99968000  0.31590300  1
  Li  Li4  1  0.41287100  0.63312100  0.79793100  1
  Li  Li5  1  0.98503600  0.27989300  0.15193100  1
  Li  Li6  1  0.01496400  0.72010700  0.84806900  1
  Li  Li7  1  0.58712900  0.36687900  0.20206900  1
  Li  Li8  1  0.27373500  0.00032000  0.68409700  1
  Li  Li9  1  0.77373500  0.99968000  0.81590300  1
  Li  Li10  1  0.51496400  0.27989300  0.65193100  1
  Li  Li11  1  0.08712900  0.63312100  0.29793100  1
  Ti  Ti0  1  0.98006400  0.36865700  0.88660600  1
  Ti  Ti1  1  0.48006400  0.63134300  0.61339400  1
  Ti  Ti2  1  0.02493700  0.86917300  0.38876500  1
  Ti  Ti3  1  0.52493700  0.13082700  0.11123500  1
  Ti  Ti4  1  0.47506300  0.86917300  0.88876500  1
  Ti  Ti5  1  0.97506300  0.13082700  0.61123500  1
  Ti  Ti6  1  0.51993600  0.36865700  0.38660600  1
  Ti  Ti7  1  0.01993600  0.63134300  0.11339400  1
  V  V0  1  0.75635600  0.53761400  0.49049000  1
  V  V1  1  0.62152400  0.26871400  0.84802700  1
  V  V2  1  0.88530800  0.97366200  0.13930800  1
  V  V3  1  0.12152400  0.73128600  0.65197300  1
  V  V4  1  0.38530800  0.02633800  0.36069200  1
  V  V5  1  0.25635600  0.46238600  0.00951000  1
  V  V6  1  0.74364400  0.53761400  0.99049000  1
  V  V7  1  0.61469200  0.97366200  0.63930800  1
  V  V8  1  0.87847600  0.26871400  0.34802700  1
  V  V9  1  0.11469200  0.02633800  0.86069200  1
  V  V10  1  0.37847600  0.73128600  0.15197300  1
  V  V11  1  0.24364400  0.46238600  0.50951000  1
  O  O0  1  0.11353900  0.63273000  0.42562700  1
  O  O1  1  0.10683200  0.16623200  0.90667400  1
  O  O2  1  0.34973200  0.45579800  0.61046100  1
  O  O3  1  0.42558900  0.88170700  0.19571200  1
  O  O4  1  0.63201700  0.51006000  0.59258500  1
  O  O5  1  0.81416200  0.27252000  0.84535800  1
  O  O6  1  0.57365100  0.16421500  0.98653100  1
  O  O7  1  0.01467800  0.89161300  0.23925800  1
  O  O8  1  0.71627000  0.98833300  0.18548300  1
  O  O9  1  0.83763600  0.76822600  0.42130200  1
  O  O10  1  0.51680600  0.47726000  0.76611100  1
  O  O11  1  0.01680600  0.52274000  0.73388900  1
  O  O12  1  0.94331900  0.20053700  0.04622400  1
  O  O13  1  0.44331900  0.79946300  0.45377600  1
  O  O14  1  0.33763600  0.23177400  0.07869800  1
  O  O15  1  0.21627000  0.01166700  0.31451700  1
  O  O16  1  0.07365100  0.83578500  0.51346900  1
  O  O17  1  0.51467800  0.10838700  0.26074200  1
  O  O18  1  0.31416200  0.72748000  0.65464200  1
  O  O19  1  0.13201700  0.48994000  0.90741500  1
  O  O20  1  0.84973200  0.54420200  0.88953900  1
  O  O21  1  0.60683200  0.83376800  0.59332600  1
  O  O22  1  0.92558900  0.11829300  0.30428800  1
  O  O23  1  0.61353900  0.36727000  0.07437300  1
  O  O24  1  0.38646100  0.63273000  0.92562700  1
  O  O25  1  0.07441100  0.88170700  0.69571200  1
  O  O26  1  0.39316800  0.16623200  0.40667400  1
  O  O27  1  0.15026800  0.45579800  0.11046100  1
  O  O28  1  0.86798300  0.51006000  0.09258500  1
  O  O29  1  0.68583800  0.27252000  0.34535800  1
  O  O30  1  0.48532200  0.89161300  0.73925800  1
  O  O31  1  0.92634900  0.16421500  0.48653100  1
  O  O32  1  0.78373000  0.98833300  0.68548300  1
  O  O33  1  0.66236400  0.76822600  0.92130200  1
  O  O34  1  0.55668100  0.20053700  0.54622400  1
  O  O35  1  0.05668100  0.79946300  0.95377600  1
  O  O36  1  0.98319400  0.47726000  0.26611200  1
  O  O37  1  0.48319400  0.52274000  0.23388900  1
  O  O38  1  0.16236400  0.23177400  0.57869800  1
  O  O39  1  0.28373000  0.01166700  0.81451700  1
  O  O40  1  0.98532200  0.10838700  0.76074200  1
  O  O41  1  0.42634900  0.83578500  0.01346900  1
  O  O42  1  0.18583800  0.72748000  0.15464200  1
  O  O43  1  0.36798300  0.48994000  0.40741500  1
  O  O44  1  0.57441100  0.11829300  0.80428800  1
  O  O45  1  0.65026800  0.54420200  0.38953900  1
  O  O46  1  0.89316800  0.83376800  0.09332600  1
  O  O47  1  0.88646100  0.36727000  0.57437300  1
loop_
_geom_bond_atom_site_label_1
_geom_bond_atom_site_label_2
_geom_bond_distance
_geom_bond_site_symmetry_2
Li0 O11 1.947350 1_655
Li0 O47 1.960179 1_555
Li0 O40 2.033338 1_555
Li0 O5 2.064288 1_555
Li1 O3 2.001942 1_555
Li1 O43 2.009262 1_555
Li1 O45 2.011025 1_555
Li1 O13 2.120956 1_555
Li2 O14 2.028872 1_555
Li2 O15 2.048126 1_555
Li2 O3 2.081507 1_545
Li2 O7 2.138199 1_545
Li3 O9 2.028872 1_555
Li3 O8 2.048126 1_555
Li3 O22 2.081507 1_565
Li3 O17 2.138199 1_565
Li4 O10 1.947350 1_555
Li4 O24 1.960179 1_555
Li4 O30 2.033338 1_555
Li4 O18 2.064288 1_555
Li5 O22 2.001942 1_555
Li5 O28 2.009262 1_555
Li5 O27 2.011025 1_655
Li5 O12 2.120956 1_555
Li6 O25 2.001942 1_555
Li6 O19 2.009262 1_555
Li6 O20 2.011025 1_455
Li6 O35 2.120956 1_555
Li7 O37 1.947350 1_555
Li7 O23 1.960179 1_555
Li7 O17 2.033338 1_555
Li7 O29 2.064288 1_555
Li8 O38 2.028872 1_555
Li8 O39 2.048126 1_555
Li8 O25 2.081507 1_545
Li8 O30 2.138199 1_545
Li9 O33 2.028872 1_555
Li9 O32 2.048126 1_555
Li9 O44 2.081507 1_565
Li9 O40 2.138199 1_565
Li10 O44 2.001942 1_555
Li10 O4 2.009262 1_555
Li10 O2 2.011025 1_555
Li10 O34 2.120956 1_555
Li11 O36 1.947340 1_455
Li11 O0 1.960179 1_555
Li11 O7 2.033338 1_555
Li11 O42 2.064288 1_555
O0 V11 1.784200 1_555
O0 Ti2 2.000599 1_555
O1 V9 1.726344 1_555
O1 Ti0 2.008614 1_455
O2 V11 1.800177 1_555
O2 Ti1 1.981386 1_555
O3 V10 1.837878 1_555
O3 Ti3 2.033878 1_565
O4 V0 1.840727 1_555
O4 Ti1 1.899191 1_555
O5 V1 1.787819 1_555
O5 Ti0 2.019371 1_555
O6 Ti3 1.810292 1_556
O6 V1 1.821720 1_555
O7 V2 1.745655 1_455
O7 Ti2 2.176515 1_555
O8 V2 1.753413 1_555
O8 Ti3 2.099746 1_565
O9 V0 1.841199 1_555
O9 Ti2 1.886706 1_655
O10 V1 1.814591 1_555
O10 Ti1 1.956011 1_555
O11 V3 1.814591 1_555
O11 Ti0 1.956011 1_455
O12 V2 1.761149 1_545
O12 Ti0 2.044201 1_554
O13 V4 1.761149 1_565
O13 Ti1 2.044201 1_555
O14 V5 1.841199 1_555
O14 Ti3 1.886706 1_555
O15 V4 1.753413 1_555
O15 Ti2 2.099746 1_545
O16 Ti2 1.810292 1_555
O16 V3 1.821720 1_555
O17 V4 1.745655 1_555
O17 Ti3 2.176515 1_555
O18 V3 1.787819 1_555
O18 Ti1 2.019371 1_555
O19 V5 1.840727 1_556
O19 Ti0 1.899191 1_455
O20 V6 1.800177 1_555
O20 Ti0 1.981386 1_555
O21 V7 1.726344 1_555
O21 Ti1 2.008614 1_555
O22 V8 1.837878 1_555
O22 Ti2 2.033878 1_645
O23 V6 1.784200 1_554
O23 Ti3 2.000599 1_555
O24 V5 1.784200 1_556
O24 Ti4 2.000599 1_555
O25 V3 1.837878 1_555
O25 Ti5 2.033878 1_465
O26 V4 1.726344 1_555
O26 Ti6 2.008614 1_555
O27 V5 1.800177 1_555
O27 Ti7 1.981386 1_555
O28 V6 1.840727 1_554
O28 Ti7 1.899191 1_655
O29 V8 1.787819 1_555
O29 Ti6 2.019371 1_555
O30 V7 1.745655 1_555
O30 Ti4 2.176515 1_555
O31 Ti5 1.810292 1_555
O31 V8 1.821720 1_555
O32 V7 1.753413 1_555
O32 Ti5 2.099746 1_565
O33 V6 1.841199 1_555
O33 Ti4 1.886706 1_555
O34 V7 1.761149 1_545
O34 Ti6 2.044201 1_555
O35 V9 1.761149 1_565
O35 Ti7 2.044201 1_556
O36 V8 1.814589 1_555
O36 Ti7 1.956023 1_655
O37 V10 1.814591 1_555
O37 Ti6 1.956011 1_555
O38 V11 1.841199 1_555
O38 Ti5 1.886706 1_455
O39 V9 1.753413 1_555
O39 Ti4 2.099746 1_545
O40 V9 1.745655 1_655
O40 Ti5 2.176515 1_555
O41 Ti4 1.810292 1_554
O41 V10 1.821720 1_555
O42 V10 1.787819 1_555
O42 Ti7 2.019371 1_555
O43 V11 1.840727 1_555
O43 Ti6 1.899191 1_555
O44 V1 1.837878 1_555
O44 Ti4 2.033878 1_545
O45 V0 1.800177 1_555
O45 Ti6 1.981386 1_555
O46 V2 1.726344 1_555
O46 Ti7 2.008614 1_655
O47 V0 1.784200 1_555
O47 Ti5 2.000599 1_555
