# generated using pymatgen
data_Mn4O7F
_symmetry_space_group_name_H-M   'P 1'
_cell_length_a   6.67405371
_cell_length_b   6.67405371
_cell_length_c   6.98165352
_cell_angle_alpha   65.61783188
_cell_angle_beta   65.61783188
_cell_angle_gamma   96.05727617
_symmetry_Int_Tables_number   1
_chemical_formula_structural   Mn4O7F
_chemical_formula_sum   'Mn8 O14 F2'
_cell_volume   243.29506413
_cell_formula_units_Z   2
loop_
 _symmetry_equiv_pos_site_id
 _symmetry_equiv_pos_as_xyz
  1  'x, y, z'
loop_
 _atom_site_type_symbol
 _atom_site_label
 _atom_site_symmetry_multiplicity
 _atom_site_fract_x
 _atom_site_fract_y
 _atom_site_fract_z
 _atom_site_occupancy
  Mn  Mn0  1  0.54105600  0.53618100  0.16286700  1
  Mn  Mn1  1  0.94102200  0.44782200  0.85684700  1
  Mn  Mn2  1  0.44782200  0.94102200  0.35684700  1
  Mn  Mn3  1  0.06576600  0.05736200  0.63845400  1
  Mn  Mn4  1  0.94896700  0.43712800  0.35411800  1
  Mn  Mn5  1  0.53618100  0.54105600  0.66286700  1
  Mn  Mn6  1  0.05736200  0.06576600  0.13845400  1
  Mn  Mn7  1  0.43712800  0.94896700  0.85411800  1
  O  O0  1  0.97550700  0.14611300  0.39108400  1
  O  O1  1  0.48842500  0.65203200  0.38490700  1
  O  O2  1  0.85010300  0.52262700  0.11317700  1
  O  O3  1  0.78984600  0.11882400  0.10788100  1
  O  O4  1  0.65203200  0.48842500  0.88490700  1
  O  O5  1  0.38225900  0.20138900  0.39098800  1
  O  O6  1  0.11882400  0.78984600  0.60788100  1
  O  O7  1  0.61833400  0.28816600  0.61318700  1
  O  O8  1  0.20138900  0.38225900  0.89098800  1
  O  O9  1  0.35148800  0.02686900  0.10745700  1
  O  O10  1  0.28816600  0.61833400  0.11318700  1
  O  O11  1  0.14611300  0.97550700  0.89108400  1
  O  O12  1  0.52262700  0.85010300  0.61317700  1
  O  O13  1  0.02686900  0.35148800  0.60745700  1
  F  F0  1  0.71755900  0.89515700  0.87903200  1
  F  F1  1  0.89515700  0.71755900  0.37903200  1
loop_
_geom_bond_atom_site_label_1
_geom_bond_atom_site_label_2
_geom_bond_distance
_geom_bond_site_symmetry_2
Mn0 O1 1.929175 1_555
Mn0 O4 1.946778 1_554
Mn0 O10 1.947108 1_555
Mn0 O5 1.954694 1_555
Mn0 O2 1.964010 1_555
Mn1 O4 1.916768 1_555
Mn1 O8 1.919436 1_655
Mn1 O2 1.930072 1_556
Mn1 O3 1.950928 1_556
Mn1 O13 1.987867 1_655
Mn1 O6 2.022255 1_655
Mn2 O1 1.916768 1_555
Mn2 O5 1.919436 1_565
Mn2 O12 1.930072 1_555
Mn2 O6 1.950928 1_555
Mn2 O9 1.987867 1_565
Mn2 O3 2.022255 1_565
Mn3 O5 1.886250 1_555
Mn3 O11 1.934961 1_545
Mn3 O6 1.935030 1_545
Mn3 O13 1.941863 1_555
Mn3 O0 1.945789 1_455
Mn4 O0 1.888598 1_555
Mn4 O13 1.926835 1_655
Mn4 O2 1.947822 1_555
Mn4 O7 1.971355 1_555
Mn4 O10 2.003883 1_655
Mn5 O4 1.929175 1_555
Mn5 O1 1.946778 1_555
Mn5 O7 1.947108 1_555
Mn5 O8 1.954694 1_555
Mn5 O12 1.964010 1_555
Mn6 O8 1.886250 1_554
Mn6 O0 1.934961 1_455
Mn6 O3 1.935030 1_455
Mn6 O9 1.941863 1_555
Mn6 O11 1.945789 1_544
Mn7 O11 1.888598 1_555
Mn7 O9 1.926835 1_566
Mn7 O12 1.947822 1_555
Mn7 O10 1.971355 1_556
Mn7 O7 2.003883 1_565
F0 Mn7 2.005300 1_555
F0 Mn3 2.034414 1_665
F0 Mn0 2.147487 1_556
F1 Mn4 2.005300 1_555
F1 Mn6 2.034414 1_665
F1 Mn5 2.147487 1_555
