# generated using pymatgen
data_CuH12(NO)6
_symmetry_space_group_name_H-M   'P 1'
_cell_length_a   7.58746400
_cell_length_b   12.08699800
_cell_length_c   25.88470400
_cell_angle_alpha   90.00000000
_cell_angle_beta   90.00000000
_cell_angle_gamma   90.00000000
_symmetry_Int_Tables_number   1
_chemical_formula_structural   CuH12(NO)6
_chemical_formula_sum   'Cu8 H96 N48 O48'
_cell_volume   2373.87745981
_cell_formula_units_Z   8
loop_
 _symmetry_equiv_pos_site_id
 _symmetry_equiv_pos_as_xyz
  1  'x, y, z'
loop_
 _atom_site_type_symbol
 _atom_site_label
 _atom_site_symmetry_multiplicity
 _atom_site_fract_x
 _atom_site_fract_y
 _atom_site_fract_z
 _atom_site_occupancy
  Cu  Cu0  1  0.50000000  0.51534000  0.40562600  1
  Cu  Cu1  1  0.50000000  0.48466000  0.59437400  1
  Cu  Cu2  1  0.00000000  0.01534000  0.09437400  1
  Cu  Cu3  1  0.00000000  0.98466000  0.90562600  1
  Cu  Cu4  1  0.50000000  0.58616500  0.11104300  1
  Cu  Cu5  1  0.50000000  0.41383500  0.88895700  1
  Cu  Cu6  1  0.00000000  0.08616500  0.38895700  1
  Cu  Cu7  1  0.00000000  0.91383500  0.61104300  1
  H  H0  1  0.74509600  0.53642100  0.31531400  1
  H  H1  1  0.74509600  0.46357900  0.68468600  1
  H  H2  1  0.75490400  0.03642100  0.18468600  1
  H  H3  1  0.75490400  0.96357900  0.81531400  1
  H  H4  1  0.25490400  0.46357900  0.68468600  1
  H  H5  1  0.25490400  0.53642100  0.31531400  1
  H  H6  1  0.24509600  0.96357900  0.81531400  1
  H  H7  1  0.24509600  0.03642100  0.18468600  1
  H  H8  1  0.89781300  0.28294300  0.38805500  1
  H  H9  1  0.89781300  0.71705700  0.61194500  1
  H  H10  1  0.60218700  0.78294300  0.11194500  1
  H  H11  1  0.60218700  0.21705700  0.88805500  1
  H  H12  1  0.10218700  0.71705700  0.61194500  1
  H  H13  1  0.10218700  0.28294300  0.38805500  1
  H  H14  1  0.39781300  0.21705700  0.88805500  1
  H  H15  1  0.39781300  0.78294300  0.11194500  1
  H  H16  1  0.39375800  0.28446600  0.28752400  1
  H  H17  1  0.39375800  0.71553400  0.71247600  1
  H  H18  1  0.10624200  0.78446600  0.21247600  1
  H  H19  1  0.10624200  0.21553400  0.78752400  1
  H  H20  1  0.60624200  0.71553400  0.71247600  1
  H  H21  1  0.60624200  0.28446600  0.28752400  1
  H  H22  1  0.89375800  0.21553400  0.78752400  1
  H  H23  1  0.89375800  0.78446600  0.21247600  1
  H  H24  1  0.80167300  0.53259500  0.44331000  1
  H  H25  1  0.80167300  0.46740500  0.55669000  1
  H  H26  1  0.69832700  0.03259500  0.05669000  1
  H  H27  1  0.69832700  0.96740500  0.94331000  1
  H  H28  1  0.19832700  0.46740500  0.55669000  1
  H  H29  1  0.19832700  0.53259500  0.44331000  1
  H  H30  1  0.30167300  0.96740500  0.94331000  1
  H  H31  1  0.30167300  0.03259500  0.05669000  1
  H  H32  1  0.89961100  0.76697200  0.36060400  1
  H  H33  1  0.89961100  0.23302800  0.63939600  1
  H  H34  1  0.60038900  0.26697200  0.13939600  1
  H  H35  1  0.60038900  0.73302800  0.86060400  1
  H  H36  1  0.10038900  0.23302800  0.63939600  1
  H  H37  1  0.10038900  0.76697200  0.36060400  1
  H  H38  1  0.39961100  0.73302800  0.86060400  1
  H  H39  1  0.39961100  0.26697200  0.13939600  1
  H  H40  1  0.67433800  0.63090200  0.46647500  1
  H  H41  1  0.67433800  0.36909800  0.53352500  1
  H  H42  1  0.82566200  0.13090200  0.03352500  1
  H  H43  1  0.82566200  0.86909800  0.96647500  1
  H  H44  1  0.32566200  0.36909800  0.53352500  1
  H  H45  1  0.32566200  0.63090200  0.46647500  1
  H  H46  1  0.17433800  0.86909800  0.96647500  1
  H  H47  1  0.17433800  0.13090200  0.03352500  1
  H  H48  1  0.69122100  0.54154900  0.08360700  1
  H  H49  1  0.69122100  0.45845100  0.91639300  1
  H  H50  1  0.80877900  0.04154900  0.41639300  1
  H  H51  1  0.80877900  0.95845100  0.58360700  1
  H  H52  1  0.30877900  0.45845100  0.91639300  1
  H  H53  1  0.30877900  0.54154900  0.08360700  1
  H  H54  1  0.19122100  0.95845100  0.58360700  1
  H  H55  1  0.19122100  0.04154900  0.41639300  1
  H  H56  1  0.89844400  0.43017400  0.12960100  1
  H  H57  1  0.89844400  0.56982600  0.87039900  1
  H  H58  1  0.60155600  0.93017400  0.37039900  1
  H  H59  1  0.60155600  0.06982600  0.62960100  1
  H  H60  1  0.10155600  0.56982600  0.87039900  1
  H  H61  1  0.10155600  0.43017400  0.12960100  1
  H  H62  1  0.39844400  0.06982600  0.62960100  1
  H  H63  1  0.39844400  0.93017400  0.37039900  1
  H  H64  1  0.81277900  0.80609900  0.87481900  1
  H  H65  1  0.81277900  0.19390100  0.12518100  1
  H  H66  1  0.68722100  0.30609900  0.62518100  1
  H  H67  1  0.68722100  0.69390100  0.37481900  1
  H  H68  1  0.18722100  0.19390100  0.12518100  1
  H  H69  1  0.18722100  0.80609900  0.87481900  1
  H  H70  1  0.31277900  0.69390100  0.37481900  1
  H  H71  1  0.31277900  0.30609900  0.62518100  1
  H  H72  1  0.72153300  0.56808900  0.11087500  1
  H  H73  1  0.72153300  0.43191100  0.88912500  1
  H  H74  1  0.77846700  0.06808900  0.38912500  1
  H  H75  1  0.77846700  0.93191100  0.61087500  1
  H  H76  1  0.27846700  0.43191100  0.88912500  1
  H  H77  1  0.27846700  0.56808900  0.11087500  1
  H  H78  1  0.22153300  0.93191100  0.61087500  1
  H  H79  1  0.22153300  0.06808900  0.38912500  1
  H  H80  1  0.69338600  0.74136000  0.39328300  1
  H  H81  1  0.69338600  0.25864000  0.60671700  1
  H  H82  1  0.80661400  0.24136000  0.10671700  1
  H  H83  1  0.80661400  0.75864000  0.89328300  1
  H  H84  1  0.30661400  0.25864000  0.60671700  1
  H  H85  1  0.30661400  0.74136000  0.39328300  1
  H  H86  1  0.19338600  0.75864000  0.89328300  1
  H  H87  1  0.19338600  0.24136000  0.10671700  1
  H  H88  1  0.94879700  0.60570500  0.18357100  1
  H  H89  1  0.94879700  0.39429500  0.81642900  1
  H  H90  1  0.55120300  0.10570500  0.31642900  1
  H  H91  1  0.55120300  0.89429500  0.68357100  1
  H  H92  1  0.05120300  0.39429500  0.81642900  1
  H  H93  1  0.05120300  0.60570500  0.18357100  1
  H  H94  1  0.44879700  0.89429500  0.68357100  1
  H  H95  1  0.44879700  0.10570500  0.31642900  1
  N  N0  1  0.64289900  0.51085000  0.33966400  1
  N  N1  1  0.64289900  0.48915000  0.66033600  1
  N  N2  1  0.85710100  0.01085000  0.16033600  1
  N  N3  1  0.85710100  0.98915000  0.83966400  1
  N  N4  1  0.35710100  0.48915000  0.66033600  1
  N  N5  1  0.35710100  0.51085000  0.33966400  1
  N  N6  1  0.14289900  0.98915000  0.83966400  1
  N  N7  1  0.14289900  0.01085000  0.16033600  1
  N  N8  1  0.67629800  0.54835700  0.45633600  1
  N  N9  1  0.67629800  0.45164300  0.54366400  1
  N  N10  1  0.82370200  0.04835700  0.04366400  1
  N  N11  1  0.82370200  0.95164300  0.95633600  1
  N  N12  1  0.32370200  0.45164300  0.54366400  1
  N  N13  1  0.32370200  0.54835700  0.45633600  1
  N  N14  1  0.17629800  0.95164300  0.95633600  1
  N  N15  1  0.17629800  0.04835700  0.04366400  1
  N  N16  1  0.65774700  0.05988100  0.25035600  1
  N  N17  1  0.65774700  0.94011900  0.74964400  1
  N  N18  1  0.84225300  0.55988100  0.24964400  1
  N  N19  1  0.84225300  0.44011900  0.75035600  1
  N  N20  1  0.34225300  0.94011900  0.74964400  1
  N  N21  1  0.34225300  0.05988100  0.25035600  1
  N  N22  1  0.15774700  0.44011900  0.75035600  1
  N  N23  1  0.15774700  0.55988100  0.24964400  1
  N  N24  1  0.66523900  0.44978500  0.00523700  1
  N  N25  1  0.66523900  0.55021500  0.99476300  1
  N  N26  1  0.83476100  0.94978500  0.49476300  1
  N  N27  1  0.83476100  0.05021500  0.50523700  1
  N  N28  1  0.33476100  0.55021500  0.99476300  1
  N  N29  1  0.33476100  0.44978500  0.00523700  1
  N  N30  1  0.16523900  0.05021500  0.50523700  1
  N  N31  1  0.16523900  0.94978500  0.49476300  1
  N  N32  1  0.50000000  0.77053300  0.28715800  1
  N  N33  1  0.50000000  0.22946700  0.71284200  1
  N  N34  1  0.00000000  0.27053300  0.21284200  1
  N  N35  1  0.00000000  0.72946700  0.78715800  1
  N  N36  1  0.50000000  0.23339800  0.43817700  1
  N  N37  1  0.50000000  0.76660200  0.56182300  1
  N  N38  1  0.00000000  0.73339800  0.06182300  1
  N  N39  1  0.00000000  0.26660200  0.93817700  1
  N  N40  1  0.50000000  0.30367900  0.21334800  1
  N  N41  1  0.50000000  0.69632100  0.78665200  1
  N  N42  1  0.00000000  0.80367900  0.28665200  1
  N  N43  1  0.00000000  0.19632100  0.71334800  1
  N  N44  1  0.50000000  0.82709500  0.02523800  1
  N  N45  1  0.50000000  0.17290500  0.97476200  1
  N  N46  1  0.00000000  0.32709500  0.47476200  1
  N  N47  1  0.00000000  0.67290500  0.52523800  1
  O  O0  1  0.50000000  0.53182400  0.30919300  1
  O  O1  1  0.50000000  0.46817600  0.69080700  1
  O  O2  1  0.00000000  0.03182400  0.19080700  1
  O  O3  1  0.00000000  0.96817600  0.80919300  1
  O  O4  1  0.50000000  0.88138800  0.37127200  1
  O  O5  1  0.50000000  0.11861200  0.62872800  1
  O  O6  1  0.00000000  0.38138800  0.12872800  1
  O  O7  1  0.00000000  0.61861200  0.87127200  1
  O  O8  1  0.50000000  0.82974500  0.25157000  1
  O  O9  1  0.50000000  0.17025500  0.74843000  1
  O  O10  1  0.00000000  0.32974500  0.24843000  1
  O  O11  1  0.00000000  0.67025500  0.75157000  1
  O  O12  1  0.50000000  0.33766400  0.44324500  1
  O  O13  1  0.50000000  0.66233600  0.55675500  1
  O  O14  1  0.00000000  0.83766400  0.05675500  1
  O  O15  1  0.00000000  0.16233600  0.94324500  1
  O  O16  1  0.50000000  0.19116900  0.39196200  1
  O  O17  1  0.50000000  0.80883100  0.60803800  1
  O  O18  1  0.00000000  0.69116900  0.10803800  1
  O  O19  1  0.00000000  0.30883100  0.89196200  1
  O  O20  1  0.50000000  0.17157400  0.47683300  1
  O  O21  1  0.50000000  0.82842600  0.52316700  1
  O  O22  1  0.00000000  0.67157400  0.02316700  1
  O  O23  1  0.00000000  0.32842600  0.97683300  1
  O  O24  1  0.50000000  0.27853700  0.11634800  1
  O  O25  1  0.50000000  0.72146300  0.88365200  1
  O  O26  1  0.00000000  0.77853700  0.38365200  1
  O  O27  1  0.00000000  0.22146300  0.61634800  1
  O  O28  1  0.50000000  0.05321800  0.23803400  1
  O  O29  1  0.50000000  0.94678200  0.76196600  1
  O  O30  1  0.00000000  0.55321800  0.26196600  1
  O  O31  1  0.00000000  0.44678200  0.73803400  1
  O  O32  1  0.50000000  0.31549800  0.27106300  1
  O  O33  1  0.50000000  0.68450200  0.72893700  1
  O  O34  1  0.00000000  0.81549800  0.22893700  1
  O  O35  1  0.00000000  0.18450200  0.77106300  1
  O  O36  1  0.50000000  0.75006100  0.12932600  1
  O  O37  1  0.50000000  0.24993900  0.87067400  1
  O  O38  1  0.00000000  0.25006100  0.37067400  1
  O  O39  1  0.00000000  0.74993900  0.62932600  1
  O  O40  1  0.50000000  0.60998400  0.98931900  1
  O  O41  1  0.50000000  0.39001600  0.01068100  1
  O  O42  1  0.00000000  0.10998400  0.51068100  1
  O  O43  1  0.00000000  0.89001600  0.48931900  1
  O  O44  1  0.50000000  0.92279000  0.03555400  1
  O  O45  1  0.50000000  0.07721000  0.96444600  1
  O  O46  1  0.00000000  0.42279000  0.46444600  1
  O  O47  1  0.00000000  0.57721000  0.53555400  1
loop_
_geom_bond_atom_site_label_1
_geom_bond_atom_site_label_2
_geom_bond_distance
_geom_bond_site_symmetry_2
Cu0 N13 1.916125 1_555
Cu0 N8 1.916125 1_555
Cu0 N5 2.023305 1_555
Cu0 N0 2.023305 1_555
Cu0 O12 2.358020 1_555
Cu1 N12 1.916125 1_555
Cu1 N9 1.916125 1_555
Cu1 N4 2.023305 1_555
Cu1 N1 2.023305 1_555
Cu1 O13 2.358020 1_555
Cu2 N10 1.916125 1_455
Cu2 N15 1.916125 1_555
Cu2 N7 2.023305 1_555
Cu2 N2 2.023305 1_455
Cu2 O14 2.358020 1_545
Cu3 N11 1.916125 1_455
Cu3 N14 1.916125 1_555
Cu3 N3 2.023305 1_455
Cu3 N6 2.023305 1_555
Cu3 O15 2.358020 1_565
Cu4 H77 1.695019 1_555
Cu4 H72 1.695019 1_555
Cu4 H53 1.703004 1_555
Cu4 H48 1.703004 1_555
Cu4 O36 2.036754 1_555
Cu5 H76 1.695019 1_555
Cu5 H73 1.695019 1_555
Cu5 H52 1.703004 1_555
Cu5 H49 1.703004 1_555
Cu5 O37 2.036754 1_555
Cu6 H74 1.695019 1_455
Cu6 H79 1.695019 1_555
Cu6 H50 1.703004 1_455
Cu6 H55 1.703004 1_555
Cu6 O38 2.036754 1_555
Cu7 H75 1.695019 1_455
Cu7 H78 1.695019 1_555
Cu7 H51 1.703004 1_455
Cu7 H54 1.703004 1_555
Cu7 O39 2.036754 1_555
H0 N0 1.045977 1_555
H1 N1 1.045977 1_555
H2 N2 1.045977 1_555
H3 N3 1.045977 1_555
H4 N4 1.045977 1_555
H5 N5 1.045977 1_555
H6 N6 1.045977 1_555
H7 N7 1.045977 1_555
H8 O38 0.980575 1_655
H9 O39 0.980575 1_655
H10 O36 0.980575 1_555
H11 O37 0.980575 1_555
H12 O39 0.980575 1_555
H13 O38 0.980575 1_555
H14 O37 0.980575 1_555
H15 O36 0.980575 1_555
H16 O32 0.985925 1_555
H17 O33 0.985925 1_555
H18 O34 0.985925 1_555
H19 O35 0.985925 1_555
H20 O33 0.985925 1_555
H21 O32 0.985925 1_555
H22 O35 0.985925 1_655
H23 O34 0.985925 1_655
H24 N8 1.027090 1_555
H25 N9 1.027090 1_555
H26 N10 1.027090 1_555
H27 N11 1.027090 1_555
H28 N12 1.027090 1_555
H29 N13 1.027090 1_555
H30 N14 1.027090 1_555
H31 N15 1.027090 1_555
H32 O26 0.977571 1_655
H33 O27 0.977571 1_655
H34 O24 0.977571 1_555
H35 O25 0.977571 1_555
H36 O27 0.977571 1_555
H37 O26 0.977571 1_555
H38 O25 0.977571 1_555
H39 O24 0.977571 1_555
H40 N8 1.031768 1_555
H41 N9 1.031768 1_555
H42 N10 1.031768 1_555
H43 N11 1.031768 1_555
H44 N12 1.031768 1_555
H45 N13 1.031768 1_555
H46 N14 1.031768 1_555
H47 N15 1.031768 1_555
H48 H72 0.808696 1_555
H49 H73 0.808696 1_555
H50 H74 0.808696 1_555
H51 H75 0.808696 1_555
H52 H76 0.808696 1_555
H53 H77 0.808696 1_555
H54 H78 0.808696 1_555
H55 H79 0.808696 1_555
H56 O6 0.970556 1_655
H57 O7 0.970556 1_655
H58 O4 0.970556 1_555
H59 O5 0.970556 1_555
H60 O7 0.970556 1_555
H61 O6 0.970556 1_555
H62 O5 0.970556 1_555
H63 O4 0.970556 1_555
H64 H83 0.748110 1_555
H65 H82 0.748110 1_555
H66 H81 0.748110 1_555
H67 H80 0.748110 1_555
H68 H87 0.748110 1_555
H69 H86 0.748110 1_555
H70 H85 0.748110 1_555
H71 H84 0.748110 1_555
H88 H93 0.777002 1_655
H89 H92 0.777002 1_655
H90 H95 0.777002 1_555
H91 H94 0.777002 1_555
N0 O0 1.364532 1_555
N1 O1 1.364532 1_555
N2 O2 1.364532 1_655
N3 O3 1.364532 1_655
N4 O1 1.364532 1_555
N5 O0 1.364532 1_555
N6 O3 1.364532 1_555
N7 O2 1.364532 1_555
N16 O28 1.241284 1_555
N17 O29 1.241284 1_555
N18 O30 1.241284 1_655
N19 O31 1.241284 1_655
N20 O29 1.241284 1_555
N21 O28 1.241284 1_555
N22 O31 1.241284 1_555
N23 O30 1.241284 1_555
N24 N25 1.243805 1_554
N24 O41 1.453835 1_555
N25 O40 1.453835 1_555
N26 N27 1.243805 1_565
N26 O43 1.453835 1_655
N27 O42 1.453835 1_655
N28 N29 1.243805 1_556
N28 O40 1.453835 1_555
N29 O41 1.453835 1_555
N30 N31 1.243805 1_545
N30 O42 1.453835 1_555
N31 O43 1.453835 1_555
N32 O8 1.166534 1_555
N33 O9 1.166534 1_555
N34 O10 1.166534 1_555
N35 O11 1.166534 1_555
N36 O20 1.248842 1_555
N36 O12 1.267072 1_555
N36 O16 1.300605 1_555
N37 O21 1.248842 1_555
N37 O13 1.267072 1_555
N37 O17 1.300605 1_555
N38 O22 1.248842 1_555
N38 O14 1.267072 1_555
N38 O18 1.300605 1_555
N39 O23 1.248842 1_555
N39 O15 1.267072 1_555
N39 O19 1.300605 1_555
N40 O32 1.500750 1_555
N41 O33 1.500750 1_555
N42 O34 1.500750 1_555
N43 O35 1.500750 1_555
N44 O44 1.187088 1_555
N45 O45 1.187088 1_555
N46 O46 1.187088 1_555
N47 O47 1.187088 1_555
