# generated using pymatgen
data_Li5V3P8O29
_symmetry_space_group_name_H-M   'P 1'
_cell_length_a   9.79147800
_cell_length_b   9.80292483
_cell_length_c   13.96020361
_cell_angle_alpha   89.91445736
_cell_angle_beta   89.83986535
_cell_angle_gamma   60.03987436
_symmetry_Int_Tables_number   1
_chemical_formula_structural   Li5V3P8O29
_chemical_formula_sum   'Li10 V6 P16 O58'
_cell_volume   1160.91111673
_cell_formula_units_Z   2
loop_
 _symmetry_equiv_pos_site_id
 _symmetry_equiv_pos_as_xyz
  1  'x, y, z'
loop_
 _atom_site_type_symbol
 _atom_site_label
 _atom_site_symmetry_multiplicity
 _atom_site_fract_x
 _atom_site_fract_y
 _atom_site_fract_z
 _atom_site_occupancy
  Li  Li0  1  0.32541800  0.90683800  0.06198200  1
  Li  Li1  1  0.77042900  0.90601100  0.55956600  1
  Li  Li2  1  0.66126500  0.66899900  0.88522900  1
  Li  Li3  1  0.90732200  0.76741100  0.06328300  1
  Li  Li4  1  0.76701200  0.32584100  0.06284700  1
  Li  Li5  1  0.09584100  0.67972400  0.43976400  1
  Li  Li6  1  0.90675500  0.32374900  0.55823100  1
  Li  Li7  1  0.22686400  0.08762400  0.43812100  1
  Li  Li8  1  0.67785500  0.22767500  0.43761800  1
  Li  Li9  1  0.00267500  0.99974300  0.99909200  1
  V  V0  1  0.00107700  0.56569500  0.24846000  1
  V  V1  1  0.00693400  0.42668300  0.75442400  1
  V  V2  1  0.42494500  0.57224600  0.74726700  1
  V  V3  1  0.56411200  0.43515000  0.24938800  1
  V  V4  1  0.43348900  0.99961900  0.24902700  1
  V  V5  1  0.56778700  0.00248100  0.75035100  1
  P  P0  1  0.31488100  0.90994900  0.84217900  1
  P  P1  1  0.31669800  0.76847700  0.34283800  1
  P  P2  1  0.76791000  0.91210000  0.34270900  1
  P  P3  1  0.66792100  0.66644100  0.12575600  1
  P  P4  1  0.67141900  0.66236200  0.62899800  1
  P  P5  1  0.90916500  0.77387600  0.84339800  1
  P  P6  1  0.08517100  0.68285600  0.65934200  1
  P  P7  1  0.77190200  0.31672100  0.84368400  1
  P  P8  1  0.22687800  0.68987900  0.15621500  1
  P  P9  1  0.91186200  0.32046700  0.34215000  1
  P  P10  1  0.08505800  0.22594700  0.15772900  1
  P  P11  1  0.33233300  0.33257000  0.37159300  1
  P  P12  1  0.33780700  0.33484700  0.87196200  1
  P  P13  1  0.23130600  0.08615600  0.65774900  1
  P  P14  1  0.68250400  0.23257300  0.65855300  1
  P  P15  1  0.68894500  0.08550700  0.15840700  1
  O  O0  1  0.23390900  0.00997300  0.56585100  1
  O  O1  1  0.33971800  0.91377200  0.34045300  1
  O  O2  1  0.21330500  0.78993800  0.07165000  1
  O  O3  1  0.33911200  0.74048600  0.83216200  1
  O  O4  1  0.47935600  0.89357300  0.83035300  1
  O  O5  1  0.51191100  0.81128700  0.16361000  1
  O  O6  1  0.61832000  0.90162100  0.32229200  1
  O  O7  1  0.79192500  0.99594800  0.07556600  1
  O  O8  1  0.73957100  0.91476400  0.83399300  1
  O  O9  1  0.52534100  0.65967300  0.67752300  1
  O  O10  1  0.47796900  0.61674400  0.32206600  1
  O  O11  1  0.67153400  0.81315400  0.66610800  1
  O  O12  1  0.67033600  0.66694400  0.01736300  1
  O  O13  1  0.67313600  0.65155100  0.52276800  1
  O  O14  1  0.81186700  0.67776700  0.16485100  1
  O  O15  1  0.62204400  0.47953900  0.83182300  1
  O  O16  1  0.67740800  0.51135600  0.16340300  1
  O  O17  1  0.91574400  0.74654900  0.34182400  1
  O  O18  1  0.99844200  0.79245900  0.75085800  1
  O  O19  1  0.99802700  0.75910600  0.56904900  1
  O  O20  1  0.98734900  0.77827300  0.93357400  1
  O  O21  1  0.89677200  0.62226600  0.82926700  1
  O  O22  1  0.82116600  0.51299300  0.67285300  1
  O  O23  1  0.08271400  0.66272300  0.16149800  1
  O  O24  1  0.89890400  0.48140400  0.32056100  1
  O  O25  1  0.74757800  0.33489100  0.34077300  1
  O  O26  1  0.20819500  0.79293200  0.25059800  1
  O  O27  1  0.23630900  0.75753200  0.43009600  1
  O  O28  1  0.75875100  0.24569800  0.56820300  1
  O  O29  1  0.25360400  0.65978400  0.66228600  1
  O  O30  1  0.09245700  0.52471500  0.67876700  1
  O  O31  1  0.91686400  0.34283300  0.83428800  1
  O  O32  1  0.18551100  0.48535400  0.32963400  1
  O  O33  1  0.08543300  0.38109100  0.16769600  1
  O  O34  1  0.99544700  0.21123500  0.07560000  1
  O  O35  1  0.99976400  0.24861600  0.43348500  1
  O  O36  1  0.00797900  0.20416700  0.25592300  1
  O  O37  1  0.08366500  0.25625700  0.66361500  1
  O  O38  1  0.33773800  0.48230800  0.82443300  1
  O  O39  1  0.37986200  0.53286000  0.16841200  1
  O  O40  1  0.18443000  0.33985600  0.82555300  1
  O  O41  1  0.32337100  0.34560400  0.97719800  1
  O  O42  1  0.32955700  0.33436400  0.47866600  1
  O  O43  1  0.32695200  0.18481100  0.33097900  1
  O  O44  1  0.52397200  0.38285300  0.67819800  1
  O  O45  1  0.48642700  0.32678600  0.33167400  1
  O  O46  1  0.25661700  0.08348500  0.16059700  1
  O  O47  1  0.20830000  0.00014500  0.74999800  1
  O  O48  1  0.22881000  0.98571400  0.93242900  1
  O  O49  1  0.38284500  0.09222300  0.67888300  1
  O  O50  1  0.48011400  0.18929500  0.82808800  1
  O  O51  1  0.53249700  0.08777200  0.16983300  1
  O  O52  1  0.66041700  0.25669900  0.16160500  1
  O  O53  1  0.78363100  0.22992300  0.93380800  1
  O  O54  1  0.79117700  0.20990500  0.75087100  1
  O  O55  1  0.66467600  0.08468000  0.65806100  1
  O  O56  1  0.75361800  0.99977600  0.43418300  1
  O  O57  1  0.78911600  0.00681300  0.25596500  1
loop_
_geom_bond_atom_site_label_1
_geom_bond_atom_site_label_2
_geom_bond_distance
_geom_bond_site_symmetry_2
Li0 O2 1.947224 1_555
Li0 O48 2.009601 1_554
Li0 O46 2.045607 1_565
Li0 O5 2.127628 1_555
Li1 O56 1.944598 1_555
Li1 O19 1.963001 1_555
Li1 O55 2.053862 1_565
Li1 O11 2.201531 1_555
Li2 O12 1.846599 1_556
Li2 O4 2.166116 1_555
Li2 O15 2.207008 1_555
Li2 O21 2.252451 1_555
Li3 O7 1.948570 1_555
Li3 O20 1.994752 1_554
Li3 O23 2.032497 1_655
Li3 O14 2.113172 1_555
Li4 O34 1.946421 1_555
Li4 O53 2.001569 1_554
Li4 O52 2.035993 1_555
Li4 O16 2.110625 1_555
Li5 O27 1.880999 1_555
Li5 O19 2.007594 1_455
Li5 O17 2.065233 1_455
Li5 O32 2.257301 1_555
Li6 O35 1.931220 1_555
Li6 O28 1.952163 1_555
Li6 O37 2.114078 1_655
Li6 O22 2.270000 1_555
Li7 O0 1.925606 1_555
Li7 O35 1.983650 1_455
Li7 O1 2.025375 1_545
Li7 O43 2.241735 1_555
Li8 O56 1.971934 1_545
Li8 O25 2.026286 1_555
Li8 O28 2.032422 1_555
Li8 O45 2.199307 1_555
Li9 O2 2.297459 1_556
Li9 O34 2.302985 1_466
Li9 O7 2.337442 1_456
Li9 O48 2.339310 1_555
Li9 O53 2.386048 1_465
Li9 O20 2.429953 1_455
O0 P13 1.479162 1_555
O1 P1 1.549535 1_555
O1 V4 1.985501 1_555
O2 P8 1.496888 1_555
O3 P0 1.562813 1_555
O3 V2 1.856550 1_555
O4 P0 1.544979 1_555
O4 V5 2.012763 1_565
O5 P3 1.568505 1_555
O5 V4 2.001381 1_555
O6 P2 1.545917 1_555
O6 V4 1.874880 1_555
O7 P15 1.495751 1_565
O8 P5 1.546682 1_555
O8 V5 1.869599 1_565
O9 P4 1.592983 1_555
O9 V2 1.866137 1_555
O10 P1 1.562952 1_555
O10 V3 1.846811 1_555
O11 P4 1.567618 1_555
O11 V5 1.994081 1_565
O12 P3 1.513346 1_555
O13 P4 1.486382 1_555
O14 P3 1.567644 1_555
O14 V0 1.994236 1_655
O15 P7 1.545764 1_555
O15 V2 2.049767 1_555
O16 P3 1.566189 1_555
O16 V3 2.011760 1_555
O17 P2 1.543647 1_555
O17 V0 2.015283 1_655
O18 P6 1.610741 1_655
O18 P5 1.618120 1_555
O19 P6 1.497277 1_655
O20 P5 1.487003 1_555
O21 P5 1.563213 1_555
O21 V1 1.966016 1_655
O22 P4 1.589561 1_555
O22 V1 1.947495 1_655
O23 P8 1.563183 1_555
O23 V0 1.941130 1_555
O24 P9 1.547510 1_555
O24 V0 1.874644 1_655
O25 P9 1.543014 1_555
O25 V3 2.016483 1_555
O26 P1 1.611415 1_555
O26 P8 1.614974 1_555
O27 P1 1.481063 1_555
O28 P14 1.501667 1_555
O29 P6 1.549363 1_555
O29 V2 1.878453 1_555
O30 P6 1.539570 1_555
O30 V1 1.880447 1_555
O31 P7 1.568168 1_555
O31 V1 1.847234 1_655
O32 P11 1.582578 1_555
O32 V0 1.937488 1_555
O33 P10 1.529254 1_555
O33 V0 1.932944 1_555
O34 P10 1.495904 1_655
O35 P9 1.503535 1_555
O36 P9 1.600190 1_455
O36 P10 1.627448 1_555
O37 P13 1.571350 1_555
O37 V1 1.926144 1_555
O38 P12 1.589348 1_555
O38 V2 1.846851 1_555
O39 P8 1.529647 1_555
O39 V3 1.931914 1_555
O40 P12 1.615306 1_555
O40 V1 1.805705 1_555
O41 P12 1.474387 1_555
O42 P11 1.494902 1_555
O43 P11 1.581503 1_555
O43 V4 1.949582 1_545
O44 P14 1.539421 1_555
O44 V2 1.875886 1_555
O45 P11 1.581209 1_555
O45 V3 1.955797 1_555
O46 P10 1.559109 1_555
O46 V4 1.945763 1_545
O47 P13 1.613991 1_555
O47 P0 1.615356 1_545
O48 P0 1.490277 1_555
O49 P13 1.543651 1_555
O49 V5 1.861418 1_555
O50 P12 1.537740 1_555
O50 V5 1.923257 1_555
O51 P15 1.528789 1_555
O51 V4 1.933063 1_545
O52 P15 1.558289 1_555
O52 V3 1.950260 1_555
O53 P7 1.490009 1_555
O54 P14 1.616545 1_555
O54 P7 1.617457 1_555
O55 P14 1.544410 1_555
O55 V5 1.990687 1_555
O56 P2 1.507036 1_555
O57 P2 1.599807 1_545
O57 P15 1.631127 1_555
