# generated using pymatgen
data_FeOF
_symmetry_space_group_name_H-M   'P 1'
_cell_length_a   3.09241000
_cell_length_b   9.48813800
_cell_length_c   9.52111433
_cell_angle_alpha   89.45209869
_cell_angle_beta   90.00000000
_cell_angle_gamma   90.00000000
_symmetry_Int_Tables_number   1
_chemical_formula_structural   FeOF
_chemical_formula_sum   'Fe8 O8 F8'
_cell_volume   279.34826885
_cell_formula_units_Z   8
loop_
 _symmetry_equiv_pos_site_id
 _symmetry_equiv_pos_as_xyz
  1  'x, y, z'
loop_
 _atom_site_type_symbol
 _atom_site_label
 _atom_site_symmetry_multiplicity
 _atom_site_fract_x
 _atom_site_fract_y
 _atom_site_fract_z
 _atom_site_occupancy
  Fe  Fe0  1  0.00000000  0.98044300  0.99734900  1
  Fe  Fe1  1  0.00000000  0.99966700  0.49980000  1
  Fe  Fe2  1  0.50000000  0.74384400  0.22296800  1
  Fe  Fe3  1  0.50000000  0.77549000  0.74054500  1
  Fe  Fe4  1  0.00000000  0.47935700  0.49575300  1
  Fe  Fe5  1  0.00000000  0.49950800  0.00196600  1
  Fe  Fe6  1  0.50000000  0.24086500  0.27406700  1
  Fe  Fe7  1  0.50000000  0.28016200  0.75743000  1
  O  O0  1  0.50000000  0.90538000  0.89985700  1
  O  O1  1  0.00000000  0.85013700  0.15625000  1
  O  O2  1  0.00000000  0.85496100  0.64242300  1
  O  O3  1  0.50000000  0.59214200  0.09696200  1
  O  O4  1  0.50000000  0.40156900  0.39936800  1
  O  O5  1  0.50000000  0.40456000  0.91064400  1
  O  O6  1  0.00000000  0.34938300  0.65497900  1
  O  O7  1  0.00000000  0.14353500  0.35554700  1
  F  F0  1  0.50000000  0.89984900  0.40294300  1
  F  F1  1  0.00000000  0.65319500  0.35161700  1
  F  F2  1  0.00000000  0.65735500  0.83522800  1
  F  F3  1  0.50000000  0.60062900  0.59310100  1
  F  F4  1  0.00000000  0.33568600  0.15949200  1
  F  F5  1  0.00000000  0.15393100  0.85188500  1
  F  F6  1  0.50000000  0.10051200  0.09880100  1
  F  F7  1  0.50000000  0.09784000  0.60102300  1
loop_
_geom_bond_atom_site_label_1
_geom_bond_atom_site_label_2
_geom_bond_distance
_geom_bond_site_symmetry_2
Fe0 O0 1.942228 1_455
Fe0 O0 1.942228 1_555
Fe0 O1 1.944666 1_556
Fe1 O2 1.921827 1_555
Fe1 O7 1.927133 1_565
Fe2 O3 1.882587 1_555
Fe2 O1 1.949136 1_555
Fe2 O1 1.949136 1_655
Fe3 O2 1.954131 1_555
Fe3 O2 1.954131 1_655
Fe3 O0 1.963508 1_555
Fe4 O6 1.945080 1_555
Fe4 O4 1.946947 1_455
Fe4 O4 1.946947 1_555
Fe5 O5 1.993320 1_454
Fe5 O5 1.993320 1_554
Fe5 O3 1.999131 1_455
Fe5 O3 1.999131 1_555
Fe6 O4 1.944996 1_555
Fe6 O7 1.957473 1_555
Fe6 O7 1.957473 1_655
Fe7 O5 1.885220 1_555
Fe7 O6 1.939421 1_555
Fe7 O6 1.939421 1_655
F0 Fe1 2.038346 1_655
F0 Fe1 2.038346 1_555
F0 Fe2 2.275036 1_555
F1 Fe4 2.135540 1_555
F1 Fe2 2.147252 1_555
F1 Fe2 2.147252 1_455
F2 Fe3 2.107245 1_555
F2 Fe3 2.107245 1_455
F2 Fe5 2.172053 1_556
F3 Fe4 2.143409 1_555
F3 Fe4 2.143409 1_655
F3 Fe3 2.183556 1_555
F4 Fe6 2.090793 1_455
F4 Fe6 2.090793 1_555
F4 Fe5 2.149636 1_555
F5 Fe0 2.141060 1_545
F5 Fe7 2.147883 1_455
F5 Fe7 2.147883 1_555
F6 Fe6 2.144889 1_555
F6 Fe0 2.154687 1_644
F6 Fe0 2.154687 1_544
F7 Fe1 2.050463 1_545
F7 Fe1 2.050463 1_645
F7 Fe7 2.293345 1_555
