# generated using pymatgen
data_Li4Mn3V3(NiO8)2
_symmetry_space_group_name_H-M   'P 1'
_cell_length_a   5.84911264
_cell_length_b   5.80346850
_cell_length_c   9.62357206
_cell_angle_alpha   90.00341181
_cell_angle_beta   89.86041543
_cell_angle_gamma   119.75528567
_symmetry_Int_Tables_number   1
_chemical_formula_structural   Li4Mn3V3(NiO8)2
_chemical_formula_sum   'Li4 Mn3 V3 Ni2 O16'
_cell_volume   283.60150862
_cell_formula_units_Z   1
loop_
 _symmetry_equiv_pos_site_id
 _symmetry_equiv_pos_as_xyz
  1  'x, y, z'
loop_
 _atom_site_type_symbol
 _atom_site_label
 _atom_site_symmetry_multiplicity
 _atom_site_fract_x
 _atom_site_fract_y
 _atom_site_fract_z
 _atom_site_occupancy
  Li  Li0  1  0.33661300  0.66835000  0.88758400  1
  Li  Li1  1  0.99274500  0.99631600  0.99815900  1
  Li  Li2  1  0.99606300  0.99807600  0.49830200  1
  Li  Li3  1  0.66815800  0.33406600  0.38958000  1
  Mn  Mn0  1  0.66065000  0.83035600  0.21534800  1
  Mn  Mn1  1  0.83037900  0.66187900  0.71500900  1
  Mn  Mn2  1  0.83043700  0.16857300  0.71499500  1
  V  V0  1  0.16675000  0.83046500  0.21461800  1
  V  V1  1  0.16677000  0.33627400  0.21461200  1
  V  V2  1  0.33563700  0.16782000  0.71478400  1
  Ni  Ni0  1  0.33490900  0.66748600  0.49177200  1
  Ni  Ni1  1  0.66907400  0.33453000  0.98823200  1
  O  O0  1  0.15865800  0.84335400  0.60774400  1
  O  O1  1  0.03999400  0.52004000  0.33016000  1
  O  O2  1  0.34217000  0.67109600  0.10585500  1
  O  O3  1  0.99069500  0.99536400  0.31365900  1
  O  O4  1  0.99241600  0.99620100  0.81317800  1
  O  O5  1  0.15855600  0.31536900  0.60770500  1
  O  O6  1  0.48306400  0.96459100  0.33087700  1
  O  O7  1  0.48298300  0.51844400  0.33085300  1
  O  O8  1  0.31272900  0.15633000  0.10709300  1
  O  O9  1  0.68672400  0.84338800  0.60667200  1
  O  O10  1  0.51971200  0.48294100  0.82976100  1
  O  O11  1  0.51987400  0.03682500  0.82980600  1
  O  O12  1  0.67390200  0.33697600  0.60731800  1
  O  O13  1  0.84232900  0.68223700  0.10740600  1
  O  O14  1  0.96557800  0.48281600  0.82934400  1
  O  O15  1  0.84243500  0.16013900  0.10741400  1
loop_
_geom_bond_atom_site_label_1
_geom_bond_atom_site_label_2
_geom_bond_distance
_geom_bond_site_symmetry_2
Li0 O11 1.937283 1_565
Li0 O10 1.937859 1_555
Li0 O14 1.967175 1_455
Li0 O2 2.100814 1_556
Li1 O4 1.780183 1_555
Li1 O13 1.898877 1_556
Li1 O15 1.899320 1_566
Li1 O8 1.936131 1_666
Li2 O3 1.777210 1_555
Li2 O9 1.883078 1_555
Li2 O5 1.915736 1_665
Li2 O0 1.916414 1_655
Li3 O6 1.946176 1_545
Li3 O7 1.947033 1_555
Li3 O1 1.971329 1_655
Li3 O12 2.095701 1_555
Mn0 O3 1.926834 1_555
Mn0 O6 1.928574 1_555
Mn0 O7 1.928642 1_555
Mn0 O2 1.932654 1_555
Mn0 O15 1.961472 1_565
Mn0 O13 1.961750 1_555
Mn1 O10 1.928005 1_555
Mn1 O4 1.932395 1_555
Mn1 O14 1.932879 1_555
Mn1 O12 1.938688 1_555
Mn1 O9 1.945658 1_555
Mn1 O0 1.960845 1_655
Mn2 O11 1.927910 1_555
Mn2 O14 1.932564 1_555
Mn2 O4 1.932963 1_545
Mn2 O12 1.939122 1_555
Mn2 O9 1.945315 1_545
Mn2 O5 1.960293 1_655
Ni0 O5 2.094530 1_555
Ni0 O0 2.094935 1_555
Ni0 O9 2.103611 1_555
Ni0 O6 2.152235 1_555
Ni0 O7 2.152533 1_555
Ni0 O1 2.162059 1_555
Ni1 O13 2.095196 1_556
Ni1 O15 2.095821 1_556
Ni1 O8 2.138042 1_556
Ni1 O11 2.140248 1_555
Ni1 O10 2.141123 1_555
Ni1 O14 2.142941 1_555
O0 V2 1.936141 1_565
O1 V0 1.924073 1_555
O1 V1 1.924723 1_555
O2 V1 1.984938 1_555
O2 V0 1.985038 1_555
O3 V1 1.963792 1_665
O3 V0 1.964173 1_655
O4 V2 1.981162 1_665
O5 V2 1.937423 1_555
O6 V0 1.965006 1_555
O7 V1 1.964438 1_555
O8 V0 1.941491 1_545
O8 V1 1.941796 1_555
O10 V2 1.944008 1_555
O11 V2 1.945141 1_555
O12 V2 2.002542 1_555
O13 V0 1.947946 1_655
O15 V1 1.947464 1_655
