# generated using pymatgen
data_Li4Fe3Sb5O16
_symmetry_space_group_name_H-M   'P 1'
_cell_length_a   6.30168077
_cell_length_b   6.30168077
_cell_length_c   10.39384833
_cell_angle_alpha   89.72865825
_cell_angle_beta   89.72865825
_cell_angle_gamma   59.30279651
_symmetry_Int_Tables_number   1
_chemical_formula_structural   Li4Fe3Sb5O16
_chemical_formula_sum   'Li4 Fe3 Sb5 O16'
_cell_volume   354.91074906
_cell_formula_units_Z   1
loop_
 _symmetry_equiv_pos_site_id
 _symmetry_equiv_pos_as_xyz
  1  'x, y, z'
loop_
 _atom_site_type_symbol
 _atom_site_label
 _atom_site_symmetry_multiplicity
 _atom_site_fract_x
 _atom_site_fract_y
 _atom_site_fract_z
 _atom_site_occupancy
  Li  Li0  1  0.66095000  0.66095000  0.10968800  1
  Li  Li1  1  0.99421400  0.99421400  0.01027800  1
  Li  Li2  1  0.99895100  0.99895100  0.49781800  1
  Li  Li3  1  0.32013900  0.32013900  0.59985900  1
  Fe  Fe0  1  0.83058000  0.83058000  0.78655300  1
  Fe  Fe1  1  0.66574500  0.17148600  0.28607500  1
  Fe  Fe2  1  0.17148600  0.66574500  0.28607500  1
  Sb  Sb0  1  0.83046600  0.33303000  0.78389900  1
  Sb  Sb1  1  0.68009100  0.68009100  0.49036200  1
  Sb  Sb2  1  0.33303000  0.83046600  0.78389900  1
  Sb  Sb3  1  0.17069000  0.17069000  0.28209500  1
  Sb  Sb4  1  0.34493000  0.34493000  0.02284600  1
  O  O0  1  0.85523800  0.31319400  0.39211200  1
  O  O1  1  0.50504500  0.50504500  0.68077200  1
  O  O2  1  0.65677300  0.65677300  0.89301700  1
  O  O3  1  0.00413000  0.00413000  0.67919600  1
  O  O4  1  0.00828100  0.00828100  0.18928700  1
  O  O5  1  0.31319400  0.85523800  0.39211200  1
  O  O6  1  0.96795400  0.50278600  0.67814600  1
  O  O7  1  0.50278600  0.96795400  0.67814600  1
  O  O8  1  0.14665600  0.14665600  0.89162900  1
  O  O9  1  0.84760900  0.84760900  0.39927800  1
  O  O10  1  0.48102100  0.03170800  0.16801900  1
  O  O11  1  0.03170800  0.48102100  0.16801900  1
  O  O12  1  0.32397500  0.32397500  0.39139800  1
  O  O13  1  0.70418000  0.15691800  0.89395800  1
  O  O14  1  0.48038500  0.48038500  0.16371600  1
  O  O15  1  0.15691800  0.70418000  0.89395800  1
loop_
_geom_bond_atom_site_label_1
_geom_bond_atom_site_label_2
_geom_bond_distance
_geom_bond_site_symmetry_2
Li0 O14 2.052957 1_555
Li0 O10 2.100975 1_565
Li0 O11 2.100975 1_655
Li0 O2 2.252759 1_554
Li1 O4 1.867798 1_665
Li1 O13 1.987294 1_564
Li1 O15 1.987294 1_654
Li1 O8 2.070329 1_664
Li2 O3 1.886378 1_665
Li2 O9 1.953278 1_555
Li2 O5 2.026447 1_655
Li2 O0 2.026447 1_565
Li3 O6 2.072703 1_455
Li3 O7 2.072703 1_545
Li3 O12 2.166890 1_555
Li3 O1 2.197170 1_555
Fe0 O15 2.109662 1_655
Fe0 O13 2.109662 1_565
Fe0 O6 2.114942 1_555
Fe0 O7 2.114942 1_555
Fe0 O2 2.196730 1_555
Fe0 O3 2.198951 1_665
Fe1 O14 2.107161 1_555
Fe1 O4 2.109914 1_655
Fe1 O9 2.113116 1_545
Fe1 O0 2.132747 1_555
Fe1 O12 2.152881 1_555
Fe1 O10 2.169622 1_555
Fe2 O14 2.107161 1_555
Fe2 O4 2.109914 1_565
Fe2 O9 2.113116 1_455
Fe2 O5 2.132747 1_555
Fe2 O12 2.152881 1_555
Fe2 O11 2.169622 1_555
O0 Sb3 2.056998 1_655
O0 Sb1 2.238954 1_555
O1 Sb2 2.066285 1_555
O1 Sb0 2.066285 1_555
O1 Sb1 2.747979 1_555
O2 Sb0 2.092057 1_555
O2 Sb2 2.092057 1_555
O3 Sb0 2.090925 1_455
O3 Sb2 2.090925 1_545
O4 Sb3 2.028192 1_555
O5 Sb3 2.056998 1_565
O5 Sb1 2.238954 1_555
O6 Sb0 2.007327 1_555
O6 Sb1 2.508398 1_555
O7 Sb2 2.007327 1_555
O7 Sb1 2.508398 1_555
O8 Sb2 2.054922 1_545
O8 Sb0 2.054922 1_455
O8 Sb4 2.570720 1_556
O9 Sb1 2.060072 1_555
O10 Sb3 2.058266 1_555
O10 Sb4 2.272445 1_555
O11 Sb3 2.058266 1_555
O11 Sb4 2.272445 1_555
O12 Sb3 2.032303 1_555
O13 Sb0 2.013621 1_555
O13 Sb4 2.360354 1_556
O14 Sb4 2.090137 1_555
O15 Sb2 2.013621 1_555
O15 Sb4 2.360354 1_556
