# generated using pymatgen
data_VCo3(PO4)4
_symmetry_space_group_name_H-M   'P 1'
_cell_length_a   5.91284700
_cell_length_b   4.86060600
_cell_length_c   9.86322465
_cell_angle_alpha   88.59279500
_cell_angle_beta   90.00000000
_cell_angle_gamma   90.00000000
_symmetry_Int_Tables_number   1
_chemical_formula_structural   VCo3(PO4)4
_chemical_formula_sum   'V1 Co3 P4 O16'
_cell_volume   283.38377831
_cell_formula_units_Z   1
loop_
 _symmetry_equiv_pos_site_id
 _symmetry_equiv_pos_as_xyz
  1  'x, y, z'
loop_
 _atom_site_type_symbol
 _atom_site_label
 _atom_site_symmetry_multiplicity
 _atom_site_fract_x
 _atom_site_fract_y
 _atom_site_fract_z
 _atom_site_occupancy
  V  V0  1  0.50000000  0.97658100  0.72767000  1
  Co  Co0  1  0.00000000  0.03086600  0.27629600  1
  Co  Co1  1  0.00000000  0.46644000  0.76899400  1
  Co  Co2  1  0.50000000  0.55362800  0.22595500  1
  P  P0  1  0.50000000  0.09222200  0.40244700  1
  P  P1  1  0.50000000  0.39245300  0.90281400  1
  P  P2  1  0.00000000  0.58430700  0.09834700  1
  P  P3  1  0.00000000  0.92746300  0.59551400  1
  O  O0  1  0.50000000  0.15128000  0.55989400  1
  O  O1  1  0.29680500  0.24578900  0.33475300  1
  O  O2  1  0.70319500  0.24578900  0.33475300  1
  O  O3  1  0.00000000  0.23635300  0.60785700  1
  O  O4  1  0.00000000  0.27080500  0.12715300  1
  O  O5  1  0.29964400  0.24128900  0.82879400  1
  O  O6  1  0.70035600  0.24128900  0.82879400  1
  O  O7  1  0.50000000  0.34371200  0.05469200  1
  O  O8  1  0.00000000  0.64952400  0.94811700  1
  O  O9  1  0.79373900  0.72625900  0.17259100  1
  O  O10  1  0.20626100  0.72625900  0.17259100  1
  O  O11  1  0.50000000  0.70466300  0.86660900  1
  O  O12  1  0.50000000  0.78065400  0.38824000  1
  O  O13  1  0.79277700  0.78054400  0.66716900  1
  O  O14  1  0.20722300  0.78054400  0.66716900  1
  O  O15  1  0.00000000  0.85128300  0.44278600  1
loop_
_geom_bond_atom_site_label_1
_geom_bond_atom_site_label_2
_geom_bond_distance
_geom_bond_site_symmetry_2
Co0 O15 1.840681 1_545
Co0 O4 1.854671 1_555
Co0 O2 2.129136 1_455
Co0 O1 2.129136 1_555
Co0 O10 2.190921 1_545
Co0 O9 2.190921 1_445
Co1 O3 1.965708 1_555
Co1 O8 1.997618 1_555
Co1 O5 2.157064 1_555
Co1 O6 2.157064 1_455
Co1 O13 2.183021 1_455
Co1 O14 2.183021 1_555
Co2 O12 1.966347 1_555
Co2 O10 1.993993 1_555
Co2 O9 1.993993 1_555
Co2 O7 1.994773 1_555
Co2 O2 2.180608 1_555
Co2 O1 2.180608 1_555
O0 P0 1.586160 1_555
O0 V0 1.841312 1_545
O1 P0 1.556273 1_555
O2 P0 1.556273 1_555
O3 P3 1.509297 1_545
O4 P2 1.543197 1_555
O5 P1 1.581982 1_555
O5 V0 2.028979 1_545
O6 P1 1.581982 1_555
O6 V0 2.028979 1_545
O7 P1 1.510867 1_554
O8 P2 1.507649 1_556
O9 P2 1.588874 1_655
O10 P2 1.588874 1_555
O11 P1 1.550419 1_555
O11 V0 1.880387 1_555
O12 P0 1.524301 1_565
O13 P3 1.576697 1_655
O13 V0 2.070948 1_555
O14 P3 1.576697 1_555
O14 V0 2.070948 1_555
O15 P3 1.560037 1_555
