# generated using pymatgen
data_B5H12C2NO10
_symmetry_space_group_name_H-M   'P 1'
_cell_length_a   8.93216055
_cell_length_b   8.93216055
_cell_length_c   17.36892769
_cell_angle_alpha   73.15340664
_cell_angle_beta   73.15340664
_cell_angle_gamma   81.70493333
_symmetry_Int_Tables_number   1
_chemical_formula_structural   B5H12C2NO10
_chemical_formula_sum   'B20 H48 C8 N4 O40'
_cell_volume   1266.61269737
_cell_formula_units_Z   4
loop_
 _symmetry_equiv_pos_site_id
 _symmetry_equiv_pos_as_xyz
  1  'x, y, z'
loop_
 _atom_site_type_symbol
 _atom_site_label
 _atom_site_symmetry_multiplicity
 _atom_site_fract_x
 _atom_site_fract_y
 _atom_site_fract_z
 _atom_site_occupancy
  B  B0  1  0.09003700  0.27304100  0.81540400  1
  B  B1  1  0.72695900  0.90996300  0.68459600  1
  B  B2  1  0.90996300  0.72695900  0.18459600  1
  B  B3  1  0.27304100  0.09003700  0.31540400  1
  B  B4  1  0.94527900  0.19940000  0.96637500  1
  B  B5  1  0.80060000  0.05472100  0.53362500  1
  B  B6  1  0.05472100  0.80060000  0.03362500  1
  B  B7  1  0.19940000  0.94527900  0.46637500  1
  B  B8  1  0.88060600  0.08293300  0.87284300  1
  B  B9  1  0.91706700  0.11939400  0.62715700  1
  B  B10  1  0.11939400  0.91706700  0.12715700  1
  B  B11  1  0.08293300  0.88060600  0.37284300  1
  B  B12  1  0.13727000  0.52517800  0.70372600  1
  B  B13  1  0.47482200  0.86273000  0.79627400  1
  B  B14  1  0.86273000  0.47482200  0.29627400  1
  B  B15  1  0.52517800  0.13727000  0.20372600  1
  B  B16  1  0.35235800  0.33189700  0.71412800  1
  B  B17  1  0.66810300  0.64764200  0.78587200  1
  B  B18  1  0.64764200  0.66810300  0.28587200  1
  B  B19  1  0.33189700  0.35235800  0.21412800  1
  H  H0  1  0.82986500  0.17316300  0.08572200  1
  H  H1  1  0.82683700  0.17013500  0.41427800  1
  H  H2  1  0.17013500  0.82683700  0.91427800  1
  H  H3  1  0.17316300  0.82986500  0.58572200  1
  H  H4  1  0.81189400  0.98001800  0.80372200  1
  H  H5  1  0.01998200  0.18810600  0.69627800  1
  H  H6  1  0.18810600  0.01998200  0.19627800  1
  H  H7  1  0.98001800  0.81189400  0.30372200  1
  H  H8  1  0.97098800  0.69501300  0.68349200  1
  H  H9  1  0.30498700  0.02901200  0.81650800  1
  H  H10  1  0.02901200  0.30498700  0.31650800  1
  H  H11  1  0.69501300  0.97098800  0.18349200  1
  H  H12  1  0.53352000  0.17709200  0.70380000  1
  H  H13  1  0.82290800  0.46648000  0.79620000  1
  H  H14  1  0.46648000  0.82290800  0.29620000  1
  H  H15  1  0.17709200  0.53352000  0.20380000  1
  H  H16  1  0.73702600  0.78163800  0.54886700  1
  H  H17  1  0.21836200  0.26297400  0.95113300  1
  H  H18  1  0.26297400  0.21836200  0.45113300  1
  H  H19  1  0.78163800  0.73702600  0.04886700  1
  H  H20  1  0.81767600  0.73914900  0.45680000  1
  H  H21  1  0.26085100  0.18232400  0.04320000  1
  H  H22  1  0.18232400  0.26085100  0.54320000  1
  H  H23  1  0.73914900  0.81767600  0.95680000  1
  H  H24  1  0.89768900  0.54386600  0.56949400  1
  H  H25  1  0.45613400  0.10231100  0.93050600  1
  H  H26  1  0.10231100  0.45613400  0.43050600  1
  H  H27  1  0.54386600  0.89768900  0.06949400  1
  H  H28  1  0.79574400  0.46270800  0.51756700  1
  H  H29  1  0.53729200  0.20425600  0.98243300  1
  H  H30  1  0.20425600  0.53729200  0.48243300  1
  H  H31  1  0.46270800  0.79574400  0.01756700  1
  H  H32  1  0.69630800  0.50008700  0.61589900  1
  H  H33  1  0.49991300  0.30369200  0.88410100  1
  H  H34  1  0.30369200  0.49991300  0.38410100  1
  H  H35  1  0.50008700  0.69630800  0.11589900  1
  H  H36  1  0.55018400  0.84151300  0.46962900  1
  H  H37  1  0.15848700  0.44981600  0.03037100  1
  H  H38  1  0.44981600  0.15848700  0.53037100  1
  H  H39  1  0.84151300  0.55018400  0.96962900  1
  H  H40  1  0.48968100  0.68447000  0.56088000  1
  H  H41  1  0.31553000  0.51031900  0.93912000  1
  H  H42  1  0.51031900  0.31553000  0.43912000  1
  H  H43  1  0.68447000  0.48968100  0.06088000  1
  H  H44  1  0.57309700  0.64371900  0.46119100  1
  H  H45  1  0.35628100  0.42690300  0.03880900  1
  H  H46  1  0.42690300  0.35628100  0.53880900  1
  H  H47  1  0.64371900  0.57309700  0.96119100  1
  C  C0  1  0.78474400  0.54173300  0.55722100  1
  C  C1  1  0.45826700  0.21525600  0.94277900  1
  C  C2  1  0.21525600  0.45826700  0.44277900  1
  C  C3  1  0.54173300  0.78474400  0.05722100  1
  C  C4  1  0.57601900  0.71909500  0.50052800  1
  C  C5  1  0.28090500  0.42398100  0.99947200  1
  C  C6  1  0.42398100  0.28090500  0.49947200  1
  C  C7  1  0.71909500  0.57601900  0.00052800  1
  N  N0  1  0.73535000  0.70304900  0.51411300  1
  N  N1  1  0.29695100  0.26465000  0.98588700  1
  N  N2  1  0.26465000  0.29695100  0.48588700  1
  N  N3  1  0.70304900  0.73535000  0.01411300  1
  O  O0  1  0.06699800  0.27008700  0.90327300  1
  O  O1  1  0.72991300  0.93300200  0.59672700  1
  O  O2  1  0.93300200  0.72991300  0.09672700  1
  O  O3  1  0.27008700  0.06699800  0.40327300  1
  O  O4  1  0.92330000  0.22125900  0.04347700  1
  O  O5  1  0.77874100  0.07670000  0.45652300  1
  O  O6  1  0.07670000  0.77874100  0.95652300  1
  O  O7  1  0.22125900  0.92330000  0.54347700  1
  O  O8  1  0.84916700  0.10564200  0.95196700  1
  O  O9  1  0.89435800  0.15083300  0.54803300  1
  O  O10  1  0.15083300  0.89435800  0.04803300  1
  O  O11  1  0.10564200  0.84916700  0.45196700  1
  O  O12  1  0.78771100  0.98296900  0.86290700  1
  O  O13  1  0.01703100  0.21228900  0.63709300  1
  O  O14  1  0.21228900  0.01703100  0.13709300  1
  O  O15  1  0.98296900  0.78771100  0.36290700  1
  O  O16  1  0.99618900  0.15701500  0.80760200  1
  O  O17  1  0.84298500  0.00381100  0.69239800  1
  O  O18  1  0.00381100  0.84298500  0.19239800  1
  O  O19  1  0.15701500  0.99618900  0.30760200  1
  O  O20  1  0.03844600  0.42990900  0.76924300  1
  O  O21  1  0.57009100  0.96155400  0.73075700  1
  O  O22  1  0.96155400  0.57009100  0.23075700  1
  O  O23  1  0.42990900  0.03844600  0.26924300  1
  O  O24  1  0.08430700  0.66838200  0.66092500  1
  O  O25  1  0.33161800  0.91569300  0.83907500  1
  O  O26  1  0.91569300  0.33161800  0.33907500  1
  O  O27  1  0.66838200  0.08430700  0.16092500  1
  O  O28  1  0.29498500  0.48009900  0.67610200  1
  O  O29  1  0.51990100  0.70501500  0.82389800  1
  O  O30  1  0.70501500  0.51990100  0.32389800  1
  O  O31  1  0.48009900  0.29498500  0.17610200  1
  O  O32  1  0.50560700  0.28932800  0.68120600  1
  O  O33  1  0.71067200  0.49439300  0.81879400  1
  O  O34  1  0.49439300  0.71067200  0.31879400  1
  O  O35  1  0.28932800  0.50560700  0.18120600  1
  O  O36  1  0.25748000  0.23299400  0.78047200  1
  O  O37  1  0.76700600  0.74252000  0.71952800  1
  O  O38  1  0.74252000  0.76700600  0.21952800  1
  O  O39  1  0.23299400  0.25748000  0.28047200  1
loop_
_geom_bond_atom_site_label_1
_geom_bond_atom_site_label_2
_geom_bond_distance
_geom_bond_site_symmetry_2
B0 O0 1.472578 1_555
B0 O36 1.475952 1_555
B0 O16 1.480883 1_455
B0 O20 1.481605 1_555
B1 O1 1.472578 1_555
B1 O37 1.475952 1_555
B1 O17 1.480883 1_565
B1 O21 1.481605 1_555
B2 O2 1.472578 1_555
B2 O38 1.475952 1_555
B2 O18 1.480883 1_655
B2 O22 1.481605 1_555
B3 O3 1.472578 1_555
B3 O39 1.475952 1_555
B3 O19 1.480883 1_545
B3 O23 1.481605 1_555
B4 O4 1.363148 1_556
B4 O0 1.374126 1_655
B4 O8 1.398004 1_555
B5 O5 1.363148 1_555
B5 O1 1.374126 1_545
B5 O9 1.398004 1_555
B6 O6 1.363148 1_554
B6 O2 1.374126 1_455
B6 O10 1.398004 1_555
B7 O7 1.363148 1_555
B7 O3 1.374126 1_565
B7 O11 1.398004 1_555
B8 O16 1.368285 1_555
B8 O12 1.378994 1_545
B8 O8 1.389299 1_555
B9 O17 1.368285 1_555
B9 O13 1.378994 1_655
B9 O9 1.389299 1_555
B10 O18 1.368285 1_555
B10 O14 1.378994 1_565
B10 O10 1.389299 1_555
B11 O19 1.368285 1_555
B11 O15 1.378994 1_455
B11 O11 1.389299 1_555
B12 O20 1.368027 1_555
B12 O24 1.375020 1_555
B12 O28 1.390471 1_555
B13 O21 1.368027 1_555
B13 O25 1.375020 1_555
B13 O29 1.390471 1_555
B14 O22 1.368027 1_555
B14 O26 1.375020 1_555
B14 O30 1.390471 1_555
B15 O23 1.368027 1_555
B15 O27 1.375020 1_555
B15 O31 1.390471 1_555
B16 O32 1.366546 1_555
B16 O36 1.373471 1_555
B16 O28 1.394585 1_555
B17 O33 1.366546 1_555
B17 O37 1.373471 1_555
B17 O29 1.394585 1_555
B18 O34 1.366546 1_555
B18 O38 1.373471 1_555
B18 O30 1.394585 1_555
B19 O35 1.366546 1_555
B19 O39 1.373471 1_555
B19 O31 1.394585 1_555
H0 O4 0.992606 1_555
H1 O5 0.992606 1_555
H2 O6 0.992606 1_555
H3 O7 0.992606 1_555
H4 O12 0.994713 1_555
H5 O13 0.994713 1_555
H6 O14 0.994713 1_555
H7 O15 0.994713 1_555
H8 O24 0.994659 1_655
H9 O25 0.994659 1_545
H10 O26 0.994659 1_455
H11 O27 0.994659 1_565
H12 O32 0.988812 1_555
H13 O33 0.988812 1_555
H14 O34 0.988812 1_555
H15 O35 0.988812 1_555
H16 N0 1.054155 1_555
H17 N1 1.054155 1_555
H18 N2 1.054155 1_555
H19 N3 1.054155 1_555
H20 N0 1.045820 1_555
H21 N1 1.045820 1_554
H22 N2 1.045820 1_555
H23 N3 1.045820 1_556
C0 H24 1.093672 1_555
C0 H32 1.095206 1_555
C0 H28 1.097645 1_555
C0 N0 1.488009 1_555
C1 H25 1.093672 1_555
C1 H33 1.095206 1_555
C1 H29 1.097645 1_555
C1 N1 1.488009 1_555
C2 H26 1.093672 1_555
C2 H34 1.095206 1_555
C2 H30 1.097645 1_555
C2 N2 1.488009 1_555
C3 H27 1.093672 1_555
C3 H35 1.095206 1_555
C3 H31 1.097645 1_555
C3 N3 1.488009 1_555
C4 H36 1.093508 1_555
C4 H40 1.096153 1_555
C4 H44 1.096736 1_555
C4 N0 1.489233 1_555
C5 H37 1.093508 1_556
C5 H41 1.096153 1_555
C5 H45 1.096736 1_556
C5 N1 1.489233 1_555
C6 H38 1.093508 1_555
C6 H42 1.096153 1_555
C6 H46 1.096736 1_555
C6 N2 1.489233 1_555
C7 H39 1.093508 1_554
C7 H43 1.096153 1_555
C7 H47 1.096736 1_554
C7 N3 1.489233 1_555
