# generated using pymatgen
data_Fe7(SiO6)2
_symmetry_space_group_name_H-M   'P 1'
_cell_length_a   13.24289802
_cell_length_b   13.24289802
_cell_length_c   13.24289802
_cell_angle_alpha   154.19792736
_cell_angle_beta   154.19792736
_cell_angle_gamma   36.81198480
_symmetry_Int_Tables_number   1
_chemical_formula_structural   Fe7(SiO6)2
_chemical_formula_sum   'Fe14 Si4 O24'
_cell_volume   439.39532193
_cell_formula_units_Z   2
loop_
 _symmetry_equiv_pos_site_id
 _symmetry_equiv_pos_as_xyz
  1  'x, y, z'
loop_
 _atom_site_type_symbol
 _atom_site_label
 _atom_site_symmetry_multiplicity
 _atom_site_fract_x
 _atom_site_fract_y
 _atom_site_fract_z
 _atom_site_occupancy
  Fe  Fe0  1  0.87500000  0.12500000  0.75000000  1
  Fe  Fe1  1  0.37500000  0.12500000  0.25000000  1
  Fe  Fe2  1  0.20752100  0.95243300  0.74491300  1
  Fe  Fe3  1  0.20752100  0.46260800  0.25508700  1
  Fe  Fe4  1  0.75000000  0.25000000  0.50000000  1
  Fe  Fe5  1  0.04756700  0.79247900  0.25508700  1
  Fe  Fe6  1  0.53739200  0.79247900  0.74491300  1
  Fe  Fe7  1  0.87500000  0.62500000  0.75000000  1
  Fe  Fe8  1  0.87500000  0.12500000  0.25000000  1
  Fe  Fe9  1  0.21260800  0.45752100  0.75508700  1
  Fe  Fe10  1  0.70243300  0.45752100  0.24491300  1
  Fe  Fe11  1  0.00000000  0.00000000  0.00000000  1
  Fe  Fe12  1  0.54247900  0.29756700  0.75508700  1
  Fe  Fe13  1  0.54247900  0.78739200  0.24491300  1
  Si  Si0  1  0.08190100  0.58190100  0.50000000  1
  Si  Si1  1  0.66809900  0.66809900  0.00000000  1
  Si  Si2  1  0.33190100  0.33190100  0.00000000  1
  Si  Si3  1  0.41809900  0.91809900  0.50000000  1
  O  O0  1  0.12031500  0.84827800  0.72796300  1
  O  O1  1  0.12031500  0.39235200  0.27203700  1
  O  O2  1  0.62968500  0.40172200  0.77203700  1
  O  O3  1  0.62968500  0.85764800  0.22796300  1
  O  O4  1  0.47351700  0.70575800  0.76775900  1
  O  O5  1  0.93799900  0.70575800  0.23224100  1
  O  O6  1  0.43880100  0.20420100  0.23460000  1
  O  O7  1  0.96960100  0.20420100  0.76540000  1
  O  O8  1  0.79579900  0.03039900  0.23460000  1
  O  O9  1  0.79579900  0.56119900  0.76540000  1
  O  O10  1  0.29424200  0.06200100  0.76775900  1
  O  O11  1  0.29424200  0.52648300  0.23224100  1
  O  O12  1  0.59827800  0.37031500  0.22796300  1
  O  O13  1  0.14235200  0.37031500  0.77203700  1
  O  O14  1  0.60764800  0.87968500  0.72796300  1
  O  O15  1  0.15172200  0.87968500  0.27203700  1
  O  O16  1  0.45575800  0.18799900  0.73224100  1
  O  O17  1  0.45575800  0.72351700  0.26775900  1
  O  O18  1  0.95420100  0.21960100  0.26540000  1
  O  O19  1  0.95420100  0.68880100  0.73460000  1
  O  O20  1  0.31119900  0.04579900  0.26540000  1
  O  O21  1  0.78039900  0.04579900  0.73460000  1
  O  O22  1  0.27648300  0.54424200  0.73224100  1
  O  O23  1  0.81200100  0.54424200  0.26775900  1
loop_
_geom_bond_atom_site_label_1
_geom_bond_atom_site_label_2
_geom_bond_distance
_geom_bond_site_symmetry_2
Fe0 O7 1.992472 1_555
Fe0 O21 1.992472 1_555
Fe0 O2 2.187971 1_555
Fe0 O0 2.187971 1_645
Fe0 O3 2.187971 1_545
Fe0 O1 2.187971 1_656
Fe1 O6 1.992472 1_555
Fe1 O20 1.992472 1_555
Fe1 O0 2.187971 1_544
Fe1 O2 2.187971 1_555
Fe1 O1 2.187971 1_555
Fe1 O3 2.187971 1_545
Fe2 O6 2.051077 1_566
Fe2 O7 2.051081 1_465
Fe2 O4 2.146278 1_555
Fe2 O5 2.146283 1_455
Fe2 O10 2.183570 1_565
Fe2 O0 2.193840 1_555
Fe3 O7 2.051077 1_454
Fe3 O6 2.051077 1_555
Fe3 O4 2.146283 1_555
Fe3 O5 2.146283 1_455
Fe3 O11 2.183557 1_555
Fe3 O1 2.193853 1_555
Fe4 O7 1.946231 1_555
Fe4 O8 1.946231 1_555
Fe4 O6 1.946231 1_555
Fe4 O9 1.946231 1_555
Fe5 O9 2.051077 1_454
Fe5 O8 2.051081 1_465
Fe5 O11 2.146278 1_555
Fe5 O10 2.146283 1_565
Fe5 O5 2.183570 1_455
Fe5 O15 2.193840 1_555
Fe6 O8 2.051077 1_566
Fe6 O9 2.051077 1_555
Fe6 O10 2.146283 1_565
Fe6 O11 2.146283 1_555
Fe6 O4 2.183557 1_555
Fe6 O14 2.193853 1_555
Fe7 O9 1.992472 1_555
Fe7 O19 1.992472 1_555
Fe7 O12 2.187971 1_555
Fe7 O15 2.187971 1_656
Fe7 O13 2.187971 1_655
Fe7 O14 2.187971 1_555
Fe8 O18 1.992472 1_555
Fe8 O8 1.992472 1_555
Fe8 O15 2.187971 1_645
Fe8 O14 2.187971 1_544
Fe8 O12 2.187971 1_555
Fe8 O13 2.187971 1_655
Fe9 O18 2.051077 1_455
Fe9 O19 2.051077 1_455
Fe9 O16 2.146283 1_555
Fe9 O17 2.146283 1_556
Fe9 O22 2.183557 1_555
Fe9 O13 2.193853 1_555
Fe10 O19 2.051077 1_555
Fe10 O18 2.051081 1_555
Fe10 O17 2.146278 1_555
Fe10 O16 2.146283 1_554
Fe10 O23 2.183570 1_555
Fe10 O12 2.193840 1_555
Fe11 O21 1.946231 1_454
Fe11 O20 1.946231 1_555
Fe11 O19 1.946231 1_444
Fe11 O18 1.946231 1_455
Fe12 O20 2.051077 1_555
Fe12 O21 2.051081 1_555
Fe12 O22 2.146278 1_555
Fe12 O23 2.146283 1_556
Fe12 O16 2.183570 1_555
Fe12 O2 2.193840 1_555
Fe13 O20 2.051077 1_565
Fe13 O21 2.051077 1_565
Fe13 O23 2.146283 1_555
Fe13 O22 2.146283 1_554
Fe13 O17 2.183557 1_555
Fe13 O3 2.193853 1_555
O0 Si0 1.658062 1_555
O1 Si0 1.658062 1_555
O2 Si1 1.658062 1_556
O3 Si1 1.658062 1_555
O4 Si1 1.667855 1_556
O5 Si1 1.667855 1_555
O10 Si2 1.667855 1_556
O11 Si2 1.667855 1_555
O12 Si2 1.658062 1_555
O13 Si2 1.658062 1_556
O14 Si3 1.658062 1_555
O15 Si3 1.658062 1_555
O16 Si3 1.667855 1_545
O17 Si3 1.667855 1_555
O22 Si0 1.667855 1_555
O23 Si0 1.667855 1_655
