# generated using pymatgen
data_LiFe2(BO3)2
_symmetry_space_group_name_H-M   'P 1'
_cell_length_a   5.28148800
_cell_length_b   9.11018452
_cell_length_c   10.11292504
_cell_angle_alpha   89.38250307
_cell_angle_beta   89.16794353
_cell_angle_gamma   89.01671695
_symmetry_Int_Tables_number   1
_chemical_formula_structural   LiFe2(BO3)2
_chemical_formula_sum   'Li4 Fe8 B8 O24'
_cell_volume   486.43680144
_cell_formula_units_Z   4
loop_
 _symmetry_equiv_pos_site_id
 _symmetry_equiv_pos_as_xyz
  1  'x, y, z'
loop_
 _atom_site_type_symbol
 _atom_site_label
 _atom_site_symmetry_multiplicity
 _atom_site_fract_x
 _atom_site_fract_y
 _atom_site_fract_z
 _atom_site_occupancy
  Li  Li0  1  0.18337100  0.16217200  0.15861600  1
  Li  Li1  1  0.33330900  0.32477500  0.88624100  1
  Li  Li2  1  0.68470300  0.66759800  0.15100000  1
  Li  Li3  1  0.82393700  0.83551000  0.41075800  1
  Fe  Fe0  1  0.17015700  0.83333200  0.63729500  1
  Fe  Fe1  1  0.18014700  0.49629300  0.13043100  1
  Fe  Fe2  1  0.31606500  0.99731400  0.87865700  1
  Fe  Fe3  1  0.32532100  0.65794600  0.37875600  1
  Fe  Fe4  1  0.67135700  0.33894200  0.62853800  1
  Fe  Fe5  1  0.68828200  0.99774700  0.12047200  1
  Fe  Fe6  1  0.82773400  0.16489900  0.38093700  1
  Fe  Fe7  1  0.82794000  0.50425400  0.87875500  1
  B  B0  1  0.16532800  0.49969500  0.63518700  1
  B  B1  1  0.17675800  0.83111300  0.13452200  1
  B  B2  1  0.33582500  0.99061800  0.37277700  1
  B  B3  1  0.32561300  0.65941200  0.87434700  1
  B  B4  1  0.66395400  0.99938300  0.62595600  1
  B  B5  1  0.66984100  0.33166300  0.12086700  1
  B  B6  1  0.83318600  0.50534800  0.38184900  1
  B  B7  1  0.83116800  0.17341700  0.88086900  1
  O  O0  1  0.08550100  0.50627200  0.33974400  1
  O  O1  1  0.08869600  0.17559800  0.88624100  1
  O  O2  1  0.19711700  0.78318300  0.82869800  1
  O  O3  1  0.22237400  0.85866700  0.42477900  1
  O  O4  1  0.18591600  0.10923400  0.34955000  1
  O  O5  1  0.18446000  0.53696100  0.91562200  1
  O  O6  1  0.32334300  0.38339200  0.65549000  1
  O  O7  1  0.30134200  0.95572500  0.09169500  1
  O  O8  1  0.25082400  0.63012300  0.57636300  1
  O  O9  1  0.32200100  0.70617400  0.17729700  1
  O  O10  1  0.41078300  0.32520000  0.10631800  1
  O  O11  1  0.41324600  0.98423100  0.66614300  1
  O  O12  1  0.59316400  0.98594700  0.34464500  1
  O  O13  1  0.58295100  0.65405300  0.88231800  1
  O  O14  1  0.69762300  0.30608000  0.83935500  1
  O  O15  1  0.73009300  0.38054700  0.43656100  1
  O  O16  1  0.68869900  0.63255200  0.36337300  1
  O  O17  1  0.68477900  0.05689400  0.91703300  1
  O  O18  1  0.79628000  0.46293600  0.08426500  1
  O  O19  1  0.82137800  0.87867600  0.60980700  1
  O  O20  1  0.75242300  0.13810500  0.59302500  1
  O  O21  1  0.80898900  0.21244800  0.16687900  1
  O  O22  1  0.91872300  0.82237200  0.13884400  1
  O  O23  1  0.91119100  0.49647200  0.67761300  1
loop_
_geom_bond_atom_site_label_1
_geom_bond_atom_site_label_2
_geom_bond_distance
_geom_bond_site_symmetry_2
Li0 O4 1.985349 1_555
Li0 O10 1.988468 1_555
Li0 O21 2.022722 1_455
Li0 O7 2.087699 1_545
Li1 O1 1.891106 1_555
Li1 O14 1.979915 1_555
Li1 O5 2.096770 1_555
Li1 O10 2.268816 1_556
Li1 O6 2.389397 1_555
Li2 O22 1.892766 1_555
Li2 O9 1.956500 1_555
Li2 O18 2.063248 1_555
Li2 O16 2.168261 1_555
Li3 O12 1.938410 1_555
Li3 O19 2.054983 1_555
Li3 O16 2.057403 1_555
Li3 O3 2.125419 1_655
Fe0 O19 1.904581 1_455
Fe0 O11 1.924418 1_555
Fe0 O2 1.990586 1_555
Fe0 O8 1.994571 1_555
Fe0 O3 2.173129 1_555
Fe1 O10 1.976651 1_555
Fe1 O18 2.114786 1_455
Fe1 O9 2.126240 1_555
Fe1 O0 2.170414 1_555
Fe1 O5 2.199632 1_554
Fe2 O1 2.004747 1_565
Fe2 O17 2.073694 1_565
Fe2 O2 2.127901 1_555
Fe2 O7 2.183976 1_556
Fe2 O11 2.206314 1_555
Fe3 O16 1.933346 1_555
Fe3 O0 1.937933 1_555
Fe3 O3 1.957783 1_555
Fe3 O8 2.045059 1_555
Fe3 O9 2.079803 1_555
Fe4 O6 1.891803 1_555
Fe4 O20 1.908604 1_555
Fe4 O15 1.994944 1_555
Fe4 O23 2.001593 1_555
Fe4 O14 2.155830 1_555
Fe5 O22 2.000463 1_555
Fe5 O7 2.110487 1_555
Fe5 O17 2.121392 1_564
Fe5 O21 2.126911 1_565
Fe5 O12 2.316666 1_555
Fe6 O4 1.972228 1_655
Fe6 O15 2.103002 1_555
Fe6 O12 2.103040 1_545
Fe6 O20 2.187546 1_555
Fe6 O21 2.206386 1_555
Fe7 O13 1.864669 1_555
Fe7 O5 1.953293 1_655
Fe7 O14 1.989489 1_555
Fe7 O23 2.076564 1_555
Fe7 O18 2.112869 1_556
B0 O6 1.353221 1_555
B0 O8 1.401796 1_555
B0 O23 1.403874 1_455
B1 O22 1.366535 1_455
B1 O7 1.384218 1_555
B1 O9 1.428343 1_555
B2 O4 1.349193 1_565
B2 O12 1.384571 1_555
B2 O3 1.443113 1_555
B3 O13 1.362692 1_555
B3 O2 1.384459 1_555
B3 O5 1.408518 1_555
B4 O19 1.376865 1_555
B4 O11 1.388138 1_555
B4 O20 1.390342 1_565
B5 O10 1.380549 1_555
B5 O21 1.381233 1_555
B5 O18 1.422627 1_555
B6 O15 1.376306 1_555
B6 O16 1.388994 1_555
B6 O0 1.393208 1_655
B7 O1 1.362498 1_655
B7 O17 1.367474 1_555
B7 O14 1.450107 1_555
