# generated using pymatgen
data_CsSmHgSe3
_symmetry_space_group_name_H-M   'P 1'
_cell_length_a   8.49011422
_cell_length_b   8.49011422
_cell_length_c   11.31299200
_cell_angle_alpha   90.00000000
_cell_angle_beta   90.00000000
_cell_angle_gamma   150.16966029
_symmetry_Int_Tables_number   1
_chemical_formula_structural   CsSmHgSe3
_chemical_formula_sum   'Cs2 Sm2 Hg2 Se6'
_cell_volume   405.63879677
_cell_formula_units_Z   2
loop_
 _symmetry_equiv_pos_site_id
 _symmetry_equiv_pos_as_xyz
  1  'x, y, z'
loop_
 _atom_site_type_symbol
 _atom_site_label
 _atom_site_symmetry_multiplicity
 _atom_site_fract_x
 _atom_site_fract_y
 _atom_site_fract_z
 _atom_site_occupancy
  Cs  Cs0  1  0.74470300  0.25529700  0.25000000  1
  Cs  Cs1  1  0.25529700  0.74470300  0.75000000  1
  Sm  Sm0  1  0.00000000  0.00000000  0.50000000  1
  Sm  Sm1  1  0.00000000  0.00000000  0.00000000  1
  Hg  Hg0  1  0.54333000  0.45667000  0.75000000  1
  Hg  Hg1  1  0.45667000  0.54333000  0.25000000  1
  Se  Se0  1  0.06149000  0.93851000  0.25000000  1
  Se  Se1  1  0.93851000  0.06149000  0.75000000  1
  Se  Se2  1  0.61971800  0.38028200  0.54481200  1
  Se  Se3  1  0.61971800  0.38028200  0.95518800  1
  Se  Se4  1  0.38028200  0.61971800  0.04481200  1
  Se  Se5  1  0.38028200  0.61971800  0.45518800  1
loop_
_geom_bond_atom_site_label_1
_geom_bond_atom_site_label_2
_geom_bond_distance
_geom_bond_site_symmetry_2
Cs0 Se0 3.716516 1_655
Cs0 Se0 3.716516 1_545
Cs0 Se4 3.887490 1_655
Cs0 Se5 3.887490 1_545
Cs0 Se5 3.887490 1_655
Cs0 Se4 3.887490 1_545
Cs0 Se2 3.915259 1_555
Cs0 Se3 3.915259 1_554
Cs1 Se1 3.716516 1_565
Cs1 Se1 3.716516 1_455
Cs1 Se3 3.887490 1_455
Cs1 Se3 3.887490 1_565
Cs1 Se2 3.887490 1_565
Cs1 Se2 3.887490 1_455
Cs1 Se5 3.915259 1_555
Cs1 Se4 3.915259 1_556
Hg0 Se3 2.638060 1_555
Hg0 Se2 2.638060 1_555
Hg0 Se1 2.780902 1_455
Hg0 Se1 2.780902 1_565
Hg1 Se5 2.638060 1_555
Hg1 Se4 2.638060 1_555
Hg1 Se0 2.780902 1_545
Hg1 Se0 2.780902 1_655
Se0 Sm0 3.002822 1_565
Se0 Sm1 3.002822 1_565
Se1 Sm0 3.002822 1_655
Se1 Sm1 3.002822 1_656
Se2 Sm0 2.981783 1_665
Se2 Sm0 2.981783 1_555
Se3 Sm1 2.981783 1_666
Se3 Sm1 2.981783 1_556
Se4 Sm1 2.981783 1_665
Se4 Sm1 2.981783 1_555
Se5 Sm0 2.981783 1_555
Se5 Sm0 2.981783 1_665
