# generated using pymatgen
data_Fe4O3F5
_symmetry_space_group_name_H-M   'P 1'
_cell_length_a   4.78850109
_cell_length_b   4.78850109
_cell_length_c   12.37619800
_cell_angle_alpha   90.00000000
_cell_angle_beta   90.00000000
_cell_angle_gamma   94.17688936
_symmetry_Int_Tables_number   1
_chemical_formula_structural   Fe4O3F5
_chemical_formula_sum   'Fe8 O6 F10'
_cell_volume   283.02928995
_cell_formula_units_Z   2
loop_
 _symmetry_equiv_pos_site_id
 _symmetry_equiv_pos_as_xyz
  1  'x, y, z'
loop_
 _atom_site_type_symbol
 _atom_site_label
 _atom_site_symmetry_multiplicity
 _atom_site_fract_x
 _atom_site_fract_y
 _atom_site_fract_z
 _atom_site_occupancy
  Fe  Fe0  1  0.00000000  0.00000000  0.00000000  1
  Fe  Fe1  1  0.97364800  0.97364800  0.25000000  1
  Fe  Fe2  1  0.00000000  0.00000000  0.50000000  1
  Fe  Fe3  1  0.02635200  0.02635200  0.75000000  1
  Fe  Fe4  1  0.50952300  0.50952300  0.11902800  1
  Fe  Fe5  1  0.49047700  0.49047700  0.61902800  1
  Fe  Fe6  1  0.49047700  0.49047700  0.88097200  1
  Fe  Fe7  1  0.50952300  0.50952300  0.38097200  1
  O  O0  1  0.29818900  0.29818900  0.00258400  1
  O  O1  1  0.29818900  0.29818900  0.49741600  1
  O  O2  1  0.32873400  0.32873400  0.75000000  1
  O  O3  1  0.70181100  0.70181100  0.99741600  1
  O  O4  1  0.67126600  0.67126600  0.25000000  1
  O  O5  1  0.70181100  0.70181100  0.50258400  1
  F  F0  1  0.79581400  0.19713600  0.11962100  1
  F  F1  1  0.80286400  0.20418600  0.88037900  1
  F  F2  1  0.79581400  0.19713600  0.38037900  1
  F  F3  1  0.80286400  0.20418600  0.61962100  1
  F  F4  1  0.28755100  0.28755100  0.25000000  1
  F  F5  1  0.71244900  0.71244900  0.75000000  1
  F  F6  1  0.19713600  0.79581400  0.38037900  1
  F  F7  1  0.20418600  0.80286400  0.61962100  1
  F  F8  1  0.19713600  0.79581400  0.11962100  1
  F  F9  1  0.20418600  0.80286400  0.88037900  1
loop_
_geom_bond_atom_site_label_1
_geom_bond_atom_site_label_2
_geom_bond_distance
_geom_bond_site_symmetry_2
Fe0 O0 1.944658 1_555
Fe0 O3 1.944658 1_444
Fe1 O4 1.971736 1_555
Fe2 O5 1.944658 1_445
Fe2 O1 1.944658 1_555
Fe3 O2 1.971736 1_555
Fe4 O4 1.933848 1_555
Fe4 O3 1.958940 1_554
Fe4 O0 1.993957 1_555
Fe5 O2 1.933848 1_555
Fe5 O1 1.958940 1_555
Fe5 O5 1.993957 1_555
Fe6 O2 1.933848 1_555
Fe6 O0 1.958940 1_556
Fe6 O3 1.993957 1_555
Fe7 O4 1.933848 1_555
Fe7 O5 1.958940 1_555
Fe7 O1 1.993957 1_555
F0 Fe0 2.042863 1_655
F0 Fe4 2.101375 1_555
F0 Fe1 2.146361 1_545
F1 Fe0 2.042863 1_656
F1 Fe6 2.101375 1_555
F1 Fe3 2.146361 1_655
F2 Fe2 2.042863 1_655
F2 Fe7 2.101375 1_555
F2 Fe1 2.146361 1_545
F3 Fe2 2.042863 1_655
F3 Fe5 2.101375 1_555
F3 Fe3 2.146361 1_655
F4 Fe1 2.046861 1_445
F4 Fe7 2.173114 1_555
F4 Fe4 2.173114 1_555
F5 Fe3 2.046861 1_665
F5 Fe6 2.173114 1_555
F5 Fe5 2.173114 1_555
F6 Fe2 2.042863 1_565
F6 Fe7 2.101375 1_555
F6 Fe1 2.146361 1_455
F7 Fe2 2.042863 1_565
F7 Fe5 2.101375 1_555
F7 Fe3 2.146361 1_565
F8 Fe0 2.042863 1_565
F8 Fe4 2.101375 1_555
F8 Fe1 2.146361 1_455
F9 Fe0 2.042863 1_566
F9 Fe6 2.101375 1_555
F9 Fe3 2.146361 1_565
