# generated using pymatgen
data_LiFeSiO4
_symmetry_space_group_name_H-M   'P 1'
_cell_length_a   10.87547197
_cell_length_b   10.87547197
_cell_length_c   11.94474700
_cell_angle_alpha   90.00000000
_cell_angle_beta   90.00000000
_cell_angle_gamma   119.99999984
_symmetry_Int_Tables_number   1
_chemical_formula_structural   LiFeSiO4
_chemical_formula_sum   'Li12 Fe12 Si12 O48'
_cell_volume   1223.49955281
_cell_formula_units_Z   12
loop_
 _symmetry_equiv_pos_site_id
 _symmetry_equiv_pos_as_xyz
  1  'x, y, z'
loop_
 _atom_site_type_symbol
 _atom_site_label
 _atom_site_symmetry_multiplicity
 _atom_site_fract_x
 _atom_site_fract_y
 _atom_site_fract_z
 _atom_site_occupancy
  Li  Li0  1  0.00000000  0.50000000  0.00812500  1
  Li  Li1  1  0.00000000  0.50000000  0.65854200  1
  Li  Li2  1  0.00000000  0.50000000  0.33333300  1
  Li  Li3  1  0.00000000  0.00000000  0.16666700  1
  Li  Li4  1  0.00000000  0.00000000  0.50000000  1
  Li  Li5  1  0.00000000  0.00000000  0.83333300  1
  Li  Li6  1  0.50000000  0.50000000  0.34145800  1
  Li  Li7  1  0.50000000  0.50000000  0.66666700  1
  Li  Li8  1  0.50000000  0.50000000  0.99187500  1
  Li  Li9  1  0.50000000  0.00000000  0.32520800  1
  Li  Li10  1  0.50000000  0.00000000  0.00000000  1
  Li  Li11  1  0.50000000  0.00000000  0.67479200  1
  Fe  Fe0  1  0.00000000  0.74982200  0.83333300  1
  Fe  Fe1  1  0.00000000  0.25017800  0.83333300  1
  Fe  Fe2  1  0.25138500  0.74861500  0.16666700  1
  Fe  Fe3  1  0.25138500  0.50277000  0.50000000  1
  Fe  Fe4  1  0.49723000  0.74861500  0.83333300  1
  Fe  Fe5  1  0.25017800  0.25017800  0.16666700  1
  Fe  Fe6  1  0.25017800  0.00000000  0.50000000  1
  Fe  Fe7  1  0.74982200  0.74982200  0.16666700  1
  Fe  Fe8  1  0.50277000  0.25138500  0.83333300  1
  Fe  Fe9  1  0.74861500  0.49723000  0.50000000  1
  Fe  Fe10  1  0.74861500  0.25138500  0.16666700  1
  Fe  Fe11  1  0.74982200  0.00000000  0.50000000  1
  Si  Si0  1  0.00000000  0.75334300  0.33333300  1
  Si  Si1  1  0.24732200  0.75267800  0.66666700  1
  Si  Si2  1  0.00000000  0.24665700  0.33333300  1
  Si  Si3  1  0.24732200  0.49464400  0.00000000  1
  Si  Si4  1  0.24665700  0.24665700  0.66666700  1
  Si  Si5  1  0.50535600  0.75267800  0.33333300  1
  Si  Si6  1  0.24665700  0.00000000  0.00000000  1
  Si  Si7  1  0.49464400  0.24732200  0.33333300  1
  Si  Si8  1  0.75334300  0.75334300  0.66666700  1
  Si  Si9  1  0.75267800  0.50535600  0.00000000  1
  Si  Si10  1  0.75267800  0.24732200  0.66666700  1
  Si  Si11  1  0.75334300  0.00000000  0.00000000  1
  O  O0  1  0.07782600  0.88440700  0.42384800  1
  O  O1  1  0.11559300  0.92217400  0.90948600  1
  O  O2  1  0.09706800  0.69486000  0.73483800  1
  O  O3  1  0.10404100  0.70691000  0.26839200  1
  O  O4  1  0.29309000  0.89595900  0.06494100  1
  O  O5  1  0.30514000  0.90293200  0.59849500  1
  O  O6  1  0.19916800  0.61452200  0.58512900  1
  O  O7  1  0.09706800  0.40220900  0.93182900  1
  O  O8  1  0.19916800  0.58464600  0.08153700  1
  O  O9  1  0.10404100  0.39713200  0.39827500  1
  O  O10  1  0.07782600  0.19341900  0.24281900  1
  O  O11  1  0.38547800  0.80083200  0.74820400  1
  O  O12  1  0.41535400  0.80083200  0.25179600  1
  O  O13  1  0.11559300  0.19341900  0.75718100  1
  O  O14  1  0.29309000  0.39713200  0.60172500  1
  O  O15  1  0.38547800  0.58464600  0.91846300  1
  O  O16  1  0.30514000  0.40220900  0.06817100  1
  O  O17  1  0.41535400  0.61452200  0.41487100  1
  O  O18  1  0.19341900  0.11559300  0.57615200  1
  O  O19  1  0.19341900  0.07782600  0.09051400  1
  O  O20  1  0.59779100  0.90293200  0.40150500  1
  O  O21  1  0.60286800  0.89595900  0.93505900  1
  O  O22  1  0.60286800  0.70691000  0.73160800  1
  O  O23  1  0.40220900  0.30514000  0.26516200  1
  O  O24  1  0.59779100  0.69486000  0.26516200  1
  O  O25  1  0.39713200  0.29309000  0.73160800  1
  O  O26  1  0.39713200  0.10404100  0.93505900  1
  O  O27  1  0.40220900  0.09706800  0.40150500  1
  O  O28  1  0.80658100  0.92217400  0.09051400  1
  O  O29  1  0.80658100  0.88440700  0.57615200  1
  O  O30  1  0.58464600  0.38547800  0.41487100  1
  O  O31  1  0.69486000  0.59779100  0.06817100  1
  O  O32  1  0.61452200  0.41535400  0.91846300  1
  O  O33  1  0.70691000  0.60286800  0.60172500  1
  O  O34  1  0.88440700  0.80658100  0.75718100  1
  O  O35  1  0.58464600  0.19916800  0.25179600  1
  O  O36  1  0.61452200  0.19916800  0.74820400  1
  O  O37  1  0.92217400  0.80658100  0.24281900  1
  O  O38  1  0.89595900  0.60286800  0.39827500  1
  O  O39  1  0.80083200  0.41535400  0.08153700  1
  O  O40  1  0.90293200  0.59779100  0.93182900  1
  O  O41  1  0.80083200  0.38547800  0.58512900  1
  O  O42  1  0.69486000  0.09706800  0.59849500  1
  O  O43  1  0.70691000  0.10404100  0.06494100  1
  O  O44  1  0.89595900  0.29309000  0.26839200  1
  O  O45  1  0.90293200  0.30514000  0.73483800  1
  O  O46  1  0.88440700  0.07782600  0.90948600  1
  O  O47  1  0.92217400  0.11559300  0.42384800  1
loop_
_geom_bond_atom_site_label_1
_geom_bond_atom_site_label_2
_geom_bond_distance
_geom_bond_site_symmetry_2
Li0 O7 2.049086 1_554
Li0 O40 2.049086 1_454
Li0 O39 2.077051 1_455
Li0 O8 2.077051 1_555
Li1 O45 2.049095 1_455
Li1 O2 2.049095 1_555
Li1 O41 2.077056 1_455
Li1 O6 2.077056 1_555
Li2 O9 2.097484 1_555
Li2 O38 2.097484 1_455
Li2 O44 2.097488 1_455
Li2 O3 2.097488 1_555
Li3 O10 2.046505 1_555
Li3 O37 2.046505 1_445
Li3 O28 2.046511 1_445
Li3 O19 2.046511 1_555
Li4 O0 2.046505 1_545
Li4 O47 2.046505 1_455
Li4 O29 2.046505 1_445
Li4 O18 2.046505 1_555
Li5 O34 2.046505 1_445
Li5 O13 2.046505 1_555
Li5 O46 2.046511 1_455
Li5 O1 2.046511 1_545
Li6 O23 2.049095 1_555
Li6 O24 2.049095 1_555
Li6 O30 2.077056 1_555
Li6 O17 2.077056 1_555
Li7 O25 2.097488 1_555
Li7 O22 2.097488 1_555
Li7 O14 2.097492 1_555
Li7 O33 2.097492 1_555
Li8 O16 2.049095 1_556
Li8 O31 2.049095 1_556
Li8 O32 2.077051 1_555
Li8 O15 2.077051 1_555
Li9 O27 2.049091 1_555
Li9 O20 2.049091 1_545
Li9 O12 2.077051 1_545
Li9 O35 2.077051 1_555
Li10 O21 2.097479 1_544
Li10 O26 2.097479 1_554
Li10 O4 2.097488 1_545
Li10 O43 2.097488 1_555
Li11 O5 2.049100 1_545
Li11 O42 2.049100 1_555
Li11 O11 2.077051 1_545
Li11 O36 2.077051 1_555
Fe0 O2 1.867315 1_555
Fe0 O40 1.867329 1_455
Fe0 O34 1.888071 1_455
Fe0 O1 1.888076 1_555
Fe1 O45 1.867315 1_455
Fe1 O7 1.867329 1_555
Fe1 O13 1.888071 1_555
Fe1 O46 1.888076 1_455
Fe2 O3 1.877001 1_555
Fe2 O4 1.877009 1_555
Fe2 O12 1.877162 1_555
Fe2 O8 1.877168 1_555
Fe3 O14 1.876993 1_555
Fe3 O9 1.876999 1_555
Fe3 O6 1.877162 1_555
Fe3 O17 1.877162 1_555
Fe4 O22 1.876993 1_555
Fe4 O21 1.877007 1_555
Fe4 O11 1.877162 1_555
Fe4 O15 1.877168 1_555
Fe5 O23 1.867323 1_555
Fe5 O16 1.867330 1_555
Fe5 O10 1.888071 1_555
Fe5 O19 1.888076 1_555
Fe6 O5 1.867315 1_545
Fe6 O27 1.867321 1_555
Fe6 O18 1.888071 1_555
Fe6 O0 1.888071 1_545
Fe7 O24 1.867323 1_555
Fe7 O31 1.867330 1_555
Fe7 O37 1.888071 1_555
Fe7 O28 1.888076 1_555
Fe8 O25 1.876993 1_555
Fe8 O26 1.877007 1_555
Fe8 O36 1.877162 1_555
Fe8 O32 1.877168 1_555
Fe9 O33 1.876993 1_555
Fe9 O38 1.876999 1_555
Fe9 O41 1.877162 1_555
Fe9 O30 1.877162 1_555
Fe10 O44 1.877001 1_555
Fe10 O43 1.877009 1_555
Fe10 O35 1.877162 1_555
Fe10 O39 1.877168 1_555
Fe11 O42 1.867315 1_555
Fe11 O20 1.867321 1_545
Fe11 O29 1.888071 1_545
Fe11 O47 1.888071 1_555
O0 Si0 1.646393 1_555
O1 Si6 1.646386 1_566
O2 Si1 1.643523 1_555
O3 Si0 1.645718 1_555
O4 Si6 1.645718 1_565
O5 Si1 1.643529 1_555
O6 Si1 1.641194 1_555
O7 Si3 1.643522 1_556
O8 Si3 1.641187 1_555
O9 Si2 1.645730 1_555
O10 Si2 1.646386 1_555
O11 Si1 1.641187 1_555
O12 Si5 1.641187 1_555
O13 Si4 1.646386 1_555
O14 Si4 1.645732 1_555
O15 Si3 1.641187 1_556
O16 Si3 1.643514 1_555
O17 Si5 1.641194 1_555
O18 Si4 1.646393 1_555
O19 Si6 1.646386 1_555
O20 Si5 1.643527 1_555
O21 Si11 1.645725 1_566
O22 Si8 1.645727 1_555
O23 Si7 1.643514 1_555
O24 Si5 1.643514 1_555
O25 Si4 1.645727 1_555
O26 Si6 1.645725 1_556
O27 Si7 1.643527 1_555
O28 Si11 1.646386 1_565
O29 Si8 1.646393 1_555
O30 Si7 1.641194 1_555
O31 Si9 1.643514 1_555
O32 Si9 1.641187 1_556
O33 Si8 1.645732 1_555
O34 Si8 1.646386 1_555
O35 Si7 1.641187 1_555
O36 Si10 1.641187 1_555
O37 Si0 1.646386 1_655
O38 Si0 1.645730 1_655
O39 Si9 1.641187 1_555
O40 Si9 1.643522 1_556
O41 Si10 1.641194 1_555
O42 Si10 1.643529 1_555
O43 Si11 1.645718 1_555
O44 Si2 1.645718 1_655
O45 Si10 1.643523 1_555
O46 Si11 1.646386 1_556
O47 Si2 1.646393 1_655
