# generated using pymatgen
data_MnOF
_symmetry_space_group_name_H-M   'P 1'
_cell_length_a   3.06374000
_cell_length_b   4.82366600
_cell_length_c   19.01583647
_cell_angle_alpha   84.90525571
_cell_angle_beta   90.00000000
_cell_angle_gamma   90.00000000
_symmetry_Int_Tables_number   1
_chemical_formula_structural   MnOF
_chemical_formula_sum   'Mn8 O8 F8'
_cell_volume   279.91448136
_cell_formula_units_Z   8
loop_
 _symmetry_equiv_pos_site_id
 _symmetry_equiv_pos_as_xyz
  1  'x, y, z'
loop_
 _atom_site_type_symbol
 _atom_site_label
 _atom_site_symmetry_multiplicity
 _atom_site_fract_x
 _atom_site_fract_y
 _atom_site_fract_z
 _atom_site_occupancy
  Mn  Mn0  1  0.00000000  0.00000000  0.00000000  1
  Mn  Mn1  1  0.00000000  0.94569100  0.25104100  1
  Mn  Mn2  1  0.00000000  0.00000000  0.50000000  1
  Mn  Mn3  1  0.00000000  0.05430900  0.74895900  1
  Mn  Mn4  1  0.50000000  0.40605000  0.12523000  1
  Mn  Mn5  1  0.50000000  0.47485300  0.37621600  1
  Mn  Mn6  1  0.50000000  0.52514700  0.62378400  1
  Mn  Mn7  1  0.50000000  0.59395000  0.87477000  1
  O  O0  1  0.50000000  0.84021000  0.95300000  1
  O  O1  1  0.00000000  0.70802800  0.57430700  1
  O  O2  1  0.00000000  0.66266300  0.32725700  1
  O  O3  1  0.00000000  0.75773300  0.82426300  1
  O  O4  1  0.00000000  0.24226700  0.17573700  1
  O  O5  1  0.00000000  0.29197200  0.42569300  1
  O  O6  1  0.00000000  0.33733700  0.67274300  1
  O  O7  1  0.50000000  0.15979000  0.04700000  1
  F  F0  1  0.50000000  0.75383500  0.20068400  1
  F  F1  1  0.50000000  0.80910100  0.45250100  1
  F  F2  1  0.50000000  0.85114400  0.70363500  1
  F  F3  1  0.00000000  0.63784700  0.07942300  1
  F  F4  1  0.00000000  0.36215300  0.92057700  1
  F  F5  1  0.50000000  0.14885600  0.29636500  1
  F  F6  1  0.50000000  0.19089900  0.54749900  1
  F  F7  1  0.50000000  0.24616500  0.79931600  1
loop_
_geom_bond_atom_site_label_1
_geom_bond_atom_site_label_2
_geom_bond_distance
_geom_bond_site_symmetry_2
Mn0 O7 1.965158 1_555
Mn0 O7 1.965158 1_455
Mn0 O0 1.965158 1_544
Mn0 O0 1.965158 1_444
Mn1 O2 1.900774 1_555
Mn1 O4 1.932167 1_565
Mn2 O1 1.904383 1_545
Mn2 O5 1.904383 1_555
Mn3 O6 1.900774 1_555
Mn3 O3 1.932167 1_545
Mn4 O4 1.938672 1_555
Mn4 O4 1.938672 1_655
Mn4 O7 1.984408 1_555
Mn5 O5 1.965352 1_555
Mn5 O5 1.965352 1_655
Mn5 O2 1.970862 1_655
Mn5 O2 1.970862 1_555
Mn6 O1 1.965352 1_555
Mn6 O1 1.965352 1_655
Mn6 O6 1.970862 1_555
Mn6 O6 1.970862 1_655
Mn7 O3 1.938672 1_555
Mn7 O3 1.938672 1_655
Mn7 O0 1.984408 1_555
F0 Mn1 2.068196 1_555
F0 Mn1 2.068196 1_655
F0 Mn4 2.302293 1_555
F1 Mn2 2.039144 1_565
F1 Mn2 2.039144 1_665
F1 Mn5 2.262568 1_555
F2 Mn3 2.049357 1_565
F2 Mn3 2.049357 1_665
F2 Mn6 2.280893 1_555
F3 Mn4 2.045132 1_455
F3 Mn4 2.045132 1_555
F3 Mn0 2.205467 1_565
F4 Mn7 2.045132 1_455
F4 Mn7 2.045132 1_555
F4 Mn0 2.205467 1_556
F5 Mn1 2.049357 1_545
F5 Mn1 2.049357 1_645
F5 Mn5 2.280893 1_555
F6 Mn2 2.039144 1_555
F6 Mn2 2.039144 1_655
F6 Mn6 2.262568 1_555
F7 Mn3 2.068196 1_655
F7 Mn3 2.068196 1_555
F7 Mn7 2.302293 1_555
