# generated using pymatgen
data_Tm2Sb2O7
_symmetry_space_group_name_H-M   'P 1'
_cell_length_a   7.53235600
_cell_length_b   7.53235600
_cell_length_c   7.53235600
_cell_angle_alpha   119.94901473
_cell_angle_beta   118.83791107
_cell_angle_gamma   91.05644752
_symmetry_Int_Tables_number   1
_chemical_formula_structural   Tm2Sb2O7
_chemical_formula_sum   'Tm4 Sb4 O14'
_cell_volume   304.86747358
_cell_formula_units_Z   2
loop_
 _symmetry_equiv_pos_site_id
 _symmetry_equiv_pos_as_xyz
  1  'x, y, z'
loop_
 _atom_site_type_symbol
 _atom_site_label
 _atom_site_symmetry_multiplicity
 _atom_site_fract_x
 _atom_site_fract_y
 _atom_site_fract_z
 _atom_site_occupancy
  Tm  Tm0  1  0.74182800  0.00000000  0.74182800  1
  Tm  Tm1  1  0.73851700  0.54132200  0.77983900  1
  Tm  Tm2  1  0.24182800  0.50000000  0.74182800  1
  Tm  Tm3  1  0.23851700  0.45867800  0.19719500  1
  Sb  Sb0  1  0.26480800  0.00000000  0.26480800  1
  Sb  Sb1  1  0.73330100  0.99316500  0.22646500  1
  Sb  Sb2  1  0.76480800  0.50000000  0.26480800  1
  Sb  Sb3  1  0.23330100  0.00683500  0.74013600  1
  O  O0  1  0.10267500  0.08541600  0.93377000  1
  O  O1  1  0.34835400  0.33109500  0.93377000  1
  O  O2  1  0.36465600  0.37050700  0.49889300  1
  O  O3  1  0.60582500  0.04652900  0.42244900  1
  O  O4  1  0.98312100  0.00251900  0.48564100  1
  O  O5  1  0.87592000  0.31662400  0.42244900  1
  O  O6  1  0.62838600  0.63423700  0.49889300  1
  O  O7  1  0.86465600  0.36576300  0.99414900  1
  O  O8  1  0.10582500  0.68337600  0.55929500  1
  O  O9  1  0.48312100  0.99748100  0.98060200  1
  O  O10  1  0.37592000  0.95347100  0.55929500  1
  O  O11  1  0.12838600  0.62949300  0.99414900  1
  O  O12  1  0.60267500  0.66890500  0.01725900  1
  O  O13  1  0.84835400  0.91458400  0.01725900  1
loop_
_geom_bond_atom_site_label_1
_geom_bond_atom_site_label_2
_geom_bond_distance
_geom_bond_site_symmetry_2
O0 Sb3 1.997398 1_555
O0 Tm0 2.260052 1_455
O0 Tm3 2.292187 1_556
O0 Sb0 2.610767 1_556
O1 Sb3 1.997398 1_555
O1 Tm2 2.260052 1_555
O1 Tm3 2.292187 1_556
O1 Sb2 2.610767 1_556
O2 Tm2 2.245022 1_555
O2 Sb0 2.278873 1_555
O2 Tm1 2.337292 1_555
O2 Tm3 2.440364 1_555
O3 Sb1 2.012938 1_545
O3 Sb0 2.177108 1_555
O3 Tm0 2.331794 1_555
O4 Sb1 1.915994 1_545
O4 Sb3 1.917720 1_655
O5 Sb1 2.012930 1_545
O5 Sb2 2.177108 1_555
O5 Tm2 2.331794 1_655
O6 Tm0 2.245022 1_565
O6 Sb2 2.278873 1_555
O6 Tm1 2.337292 1_555
O6 Tm3 2.440364 1_555
O7 Tm0 2.245022 1_555
O7 Sb2 2.278873 1_556
O7 Tm3 2.337292 1_656
O7 Tm1 2.440364 1_555
O8 Sb3 2.012930 1_565
O8 Sb2 2.177107 1_455
O8 Tm2 2.331799 1_555
O9 Sb3 1.915986 1_565
O9 Sb1 1.917720 1_556
O10 Sb3 2.012938 1_565
O10 Sb0 2.177101 1_565
O10 Tm0 2.331793 1_565
O11 Tm2 2.245022 1_555
O11 Sb0 2.278873 1_566
O11 Tm3 2.337292 1_556
O11 Tm1 2.440364 1_455
O12 Sb1 1.997399 1_555
O12 Tm2 2.260052 1_554
O12 Tm1 2.292187 1_554
O12 Sb2 2.610767 1_555
O13 Sb1 1.997392 1_555
O13 Tm0 2.260052 1_564
O13 Tm1 2.292187 1_554
O13 Sb0 2.610767 1_665
