# generated using pymatgen
data_LiFe2OF3
_symmetry_space_group_name_H-M   'P 1'
_cell_length_a   6.30506800
_cell_length_b   5.23378200
_cell_length_c   10.64647678
_cell_angle_alpha   87.61159241
_cell_angle_beta   90.00000000
_cell_angle_gamma   90.00000000
_symmetry_Int_Tables_number   1
_chemical_formula_structural   LiFe2OF3
_chemical_formula_sum   'Li4 Fe8 O4 F12'
_cell_volume   351.02162477
_cell_formula_units_Z   4
loop_
 _symmetry_equiv_pos_site_id
 _symmetry_equiv_pos_as_xyz
  1  'x, y, z'
loop_
 _atom_site_type_symbol
 _atom_site_label
 _atom_site_symmetry_multiplicity
 _atom_site_fract_x
 _atom_site_fract_y
 _atom_site_fract_z
 _atom_site_occupancy
  Li  Li0  1  0.50000000  0.97736300  0.83198900  1
  Li  Li1  1  0.00000000  0.03830500  0.67528500  1
  Li  Li2  1  0.00000000  0.91459200  0.30298600  1
  Li  Li3  1  0.50000000  0.06216700  0.17338500  1
  Fe  Fe0  1  0.00000000  0.50964600  0.00961800  1
  Fe  Fe1  1  0.50000000  0.49742300  0.99131800  1
  Fe  Fe2  1  0.74580100  0.51399300  0.74016200  1
  Fe  Fe3  1  0.25419900  0.51399300  0.74016200  1
  Fe  Fe4  1  0.00000000  0.50453700  0.50124300  1
  Fe  Fe5  1  0.50000000  0.02991100  0.48906000  1
  Fe  Fe6  1  0.74194500  0.47645100  0.26433500  1
  Fe  Fe7  1  0.25805500  0.47645100  0.26433500  1
  O  O0  1  0.50000000  0.33818600  0.82397500  1
  O  O1  1  0.00000000  0.68224600  0.66077900  1
  O  O2  1  0.50000000  0.25725900  0.33077200  1
  O  O3  1  0.00000000  0.64604800  0.18210300  1
  F  F0  1  0.74210100  0.74711600  0.91219600  1
  F  F1  1  0.25789900  0.74711600  0.91219600  1
  F  F2  1  0.00000000  0.29413000  0.84631200  1
  F  F3  1  0.50000000  0.80724700  0.66145500  1
  F  F4  1  0.76705900  0.23042500  0.58861400  1
  F  F5  1  0.23294100  0.23042500  0.58861400  1
  F  F6  1  0.76217800  0.76412100  0.40779800  1
  F  F7  1  0.23782200  0.76412100  0.40779800  1
  F  F8  1  0.00000000  0.24957500  0.35752500  1
  F  F9  1  0.50000000  0.70912800  0.15815400  1
  F  F10  1  0.73023700  0.25901300  0.08891400  1
  F  F11  1  0.26976300  0.25901300  0.08891400  1
loop_
_geom_bond_atom_site_label_1
_geom_bond_atom_site_label_2
_geom_bond_distance
_geom_bond_site_symmetry_2
Li0 O0 1.886840 1_565
Li1 O1 1.876327 1_545
Li2 O3 1.944867 1_555
Li3 O2 1.998218 1_555
Fe0 O3 1.997780 1_555
Fe1 O0 1.998118 1_555
Fe2 O0 1.994065 1_555
Fe2 O1 1.999121 1_655
Fe3 O0 1.994065 1_555
Fe3 O1 1.999121 1_555
Fe4 O1 1.970184 1_555
Fe5 O2 2.022039 1_555
Fe6 O2 2.018869 1_555
Fe6 O3 2.033936 1_655
Fe7 O2 2.018869 1_555
Fe7 O3 2.033936 1_555
F0 Li0 2.103731 1_555
F0 Fe1 2.157720 1_555
F0 Fe2 2.242784 1_555
F0 Fe0 2.270939 1_656
F1 Li0 2.103731 1_555
F1 Fe1 2.157720 1_555
F1 Fe3 2.242784 1_555
F1 Fe0 2.270939 1_556
F2 Fe0 2.111540 1_556
F2 Fe2 2.249826 1_455
F2 Fe3 2.249826 1_555
F2 Li1 2.304643 1_555
F3 Li0 2.055190 1_555
F3 Fe5 2.132725 1_565
F3 Fe3 2.313552 1_555
F3 Fe2 2.313552 1_555
F4 Li1 1.985518 1_655
F4 Fe4 2.229201 1_655
F4 Fe2 2.241300 1_555
F4 Fe5 2.269956 1_555
F5 Li1 1.985518 1_555
F5 Fe4 2.229201 1_555
F5 Fe3 2.241300 1_555
F5 Fe5 2.269956 1_555
F6 Li2 2.010124 1_655
F6 Fe6 2.192636 1_555
F6 Fe4 2.229654 1_655
F6 Fe5 2.348723 1_565
F7 Li2 2.010124 1_555
F7 Fe7 2.192636 1_555
F7 Fe4 2.229654 1_555
F7 Fe5 2.348723 1_565
F8 Li2 1.869708 1_545
F8 Fe4 2.071718 1_555
F8 Fe7 2.223383 1_555
F8 Fe6 2.223383 1_455
F9 Li3 1.861551 1_565
F9 Fe1 2.132294 1_554
F9 Fe7 2.230082 1_555
F9 Fe6 2.230082 1_555
F10 Li3 1.974913 1_555
F10 Fe1 2.153104 1_554
F10 Fe6 2.228380 1_555
F10 Fe0 2.287815 1_655
F11 Li3 1.974913 1_555
F11 Fe1 2.153104 1_554
F11 Fe7 2.228380 1_555
F11 Fe0 2.287815 1_555
