# generated using pymatgen
data_LaHoO3
_symmetry_space_group_name_H-M   'P 1'
_cell_length_a   5.88351900
_cell_length_b   6.07552400
_cell_length_c   8.57596900
_cell_angle_alpha   90.00000000
_cell_angle_beta   90.00000000
_cell_angle_gamma   90.00000000
_symmetry_Int_Tables_number   1
_chemical_formula_structural   LaHoO3
_chemical_formula_sum   'La4 Ho4 O12'
_cell_volume   306.55196447
_cell_formula_units_Z   4
loop_
 _symmetry_equiv_pos_site_id
 _symmetry_equiv_pos_as_xyz
  1  'x, y, z'
loop_
 _atom_site_type_symbol
 _atom_site_label
 _atom_site_symmetry_multiplicity
 _atom_site_fract_x
 _atom_site_fract_y
 _atom_site_fract_z
 _atom_site_occupancy
  La  La0  1  0.98167400  0.04669100  0.25000000  1
  La  La1  1  0.48167400  0.45330900  0.75000000  1
  La  La2  1  0.51832600  0.54669100  0.25000000  1
  La  La3  1  0.01832600  0.95330900  0.75000000  1
  Ho  Ho0  1  0.50000000  0.00000000  0.00000000  1
  Ho  Ho1  1  0.50000000  0.00000000  0.50000000  1
  Ho  Ho2  1  0.00000000  0.50000000  0.00000000  1
  Ho  Ho3  1  0.00000000  0.50000000  0.50000000  1
  O  O0  1  0.63139700  0.05655300  0.75000000  1
  O  O1  1  0.19670100  0.19789500  0.57153000  1
  O  O2  1  0.19670100  0.19789500  0.92847000  1
  O  O3  1  0.69670100  0.30210500  0.42847000  1
  O  O4  1  0.69670100  0.30210500  0.07153000  1
  O  O5  1  0.13139700  0.44344700  0.25000000  1
  O  O6  1  0.86860300  0.55655300  0.75000000  1
  O  O7  1  0.30329900  0.69789500  0.92847000  1
  O  O8  1  0.30329900  0.69789500  0.57153000  1
  O  O9  1  0.80329900  0.80210500  0.07153000  1
  O  O10  1  0.80329900  0.80210500  0.42847000  1
  O  O11  1  0.36860300  0.94344700  0.25000000  1
loop_
_geom_bond_atom_site_label_1
_geom_bond_atom_site_label_2
_geom_bond_distance
_geom_bond_site_symmetry_2
La0 O11 2.361340 1_645
La0 O9 2.377424 1_545
La0 O10 2.377424 1_545
La0 O5 2.566417 1_655
La0 O3 2.749860 1_555
La0 O4 2.749860 1_555
La0 O2 3.169834 1_654
La0 O1 3.169834 1_655
La1 O6 2.361340 1_555
La1 O8 2.377424 1_555
La1 O7 2.377424 1_555
La1 O0 2.566417 1_555
La1 O1 2.749860 1_555
La1 O2 2.749860 1_555
La1 O3 3.169834 1_555
La1 O4 3.169834 1_556
La2 O5 2.361340 1_555
La2 O4 2.377424 1_555
La2 O3 2.377424 1_555
La2 O11 2.566417 1_555
La2 O10 2.749860 1_555
La2 O9 2.749860 1_555
La2 O7 3.169834 1_554
La2 O8 3.169834 1_555
La3 O0 2.361340 1_465
La3 O1 2.377424 1_565
La3 O2 2.377424 1_565
La3 O6 2.566417 1_455
La3 O8 2.749860 1_555
La3 O7 2.749860 1_555
La3 O10 3.169834 1_455
La3 O9 3.169834 1_456
Ho0 O2 2.237451 1_554
Ho0 O9 2.237451 1_545
Ho0 O4 2.254884 1_555
Ho0 O7 2.254884 1_544
Ho0 O0 2.304865 1_554
Ho0 O11 2.304865 1_545
Ho1 O1 2.237451 1_555
Ho1 O10 2.237451 1_545
Ho1 O3 2.254884 1_555
Ho1 O8 2.254884 1_545
Ho1 O0 2.304865 1_555
Ho1 O11 2.304865 1_545
Ho2 O7 2.237451 1_554
Ho2 O4 2.237451 1_455
Ho2 O2 2.254884 1_554
Ho2 O9 2.254884 1_455
Ho2 O5 2.304865 1_555
Ho2 O6 2.304865 1_454
Ho3 O8 2.237451 1_555
Ho3 O3 2.237451 1_455
Ho3 O10 2.254884 1_455
Ho3 O1 2.254884 1_555
Ho3 O5 2.304865 1_555
Ho3 O6 2.304865 1_455
