# generated using pymatgen
data_Li4Nb3V3(NiO8)2
_symmetry_space_group_name_H-M   'P 1'
_cell_length_a   6.07571678
_cell_length_b   6.07571678
_cell_length_c   9.88159432
_cell_angle_alpha   89.65999919
_cell_angle_beta   89.65999919
_cell_angle_gamma   60.14412931
_symmetry_Int_Tables_number   1
_chemical_formula_structural   Li4Nb3V3(NiO8)2
_chemical_formula_sum   'Li4 Nb3 V3 Ni2 O16'
_cell_volume   316.35259187
_cell_formula_units_Z   1
loop_
 _symmetry_equiv_pos_site_id
 _symmetry_equiv_pos_as_xyz
  1  'x, y, z'
loop_
 _atom_site_type_symbol
 _atom_site_label
 _atom_site_symmetry_multiplicity
 _atom_site_fract_x
 _atom_site_fract_y
 _atom_site_fract_z
 _atom_site_occupancy
  Li  Li0  1  0.66607200  0.66607200  0.90027300  1
  Li  Li1  1  0.00599500  0.00599500  0.00344600  1
  Li  Li2  1  0.01210200  0.01210200  0.49208000  1
  Li  Li3  1  0.33261000  0.33261000  0.38251000  1
  Nb  Nb0  1  0.82889900  0.82889900  0.21875800  1
  Nb  Nb1  1  0.66046200  0.16398800  0.71498500  1
  Nb  Nb2  1  0.16398800  0.66046200  0.71498500  1
  V  V0  1  0.82692400  0.33943900  0.21214300  1
  V  V1  1  0.33943900  0.82692400  0.21214300  1
  V  V2  1  0.16807100  0.16807100  0.71194100  1
  Ni  Ni0  1  0.65971000  0.65971000  0.48058900  1
  Ni  Ni1  1  0.32728400  0.32728400  0.00775300  1
  O  O0  1  0.83971800  0.31690600  0.60699300  1
  O  O1  1  0.51747400  0.51747400  0.33143200  1
  O  O2  1  0.67352500  0.67352500  0.09839800  1
  O  O3  1  0.99780000  0.99780000  0.31378900  1
  O  O4  1  0.99707500  0.99707500  0.81762600  1
  O  O5  1  0.31690600  0.83971800  0.60699300  1
  O  O6  1  0.96466900  0.51811200  0.33647600  1
  O  O7  1  0.51811200  0.96466900  0.33647600  1
  O  O8  1  0.15850300  0.15850300  0.10951500  1
  O  O9  1  0.84035900  0.84035900  0.60062000  1
  O  O10  1  0.48679400  0.03291800  0.83155800  1
  O  O11  1  0.03291800  0.48679400  0.83155800  1
  O  O12  1  0.33898600  0.33898600  0.59744600  1
  O  O13  1  0.67705100  0.15833300  0.10330600  1
  O  O14  1  0.48392900  0.48392900  0.82997400  1
  O  O15  1  0.15833300  0.67705100  0.10330600  1
loop_
_geom_bond_atom_site_label_1
_geom_bond_atom_site_label_2
_geom_bond_distance
_geom_bond_site_symmetry_2
Li0 O2 1.959896 1_556
Li0 O14 2.041932 1_555
Li0 O11 2.046688 1_655
Li0 O10 2.046688 1_565
Li1 O4 1.839234 1_444
Li1 O8 1.921880 1_555
Li1 O13 1.992580 1_455
Li1 O15 1.992580 1_545
Li2 O3 1.769234 1_445
Li2 O5 1.973730 1_545
Li2 O0 1.973730 1_455
Li2 O9 2.094155 1_445
Li3 O6 1.993011 1_455
Li3 O7 1.993011 1_545
Li3 O1 2.005095 1_555
Li3 O12 2.125428 1_555
Nb0 O6 2.008378 1_555
Nb0 O7 2.008378 1_555
Nb0 O3 2.014780 1_555
Nb0 O2 2.027504 1_555
Nb0 O13 2.075028 1_565
Nb0 O15 2.075028 1_655
Nb1 O10 1.971231 1_555
Nb1 O14 2.038642 1_555
Nb1 O0 2.042067 1_555
Nb1 O4 2.046282 1_545
Nb1 O9 2.051825 1_545
Nb1 O12 2.058903 1_555
Nb2 O11 1.971231 1_555
Nb2 O14 2.038642 1_555
Nb2 O5 2.042067 1_555
Nb2 O4 2.046282 1_455
Nb2 O9 2.051825 1_455
Nb2 O12 2.058903 1_555
Ni0 O1 2.107092 1_555
Ni0 O6 2.144128 1_555
Ni0 O7 2.144128 1_555
Ni0 O0 2.193551 1_555
Ni0 O5 2.193551 1_555
Ni0 O9 2.246435 1_555
Ni1 O8 2.033925 1_555
Ni1 O13 2.074043 1_555
Ni1 O15 2.074043 1_555
Ni1 O11 2.336769 1_554
Ni1 O10 2.336769 1_554
Ni1 O14 2.399974 1_554
O0 V2 2.022478 1_655
O1 V1 2.014550 1_555
O1 V0 2.014550 1_555
O2 V1 2.086603 1_555
O2 V0 2.086603 1_555
O3 V1 2.058470 1_655
O3 V0 2.058470 1_565
O4 V2 2.073225 1_665
O5 V2 2.022478 1_565
O6 V0 2.078681 1_555
O7 V1 2.078681 1_555
O8 V0 2.019769 1_455
O8 V1 2.019769 1_545
O10 V2 2.062472 1_555
O11 V2 2.062472 1_555
O12 V2 2.117187 1_555
O13 V0 2.054230 1_555
O15 V1 2.054230 1_555
