# generated using pymatgen
data_Na7Li3V10O30
_symmetry_space_group_name_H-M   'P 1'
_cell_length_a   8.02983300
_cell_length_b   11.10118696
_cell_length_c   16.57240756
_cell_angle_alpha   94.01338876
_cell_angle_beta   103.48139561
_cell_angle_gamma   102.48741506
_symmetry_Int_Tables_number   1
_chemical_formula_structural   Na7Li3V10O30
_chemical_formula_sum   'Na14 Li6 V20 O60'
_cell_volume   1391.26316728
_cell_formula_units_Z   2
loop_
 _symmetry_equiv_pos_site_id
 _symmetry_equiv_pos_as_xyz
  1  'x, y, z'
loop_
 _atom_site_type_symbol
 _atom_site_label
 _atom_site_symmetry_multiplicity
 _atom_site_fract_x
 _atom_site_fract_y
 _atom_site_fract_z
 _atom_site_occupancy
  Na  Na0  1  0.09964700  0.15016900  0.03274700  1
  Na  Na1  1  0.27674500  0.47321700  0.09228200  1
  Na  Na2  1  0.92342100  0.32681300  0.30759500  1
  Na  Na3  1  0.32301300  0.92695700  0.10764200  1
  Na  Na4  1  0.70045400  0.54973000  0.23403900  1
  Na  Na5  1  0.87674700  0.87325800  0.29225400  1
  Na  Na6  1  0.47822000  0.27353500  0.49347500  1
  Na  Na7  1  0.52262800  0.72657300  0.50787400  1
  Na  Na8  1  0.29946400  0.95054100  0.43363300  1
  Na  Na9  1  0.12199600  0.12877500  0.70714100  1
  Na  Na10  1  0.07630000  0.67137400  0.69165100  1
  Na  Na11  1  0.67692000  0.07353900  0.89203600  1
  Na  Na12  1  0.72309200  0.52685400  0.90778000  1
  Na  Na13  1  0.50063300  0.74932400  0.83294600  1
  Li  Li0  1  0.50438500  0.24557300  0.16814300  1
  Li  Li1  1  0.10467700  0.64567200  0.36834400  1
  Li  Li2  1  0.70574300  0.04780400  0.56867200  1
  Li  Li3  1  0.89705300  0.35282600  0.63241300  1
  Li  Li4  1  0.30145500  0.44462600  0.76701500  1
  Li  Li5  1  0.90437600  0.84557000  0.96805300  1
  V  V0  1  0.73253800  0.01143600  0.10525100  1
  V  V1  1  0.86150600  0.38806600  0.09475100  1
  V  V2  1  0.54660300  0.70360200  0.04129500  1
  V  V3  1  0.14673300  0.10380900  0.24126300  1
  V  V4  1  0.65623200  0.09975600  0.35795600  1
  V  V5  1  0.05637700  0.69963800  0.15775400  1
  V  V6  1  0.33384500  0.41140900  0.30596700  1
  V  V7  1  0.46163100  0.78813700  0.29484700  1
  V  V8  1  0.74858500  0.50192900  0.44427600  1
  V  V9  1  0.93255400  0.81156600  0.50527800  1
  V  V10  1  0.06005600  0.19058800  0.49616800  1
  V  V11  1  0.25324400  0.49828100  0.55839300  1
  V  V12  1  0.53581500  0.21263000  0.70469100  1
  V  V13  1  0.66431900  0.58461200  0.69354600  1
  V  V14  1  0.94523000  0.30451200  0.83881600  1
  V  V15  1  0.34679300  0.90400200  0.64115600  1
  V  V16  1  0.85638500  0.89837300  0.75742500  1
  V  V17  1  0.45605900  0.29968000  0.95757100  1
  V  V18  1  0.13273300  0.61136700  0.90509200  1
  V  V19  1  0.26147900  0.98795900  0.89471400  1
  O  O0  1  0.81596900  0.01555100  0.02075800  1
  O  O1  1  0.98665900  0.54661800  0.09568000  1
  O  O2  1  0.58869500  0.10112400  0.10104600  1
  O  O3  1  0.36768700  0.30107900  0.04035500  1
  O  O4  1  0.90691600  0.06000700  0.20212700  1
  O  O5  1  0.30685700  0.65975600  0.00212300  1
  O  O6  1  0.59200000  0.59222100  0.09882500  1
  O  O7  1  0.76879100  0.37164000  0.17611400  1
  O  O8  1  0.60803100  0.85382400  0.10707800  1
  O  O9  1  0.96767400  0.70076300  0.24049900  1
  O  O10  1  0.25230400  0.10753700  0.16422900  1
  O  O11  1  0.01168500  0.30398100  0.10232300  1
  O  O12  1  0.41620500  0.41541500  0.22120600  1
  O  O13  1  0.00364500  0.80644700  0.09654100  1
  O  O14  1  0.60402700  0.20661600  0.29667000  1
  O  O15  1  0.89591700  0.14245500  0.39529300  1
  O  O16  1  0.29635400  0.74178200  0.19439300  1
  O  O17  1  0.85287400  0.50463200  0.36667200  1
  O  O18  1  0.61170000  0.70411100  0.30230000  1
  O  O19  1  0.58680900  0.94669200  0.29579700  1
  O  O20  1  0.20822500  0.25396900  0.30701000  1
  O  O21  1  0.19002900  0.50122900  0.30165200  1
  O  O22  1  0.56703500  0.10112300  0.44047000  1
  O  O23  1  0.50912100  0.45788600  0.40313600  1
  O  O24  1  0.19196700  0.99233700  0.29882100  1
  O  O25  1  0.79699800  0.39453800  0.50562600  1
  O  O26  1  0.36858900  0.77146000  0.37609700  1
  O  O27  1  0.96704000  0.18132800  0.57777200  1
  O  O28  1  0.80738400  0.65405200  0.50714100  1
  O  O29  1  0.78944500  0.90174200  0.50124600  1
  O  O30  1  0.20817400  0.10459900  0.50467500  1
  O  O31  1  0.18811900  0.34710700  0.49464400  1
  O  O32  1  0.62709800  0.22100700  0.62258100  1
  O  O33  1  0.01601500  0.81514900  0.42082200  1
  O  O34  1  0.20244400  0.60594300  0.49748900  1
  O  O35  1  0.80338900  0.00501400  0.69615700  1
  O  O36  1  0.49371000  0.54157300  0.59512600  1
  O  O37  1  0.45220600  0.90747500  0.56413600  1
  O  O38  1  0.81056200  0.49725100  0.69680900  1
  O  O39  1  0.78855200  0.74420600  0.69602000  1
  O  O40  1  0.41015000  0.05472200  0.70601500  1
  O  O41  1  0.39072300  0.30142900  0.70030900  1
  O  O42  1  0.15756800  0.49437700  0.63902900  1
  O  O43  1  0.70527400  0.25977000  0.80314300  1
  O  O44  1  0.10691400  0.85997800  0.60203700  1
  O  O45  1  0.39153200  0.79221000  0.69881000  1
  O  O46  1  0.99456300  0.19360400  0.89619700  1
  O  O47  1  0.57337200  0.56936300  0.77553700  1
  O  O48  1  0.98859000  0.70087400  0.90090900  1
  O  O49  1  0.76790000  0.90062200  0.84017600  1
  O  O50  1  0.04249200  0.30941900  0.75862400  1
  O  O51  1  0.38655500  0.14659400  0.89576300  1
  O  O52  1  0.21637700  0.61547900  0.82067800  1
  O  O53  1  0.40266200  0.40612000  0.89606400  1
  O  O54  1  0.09627800  0.94160200  0.79432800  1
  O  O55  1  0.69618000  0.34182500  0.99440500  1
  O  O56  1  0.65222800  0.70743300  0.96422400  1
  O  O57  1  0.41171400  0.90400600  0.90233100  1
  O  O58  1  0.00787700  0.45379500  0.90604000  1
  O  O59  1  0.16847100  0.97145900  0.97597600  1
loop_
_geom_bond_atom_site_label_1
_geom_bond_atom_site_label_2
_geom_bond_distance
_geom_bond_site_symmetry_2
Na0 O11 2.317245 1_555
Na0 O46 2.346033 1_454
Na0 O59 2.362563 1_544
Na0 O10 2.371574 1_555
Na0 O0 2.395170 1_455
Na0 O3 2.395732 1_555
Na1 O3 2.364694 1_555
Na1 O12 2.370196 1_555
Na1 O11 2.562615 1_555
Na1 O6 2.563392 1_555
Na1 O5 2.638979 1_555
Na1 O1 2.639794 1_455
Na2 O17 2.376502 1_555
Na2 O7 2.386360 1_555
Na2 O14 2.580810 1_555
Na2 O21 2.583451 1_655
Na2 O20 2.587092 1_655
Na2 O15 2.592325 1_555
Na3 O10 2.387001 1_565
Na3 O59 2.387199 1_554
Na3 O2 2.579938 1_565
Na3 O13 2.581089 1_555
Na3 O16 2.589471 1_555
Na3 O8 2.590279 1_555
Na4 O18 2.314629 1_555
Na4 O6 2.327640 1_555
Na4 O7 2.362264 1_555
Na4 O12 2.394928 1_555
Na4 O9 2.395566 1_555
Na4 O17 2.396808 1_555
Na5 O33 2.366413 1_655
Na5 O9 2.366915 1_555
Na5 O18 2.562018 1_555
Na5 O24 2.563308 1_655
Na5 O19 2.639337 1_555
Na5 O4 2.640539 1_565
Na6 O22 2.364442 1_555
Na6 O32 2.372878 1_555
Na6 O25 2.575273 1_555
Na6 O30 2.594488 1_555
Na6 O23 2.621774 1_555
Na6 O31 2.633518 1_555
Na7 O37 2.386823 1_555
Na7 O26 2.388909 1_555
Na7 O28 2.585384 1_555
Na7 O34 2.589516 1_555
Na7 O29 2.592621 1_555
Na7 O36 2.593943 1_555
Na8 O24 2.317534 1_555
Na8 O30 2.347563 1_565
Na8 O37 2.360475 1_555
Na8 O26 2.372360 1_555
Na8 O22 2.393799 1_565
Na8 O33 2.394819 1_555
Na9 O50 2.392715 1_555
Na9 O27 2.393803 1_455
Na9 O35 2.587230 1_455
Na9 O41 2.588129 1_555
Na9 O54 2.611824 1_545
Na9 O40 2.621169 1_555
Na10 O52 2.364020 1_555
Na10 O42 2.372146 1_555
Na10 O45 2.567117 1_555
Na10 O38 2.573208 1_455
Na10 O39 2.622092 1_455
Na10 O44 2.651907 1_555
Na11 O0 2.367327 1_556
Na11 O49 2.371798 1_545
Na11 O57 2.566568 1_545
Na11 O46 2.592663 1_555
Na11 O43 2.622081 1_555
Na11 O51 2.641149 1_555
Na12 O47 2.373331 1_555
Na12 O56 2.386705 1_555
Na12 O48 2.579320 1_555
Na12 O55 2.586918 1_555
Na12 O53 2.587220 1_555
Na12 O58 2.591812 1_655
Na13 O45 2.314340 1_555
Na13 O57 2.327501 1_555
Na13 O56 2.362809 1_555
Na13 O52 2.394512 1_555
Na13 O49 2.394638 1_555
Na13 O47 2.394808 1_555
Li0 O2 2.199326 1_555
Li0 O14 2.201835 1_555
Li0 O10 2.243460 1_555
Li0 O7 2.245472 1_555
Li0 O3 2.336820 1_555
Li0 O12 2.337768 1_555
Li1 O21 2.200643 1_555
Li1 O34 2.211316 1_555
Li1 O26 2.241770 1_555
Li1 O17 2.266983 1_455
Li1 O33 2.332759 1_555
Li1 O9 2.336392 1_455
Li2 O35 2.198462 1_555
Li2 O29 2.212989 1_545
Li2 O27 2.257970 1_555
Li2 O37 2.262280 1_545
Li2 O32 2.332738 1_555
Li2 O22 2.337236 1_555
Li3 O38 2.186182 1_555
Li3 O25 2.187414 1_555
Li3 O50 2.283958 1_655
Li3 O27 2.284520 1_555
Li3 O32 2.301521 1_555
Li3 O42 2.303191 1_655
Li4 O41 2.208880 1_555
Li4 O53 2.210164 1_555
Li4 O50 2.254432 1_555
Li4 O47 2.286089 1_555
Li4 O42 2.331534 1_555
Li4 O52 2.337194 1_555
Li5 O13 2.201349 1_656
Li5 O48 2.201371 1_555
Li5 O59 2.242826 1_655
Li5 O56 2.244731 1_555
Li5 O49 2.335306 1_555
Li5 O0 2.337795 1_566
O0 V0 1.686629 1_555
O1 V1 1.825442 1_555
O1 V5 1.825616 1_655
O2 V0 1.673251 1_555
O3 V17 1.685731 1_554
O4 V0 1.825668 1_555
O4 V3 1.825913 1_655
O5 V2 1.825453 1_555
O5 V18 1.826265 1_554
O6 V2 1.663910 1_555
O7 V1 1.688018 1_555
O8 V0 1.823977 1_565
O8 V2 1.830818 1_555
O9 V5 1.686642 1_655
O10 V3 1.687296 1_555
O11 V1 1.665507 1_455
O12 V6 1.685728 1_555
O13 V5 1.673172 1_555
O14 V4 1.673235 1_555
O15 V4 1.822338 1_555
O15 V10 1.833151 1_655
O16 V5 1.823629 1_555
O16 V7 1.830892 1_555
O17 V8 1.689050 1_555
O18 V7 1.664411 1_555
O19 V7 1.825474 1_555
O19 V4 1.826684 1_565
O20 V6 1.822758 1_555
O20 V3 1.829946 1_555
O21 V6 1.674031 1_555
O22 V4 1.685711 1_555
O23 V8 1.826685 1_555
O23 V6 1.831161 1_555
O24 V3 1.664694 1_565
O25 V8 1.670899 1_555
O26 V7 1.688096 1_555
O27 V10 1.689547 1_655
O28 V9 1.825031 1_555
O28 V8 1.827498 1_555
O29 V9 1.672767 1_555
O30 V10 1.666529 1_555
O31 V11 1.822278 1_555
O31 V10 1.822834 1_555
O32 V12 1.688455 1_555
O33 V9 1.686218 1_455
O34 V11 1.673710 1_555
O35 V16 1.672777 1_545
O36 V13 1.825219 1_555
O36 V11 1.827461 1_555
O37 V15 1.686329 1_555
O38 V13 1.671133 1_555
O39 V13 1.828154 1_555
O39 V16 1.831914 1_555
O40 V15 1.827251 1_545
O40 V12 1.828211 1_555
O41 V12 1.673809 1_555
O42 V11 1.688279 1_555
O43 V14 1.822828 1_555
O43 V12 1.823427 1_555
O44 V9 1.824158 1_455
O44 V15 1.826378 1_555
O45 V15 1.667589 1_555
O46 V14 1.666211 1_555
O47 V13 1.688104 1_555
O48 V18 1.673730 1_655
O49 V16 1.686225 1_555
O50 V14 1.689608 1_455
O51 V17 1.824388 1_555
O51 V19 1.825639 1_545
O52 V18 1.686420 1_555
O53 V17 1.674207 1_555
O54 V16 1.823408 1_455
O54 V19 1.829805 1_555
O55 V17 1.824921 1_555
O55 V1 1.829704 1_556
O56 V2 1.688090 1_556
O57 V19 1.664781 1_555
O58 V18 1.821541 1_555
O58 V14 1.833115 1_455
O59 V19 1.687975 1_555
