# generated using pymatgen
data_Li5Fe3O8
_symmetry_space_group_name_H-M   'P 1'
_cell_length_a   5.81015600
_cell_length_b   5.83949963
_cell_length_c   9.90420994
_cell_angle_alpha   89.91760524
_cell_angle_beta   91.00290279
_cell_angle_gamma   119.67490747
_symmetry_Int_Tables_number   1
_chemical_formula_structural   Li5Fe3O8
_chemical_formula_sum   'Li10 Fe6 O16'
_cell_volume   291.90780969
_cell_formula_units_Z   2
loop_
 _symmetry_equiv_pos_site_id
 _symmetry_equiv_pos_as_xyz
  1  'x, y, z'
loop_
 _atom_site_type_symbol
 _atom_site_label
 _atom_site_symmetry_multiplicity
 _atom_site_fract_x
 _atom_site_fract_y
 _atom_site_fract_z
 _atom_site_occupancy
  Li  Li0  1  0.63568800  0.81267900  0.05000900  1
  Li  Li1  1  0.31553400  0.64036000  0.53362500  1
  Li  Li2  1  0.31473300  0.65395000  0.28153100  1
  Li  Li3  1  0.14200800  0.31645600  0.04702800  1
  Li  Li4  1  0.81734200  0.14348800  0.55071400  1
  Li  Li5  1  0.13921600  0.81791400  0.04942300  1
  Li  Li6  1  0.81627800  0.63592700  0.55014100  1
  Li  Li7  1  0.65552300  0.31455900  0.78161700  1
  Li  Li8  1  0.64044200  0.32510100  0.03307800  1
  Li  Li9  1  0.31382900  0.13985100  0.54908900  1
  Fe  Fe0  1  0.81433200  0.15432000  0.28664200  1
  Fe  Fe1  1  0.15584100  0.81449800  0.78756800  1
  Fe  Fe2  1  0.15577500  0.31603800  0.78681600  1
  Fe  Fe3  1  0.31634700  0.15440700  0.28707000  1
  Fe  Fe4  1  0.65482800  0.81447700  0.78701900  1
  Fe  Fe5  1  0.81459600  0.65342600  0.28775500  1
  O  O0  1  0.98744100  0.97543400  0.66706300  1
  O  O1  1  0.66645800  0.82270600  0.39397400  1
  O  O2  1  0.47613400  0.48806400  0.67763400  1
  O  O3  1  0.32050700  0.65337600  0.90985900  1
  O  O4  1  0.13922500  0.30498600  0.39663700  1
  O  O5  1  0.48741600  0.96110300  0.67427700  1
  O  O6  1  0.00267200  0.47595400  0.67493800  1
  O  O7  1  0.83219800  0.14353900  0.89225800  1
  O  O8  1  0.13433800  0.81739000  0.39626900  1
  O  O9  1  0.95953300  0.48239500  0.17625400  1
  O  O10  1  0.49147200  0.00466000  0.17367500  1
  O  O11  1  0.98214300  0.99069300  0.16775700  1
  O  O12  1  0.64605500  0.31427200  0.40953500  1
  O  O13  1  0.81945300  0.66582800  0.89672900  1
  O  O14  1  0.49646100  0.48780400  0.17581100  1
  O  O15  1  0.30759800  0.15577900  0.89724000  1
loop_
_geom_bond_atom_site_label_1
_geom_bond_atom_site_label_2
_geom_bond_distance
_geom_bond_site_symmetry_2
Li0 O14 2.077207 1_555
Li0 O11 2.083752 1_555
Li0 O3 2.091310 1_554
Li0 O10 2.104537 1_565
Li0 O13 2.268724 1_554
Li0 O7 2.312376 1_564
Li1 O2 2.113615 1_555
Li1 O6 2.131218 1_555
Li1 O5 2.133705 1_555
Li1 O4 2.167514 1_555
Li1 O8 2.247474 1_555
Li1 O1 2.269113 1_555
Li2 O14 2.051458 1_555
Li2 O9 2.056812 1_455
Li2 O1 2.077745 1_555
Li2 O8 2.082340 1_555
Li2 O10 2.083163 1_565
Li2 O4 2.113893 1_555
Li3 O11 2.047932 1_445
Li3 O7 2.172008 1_454
Li3 O14 2.177307 1_555
Li3 O9 2.183895 1_455
Li3 O3 2.193936 1_554
Li3 O15 2.225908 1_554
Li4 O0 2.045701 1_545
Li4 O6 2.081571 1_655
Li4 O5 2.088885 1_545
Li4 O12 2.206851 1_555
Li4 O1 2.240995 1_545
Li4 O4 2.250580 1_655
Li5 O11 2.043769 1_455
Li5 O9 2.126048 1_455
Li5 O10 2.144345 1_565
Li5 O13 2.190725 1_454
Li5 O3 2.236120 1_554
Li5 O15 2.292025 1_564
Li6 O0 2.067510 1_555
Li6 O6 2.127152 1_655
Li6 O12 2.136683 1_555
Li6 O2 2.154139 1_555
Li6 O8 2.239511 1_655
Li6 O1 2.286430 1_555
Li7 O2 2.044152 1_555
Li7 O7 2.055334 1_555
Li7 O6 2.064543 1_655
Li7 O5 2.078021 1_545
Li7 O13 2.109214 1_555
Li7 O15 2.116515 1_555
Li8 O14 2.105515 1_555
Li8 O9 2.125394 1_555
Li8 O15 2.132362 1_554
Li8 O10 2.149581 1_555
Li8 O13 2.203775 1_554
Li8 O7 2.353478 1_554
Li9 O0 2.038334 1_445
Li9 O5 2.153817 1_545
Li9 O2 2.170623 1_555
Li9 O12 2.194641 1_555
Li9 O8 2.220971 1_545
Li9 O4 2.269300 1_555
Fe0 O4 1.952060 1_655
Fe0 O10 1.959733 1_555
Fe0 O1 1.999195 1_545
Fe0 O9 2.000811 1_555
Fe0 O11 2.053268 1_545
Fe0 O12 2.063733 1_555
Fe1 O3 2.028556 1_555
Fe1 O0 2.032570 1_455
Fe1 O13 2.033155 1_455
Fe1 O5 2.035484 1_555
Fe1 O15 2.040046 1_565
Fe1 O6 2.043077 1_555
Fe2 O15 1.905434 1_555
Fe2 O6 1.917336 1_555
Fe2 O7 1.957133 1_455
Fe2 O2 1.964426 1_555
Fe2 O0 2.087892 1_445
Fe2 O3 2.093044 1_555
Fe3 O4 1.986875 1_555
Fe3 O10 1.996277 1_555
Fe3 O14 2.028935 1_555
Fe3 O8 2.033300 1_545
Fe3 O12 2.040487 1_555
Fe3 O11 2.041007 1_445
Fe4 O13 1.905796 1_555
Fe4 O5 1.926124 1_555
Fe4 O7 1.961687 1_565
Fe4 O2 1.972784 1_555
Fe4 O0 2.075635 1_555
Fe4 O3 2.099620 1_555
Fe5 O8 1.922212 1_655
Fe5 O1 1.924014 1_555
Fe5 O14 1.934558 1_555
Fe5 O9 1.947986 1_555
Fe5 O11 2.091501 1_555
Fe5 O12 2.109550 1_555
