# generated using pymatgen
data_H24C8S(NO2)2
_symmetry_space_group_name_H-M   'P 1'
_cell_length_a   7.71831600
_cell_length_b   7.71831600
_cell_length_c   11.19779200
_cell_angle_alpha   90.00000000
_cell_angle_beta   90.00000000
_cell_angle_gamma   90.00000000
_symmetry_Int_Tables_number   1
_chemical_formula_structural   H24C8S(NO2)2
_chemical_formula_sum   'H48 C16 S2 N4 O8'
_cell_volume   667.07936515
_cell_formula_units_Z   2
loop_
 _symmetry_equiv_pos_site_id
 _symmetry_equiv_pos_as_xyz
  1  'x, y, z'
loop_
 _atom_site_type_symbol
 _atom_site_label
 _atom_site_symmetry_multiplicity
 _atom_site_fract_x
 _atom_site_fract_y
 _atom_site_fract_z
 _atom_site_occupancy
  H  H0  1  0.61618500  0.84787100  0.82777300  1
  H  H1  1  0.38381500  0.15212900  0.82777300  1
  H  H2  1  0.11618500  0.34787100  0.67222700  1
  H  H3  1  0.88381500  0.65212900  0.67222700  1
  H  H4  1  0.38381500  0.84787100  0.82777300  1
  H  H5  1  0.61618500  0.15212900  0.82777300  1
  H  H6  1  0.88381500  0.34787100  0.67222700  1
  H  H7  1  0.11618500  0.65212900  0.67222700  1
  H  H8  1  0.15212900  0.61618500  0.17222700  1
  H  H9  1  0.84787100  0.38381500  0.17222700  1
  H  H10  1  0.65212900  0.11618500  0.32777300  1
  H  H11  1  0.34787100  0.88381500  0.32777300  1
  H  H12  1  0.84787100  0.61618500  0.17222700  1
  H  H13  1  0.15212900  0.38381500  0.17222700  1
  H  H14  1  0.34787100  0.11618500  0.32777300  1
  H  H15  1  0.65212900  0.88381500  0.32777300  1
  H  H16  1  0.50000000  0.72654800  0.71378100  1
  H  H17  1  0.50000000  0.27345200  0.71378100  1
  H  H18  1  0.00000000  0.22654800  0.78621900  1
  H  H19  1  0.00000000  0.77345200  0.78621900  1
  H  H20  1  0.27345200  0.50000000  0.28621900  1
  H  H21  1  0.72654800  0.50000000  0.28621900  1
  H  H22  1  0.77345200  0.00000000  0.21378100  1
  H  H23  1  0.22654800  0.00000000  0.21378100  1
  H  H24  1  0.34114100  0.11689500  0.56096500  1
  H  H25  1  0.65885900  0.88310500  0.56096500  1
  H  H26  1  0.84114100  0.61689500  0.93903500  1
  H  H27  1  0.15885900  0.38310500  0.93903500  1
  H  H28  1  0.65885900  0.11689500  0.56096500  1
  H  H29  1  0.34114100  0.88310500  0.56096500  1
  H  H30  1  0.15885900  0.61689500  0.93903500  1
  H  H31  1  0.84114100  0.38310500  0.93903500  1
  H  H32  1  0.88310500  0.34114100  0.43903500  1
  H  H33  1  0.11689500  0.65885900  0.43903500  1
  H  H34  1  0.38310500  0.84114100  0.06096500  1
  H  H35  1  0.61689500  0.15885900  0.06096500  1
  H  H36  1  0.11689500  0.34114100  0.43903500  1
  H  H37  1  0.88310500  0.65885900  0.43903500  1
  H  H38  1  0.61689500  0.84114100  0.06096500  1
  H  H39  1  0.38310500  0.15885900  0.06096500  1
  H  H40  1  0.22838800  0.00000000  0.67728800  1
  H  H41  1  0.77161200  0.00000000  0.67728800  1
  H  H42  1  0.72838800  0.50000000  0.82271200  1
  H  H43  1  0.27161200  0.50000000  0.82271200  1
  H  H44  1  0.00000000  0.22838800  0.32271200  1
  H  H45  1  0.00000000  0.77161200  0.32271200  1
  H  H46  1  0.50000000  0.72838800  0.17728800  1
  H  H47  1  0.50000000  0.27161200  0.17728800  1
  C  C0  1  0.50000000  0.84164900  0.77154900  1
  C  C1  1  0.50000000  0.15835100  0.77154900  1
  C  C2  1  0.00000000  0.34164900  0.72845100  1
  C  C3  1  0.00000000  0.65835100  0.72845100  1
  C  C4  1  0.15835100  0.50000000  0.22845100  1
  C  C5  1  0.84164900  0.50000000  0.22845100  1
  C  C6  1  0.65835100  0.00000000  0.27154900  1
  C  C7  1  0.34164900  0.00000000  0.27154900  1
  C  C8  1  0.33968400  0.00000000  0.61686400  1
  C  C9  1  0.66031600  0.00000000  0.61686400  1
  C  C10  1  0.83968400  0.50000000  0.88313600  1
  C  C11  1  0.16031600  0.50000000  0.88313600  1
  C  C12  1  0.00000000  0.33968400  0.38313600  1
  C  C13  1  0.00000000  0.66031600  0.38313600  1
  C  C14  1  0.50000000  0.83968400  0.11686400  1
  C  C15  1  0.50000000  0.16031600  0.11686400  1
  S  S0  1  0.50000000  0.50000000  0.50000000  1
  S  S1  1  0.00000000  0.00000000  0.00000000  1
  N  N0  1  0.50000000  0.00000000  0.69329600  1
  N  N1  1  0.00000000  0.50000000  0.80670400  1
  N  N2  1  0.00000000  0.50000000  0.30670400  1
  N  N3  1  0.50000000  0.00000000  0.19329600  1
  O  O0  1  0.34092900  0.50000000  0.57720700  1
  O  O1  1  0.65907200  0.50000000  0.57720700  1
  O  O2  1  0.84092800  0.00000000  0.92279300  1
  O  O3  1  0.15907100  0.00000000  0.92279300  1
  O  O4  1  0.50000000  0.34092900  0.42279300  1
  O  O5  1  0.50000000  0.65907200  0.42279300  1
  O  O6  1  0.00000000  0.84092800  0.07720700  1
  O  O7  1  0.00000000  0.15907100  0.07720700  1
loop_
_geom_bond_atom_site_label_1
_geom_bond_atom_site_label_2
_geom_bond_distance
_geom_bond_site_symmetry_2
C0 H4 1.096744 1_555
C0 H0 1.096744 1_555
C0 H16 1.098943 1_555
C0 N0 1.503866 1_565
C1 H1 1.096744 1_555
C1 H5 1.096744 1_555
C1 H17 1.098943 1_555
C1 N0 1.503866 1_555
C2 H6 1.096744 1_455
C2 H2 1.096744 1_555
C2 H18 1.098943 1_555
C2 N1 1.503866 1_555
C3 H3 1.096744 1_455
C3 H7 1.096744 1_555
C3 H19 1.098943 1_555
C3 N1 1.503866 1_555
C4 H13 1.096744 1_555
C4 H8 1.096744 1_555
C4 H20 1.098943 1_555
C4 N2 1.503866 1_555
C5 H12 1.096744 1_555
C5 H9 1.096744 1_555
C5 H21 1.098943 1_555
C5 N2 1.503866 1_655
C6 H15 1.096744 1_545
C6 H10 1.096744 1_555
C6 H22 1.098943 1_555
C6 N3 1.503866 1_555
C7 H11 1.096744 1_545
C7 H14 1.096744 1_555
C7 H23 1.098943 1_555
C7 N3 1.503866 1_555
C8 H40 1.093490 1_555
C8 H29 1.098161 1_545
C8 H24 1.098161 1_555
C8 N0 1.504525 1_555
C9 H41 1.093490 1_555
C9 H25 1.098161 1_545
C9 H28 1.098161 1_555
C9 N0 1.504525 1_555
C10 H42 1.093490 1_555
C10 H26 1.098161 1_555
C10 H31 1.098161 1_555
C10 N1 1.504525 1_655
C11 H43 1.093490 1_555
C11 H30 1.098161 1_555
C11 H27 1.098161 1_555
C11 N1 1.504525 1_555
C12 H44 1.093490 1_555
C12 H32 1.098161 1_455
C12 H36 1.098161 1_555
C12 N2 1.504525 1_555
C13 H45 1.093490 1_555
C13 H37 1.098161 1_455
C13 H33 1.098161 1_555
C13 N2 1.504525 1_555
C14 H46 1.093490 1_555
C14 H38 1.098161 1_555
C14 H34 1.098161 1_555
C14 N3 1.504525 1_565
C15 H47 1.093490 1_555
C15 H35 1.098161 1_555
C15 H39 1.098161 1_555
C15 N3 1.504525 1_555
O0 S0 1.501612 1_555
O1 S0 1.501618 1_555
O2 S1 1.501618 1_656
O3 S1 1.501612 1_556
O4 S0 1.501612 1_555
O5 S0 1.501618 1_555
O6 S1 1.501618 1_565
O7 S1 1.501612 1_555
