# generated using pymatgen
data_ZrC8(NCl3)2
_symmetry_space_group_name_H-M   'P 1'
_cell_length_a   8.01663118
_cell_length_b   8.01663118
_cell_length_c   8.01663188
_cell_angle_alpha   55.45573267
_cell_angle_beta   55.45573267
_cell_angle_gamma   55.45572874
_symmetry_Int_Tables_number   1
_chemical_formula_structural   ZrC8(NCl3)2
_chemical_formula_sum   'Zr1 C8 N2 Cl6'
_cell_volume   325.85667376
_cell_formula_units_Z   1
loop_
 _symmetry_equiv_pos_site_id
 _symmetry_equiv_pos_as_xyz
  1  'x, y, z'
loop_
 _atom_site_type_symbol
 _atom_site_label
 _atom_site_symmetry_multiplicity
 _atom_site_fract_x
 _atom_site_fract_y
 _atom_site_fract_z
 _atom_site_occupancy
  Zr  Zr0  1  0.00264586  0.00264586  0.00264586  1
  C  C0  1  0.06990921  0.35269150  0.35269150  1
  C  C1  1  0.35269150  0.35269150  0.06990921  1
  C  C2  1  0.35269150  0.06990921  0.35269150  1
  C  C3  1  0.30068762  0.30068762  0.30068762  1
  C  C4  1  0.90120703  0.66000598  0.66000598  1
  C  C5  1  0.66000598  0.66000598  0.90120703  1
  C  C6  1  0.66000598  0.90120703  0.66000598  1
  C  C7  1  0.68794946  0.68794946  0.68794946  1
  N  N0  1  0.21428875  0.21428875  0.21428875  1
  N  N1  1  0.79211107  0.79211107  0.79211107  1
  Cl  Cl0  1  0.76190369  0.22811971  0.22811971  1
  Cl  Cl1  1  0.77504168  0.77504168  0.23519856  1
  Cl  Cl2  1  0.77504168  0.23519856  0.77504168  1
  Cl  Cl3  1  0.23519856  0.77504168  0.77504168  1
  Cl  Cl4  1  0.22811971  0.22811971  0.76190369  1
  Cl  Cl5  1  0.22811971  0.76190369  0.22811971  1
loop_
_geom_bond_atom_site_label_1
_geom_bond_atom_site_label_2
_geom_bond_distance
_geom_bond_site_symmetry_2
C0 C3 1.489311 1_555
C0 N0 1.511642 1_555
C1 C3 1.489311 1_555
C1 N0 1.511642 1_555
C2 C3 1.489311 1_555
C2 N0 1.511642 1_555
C3 N0 1.752534 1_555
C4 N1 1.476193 1_555
C4 C7 1.487071 1_555
C5 N1 1.476193 1_555
C5 C7 1.487071 1_555
C6 N1 1.476193 1_555
C6 C7 1.487071 1_555
Cl0 Zr0 2.460076 1_655
Cl1 Zr0 2.488821 1_665
Cl2 Zr0 2.488821 1_656
Cl3 Zr0 2.488821 1_566
Cl4 Zr0 2.460076 1_556
Cl5 Zr0 2.460076 1_565
