# generated using pymatgen
data_Li2AgF4
_symmetry_space_group_name_H-M   'P 1'
_cell_length_a   8.71555400
_cell_length_b   8.71555400
_cell_length_c   5.66350500
_cell_angle_alpha   90.00000000
_cell_angle_beta   90.00000000
_cell_angle_gamma   90.00000000
_symmetry_Int_Tables_number   1
_chemical_formula_structural   Li2AgF4
_chemical_formula_sum   'Li8 Ag4 F16'
_cell_volume   430.20483233
_cell_formula_units_Z   4
loop_
 _symmetry_equiv_pos_site_id
 _symmetry_equiv_pos_as_xyz
  1  'x, y, z'
loop_
 _atom_site_type_symbol
 _atom_site_label
 _atom_site_symmetry_multiplicity
 _atom_site_fract_x
 _atom_site_fract_y
 _atom_site_fract_z
 _atom_site_occupancy
  Li  Li0  1  0.22686700  0.77313300  0.75000000  1
  Li  Li1  1  0.77313300  0.77313300  0.25000000  1
  Li  Li2  1  0.22686700  0.22686700  0.25000000  1
  Li  Li3  1  0.77313300  0.22686700  0.75000000  1
  Li  Li4  1  0.72686700  0.27313300  0.25000000  1
  Li  Li5  1  0.27313300  0.27313300  0.75000000  1
  Li  Li6  1  0.27313300  0.72686700  0.25000000  1
  Li  Li7  1  0.72686700  0.72686700  0.75000000  1
  Ag  Ag0  1  0.50000000  0.00000000  0.02225000  1
  Ag  Ag1  1  0.50000000  0.00000000  0.52225000  1
  Ag  Ag2  1  0.00000000  0.50000000  0.47775000  1
  Ag  Ag3  1  0.00000000  0.50000000  0.97775000  1
  F  F0  1  0.39885600  0.78052100  0.52754500  1
  F  F1  1  0.60114400  0.78052100  0.02754500  1
  F  F2  1  0.28052100  0.89885600  0.02754500  1
  F  F3  1  0.71947900  0.89885600  0.52754500  1
  F  F4  1  0.71947900  0.10114400  0.02754500  1
  F  F5  1  0.28052100  0.10114400  0.52754500  1
  F  F6  1  0.60114400  0.21947900  0.52754500  1
  F  F7  1  0.39885600  0.21947900  0.02754500  1
  F  F8  1  0.10114400  0.28052100  0.97245500  1
  F  F9  1  0.89885600  0.28052100  0.47245500  1
  F  F10  1  0.21947900  0.39885600  0.47245500  1
  F  F11  1  0.78052100  0.39885600  0.97245500  1
  F  F12  1  0.21947900  0.60114400  0.97245500  1
  F  F13  1  0.78052100  0.60114400  0.47245500  1
  F  F14  1  0.10114400  0.71947900  0.47245500  1
  F  F15  1  0.89885600  0.71947900  0.97245500  1
loop_
_geom_bond_atom_site_label_1
_geom_bond_atom_site_label_2
_geom_bond_distance
_geom_bond_site_symmetry_2
Ag0 F2 2.106443 1_545
Ag0 F7 2.106443 1_555
Ag0 F4 2.106443 1_555
Ag0 F1 2.106443 1_545
Ag1 F3 2.106443 1_545
Ag1 F6 2.106443 1_555
Ag1 F0 2.106443 1_545
Ag1 F5 2.106443 1_555
Ag2 F9 2.106443 1_455
Ag2 F14 2.106443 1_555
Ag2 F10 2.106443 1_555
Ag2 F13 2.106443 1_455
Ag3 F11 2.106443 1_455
Ag3 F8 2.106443 1_555
Ag3 F12 2.106443 1_555
Ag3 F15 2.106443 1_455
F0 Li0 1.959176 1_555
F0 Li6 1.972341 1_555
F1 Li1 1.959176 1_555
F1 Li7 1.972341 1_554
F2 Li6 1.959176 1_555
F2 Li0 1.972341 1_554
F3 Li7 1.959176 1_555
F3 Li1 1.972341 1_555
F4 Li4 1.959176 1_555
F4 Li3 1.972341 1_554
F5 Li5 1.959176 1_555
F5 Li2 1.972341 1_555
F6 Li3 1.959176 1_555
F6 Li4 1.972341 1_555
F7 Li2 1.959176 1_555
F7 Li5 1.972341 1_554
F8 Li5 1.959176 1_555
F8 Li2 1.972341 1_556
F9 Li4 1.959176 1_555
F9 Li3 1.972341 1_555
F10 Li2 1.959176 1_555
F10 Li5 1.972341 1_555
F11 Li3 1.959176 1_555
F11 Li4 1.972341 1_556
F12 Li0 1.959176 1_555
F12 Li6 1.972341 1_556
F13 Li1 1.959176 1_555
F13 Li7 1.972341 1_555
F14 Li6 1.959176 1_555
F14 Li0 1.972341 1_555
F15 Li7 1.959176 1_555
F15 Li1 1.972341 1_556
