# generated using pymatgen
data_V4P2O13
_symmetry_space_group_name_H-M   'P 1'
_cell_length_a   4.87948626
_cell_length_b   4.89290488
_cell_length_c   8.65027195
_cell_angle_alpha   88.61086905
_cell_angle_beta   100.14791379
_cell_angle_gamma   99.25933265
_symmetry_Int_Tables_number   1
_chemical_formula_structural   V4P2O13
_chemical_formula_sum   'V4 P2 O13'
_cell_volume   200.64255752
_cell_formula_units_Z   1
loop_
 _symmetry_equiv_pos_site_id
 _symmetry_equiv_pos_as_xyz
  1  'x, y, z'
loop_
 _atom_site_type_symbol
 _atom_site_label
 _atom_site_symmetry_multiplicity
 _atom_site_fract_x
 _atom_site_fract_y
 _atom_site_fract_z
 _atom_site_occupancy
  V  V0  1  0.74710994  0.04353987  0.31483088  1
  V  V1  1  0.92918395  0.82615166  0.64244775  1
  V  V2  1  0.43444992  0.53662755  0.06047298  1
  V  V3  1  0.58510581  0.25766415  0.70696382  1
  P  P0  1  0.98733258  0.99062083  -0.00126325  1
  P  P1  1  0.24645052  0.56700854  0.41310613  1
  O  O0  1  0.00735932  0.73297604  0.43505534  1
  O  O1  1  0.79743091  0.84976475  0.11463186  1
  O  O2  1  0.93723275  0.50780975  0.72381879  1
  O  O3  1  0.71182735  0.07481273  0.53159998  1
  O  O4  1  0.59269089  0.28271888  0.21014281  1
  O  O5  1  0.80152060  0.98034413  0.82988217  1
  O  O6  1  0.41097736  0.72035122  0.29043875  1
  O  O7  1  0.45390663  0.55801049  0.56892670  1
  O  O8  1  0.52788769  0.43303582  0.89839364  1
  O  O9  1  0.26299695  0.03845740  0.68781879  1
  O  O10  1  0.07876153  0.29310006  0.04340625  1
  O  O11  1  0.11815447  0.27627009  0.35949399  1
  O  O12  1  0.22914185  0.83851504  0.99064162  1
loop_
_geom_bond_atom_site_label_1
_geom_bond_atom_site_label_2
_geom_bond_distance
_geom_bond_site_symmetry_2
O0 P1 1.564275 1_555
O0 V1 1.977007 1_455
O0 V0 2.254373 1_465
O1 P0 1.557886 1_555
O1 V0 2.064617 1_565
O1 V2 2.138482 1_555
O2 V1 1.697041 1_555
O2 V3 1.927464 1_555
O3 V1 1.877472 1_545
O3 V0 1.924900 1_555
O3 V3 2.014512 1_555
O4 V0 1.658104 1_555
O4 V2 1.922052 1_555
O5 P0 1.574886 1_556
O5 V3 2.020485 1_565
O5 V1 2.037766 1_555
O6 P1 1.549556 1_555
O6 V0 2.072394 1_565
O6 V2 2.231259 1_555
O7 P1 1.540818 1_555
O7 V3 1.985836 1_555
O7 V1 2.458788 1_555
O8 V2 1.662692 1_556
O8 V3 1.966016 1_555
O9 V3 1.738542 1_555
O9 V1 1.770939 1_445
O10 P0 1.514347 1_445
O10 V2 1.925243 1_555
O11 P1 1.507891 1_555
O11 V0 1.958388 1_455
O12 P0 1.505059 1_456
O12 V2 1.941656 1_556
