# generated using pymatgen
data_Li4V3P8O29
_symmetry_space_group_name_H-M   'P 1'
_cell_length_a   9.76057800
_cell_length_b   9.76874287
_cell_length_c   14.13992845
_cell_angle_alpha   89.77156536
_cell_angle_beta   90.74728106
_cell_angle_gamma   119.83614792
_symmetry_Int_Tables_number   1
_chemical_formula_structural   Li4V3P8O29
_chemical_formula_sum   'Li8 V6 P16 O58'
_cell_volume   1169.41323084
_cell_formula_units_Z   2
loop_
 _symmetry_equiv_pos_site_id
 _symmetry_equiv_pos_as_xyz
  1  'x, y, z'
loop_
 _atom_site_type_symbol
 _atom_site_label
 _atom_site_symmetry_multiplicity
 _atom_site_fract_x
 _atom_site_fract_y
 _atom_site_fract_z
 _atom_site_occupancy
  Li  Li0  1  0.09100900  0.32516400  0.44466900  1
  Li  Li1  1  0.22949800  0.31951400  0.93815000  1
  Li  Li2  1  0.68182000  0.90581600  0.93938800  1
  Li  Li3  1  0.33240000  0.23286800  0.56071000  1
  Li  Li4  1  0.66660600  0.76626200  0.44225600  1
  Li  Li5  1  0.31217300  0.08281900  0.06322600  1
  Li  Li6  1  0.90864500  0.22386700  0.05612100  1
  Li  Li7  1  0.98247100  0.94793700  0.50867600  1
  V  V0  1  0.43657600  0.43516300  0.75208400  1
  V  V1  1  0.56967900  0.56957100  0.24536500  1
  V  V2  1  0.42959000  0.99581800  0.25536300  1
  V  V3  1  0.56658300  0.00592300  0.74436500  1
  V  V4  1  0.00018100  0.56998300  0.74886200  1
  V  V5  1  0.00046000  0.44230400  0.25387500  1
  P  P0  1  0.08180800  0.77253600  0.15556300  1
  P  P1  1  0.21871500  0.91635400  0.66307400  1
  P  P2  1  0.08707000  0.31383400  0.65798300  1
  P  P3  1  0.33441200  0.66860100  0.86864300  1
  P  P4  1  0.33645400  0.66374600  0.36929100  1
  P  P5  1  0.22683800  0.32001000  0.15865300  1
  P  P6  1  0.31759500  0.23139400  0.34030600  1
  P  P7  1  0.68003400  0.91551200  0.15706400  1
  P  P8  1  0.32044400  0.08790800  0.84675500  1
  P  P9  1  0.68451600  0.77279100  0.65689200  1
  P  P10  1  0.77653400  0.68751200  0.83837100  1
  P  P11  1  0.66728100  0.33483800  0.62906400  1
  P  P12  1  0.66243200  0.32893200  0.13201600  1
  P  P13  1  0.91730200  0.69858900  0.34190700  1
  P  P14  1  0.77900500  0.08615800  0.33978400  1
  P  P15  1  0.91276700  0.22992000  0.83931600  1
  O  O0  1  0.99395800  0.79174300  0.42799900  1
  O  O1  1  0.08346300  0.74291700  0.66406800  1
  O  O2  1  0.25688900  0.00964100  0.93848800  1
  O  O3  1  0.25092200  0.91607600  0.16268100  1
  O  O4  1  0.09205400  0.61919400  0.18277000  1
  O  O5  1  0.18410200  0.66299400  0.82021800  1
  O  O6  1  0.08645400  0.47000600  0.67242500  1
  O  O7  1  0.00118900  0.23820400  0.92915400  1
  O  O8  1  0.07919600  0.33968500  0.15910900  1
  O  O9  1  0.32435000  0.80311300  0.32728000  1
  O  O10  1  0.38059300  0.92042900  0.66951700  1
  O  O11  1  0.18665800  0.50622900  0.32780900  1
  O  O12  1  0.33214300  0.66892600  0.97380600  1
  O  O13  1  0.33962700  0.65033700  0.47420500  1
  O  O14  1  0.33085000  0.51503300  0.83136200  1
  O  O15  1  0.52138700  0.90651500  0.17733000  1
  O  O16  1  0.48120900  0.81847600  0.82662600  1
  O  O17  1  0.25800800  0.34106700  0.66561200  1
  O  O18  1  0.20639800  0.21029100  0.24888100  1
  O  O19  1  0.23451500  0.23223400  0.42907300  1
  O  O20  1  0.23956900  0.24371500  0.06988000  1
  O  O21  1  0.37891500  0.48098700  0.17724200  1
  O  O22  1  0.49029800  0.67170900  0.32700200  1
  O  O23  1  0.33720500  0.25419400  0.84046100  1
  O  O24  1  0.53023100  0.61844000  0.66822100  1
  O  O25  1  0.65437200  0.91423800  0.67177400  1
  O  O26  1  0.20128100  0.98943900  0.76099200  1
  O  O27  1  0.20272100  0.00673000  0.58216400  1
  O  O28  1  0.79699700  0.99327200  0.41845800  1
  O  O29  1  0.34465800  0.08943000  0.33553500  1
  O  O30  1  0.47375600  0.38676700  0.32497200  1
  O  O31  1  0.65779500  0.74659000  0.16500000  1
  O  O32  1  0.51278900  0.32453100  0.66604100  1
  O  O33  1  0.62228200  0.52615400  0.82180400  1
  O  O34  1  0.76824200  0.77367800  0.92175400  1
  O  O35  1  0.76901200  0.79347100  0.56567800  1
  O  O36  1  0.80061700  0.78956300  0.74277100  1
  O  O37  1  0.74108300  0.65894700  0.33535900  1
  O  O38  1  0.51305100  0.18320300  0.17132600  1
  O  O39  1  0.47975700  0.09891200  0.82023000  1
  O  O40  1  0.66133800  0.47845400  0.17709000  1
  O  O41  1  0.66699200  0.33293100  0.02709200  1
  O  O42  1  0.67116000  0.32717600  0.52437600  1
  O  O43  1  0.81291100  0.48214100  0.67556300  1
  O  O44  1  0.62285500  0.08575500  0.33170000  1
  O  O45  1  0.67215100  0.18695200  0.67610600  1
  O  O46  1  0.91823600  0.65813800  0.83454200  1
  O  O47  1  0.99666000  0.79534200  0.24779300  1
  O  O48  1  0.99292300  0.75284000  0.06739800  1
  O  O49  1  0.91968600  0.53900400  0.33079000  1
  O  O50  1  0.81501100  0.33320100  0.17708500  1
  O  O51  1  0.90631300  0.38231100  0.82221700  1
  O  O52  1  0.74467400  0.08360600  0.83957800  1
  O  O53  1  0.75146100  0.99617300  0.06547400  1
  O  O54  1  0.80133800  0.01483700  0.24034800  1
  O  O55  1  0.92082600  0.25982700  0.33885900  1
  O  O56  1  0.01202400  0.22904300  0.56780600  1
  O  O57  1  0.99883700  0.20584200  0.74942400  1
loop_
_geom_bond_atom_site_label_1
_geom_bond_atom_site_label_2
_geom_bond_distance
_geom_bond_site_symmetry_2
Li0 O56 1.951743 1_555
Li0 O19 2.027223 1_555
Li0 O55 2.071924 1_455
Li0 O11 2.259285 1_555
Li1 O7 1.960901 1_555
Li1 O20 2.020909 1_556
Li1 O23 2.032927 1_555
Li1 O14 2.245559 1_555
Li2 O34 1.879211 1_555
Li2 O53 1.950288 1_556
Li2 O52 2.080240 1_565
Li2 O16 2.317616 1_555
Li3 O27 1.948482 1_555
Li3 O19 2.079724 1_555
Li3 O32 2.119801 1_555
Li3 O17 2.156126 1_555
Li4 O35 1.951722 1_555
Li4 O28 1.961537 1_555
Li4 O37 2.170648 1_555
Li4 O22 2.197188 1_555
Li5 O2 1.874710 1_554
Li5 O3 2.005731 1_545
Li5 O20 2.023037 1_555
Li5 O38 2.272206 1_555
Li6 O53 1.981432 1_545
Li6 O7 1.993255 1_654
Li6 O8 2.060990 1_655
Li6 O50 2.434782 1_555
Li7 O0 1.956907 1_555
Li7 O35 2.042861 1_555
Li7 O27 2.179231 1_665
Li7 O28 2.415327 1_555
O0 P13 1.475600 1_555
O1 P1 1.545382 1_555
O1 V4 1.896066 1_555
O2 P8 1.480874 1_555
O3 P0 1.547473 1_555
O3 V2 1.990542 1_555
O4 P0 1.595413 1_555
O4 V5 1.807897 1_555
O5 P3 1.586948 1_555
O5 V4 1.844798 1_555
O6 P2 1.543000 1_555
O6 V4 1.918745 1_555
O7 P15 1.505922 1_455
O8 P5 1.545808 1_555
O8 V5 2.048228 1_555
O9 P4 1.540168 1_555
O9 V2 1.928953 1_555
O10 P1 1.562065 1_555
O10 V3 1.887188 1_565
O11 P4 1.611114 1_555
O11 V5 1.900572 1_555
O12 P3 1.487491 1_555
O13 P4 1.490003 1_555
O14 P3 1.575920 1_555
O14 V0 1.941286 1_555
O15 P7 1.537402 1_555
O15 V2 1.895396 1_555
O16 P3 1.573977 1_555
O16 V3 1.972394 1_565
O17 P2 1.555641 1_555
O17 V0 1.933121 1_555
O18 P5 1.612224 1_555
O18 P6 1.623130 1_555
O19 P6 1.505429 1_555
O20 P5 1.500081 1_555
O21 P5 1.554276 1_555
O21 V1 1.870884 1_555
O22 P4 1.589105 1_555
O22 V1 1.931347 1_555
O23 P8 1.551829 1_555
O23 V0 1.983797 1_555
O24 P9 1.520501 1_555
O24 V0 1.957062 1_555
O25 P9 1.564791 1_555
O25 V3 1.839537 1_565
O26 P1 1.609529 1_555
O26 P8 1.614911 1_565
O27 P1 1.495700 1_545
O28 P14 1.495701 1_565
O29 P6 1.537299 1_555
O29 V2 1.896230 1_545
O30 P6 1.542070 1_555
O30 V1 1.918439 1_555
O31 P7 1.557391 1_555
O31 V1 1.884478 1_555
O32 P11 1.557703 1_555
O32 V0 2.008884 1_555
O33 P10 1.561598 1_555
O33 V0 1.845176 1_555
O34 P10 1.477622 1_555
O35 P9 1.498117 1_555
O36 P9 1.602043 1_555
O36 P10 1.625039 1_555
O37 P13 1.565342 1_555
O37 V1 1.918434 1_555
O38 P12 1.552715 1_555
O38 V2 1.987591 1_545
O39 P8 1.555242 1_555
O39 V3 1.868586 1_555
O40 P12 1.600911 1_555
O40 V1 1.829323 1_555
O41 P12 1.484641 1_555
O42 P11 1.484396 1_555
O43 P11 1.572038 1_555
O43 V4 1.883771 1_655
O44 P14 1.524957 1_555
O44 V2 1.949554 1_545
O45 P11 1.609844 1_555
O45 V3 1.822032 1_555
O46 P10 1.547644 1_555
O46 V4 1.888929 1_655
O47 P13 1.597691 1_555
O47 P0 1.629699 1_655
O48 P0 1.466775 1_655
O49 P13 1.579147 1_555
O49 V5 1.862350 1_655
O50 P12 1.593551 1_555
O50 V5 1.905166 1_655
O51 P15 1.539027 1_555
O51 V4 1.901211 1_655
O52 P15 1.549669 1_555
O52 V3 2.011101 1_555
O53 P7 1.500980 1_555
O54 P7 1.599916 1_545
O54 P14 1.636075 1_555
O55 P14 1.567817 1_555
O55 V5 1.963243 1_655
O56 P2 1.492930 1_555
O57 P15 1.613551 1_555
O57 P2 1.624962 1_655
