# generated using pymatgen
data_Bi11PO20
_symmetry_space_group_name_H-M   'P 1'
_cell_length_a   8.81050000
_cell_length_b   8.95354885
_cell_length_c   8.97081012
_cell_angle_alpha   109.78217184
_cell_angle_beta   110.49122508
_cell_angle_gamma   107.71382547
_symmetry_Int_Tables_number   1
_chemical_formula_structural   Bi11PO20
_chemical_formula_sum   'Bi11 P1 O20'
_cell_volume   547.34894954
_cell_formula_units_Z   1
loop_
 _symmetry_equiv_pos_site_id
 _symmetry_equiv_pos_as_xyz
  1  'x, y, z'
loop_
 _atom_site_type_symbol
 _atom_site_label
 _atom_site_symmetry_multiplicity
 _atom_site_fract_x
 _atom_site_fract_y
 _atom_site_fract_z
 _atom_site_occupancy
  Bi  Bi0  1  0.29835700  0.14439700  0.49481500  1
  Bi  Bi1  1  0.72024100  0.21437700  0.86060800  1
  Bi  Bi2  1  0.15913000  0.49830900  0.28769700  1
  Bi  Bi3  1  0.21213800  0.85842300  0.70822700  1
  Bi  Bi4  1  0.47393400  0.62512300  0.78574900  1
  Bi  Bi5  1  0.49131300  0.30305900  0.14889900  1
  Bi  Bi6  1  0.80860500  0.48972500  0.66695900  1
  Bi  Bi7  1  0.85159600  0.15082400  0.37427900  1
  Bi  Bi8  1  0.66571100  0.80267100  0.52176400  1
  Bi  Bi9  1  0.34035900  0.82399700  0.12593900  1
  Bi  Bi10  1  0.85063400  0.69873400  0.20395500  1
  P  P0  1  0.00282400  0.99422200  0.00265400  1
  O  O0  1  0.98810500  0.95896300  0.81325600  1
  O  O1  1  0.00304400  0.99648000  0.41213300  1
  O  O2  1  0.37129800  0.11651100  0.74220700  1
  O  O3  1  0.24004200  0.65056000  0.84587500  1
  O  O4  1  0.24374400  0.36504100  0.57110700  1
  O  O5  1  0.18446800  0.16740600  0.16360000  1
  O  O6  1  0.62573900  0.37907200  0.75309700  1
  O  O7  1  0.40758400  0.01406900  0.00961000  1
  O  O8  1  0.99359000  0.44400800  0.01109200  1
  O  O9  1  0.39077100  0.75810600  0.64019700  1
  O  O10  1  0.11675100  0.73834000  0.37023300  1
  O  O11  1  0.83726600  0.22807200  0.62496800  1
  O  O12  1  0.62168500  0.27437100  0.37861400  1
  O  O13  1  0.60290600  0.59841500  0.60155900  1
  O  O14  1  0.38771500  0.63086000  0.26423000  1
  O  O15  1  0.83358300  0.01689400  0.00332800  1
  O  O16  1  0.99878200  0.82631200  0.02410400  1
  O  O17  1  0.73625800  0.36506800  0.11607800  1
  O  O18  1  0.76799900  0.64635400  0.39252500  1
  O  O19  1  0.62981900  0.88032000  0.23703200  1
loop_
_geom_bond_atom_site_label_1
_geom_bond_atom_site_label_2
_geom_bond_distance
_geom_bond_site_symmetry_2
Bi0 O4 2.120500 1_555
Bi0 O2 2.207901 1_555
Bi0 O1 2.227292 1_545
Bi0 O6 2.537850 1_555
Bi1 O17 2.158060 1_556
Bi1 O8 2.163691 1_556
Bi1 O6 2.223841 1_555
Bi1 O2 2.606177 1_555
Bi1 O11 2.677882 1_555
Bi1 O15 2.733961 1_556
Bi2 O14 2.126096 1_555
Bi2 O8 2.176892 1_455
Bi2 O10 2.216110 1_555
Bi2 O9 2.681288 1_555
Bi3 O2 2.156661 1_565
Bi3 O9 2.194958 1_555
Bi3 O7 2.224144 1_566
Bi3 O10 2.552492 1_555
Bi3 O3 2.582714 1_555
Bi3 O0 2.720906 1_455
Bi4 O9 2.138428 1_555
Bi4 O4 2.144838 1_555
Bi4 O13 2.300220 1_555
Bi4 O3 2.360073 1_555
Bi5 O12 2.124279 1_555
Bi5 O7 2.192082 1_555
Bi5 O17 2.208773 1_555
Bi5 O5 2.676039 1_555
Bi5 O18 2.707385 1_555
Bi6 O6 2.143117 1_555
Bi6 O12 2.197750 1_555
Bi6 O13 2.300218 1_555
Bi6 O11 2.350161 1_555
Bi7 O19 2.148767 1_545
Bi7 O11 2.179647 1_555
Bi7 O1 2.219906 1_645
Bi7 O12 2.591892 1_555
Bi8 O18 2.125065 1_555
Bi8 O13 2.170438 1_555
Bi8 O14 2.245597 1_555
Bi8 O0 2.601591 1_555
Bi9 O3 2.115190 1_554
Bi9 O19 2.202096 1_555
Bi9 O7 2.314631 1_565
Bi9 O14 2.496449 1_555
Bi9 O16 2.831572 1_455
Bi10 O10 2.129656 1_655
Bi10 O18 2.191602 1_555
Bi10 O1 2.256909 1_655
Bi10 O17 2.565099 1_555
Bi10 O16 2.725102 1_555
O0 P0 1.568763 1_656
O5 P0 1.551431 1_545
O15 P0 1.566617 1_645
O16 P0 1.570513 1_655
