# generated using pymatgen
data_Li5Mn8(BO3)8
_symmetry_space_group_name_H-M   'P 1'
_cell_length_a   5.26743700
_cell_length_b   9.14694200
_cell_length_c   11.46483197
_cell_angle_alpha   112.02228118
_cell_angle_beta   102.65716734
_cell_angle_gamma   89.83485133
_symmetry_Int_Tables_number   1
_chemical_formula_structural   Li5Mn8(BO3)8
_chemical_formula_sum   'Li5 Mn8 B8 O24'
_cell_volume   497.71601165
_cell_formula_units_Z   1
loop_
 _symmetry_equiv_pos_site_id
 _symmetry_equiv_pos_as_xyz
  1  'x, y, z'
loop_
 _atom_site_type_symbol
 _atom_site_label
 _atom_site_symmetry_multiplicity
 _atom_site_fract_x
 _atom_site_fract_y
 _atom_site_fract_z
 _atom_site_occupancy
  Li  Li0  1  0.99839800  0.97269600  0.82725000  1
  Li  Li1  1  0.71882300  0.73478000  0.31466700  1
  Li  Li2  1  0.52070900  0.49647300  0.84375300  1
  Li  Li3  1  0.23255600  0.26457700  0.34695900  1
  Li  Li4  1  0.21845000  0.22421600  0.60192400  1
  Mn  Mn0  1  0.75833600  0.42963800  0.37827500  1
  Mn  Mn1  1  0.73583800  0.04014500  0.61177200  1
  Mn  Mn2  1  0.45498400  0.15390900  0.11928800  1
  Mn  Mn3  1  0.52479400  0.86130100  0.87407300  1
  Mn  Mn4  1  0.25562200  0.93837900  0.36218400  1
  Mn  Mn5  1  0.01256500  0.64212100  0.11462200  1
  Mn  Mn6  1  0.23698000  0.58047400  0.62331200  1
  Mn  Mn7  1  0.02105700  0.32957600  0.87093300  1
  B  B0  1  0.95370700  0.32931300  0.14260500  1
  B  B1  1  0.77341700  0.10848500  0.38116700  1
  B  B2  1  0.73174900  0.38494800  0.62069700  1
  B  B3  1  0.48178200  0.81372300  0.11289900  1
  B  B4  1  0.51770800  0.17538500  0.86344800  1
  B  B5  1  0.26249900  0.60102700  0.36307000  1
  B  B6  1  0.25337100  0.90222400  0.63496900  1
  B  B7  1  0.02950100  0.68386000  0.87665200  1
  O  O0  1  0.72661400  0.35751600  0.19126300  1
  O  O1  1  0.64206900  0.70591000  0.13221400  1
  O  O2  1  0.84405600  0.47293300  0.56385400  1
  O  O3  1  0.88736600  0.28096300  0.66122900  1
  O  O4  1  0.54509800  0.91891000  0.05775500  1
  O  O5  1  0.93653700  0.57436100  0.92168700  1
  O  O6  1  0.66872800  0.98302800  0.40199500  1
  O  O7  1  0.88782000  0.80563700  0.87064500  1
  O  O8  1  0.60001600  0.20944400  0.34392200  1
  O  O9  1  0.75492800  0.13470600  0.83234300  1
  O  O10  1  0.52194000  0.60607700  0.37038300  1
  O  O11  1  0.48374100  0.40410500  0.63967800  1
  O  O12  1  0.24382100  0.83278000  0.15249800  1
  O  O13  1  0.43285800  0.81209900  0.68623700  1
  O  O14  1  0.33643700  0.99287200  0.57407900  1
  O  O15  1  0.11350200  0.22260700  0.16487900  1
  O  O16  1  0.40170400  0.30492500  0.85488400  1
  O  O17  1  0.00391200  0.41383200  0.07036100  1
  O  O18  1  0.09906100  0.69386300  0.30777100  1
  O  O19  1  0.38650400  0.07539800  0.90590000  1
  O  O20  1  0.14637800  0.50747800  0.41344300  1
  O  O21  1  0.26360000  0.65975700  0.83596700  1
  O  O22  1  0.03825700  0.13503800  0.39912300  1
  O  O23  1  0.00443300  0.89458400  0.64609000  1
loop_
_geom_bond_atom_site_label_1
_geom_bond_atom_site_label_2
_geom_bond_distance
_geom_bond_site_symmetry_2
Li0 O7 1.903699 1_555
Li0 O23 1.934225 1_655
Li0 O9 1.949643 1_565
Li0 O19 2.107799 1_665
Li1 O10 1.931509 1_555
Li1 O1 1.955642 1_555
Li1 O18 2.049570 1_655
Li1 O6 2.153033 1_555
Li2 O16 1.920436 1_555
Li2 O21 2.026856 1_555
Li2 O11 2.131836 1_555
Li2 O5 2.185747 1_555
Li3 O22 1.901508 1_555
Li3 O15 1.930045 1_555
Li3 O8 2.003175 1_555
Li3 O20 2.144584 1_555
Li4 O3 2.005713 1_455
Li4 O11 2.015345 1_555
Li4 O14 2.130436 1_545
Li4 O22 2.141798 1_555
Mn0 O2 1.958487 1_555
Mn0 O0 1.960363 1_555
Mn0 O8 2.044025 1_555
Mn0 O10 2.052282 1_555
Mn0 O20 2.068655 1_655
Mn1 O23 2.016745 1_645
Mn1 O14 2.065543 1_545
Mn1 O3 2.164674 1_555
Mn1 O6 2.206445 1_545
Mn1 O9 2.324192 1_555
Mn2 O15 2.015615 1_555
Mn2 O4 2.084969 1_545
Mn2 O0 2.131200 1_555
Mn2 O19 2.219955 1_554
Mn2 O8 2.373443 1_555
Mn3 O4 1.947636 1_556
Mn3 O13 1.972832 1_555
Mn3 O7 1.982340 1_555
Mn3 O19 2.017722 1_565
Mn3 O21 2.151629 1_555
Mn4 O22 2.086955 1_565
Mn4 O6 2.130779 1_555
Mn4 O18 2.193251 1_555
Mn4 O12 2.215761 1_555
Mn4 O14 2.229639 1_555
Mn5 O17 1.953382 1_555
Mn5 O12 1.981480 1_555
Mn5 O5 2.005597 1_454
Mn5 O18 2.026913 1_555
Mn5 O1 2.065769 1_455
Mn6 O11 2.106004 1_555
Mn6 O2 2.146286 1_455
Mn6 O13 2.147999 1_555
Mn6 O20 2.181001 1_555
Mn6 O21 2.239311 1_555
Mn7 O16 2.057381 1_555
Mn7 O9 2.118778 1_455
Mn7 O17 2.144389 1_556
Mn7 O5 2.163514 1_455
Mn7 O3 2.220817 1_455
B0 O15 1.346966 1_655
B0 O17 1.389603 1_655
B0 O0 1.411161 1_555
B1 O22 1.373345 1_655
B1 O6 1.394571 1_545
B1 O8 1.410434 1_555
B2 O11 1.370883 1_555
B2 O3 1.397344 1_555
B2 O2 1.409743 1_555
B3 O1 1.345893 1_555
B3 O4 1.409633 1_555
B3 O12 1.412938 1_555
B4 O16 1.357855 1_555
B4 O9 1.385664 1_555
B4 O19 1.426825 1_555
B5 O10 1.350547 1_555
B5 O20 1.402952 1_555
B5 O18 1.422854 1_555
B6 O23 1.349457 1_555
B6 O14 1.391511 1_555
B6 O13 1.426279 1_555
B7 O7 1.353757 1_455
B7 O21 1.400033 1_555
B7 O5 1.418091 1_455
