# generated using pymatgen
data_Fe5O3F7
_symmetry_space_group_name_H-M   'P 1'
_cell_length_a   15.62487200
_cell_length_b   4.82185300
_cell_length_c   4.82237271
_cell_angle_alpha   88.50490864
_cell_angle_beta   90.00000000
_cell_angle_gamma   90.00000000
_symmetry_Int_Tables_number   1
_chemical_formula_structural   Fe5O3F7
_chemical_formula_sum   'Fe10 O6 F14'
_cell_volume   363.19790332
_cell_formula_units_Z   2
loop_
 _symmetry_equiv_pos_site_id
 _symmetry_equiv_pos_as_xyz
  1  'x, y, z'
loop_
 _atom_site_type_symbol
 _atom_site_label
 _atom_site_symmetry_multiplicity
 _atom_site_fract_x
 _atom_site_fract_y
 _atom_site_fract_z
 _atom_site_occupancy
  Fe  Fe0  1  0.39846600  0.02090900  0.98005700  1
  Fe  Fe1  1  0.60153400  0.02090900  0.98005700  1
  Fe  Fe2  1  0.80718800  0.95944600  0.01970200  1
  Fe  Fe3  1  0.00000000  0.97911500  0.97121200  1
  Fe  Fe4  1  0.19281200  0.95944600  0.01970200  1
  Fe  Fe5  1  0.50000000  0.47692200  0.52351800  1
  Fe  Fe6  1  0.89481500  0.52574900  0.50806700  1
  Fe  Fe7  1  0.69943400  0.49667400  0.49555500  1
  Fe  Fe8  1  0.10518500  0.52574900  0.50806700  1
  Fe  Fe9  1  0.30056600  0.49667400  0.49555500  1
  O  O0  1  0.90026300  0.81621800  0.81733900  1
  O  O1  1  0.09973700  0.81621800  0.81733900  1
  O  O2  1  0.79100700  0.68889400  0.30975000  1
  O  O3  1  0.20899300  0.68889400  0.30975000  1
  O  O4  1  0.39779400  0.32264000  0.67552200  1
  O  O5  1  0.60220600  0.32264000  0.67552200  1
  F  F0  1  0.50000000  0.80382000  0.78672000  1
  F  F1  1  0.70372700  0.79838400  0.80163100  1
  F  F2  1  0.29627300  0.79838400  0.80163100  1
  F  F3  1  0.40233600  0.70183400  0.29698100  1
  F  F4  1  0.59766400  0.70183400  0.29698100  1
  F  F5  1  0.00000000  0.71287100  0.29648700  1
  F  F6  1  0.79194900  0.28617100  0.71581200  1
  F  F7  1  0.00000000  0.30965100  0.69571400  1
  F  F8  1  0.20805100  0.28617100  0.71581200  1
  F  F9  1  0.50000000  0.21405100  0.19617300  1
  F  F10  1  0.90186400  0.19075700  0.19622900  1
  F  F11  1  0.70517800  0.19410800  0.19844200  1
  F  F12  1  0.29482200  0.19410800  0.19844200  1
  F  F13  1  0.09813600  0.19075700  0.19622900  1
loop_
_geom_bond_atom_site_label_1
_geom_bond_atom_site_label_2
_geom_bond_distance
_geom_bond_site_symmetry_2
Fe0 O4 2.040119 1_555
Fe1 O5 2.040119 1_555
Fe2 O0 1.891930 1_554
Fe2 O2 1.904469 1_555
Fe3 O0 1.904344 1_455
Fe3 O1 1.904344 1_555
Fe4 O1 1.891930 1_554
Fe4 O3 1.904469 1_555
Fe5 O4 1.900672 1_555
Fe5 O5 1.900672 1_555
Fe6 O2 2.031019 1_555
Fe6 O0 2.074193 1_555
Fe7 O2 1.914632 1_555
Fe7 O5 1.930618 1_555
Fe8 O3 2.031019 1_555
Fe8 O1 2.074193 1_555
Fe9 O3 1.914632 1_555
Fe9 O4 1.930618 1_555
F0 Fe5 2.049389 1_555
F0 Fe1 2.129029 1_565
F0 Fe0 2.129029 1_565
F1 Fe2 2.089243 1_556
F1 Fe7 2.100384 1_555
F1 Fe1 2.118830 1_565
F2 Fe4 2.089243 1_556
F2 Fe9 2.100384 1_555
F2 Fe0 2.118830 1_565
F3 Fe9 2.091587 1_555
F3 Fe0 2.140985 1_564
F3 Fe5 2.153225 1_555
F4 Fe7 2.091587 1_555
F4 Fe1 2.140985 1_564
F4 Fe5 2.153225 1_555
F5 Fe3 2.000882 1_554
F5 Fe6 2.123254 1_455
F5 Fe8 2.123254 1_555
F6 Fe7 2.047377 1_555
F6 Fe2 2.136767 1_546
F6 Fe6 2.204786 1_555
F7 Fe3 2.048108 1_545
F7 Fe6 2.134595 1_455
F7 Fe8 2.134595 1_555
F8 Fe9 2.047377 1_555
F8 Fe4 2.136767 1_546
F8 Fe8 2.204786 1_555
F9 Fe5 2.050109 1_555
F9 Fe1 2.126259 1_554
F9 Fe0 2.126259 1_554
F10 Fe2 2.050988 1_545
F10 Fe3 2.151254 1_644
F10 Fe6 2.238176 1_555
F11 Fe7 2.073281 1_555
F11 Fe1 2.115415 1_554
F11 Fe2 2.148175 1_545
F12 Fe9 2.073281 1_555
F12 Fe0 2.115415 1_554
F12 Fe4 2.148175 1_545
F13 Fe4 2.050988 1_545
F13 Fe3 2.151254 1_544
F13 Fe8 2.238176 1_555
