# generated using pymatgen
data_Tm3TaO7
_symmetry_space_group_name_H-M   'P 1'
_cell_length_a   6.38592374
_cell_length_b   6.38592431
_cell_length_c   7.42868000
_cell_angle_alpha   90.00000000
_cell_angle_beta   90.00000000
_cell_angle_gamma   110.19791223
_symmetry_Int_Tables_number   1
_chemical_formula_structural   Tm3TaO7
_chemical_formula_sum   'Tm6 Ta2 O14'
_cell_volume   284.31254040
_cell_formula_units_Z   2
loop_
 _symmetry_equiv_pos_site_id
 _symmetry_equiv_pos_as_xyz
  1  'x, y, z'
loop_
 _atom_site_type_symbol
 _atom_site_label
 _atom_site_symmetry_multiplicity
 _atom_site_fract_x
 _atom_site_fract_y
 _atom_site_fract_z
 _atom_site_occupancy
  Tm  Tm0  1  0.51404300  0.05247800  0.25000000  1
  Tm  Tm1  1  0.94752200  0.48595700  0.75000000  1
  Tm  Tm2  1  0.00000000  0.00000000  0.00000000  1
  Tm  Tm3  1  0.00000000  0.00000000  0.50000000  1
  Tm  Tm4  1  0.48595700  0.94752200  0.75000000  1
  Tm  Tm5  1  0.05247800  0.51404300  0.25000000  1
  Ta  Ta0  1  0.50000000  0.50000000  0.00000000  1
  Ta  Ta1  1  0.50000000  0.50000000  0.50000000  1
  O  O0  1  0.88659300  0.15297700  0.25000000  1
  O  O1  1  0.84702300  0.11340700  0.75000000  1
  O  O2  1  0.82483200  0.56362600  0.03666800  1
  O  O3  1  0.82483200  0.56362600  0.46333200  1
  O  O4  1  0.43637400  0.17516800  0.96333200  1
  O  O5  1  0.43637400  0.17516800  0.53666800  1
  O  O6  1  0.58598600  0.58598600  0.75000000  1
  O  O7  1  0.41401400  0.41401400  0.25000000  1
  O  O8  1  0.56362600  0.82483200  0.03666800  1
  O  O9  1  0.17516800  0.43637400  0.53666800  1
  O  O10  1  0.17516800  0.43637400  0.96333200  1
  O  O11  1  0.56362600  0.82483200  0.46333200  1
  O  O12  1  0.11340700  0.84702300  0.75000000  1
  O  O13  1  0.15297700  0.88659300  0.25000000  1
loop_
_geom_bond_atom_site_label_1
_geom_bond_atom_site_label_2
_geom_bond_distance
_geom_bond_site_symmetry_2
O0 Tm5 2.179903 1_655
O0 Tm0 2.239990 1_555
O0 Tm3 2.327321 1_655
O0 Tm2 2.327321 1_655
O1 Tm4 2.179902 1_545
O1 Tm1 2.239990 1_555
O1 Tm2 2.327321 1_656
O1 Tm3 2.327321 1_655
O2 Ta0 1.990032 1_555
O2 Tm5 2.245651 1_655
O2 Tm1 2.379758 1_554
O2 Tm2 2.634087 1_665
O3 Ta1 1.990032 1_555
O3 Tm5 2.245651 1_655
O3 Tm1 2.379758 1_555
O3 Tm3 2.634087 1_665
O4 Ta0 1.990032 1_556
O4 Tm4 2.245651 1_545
O4 Tm0 2.379758 1_556
O4 Tm2 2.634087 1_556
O5 Ta1 1.990032 1_555
O5 Tm4 2.245651 1_545
O5 Tm0 2.379758 1_555
O5 Tm3 2.634087 1_555
O6 Ta0 1.960587 1_556
O6 Ta1 1.960587 1_555
O6 Tm1 2.599364 1_555
O6 Tm4 2.599365 1_555
O7 Ta0 1.960587 1_555
O7 Ta1 1.960587 1_555
O7 Tm5 2.599364 1_555
O7 Tm0 2.599365 1_555
O8 Ta0 1.990032 1_555
O8 Tm0 2.245651 1_565
O8 Tm4 2.379758 1_554
O8 Tm2 2.634087 1_665
O9 Ta1 1.990032 1_555
O9 Tm1 2.245651 1_455
O9 Tm5 2.379758 1_555
O9 Tm3 2.634087 1_555
O10 Ta0 1.990032 1_556
O10 Tm1 2.245651 1_455
O10 Tm5 2.379758 1_556
O10 Tm2 2.634087 1_556
O11 Ta1 1.990032 1_555
O11 Tm0 2.245651 1_565
O11 Tm4 2.379758 1_555
O11 Tm3 2.634087 1_665
O12 Tm1 2.179903 1_455
O12 Tm4 2.239990 1_555
O12 Tm2 2.327321 1_566
O12 Tm3 2.327321 1_565
O13 Tm0 2.179902 1_565
O13 Tm5 2.239990 1_555
O13 Tm3 2.327321 1_565
O13 Tm2 2.327321 1_565
