# generated using pymatgen
data_MgTi11O20
_symmetry_space_group_name_H-M   'P 1'
_cell_length_a   10.04690800
_cell_length_b   7.56104700
_cell_length_c   10.59808502
_cell_angle_alpha   70.26699085
_cell_angle_beta   90.00000000
_cell_angle_gamma   90.00000000
_symmetry_Int_Tables_number   1
_chemical_formula_structural   MgTi11O20
_chemical_formula_sum   'Mg2 Ti22 O40'
_cell_volume   757.80738207
_cell_formula_units_Z   2
loop_
 _symmetry_equiv_pos_site_id
 _symmetry_equiv_pos_as_xyz
  1  'x, y, z'
loop_
 _atom_site_type_symbol
 _atom_site_label
 _atom_site_symmetry_multiplicity
 _atom_site_fract_x
 _atom_site_fract_y
 _atom_site_fract_z
 _atom_site_occupancy
  Mg  Mg0  1  0.25000000  0.34753500  0.77175500  1
  Mg  Mg1  1  0.75000000  0.65246500  0.22824500  1
  Ti  Ti0  1  0.94102300  0.31764700  0.72685600  1
  Ti  Ti1  1  0.55897700  0.31764700  0.72685600  1
  Ti  Ti2  1  0.75000000  0.65162300  0.72972100  1
  Ti  Ti3  1  0.06092600  0.68097600  0.77487900  1
  Ti  Ti4  1  0.43907400  0.68097600  0.77487900  1
  Ti  Ti5  1  0.56096700  0.81542600  0.97680900  1
  Ti  Ti6  1  0.56092600  0.31902400  0.22512100  1
  Ti  Ti7  1  0.93903300  0.81542600  0.97680900  1
  Ti  Ti8  1  0.93907400  0.31902400  0.22512100  1
  Ti  Ti9  1  0.25000000  0.34837700  0.27027900  1
  Ti  Ti10  1  0.25000000  0.84975800  0.02037400  1
  Ti  Ti11  1  0.75000000  0.15024200  0.97962600  1
  Ti  Ti12  1  0.05897700  0.68235300  0.27314400  1
  Ti  Ti13  1  0.06096700  0.18457400  0.02319100  1
  Ti  Ti14  1  0.44102300  0.68235300  0.27314400  1
  Ti  Ti15  1  0.43903300  0.18457400  0.02319100  1
  Ti  Ti16  1  0.93892900  0.81663300  0.47446200  1
  Ti  Ti17  1  0.56107100  0.81663300  0.47446200  1
  Ti  Ti18  1  0.25000000  0.84466600  0.52355200  1
  Ti  Ti19  1  0.75000000  0.15533400  0.47644800  1
  Ti  Ti20  1  0.06107100  0.18336700  0.52553800  1
  Ti  Ti21  1  0.43892900  0.18336700  0.52553800  1
  O  O0  1  0.38578200  0.27259000  0.65905200  1
  O  O1  1  0.11421800  0.27259000  0.65905200  1
  O  O2  1  0.93014300  0.59439600  0.63887200  1
  O  O3  1  0.56985700  0.59439600  0.63887200  1
  O  O4  1  0.75000000  0.36578400  0.80007200  1
  O  O5  1  0.25000000  0.64157300  0.69880800  1
  O  O6  1  0.06692300  0.40666900  0.85966900  1
  O  O7  1  0.43307700  0.40666900  0.85966900  1
  O  O8  1  0.62041400  0.72602000  0.83838700  1
  O  O9  1  0.87958600  0.72602000  0.83838700  1
  O  O10  1  0.37958600  0.27398000  0.16161300  1
  O  O11  1  0.12041400  0.27398000  0.16161300  1
  O  O12  1  0.12063700  0.77518800  0.91159900  1
  O  O13  1  0.37936300  0.77518800  0.91159900  1
  O  O14  1  0.56906300  0.09280300  0.88985200  1
  O  O15  1  0.93093700  0.09280300  0.88985200  1
  O  O16  1  0.93307700  0.59333100  0.14033100  1
  O  O17  1  0.56692300  0.59333100  0.14033100  1
  O  O18  1  0.75000000  0.35842700  0.30119200  1
  O  O19  1  0.75000000  0.87205100  0.04461100  1
  O  O20  1  0.25000000  0.63421600  0.19992800  1
  O  O21  1  0.25000000  0.12794900  0.95538900  1
  O  O22  1  0.06985700  0.40560400  0.36112800  1
  O  O23  1  0.43014300  0.40560400  0.36112800  1
  O  O24  1  0.06906300  0.90719700  0.11014800  1
  O  O25  1  0.43093700  0.90719700  0.11014800  1
  O  O26  1  0.61421800  0.72741000  0.34094800  1
  O  O27  1  0.62063700  0.22481200  0.08840100  1
  O  O28  1  0.87936300  0.22481200  0.08840100  1
  O  O29  1  0.88578200  0.72741000  0.34094800  1
  O  O30  1  0.38005400  0.77411700  0.41190100  1
  O  O31  1  0.11994600  0.77411700  0.41190100  1
  O  O32  1  0.56904400  0.09270600  0.39094500  1
  O  O33  1  0.93095600  0.09270600  0.39094500  1
  O  O34  1  0.75000000  0.86720000  0.54908200  1
  O  O35  1  0.25000000  0.13280000  0.45091800  1
  O  O36  1  0.06904400  0.90729400  0.60905500  1
  O  O37  1  0.43095600  0.90729400  0.60905500  1
  O  O38  1  0.61994600  0.22588300  0.58809900  1
  O  O39  1  0.88005400  0.22588300  0.58809900  1
loop_
_geom_bond_atom_site_label_1
_geom_bond_atom_site_label_2
_geom_bond_distance
_geom_bond_site_symmetry_2
Mg0 O1 2.016396 1_555
Mg0 O0 2.016396 1_555
Mg0 O21 2.088589 1_555
Mg0 O5 2.092799 1_555
Mg0 O7 2.175445 1_555
Mg0 O6 2.175445 1_555
Mg1 O29 2.016396 1_555
Mg1 O26 2.016396 1_555
Mg1 O19 2.088589 1_555
Mg1 O18 2.092799 1_555
Mg1 O16 2.175445 1_555
Mg1 O17 2.175445 1_555
O0 Ti21 1.840391 1_555
O0 Ti1 1.955916 1_555
O1 Ti20 1.840391 1_555
O1 Ti0 1.955916 1_455
O2 Ti16 1.972381 1_555
O2 Ti0 1.985561 1_555
O2 Ti2 2.161308 1_555
O2 Ti3 2.206788 1_655
O3 Ti17 1.972381 1_555
O3 Ti1 1.985561 1_555
O3 Ti2 2.161308 1_555
O3 Ti4 2.206788 1_555
O4 Ti2 2.034388 1_555
O4 Ti11 2.045224 1_555
O4 Ti1 2.146758 1_555
O4 Ti0 2.146758 1_555
O5 Ti18 1.970254 1_555
O5 Ti3 2.123544 1_555
O5 Ti4 2.123544 1_555
O6 Ti3 1.963226 1_555
O6 Ti13 1.965120 1_556
O6 Ti0 2.161958 1_455
O7 Ti4 1.963226 1_555
O7 Ti15 1.965120 1_556
O7 Ti1 2.161958 1_555
O8 Ti5 1.906694 1_555
O8 Ti2 1.942996 1_555
O8 Ti4 2.010757 1_555
O9 Ti7 1.906694 1_555
O9 Ti2 1.942996 1_555
O9 Ti3 2.010757 1_655
O10 Ti15 1.906694 1_555
O10 Ti9 1.942996 1_555
O10 Ti6 2.010757 1_555
O11 Ti13 1.906694 1_555
O11 Ti9 1.942996 1_555
O11 Ti8 2.010757 1_455
O12 Ti3 1.914114 1_555
O12 Ti10 1.942935 1_556
O12 Ti7 2.010269 1_455
O13 Ti4 1.914114 1_555
O13 Ti10 1.942935 1_556
O13 Ti5 2.010269 1_555
O14 Ti1 1.975199 1_555
O14 Ti5 1.987274 1_545
O14 Ti11 2.162747 1_555
O14 Ti15 2.201649 1_556
O15 Ti0 1.975199 1_555
O15 Ti7 1.987274 1_545
O15 Ti11 2.162747 1_555
O15 Ti13 2.201649 1_656
O16 Ti8 1.963226 1_555
O16 Ti7 1.965120 1_554
O16 Ti12 2.161958 1_655
O17 Ti6 1.963226 1_555
O17 Ti5 1.965120 1_554
O17 Ti14 2.161958 1_555
O18 Ti19 1.970254 1_555
O18 Ti6 2.123544 1_555
O18 Ti8 2.123544 1_555
O19 Ti11 1.980011 1_564
O19 Ti5 2.124700 1_554
O19 Ti7 2.124700 1_554
O20 Ti9 2.034388 1_555
O20 Ti10 2.045224 1_555
O20 Ti12 2.146758 1_555
O20 Ti14 2.146758 1_555
O21 Ti10 1.980011 1_546
O21 Ti15 2.124700 1_556
O21 Ti13 2.124700 1_556
O22 Ti20 1.972381 1_555
O22 Ti12 1.985561 1_555
O22 Ti9 2.161308 1_555
O22 Ti8 2.206788 1_455
O23 Ti21 1.972381 1_555
O23 Ti14 1.985561 1_555
O23 Ti9 2.161308 1_555
O23 Ti6 2.206788 1_555
O24 Ti12 1.975199 1_555
O24 Ti13 1.987274 1_565
O24 Ti10 2.162747 1_555
O24 Ti7 2.201649 1_454
O25 Ti14 1.975199 1_555
O25 Ti15 1.987274 1_565
O25 Ti10 2.162747 1_555
O25 Ti5 2.201649 1_554
O26 Ti17 1.840391 1_555
O26 Ti14 1.955916 1_555
O27 Ti6 1.914114 1_555
O27 Ti11 1.942935 1_554
O27 Ti15 2.010269 1_555
O28 Ti8 1.914114 1_555
O28 Ti11 1.942935 1_554
O28 Ti13 2.010269 1_655
O29 Ti16 1.840391 1_555
O29 Ti12 1.955916 1_655
O30 Ti14 1.925658 1_555
O30 Ti18 1.954034 1_555
O30 Ti17 1.998600 1_555
O31 Ti12 1.925658 1_555
O31 Ti18 1.954034 1_555
O31 Ti16 1.998600 1_455
O32 Ti17 1.974705 1_545
O32 Ti6 1.998155 1_555
O32 Ti19 2.154167 1_555
O32 Ti21 2.207667 1_555
O33 Ti16 1.974705 1_545
O33 Ti8 1.998155 1_555
O33 Ti19 2.154167 1_555
O33 Ti20 2.207667 1_655
O34 Ti19 2.050945 1_565
O34 Ti2 2.052974 1_555
O34 Ti17 2.139803 1_555
O34 Ti16 2.139803 1_555
O35 Ti18 2.050945 1_545
O35 Ti9 2.052974 1_555
O35 Ti20 2.139803 1_555
O35 Ti21 2.139803 1_555
O36 Ti20 1.974705 1_565
O36 Ti3 1.998155 1_555
O36 Ti18 2.154167 1_555
O36 Ti16 2.207667 1_455
O37 Ti21 1.974705 1_565
O37 Ti4 1.998155 1_555
O37 Ti18 2.154167 1_555
O37 Ti17 2.207667 1_555
O38 Ti1 1.925658 1_555
O38 Ti19 1.954034 1_555
O38 Ti21 1.998600 1_555
O39 Ti0 1.925658 1_555
O39 Ti19 1.954034 1_555
O39 Ti20 1.998600 1_655
