# generated using pymatgen
data_Mn3Nb(PO4)6
_symmetry_space_group_name_H-M   'P 1'
_cell_length_a   8.75714956
_cell_length_b   8.75714956
_cell_length_c   8.75714999
_cell_angle_alpha   58.31185555
_cell_angle_beta   58.31185555
_cell_angle_gamma   58.31186015
_symmetry_Int_Tables_number   1
_chemical_formula_structural   Mn3Nb(PO4)6
_chemical_formula_sum   'Mn3 Nb1 P6 O24'
_cell_volume   456.51089442
_cell_formula_units_Z   1
loop_
 _symmetry_equiv_pos_site_id
 _symmetry_equiv_pos_as_xyz
  1  'x, y, z'
loop_
 _atom_site_type_symbol
 _atom_site_label
 _atom_site_symmetry_multiplicity
 _atom_site_fract_x
 _atom_site_fract_y
 _atom_site_fract_z
 _atom_site_occupancy
  Mn  Mn0  1  0.14463900  0.14463900  0.14463900  1
  Mn  Mn1  1  0.35659400  0.35659400  0.35659400  1
  Mn  Mn2  1  0.64457800  0.64457800  0.64457800  1
  Nb  Nb0  1  0.86101900  0.86101900  0.86101900  1
  P  P0  1  0.74956800  0.03689100  0.45797800  1
  P  P1  1  0.03689100  0.45797800  0.74956800  1
  P  P2  1  0.45797800  0.74956800  0.03689100  1
  P  P3  1  0.52336900  0.26403500  0.96769200  1
  P  P4  1  0.96769200  0.52336900  0.26403500  1
  P  P5  1  0.26403500  0.96769200  0.52336900  1
  O  O0  1  0.27926400  0.14219400  0.50737800  1
  O  O1  1  0.50737800  0.27926400  0.14219400  1
  O  O2  1  0.92578000  0.06182200  0.27583700  1
  O  O3  1  0.14219400  0.50737800  0.27926400  1
  O  O4  1  0.57487400  0.22048200  0.43628600  1
  O  O5  1  0.77838700  0.00725400  0.63263000  1
  O  O6  1  0.06182200  0.27583700  0.92578000  1
  O  O7  1  0.22048200  0.43628600  0.57487400  1
  O  O8  1  0.43628600  0.57487400  0.22048200  1
  O  O9  1  0.35540900  0.23200700  0.98911100  1
  O  O10  1  0.70686400  0.08561500  0.94027700  1
  O  O11  1  0.98911100  0.35540900  0.23200700  1
  O  O12  1  0.00725400  0.63263000  0.77838700  1
  O  O13  1  0.27583700  0.92578000  0.06182200  1
  O  O14  1  0.63263000  0.77838700  0.00725400  1
  O  O15  1  0.55046300  0.43521600  0.78387000  1
  O  O16  1  0.78387000  0.55046300  0.43521600  1
  O  O17  1  0.94027700  0.70686400  0.08561500  1
  O  O18  1  0.23200700  0.98911100  0.35540900  1
  O  O19  1  0.43521600  0.78387000  0.55046300  1
  O  O20  1  0.86067100  0.48496000  0.72698800  1
  O  O21  1  0.08561500  0.94027700  0.70686400  1
  O  O22  1  0.48496000  0.72698800  0.86067100  1
  O  O23  1  0.72698800  0.86067100  0.48496000  1
loop_
_geom_bond_atom_site_label_1
_geom_bond_atom_site_label_2
_geom_bond_distance
_geom_bond_site_symmetry_2
Mn0 O9 1.896032 1_554
Mn0 O18 1.896032 1_545
Mn0 O11 1.896032 1_455
Mn0 O2 1.946992 1_455
Mn0 O13 1.946992 1_545
Mn0 O6 1.946992 1_554
Mn1 O0 1.875907 1_555
Mn1 O3 1.875908 1_555
Mn1 O1 1.875908 1_555
Mn1 O8 1.922374 1_555
Mn1 O4 1.922374 1_555
Mn1 O7 1.922374 1_555
Mn2 O23 1.910940 1_555
Mn2 O22 1.910940 1_555
Mn2 O20 1.910940 1_555
Mn2 O15 1.926230 1_555
Mn2 O19 1.926231 1_555
Mn2 O16 1.926231 1_555
Nb0 O21 1.957771 1_655
Nb0 O10 1.957771 1_565
Nb0 O17 1.957771 1_556
Nb0 O14 2.004950 1_556
Nb0 O12 2.004950 1_655
Nb0 O5 2.004950 1_565
O0 P5 1.530449 1_545
O1 P3 1.530449 1_554
O2 P0 1.541186 1_555
O3 P4 1.530449 1_455
O4 P0 1.536789 1_555
O5 P0 1.545948 1_555
O6 P1 1.541186 1_555
O7 P1 1.536789 1_555
O8 P2 1.536789 1_555
O9 P3 1.538032 1_555
O10 P3 1.559511 1_555
O11 P4 1.538032 1_555
O12 P1 1.545948 1_555
O13 P2 1.541186 1_555
O14 P2 1.545948 1_555
O15 P3 1.527086 1_555
O16 P4 1.527086 1_555
O17 P4 1.559511 1_555
O18 P5 1.538032 1_555
O19 P5 1.527086 1_555
O20 P1 1.537780 1_655
O21 P5 1.559511 1_555
O22 P2 1.537780 1_556
O23 P0 1.537780 1_565
