# generated using pymatgen
data_Li6TiNi7O16
_symmetry_space_group_name_H-M   'P 1'
_cell_length_a   6.42231000
_cell_length_b   6.55295939
_cell_length_c   7.69150865
_cell_angle_alpha   75.96973190
_cell_angle_beta   65.81840334
_cell_angle_gamma   70.80066458
_symmetry_Int_Tables_number   1
_chemical_formula_structural   Li6TiNi7O16
_chemical_formula_sum   'Li6 Ti1 Ni7 O16'
_cell_volume   276.68129987
_cell_formula_units_Z   1
loop_
 _symmetry_equiv_pos_site_id
 _symmetry_equiv_pos_as_xyz
  1  'x, y, z'
loop_
 _atom_site_type_symbol
 _atom_site_label
 _atom_site_symmetry_multiplicity
 _atom_site_fract_x
 _atom_site_fract_y
 _atom_site_fract_z
 _atom_site_occupancy
  Li  Li0  1  0.17681000  0.32129700  0.44321500  1
  Li  Li1  1  0.94298100  0.54853600  0.19485100  1
  Li  Li2  1  0.56109800  0.93193300  0.30978200  1
  Li  Li3  1  0.45159500  0.05971600  0.68825600  1
  Li  Li4  1  0.05783600  0.45220400  0.80337000  1
  Li  Li5  1  0.66796100  0.83127900  0.93108800  1
  Ti  Ti0  1  0.00706600  0.02009000  0.99493900  1
  Ni  Ni0  1  0.61028700  0.37215000  0.12980300  1
  Ni  Ni1  1  0.24994500  0.75177400  0.25688300  1
  Ni  Ni2  1  0.87635900  0.12401500  0.37515700  1
  Ni  Ni3  1  0.50338600  0.49782600  0.49668700  1
  Ni  Ni4  1  0.12356500  0.86660700  0.62663400  1
  Ni  Ni5  1  0.74985700  0.25125800  0.75131500  1
  Ni  Ni6  1  0.37347300  0.61861900  0.87467700  1
  O  O0  1  0.68337900  0.07635000  0.03138000  1
  O  O1  1  0.28926800  0.49675900  0.15737600  1
  O  O2  1  0.20418900  0.00010600  0.37132400  1
  O  O3  1  0.93766000  0.28293000  0.09796300  1
  O  O4  1  0.56778000  0.64680100  0.24407600  1
  O  O5  1  0.54012400  0.24353900  0.39514200  1
  O  O6  1  0.18801800  0.58286900  0.52994300  1
  O  O7  1  0.07592400  0.16180300  0.73057100  1
  O  O8  1  0.93178400  0.86690400  0.26819000  1
  O  O9  1  0.83086600  0.38428700  0.46002600  1
  O  O10  1  0.44928200  0.75357000  0.59526100  1
  O  O11  1  0.43703100  0.35507400  0.74932900  1
  O  O12  1  0.05485200  0.72918400  0.89264500  1
  O  O13  1  0.79994200  0.99333100  0.65502800  1
  O  O14  1  0.68572900  0.50525200  0.86857700  1
  O  O15  1  0.33581400  0.89562900  0.95816400  1
loop_
_geom_bond_atom_site_label_1
_geom_bond_atom_site_label_2
_geom_bond_distance
_geom_bond_site_symmetry_2
Li0 O6 2.015711 1_555
Li0 O9 2.076214 1_455
Li0 O5 2.107908 1_555
Li0 O7 2.132902 1_555
Li0 O1 2.167217 1_555
Li0 O2 2.237830 1_555
Li1 O9 2.019658 1_555
Li1 O1 2.042098 1_655
Li1 O3 2.067548 1_555
Li1 O4 2.171331 1_555
Li1 O8 2.261530 1_555
Li1 O12 2.275412 1_654
Li2 O4 2.033650 1_555
Li2 O2 2.053743 1_565
Li2 O0 2.055765 1_565
Li2 O10 2.172331 1_555
Li2 O8 2.174029 1_555
Li2 O5 2.239508 1_565
Li3 O15 2.048834 1_545
Li3 O13 2.050603 1_545
Li3 O11 2.064271 1_555
Li3 O7 2.185212 1_555
Li3 O5 2.222735 1_555
Li3 O10 2.293598 1_545
Li4 O6 2.003062 1_555
Li4 O7 2.065512 1_555
Li4 O12 2.082516 1_555
Li4 O14 2.153988 1_455
Li4 O11 2.188175 1_555
Li4 O3 2.207246 1_456
Li5 O15 1.964315 1_555
Li5 O0 1.987896 1_566
Li5 O13 2.092574 1_555
Li5 O14 2.258616 1_555
Li5 O12 2.260440 1_655
Li5 O4 2.345685 1_556
Ni0 O1 1.892298 1_555
Ni0 O3 1.913472 1_555
Ni0 O14 1.913940 1_554
Ni0 O5 1.934119 1_555
Ni0 O4 2.081711 1_555
Ni0 O0 2.091075 1_555
Ni1 O4 1.895821 1_555
Ni1 O8 1.903748 1_455
Ni1 O1 1.904300 1_555
Ni1 O2 1.917649 1_565
Ni1 O6 2.066963 1_555
Ni1 O15 2.173802 1_554
Ni2 O9 1.864459 1_555
Ni2 O8 1.918338 1_545
Ni2 O2 1.982259 1_655
Ni2 O5 1.993528 1_555
Ni2 O13 2.031041 1_545
Ni2 O3 2.071350 1_555
Ni3 O6 1.838617 1_555
Ni3 O10 1.876541 1_555
Ni3 O11 1.880180 1_555
Ni3 O4 1.893857 1_555
Ni3 O9 1.908692 1_555
Ni3 O5 1.914113 1_555
Ni4 O2 1.876580 1_565
Ni4 O10 1.907031 1_555
Ni4 O13 1.907343 1_455
Ni4 O12 1.954534 1_555
Ni4 O6 2.023259 1_555
Ni4 O7 2.152856 1_565
Ni5 O13 1.887553 1_545
Ni5 O11 1.902775 1_555
Ni5 O7 1.928365 1_655
Ni5 O14 1.930298 1_555
Ni5 O9 2.108690 1_555
Ni5 O0 2.123081 1_556
Ni6 O14 1.880345 1_555
Ni6 O12 1.890255 1_555
Ni6 O15 1.978664 1_555
Ni6 O11 2.024827 1_555
Ni6 O1 2.033922 1_556
Ni6 O10 2.035259 1_555
O0 Ti0 1.898590 1_654
O3 Ti0 1.913278 1_654
O7 Ti0 1.952035 1_555
O8 Ti0 2.030365 1_664
O12 Ti0 2.119392 1_565
O15 Ti0 1.921694 1_565
