# generated using pymatgen
data_Li6V3P8O29
_symmetry_space_group_name_H-M   'P 1'
_cell_length_a   9.82915400
_cell_length_b   9.83153741
_cell_length_c   13.89647911
_cell_angle_alpha   89.86727311
_cell_angle_beta   89.78329647
_cell_angle_gamma   60.10428125
_symmetry_Int_Tables_number   1
_chemical_formula_structural   Li6V3P8O29
_chemical_formula_sum   'Li12 V6 P16 O58'
_cell_volume   1164.19365400
_cell_formula_units_Z   2
loop_
 _symmetry_equiv_pos_site_id
 _symmetry_equiv_pos_as_xyz
  1  'x, y, z'
loop_
 _atom_site_type_symbol
 _atom_site_label
 _atom_site_symmetry_multiplicity
 _atom_site_fract_x
 _atom_site_fract_y
 _atom_site_fract_z
 _atom_site_occupancy
  Li  Li0  1  0.31779000  0.90745800  0.43845400  1
  Li  Li1  1  0.67133700  0.66749500  0.61603900  1
  Li  Li2  1  0.67081400  0.66929300  0.11683000  1
  Li  Li3  1  0.31532200  0.77446700  0.93806900  1
  Li  Li4  1  0.90990100  0.31654000  0.93871300  1
  Li  Li5  1  0.22540200  0.67649700  0.55860200  1
  Li  Li6  1  0.77280700  0.31486500  0.43812300  1
  Li  Li7  1  0.09112300  0.68066600  0.06121500  1
  Li  Li8  1  0.67960000  0.22367500  0.05780900  1
  Li  Li9  1  0.68210600  0.08965600  0.56122700  1
  Li  Li10  1  0.09433600  0.22690400  0.55970100  1
  Li  Li11  1  0.22900700  0.09685600  0.06027000  1
  V  V0  1  0.43056600  0.56763800  0.75198900  1
  V  V1  1  0.56465100  0.43198200  0.24919200  1
  V  V2  1  0.99882300  0.57252700  0.25413300  1
  V  V3  1  0.00283500  0.43512900  0.74931300  1
  V  V4  1  0.57103100  0.00039600  0.75458000  1
  V  V5  1  0.43303200  0.00274300  0.25232300  1
  P  P0  1  0.77018200  0.91261200  0.15749200  1
  P  P1  1  0.91353300  0.77171500  0.65865400  1
  P  P2  1  0.32207600  0.91006600  0.65836600  1
  P  P3  1  0.66728300  0.66605500  0.87348200  1
  P  P4  1  0.66499800  0.66557600  0.37341300  1
  P  P5  1  0.32032700  0.77112800  0.15859800  1
  P  P6  1  0.23132400  0.68046500  0.34244800  1
  P  P7  1  0.91132200  0.32071500  0.15722000  1
  P  P8  1  0.08525300  0.68225900  0.84486200  1
  P  P9  1  0.76937200  0.32109200  0.65634900  1
  P  P10  1  0.68157700  0.23129400  0.84097700  1
  P  P11  1  0.33440600  0.33187800  0.62641500  1
  P  P12  1  0.33072100  0.33591500  0.12609100  1
  P  P13  1  0.68467700  0.08388500  0.34502700  1
  P  P14  1  0.08633300  0.23356100  0.34181700  1
  P  P15  1  0.23155700  0.08809100  0.84256600  1
  O  O0  1  0.75195800  0.00345400  0.43734800  1
  O  O1  1  0.74643900  0.91893100  0.65912300  1
  O  O2  1  0.00682900  0.75367200  0.93720400  1
  O  O3  1  0.91779100  0.74696300  0.15789500  1
  O  O4  1  0.62541700  0.88956900  0.17355300  1
  O  O5  1  0.67095600  0.80997800  0.83022100  1
  O  O6  1  0.48655300  0.89005600  0.67305400  1
  O  O7  1  0.24491400  0.99738300  0.93302200  1
  O  O8  1  0.33568500  0.92092100  0.15914100  1
  O  O9  1  0.80890300  0.66980400  0.32933400  1
  O  O10  1  0.88974300  0.62668800  0.67318800  1
  O  O11  1  0.51043900  0.81393200  0.33665800  1
  O  O12  1  0.66708900  0.66189600  0.98174100  1
  O  O13  1  0.66431700  0.66001800  0.48135600  1
  O  O14  1  0.51332300  0.67025700  0.83611000  1
  O  O15  1  0.89209600  0.48532700  0.17279300  1
  O  O16  1  0.81676300  0.51331300  0.83353800  1
  O  O17  1  0.33870900  0.74408700  0.65852800  1
  O  O18  1  0.21211100  0.79088400  0.25002400  1
  O  O19  1  0.24271500  0.75924900  0.43217400  1
  O  O20  1  0.24408100  0.75790200  0.06856900  1
  O  O21  1  0.48683200  0.62789600  0.17431100  1
  O  O22  1  0.66842400  0.51274000  0.33274000  1
  O  O23  1  0.25090200  0.66807600  0.83859100  1
  O  O24  1  0.62720200  0.48681400  0.67403500  1
  O  O25  1  0.91913500  0.33374700  0.65524900  1
  O  O26  1  0.99301100  0.79351800  0.75464800  1
  O  O27  1  0.00894600  0.75993300  0.57292800  1
  O  O28  1  0.99700400  0.24390100  0.43228600  1
  O  O29  1  0.08575800  0.66225300  0.33911700  1
  O  O30  1  0.38126600  0.52138200  0.32637900  1
  O  O31  1  0.74762500  0.33547700  0.15564400  1
  O  O32  1  0.32840800  0.48386300  0.66633500  1
  O  O33  1  0.52245500  0.38282800  0.82233200  1
  O  O34  1  0.75673600  0.24679500  0.93127700  1
  O  O35  1  0.75375000  0.24300800  0.56773400  1
  O  O36  1  0.79015800  0.21223200  0.74910400  1
  O  O37  1  0.66507700  0.24977800  0.33971300  1
  O  O38  1  0.18419000  0.48887900  0.16695400  1
  O  O39  1  0.10093100  0.52027300  0.82507500  1
  O  O40  1  0.48456700  0.33306000  0.16838300  1
  O  O41  1  0.33671300  0.33625500  0.01894900  1
  O  O42  1  0.32977500  0.32908300  0.51926000  1
  O  O43  1  0.48360100  0.18458800  0.66801700  1
  O  O44  1  0.10081900  0.37896900  0.32274100  1
  O  O45  1  0.18142700  0.33126400  0.66858000  1
  O  O46  1  0.66011700  0.08755400  0.84001100  1
  O  O47  1  0.79240100  0.99187600  0.25449600  1
  O  O48  1  0.76087400  0.00854700  0.07297400  1
  O  O49  1  0.52310000  0.09386700  0.32255700  1
  O  O50  1  0.32731600  0.18833400  0.16667000  1
  O  O51  1  0.37786700  0.10143000  0.82245200  1
  O  O52  1  0.08189500  0.24964100  0.84209300  1
  O  O53  1  0.00363400  0.24164400  0.06770800  1
  O  O54  1  0.99812900  0.21214300  0.24961200  1
  O  O55  1  0.24943500  0.08294200  0.34155300  1
  O  O56  1  0.24235900  0.99976400  0.56845100  1
  O  O57  1  0.21310200  0.99708300  0.75022500  1
loop_
_geom_bond_atom_site_label_1
_geom_bond_atom_site_label_2
_geom_bond_distance
_geom_bond_site_symmetry_2
Li0 O19 1.936048 1_555
Li0 O56 1.990845 1_555
Li0 O55 2.020359 1_565
Li0 O11 2.163870 1_555
Li1 O13 1.876112 1_555
Li1 O10 2.133789 1_555
Li1 O6 2.179430 1_555
Li1 O24 2.179937 1_555
Li2 O12 1.880039 1_554
Li2 O4 2.133646 1_555
Li2 O15 2.166005 1_555
Li2 O21 2.189799 1_555
Li3 O7 1.942866 1_555
Li3 O20 1.976945 1_556
Li3 O23 2.019797 1_555
Li3 O14 2.200692 1_555
Li4 O34 1.943682 1_555
Li4 O53 1.983549 1_656
Li4 O52 1.992956 1_655
Li4 O16 2.224502 1_555
Li5 O27 1.870006 1_555
Li5 O19 1.976540 1_555
Li5 O17 2.088998 1_555
Li5 O32 2.222637 1_555
Li6 O28 1.953403 1_555
Li6 O35 1.975282 1_555
Li6 O37 2.022721 1_555
Li6 O22 2.233921 1_555
Li7 O2 1.893074 1_554
Li7 O20 1.996740 1_555
Li7 O3 2.003061 1_455
Li7 O38 2.197543 1_555
Li8 O48 1.863035 1_555
Li8 O34 1.969304 1_554
Li8 O31 2.061579 1_555
Li8 O40 2.263371 1_555
Li9 O0 1.889690 1_555
Li9 O35 1.958741 1_555
Li9 O1 2.001448 1_545
Li9 O43 2.247112 1_555
Li10 O56 1.969716 1_545
Li10 O28 1.982512 1_455
Li10 O25 2.004471 1_455
Li10 O45 2.228745 1_555
Li11 O53 1.949301 1_555
Li11 O7 1.990290 1_544
Li11 O8 2.042313 1_545
Li11 O50 2.193647 1_555
O0 P13 1.479524 1_555
O1 P1 1.556494 1_555
O1 V4 1.996192 1_565
O2 P8 1.480205 1_555
O3 P0 1.549823 1_555
O3 V2 1.999968 1_555
O4 P0 1.563502 1_555
O4 V5 1.976015 1_565
O5 P3 1.552969 1_555
O5 V4 1.933933 1_565
O6 P2 1.542482 1_555
O6 V4 2.015081 1_565
O7 P15 1.507310 1_565
O8 P5 1.553495 1_555
O8 V5 2.005222 1_565
O9 P4 1.558713 1_555
O9 V2 1.923979 1_555
O10 P1 1.568169 1_555
O10 V3 1.953050 1_655
O11 P4 1.577908 1_555
O11 V5 1.996746 1_565
O12 P3 1.504900 1_555
O13 P4 1.501007 1_555
O14 P3 1.582723 1_555
O14 V0 1.968965 1_555
O15 P7 1.548603 1_555
O15 V2 2.005766 1_555
O16 P3 1.587511 1_555
O16 V3 1.972895 1_655
O17 P2 1.556805 1_555
O17 V0 1.987087 1_555
O18 P5 1.602581 1_555
O18 P6 1.629349 1_555
O19 P6 1.503054 1_555
O20 P5 1.499588 1_555
O21 P5 1.553399 1_555
O21 V1 1.976351 1_555
O22 P4 1.591161 1_555
O22 V1 1.959414 1_555
O23 P8 1.565472 1_555
O23 V0 1.947586 1_555
O24 P9 1.548361 1_555
O24 V0 1.999423 1_555
O25 P9 1.537862 1_555
O25 V3 2.051973 1_655
O26 P8 1.613634 1_655
O26 P1 1.616125 1_555
O27 P1 1.481894 1_455
O28 P14 1.505020 1_655
O29 P6 1.528817 1_555
O29 V2 1.914922 1_455
O30 P6 1.539311 1_555
O30 V1 1.892769 1_555
O31 P7 1.542045 1_555
O31 V1 2.027741 1_555
O32 P11 1.568365 1_555
O32 V0 1.985308 1_555
O33 P10 1.552864 1_555
O33 V0 1.853436 1_555
O34 P10 1.504579 1_555
O35 P9 1.500891 1_555
O36 P10 1.611079 1_555
O36 P9 1.620576 1_555
O37 P13 1.545640 1_555
O37 V1 2.000487 1_555
O38 P12 1.580219 1_555
O38 V2 1.989459 1_455
O39 P8 1.546837 1_555
O39 V3 1.885524 1_555
O40 P12 1.611584 1_555
O40 V1 1.897738 1_555
O41 P12 1.489900 1_555
O42 P11 1.490680 1_555
O43 P11 1.570782 1_555
O43 V4 1.977693 1_555
O44 P14 1.528112 1_555
O44 V2 1.905890 1_455
O45 P11 1.614531 1_555
O45 V3 1.893781 1_555
O46 P10 1.529386 1_555
O46 V4 1.915981 1_555
O47 P13 1.600794 1_565
O47 P0 1.627536 1_555
O48 P0 1.478882 1_545
O49 P13 1.574053 1_555
O49 V5 1.827609 1_555
O50 P12 1.571252 1_555
O50 V5 1.983708 1_555
O51 P15 1.532403 1_555
O51 V4 1.895229 1_555
O52 P15 1.535457 1_555
O52 V3 2.043493 1_555
O53 P7 1.505892 1_455
O54 P7 1.615525 1_555
O54 P14 1.621545 1_655
O55 P14 1.548039 1_555
O55 V5 1.996259 1_555
O56 P2 1.505454 1_555
O57 P2 1.609331 1_555
O57 P15 1.627573 1_565
