# generated using pymatgen
data_LiNiCO4
_symmetry_space_group_name_H-M   'P 1'
_cell_length_a   9.35510400
_cell_length_b   3.10686500
_cell_length_c   9.41919039
_cell_angle_alpha   73.58869352
_cell_angle_beta   90.00000000
_cell_angle_gamma   90.00000000
_symmetry_Int_Tables_number   1
_chemical_formula_structural   LiNiCO4
_chemical_formula_sum   'Li4 Ni4 C4 O16'
_cell_volume   262.61535564
_cell_formula_units_Z   4
loop_
 _symmetry_equiv_pos_site_id
 _symmetry_equiv_pos_as_xyz
  1  'x, y, z'
loop_
 _atom_site_type_symbol
 _atom_site_label
 _atom_site_symmetry_multiplicity
 _atom_site_fract_x
 _atom_site_fract_y
 _atom_site_fract_z
 _atom_site_occupancy
  Li  Li0  1  0.59532900  0.40072900  0.82283900  1
  Li  Li1  1  0.09532900  0.59927100  0.67716100  1
  Li  Li2  1  0.90467100  0.40072900  0.32283900  1
  Li  Li3  1  0.40467100  0.59927100  0.17716100  1
  Ni  Ni0  1  0.88145200  0.78467600  0.94280800  1
  Ni  Ni1  1  0.38145200  0.21532400  0.55719200  1
  Ni  Ni2  1  0.61854800  0.78467600  0.44280800  1
  Ni  Ni3  1  0.11854800  0.21532400  0.05719200  1
  C  C0  1  0.33324600  0.93785800  0.86171800  1
  C  C1  1  0.83324600  0.06214200  0.63828200  1
  C  C2  1  0.16675400  0.93785800  0.36171800  1
  C  C3  1  0.66675400  0.06214200  0.13828200  1
  O  O0  1  0.26059800  0.84613200  0.98714400  1
  O  O1  1  0.00379600  0.37492700  0.88861700  1
  O  O2  1  0.46434500  0.85399800  0.86709400  1
  O  O3  1  0.76441900  0.89780000  0.76225900  1
  O  O4  1  0.26441900  0.10220000  0.73774100  1
  O  O5  1  0.96434500  0.14600200  0.63290600  1
  O  O6  1  0.50379600  0.62507300  0.61138300  1
  O  O7  1  0.76059800  0.15386800  0.51285600  1
  O  O8  1  0.23940200  0.84613200  0.48714400  1
  O  O9  1  0.49620400  0.37492700  0.38861700  1
  O  O10  1  0.03565500  0.85399800  0.36709400  1
  O  O11  1  0.73558100  0.89780000  0.26225900  1
  O  O12  1  0.23558100  0.10220000  0.23774100  1
  O  O13  1  0.53565500  0.14600200  0.13290600  1
  O  O14  1  0.99620400  0.62507300  0.11138300  1
  O  O15  1  0.73940200  0.15386800  0.01285600  1
loop_
_geom_bond_atom_site_label_1
_geom_bond_atom_site_label_2
_geom_bond_distance
_geom_bond_site_symmetry_2
Li0 O2 1.997536 1_555
Li0 O2 2.039730 1_545
Li0 O6 2.098014 1_555
Li0 O3 2.171379 1_555
Li0 O15 2.198314 1_556
Li0 O3 2.402745 1_545
Li1 O5 1.997536 1_455
Li1 O5 2.039730 1_465
Li1 O1 2.098014 1_555
Li1 O4 2.171379 1_555
Li1 O8 2.198314 1_555
Li1 O4 2.402745 1_565
Li2 O10 1.997536 1_655
Li2 O10 2.039730 1_645
Li2 O14 2.098014 1_555
Li2 O11 2.171379 1_555
Li2 O7 2.198314 1_555
Li2 O11 2.402745 1_545
Li3 O13 1.997536 1_555
Li3 O13 2.039730 1_565
Li3 O9 2.098014 1_555
Li3 O12 2.171379 1_555
Li3 O0 2.198314 1_554
Li3 O12 2.402745 1_565
Ni0 O14 1.864042 1_556
Ni0 O1 1.886349 1_655
Ni0 O3 1.968914 1_555
Ni0 O15 1.986103 1_566
Ni0 O1 2.098696 1_665
Ni0 O15 2.304683 1_556
Ni1 O9 1.864042 1_555
Ni1 O6 1.886349 1_555
Ni1 O4 1.968914 1_555
Ni1 O8 1.986103 1_545
Ni1 O6 2.098696 1_545
Ni1 O8 2.304683 1_555
Ni2 O6 1.864042 1_555
Ni2 O9 1.886349 1_555
Ni2 O11 1.968914 1_555
Ni2 O7 1.986103 1_565
Ni2 O9 2.098696 1_565
Ni2 O7 2.304683 1_555
Ni3 O1 1.864042 1_554
Ni3 O14 1.886349 1_455
Ni3 O12 1.968914 1_555
Ni3 O0 1.986103 1_544
Ni3 O14 2.098696 1_445
Ni3 O0 2.304683 1_554
C0 O2 1.251862 1_555
C0 O4 1.304623 1_565
C0 O0 1.322346 1_555
C1 O5 1.251862 1_555
C1 O3 1.304623 1_545
C1 O7 1.322346 1_555
C2 O10 1.251862 1_555
C2 O12 1.304623 1_565
C2 O8 1.322346 1_555
C3 O13 1.251862 1_555
C3 O11 1.304623 1_545
C3 O15 1.322346 1_555
