# generated using pymatgen
data_LiVP2HO8
_symmetry_space_group_name_H-M   'P 1'
_cell_length_a   7.98595600
_cell_length_b   7.74047600
_cell_length_c   9.73010852
_cell_angle_alpha   68.24603171
_cell_angle_beta   90.00000000
_cell_angle_gamma   90.00000000
_symmetry_Int_Tables_number   1
_chemical_formula_structural   LiVP2HO8
_chemical_formula_sum   'Li4 V4 P8 H4 O32'
_cell_volume   558.63345046
_cell_formula_units_Z   4
loop_
 _symmetry_equiv_pos_site_id
 _symmetry_equiv_pos_as_xyz
  1  'x, y, z'
loop_
 _atom_site_type_symbol
 _atom_site_label
 _atom_site_symmetry_multiplicity
 _atom_site_fract_x
 _atom_site_fract_y
 _atom_site_fract_z
 _atom_site_occupancy
  Li  Li0  1  0.62981400  0.60122900  0.52257300  1
  Li  Li1  1  0.12981400  0.39877100  0.47742700  1
  Li  Li2  1  0.86834100  0.10213300  0.02809900  1
  Li  Li3  1  0.36834100  0.89786700  0.97190100  1
  V  V0  1  0.50416700  0.23656000  0.50306100  1
  V  V1  1  0.00416700  0.76344000  0.49693900  1
  V  V2  1  0.49506400  0.25735700  0.99879000  1
  V  V3  1  0.99506400  0.74264300  0.00121000  1
  P  P0  1  0.15360900  0.01867800  0.68386700  1
  P  P1  1  0.34690800  0.51342700  0.68206500  1
  P  P2  1  0.65360900  0.98132200  0.31613300  1
  P  P3  1  0.14990700  0.01827100  0.18104600  1
  P  P4  1  0.84690800  0.48657300  0.31793500  1
  P  P5  1  0.34226400  0.51244400  0.18451300  1
  P  P6  1  0.64990700  0.98172900  0.81895400  1
  P  P7  1  0.84226400  0.48755600  0.81548700  1
  H  H0  1  0.49234800  0.74184800  0.74138400  1
  H  H1  1  0.49364900  0.74023100  0.24143200  1
  H  H2  1  0.99234800  0.25815200  0.25861600  1
  H  H3  1  0.99364900  0.25976900  0.75856800  1
  O  O0  1  0.05815100  0.19872800  0.65825300  1
  O  O1  1  0.66988000  0.11112300  0.65422300  1
  O  O2  1  0.32708900  0.06620200  0.61040200  1
  O  O3  1  0.05628000  0.89887000  0.60960200  1
  O  O4  1  0.45194000  0.69123800  0.65507200  1
  O  O5  1  0.82563000  0.60570300  0.64916300  1
  O  O6  1  0.17580800  0.56190900  0.60454100  1
  O  O7  1  0.45029700  0.40399400  0.60313100  1
  O  O8  1  0.55628000  0.10113000  0.39039800  1
  O  O9  1  0.82708900  0.93379800  0.38959800  1
  O  O10  1  0.16988000  0.88887700  0.34577700  1
  O  O11  1  0.55815100  0.80127200  0.34174700  1
  O  O12  1  0.95029700  0.59600600  0.39686900  1
  O  O13  1  0.67580800  0.43809100  0.39545900  1
  O  O14  1  0.04537800  0.19120800  0.15689900  1
  O  O15  1  0.67136300  0.10631300  0.15030400  1
  O  O16  1  0.32563000  0.39429700  0.35083700  1
  O  O17  1  0.95194000  0.30876200  0.34492800  1
  O  O18  1  0.32275400  0.06065800  0.10435100  1
  O  O19  1  0.04880800  0.90320200  0.10288100  1
  O  O20  1  0.43993200  0.69626100  0.15577800  1
  O  O21  1  0.82880500  0.60973400  0.15307500  1
  O  O22  1  0.17211000  0.56706200  0.10833100  1
  O  O23  1  0.44185500  0.39557000  0.11129400  1
  O  O24  1  0.54880800  0.09679800  0.89711900  1
  O  O25  1  0.82275400  0.93934200  0.89564900  1
  O  O26  1  0.17136300  0.89368700  0.84969600  1
  O  O27  1  0.54537800  0.80879200  0.84310100  1
  O  O28  1  0.94185500  0.60443000  0.88870600  1
  O  O29  1  0.67211000  0.43293800  0.89166900  1
  O  O30  1  0.32880500  0.39026600  0.84692500  1
  O  O31  1  0.93993200  0.30373900  0.84422200  1
loop_
_geom_bond_atom_site_label_1
_geom_bond_atom_site_label_2
_geom_bond_distance
_geom_bond_site_symmetry_2
Li0 O11 1.949719 1_555
Li0 O5 1.998847 1_555
Li0 O7 2.028155 1_555
Li0 O13 2.101653 1_555
Li0 O4 2.197982 1_555
Li1 O0 1.949719 1_555
Li1 O16 1.998847 1_555
Li1 O12 2.028155 1_455
Li1 O6 2.101653 1_555
Li1 O17 2.197982 1_455
Li2 O31 1.973217 1_554
Li2 O15 1.979383 1_555
Li2 O19 2.036431 1_645
Li2 O25 2.141250 1_544
Li2 O14 2.164567 1_655
Li3 O20 1.973217 1_556
Li3 O26 1.979383 1_555
Li3 O24 2.036431 1_565
Li3 O18 2.141250 1_566
Li3 O27 2.164567 1_555
H0 O4 1.098531 1_555
H0 O27 1.344450 1_555
H1 O20 1.097594 1_555
H1 O11 1.335348 1_555
H2 O17 1.098531 1_555
H2 O14 1.344450 1_655
H3 O31 1.097594 1_555
H3 O0 1.335348 1_655
O0 P0 1.525815 1_555
O1 P6 1.551692 1_545
O1 V0 1.949055 1_555
O2 P0 1.539715 1_555
O2 V0 1.951564 1_555
O3 P0 1.575768 1_565
O3 V1 1.823631 1_555
O4 P1 1.548839 1_555
O5 P7 1.541427 1_555
O5 V1 2.092116 1_655
O6 P1 1.538518 1_555
O6 V1 2.048863 1_555
O7 P1 1.572051 1_555
O7 V0 1.936029 1_555
O8 P2 1.575768 1_545
O8 V0 1.823631 1_555
O9 P2 1.539715 1_555
O9 V1 1.951564 1_655
O10 P3 1.551692 1_565
O10 V1 1.949055 1_555
O11 P2 1.525815 1_555
O12 P4 1.572051 1_555
O12 V1 1.936029 1_655
O13 P4 1.538518 1_555
O13 V0 2.048863 1_555
O14 P3 1.520129 1_555
O15 P2 1.549998 1_545
O15 V2 2.060323 1_554
O16 P5 1.541427 1_555
O16 V0 2.092116 1_555
O17 P4 1.548839 1_555
O18 P3 1.545449 1_555
O18 V2 2.026690 1_554
O19 P3 1.589261 1_565
O19 V3 1.902304 1_455
O20 P5 1.554381 1_555
O21 P4 1.539269 1_555
O21 V3 1.969246 1_555
O22 P5 1.530477 1_555
O22 V3 1.970413 1_455
O23 P5 1.560849 1_555
O23 V2 1.841605 1_554
O24 P6 1.589261 1_545
O24 V2 1.902304 1_555
O25 P6 1.545449 1_555
O25 V3 2.026690 1_556
O26 P0 1.549998 1_565
O26 V3 2.060323 1_456
O27 P6 1.520129 1_555
O28 P7 1.560849 1_555
O28 V3 1.841605 1_556
O29 P7 1.530477 1_555
O29 V2 1.970413 1_555
O30 P1 1.539269 1_555
O30 V2 1.969246 1_555
O31 P7 1.554381 1_555
