# generated using pymatgen
data_V6O5F19
_symmetry_space_group_name_H-M   'P 1'
_cell_length_a   5.30504300
_cell_length_b   5.52583361
_cell_length_c   14.81711018
_cell_angle_alpha   100.18288611
_cell_angle_beta   89.99923823
_cell_angle_gamma   90.68126119
_symmetry_Int_Tables_number   1
_chemical_formula_structural   V6O5F19
_chemical_formula_sum   'V6 O5 F19'
_cell_volume   427.48736864
_cell_formula_units_Z   1
loop_
 _symmetry_equiv_pos_site_id
 _symmetry_equiv_pos_as_xyz
  1  'x, y, z'
loop_
 _atom_site_type_symbol
 _atom_site_label
 _atom_site_symmetry_multiplicity
 _atom_site_fract_x
 _atom_site_fract_y
 _atom_site_fract_z
 _atom_site_occupancy
  V  V0  1  0.04369000  0.03269500  0.00503600  1
  V  V1  1  0.52910900  0.11920700  0.32996000  1
  V  V2  1  0.98004800  0.27653300  0.66434200  1
  V  V3  1  0.54481100  0.46404300  0.99471800  1
  V  V4  1  0.00974500  0.65192100  0.33444300  1
  V  V5  1  0.52224300  0.77492100  0.66400100  1
  O  O0  1  0.79459800  0.03000700  0.64245500  1
  O  O1  1  0.72130300  0.21470400  0.97811600  1
  O  O2  1  0.70482300  0.53102400  0.64294100  1
  O  O3  1  0.22234400  0.28549700  0.02152000  1
  O  O4  1  0.70394100  0.87136800  0.30989700  1
  F  F0  1  0.27624300  0.14806600  0.69216900  1
  F  F1  1  0.89959200  0.03778700  0.11336600  1
  F  F2  1  0.57664000  0.22737800  0.44803200  1
  F  F3  1  0.91388800  0.39754400  0.78045700  1
  F  F4  1  0.40648300  0.14169500  0.22092500  1
  F  F5  1  0.08078200  0.31434200  0.55364000  1
  F  F6  1  0.40253100  0.46539500  0.88660700  1
  F  F7  1  0.79877500  0.35007700  0.30874400  1
  F  F8  1  0.77660700  0.69504300  0.97641700  1
  F  F9  1  0.29286800  0.48246600  0.35853100  1
  F  F10  1  0.22192100  0.64538400  0.69200100  1
  F  F11  1  0.55661800  0.55933900  0.11520100  1
  F  F12  1  0.90324600  0.71690100  0.44924100  1
  F  F13  1  0.58341900  0.90075800  0.78029900  1
  F  F14  1  0.07069900  0.63342800  0.21615900  1
  F  F15  1  0.41704700  0.81424800  0.55407300  1
  F  F16  1  0.05491500  0.94238800  0.88457200  1
  F  F17  1  0.27377200  0.80797100  0.02427500  1
  F  F18  1  0.21729600  0.96786700  0.35786300  1
loop_
_geom_bond_atom_site_label_1
_geom_bond_atom_site_label_2
_geom_bond_distance
_geom_bond_site_symmetry_2
O0 V2 1.655525 1_555
O0 V5 2.070522 1_545
O1 V3 1.657210 1_555
O1 V0 2.068443 1_656
O2 V5 1.653563 1_555
O2 V2 2.101549 1_555
O3 V0 1.660496 1_555
O3 V3 2.038628 1_554
O4 V1 1.646340 1_565
O4 V4 2.106502 1_655
F0 V2 1.809157 1_455
F0 V5 2.426644 1_545
F1 V0 1.773738 1_655
F2 V1 1.763022 1_555
F3 V2 1.768952 1_555
F4 V1 1.766829 1_555
F5 V2 1.771512 1_455
F6 V3 1.772072 1_555
F7 V1 1.967571 1_555
F7 V4 1.977547 1_655
F8 V3 1.816614 1_555
F8 V0 2.307819 1_666
F9 V4 1.847097 1_555
F9 V1 2.353409 1_555
F10 V5 1.816787 1_555
F10 V2 2.368795 1_455
F11 V3 1.770599 1_554
F12 V4 1.769263 1_655
F13 V5 1.768965 1_555
F14 V4 1.767527 1_555
F15 V5 1.771940 1_555
F16 V0 1.767569 1_566
F17 V0 1.809522 1_565
F17 V3 2.375250 1_554
F18 V1 1.922486 1_565
F18 V4 2.029999 1_555
