# generated using pymatgen
data_Te2Pb3(ClO3)2
_symmetry_space_group_name_H-M   'P 1'
_cell_length_a   8.85999289
_cell_length_b   8.85999289
_cell_length_c   11.10909969
_cell_angle_alpha   76.86140857
_cell_angle_beta   76.86140857
_cell_angle_gamma   37.57313010
_symmetry_Int_Tables_number   1
_chemical_formula_structural   Te2Pb3(ClO3)2
_chemical_formula_sum   'Te4 Pb6 Cl4 O12'
_cell_volume   516.20346843
_cell_formula_units_Z   2
loop_
 _symmetry_equiv_pos_site_id
 _symmetry_equiv_pos_as_xyz
  1  'x, y, z'
loop_
 _atom_site_type_symbol
 _atom_site_label
 _atom_site_symmetry_multiplicity
 _atom_site_fract_x
 _atom_site_fract_y
 _atom_site_fract_z
 _atom_site_occupancy
  Te  Te0  1  0.39706000  0.40048400  0.04793100  1
  Te  Te1  1  0.87628700  0.87262300  0.59386300  1
  Te  Te2  1  0.12719400  0.12444100  0.41030100  1
  Te  Te3  1  0.59586900  0.61013000  0.95005900  1
  Pb  Pb0  1  0.66861900  0.65378900  0.60984800  1
  Pb  Pb1  1  0.74026600  0.73798500  0.19799600  1
  Pb  Pb2  1  0.34331600  0.33850500  0.39248900  1
  Pb  Pb3  1  0.97149500  0.98563600  0.20262600  1
  Pb  Pb4  1  0.02904500  0.01604000  0.79747300  1
  Pb  Pb5  1  0.26866600  0.25197300  0.79835900  1
  Cl  Cl0  1  0.17866500  0.19041900  0.09714000  1
  Cl  Cl1  1  0.54836400  0.53576600  0.29580600  1
  Cl  Cl2  1  0.46604800  0.45544700  0.69816700  1
  Cl  Cl3  1  0.82316000  0.80817800  0.90027500  1
  O  O0  1  0.02673400  0.55068500  0.61910200  1
  O  O1  1  0.90272000  0.89365500  0.41856300  1
  O  O2  1  0.86456600  0.40096100  0.81073800  1
  O  O3  1  0.96263800  0.45938200  0.38389700  1
  O  O4  1  0.59658700  0.13822800  0.18863100  1
  O  O5  1  0.55539500  0.02292800  0.61288500  1
  O  O6  1  0.40281300  0.85985900  0.81879100  1
  O  O7  1  0.13373700  0.59941900  0.18932000  1
  O  O8  1  0.72287200  0.28129400  0.00113500  1
  O  O9  1  0.11141900  0.09836100  0.57844300  1
  O  O10  1  0.44754800  0.97323700  0.38085300  1
  O  O11  1  0.29335400  0.71025900  0.99967500  1
loop_
_geom_bond_atom_site_label_1
_geom_bond_atom_site_label_2
_geom_bond_distance
_geom_bond_site_symmetry_2
O0 Te1 1.941864 1_455
O0 Pb5 2.473194 1_555
O0 Pb0 2.534452 1_455
O1 Te1 1.891798 1_555
O1 Pb3 2.454361 1_555
O2 Te3 2.032932 1_555
O2 Pb4 2.455398 1_655
O2 Pb0 2.517242 1_555
O2 Pb5 2.635745 1_655
O3 Te2 1.989610 1_655
O3 Pb1 2.462320 1_555
O3 Pb2 2.627916 1_655
O3 Pb0 2.816713 1_555
O4 Te0 2.015228 1_555
O4 Pb3 2.430263 1_545
O4 Pb2 2.552975 1_555
O4 Pb1 2.635008 1_545
O5 Te1 1.937646 1_545
O5 Pb5 2.483267 1_555
O5 Pb0 2.556976 1_545
O6 Te3 1.901533 1_555
O6 Pb4 2.425108 1_565
O6 Pb5 2.598566 1_565
O6 Pb0 2.625491 1_555
O7 Te0 2.022649 1_555
O7 Pb3 2.476627 1_455
O7 Pb2 2.571981 1_555
O7 Pb1 2.605087 1_455
O8 Te3 2.102024 1_554
O8 Te0 2.110351 1_555
O8 Pb3 2.674651 1_545
O8 Pb4 2.742664 1_654
O9 Te2 1.816119 1_555
O9 Pb4 2.492966 1_555
O10 Te2 1.925505 1_565
O10 Pb1 2.481544 1_555
O10 Pb2 2.596423 1_565
O11 Te3 2.014015 1_555
O11 Te0 2.054760 1_556
O11 Pb4 2.727183 1_565
O11 Pb3 2.777963 1_456
