# generated using pymatgen
data_Li2Ti3FeO8
_symmetry_space_group_name_H-M   'P 1'
_cell_length_a   5.88859960
_cell_length_b   5.88859960
_cell_length_c   5.88859979
_cell_angle_alpha   61.08683270
_cell_angle_beta   61.08683270
_cell_angle_gamma   61.08683158
_symmetry_Int_Tables_number   1
_chemical_formula_structural   Li2Ti3FeO8
_chemical_formula_sum   'Li2 Ti3 Fe1 O8'
_cell_volume   147.91723604
_cell_formula_units_Z   1
loop_
 _symmetry_equiv_pos_site_id
 _symmetry_equiv_pos_as_xyz
  1  'x, y, z'
loop_
 _atom_site_type_symbol
 _atom_site_label
 _atom_site_symmetry_multiplicity
 _atom_site_fract_x
 _atom_site_fract_y
 _atom_site_fract_z
 _atom_site_occupancy
  Li  Li0  1  0.87956800  0.87956800  0.87956800  1
  Li  Li1  1  0.12043200  0.12043200  0.12043200  1
  Ti  Ti0  1  0.00000000  0.50000000  0.50000000  1
  Ti  Ti1  1  0.50000000  0.00000000  0.50000000  1
  Ti  Ti2  1  0.50000000  0.50000000  0.00000000  1
  Fe  Fe0  1  0.50000000  0.50000000  0.50000000  1
  O  O0  1  0.74033300  0.74033300  0.74033300  1
  O  O1  1  0.74359000  0.74359000  0.28883400  1
  O  O2  1  0.74359000  0.28883400  0.74359000  1
  O  O3  1  0.28883400  0.74359000  0.74359000  1
  O  O4  1  0.71116600  0.25641000  0.25641000  1
  O  O5  1  0.25641000  0.71116600  0.25641000  1
  O  O6  1  0.25641000  0.25641000  0.71116600  1
  O  O7  1  0.25966700  0.25966700  0.25966700  1
loop_
_geom_bond_atom_site_label_1
_geom_bond_atom_site_label_2
_geom_bond_distance
_geom_bond_site_symmetry_2
Li0 O0 1.991680 1_555
Li0 O2 1.994595 1_565
Li0 O3 1.994595 1_655
Li0 O1 1.994595 1_556
Li1 O7 1.991680 1_555
Li1 O5 1.994595 1_545
Li1 O4 1.994595 1_455
Li1 O6 1.994595 1_554
Fe0 O6 2.049721 1_555
Fe0 O1 2.049721 1_555
Fe0 O5 2.049721 1_555
Fe0 O4 2.049721 1_555
Fe0 O2 2.049721 1_555
Fe0 O3 2.049721 1_555
O0 Ti1 2.023732 1_565
O0 Ti0 2.023732 1_655
O0 Ti2 2.023732 1_556
O1 Ti1 1.969781 1_565
O1 Ti0 1.969781 1_655
O2 Ti2 1.969781 1_556
O2 Ti0 1.969781 1_655
O3 Ti2 1.969781 1_556
O3 Ti1 1.969781 1_565
O4 Ti2 1.969781 1_555
O4 Ti1 1.969781 1_555
O5 Ti2 1.969781 1_555
O5 Ti0 1.969781 1_555
O6 Ti1 1.969781 1_555
O6 Ti0 1.969781 1_555
O7 Ti0 2.023732 1_555
O7 Ti1 2.023732 1_555
O7 Ti2 2.023732 1_555
