# generated using pymatgen
data_LiSn2(PO4)3
_symmetry_space_group_name_H-M   'P 1'
_cell_length_a   9.17486631
_cell_length_b   9.17904515
_cell_length_c   9.12567078
_cell_angle_alpha   55.74603401
_cell_angle_beta   55.72647214
_cell_angle_gamma   55.35656731
_symmetry_Int_Tables_number   1
_chemical_formula_structural   LiSn2(PO4)3
_chemical_formula_sum   'Li2 Sn4 P6 O24'
_cell_volume   488.04916428
_cell_formula_units_Z   2
loop_
 _symmetry_equiv_pos_site_id
 _symmetry_equiv_pos_as_xyz
  1  'x, y, z'
loop_
 _atom_site_type_symbol
 _atom_site_label
 _atom_site_symmetry_multiplicity
 _atom_site_fract_x
 _atom_site_fract_y
 _atom_site_fract_z
 _atom_site_occupancy
  Li  Li0  1  0.41045700  0.71744200  0.24392600  1
  Li  Li1  1  0.58954300  0.28255800  0.75607400  1
  Sn  Sn0  1  0.14032700  0.15012500  0.14207200  1
  Sn  Sn1  1  0.34840100  0.34329800  0.35189600  1
  Sn  Sn2  1  0.65159900  0.65670200  0.64810400  1
  Sn  Sn3  1  0.85967300  0.84987500  0.85792800  1
  P  P0  1  0.03775500  0.74951700  0.45826000  1
  P  P1  1  0.45727900  0.04526400  0.74996000  1
  P  P2  1  0.74774100  0.45902100  0.04060500  1
  P  P3  1  0.25225800  0.54097900  0.95939500  1
  P  P4  1  0.54272100  0.95473600  0.25004000  1
  P  P5  1  0.96224500  0.25048300  0.54174000  1
  O  O0  1  0.99464500  0.20858900  0.38258000  1
  O  O1  1  0.21995000  0.38098700  0.98013900  1
  O  O2  1  0.39381900  0.96551000  0.20566800  1
  O  O3  1  0.14664300  0.22167000  0.53691700  1
  O  O4  1  0.22542600  0.52614000  0.14896100  1
  O  O5  1  0.51415600  0.15341700  0.21395000  1
  O  O6  1  0.19111800  0.54743700  0.47337200  1
  O  O7  1  0.13333700  0.88204600  0.26339500  1
  O  O8  1  0.25784000  0.12887300  0.88339100  1
  O  O9  1  0.48438400  0.17931900  0.54138600  1
  O  O10  1  0.53899000  0.48484500  0.18609100  1
  O  O11  1  0.11809100  0.73778600  0.87383900  1
  O  O12  1  0.88190900  0.26221400  0.12616100  1
  O  O13  1  0.46101000  0.51515500  0.81390900  1
  O  O14  1  0.51561600  0.82068100  0.45861400  1
  O  O15  1  0.74216000  0.87112700  0.11660900  1
  O  O16  1  0.86666300  0.11795400  0.73660500  1
  O  O17  1  0.80888200  0.45256300  0.52662800  1
  O  O18  1  0.48584400  0.84658300  0.78605000  1
  O  O19  1  0.77457400  0.47386000  0.85103900  1
  O  O20  1  0.85335700  0.77833000  0.46308300  1
  O  O21  1  0.60618100  0.03449000  0.79433200  1
  O  O22  1  0.78005000  0.61901300  0.01986200  1
  O  O23  1  0.00535500  0.79141100  0.61742000  1
loop_
_geom_bond_atom_site_label_1
_geom_bond_atom_site_label_2
_geom_bond_distance
_geom_bond_site_symmetry_2
Li0 O10 1.983052 1_555
Li0 O2 2.024835 1_555
Li0 O7 2.050547 1_555
Li0 O6 2.452634 1_555
Li1 O13 1.983052 1_555
Li1 O21 2.024835 1_555
Li1 O16 2.050547 1_555
Li1 O17 2.452634 1_555
O0 P5 1.535685 1_555
O0 Sn0 2.024347 1_655
O1 P3 1.548929 1_555
O1 Sn0 2.055955 1_556
O2 P4 1.569870 1_555
O2 Sn0 2.133029 1_565
O3 P5 1.534497 1_455
O3 Sn1 2.056997 1_555
O4 P3 1.537851 1_554
O4 Sn1 2.054492 1_555
O5 P4 1.542956 1_545
O5 Sn1 2.058015 1_555
O6 P0 1.550080 1_555
O6 Sn1 2.069973 1_555
O7 P0 1.559618 1_555
O7 Sn0 2.077868 1_565
O8 P1 1.538121 1_555
O8 Sn0 2.045921 1_556
O9 P1 1.541767 1_555
O9 Sn1 2.043809 1_555
O10 P2 1.568842 1_555
O10 Sn1 2.103626 1_555
O11 P3 1.534518 1_555
O11 Sn3 2.036464 1_455
O12 P2 1.534522 1_555
O12 Sn0 2.036464 1_655
O13 P3 1.568848 1_555
O13 Sn2 2.103626 1_555
O14 P4 1.541767 1_555
O14 Sn2 2.043809 1_555
O15 P4 1.538121 1_555
O15 Sn3 2.045921 1_554
O16 P5 1.559618 1_555
O16 Sn3 2.077868 1_545
O17 P5 1.550080 1_555
O17 Sn2 2.069973 1_555
O18 P1 1.542956 1_565
O18 Sn2 2.058015 1_555
O19 P2 1.537848 1_556
O19 Sn2 2.054492 1_555
O20 P0 1.534497 1_655
O20 Sn2 2.056997 1_555
O21 P1 1.569870 1_555
O21 Sn3 2.133029 1_545
O22 P2 1.548940 1_555
O22 Sn3 2.055955 1_554
O23 P0 1.535685 1_555
O23 Sn3 2.024347 1_455
