# generated using pymatgen
data_Li2Cu2F7
_symmetry_space_group_name_H-M   'P 1'
_cell_length_a   5.19783200
_cell_length_b   6.71603915
_cell_length_c   8.52145171
_cell_angle_alpha   108.85387116
_cell_angle_beta   103.44329599
_cell_angle_gamma   86.48613971
_symmetry_Int_Tables_number   1
_chemical_formula_structural   Li2Cu2F7
_chemical_formula_sum   'Li4 Cu4 F14'
_cell_volume   273.76902562
_cell_formula_units_Z   2
loop_
 _symmetry_equiv_pos_site_id
 _symmetry_equiv_pos_as_xyz
  1  'x, y, z'
loop_
 _atom_site_type_symbol
 _atom_site_label
 _atom_site_symmetry_multiplicity
 _atom_site_fract_x
 _atom_site_fract_y
 _atom_site_fract_z
 _atom_site_occupancy
  Li  Li0  1  0.67987300  0.24269300  0.90576900  1
  Li  Li1  1  0.13413400  0.01091500  0.74031600  1
  Li  Li2  1  0.86586600  0.98908500  0.25968400  1
  Li  Li3  1  0.32012700  0.75730700  0.09423100  1
  Cu  Cu0  1  0.70960400  0.71548100  0.81866000  1
  Cu  Cu1  1  0.18487400  0.47941600  0.66759800  1
  Cu  Cu2  1  0.81512600  0.52058400  0.33240200  1
  Cu  Cu3  1  0.29039600  0.28451900  0.18134000  1
  F  F0  1  0.36368100  0.18311900  0.95454100  1
  F  F1  1  0.05765500  0.62290100  0.89781300  1
  F  F2  1  0.54976500  0.43234200  0.77706600  1
  F  F3  1  0.06792800  0.20861800  0.62314400  1
  F  F4  1  0.34285100  0.75409700  0.70574400  1
  F  F5  1  0.82613400  0.97932800  0.81552800  1
  F  F6  1  0.82170900  0.58492200  0.59008500  1
  F  F7  1  0.17829100  0.41507800  0.40991500  1
  F  F8  1  0.17386600  0.02067200  0.18447200  1
  F  F9  1  0.65714900  0.24590300  0.29425600  1
  F  F10  1  0.93207200  0.79138200  0.37685600  1
  F  F11  1  0.45023500  0.56765800  0.22293400  1
  F  F12  1  0.94234500  0.37709900  0.10218700  1
  F  F13  1  0.63631900  0.81688100  0.04545900  1
loop_
_geom_bond_atom_site_label_1
_geom_bond_atom_site_label_2
_geom_bond_distance
_geom_bond_site_symmetry_2
Cu0 F5 1.917615 1_555
Cu0 F1 1.918391 1_655
Cu0 F13 1.950358 1_556
Cu0 F4 1.968494 1_555
Cu0 F2 2.013204 1_555
Cu0 F6 2.064835 1_555
Cu1 F3 1.844942 1_555
Cu1 F4 1.963953 1_555
Cu1 F2 1.965156 1_555
Cu1 F6 2.015062 1_455
Cu1 F7 2.088830 1_555
Cu1 F1 2.125478 1_555
Cu2 F10 1.844942 1_555
Cu2 F9 1.963953 1_555
Cu2 F11 1.965156 1_555
Cu2 F7 2.015062 1_655
Cu2 F6 2.088830 1_555
Cu2 F12 2.125478 1_555
Cu3 F8 1.917615 1_555
Cu3 F12 1.918391 1_455
Cu3 F0 1.950358 1_554
Cu3 F9 1.968494 1_555
Cu3 F11 2.013204 1_555
Cu3 F7 2.064835 1_555
F0 Li0 1.881388 1_555
F0 Li1 1.971172 1_555
F1 Li3 1.894812 1_556
F2 Li0 1.932577 1_555
F3 Li1 1.876022 1_555
F4 Li1 1.956912 1_565
F5 Li0 1.877700 1_565
F5 Li1 1.904035 1_665
F8 Li3 1.877700 1_545
F8 Li2 1.904035 1_445
F9 Li2 1.956912 1_545
F10 Li2 1.876022 1_555
F11 Li3 1.932577 1_555
F12 Li0 1.894812 1_554
F13 Li3 1.881388 1_555
F13 Li2 1.971172 1_555
