# generated using pymatgen
data_K2B5H5O11
_symmetry_space_group_name_H-M   'P 1'
_cell_length_a   6.75721800
_cell_length_b   11.66580100
_cell_length_c   12.57465600
_cell_angle_alpha   90.00000000
_cell_angle_beta   90.00000000
_cell_angle_gamma   90.00000000
_symmetry_Int_Tables_number   1
_chemical_formula_structural   K2B5H5O11
_chemical_formula_sum   'K8 B20 H20 O44'
_cell_volume   991.23951635
_cell_formula_units_Z   4
loop_
 _symmetry_equiv_pos_site_id
 _symmetry_equiv_pos_as_xyz
  1  'x, y, z'
loop_
 _atom_site_type_symbol
 _atom_site_label
 _atom_site_symmetry_multiplicity
 _atom_site_fract_x
 _atom_site_fract_y
 _atom_site_fract_z
 _atom_site_occupancy
  K  K0  1  0.35423900  0.99433100  0.54271000  1
  K  K1  1  0.64576100  0.49433100  0.45729000  1
  K  K2  1  0.85423900  0.49433100  0.95729000  1
  K  K3  1  0.14576100  0.99433100  0.04271000  1
  K  K4  1  0.00827000  0.19429900  0.75238500  1
  K  K5  1  0.99173000  0.69429900  0.24761500  1
  K  K6  1  0.50827000  0.69429900  0.74761500  1
  K  K7  1  0.49173000  0.19429900  0.25238500  1
  B  B0  1  0.50575700  0.02938800  0.78929300  1
  B  B1  1  0.49424300  0.52938800  0.21070700  1
  B  B2  1  0.00575700  0.52938800  0.71070700  1
  B  B3  1  0.99424300  0.02938800  0.28929300  1
  B  B4  1  0.33709400  0.43798700  0.66258200  1
  B  B5  1  0.66290600  0.93798700  0.33741800  1
  B  B6  1  0.83709400  0.93798700  0.83741800  1
  B  B7  1  0.16290600  0.43798700  0.16258200  1
  B  B8  1  0.11224000  0.51648900  0.52077400  1
  B  B9  1  0.88776000  0.01648900  0.47922600  1
  B  B10  1  0.61224000  0.01648900  0.97922600  1
  B  B11  1  0.38776000  0.51648900  0.02077400  1
  B  B12  1  0.45765000  0.24182500  0.72188400  1
  B  B13  1  0.54235000  0.74182500  0.27811600  1
  B  B14  1  0.95765000  0.74182500  0.77811600  1
  B  B15  1  0.04235000  0.24182500  0.22188400  1
  B  B16  1  0.18993400  0.90003600  0.77745900  1
  B  B17  1  0.81006600  0.40003600  0.22254100  1
  B  B18  1  0.68993400  0.40003600  0.72254100  1
  B  B19  1  0.31006600  0.90003600  0.27745900  1
  H  H0  1  0.33775600  0.50962200  0.86089900  1
  H  H1  1  0.66224400  0.00962200  0.13910100  1
  H  H2  1  0.83775600  0.00962200  0.63910100  1
  H  H3  1  0.16224400  0.50962200  0.36089900  1
  H  H4  1  0.31377400  0.17534200  0.93637700  1
  H  H5  1  0.68622600  0.67534200  0.06362300  1
  H  H6  1  0.81377400  0.67534200  0.56362300  1
  H  H7  1  0.18622600  0.17534200  0.43637700  1
  H  H8  1  0.22831400  0.27790000  0.00631500  1
  H  H9  1  0.77168600  0.77790000  0.99368500  1
  H  H10  1  0.72831400  0.77790000  0.49368500  1
  H  H11  1  0.27168600  0.27790000  0.50631500  1
  H  H12  1  0.70520400  0.24070000  0.92921700  1
  H  H13  1  0.29479600  0.74070000  0.07078300  1
  H  H14  1  0.20520400  0.74070000  0.57078300  1
  H  H15  1  0.79479600  0.24070000  0.42921700  1
  H  H16  1  0.86365500  0.22141500  0.01618200  1
  H  H17  1  0.13634500  0.72141500  0.98381800  1
  H  H18  1  0.36365500  0.72141500  0.48381800  1
  H  H19  1  0.63634500  0.22141500  0.51618200  1
  O  O0  1  0.47752500  0.05542500  0.90523100  1
  O  O1  1  0.52247500  0.55542500  0.09476900  1
  O  O2  1  0.97752500  0.55542500  0.59476900  1
  O  O3  1  0.02247500  0.05542500  0.40523100  1
  O  O4  1  0.42245900  0.12678800  0.72733900  1
  O  O5  1  0.57754100  0.62678800  0.27266100  1
  O  O6  1  0.92245900  0.62678800  0.77266100  1
  O  O7  1  0.07754100  0.12678800  0.22733900  1
  O  O8  1  0.31613600  0.31150000  0.67789700  1
  O  O9  1  0.68386400  0.81150000  0.32210300  1
  O  O10  1  0.81613600  0.81150000  0.82210300  1
  O  O11  1  0.18386400  0.31150000  0.17789700  1
  O  O12  1  0.28427400  0.46198700  0.54899200  1
  O  O13  1  0.71572600  0.96198700  0.45100800  1
  O  O14  1  0.78427400  0.96198700  0.95100800  1
  O  O15  1  0.21572600  0.46198700  0.04899200  1
  O  O16  1  0.21418300  0.50596100  0.73473800  1
  O  O17  1  0.78581700  0.00596100  0.26526200  1
  O  O18  1  0.71418300  0.00596100  0.76526200  1
  O  O19  1  0.28581700  0.50596100  0.23473800  1
  O  O20  1  0.38316900  0.92711200  0.75965200  1
  O  O21  1  0.61683100  0.42711200  0.24034800  1
  O  O22  1  0.88316900  0.42711200  0.74034800  1
  O  O23  1  0.11683100  0.92711200  0.25965200  1
  O  O24  1  0.05109500  0.96939300  0.82378300  1
  O  O25  1  0.94890500  0.46939300  0.17621700  1
  O  O26  1  0.55109500  0.46939300  0.67621700  1
  O  O27  1  0.44890500  0.96939300  0.32378300  1
  O  O28  1  0.43609800  0.53526500  0.91519100  1
  O  O29  1  0.56390200  0.03526500  0.08480900  1
  O  O30  1  0.93609800  0.03526500  0.58480900  1
  O  O31  1  0.06390200  0.53526500  0.41519100  1
  O  O32  1  0.13728800  0.78824800  0.74299400  1
  O  O33  1  0.86271200  0.28824800  0.25700600  1
  O  O34  1  0.63728800  0.28824800  0.75700600  1
  O  O35  1  0.36271200  0.78824800  0.24299400  1
  O  O36  1  0.19299300  0.22033200  0.95258100  1
  O  O37  1  0.80700700  0.72033200  0.04741900  1
  O  O38  1  0.69299300  0.72033200  0.54741900  1
  O  O39  1  0.30700700  0.22033200  0.45258100  1
  O  O40  1  0.25129600  0.76985400  0.50174200  1
  O  O41  1  0.74870400  0.26985400  0.49825800  1
  O  O42  1  0.75129600  0.26985400  0.99825800  1
  O  O43  1  0.24870400  0.76985400  0.00174200  1
loop_
_geom_bond_atom_site_label_1
_geom_bond_atom_site_label_2
_geom_bond_distance
_geom_bond_site_symmetry_2
K0 O13 2.727376 1_555
K0 O40 2.758055 1_555
K0 O4 2.826701 1_565
K0 O27 2.841207 1_555
K0 O20 2.845163 1_555
K0 O39 2.887449 1_565
K0 O30 2.914028 1_465
K0 O3 2.919283 1_565
K1 O12 2.727376 1_555
K1 O41 2.758055 1_555
K1 O5 2.826701 1_555
K1 O26 2.841207 1_555
K1 O21 2.845163 1_555
K1 O38 2.887449 1_555
K1 O31 2.914028 1_655
K1 O2 2.919283 1_555
K2 O15 2.727376 1_656
K2 O42 2.758055 1_555
K2 O6 2.826701 1_555
K2 O25 2.841207 1_556
K2 O22 2.845163 1_555
K2 O37 2.887449 1_556
K2 O28 2.914028 1_555
K2 O1 2.919283 1_556
K3 O14 2.727376 1_454
K3 O43 2.758055 1_555
K3 O7 2.826701 1_565
K3 O24 2.841207 1_554
K3 O23 2.845163 1_555
K3 O36 2.887449 1_564
K3 O29 2.914028 1_565
K3 O0 2.919283 1_564
K4 O8 2.659776 1_555
K4 O34 2.736540 1_455
K4 O24 2.788125 1_545
K4 O36 2.826225 1_555
K4 O22 2.848488 1_455
K4 O30 2.849589 1_455
K4 O4 2.924473 1_555
K4 O18 2.966906 1_455
K5 O9 2.659776 1_555
K5 O35 2.736540 1_655
K5 O25 2.788125 1_555
K5 O37 2.826225 1_555
K5 O23 2.848488 1_655
K5 O31 2.849589 1_655
K5 O5 2.924473 1_555
K5 O19 2.966906 1_655
K6 O10 2.659776 1_555
K6 O32 2.736540 1_555
K6 O26 2.788125 1_555
K6 O38 2.826225 1_555
K6 O20 2.848488 1_555
K6 O28 2.849589 1_555
K6 O6 2.924473 1_555
K6 O16 2.966906 1_555
K7 O11 2.659776 1_555
K7 O33 2.736540 1_555
K7 O27 2.788125 1_545
K7 O39 2.826225 1_555
K7 O21 2.848488 1_555
K7 O29 2.849589 1_555
K7 O7 2.924473 1_555
K7 O17 2.966906 1_555
B0 O18 1.466130 1_555
B0 O4 1.488219 1_555
B0 O20 1.499552 1_545
B0 O0 1.501355 1_555
B1 O19 1.466130 1_555
B1 O5 1.488219 1_555
B1 O21 1.499552 1_555
B1 O1 1.501355 1_555
B2 O16 1.466130 1_555
B2 O6 1.488219 1_455
B2 O22 1.499552 1_455
B2 O2 1.501355 1_455
B3 O17 1.466130 1_555
B3 O7 1.488219 1_655
B3 O23 1.499552 1_645
B3 O3 1.501355 1_655
B4 O16 1.463508 1_555
B4 O8 1.494810 1_555
B4 O12 1.498658 1_555
B4 O26 1.501564 1_555
B5 O17 1.463508 1_565
B5 O9 1.494810 1_555
B5 O13 1.498658 1_555
B5 O27 1.501564 1_555
B6 O18 1.463508 1_565
B6 O10 1.494810 1_555
B6 O14 1.498658 1_555
B6 O24 1.501564 1_655
B7 O19 1.463508 1_555
B7 O11 1.494810 1_555
B7 O15 1.498658 1_555
B7 O25 1.501564 1_455
B8 O12 1.371677 1_555
B8 O2 1.378665 1_455
B8 O31 1.384692 1_555
B9 O13 1.371677 1_545
B9 O3 1.378665 1_655
B9 O30 1.384692 1_555
B10 O14 1.371677 1_545
B10 O0 1.378665 1_555
B10 O29 1.384692 1_556
B11 O15 1.371677 1_555
B11 O1 1.378665 1_555
B11 O28 1.384692 1_554
B12 O4 1.364629 1_555
B12 O8 1.371498 1_555
B12 O34 1.400636 1_555
B13 O5 1.364629 1_555
B13 O9 1.371498 1_555
B13 O35 1.400636 1_555
B14 O6 1.364629 1_555
B14 O10 1.371498 1_555
B14 O32 1.400636 1_655
B15 O7 1.364629 1_555
B15 O11 1.371498 1_555
B15 O33 1.400636 1_455
B16 O20 1.361926 1_555
B16 O24 1.368985 1_555
B16 O32 1.419522 1_555
B17 O21 1.361926 1_555
B17 O25 1.368985 1_555
B17 O33 1.419522 1_555
B18 O22 1.361926 1_555
B18 O26 1.368985 1_555
B18 O34 1.419522 1_555
B19 O23 1.361926 1_555
B19 O27 1.368985 1_555
B19 O35 1.419522 1_555
H0 O28 0.998577 1_555
H0 K6 2.828117 1_555
H1 O29 0.998577 1_555
H1 K7 2.828117 1_555
H2 O30 0.998577 1_555
H2 K4 2.828117 1_655
H3 O31 0.998577 1_555
H3 K5 2.828117 1_455
H4 O36 0.991499 1_555
H4 K3 2.745134 1_546
H5 O37 0.991499 1_555
H5 K2 2.745134 1_554
H6 O38 0.991499 1_555
H6 K1 2.745134 1_555
H7 O39 0.991499 1_555
H7 K0 2.745134 1_545
H8 O36 0.982106 1_554
H9 O37 0.982106 1_556
H10 O38 0.982106 1_555
H11 O39 0.982106 1_555
H12 O42 0.983051 1_555
H12 K4 3.071032 1_655
H13 O43 0.983051 1_555
H13 K5 3.071032 1_455
H14 O40 0.983051 1_555
H14 K6 3.071032 1_555
H15 O41 0.983051 1_555
H15 K7 3.071032 1_555
H16 O42 0.972909 1_554
H17 O43 0.972909 1_556
H18 O40 0.972909 1_555
H19 O41 0.972909 1_555
