# generated using pymatgen
data_Zr2N2O
_symmetry_space_group_name_H-M   'P 1'
_cell_length_a   3.15712800
_cell_length_b   8.52896800
_cell_length_c   8.60600447
_cell_angle_alpha   89.70320056
_cell_angle_beta   90.00000000
_cell_angle_gamma   90.00000000
_symmetry_Int_Tables_number   1
_chemical_formula_structural   Zr2N2O
_chemical_formula_sum   'Zr8 N8 O4'
_cell_volume   231.73114904
_cell_formula_units_Z   4
loop_
 _symmetry_equiv_pos_site_id
 _symmetry_equiv_pos_as_xyz
  1  'x, y, z'
loop_
 _atom_site_type_symbol
 _atom_site_label
 _atom_site_symmetry_multiplicity
 _atom_site_fract_x
 _atom_site_fract_y
 _atom_site_fract_z
 _atom_site_occupancy
  Zr  Zr0  1  0.00000000  0.82628300  0.99947800  1
  Zr  Zr1  1  0.00000000  0.49801200  0.80953900  1
  Zr  Zr2  1  0.50000000  0.99621600  0.68278900  1
  Zr  Zr3  1  0.50000000  0.31840200  0.50330700  1
  Zr  Zr4  1  0.00000000  0.67804900  0.48732400  1
  Zr  Zr5  1  0.00000000  0.99695700  0.31868000  1
  Zr  Zr6  1  0.50000000  0.50502000  0.18717000  1
  Zr  Zr7  1  0.50000000  0.18332800  0.00548100  1
  N  N0  1  0.00000000  0.05729000  0.87576100  1
  N  N1  1  0.50000000  0.55300100  0.62365300  1
  N  N2  1  0.00000000  0.13078400  0.55004900  1
  N  N3  1  0.50000000  0.86854300  0.45796800  1
  N  N4  1  0.00000000  0.44028000  0.37434000  1
  N  N5  1  0.00000000  0.69406300  0.22888900  1
  N  N6  1  0.50000000  0.94445000  0.12284500  1
  N  N7  1  0.00000000  0.37231900  0.04104500  1
  O  O0  1  0.50000000  0.63351400  0.94987100  1
  O  O1  1  0.50000000  0.31361900  0.77444900  1
  O  O2  1  0.00000000  0.80023700  0.73593000  1
  O  O3  1  0.50000000  0.18963400  0.27143400  1
loop_
_geom_bond_atom_site_label_1
_geom_bond_atom_site_label_2
_geom_bond_distance
_geom_bond_site_symmetry_2
N0 Zr7 2.214983 1_456
N0 Zr7 2.214983 1_556
N0 Zr0 2.234673 1_545
N0 Zr2 2.351626 1_445
N0 Zr2 2.351626 1_545
N1 Zr4 2.234479 1_555
N1 Zr4 2.234479 1_655
N1 Zr3 2.257807 1_555
N1 Zr1 2.294168 1_655
N1 Zr1 2.294168 1_555
N2 Zr2 2.258439 1_445
N2 Zr2 2.258439 1_545
N2 Zr3 2.282019 1_455
N2 Zr3 2.282019 1_555
N2 Zr5 2.300235 1_545
N3 Zr2 2.225099 1_555
N3 Zr5 2.261576 1_655
N3 Zr5 2.261576 1_555
N3 Zr4 2.278408 1_555
N3 Zr4 2.278408 1_655
N4 Zr3 2.189136 1_455
N4 Zr3 2.189136 1_555
N4 Zr4 2.253520 1_555
N4 Zr6 2.319950 1_455
N4 Zr6 2.319950 1_555
N5 Zr4 2.227576 1_555
N5 Zr0 2.268601 1_554
N5 Zr6 2.286135 1_455
N5 Zr6 2.286135 1_555
N5 Zr5 2.700302 1_555
N6 Zr0 2.155434 1_654
N6 Zr0 2.155434 1_554
N6 Zr7 2.269313 1_565
N6 Zr5 2.353861 1_555
N6 Zr5 2.353861 1_655
N7 Zr1 2.257554 1_554
N7 Zr7 2.277908 1_455
N7 Zr7 2.277908 1_555
N7 Zr6 2.317116 1_455
N7 Zr6 2.317116 1_555
O0 Zr1 2.302278 1_655
O0 Zr1 2.302278 1_555
O0 Zr6 2.312666 1_556
O0 Zr0 2.320459 1_655
O0 Zr0 2.320459 1_555
O1 Zr1 2.249735 1_655
O1 Zr1 2.249735 1_555
O1 Zr7 2.272701 1_556
O1 Zr3 2.333595 1_555
O1 Zr2 2.823627 1_545
O2 Zr0 2.280093 1_555
O2 Zr2 2.342436 1_555
O2 Zr2 2.342436 1_455
O2 Zr4 2.384665 1_555
O2 Zr1 2.651179 1_555
O3 Zr3 2.282739 1_555
O3 Zr7 2.289703 1_555
O3 Zr5 2.313184 1_645
O3 Zr5 2.313184 1_545
O3 Zr6 2.782324 1_555
