# generated using pymatgen
data_Li3Sb17S27
_symmetry_space_group_name_H-M   'P 1'
_cell_length_a   8.84026600
_cell_length_b   8.84909578
_cell_length_c   15.49285948
_cell_angle_alpha   103.86284120
_cell_angle_beta   95.38247109
_cell_angle_gamma   96.31730546
_symmetry_Int_Tables_number   1
_chemical_formula_structural   Li3Sb17S27
_chemical_formula_sum   'Li3 Sb17 S27'
_cell_volume   1160.42971755
_cell_formula_units_Z   1
loop_
 _symmetry_equiv_pos_site_id
 _symmetry_equiv_pos_as_xyz
  1  'x, y, z'
loop_
 _atom_site_type_symbol
 _atom_site_label
 _atom_site_symmetry_multiplicity
 _atom_site_fract_x
 _atom_site_fract_y
 _atom_site_fract_z
 _atom_site_occupancy
  Li  Li0  1  0.16783500  0.17034100  0.50607600  1
  Li  Li1  1  0.50167700  0.49864800  0.50162900  1
  Li  Li2  1  0.83579000  0.83250600  0.50159200  1
  Sb  Sb0  1  0.62237800  0.33248500  0.92103900  1
  Sb  Sb1  1  0.12635700  0.59406300  0.61747800  1
  Sb  Sb2  1  0.88665700  0.00566000  0.80783200  1
  Sb  Sb3  1  0.53688100  0.05903100  0.38640200  1
  Sb  Sb4  1  0.05235800  0.33191300  0.06715800  1
  Sb  Sb5  1  0.81487400  0.28152700  0.61795400  1
  Sb  Sb6  1  0.28331700  0.99398900  0.92111900  1
  Sb  Sb7  1  0.53449600  0.65407000  0.80719300  1
  Sb  Sb8  1  0.46789700  0.31993000  0.18297600  1
  Sb  Sb9  1  0.71032200  0.00235700  0.06931400  1
  Sb  Sb10  1  0.20591700  0.72364200  0.38730900  1
  Sb  Sb11  1  0.95839300  0.66326100  0.92905900  1
  Sb  Sb12  1  0.45256600  0.95235900  0.61093400  1
  Sb  Sb13  1  0.13469400  0.99568500  0.18748200  1
  Sb  Sb14  1  0.87029000  0.38830000  0.38568500  1
  Sb  Sb15  1  0.37934000  0.65994100  0.06772300  1
  Sb  Sb16  1  0.79542400  0.65780100  0.18641900  1
  S  S0  1  0.15672300  0.01493300  0.77419600  1
  S  S1  1  0.10440600  0.32918300  0.65393600  1
  S  S2  1  0.22082600  0.01502900  0.35076200  1
  S  S3  1  0.56078500  0.02277900  0.87325500  1
  S  S4  1  0.16831600  0.30354900  0.22241900  1
  S  S5  1  0.18028400  0.46776500  0.46277700  1
  S  S6  1  0.47707500  0.19863800  0.53525700  1
  S  S7  1  0.50364800  0.36280600  0.77454800  1
  S  S8  1  0.23593400  0.68893600  0.88075100  1
  S  S9  1  0.09700200  0.64966000  0.12502000  1
  S  S10  1  0.84158700  0.12985700  0.46259100  1
  S  S11  1  0.43868600  0.64835900  0.64782900  1
  S  S12  1  0.55924600  0.34367200  0.35337000  1
  S  S13  1  0.15717000  0.87900900  0.53481900  1
  S  S14  1  0.89892500  0.35285100  0.87942500  1
  S  S15  1  0.32482600  0.34743400  0.01023800  1
  S  S16  1  0.75698100  0.31689600  0.13078500  1
  S  S17  1  0.50832000  0.64173000  0.22317600  1
  S  S18  1  0.51298200  0.79566900  0.46617400  1
  S  S19  1  0.81958500  0.53814200  0.53450200  1
  S  S20  1  0.82908400  0.69163300  0.77615000  1
  S  S21  1  0.43247800  0.99249400  0.13012300  1
  S  S22  1  0.78229600  0.99246300  0.64713500  1
  S  S23  1  0.89169000  0.67887500  0.35256000  1
  S  S24  1  0.66453700  0.67186900  0.00397700  1
  S  S25  1  0.83773200  0.97100500  0.22127700  1
  S  S26  1  0.99409100  0.00357000  0.00139600  1
loop_
_geom_bond_atom_site_label_1
_geom_bond_atom_site_label_2
_geom_bond_distance
_geom_bond_site_symmetry_2
Li0 S1 2.531650 1_555
Li0 S2 2.582022 1_555
Li0 S6 2.702553 1_555
Li0 S13 2.712548 1_545
Li0 S5 2.861006 1_555
Li0 S10 2.862306 1_455
Li1 S11 2.481272 1_555
Li1 S12 2.505825 1_555
Li1 S19 2.776662 1_555
Li1 S18 2.804348 1_555
Li1 S6 2.814921 1_555
Li1 S5 2.817600 1_555
Li2 S22 2.475798 1_555
Li2 S23 2.506256 1_555
Li2 S19 2.762930 1_555
Li2 S13 2.805872 1_655
Li2 S18 2.822553 1_555
Li2 S10 2.833623 1_565
S0 Sb2 2.487776 1_455
S0 Sb6 2.497604 1_545
S1 Sb1 2.530947 1_555
S1 Sb5 2.534161 1_455
S2 Sb13 2.531951 1_545
S2 Sb10 2.761437 1_545
S2 Sb3 2.762447 1_555
S3 Sb6 2.631678 1_545
S3 Sb0 2.641828 1_555
S3 Sb2 3.149533 1_555
S3 Sb7 3.152032 1_545
S4 Sb4 2.604475 1_555
S4 Sb13 2.624543 1_545
S4 Sb8 2.769461 1_555
S5 Sb1 2.503760 1_555
S5 Sb10 2.784027 1_555
S5 Sb14 2.826722 1_455
S6 Sb3 2.476179 1_555
S6 Sb12 2.709118 1_545
S6 Sb5 3.073590 1_555
S7 Sb7 2.483556 1_555
S7 Sb0 2.496290 1_555
S8 Sb6 2.597420 1_555
S8 Sb11 2.633423 1_455
S8 Sb7 2.989183 1_555
S8 Sb15 3.130951 1_556
S9 Sb4 2.710534 1_555
S9 Sb15 2.725877 1_555
S9 Sb16 2.915988 1_455
S9 Sb13 2.952700 1_555
S10 Sb5 2.505825 1_555
S10 Sb3 2.778396 1_555
S10 Sb14 2.819422 1_555
S11 Sb7 2.520790 1_555
S11 Sb1 2.726113 1_555
S11 Sb12 2.873316 1_555
S12 Sb8 2.638605 1_555
S12 Sb3 2.678154 1_555
S12 Sb14 2.715794 1_555
S13 Sb10 2.471491 1_555
S13 Sb12 2.704382 1_555
S13 Sb1 3.087702 1_555
S14 Sb0 2.584446 1_555
S14 Sb11 2.647083 1_555
S14 Sb2 2.992047 1_555
S14 Sb4 3.147544 1_656
S15 Sb4 2.642357 1_555
S15 Sb15 2.668121 1_555
S15 Sb8 2.926747 1_555
S15 Sb6 3.066974 1_544
S15 Sb0 3.085035 1_554
S16 Sb9 2.688450 1_555
S16 Sb8 2.752797 1_555
S16 Sb4 2.877001 1_655
S16 Sb16 2.903848 1_555
S17 Sb15 2.614908 1_555
S17 Sb16 2.648940 1_555
S17 Sb8 2.740268 1_555
S18 Sb12 2.476946 1_555
S18 Sb10 2.809211 1_555
S18 Sb3 2.885174 1_565
S19 Sb14 2.476816 1_555
S19 Sb1 2.828056 1_655
S19 Sb5 2.868122 1_555
S20 Sb11 2.611904 1_555
S20 Sb2 2.685194 1_565
S20 Sb7 2.691640 1_555
S21 Sb9 2.711922 1_565
S21 Sb8 2.789161 1_565
S21 Sb15 2.839472 1_555
S21 Sb13 2.857223 1_555
S22 Sb2 2.543467 1_565
S22 Sb5 2.692014 1_565
S22 Sb12 2.882258 1_555
S23 Sb16 2.590092 1_555
S23 Sb14 2.730274 1_555
S23 Sb10 2.745593 1_655
S24 Sb15 2.793130 1_555
S24 Sb9 2.825835 1_565
S24 Sb0 2.936675 1_554
S24 Sb11 2.944190 1_554
S24 Sb16 2.988384 1_555
S24 Sb7 3.116689 1_554
S25 Sb9 2.602462 1_565
S25 Sb16 2.670183 1_555
S25 Sb13 2.720316 1_655
S26 Sb9 2.809818 1_555
S26 Sb4 2.810541 1_655
S26 Sb11 2.920876 1_544
S26 Sb6 2.947066 1_644
S26 Sb13 3.050368 1_645
S26 Sb2 3.064576 1_554
