# generated using pymatgen
data_LiVF4
_symmetry_space_group_name_H-M   'P 1'
_cell_length_a   3.97563000
_cell_length_b   11.17520700
_cell_length_c   15.46214300
_cell_angle_alpha   90.00000000
_cell_angle_beta   90.00000000
_cell_angle_gamma   90.00000000
_symmetry_Int_Tables_number   1
_chemical_formula_structural   LiVF4
_chemical_formula_sum   'Li8 V8 F32'
_cell_volume   686.95963791
_cell_formula_units_Z   8
loop_
 _symmetry_equiv_pos_site_id
 _symmetry_equiv_pos_as_xyz
  1  'x, y, z'
loop_
 _atom_site_type_symbol
 _atom_site_label
 _atom_site_symmetry_multiplicity
 _atom_site_fract_x
 _atom_site_fract_y
 _atom_site_fract_z
 _atom_site_occupancy
  Li  Li0  1  0.51540700  0.50000000  0.14644400  1
  Li  Li1  1  0.00000000  0.75000000  0.25000000  1
  Li  Li2  1  0.00000000  0.25000000  0.25000000  1
  Li  Li3  1  0.48459300  0.00000000  0.35355600  1
  Li  Li4  1  0.48459300  0.00000000  0.64644400  1
  Li  Li5  1  0.00000000  0.25000000  0.75000000  1
  Li  Li6  1  0.00000000  0.75000000  0.75000000  1
  Li  Li7  1  0.51540700  0.50000000  0.85355600  1
  V  V0  1  0.78275000  0.26717500  0.00000000  1
  V  V1  1  0.78275000  0.73282500  0.00000000  1
  V  V2  1  0.73875900  0.00000000  0.16831800  1
  V  V3  1  0.26124100  0.50000000  0.33168200  1
  V  V4  1  0.21725000  0.76717500  0.50000000  1
  V  V5  1  0.21725000  0.23282500  0.50000000  1
  V  V6  1  0.26124100  0.50000000  0.66831800  1
  V  V7  1  0.73875900  0.00000000  0.83168200  1
  F  F0  1  0.28200600  0.26436300  0.00000000  1
  F  F1  1  0.28200600  0.73563700  0.00000000  1
  F  F2  1  0.77556000  0.13284600  0.08632200  1
  F  F3  1  0.77993300  0.37602600  0.09545500  1
  F  F4  1  0.77993300  0.62397400  0.09545500  1
  F  F5  1  0.77556000  0.86715400  0.08632200  1
  F  F6  1  0.23982100  0.00000000  0.17195800  1
  F  F7  1  0.71430600  0.11967600  0.26189800  1
  F  F8  1  0.71430600  0.88032400  0.26189800  1
  F  F9  1  0.28569400  0.38032400  0.23810200  1
  F  F10  1  0.28569400  0.61967600  0.23810200  1
  F  F11  1  0.76017900  0.50000000  0.32804200  1
  F  F12  1  0.22444000  0.63284600  0.41367800  1
  F  F13  1  0.22006700  0.12397400  0.40454500  1
  F  F14  1  0.22444000  0.36715400  0.41367800  1
  F  F15  1  0.22006700  0.87602600  0.40454500  1
  F  F16  1  0.71799400  0.76436300  0.50000000  1
  F  F17  1  0.71799400  0.23563700  0.50000000  1
  F  F18  1  0.22006700  0.12397400  0.59545500  1
  F  F19  1  0.22444000  0.36715400  0.58632200  1
  F  F20  1  0.22444000  0.63284600  0.58632200  1
  F  F21  1  0.22006700  0.87602600  0.59545500  1
  F  F22  1  0.76017900  0.50000000  0.67195800  1
  F  F23  1  0.28569400  0.38032400  0.76189800  1
  F  F24  1  0.28569400  0.61967600  0.76189800  1
  F  F25  1  0.71430600  0.11967600  0.73810200  1
  F  F26  1  0.71430600  0.88032400  0.73810200  1
  F  F27  1  0.23982100  0.00000000  0.82804200  1
  F  F28  1  0.77556000  0.13284600  0.91367800  1
  F  F29  1  0.77993300  0.37602600  0.90454500  1
  F  F30  1  0.77993300  0.62397400  0.90454500  1
  F  F31  1  0.77556000  0.86715400  0.91367800  1
loop_
_geom_bond_atom_site_label_1
_geom_bond_atom_site_label_2
_geom_bond_distance
_geom_bond_site_symmetry_2
F0 V0 1.985106 1_455
F0 V0 1.991021 1_555
F1 V1 1.985106 1_455
F1 V1 1.991021 1_555
F2 V2 1.957751 1_555
F2 V0 2.008922 1_555
F3 Li0 1.909709 1_555
F3 V0 1.912650 1_555
F4 Li0 1.909709 1_555
F4 V1 1.912650 1_555
F5 V2 1.957751 1_565
F5 V1 2.008922 1_555
F6 V2 1.984391 1_555
F6 V2 1.992832 1_455
F7 Li2 1.856074 1_655
F7 V2 1.972754 1_555
F7 Li3 2.152027 1_555
F8 Li1 1.856074 1_655
F8 V2 1.972754 1_565
F8 Li3 2.152027 1_565
F9 Li2 1.856074 1_555
F9 V3 1.972754 1_555
F9 Li0 2.152027 1_555
F10 Li1 1.856074 1_555
F10 V3 1.972754 1_555
F10 Li0 2.152027 1_555
F11 V3 1.984391 1_555
F11 V3 1.992832 1_655
F12 V3 1.957751 1_555
F12 V4 2.008922 1_555
F13 Li3 1.909709 1_555
F13 V5 1.912650 1_555
F14 V3 1.957751 1_555
F14 V5 2.008922 1_555
F15 Li3 1.909709 1_565
F15 V4 1.912650 1_555
F16 V4 1.985106 1_655
F16 V4 1.991021 1_555
F17 V5 1.985106 1_655
F17 V5 1.991021 1_555
F18 Li4 1.909709 1_555
F18 V5 1.912650 1_555
F19 V6 1.957751 1_555
F19 V5 2.008922 1_555
F20 V6 1.957751 1_555
F20 V4 2.008922 1_555
F21 Li4 1.909709 1_565
F21 V4 1.912650 1_555
F22 V6 1.984391 1_555
F22 V6 1.992832 1_655
F23 Li5 1.856074 1_555
F23 V6 1.972754 1_555
F23 Li7 2.152027 1_555
F24 Li6 1.856074 1_555
F24 V6 1.972754 1_555
F24 Li7 2.152027 1_555
F25 Li5 1.856074 1_655
F25 V7 1.972754 1_555
F25 Li4 2.152027 1_555
F26 Li6 1.856074 1_655
F26 V7 1.972754 1_565
F26 Li4 2.152027 1_565
F27 V7 1.984391 1_555
F27 V7 1.992832 1_455
F28 V7 1.957751 1_555
F28 V0 2.008922 1_556
F29 Li7 1.909709 1_555
F29 V0 1.912650 1_556
F30 Li7 1.909709 1_555
F30 V1 1.912650 1_556
F31 V7 1.957751 1_565
F31 V1 2.008922 1_556
