# generated using pymatgen
data_Na4Sn4H10O11
_symmetry_space_group_name_H-M   'P 1'
_cell_length_a   8.75832600
_cell_length_b   12.81091600
_cell_length_c   14.83406158
_cell_angle_alpha   77.62095934
_cell_angle_beta   90.00000000
_cell_angle_gamma   90.00000000
_symmetry_Int_Tables_number   1
_chemical_formula_structural   Na4Sn4H10O11
_chemical_formula_sum   'Na16 Sn16 H40 O44'
_cell_volume   1625.71767558
_cell_formula_units_Z   4
loop_
 _symmetry_equiv_pos_site_id
 _symmetry_equiv_pos_as_xyz
  1  'x, y, z'
loop_
 _atom_site_type_symbol
 _atom_site_label
 _atom_site_symmetry_multiplicity
 _atom_site_fract_x
 _atom_site_fract_y
 _atom_site_fract_z
 _atom_site_occupancy
  Na  Na0  1  0.85367700  0.59542300  0.99105800  1
  Na  Na1  1  0.59930500  0.40264000  0.94163000  1
  Na  Na2  1  0.31166400  0.24195900  0.84144600  1
  Na  Na3  1  0.90910400  0.42680800  0.79027900  1
  Na  Na4  1  0.40910400  0.07319200  0.70972100  1
  Na  Na5  1  0.35367700  0.90457700  0.50894200  1
  Na  Na6  1  0.81166400  0.25804100  0.65855400  1
  Na  Na7  1  0.90069500  0.90264000  0.44163000  1
  Na  Na8  1  0.09930500  0.09736000  0.55837000  1
  Na  Na9  1  0.18833600  0.74195900  0.34144600  1
  Na  Na10  1  0.64632300  0.09542300  0.49105800  1
  Na  Na11  1  0.59089600  0.92680800  0.29027900  1
  Na  Na12  1  0.09089600  0.57319200  0.20972100  1
  Na  Na13  1  0.68833600  0.75804100  0.15855400  1
  Na  Na14  1  0.40069500  0.59736000  0.05837000  1
  Na  Na15  1  0.14632300  0.40457700  0.00894200  1
  Sn  Sn0  1  0.59813700  0.79476400  0.92972500  1
  Sn  Sn1  1  0.07556500  0.96624100  0.81843100  1
  Sn  Sn2  1  0.17843700  0.64096200  0.84465200  1
  Sn  Sn3  1  0.68782500  0.13043000  0.91387800  1
  Sn  Sn4  1  0.67843700  0.85903800  0.65534800  1
  Sn  Sn5  1  0.57556500  0.53375900  0.68156900  1
  Sn  Sn6  1  0.09813700  0.70523600  0.57027500  1
  Sn  Sn7  1  0.18782500  0.36957000  0.58612200  1
  Sn  Sn8  1  0.81217500  0.63043000  0.41387800  1
  Sn  Sn9  1  0.90186300  0.29476400  0.42972500  1
  Sn  Sn10  1  0.42443500  0.46624100  0.31843100  1
  Sn  Sn11  1  0.32156300  0.14096200  0.34465200  1
  Sn  Sn12  1  0.31217500  0.86957000  0.08612200  1
  Sn  Sn13  1  0.82156300  0.35903800  0.15534800  1
  Sn  Sn14  1  0.92443500  0.03375900  0.18156900  1
  Sn  Sn15  1  0.40186300  0.20523600  0.07027500  1
  H  H0  1  0.86423300  0.34095100  0.97930400  1
  H  H1  1  0.59510000  0.60087500  0.88868400  1
  H  H2  1  0.12288600  0.17410600  0.02166000  1
  H  H3  1  0.76567000  0.57191700  0.81274800  1
  H  H4  1  0.91903500  0.68618500  0.76510000  1
  H  H5  1  0.29482600  0.03321000  0.90851800  1
  H  H6  1  0.94646600  0.22979800  0.88767400  1
  H  H7  1  0.41903500  0.81381500  0.73490000  1
  H  H8  1  0.29075100  0.45946300  0.81966900  1
  H  H9  1  0.26567000  0.92808300  0.68725200  1
  H  H10  1  0.14653000  0.38311300  0.75431400  1
  H  H11  1  0.02238700  0.16247300  0.74523600  1
  H  H12  1  0.09510000  0.89912500  0.61131600  1
  H  H13  1  0.52238700  0.33752700  0.75476400  1
  H  H14  1  0.64653000  0.11688700  0.74568600  1
  H  H15  1  0.79075100  0.04053700  0.68033100  1
  H  H16  1  0.44646600  0.27020200  0.61232600  1
  H  H17  1  0.79482600  0.46679000  0.59148200  1
  H  H18  1  0.63576700  0.84095100  0.47930400  1
  H  H19  1  0.37711400  0.67410600  0.52166000  1
  H  H20  1  0.62288600  0.32589400  0.47834000  1
  H  H21  1  0.36423300  0.15904900  0.52069600  1
  H  H22  1  0.20517400  0.53321000  0.40851800  1
  H  H23  1  0.55353400  0.72979800  0.38767400  1
  H  H24  1  0.20924900  0.95946300  0.31966900  1
  H  H25  1  0.35347000  0.88311300  0.25431400  1
  H  H26  1  0.47761300  0.66247300  0.24523600  1
  H  H27  1  0.90490000  0.10087500  0.38868400  1
  H  H28  1  0.97761300  0.83752700  0.25476400  1
  H  H29  1  0.85347000  0.61688700  0.24568600  1
  H  H30  1  0.73433000  0.07191700  0.31274800  1
  H  H31  1  0.70924900  0.54053700  0.18033100  1
  H  H32  1  0.58096500  0.18618500  0.26510000  1
  H  H33  1  0.05353400  0.77020200  0.11232600  1
  H  H34  1  0.70517400  0.96679000  0.09148200  1
  H  H35  1  0.08096500  0.31381500  0.23490000  1
  H  H36  1  0.23433000  0.42808300  0.18725200  1
  H  H37  1  0.87711400  0.82589400  0.97834000  1
  H  H38  1  0.40490000  0.39912500  0.11131600  1
  H  H39  1  0.13576700  0.65904900  0.02069600  1
  O  O0  1  0.80499100  0.77154700  0.00869400  1
  O  O1  1  0.13817900  0.59756800  0.98877900  1
  O  O2  1  0.58393800  0.62582100  0.94710500  1
  O  O3  1  0.52106200  0.22839100  0.94723300  1
  O  O4  1  0.93871100  0.63121300  0.82025600  1
  O  O5  1  0.84694200  0.26145000  0.89546900  1
  O  O6  1  0.19110000  0.47519800  0.84402800  1
  O  O7  1  0.67460200  0.52517200  0.81254300  1
  O  O8  1  0.17460200  0.97482800  0.68745700  1
  O  O9  1  0.26338200  0.05968000  0.84451800  1
  O  O10  1  0.43871100  0.86878700  0.67974400  1
  O  O11  1  0.44987100  0.39744100  0.74567700  1
  O  O12  1  0.60144800  0.17067700  0.77620700  1
  O  O13  1  0.10144800  0.32932300  0.72379300  1
  O  O14  1  0.94987100  0.10255900  0.75432300  1
  O  O15  1  0.76338200  0.44032000  0.65548200  1
  O  O16  1  0.08393800  0.87417900  0.55289500  1
  O  O17  1  0.63817900  0.90243200  0.51122100  1
  O  O18  1  0.30499100  0.72845300  0.49130600  1
  O  O19  1  0.69110000  0.02480200  0.65597200  1
  O  O20  1  0.34694200  0.23855000  0.60453100  1
  O  O21  1  0.97893800  0.72839100  0.44723300  1
  O  O22  1  0.02106200  0.27160900  0.55276700  1
  O  O23  1  0.65305800  0.76145000  0.39546900  1
  O  O24  1  0.30890000  0.97519800  0.34402800  1
  O  O25  1  0.69500900  0.27154700  0.50869400  1
  O  O26  1  0.36182100  0.09756800  0.48877900  1
  O  O27  1  0.91606200  0.12582100  0.44710500  1
  O  O28  1  0.23661800  0.55968000  0.34451800  1
  O  O29  1  0.05012900  0.89744100  0.24567700  1
  O  O30  1  0.89855200  0.67067700  0.27620700  1
  O  O31  1  0.39855200  0.82932300  0.22379300  1
  O  O32  1  0.55012900  0.60255900  0.25432300  1
  O  O33  1  0.56128900  0.13121300  0.32025600  1
  O  O34  1  0.73661800  0.94032000  0.15548200  1
  O  O35  1  0.82539800  0.02517200  0.31254300  1
  O  O36  1  0.32539800  0.47482800  0.18745700  1
  O  O37  1  0.80890000  0.52480200  0.15597200  1
  O  O38  1  0.15305800  0.73855000  0.10453100  1
  O  O39  1  0.06128900  0.36878700  0.17974400  1
  O  O40  1  0.47893800  0.77160900  0.05276700  1
  O  O41  1  0.41606200  0.37417900  0.05289500  1
  O  O42  1  0.86182100  0.40243200  0.01122100  1
  O  O43  1  0.19500900  0.22845300  0.99130600  1
loop_
_geom_bond_atom_site_label_1
_geom_bond_atom_site_label_2
_geom_bond_distance
_geom_bond_site_symmetry_2
Na0 O0 2.365224 1_556
Na0 O42 2.426975 1_556
Na0 O37 2.451116 1_556
Na0 O2 2.459496 1_555
Na0 O1 2.492062 1_655
Na0 O4 2.585802 1_555
Na1 O41 2.274823 1_556
Na1 O7 2.297173 1_555
Na1 O3 2.319500 1_555
Na1 O42 2.520085 1_556
Na2 O9 2.363947 1_555
Na2 O3 2.395679 1_555
Na2 O43 2.418837 1_555
Na3 O15 2.347083 1_555
Na3 O5 2.408640 1_555
Na3 O13 2.428663 1_655
Na3 O7 2.468548 1_555
Na3 O6 2.707750 1_655
Na3 O4 2.760687 1_555
Na4 O9 2.347083 1_555
Na4 O20 2.408640 1_555
Na4 O12 2.428663 1_555
Na4 O8 2.468548 1_545
Na4 O19 2.707750 1_555
Na4 O10 2.760687 1_545
Na5 O18 2.365224 1_555
Na5 O26 2.426975 1_565
Na5 O24 2.451116 1_555
Na5 O16 2.459496 1_555
Na5 O17 2.492062 1_555
Na5 O10 2.585802 1_555
Na6 O15 2.363947 1_555
Na6 O22 2.395679 1_655
Na6 O25 2.418837 1_555
Na7 O16 2.274823 1_655
Na7 O35 2.297173 1_565
Na7 O21 2.319500 1_555
Na7 O17 2.520085 1_555
Na8 O27 2.274823 1_455
Na8 O8 2.297173 1_545
Na8 O22 2.319500 1_555
Na8 O26 2.520085 1_555
Na9 O28 2.363947 1_555
Na9 O21 2.395679 1_455
Na9 O18 2.418837 1_555
Na10 O25 2.365224 1_555
Na10 O17 2.426975 1_545
Na10 O19 2.451116 1_555
Na10 O27 2.459496 1_555
Na10 O26 2.492062 1_555
Na10 O33 2.585802 1_555
Na11 O34 2.347083 1_555
Na11 O23 2.408640 1_555
Na11 O31 2.428663 1_555
Na11 O35 2.468548 1_565
Na11 O24 2.707750 1_555
Na11 O33 2.760687 1_565
Na12 O28 2.347083 1_555
Na12 O38 2.408640 1_555
Na12 O30 2.428663 1_455
Na12 O36 2.468548 1_555
Na12 O37 2.707750 1_455
Na12 O39 2.760687 1_555
Na13 O34 2.363947 1_555
Na13 O40 2.395679 1_555
Na13 O0 2.418837 1_555
Na14 O2 2.274823 1_554
Na14 O36 2.297173 1_555
Na14 O40 2.319500 1_555
Na14 O1 2.520085 1_554
Na15 O43 2.365224 1_554
Na15 O1 2.426975 1_554
Na15 O6 2.451116 1_554
Na15 O41 2.459496 1_555
Na15 O42 2.492062 1_455
Na15 O39 2.585802 1_555
H0 O42 1.002424 1_556
H0 Na1 2.476173 1_555
H1 O2 0.990690 1_555
H1 Na1 2.492478 1_555
H2 O43 0.975752 1_554
H3 O7 0.997786 1_555
H3 Na3 2.326092 1_555
H4 O4 0.973671 1_555
H5 O9 0.976793 1_555
H6 O5 0.978619 1_555
H7 O10 0.973671 1_555
H8 O6 0.981922 1_555
H9 O8 0.997786 1_555
H9 Na4 2.326092 1_565
H10 O13 0.984637 1_555
H10 Na3 2.247254 1_455
H11 O14 0.983017 1_455
H12 O16 0.990690 1_555
H12 Na8 2.492478 1_565
H13 O11 0.983017 1_555
H14 O12 0.984637 1_555
H14 Na4 2.247254 1_555
H15 O19 0.981922 1_555
H16 O20 0.978619 1_555
H17 O15 0.976793 1_555
H18 O17 1.002424 1_555
H18 Na7 2.476173 1_555
H19 O18 0.975752 1_555
H20 O25 0.975752 1_555
H21 O26 1.002424 1_555
H21 Na8 2.476173 1_555
H22 O28 0.976793 1_555
H23 O23 0.978619 1_555
H24 O24 0.981922 1_555
H25 O31 0.984637 1_555
H25 Na11 2.247254 1_555
H26 O32 0.983017 1_555
H27 O27 0.990690 1_555
H27 Na7 2.492478 1_545
H28 O29 0.983017 1_655
H29 O30 0.984637 1_555
H29 Na12 2.247254 1_655
H30 O35 0.997786 1_555
H30 Na11 2.326092 1_545
H31 O37 0.981922 1_555
H32 O33 0.973671 1_555
H33 O38 0.978619 1_555
H34 O34 0.976793 1_555
H35 O39 0.973671 1_555
H36 O36 0.997786 1_555
H36 Na12 2.326092 1_555
H37 O0 0.975752 1_556
H38 O41 0.990690 1_555
H38 Na14 2.492478 1_555
H39 O1 1.002424 1_554
H39 Na14 2.476173 1_555
O0 Sn0 2.143261 1_554
O1 Sn2 2.120086 1_555
O2 Sn0 2.127663 1_555
O3 Sn3 2.054082 1_555
O3 Sn15 2.068129 1_556
O4 Sn2 2.138751 1_655
O5 Sn3 2.153481 1_555
O6 Sn2 2.128484 1_555
O7 Sn5 2.108936 1_555
O8 Sn1 2.108936 1_555
O9 Sn1 2.118293 1_545
O10 Sn4 2.138751 1_555
O11 Sn5 2.110447 1_555
O12 Sn3 2.134797 1_555
O13 Sn7 2.134797 1_555
O14 Sn1 2.110447 1_645
O15 Sn5 2.118293 1_555
O16 Sn6 2.127663 1_555
O17 Sn4 2.120086 1_555
O18 Sn6 2.143261 1_555
O19 Sn4 2.128484 1_545
O20 Sn7 2.153481 1_555
O21 Sn8 2.054082 1_555
O21 Sn6 2.068129 1_655
O22 Sn7 2.054082 1_555
O22 Sn9 2.068129 1_455
O23 Sn8 2.153481 1_555
O24 Sn11 2.128484 1_565
O25 Sn9 2.143261 1_555
O26 Sn11 2.120086 1_555
O27 Sn9 2.127663 1_555
O28 Sn10 2.118293 1_555
O29 Sn14 2.110447 1_465
O30 Sn8 2.134797 1_555
O31 Sn12 2.134797 1_555
O32 Sn10 2.110447 1_555
O33 Sn11 2.138751 1_555
O34 Sn14 2.118293 1_565
O35 Sn14 2.108936 1_555
O36 Sn10 2.108936 1_555
O37 Sn13 2.128484 1_555
O38 Sn12 2.153481 1_555
O39 Sn13 2.138751 1_455
O40 Sn12 2.054082 1_555
O40 Sn0 2.068129 1_554
O41 Sn15 2.127663 1_555
O42 Sn13 2.120086 1_555
O43 Sn15 2.143261 1_556
