# generated using pymatgen
data_Na5Mn2P2(CO7)2
_symmetry_space_group_name_H-M   'P 1'
_cell_length_a   6.63058431
_cell_length_b   10.56808174
_cell_length_c   10.43393500
_cell_angle_alpha   119.59234913
_cell_angle_beta   88.81323704
_cell_angle_gamma   90.14698718
_symmetry_Int_Tables_number   1
_chemical_formula_structural   Na5Mn2P2(CO7)2
_chemical_formula_sum   'Na10 Mn4 P4 C4 O28'
_cell_volume   635.60315997
_cell_formula_units_Z   2
loop_
 _symmetry_equiv_pos_site_id
 _symmetry_equiv_pos_as_xyz
  1  'x, y, z'
loop_
 _atom_site_type_symbol
 _atom_site_label
 _atom_site_symmetry_multiplicity
 _atom_site_fract_x
 _atom_site_fract_y
 _atom_site_fract_z
 _atom_site_occupancy
  Na  Na0  1  0.22634000  0.43257800  0.08958200  1
  Na  Na1  1  0.22644500  0.93231900  0.08965900  1
  Na  Na2  1  0.49461700  0.25403600  0.26237600  1
  Na  Na3  1  0.49495500  0.75404300  0.26242200  1
  Na  Na4  1  0.50149800  0.74401300  0.73944200  1
  Na  Na5  1  0.50155600  0.24416800  0.73943900  1
  Na  Na6  1  0.99011300  0.74237700  0.73544800  1
  Na  Na7  1  0.99004000  0.24230700  0.73546900  1
  Na  Na8  1  0.76210900  0.58080700  0.92871200  1
  Na  Na9  1  0.76205300  0.08078600  0.92862200  1
  Mn  Mn0  1  0.76303700  0.06482100  0.34953800  1
  Mn  Mn1  1  0.24908000  0.43494600  0.64598300  1
  Mn  Mn2  1  0.76282500  0.56417300  0.34942100  1
  Mn  Mn3  1  0.24926400  0.93478000  0.64585100  1
  P  P0  1  0.25685400  0.56091000  0.42112100  1
  P  P1  1  0.25699700  0.06090700  0.42117100  1
  P  P2  1  0.74723000  0.43898400  0.58074800  1
  P  P3  1  0.74743000  0.93888000  0.58049500  1
  C  C0  1  0.74272700  0.39047300  0.05735100  1
  C  C1  1  0.74272400  0.89053500  0.05728100  1
  C  C2  1  0.25243100  0.60660500  0.93585400  1
  C  C3  1  0.25257700  0.10640300  0.93572700  1
  O  O0  1  0.27465900  0.17062000  0.07399800  1
  O  O1  1  0.27465300  0.67109500  0.07412600  1
  O  O2  1  0.75693700  0.53288600  0.12965300  1
  O  O3  1  0.75696100  0.03298300  0.12961300  1
  O  O4  1  0.73259300  0.32232400  0.13072300  1
  O  O5  1  0.73259300  0.82235500  0.13061200  1
  O  O6  1  0.07039100  0.54207400  0.32685300  1
  O  O7  1  0.07061200  0.04203300  0.32685100  1
  O  O8  1  0.44224400  0.55125200  0.32225000  1
  O  O9  1  0.44238900  0.05131600  0.32237400  1
  O  O10  1  0.27350300  0.43334200  0.45575400  1
  O  O11  1  0.27361900  0.93328500  0.45577400  1
  O  O12  1  0.74049900  0.29566100  0.43584900  1
  O  O13  1  0.74072700  0.79539300  0.43586500  1
  O  O14  1  0.25077500  0.70558800  0.57001900  1
  O  O15  1  0.25074900  0.20554900  0.57010700  1
  O  O16  1  0.74912600  0.57229900  0.55320800  1
  O  O17  1  0.74914100  0.07220300  0.55294000  1
  O  O18  1  0.56235500  0.45847300  0.68594500  1
  O  O19  1  0.56257700  0.95851600  0.68583000  1
  O  O20  1  0.93413500  0.45148900  0.67603800  1
  O  O21  1  0.93445400  0.95171200  0.67587300  1
  O  O22  1  0.23941100  0.67485200  0.86063900  1
  O  O23  1  0.23964400  0.17488800  0.86074100  1
  O  O24  1  0.24026300  0.46218900  0.86036400  1
  O  O25  1  0.24046700  0.96198800  0.85999000  1
  O  O26  1  0.74370400  0.82310800  0.91399300  1
  O  O27  1  0.74372000  0.32295400  0.91402400  1
loop_
_geom_bond_atom_site_label_1
_geom_bond_atom_site_label_2
_geom_bond_distance
_geom_bond_site_symmetry_2
Na0 O6 2.368104 1_555
Na0 O24 2.560528 1_554
Na0 O8 2.577489 1_555
Na0 O23 2.587591 1_554
Na0 O1 2.622515 1_555
Na0 O0 2.711253 1_555
Na1 O7 2.367069 1_565
Na1 O25 2.565572 1_554
Na1 O9 2.578061 1_565
Na1 O22 2.586900 1_554
Na1 O0 2.621317 1_565
Na1 O1 2.703709 1_555
Na2 O0 2.273395 1_555
Na2 O12 2.336625 1_555
Na2 O4 2.404381 1_555
Na2 O10 2.434516 1_555
Na2 O9 2.532457 1_555
Na2 O3 2.669654 1_555
Na2 O8 2.904369 1_555
Na3 O1 2.274518 1_555
Na3 O13 2.336458 1_555
Na3 O5 2.404243 1_555
Na3 O11 2.435012 1_555
Na3 O8 2.532425 1_555
Na3 O2 2.668798 1_555
Na3 O9 2.904846 1_565
Na4 O26 2.281559 1_555
Na4 O14 2.337270 1_555
Na4 O22 2.443062 1_555
Na4 O16 2.483000 1_555
Na4 O19 2.618015 1_555
Na4 O25 2.636812 1_555
Na4 O18 2.813130 1_555
Na5 O27 2.281682 1_555
Na5 O15 2.336612 1_555
Na5 O23 2.443659 1_555
Na5 O17 2.484862 1_555
Na5 O18 2.614923 1_555
Na5 O24 2.638378 1_555
Na5 O19 2.814048 1_545
Na6 O26 2.275768 1_555
Na6 O14 2.309705 1_655
Na6 O22 2.442129 1_655
Na6 O16 2.476916 1_555
Na6 O21 2.605491 1_555
Na6 O25 2.630884 1_655
Na6 O20 2.844977 1_555
Na7 O27 2.275443 1_555
Na7 O15 2.309545 1_655
Na7 O23 2.443487 1_655
Na7 O17 2.477902 1_555
Na7 O20 2.603178 1_555
Na7 O24 2.632417 1_655
Na7 O21 2.841016 1_545
Na8 O5 2.380490 1_556
Na8 O2 2.387261 1_556
Na8 O20 2.538544 1_555
Na8 O18 2.595709 1_555
Na8 O26 2.643147 1_555
Na8 O27 2.655306 1_555
Na9 O4 2.381140 1_556
Na9 O3 2.386971 1_556
Na9 O21 2.540143 1_545
Na9 O19 2.594917 1_545
Na9 O27 2.641042 1_555
Na9 O26 2.653725 1_545
Mn0 O7 2.049246 1_655
Mn0 O17 2.084964 1_555
Mn0 O9 2.145783 1_555
Mn0 O12 2.147359 1_555
Mn0 O3 2.149794 1_555
Mn0 O5 2.461711 1_545
Mn1 O10 1.979788 1_555
Mn1 O20 2.100089 1_455
Mn1 O24 2.109116 1_555
Mn1 O18 2.116898 1_555
Mn1 O15 2.146685 1_555
Mn1 O22 2.415564 1_555
Mn2 O6 2.048694 1_655
Mn2 O16 2.085300 1_555
Mn2 O8 2.145367 1_555
Mn2 O2 2.150286 1_555
Mn2 O13 2.150708 1_555
Mn2 O4 2.456788 1_555
Mn3 O11 1.978740 1_555
Mn3 O21 2.099225 1_455
Mn3 O25 2.106753 1_555
Mn3 O19 2.117214 1_555
Mn3 O14 2.144719 1_555
Mn3 O23 2.417821 1_565
C0 O4 1.285092 1_555
C0 O27 1.300506 1_554
C0 O2 1.312996 1_555
C1 O5 1.284998 1_555
C1 O26 1.300169 1_554
C1 O3 1.313333 1_565
C2 O1 1.266812 1_556
C2 O22 1.306021 1_555
C2 O24 1.330760 1_555
C3 O0 1.266749 1_556
C3 O23 1.306022 1_555
C3 O25 1.330796 1_545
O6 P0 1.546410 1_555
O7 P1 1.546235 1_555
O8 P0 1.558784 1_555
O9 P1 1.558505 1_555
O10 P0 1.563278 1_555
O11 P1 1.563615 1_565
O12 P2 1.524032 1_555
O13 P3 1.523493 1_555
O14 P0 1.550703 1_555
O15 P1 1.550729 1_555
O16 P2 1.570760 1_555
O17 P3 1.570939 1_545
O18 P2 1.572301 1_555
O19 P3 1.572750 1_555
O20 P2 1.569160 1_555
O21 P3 1.569558 1_555
