# generated using pymatgen
data_Fe(PO3)3
_symmetry_space_group_name_H-M   'P 1'
_cell_length_a   6.94251600
_cell_length_b   7.21935359
_cell_length_c   7.32427790
_cell_angle_alpha   83.80417434
_cell_angle_beta   84.50386599
_cell_angle_gamma   76.48195023
_symmetry_Int_Tables_number   1
_chemical_formula_structural   Fe(PO3)3
_chemical_formula_sum   'Fe2 P6 O18'
_cell_volume   353.89512392
_cell_formula_units_Z   2
loop_
 _symmetry_equiv_pos_site_id
 _symmetry_equiv_pos_as_xyz
  1  'x, y, z'
loop_
 _atom_site_type_symbol
 _atom_site_label
 _atom_site_symmetry_multiplicity
 _atom_site_fract_x
 _atom_site_fract_y
 _atom_site_fract_z
 _atom_site_occupancy
  Fe  Fe0  1  0.57160200  0.15089100  0.18344500  1
  Fe  Fe1  1  0.42839800  0.84910900  0.81655500  1
  P  P0  1  0.24470900  0.55763300  0.14837100  1
  P  P1  1  0.86206600  0.76914500  0.30113100  1
  P  P2  1  0.44554500  0.77678600  0.36633200  1
  P  P3  1  0.55445500  0.22321400  0.63366800  1
  P  P4  1  0.13793400  0.23085500  0.69886900  1
  P  P5  1  0.75529100  0.44236700  0.85162900  1
  O  O0  1  0.70969900  0.32062300  0.02370000  1
  O  O1  1  0.31887800  0.34460800  0.14705500  1
  O  O2  1  0.79866300  0.93572600  0.15433900  1
  O  O3  1  0.40469900  0.95289600  0.22950200  1
  O  O4  1  0.01213900  0.59822500  0.19383700  1
  O  O5  1  0.33195900  0.62199600  0.32189200  1
  O  O6  1  0.67203100  0.66524400  0.33695300  1
  O  O7  1  0.60581800  0.19253100  0.43281400  1
  O  O8  1  0.06238800  0.19964400  0.52751200  1
  O  O9  1  0.93761200  0.80035600  0.47248800  1
  O  O10  1  0.39418200  0.80746900  0.56718600  1
  O  O11  1  0.32796900  0.33475600  0.66304700  1
  O  O12  1  0.66804100  0.37800400  0.67810800  1
  O  O13  1  0.98786100  0.40177500  0.80616300  1
  O  O14  1  0.59530100  0.04710400  0.77049800  1
  O  O15  1  0.20133700  0.06427400  0.84566100  1
  O  O16  1  0.68112200  0.65539200  0.85294500  1
  O  O17  1  0.29030100  0.67937700  0.97630000  1
loop_
_geom_bond_atom_site_label_1
_geom_bond_atom_site_label_2
_geom_bond_distance
_geom_bond_site_symmetry_2
Fe0 O7 1.928138 1_555
Fe0 O2 1.950808 1_545
Fe0 O0 1.953073 1_555
Fe0 O1 1.991801 1_555
Fe0 O3 2.023604 1_545
Fe1 O10 1.928138 1_555
Fe1 O15 1.950808 1_565
Fe1 O17 1.953073 1_555
Fe1 O16 1.991801 1_555
Fe1 O14 2.023604 1_565
O0 P5 1.508497 1_554
O1 P0 1.504133 1_555
O2 P1 1.536242 1_555
O3 P2 1.520556 1_555
O4 P0 1.581339 1_555
O4 P1 1.636189 1_455
O5 P2 1.586258 1_555
O5 P0 1.613869 1_555
O6 P2 1.596177 1_555
O6 P1 1.651047 1_555
O7 P3 1.507751 1_555
O8 P4 1.464044 1_555
O9 P1 1.464044 1_555
O10 P2 1.507751 1_555
O11 P3 1.596177 1_555
O11 P4 1.651047 1_555
O12 P3 1.586258 1_555
O12 P5 1.613869 1_555
O13 P5 1.581339 1_555
O13 P4 1.636189 1_655
O14 P3 1.520556 1_555
O15 P4 1.536242 1_555
O16 P5 1.504133 1_555
O17 P0 1.508497 1_556
