# generated using pymatgen
data_Li3CrSiO5
_symmetry_space_group_name_H-M   'P 1'
_cell_length_a   5.09717900
_cell_length_b   5.73268970
_cell_length_c   6.24905066
_cell_angle_alpha   76.33669513
_cell_angle_beta   76.03551928
_cell_angle_gamma   73.50802453
_symmetry_Int_Tables_number   1
_chemical_formula_structural   Li3CrSiO5
_chemical_formula_sum   'Li6 Cr2 Si2 O10'
_cell_volume   167.13125589
_cell_formula_units_Z   2
loop_
 _symmetry_equiv_pos_site_id
 _symmetry_equiv_pos_as_xyz
  1  'x, y, z'
loop_
 _atom_site_type_symbol
 _atom_site_label
 _atom_site_symmetry_multiplicity
 _atom_site_fract_x
 _atom_site_fract_y
 _atom_site_fract_z
 _atom_site_occupancy
  Li  Li0  1  0.51091200  0.24319700  0.99447400  1
  Li  Li1  1  0.29737700  0.44761500  0.40083300  1
  Li  Li2  1  0.31376400  0.94859100  0.39618100  1
  Li  Li3  1  0.68623600  0.05140900  0.60381900  1
  Li  Li4  1  0.70262300  0.55238500  0.59916700  1
  Li  Li5  1  0.48908800  0.75680300  0.00552600  1
  Cr  Cr0  1  0.90021600  0.34521000  0.21345200  1
  Cr  Cr1  1  0.09978400  0.65479000  0.78654800  1
  Si  Si0  1  0.89754400  0.84894500  0.21535800  1
  Si  Si1  1  0.10245600  0.15105500  0.78464200  1
  O  O0  1  0.64496300  0.11987800  0.28296400  1
  O  O1  1  0.64804300  0.66786500  0.28085300  1
  O  O2  1  0.15748900  0.04507700  0.09435100  1
  O  O3  1  0.00091100  0.75766100  0.47512400  1
  O  O4  1  0.15961900  0.57829600  0.10737800  1
  O  O5  1  0.84038100  0.42170400  0.89262200  1
  O  O6  1  0.99908900  0.24233900  0.52487600  1
  O  O7  1  0.84251100  0.95492300  0.90564900  1
  O  O8  1  0.35195700  0.33213500  0.71914700  1
  O  O9  1  0.35503700  0.88012200  0.71703600  1
loop_
_geom_bond_atom_site_label_1
_geom_bond_atom_site_label_2
_geom_bond_distance
_geom_bond_site_symmetry_2
Li0 O8 1.974964 1_555
Li0 O0 1.983649 1_556
Li0 O7 2.071388 1_545
Li0 O5 2.103494 1_555
Li0 O2 2.282293 1_556
Li0 O4 2.339222 1_556
Li1 O8 2.003202 1_555
Li1 O4 2.022608 1_555
Li1 O3 2.045604 1_555
Li1 O6 2.076887 1_455
Li1 O0 2.312025 1_555
Li1 O1 2.353400 1_555
Li2 O9 2.000850 1_555
Li2 O3 2.083402 1_555
Li2 O0 2.085955 1_565
Li2 O1 2.100218 1_555
Li2 O2 2.116631 1_565
Li2 O6 2.130466 1_465
Li3 O0 2.000850 1_555
Li3 O6 2.083402 1_555
Li3 O9 2.085955 1_545
Li3 O8 2.100218 1_555
Li3 O7 2.116631 1_545
Li3 O3 2.130466 1_645
Li4 O1 2.003202 1_555
Li4 O5 2.022608 1_555
Li4 O6 2.045604 1_555
Li4 O3 2.076887 1_655
Li4 O9 2.312025 1_555
Li4 O8 2.353400 1_555
Li5 O1 1.974964 1_555
Li5 O9 1.983649 1_554
Li5 O2 2.071388 1_565
Li5 O4 2.103494 1_555
Li5 O7 2.282293 1_554
Li5 O5 2.339222 1_554
Cr0 O0 1.991600 1_555
Cr0 O1 2.001948 1_555
Cr0 O2 2.021597 1_655
Cr0 O5 2.026994 1_554
Cr0 O4 2.033413 1_655
Cr0 O6 2.037527 1_555
Cr1 O9 1.991600 1_555
Cr1 O8 2.001948 1_555
Cr1 O7 2.021597 1_455
Cr1 O4 2.026994 1_556
Cr1 O5 2.033413 1_455
Cr1 O3 2.037527 1_555
O0 Si0 1.777788 1_545
O1 Si0 1.777659 1_555
O2 Si0 1.884723 1_445
O2 Si1 1.950201 1_554
O3 Si0 1.743977 1_455
O4 Si0 1.878802 1_455
O5 Si1 1.878802 1_655
O6 Si1 1.743977 1_655
O7 Si1 1.884723 1_665
O7 Si0 1.950201 1_556
O8 Si1 1.777659 1_555
O9 Si1 1.777788 1_565
