# generated using pymatgen
data_ScAgO3
_symmetry_space_group_name_H-M   'P 1'
_cell_length_a   6.48896906
_cell_length_b   6.48896906
_cell_length_c   3.22046400
_cell_angle_alpha   90.00000000
_cell_angle_beta   90.00000000
_cell_angle_gamma   103.21610448
_symmetry_Int_Tables_number   1
_chemical_formula_structural   ScAgO3
_chemical_formula_sum   'Sc2 Ag2 O6'
_cell_volume   132.01168072
_cell_formula_units_Z   2
loop_
 _symmetry_equiv_pos_site_id
 _symmetry_equiv_pos_as_xyz
  1  'x, y, z'
loop_
 _atom_site_type_symbol
 _atom_site_label
 _atom_site_symmetry_multiplicity
 _atom_site_fract_x
 _atom_site_fract_y
 _atom_site_fract_z
 _atom_site_occupancy
  Sc  Sc0  1  0.00000000  0.50000000  0.50000000  1
  Sc  Sc1  1  0.50000000  0.00000000  0.50000000  1
  Ag  Ag0  1  0.00000000  0.00000000  0.00000000  1
  Ag  Ag1  1  0.50000000  0.50000000  0.00000000  1
  O  O0  1  0.03574100  0.31286200  0.00000000  1
  O  O1  1  0.31286200  0.03574100  0.00000000  1
  O  O2  1  0.36375400  0.63624600  0.50000000  1
  O  O3  1  0.63624600  0.36375400  0.50000000  1
  O  O4  1  0.96425900  0.68713800  0.00000000  1
  O  O5  1  0.68713800  0.96425900  0.00000000  1
loop_
_geom_bond_atom_site_label_1
_geom_bond_atom_site_label_2
_geom_bond_distance
_geom_bond_site_symmetry_2
Ag0 O0 1.989979 1_555
Ag0 O1 1.989979 1_555
Ag0 O4 1.989979 1_445
Ag0 O5 1.989979 1_445
Ag1 O3 2.124499 1_554
Ag1 O3 2.124499 1_555
Ag1 O2 2.124499 1_555
Ag1 O2 2.124499 1_554
O0 Sc0 2.061556 1_555
O0 Sc0 2.061556 1_554
O1 Sc1 2.061556 1_555
O1 Sc1 2.061556 1_554
O2 Sc0 2.323546 1_555
O2 Sc1 2.323546 1_565
O3 Sc1 2.323546 1_555
O3 Sc0 2.323546 1_655
O4 Sc0 2.061556 1_654
O4 Sc0 2.061556 1_655
O5 Sc1 2.061556 1_565
O5 Sc1 2.061556 1_564
