# generated using pymatgen
data_Li2NiP2O7
_symmetry_space_group_name_H-M   'P 1'
_cell_length_a   5.03831000
_cell_length_b   8.12735300
_cell_length_c   13.77748845
_cell_angle_alpha   68.88697844
_cell_angle_beta   90.00000000
_cell_angle_gamma   90.00000000
_symmetry_Int_Tables_number   1
_chemical_formula_structural   Li2NiP2O7
_chemical_formula_sum   'Li8 Ni4 P8 O28'
_cell_volume   526.29104465
_cell_formula_units_Z   4
loop_
 _symmetry_equiv_pos_site_id
 _symmetry_equiv_pos_as_xyz
  1  'x, y, z'
loop_
 _atom_site_type_symbol
 _atom_site_label
 _atom_site_symmetry_multiplicity
 _atom_site_fract_x
 _atom_site_fract_y
 _atom_site_fract_z
 _atom_site_occupancy
  Li  Li0  1  0.20643600  0.98290500  0.67054600  1
  Li  Li1  1  0.29356400  0.98290500  0.17054600  1
  Li  Li2  1  0.73355400  0.42607700  0.83992500  1
  Li  Li3  1  0.23355400  0.57392300  0.66007500  1
  Li  Li4  1  0.76644600  0.42607700  0.33992500  1
  Li  Li5  1  0.26644600  0.57392300  0.16007500  1
  Li  Li6  1  0.70643600  0.01709500  0.82945400  1
  Li  Li7  1  0.79356400  0.01709500  0.32945400  1
  Ni  Ni0  1  0.26940000  0.72016600  0.86695600  1
  Ni  Ni1  1  0.23060000  0.72016600  0.36695600  1
  Ni  Ni2  1  0.76940000  0.27983400  0.63304400  1
  Ni  Ni3  1  0.73060000  0.27983400  0.13304400  1
  P  P0  1  0.72201700  0.81692900  0.69454900  1
  P  P1  1  0.72618100  0.69664100  0.52062500  1
  P  P2  1  0.77798300  0.81692900  0.19454900  1
  P  P3  1  0.22618100  0.30335900  0.97937500  1
  P  P4  1  0.77381900  0.69664100  0.02062500  1
  P  P5  1  0.22201700  0.18307100  0.80545100  1
  P  P6  1  0.27381900  0.30335900  0.47937500  1
  P  P7  1  0.27798300  0.18307100  0.30545100  1
  O  O0  1  0.25186000  0.99650900  0.80452500  1
  O  O1  1  0.24814000  0.99650900  0.30452500  1
  O  O2  1  0.63120700  0.77880400  0.91707000  1
  O  O3  1  0.77131400  0.84656800  0.57333000  1
  O  O4  1  0.43535000  0.74928800  0.71789000  1
  O  O5  1  0.93050800  0.68876000  0.76130700  1
  O  O6  1  0.42669600  0.67841900  0.50853300  1
  O  O7  1  0.86879300  0.77880400  0.41707000  1
  O  O8  1  0.72868600  0.84656800  0.07333000  1
  O  O9  1  0.36170900  0.46639900  0.90277500  1
  O  O10  1  0.06465000  0.74928800  0.21789000  1
  O  O11  1  0.56949200  0.68876000  0.26130700  1
  O  O12  1  0.86170900  0.53360100  0.59722500  1
  O  O13  1  0.07330400  0.67841900  0.00853300  1
  O  O14  1  0.92669600  0.32158100  0.99146700  1
  O  O15  1  0.13829100  0.46639900  0.40277500  1
  O  O16  1  0.43050800  0.31124000  0.73869300  1
  O  O17  1  0.93535000  0.25071200  0.78211000  1
  O  O18  1  0.63829100  0.53360100  0.09722500  1
  O  O19  1  0.27131400  0.15343200  0.92667000  1
  O  O20  1  0.13120700  0.22119600  0.58293000  1
  O  O21  1  0.57330400  0.32158100  0.49146700  1
  O  O22  1  0.06949200  0.31124000  0.23869300  1
  O  O23  1  0.56465000  0.25071200  0.28211000  1
  O  O24  1  0.22868600  0.15343200  0.42667000  1
  O  O25  1  0.36879300  0.22119600  0.08293000  1
  O  O26  1  0.75186000  0.00349100  0.69547500  1
  O  O27  1  0.74814000  0.00349100  0.19547500  1
loop_
_geom_bond_atom_site_label_1
_geom_bond_atom_site_label_2
_geom_bond_distance
_geom_bond_site_symmetry_2
Li0 O0 1.902356 1_555
Li0 O20 1.915027 1_565
Li0 O4 2.113873 1_555
Li0 O26 2.330838 1_465
Li1 O1 1.902356 1_555
Li1 O25 1.915027 1_565
Li1 O10 2.113873 1_555
Li1 O27 2.330838 1_565
Li2 O17 2.125419 1_555
Li2 O9 2.138113 1_555
Li2 O14 2.179444 1_555
Li2 O5 2.247190 1_555
Li2 O16 2.466853 1_555
Li3 O4 2.125419 1_555
Li3 O12 2.138113 1_455
Li3 O6 2.179444 1_555
Li3 O16 2.247190 1_555
Li3 O5 2.466853 1_455
Li4 O23 2.125419 1_555
Li4 O15 2.138113 1_655
Li4 O21 2.179444 1_555
Li4 O11 2.247190 1_555
Li4 O22 2.466853 1_655
Li5 O10 2.125419 1_555
Li5 O18 2.138113 1_555
Li5 O13 2.179444 1_555
Li5 O22 2.247190 1_555
Li5 O11 2.466853 1_555
Li6 O26 1.902356 1_555
Li6 O2 1.915027 1_545
Li6 O17 2.113873 1_555
Li6 O0 2.330838 1_545
Li7 O27 1.902356 1_555
Li7 O7 1.915027 1_545
Li7 O23 2.113873 1_555
Li7 O1 2.330838 1_645
Ni0 O9 1.995070 1_555
Ni0 O2 2.064906 1_555
Ni0 O0 2.097657 1_555
Ni0 O13 2.102192 1_556
Ni0 O4 2.150073 1_555
Ni0 O5 2.316652 1_455
Ni1 O15 1.995070 1_555
Ni1 O7 2.064906 1_455
Ni1 O1 2.097657 1_555
Ni1 O6 2.102192 1_555
Ni1 O10 2.150073 1_555
Ni1 O11 2.316652 1_555
Ni2 O12 1.995070 1_555
Ni2 O20 2.064906 1_655
Ni2 O26 2.097657 1_555
Ni2 O21 2.102192 1_555
Ni2 O17 2.150073 1_555
Ni2 O16 2.316652 1_555
Ni3 O18 1.995070 1_555
Ni3 O25 2.064906 1_555
Ni3 O27 2.097657 1_555
Ni3 O14 2.102192 1_554
Ni3 O23 2.150073 1_555
Ni3 O22 2.316652 1_655
O0 P5 1.528312 1_565
O1 P7 1.528312 1_565
O2 P4 1.520324 1_556
O3 P0 1.618364 1_555
O3 P1 1.643530 1_555
O4 P0 1.537635 1_555
O5 P0 1.531093 1_555
O6 P1 1.531090 1_555
O7 P1 1.520324 1_555
O8 P2 1.618364 1_555
O8 P4 1.643530 1_555
O9 P3 1.525918 1_555
O10 P2 1.537635 1_455
O11 P2 1.531093 1_555
O12 P1 1.525918 1_555
O13 P4 1.531090 1_455
O14 P3 1.531090 1_655
O15 P6 1.525918 1_555
O16 P5 1.531093 1_555
O17 P5 1.537635 1_655
O18 P4 1.525918 1_555
O19 P5 1.618364 1_555
O19 P3 1.643530 1_555
O20 P6 1.520324 1_555
O21 P6 1.531090 1_555
O22 P7 1.531093 1_555
O23 P7 1.537635 1_555
O24 P7 1.618364 1_555
O24 P6 1.643530 1_555
O25 P3 1.520324 1_554
O26 P0 1.528312 1_545
O27 P2 1.528312 1_545
