# generated using pymatgen
data_Sb4I2O5
_symmetry_space_group_name_H-M   'P 1'
_cell_length_a   5.21555723
_cell_length_b   7.25330584
_cell_length_c   13.49450630
_cell_angle_alpha   82.41276757
_cell_angle_beta   90.00000000
_cell_angle_gamma   90.00000000
_symmetry_Int_Tables_number   1
_chemical_formula_structural   Sb4I2O5
_chemical_formula_sum   'Sb8 I4 O10'
_cell_volume   506.02818793
_cell_formula_units_Z   2
loop_
 _symmetry_equiv_pos_site_id
 _symmetry_equiv_pos_as_xyz
  1  'x, y, z'
loop_
 _atom_site_type_symbol
 _atom_site_label
 _atom_site_symmetry_multiplicity
 _atom_site_fract_x
 _atom_site_fract_y
 _atom_site_fract_z
 _atom_site_occupancy
  Sb  Sb0  1  0.61403627  0.81894346  0.29717565  1
  Sb  Sb1  1  0.11403627  0.18105654  0.20282435  1
  Sb  Sb2  1  0.38596373  0.18105654  0.70282435  1
  Sb  Sb3  1  0.88596373  0.81894346  0.79717565  1
  Sb  Sb4  1  0.72315086  0.15715275  0.44427979  1
  Sb  Sb5  1  0.22315086  0.84284725  0.05572021  1
  Sb  Sb6  1  0.27684914  0.84284725  0.55572021  1
  Sb  Sb7  1  0.77684914  0.15715275  0.94427979  1
  I  I0  1  0.71134849  0.48334877  0.12135794  1
  I  I1  1  0.21134849  0.51665123  0.37864206  1
  I  I2  1  0.28865151  0.51665123  0.87864206  1
  I  I3  1  0.78865151  0.48334877  0.62135794  1
  O  O0  1  0.50527205  0.06453142  0.58180387  1
  O  O1  1  0.00527205  0.93546858  0.91819613  1
  O  O2  1  0.49472795  0.93546858  0.41819613  1
  O  O3  1  0.99472795  0.06453142  0.08180387  1
  O  O4  1  0.83566078  0.06472226  0.29179710  1
  O  O5  1  0.33566078  0.93527774  0.20820290  1
  O  O6  1  0.16433922  0.93527774  0.70820290  1
  O  O7  1  0.66433922  0.06472226  0.79179710  1
  O  O8  1  0.50000000  0.00000000  0.00000000  1
  O  O9  1  0.00000000  0.00000000  0.50000000  1
loop_
_geom_bond_atom_site_label_1
_geom_bond_atom_site_label_2
_geom_bond_distance
_geom_bond_site_symmetry_2
I0 Sb1 3.128997 1_655
I1 Sb0 3.128997 1_555
I2 Sb3 3.128997 1_455
I3 Sb2 3.128997 1_555
O0 Sb2 2.033004 1_555
O0 Sb6 2.068370 1_545
O0 Sb4 2.203968 1_555
O1 Sb3 2.033004 1_455
O1 Sb7 2.068370 1_465
O1 Sb5 2.203968 1_556
O2 Sb0 2.033004 1_555
O2 Sb4 2.068370 1_565
O2 Sb6 2.203968 1_555
O3 Sb1 2.033004 1_655
O3 Sb5 2.068370 1_645
O3 Sb7 2.203968 1_554
O4 Sb1 1.998496 1_655
O4 Sb0 2.117840 1_545
O4 Sb4 2.322099 1_555
O5 Sb0 1.998496 1_555
O5 Sb1 2.117840 1_565
O5 Sb5 2.322099 1_555
O6 Sb3 1.998496 1_455
O6 Sb2 2.117840 1_565
O6 Sb6 2.322099 1_555
O7 Sb2 1.998496 1_555
O7 Sb3 2.117840 1_545
O7 Sb7 2.322099 1_555
O8 Sb5 1.929580 1_545
O8 Sb7 1.929580 1_554
O9 Sb6 1.929580 1_545
O9 Sb4 1.929580 1_455
