# generated using pymatgen
data_Li3Fe4(PO4)6
_symmetry_space_group_name_H-M   'P 1'
_cell_length_a   8.34551657
_cell_length_b   12.06569859
_cell_length_c   8.62545333
_cell_angle_alpha   90.38598850
_cell_angle_beta   90.03502545
_cell_angle_gamma   90.48416365
_symmetry_Int_Tables_number   1
_chemical_formula_structural   Li3Fe4(PO4)6
_chemical_formula_sum   'Li6 Fe8 P12 O48'
_cell_volume   868.48469110
_cell_formula_units_Z   2
loop_
 _symmetry_equiv_pos_site_id
 _symmetry_equiv_pos_as_xyz
  1  'x, y, z'
loop_
 _atom_site_type_symbol
 _atom_site_label
 _atom_site_symmetry_multiplicity
 _atom_site_fract_x
 _atom_site_fract_y
 _atom_site_fract_z
 _atom_site_occupancy
  Li  Li0  1  0.19404400  0.18006700  0.78492800  1
  Li  Li1  1  0.31458400  0.31776100  0.28434100  1
  Li  Li2  1  0.42715800  0.80285000  0.59232500  1
  Li  Li3  1  0.81376000  0.81921200  0.21205500  1
  Li  Li4  1  0.92173400  0.30621700  0.91207600  1
  Li  Li5  1  0.92244700  0.65921700  0.50139500  1
  Fe  Fe0  1  0.25233100  0.88898200  0.02927900  1
  Fe  Fe1  1  0.24816500  0.11187900  0.46321900  1
  Fe  Fe2  1  0.25664500  0.60286900  0.52443700  1
  Fe  Fe3  1  0.26222100  0.39248700  0.96502700  1
  Fe  Fe4  1  0.74782400  0.61044300  0.02955200  1
  Fe  Fe5  1  0.75260700  0.38640600  0.47006800  1
  Fe  Fe6  1  0.75470400  0.89113500  0.53755900  1
  Fe  Fe7  1  0.74513000  0.10401600  0.97245200  1
  P  P0  1  0.03159600  0.49314400  0.25049800  1
  P  P1  1  0.11770000  0.85176200  0.38124600  1
  P  P2  1  0.10987500  0.14136600  0.10781200  1
  P  P3  1  0.39310400  0.65344400  0.88385800  1
  P  P4  1  0.38928600  0.35347500  0.60799500  1
  P  P5  1  0.46054900  0.00859500  0.75608500  1
  P  P6  1  0.53690100  0.99250800  0.24691000  1
  P  P7  1  0.61550500  0.64379400  0.38735400  1
  P  P8  1  0.61555900  0.35401800  0.11836200  1
  P  P9  1  0.88936700  0.85247200  0.88851300  1
  P  P10  1  0.88749200  0.15055200  0.61817800  1
  P  P11  1  0.95949000  0.50771700  0.75130300  1
  O  O0  1  0.06905200  0.89150300  0.89148400  1
  O  O1  1  0.05354800  0.43775900  0.86915700  1
  O  O2  1  0.05418300  0.60005200  0.67012000  1
  O  O3  1  0.06661000  0.17797200  0.58785200  1
  O  O4  1  0.08817700  0.58407700  0.36532600  1
  O  O5  1  0.12640600  0.84239700  0.19730800  1
  O  O6  1  0.13857700  0.97361200  0.42751800  1
  O  O7  1  0.13031200  0.23756800  0.98898300  1
  O  O8  1  0.16846100  0.18286900  0.26659800  1
  O  O9  1  0.17751900  0.43380300  0.17892100  1
  O  O10  1  0.23372200  0.77751300  0.46962200  1
  O  O11  1  0.22405900  0.04591100  0.05037500  1
  O  O12  1  0.27525600  0.72912000  0.97692400  1
  O  O13  1  0.27633200  0.44841700  0.55825900  1
  O  O14  1  0.31955300  0.06928000  0.68358300  1
  O  O15  1  0.33552000  0.31478300  0.77133400  1
  O  O16  1  0.35509700  0.53144100  0.92164700  1
  O  O17  1  0.37736400  0.66844600  0.70553100  1
  O  O18  1  0.36416500  0.25869200  0.48971200  1
  O  O19  1  0.39632700  0.91503500  0.86648100  1
  O  O20  1  0.43485900  0.89790000  0.16615600  1
  O  O21  1  0.44192200  0.60073900  0.38366500  1
  O  O22  1  0.43773900  0.32242700  0.08601700  1
  O  O23  1  0.44110800  0.05600900  0.36926800  1
  O  O24  1  0.54920000  0.93770500  0.63416600  1
  O  O25  1  0.56973900  0.68079400  0.92813700  1
  O  O26  1  0.56633300  0.39427800  0.60769800  1
  O  O27  1  0.56744800  0.09926900  0.83215200  1
  O  O28  1  0.59779900  0.08384400  0.13398700  1
  O  O29  1  0.62740200  0.74781500  0.49361700  1
  O  O30  1  0.62427500  0.34373300  0.30061000  1
  O  O31  1  0.63886700  0.47743900  0.07232900  1
  O  O32  1  0.67417200  0.68202200  0.22266000  1
  O  O33  1  0.68161800  0.93264100  0.31776800  1
  O  O34  1  0.73644800  0.55857700  0.44906300  1
  O  O35  1  0.73123500  0.28039900  0.02848800  1
  O  O36  1  0.77957600  0.94704700  0.94557700  1
  O  O37  1  0.77492300  0.22497500  0.52767800  1
  O  O38  1  0.81444300  0.56555400  0.83094700  1
  O  O39  1  0.84273300  0.81809000  0.72269100  1
  O  O40  1  0.86345800  0.75701500  0.00651400  1
  O  O41  1  0.85246700  0.02830600  0.57844300  1
  O  O42  1  0.87541400  0.16413600  0.80140200  1
  O  O43  1  0.89157500  0.41588700  0.63981600  1
  O  O44  1  0.94098100  0.81311900  0.41314500  1
  O  O45  1  0.93215500  0.39867300  0.32944600  1
  O  O46  1  0.93635300  0.55737700  0.12532500  1
  O  O47  1  0.93220700  0.10500600  0.11179600  1
loop_
_geom_bond_atom_site_label_1
_geom_bond_atom_site_label_2
_geom_bond_distance
_geom_bond_site_symmetry_2
Li0 O14 1.912361 1_555
Li0 O7 1.962906 1_555
Li0 O3 2.004493 1_555
Li0 O15 2.005030 1_555
Li1 O18 1.959129 1_555
Li1 O22 1.997064 1_555
Li1 O8 2.030364 1_555
Li1 O9 2.034351 1_555
Li2 O17 1.940729 1_555
Li2 O24 1.943900 1_555
Li2 O10 1.950603 1_555
Li2 O29 1.992840 1_555
Li3 O40 1.966354 1_555
Li3 O33 1.982565 1_555
Li3 O32 2.018667 1_555
Li3 O44 2.035169 1_555
Li4 O35 1.905405 1_556
Li4 O1 1.960895 1_655
Li4 O42 1.991448 1_555
Li4 O7 2.046090 1_655
Li5 O2 1.965092 1_655
Li5 O34 2.011880 1_555
Li5 O44 2.016404 1_555
Li5 O4 2.030083 1_655
Fe0 O19 1.875199 1_554
Fe0 O5 1.877165 1_555
Fe0 O11 1.917531 1_565
Fe0 O20 1.928520 1_555
Fe0 O0 1.937050 1_554
Fe0 O12 1.988866 1_554
Fe1 O6 1.918696 1_545
Fe1 O23 1.927817 1_555
Fe1 O8 2.019944 1_555
Fe1 O18 2.023006 1_555
Fe1 O3 2.024402 1_555
Fe1 O14 2.061283 1_555
Fe2 O13 1.896692 1_555
Fe2 O21 1.966819 1_555
Fe2 O4 1.974758 1_555
Fe2 O17 2.012183 1_555
Fe2 O2 2.106483 1_555
Fe2 O10 2.172686 1_555
Fe3 O16 1.881100 1_555
Fe3 O22 1.995045 1_556
Fe3 O15 2.008544 1_555
Fe3 O1 2.008817 1_555
Fe3 O9 2.036449 1_556
Fe3 O7 2.172372 1_555
Fe4 O31 1.876709 1_555
Fe4 O38 1.879035 1_554
Fe4 O46 1.894844 1_555
Fe4 O25 1.929836 1_554
Fe4 O32 1.972033 1_555
Fe4 O40 2.018528 1_555
Fe5 O30 1.878081 1_555
Fe5 O43 1.897169 1_555
Fe5 O45 1.933717 1_555
Fe5 O26 1.959118 1_555
Fe5 O37 2.023488 1_555
Fe5 O34 2.091943 1_555
Fe6 O41 1.870353 1_565
Fe6 O39 1.973539 1_555
Fe6 O24 1.990769 1_555
Fe6 O29 2.054825 1_555
Fe6 O33 2.057526 1_555
Fe6 O44 2.113659 1_555
Fe7 O28 1.874557 1_556
Fe7 O27 1.913641 1_555
Fe7 O36 1.930480 1_545
Fe7 O47 1.969627 1_556
Fe7 O42 1.971850 1_555
Fe7 O35 2.183256 1_556
O0 P9 1.568115 1_455
O1 P11 1.543957 1_455
O2 P11 1.533736 1_455
O3 P10 1.551028 1_455
O4 P0 1.543944 1_555
O5 P1 1.591555 1_555
O6 P1 1.529325 1_555
O7 P2 1.562000 1_556
O8 P2 1.533436 1_555
O9 P0 1.544846 1_555
O10 P1 1.531060 1_555
O11 P2 1.578426 1_555
O12 P3 1.565775 1_555
O13 P4 1.552188 1_555
O14 P5 1.526965 1_555
O15 P4 1.552514 1_555
O16 P3 1.540287 1_555
O17 P3 1.555582 1_555
O18 P4 1.540354 1_555
O19 P5 1.572640 1_565
O20 P6 1.576566 1_555
O21 P7 1.535070 1_555
O22 P8 1.553667 1_555
O23 P6 1.529866 1_545
O24 P5 1.544139 1_565
O25 P3 1.554722 1_555
O26 P4 1.553467 1_555
O27 P5 1.548040 1_555
O28 P6 1.557906 1_545
O29 P7 1.551604 1_555
O30 P8 1.579375 1_555
O31 P8 1.554431 1_555
O32 P7 1.573632 1_555
O33 P6 1.540693 1_555
O34 P7 1.543864 1_555
O35 P8 1.525790 1_555
O36 P9 1.547448 1_555
O37 P10 1.523499 1_555
O38 P11 1.559818 1_555
O39 P9 1.535541 1_555
O40 P9 1.555985 1_554
O41 P10 1.537616 1_555
O42 P10 1.591113 1_555
O43 P11 1.564603 1_555
O44 P1 1.568046 1_655
O45 P0 1.564245 1_655
O46 P0 1.555240 1_655
O47 P2 1.543182 1_655
