# generated using pymatgen
data_Rb3PbO3
_symmetry_space_group_name_H-M   'P 1'
_cell_length_a   7.40458200
_cell_length_b   8.08302600
_cell_length_c   11.80741056
_cell_angle_alpha   86.14146504
_cell_angle_beta   90.00000000
_cell_angle_gamma   90.00000000
_symmetry_Int_Tables_number   1
_chemical_formula_structural   Rb3PbO3
_chemical_formula_sum   'Rb12 Pb4 O12'
_cell_volume   705.08849558
_cell_formula_units_Z   4
loop_
 _symmetry_equiv_pos_site_id
 _symmetry_equiv_pos_as_xyz
  1  'x, y, z'
loop_
 _atom_site_type_symbol
 _atom_site_label
 _atom_site_symmetry_multiplicity
 _atom_site_fract_x
 _atom_site_fract_y
 _atom_site_fract_z
 _atom_site_occupancy
  Rb  Rb0  1  0.32222900  0.35961700  0.07653900  1
  Rb  Rb1  1  0.62604000  0.93707300  0.15389600  1
  Rb  Rb2  1  0.80191900  0.37130700  0.19122800  1
  Rb  Rb3  1  0.30191900  0.62869300  0.30877200  1
  Rb  Rb4  1  0.12604000  0.06292700  0.34610400  1
  Rb  Rb5  1  0.82222900  0.64038300  0.42346100  1
  Rb  Rb6  1  0.17777100  0.35961700  0.57653900  1
  Rb  Rb7  1  0.87396000  0.93707300  0.65389600  1
  Rb  Rb8  1  0.69808100  0.37130700  0.69122800  1
  Rb  Rb9  1  0.19808100  0.62869300  0.80877200  1
  Rb  Rb10  1  0.37396000  0.06292700  0.84610400  1
  Rb  Rb11  1  0.67777100  0.64038300  0.92346100  1
  Pb  Pb0  1  0.09494300  0.83553900  0.07054700  1
  Pb  Pb1  1  0.59494300  0.16446100  0.42945300  1
  Pb  Pb2  1  0.40505700  0.83553900  0.57054700  1
  Pb  Pb3  1  0.90505700  0.16446100  0.92945300  1
  O  O0  1  0.36807300  0.73767000  0.03740800  1
  O  O1  1  0.04261100  0.11028800  0.10041700  1
  O  O2  1  0.93180600  0.68656500  0.19423800  1
  O  O3  1  0.43180600  0.31343500  0.30576200  1
  O  O4  1  0.54261100  0.88971200  0.39958300  1
  O  O5  1  0.86807300  0.26233000  0.46259200  1
  O  O6  1  0.13192700  0.73767000  0.53740800  1
  O  O7  1  0.45738900  0.11028800  0.60041700  1
  O  O8  1  0.56819400  0.68656500  0.69423800  1
  O  O9  1  0.06819400  0.31343500  0.80576200  1
  O  O10  1  0.95738900  0.88971200  0.89958300  1
  O  O11  1  0.63192700  0.26233000  0.96259200  1
loop_
_geom_bond_atom_site_label_1
_geom_bond_atom_site_label_2
_geom_bond_distance
_geom_bond_site_symmetry_2
O0 Pb0 2.216015 1_555
O0 Rb11 2.798146 1_554
O0 Rb1 2.904584 1_555
O0 Rb0 3.078421 1_555
O0 Rb9 3.157242 1_554
O0 Rb3 3.301864 1_555
O0 Rb10 3.349151 1_564
O1 Pb3 2.277080 1_454
O1 Pb0 2.304761 1_545
O1 Rb0 2.889873 1_555
O1 Rb4 2.965483 1_555
O1 Rb2 3.013610 1_455
O1 Rb1 3.428465 1_445
O2 Pb0 2.192135 1_655
O2 Rb2 2.726161 1_555
O2 Rb5 2.826128 1_555
O2 Rb1 3.053386 1_555
O2 Rb3 3.077831 1_655
O3 Pb1 2.192135 1_555
O3 Rb3 2.726161 1_555
O3 Rb0 2.826128 1_555
O3 Rb4 3.053386 1_555
O3 Rb2 3.077831 1_555
O4 Pb2 2.277080 1_555
O4 Pb1 2.304761 1_565
O4 Rb5 2.889873 1_555
O4 Rb1 2.965483 1_555
O4 Rb3 3.013610 1_555
O4 Rb4 3.428465 1_565
O5 Pb1 2.216015 1_555
O5 Rb6 2.798146 1_655
O5 Rb4 2.904584 1_655
O5 Rb5 3.078421 1_555
O5 Rb8 3.157242 1_555
O5 Rb2 3.301864 1_555
O5 Rb7 3.349151 1_545
O6 Pb2 2.216015 1_555
O6 Rb5 2.798146 1_455
O6 Rb7 2.904584 1_455
O6 Rb6 3.078421 1_555
O6 Rb3 3.157242 1_555
O6 Rb9 3.301864 1_555
O6 Rb4 3.349151 1_565
O7 Pb1 2.277080 1_555
O7 Pb2 2.304761 1_545
O7 Rb6 2.889873 1_555
O7 Rb10 2.965483 1_555
O7 Rb8 3.013610 1_555
O7 Rb7 3.428465 1_545
O8 Pb2 2.192135 1_555
O8 Rb8 2.726161 1_555
O8 Rb11 2.826128 1_555
O8 Rb7 3.053386 1_555
O8 Rb9 3.077831 1_555
O9 Pb3 2.192135 1_455
O9 Rb9 2.726161 1_555
O9 Rb6 2.826128 1_555
O9 Rb10 3.053386 1_555
O9 Rb8 3.077831 1_455
O10 Pb0 2.277080 1_656
O10 Pb3 2.304761 1_565
O10 Rb11 2.889873 1_555
O10 Rb7 2.965483 1_555
O10 Rb9 3.013610 1_655
O10 Rb10 3.428465 1_665
O11 Pb3 2.216015 1_555
O11 Rb0 2.798146 1_556
O11 Rb10 2.904584 1_555
O11 Rb11 3.078421 1_555
O11 Rb2 3.157242 1_556
O11 Rb8 3.301864 1_555
O11 Rb1 3.349151 1_546
