# generated using pymatgen
data_Sr3WO6
_symmetry_space_group_name_H-M   'P 1'
_cell_length_a   6.09125974
_cell_length_b   5.82998542
_cell_length_c   10.18303008
_cell_angle_alpha   55.16336465
_cell_angle_beta   90.00000000
_cell_angle_gamma   90.00000000
_symmetry_Int_Tables_number   1
_chemical_formula_structural   Sr3WO6
_chemical_formula_sum   'Sr6 W2 O12'
_cell_volume   296.81138881
_cell_formula_units_Z   2
loop_
 _symmetry_equiv_pos_site_id
 _symmetry_equiv_pos_as_xyz
  1  'x, y, z'
loop_
 _atom_site_type_symbol
 _atom_site_label
 _atom_site_symmetry_multiplicity
 _atom_site_fract_x
 _atom_site_fract_y
 _atom_site_fract_z
 _atom_site_occupancy
  Sr  Sr0  1  0.50000000  0.50000000  0.50000000  1
  Sr  Sr1  1  0.94797720  0.73056441  0.25496672  1
  Sr  Sr2  1  0.44797720  0.26943559  0.24503328  1
  Sr  Sr3  1  -0.00000000  0.50000000  -0.00000000  1
  Sr  Sr4  1  0.55202280  0.73056441  0.75496672  1
  Sr  Sr5  1  0.05202280  0.26943559  0.74503328  1
  W  W0  1  0.50000000  0.00000000  -0.00000000  1
  W  W1  1  -0.00000000  0.00000000  0.50000000  1
  O  O0  1  0.45156097  0.11417544  0.78265216  1
  O  O1  1  0.23785173  0.76759641  0.06595843  1
  O  O2  1  0.17381698  0.31380531  0.45573140  1
  O  O3  1  0.67381698  0.68619469  0.04426860  1
  O  O4  1  0.73785173  0.23240359  0.43404157  1
  O  O5  1  0.95156097  0.88582456  0.71734784  1
  O  O6  1  0.04843903  0.11417544  0.28265216  1
  O  O7  1  0.26214827  0.76759641  0.56595843  1
  O  O8  1  0.32618302  0.31380531  0.95573140  1
  O  O9  1  0.82618302  0.68619469  0.54426860  1
  O  O10  1  0.76214827  0.23240359  0.93404157  1
  O  O11  1  0.54843903  0.88582456  0.21734784  1
loop_
_geom_bond_atom_site_label_1
_geom_bond_atom_site_label_2
_geom_bond_distance
_geom_bond_site_symmetry_2
O0 W0 1.935333 1_556
O0 Sr0 2.456493 1_555
O0 Sr4 2.485152 1_545
O0 Sr5 2.548092 1_555
O1 W0 1.948595 1_565
O1 Sr3 2.486199 1_555
O1 Sr1 2.528628 1_455
O1 Sr2 2.710660 1_555
O1 Sr5 3.097964 1_564
O2 W1 1.931057 1_555
O2 Sr0 2.426569 1_555
O2 Sr1 2.510062 1_455
O2 Sr2 2.844853 1_555
O2 Sr5 2.902656 1_555
O3 W0 1.931057 1_565
O3 Sr3 2.426569 1_655
O3 Sr2 2.510062 1_555
O3 Sr1 2.844853 1_555
O3 Sr4 2.902656 1_554
O4 W1 1.948595 1_655
O4 Sr0 2.486199 1_555
O4 Sr2 2.528628 1_555
O4 Sr1 2.710660 1_555
O4 Sr4 3.097964 1_545
O5 W1 1.935333 1_665
O5 Sr3 2.456493 1_656
O5 Sr5 2.485152 1_665
O5 Sr4 2.548092 1_555
O6 W1 1.935333 1_555
O6 Sr3 2.456493 1_555
O6 Sr1 2.485152 1_445
O6 Sr2 2.548092 1_555
O7 W1 1.948595 1_565
O7 Sr0 2.486199 1_555
O7 Sr4 2.528628 1_555
O7 Sr5 2.710660 1_555
O7 Sr2 3.097964 1_565
O8 W0 1.931057 1_556
O8 Sr3 2.426569 1_556
O8 Sr4 2.510062 1_555
O8 Sr5 2.844853 1_555
O8 Sr2 2.902656 1_556
O9 W1 1.931057 1_665
O9 Sr0 2.426569 1_555
O9 Sr5 2.510062 1_655
O9 Sr4 2.844853 1_555
O9 Sr1 2.902656 1_555
O10 W0 1.948595 1_556
O10 Sr3 2.486199 1_656
O10 Sr5 2.528628 1_655
O10 Sr4 2.710660 1_555
O10 Sr1 3.097964 1_546
O11 W0 1.935333 1_565
O11 Sr0 2.456493 1_555
O11 Sr2 2.485152 1_565
O11 Sr1 2.548092 1_555
