# generated using pymatgen
data_KMg8Al17Si19O72
_symmetry_space_group_name_H-M   'P 1'
_cell_length_a   9.98009800
_cell_length_b   10.00709696
_cell_length_c   18.85709461
_cell_angle_alpha   90.01087456
_cell_angle_beta   90.05783330
_cell_angle_gamma   119.83464803
_symmetry_Int_Tables_number   1
_chemical_formula_structural   KMg8Al17Si19O72
_chemical_formula_sum   'K1 Mg8 Al17 Si19 O72'
_cell_volume   1633.68821805
_cell_formula_units_Z   1
loop_
 _symmetry_equiv_pos_site_id
 _symmetry_equiv_pos_as_xyz
  1  'x, y, z'
loop_
 _atom_site_type_symbol
 _atom_site_label
 _atom_site_symmetry_multiplicity
 _atom_site_fract_x
 _atom_site_fract_y
 _atom_site_fract_z
 _atom_site_occupancy
  K  K0  1  0.00718100  0.02404100  0.91971500  1
  Mg  Mg0  1  0.33331500  0.66651400  0.12614100  1
  Mg  Mg1  1  0.33320600  0.66620600  0.62561800  1
  Mg  Mg2  1  0.33808000  0.66144900  0.37619000  1
  Mg  Mg3  1  0.32950200  0.65961400  0.87266400  1
  Mg  Mg4  1  0.65783400  0.32183100  0.12755400  1
  Mg  Mg5  1  0.65821000  0.32055500  0.62578000  1
  Mg  Mg6  1  0.65900200  0.32516500  0.37340900  1
  Mg  Mg7  1  0.66543300  0.33185400  0.87238400  1
  Al  Al0  1  0.00081000  0.50098800  0.87493700  1
  Al  Al1  1  0.10665700  0.37515700  0.99905500  1
  Al  Al2  1  0.10367100  0.37238000  0.49947400  1
  Al  Al3  1  0.72958000  0.63388200  0.25178300  1
  Al  Al4  1  0.73239200  0.63378100  0.75081200  1
  Al  Al5  1  0.89875300  0.26913200  0.25019000  1
  Al  Al6  1  0.89445100  0.26987100  0.74877200  1
  Al  Al7  1  0.50018600  0.48871200  0.37601600  1
  Al  Al8  1  0.50049000  0.49024400  0.87475600  1
  Al  Al9  1  0.73177700  0.09690000  0.00099700  1
  Al  Al10  1  0.73174000  0.09486100  0.50083600  1
  Al  Al11  1  0.37310500  0.26118700  0.00002000  1
  Al  Al12  1  0.37074900  0.26144000  0.50009600  1
  Al  Al13  1  0.49617700  0.00109000  0.12549400  1
  Al  Al14  1  0.49644600  0.00036100  0.62531500  1
  Al  Al15  1  0.36246000  0.10129600  0.25027600  1
  Al  Al16  1  0.36417200  0.10294400  0.74949400  1
  Si  Si0  1  0.62277000  0.89929300  0.25025800  1
  Si  Si1  1  0.62358100  0.89826000  0.74977100  1
  Si  Si2  1  0.63031100  0.72360900  0.00046400  1
  Si  Si3  1  0.63035600  0.72351200  0.50030200  1
  Si  Si4  1  0.26927600  0.89153100  0.99947500  1
  Si  Si5  1  0.27200400  0.89458000  0.50017700  1
  Si  Si6  1  0.50269700  0.49328600  0.62450200  1
  Si  Si7  1  0.09602000  0.73164000  0.25006300  1
  Si  Si8  1  0.10053500  0.73256400  0.74955000  1
  Si  Si9  1  0.27239100  0.37740400  0.25030100  1
  Si  Si10  1  0.27008000  0.37664200  0.74992500  1
  Si  Si11  1  0.90336200  0.63248000  0.00007500  1
  Si  Si12  1  0.90758600  0.63849800  0.49900200  1
  Si  Si13  1  0.00139700  0.50444200  0.12681200  1
  Si  Si14  1  0.00186300  0.50575800  0.62417000  1
  Si  Si15  1  0.00170300  0.50423400  0.37558100  1
  Si  Si16  1  0.50316500  0.49501300  0.12495400  1
  Si  Si17  1  0.49538900  0.99817400  0.37479500  1
  Si  Si18  1  0.49570600  0.99874900  0.87475600  1
  O  O0  1  0.69337600  0.90431500  0.00313200  1
  O  O1  1  0.68644300  0.90127100  0.50489200  1
  O  O2  1  0.68030600  0.77710000  0.25455400  1
  O  O3  1  0.68198500  0.77653200  0.75579800  1
  O  O4  1  0.50509000  0.85940200  0.18087100  1
  O  O5  1  0.50464500  0.85798900  0.68099900  1
  O  O6  1  0.51169500  0.86986600  0.32407800  1
  O  O7  1  0.51395300  0.87173800  0.82420400  1
  O  O8  1  0.34540200  0.85437200  0.06921500  1
  O  O9  1  0.34724300  0.85315700  0.56876500  1
  O  O10  1  0.34920900  0.86639000  0.42490500  1
  O  O11  1  0.34921100  0.86747800  0.92525000  1
  O  O12  1  0.52286800  0.64057400  0.07394700  1
  O  O13  1  0.52389700  0.63941400  0.57375400  1
  O  O14  1  0.51752800  0.64421000  0.43077900  1
  O  O15  1  0.51971000  0.64405300  0.93131300  1
  O  O16  1  0.22715300  0.90695500  0.24936700  1
  O  O17  1  0.22311500  0.91176600  0.74629000  1
  O  O18  1  0.08101500  0.77592100  0.99533000  1
  O  O19  1  0.08534000  0.77502100  0.49610300  1
  O  O20  1  0.35887400  0.48276400  0.17506200  1
  O  O21  1  0.35715600  0.48030700  0.67442800  1
  O  O22  1  0.35533300  0.49364800  0.81818300  1
  O  O23  1  0.35589100  0.49394800  0.31887000  1
  O  O24  1  0.12126200  0.64720800  0.32207800  1
  O  O25  1  0.13591900  0.65183200  0.81779500  1
  O  O26  1  0.12659900  0.64660100  0.17912200  1
  O  O27  1  0.12540000  0.64951000  0.67579100  1
  O  O28  1  0.92409500  0.69800400  0.24653700  1
  O  O29  1  0.92753600  0.69991300  0.74926300  1
  O  O30  1  0.12915400  0.48964000  0.07882100  1
  O  O31  1  0.13527300  0.50072300  0.42402700  1
  O  O32  1  0.13203800  0.49558200  0.57584900  1
  O  O33  1  0.14689000  0.50786300  0.92927400  1
  O  O34  1  0.22725500  0.30141300  0.99782800  1
  O  O35  1  0.24413300  0.32693400  0.49864300  1
  O  O36  1  0.78043400  0.69513400  0.00234800  1
  O  O37  1  0.77463300  0.68595500  0.49896800  1
  O  O38  1  0.88621200  0.54012900  0.07590800  1
  O  O39  1  0.88203800  0.53268500  0.42709100  1
  O  O40  1  0.88505400  0.53805400  0.57207500  1
  O  O41  1  0.86829000  0.52260100  0.93191900  1
  O  O42  1  0.09307400  0.32721200  0.24580700  1
  O  O43  1  0.08991800  0.32352600  0.74694100  1
  O  O44  1  0.87026400  0.36322500  0.17422000  1
  O  O45  1  0.87373000  0.36019100  0.32797300  1
  O  O46  1  0.85917800  0.35207700  0.82355500  1
  O  O47  1  0.87152000  0.36284200  0.67061400  1
  O  O48  1  0.65020000  0.52368800  0.17259700  1
  O  O49  1  0.65133800  0.52428600  0.67185300  1
  O  O50  1  0.65112800  0.50606700  0.32235500  1
  O  O51  1  0.65168200  0.50878600  0.82196000  1
  O  O52  1  0.92278800  0.22318900  0.99104500  1
  O  O53  1  0.91651800  0.23741000  0.49441600  1
  O  O54  1  0.75675800  0.07733300  0.24916200  1
  O  O55  1  0.76136300  0.07391200  0.74733200  1
  O  O56  1  0.48484900  0.35116100  0.07786100  1
  O  O57  1  0.48510500  0.34943700  0.57799000  1
  O  O58  1  0.49795000  0.34448000  0.42881500  1
  O  O59  1  0.49580300  0.34464200  0.92806100  1
  O  O60  1  0.64405700  0.13587900  0.07204900  1
  O  O61  1  0.64119500  0.13374200  0.57084000  1
  O  O62  1  0.64081500  0.11502900  0.42216500  1
  O  O63  1  0.63976500  0.11422800  0.92333000  1
  O  O64  1  0.48528800  0.13792900  0.17857400  1
  O  O65  1  0.48809600  0.13880200  0.67865900  1
  O  O66  1  0.47293500  0.12074600  0.32754400  1
  O  O67  1  0.47053600  0.11993500  0.82813600  1
  O  O68  1  0.30558000  0.23786800  0.25371900  1
  O  O69  1  0.30308500  0.23654100  0.75524800  1
  O  O70  1  0.29652400  0.06172100  0.00071800  1
  O  O71  1  0.30473500  0.06502300  0.50282700  1
loop_
_geom_bond_atom_site_label_1
_geom_bond_atom_site_label_2
_geom_bond_distance
_geom_bond_site_symmetry_2
K0 O52 2.856856 1_455
K0 O34 2.936687 1_555
K0 O70 3.117932 1_556
K0 O0 3.161517 1_446
K0 O18 3.249753 1_545
K0 O36 3.313666 1_446
Mg0 O4 2.105483 1_555
Mg0 O8 2.115734 1_555
Mg0 O30 2.118498 1_555
Mg0 O20 2.182694 1_555
Mg0 O26 2.211152 1_555
Mg0 O12 2.259891 1_555
Mg1 O9 2.099835 1_555
Mg1 O32 2.100396 1_555
Mg1 O5 2.104690 1_555
Mg1 O21 2.192643 1_555
Mg1 O27 2.209855 1_555
Mg1 O13 2.271909 1_555
Mg2 O31 2.064572 1_555
Mg2 O23 2.075024 1_555
Mg2 O14 2.144880 1_555
Mg2 O6 2.174012 1_555
Mg2 O10 2.198791 1_555
Mg2 O24 2.330769 1_555
Mg3 O33 2.004471 1_555
Mg3 O22 2.075138 1_555
Mg3 O25 2.157632 1_555
Mg3 O7 2.201327 1_555
Mg3 O11 2.222745 1_555
Mg3 O15 2.267344 1_555
Mg4 O64 2.031888 1_555
Mg4 O60 2.078828 1_555
Mg4 O56 2.108492 1_555
Mg4 O44 2.136107 1_555
Mg4 O48 2.227167 1_555
Mg4 O38 2.442681 1_555
Mg5 O65 2.028896 1_555
Mg5 O61 2.068830 1_555
Mg5 O57 2.091425 1_555
Mg5 O47 2.127377 1_555
Mg5 O49 2.248248 1_555
Mg5 O40 2.447624 1_555
Mg6 O58 2.006203 1_555
Mg6 O50 2.086212 1_555
Mg6 O66 2.144153 1_555
Mg6 O45 2.169299 1_555
Mg6 O62 2.218449 1_555
Mg6 O39 2.384803 1_555
Mg7 O59 2.050310 1_555
Mg7 O46 2.059582 1_555
Mg7 O51 2.073653 1_555
Mg7 O67 2.206507 1_555
Mg7 O41 2.269836 1_555
Mg7 O63 2.275430 1_555
Al0 O46 1.748786 1_455
Al0 O33 1.754202 1_555
Al0 O25 1.798942 1_555
Al0 O41 1.799425 1_455
Al1 O34 1.696330 1_555
Al1 O52 1.710419 1_455
Al1 O33 1.768470 1_555
Al1 O30 1.835243 1_556
Al2 O35 1.675280 1_555
Al2 O53 1.676758 1_455
Al2 O32 1.823621 1_555
Al2 O31 1.836210 1_555
Al3 O28 1.717868 1_555
Al3 O2 1.732020 1_555
Al3 O50 1.739628 1_555
Al3 O48 1.789153 1_555
Al4 O29 1.717408 1_555
Al4 O51 1.736013 1_555
Al4 O3 1.737149 1_555
Al4 O49 1.785199 1_555
Al5 O42 1.727570 1_655
Al5 O54 1.728035 1_555
Al5 O45 1.808526 1_555
Al5 O44 1.812672 1_555
Al6 O55 1.737436 1_555
Al6 O43 1.747277 1_655
Al6 O46 1.754425 1_555
Al6 O47 1.817096 1_555
Al7 O58 1.744584 1_555
Al7 O50 1.751058 1_555
Al7 O14 1.802448 1_555
Al7 O23 1.819279 1_555
Al8 O51 1.739811 1_555
Al8 O59 1.751688 1_555
Al8 O15 1.802359 1_555
Al8 O22 1.812153 1_555
Al9 O52 1.694132 1_554
Al9 O60 1.748049 1_555
Al9 O0 1.768565 1_545
Al9 O63 1.781606 1_554
Al10 O53 1.683252 1_555
Al10 O61 1.750031 1_555
Al10 O1 1.758401 1_545
Al10 O62 1.801276 1_555
Al11 O34 1.692753 1_554
Al11 O59 1.739101 1_554
Al11 O70 1.746629 1_555
Al11 O56 1.790555 1_555
Al12 O35 1.688515 1_555
Al12 O71 1.735444 1_555
Al12 O58 1.750168 1_555
Al12 O57 1.797680 1_555
Al13 O60 1.742415 1_555
Al13 O64 1.742584 1_555
Al13 O4 1.798510 1_545
Al13 O8 1.828701 1_545
Al14 O61 1.734547 1_555
Al14 O65 1.747178 1_555
Al14 O5 1.804307 1_545
Al14 O9 1.827042 1_545
Al15 O68 1.722291 1_555
Al15 O16 1.729999 1_545
Al15 O64 1.738279 1_555
Al15 O66 1.777533 1_555
Al16 O17 1.722078 1_545
Al16 O69 1.726806 1_555
Al16 O65 1.733355 1_555
Al16 O67 1.781025 1_555
O0 Si2 1.592547 1_555
O1 Si3 1.579315 1_555
O2 Si0 1.590628 1_555
O3 Si1 1.594658 1_555
O4 Si0 1.667610 1_555
O5 Si1 1.665499 1_555
O6 Si17 1.672579 1_555
O6 Si0 1.712247 1_555
O7 Si18 1.669592 1_555
O7 Si1 1.718100 1_555
O8 Si4 1.650524 1_554
O9 Si5 1.648158 1_555
O10 Si17 1.688003 1_555
O10 Si5 1.704796 1_555
O11 Si4 1.687191 1_555
O11 Si18 1.691783 1_555
O12 Si16 1.673778 1_555
O12 Si2 1.696246 1_555
O13 Si6 1.670929 1_555
O13 Si3 1.693904 1_555
O14 Si3 1.650438 1_555
O15 Si2 1.635517 1_556
O16 Si7 1.583142 1_555
O17 Si8 1.591732 1_555
O18 Si11 1.637090 1_456
O18 Si4 1.646678 1_555
O19 Si12 1.614088 1_455
O19 Si5 1.640063 1_555
O20 Si16 1.675922 1_555
O20 Si9 1.722540 1_555
O21 Si6 1.681697 1_555
O21 Si10 1.721691 1_555
O22 Si10 1.660608 1_555
O23 Si9 1.660341 1_555
O24 Si15 1.671239 1_555
O24 Si7 1.683160 1_555
O25 Si8 1.648290 1_555
O26 Si13 1.669256 1_555
O26 Si7 1.692831 1_555
O27 Si14 1.664135 1_555
O27 Si8 1.700700 1_555
O28 Si7 1.576988 1_655
O29 Si8 1.589472 1_655
O30 Si13 1.629971 1_555
O31 Si15 1.630020 1_555
O32 Si14 1.631701 1_555
O36 Si11 1.632642 1_555
O36 Si2 1.658878 1_555
O37 Si12 1.616524 1_555
O37 Si3 1.659434 1_555
O38 Si11 1.664889 1_555
O38 Si13 1.666377 1_655
O39 Si12 1.659876 1_555
O39 Si15 1.670741 1_655
O40 Si12 1.654050 1_555
O40 Si14 1.673672 1_655
O41 Si11 1.612134 1_556
O42 Si9 1.602322 1_555
O43 Si10 1.602333 1_555
O44 Si13 1.634517 1_655
O45 Si15 1.637174 1_655
O47 Si14 1.629803 1_655
O48 Si16 1.618974 1_555
O49 Si6 1.622796 1_555
O54 Si0 1.610098 1_545
O55 Si1 1.605578 1_545
O56 Si16 1.622240 1_555
O57 Si6 1.618650 1_555
O62 Si17 1.606270 1_545
O63 Si18 1.607880 1_545
O66 Si17 1.619308 1_545
O67 Si18 1.615459 1_545
O68 Si9 1.588663 1_555
O69 Si10 1.594891 1_555
O70 Si4 1.585631 1_544
O71 Si5 1.569704 1_545
