# generated using pymatgen
data_Na4(WO3)9
_symmetry_space_group_name_H-M   'P 1'
_cell_length_a   9.39922075
_cell_length_b   9.39922075
_cell_length_c   11.51767225
_cell_angle_alpha   65.89367480
_cell_angle_beta   65.89367480
_cell_angle_gamma   33.56015225
_symmetry_Int_Tables_number   1
_chemical_formula_structural   Na4(WO3)9
_chemical_formula_sum   'Na4 W9 O27'
_cell_volume   508.75292066
_cell_formula_units_Z   1
loop_
 _symmetry_equiv_pos_site_id
 _symmetry_equiv_pos_as_xyz
  1  'x, y, z'
loop_
 _atom_site_type_symbol
 _atom_site_label
 _atom_site_symmetry_multiplicity
 _atom_site_fract_x
 _atom_site_fract_y
 _atom_site_fract_z
 _atom_site_occupancy
  Na  Na0  1  0.49993183  0.49993183  0.83263496  1
  Na  Na1  1  0.16676060  0.16676060  0.38865996  1
  Na  Na2  1  0.50006817  0.50006817  0.16736504  1
  Na  Na3  1  0.83323940  0.83323940  0.61134004  1
  W  W0  1  0.33176730  0.33176730  0.77995013  1
  W  W1  1  0.66759177  0.66759177  0.88932310  1
  W  W2  1  -0.00000000  -0.00000000  0.00000000  1
  W  W3  1  0.66823270  0.66823270  0.22004987  1
  W  W4  1  0.33240823  0.33240823  0.11067690  1
  W  W5  1  0.00079070  0.00079070  0.33282975  1
  W  W6  1  0.66641499  0.66641499  0.55570425  1
  W  W7  1  0.33358501  0.33358501  0.44429575  1
  W  W8  1  0.99920930  0.99920930  0.66717025  1
  O  O0  1  0.50336712  0.99806527  0.83122138  1
  O  O1  1  0.99806527  0.50336712  0.83122138  1
  O  O2  1  -0.00003151  -0.00003151  0.83322229  1
  O  O3  1  0.66509336  0.66509336  0.05664266  1
  O  O4  1  0.33490664  0.33490664  0.94335734  1
  O  O5  1  0.33663585  0.82642024  0.94566061  1
  O  O6  1  0.66336415  0.17357976  0.05433939  1
  O  O7  1  0.49663288  0.00193473  0.16877862  1
  O  O8  1  0.17357976  0.66336415  0.05433939  1
  O  O9  1  0.00193473  0.49663288  0.16877862  1
  O  O10  1  0.82642024  0.33663585  0.94566061  1
  O  O11  1  0.00003151  0.00003151  0.16677771  1
  O  O12  1  0.66679409  0.66679409  0.38890037  1
  O  O13  1  0.33327131  0.33327131  0.27797705  1
  O  O14  1  -0.00000000  0.50000000  0.50000000  1
  O  O15  1  0.50000000  -0.00000000  0.50000000  1
  O  O16  1  0.16680805  0.66689508  0.38876659  1
  O  O17  1  0.33345620  0.83355231  0.27765687  1
  O  O18  1  0.66689508  0.16680805  0.38876659  1
  O  O19  1  0.83355231  0.33345620  0.27765687  1
  O  O20  1  -0.00000000  -0.00000000  0.50000000  1
  O  O21  1  0.66672869  0.66672869  0.72202295  1
  O  O22  1  0.33320591  0.33320591  0.61109963  1
  O  O23  1  0.33310492  0.83319195  0.61123341  1
  O  O24  1  0.16644769  0.66654380  0.72234313  1
  O  O25  1  0.66654380  0.16644769  0.72234313  1
  O  O26  1  0.83319195  0.33310492  0.61123341  1
loop_
_geom_bond_atom_site_label_1
_geom_bond_atom_site_label_2
_geom_bond_distance
_geom_bond_site_symmetry_2
Na0 O4 2.686319 1_555
Na0 O8 2.691132 1_556
Na0 O6 2.691132 1_556
Na0 O5 2.692368 1_555
Na0 O10 2.692368 1_555
Na0 O23 2.707170 1_555
Na0 O26 2.707170 1_555
Na0 O24 2.708839 1_555
Na0 O25 2.708839 1_555
Na0 O2 2.713554 1_565
Na0 O2 2.713554 1_655
Na0 O21 2.715154 1_555
Na1 O7 2.685594 1_555
Na1 O9 2.685594 1_555
Na1 O13 2.710490 1_555
Na1 O19 2.711925 1_455
Na1 O17 2.711925 1_545
Na1 O12 2.713546 1_545
Na1 O12 2.713546 1_455
Na1 O20 2.714556 1_555
Na1 O14 2.714571 1_555
Na1 O15 2.714571 1_555
Na1 O23 2.717547 1_545
Na1 O26 2.717547 1_455
Na2 O3 2.686319 1_555
Na2 O5 2.691132 1_554
Na2 O10 2.691132 1_554
Na2 O8 2.692368 1_555
Na2 O6 2.692368 1_555
Na2 O18 2.707170 1_555
Na2 O16 2.707170 1_555
Na2 O17 2.708839 1_555
Na2 O19 2.708839 1_555
Na2 O11 2.713554 1_655
Na2 O11 2.713554 1_565
Na2 O13 2.715154 1_555
Na3 O0 2.685594 1_555
Na3 O1 2.685594 1_555
Na3 O21 2.710490 1_555
Na3 O24 2.711925 1_655
Na3 O25 2.711925 1_565
Na3 O22 2.713546 1_565
Na3 O22 2.713546 1_655
Na3 O20 2.714556 1_665
Na3 O14 2.714571 1_655
Na3 O15 2.714571 1_565
Na3 O18 2.717547 1_565
Na3 O16 2.717547 1_655
O0 W0 1.903104 1_565
O0 W1 1.906272 1_555
O1 W0 1.903104 1_655
O1 W1 1.906272 1_555
O2 W8 1.918402 1_445
O2 W2 1.921133 1_556
O3 W3 1.906859 1_555
O3 W1 1.908383 1_554
O4 W0 1.906859 1_555
O4 W4 1.908383 1_556
O5 W2 1.917833 1_566
O5 W1 1.931115 1_555
O6 W2 1.917833 1_655
O6 W4 1.931115 1_555
O7 W3 1.903104 1_545
O7 W4 1.906272 1_555
O8 W2 1.917833 1_565
O8 W4 1.931115 1_555
O9 W3 1.903104 1_455
O9 W4 1.906272 1_555
O10 W2 1.917833 1_656
O10 W1 1.931115 1_555
O11 W5 1.918402 1_555
O11 W2 1.921133 1_555
O12 W6 1.918292 1_555
O12 W3 1.933861 1_555
O13 W7 1.918020 1_555
O13 W4 1.933586 1_555
O14 W6 1.921481 1_455
O14 W7 1.921481 1_555
O15 W6 1.921481 1_545
O15 W7 1.921481 1_555
O16 W7 1.917981 1_555
O16 W5 1.925401 1_565
O17 W5 1.911278 1_565
O17 W3 1.934932 1_555
O18 W7 1.917981 1_555
O18 W5 1.925401 1_655
O19 W5 1.911278 1_655
O19 W3 1.934932 1_555
O20 W8 1.919384 1_445
O20 W5 1.919384 1_555
O21 W6 1.918020 1_555
O21 W1 1.933586 1_555
O22 W7 1.918292 1_555
O22 W0 1.933861 1_555
O23 W6 1.917981 1_555
O23 W8 1.925401 1_455
O24 W8 1.911278 1_455
O24 W0 1.934932 1_555
O25 W8 1.911278 1_545
O25 W0 1.934932 1_555
O26 W6 1.917981 1_555
O26 W8 1.925401 1_545
