# generated using pymatgen
data_Ho6ReO12
_symmetry_space_group_name_H-M   'P 1'
_cell_length_a   6.39630476
_cell_length_b   6.39632839
_cell_length_c   6.39633417
_cell_angle_alpha   98.76747106
_cell_angle_beta   98.76739331
_cell_angle_gamma   98.76722696
_symmetry_Int_Tables_number   1
_chemical_formula_structural   Ho6ReO12
_chemical_formula_sum   'Ho6 Re1 O12'
_cell_volume   251.44528640
_cell_formula_units_Z   1
loop_
 _symmetry_equiv_pos_site_id
 _symmetry_equiv_pos_as_xyz
  1  'x, y, z'
loop_
 _atom_site_type_symbol
 _atom_site_label
 _atom_site_symmetry_multiplicity
 _atom_site_fract_x
 _atom_site_fract_y
 _atom_site_fract_z
 _atom_site_occupancy
  Ho  Ho0  1  0.38964625  0.85592000  0.68483684  1
  Ho  Ho1  1  0.31515832  0.61035310  0.14407892  1
  Ho  Ho2  1  0.14407813  0.31515987  0.61035397  1
  Ho  Ho3  1  0.85592187  0.68484013  0.38964603  1
  Ho  Ho4  1  0.68484168  0.38964690  0.85592108  1
  Ho  Ho5  1  0.61035375  0.14408000  0.31516316  1
  Re  Re0  1  0.00000000  -0.00000000  0.00000000  1
  O  O0  1  0.03690483  0.92670630  0.70296331  1
  O  O1  1  0.29703524  0.96309974  0.07329432  1
  O  O2  1  0.17709150  0.59014174  0.43211542  1
  O  O3  1  0.56788327  0.82290966  0.40985546  1
  O  O4  1  0.07329097  0.29703787  0.96309463  1
  O  O5  1  0.40985804  0.56788685  0.82291098  1
  O  O6  1  0.59014196  0.43211315  0.17708902  1
  O  O7  1  0.92670903  0.70296213  0.03690637  1
  O  O8  1  0.43211673  0.17709034  0.59014454  1
  O  O9  1  0.82290850  0.40985826  0.56788458  1
  O  O10  1  0.70296476  0.03690126  0.92670568  1
  O  O11  1  0.96309617  0.07329370  0.29703669  1
loop_
_geom_bond_atom_site_label_1
_geom_bond_atom_site_label_2
_geom_bond_distance
_geom_bond_site_symmetry_2
Ho0 O5 2.173659 1_555
Ho0 O8 2.218151 1_565
Ho0 O3 2.238169 1_555
Ho0 O2 2.266980 1_555
Ho0 O10 2.356164 1_565
Ho0 O0 2.384162 1_555
Ho0 O1 2.654778 1_556
Ho1 O2 2.173653 1_555
Ho1 O5 2.218155 1_554
Ho1 O6 2.238187 1_555
Ho1 O3 2.266989 1_555
Ho1 O4 2.356153 1_554
Ho1 O1 2.384198 1_555
Ho1 O7 2.654708 1_455
Ho2 O8 2.173664 1_555
Ho2 O9 2.218153 1_455
Ho2 O2 2.238183 1_555
Ho2 O5 2.267008 1_555
Ho2 O11 2.356155 1_455
Ho2 O4 2.384166 1_555
Ho2 O0 2.654747 1_545
Ho3 O3 2.173664 1_555
Ho3 O2 2.218153 1_655
Ho3 O9 2.238183 1_555
Ho3 O6 2.267008 1_555
Ho3 O0 2.356157 1_655
Ho3 O7 2.384159 1_555
Ho3 O11 2.654748 1_565
Ho4 O9 2.173653 1_555
Ho4 O6 2.218155 1_556
Ho4 O5 2.238187 1_555
Ho4 O8 2.266989 1_555
Ho4 O7 2.356155 1_556
Ho4 O10 2.384191 1_555
Ho4 O4 2.654709 1_655
Ho5 O6 2.173659 1_555
Ho5 O3 2.218151 1_545
Ho5 O8 2.238169 1_555
Ho5 O9 2.266980 1_555
Ho5 O1 2.356162 1_545
Ho5 O11 2.384169 1_555
Ho5 O10 2.654777 1_554
O0 Re0 1.945308 1_566
O1 Re0 1.945282 1_565
O4 Re0 1.945315 1_556
O7 Re0 1.945317 1_665
O10 Re0 1.945284 1_656
O11 Re0 1.945306 1_655
