# generated using pymatgen
data_Li2V(OF)2
_symmetry_space_group_name_H-M   'P 1'
_cell_length_a   6.31989080
_cell_length_b   7.67517121
_cell_length_c   7.67427508
_cell_angle_alpha   60.57476467
_cell_angle_beta   69.59738985
_cell_angle_gamma   69.59900162
_symmetry_Int_Tables_number   1
_chemical_formula_structural   Li2V(OF)2
_chemical_formula_sum   'Li8 V4 O8 F8'
_cell_volume   296.63372396
_cell_formula_units_Z   4
loop_
 _symmetry_equiv_pos_site_id
 _symmetry_equiv_pos_as_xyz
  1  'x, y, z'
loop_
 _atom_site_type_symbol
 _atom_site_label
 _atom_site_symmetry_multiplicity
 _atom_site_fract_x
 _atom_site_fract_y
 _atom_site_fract_z
 _atom_site_occupancy
  Li  Li0  1  0.78337600  0.50595400  0.26457000  1
  Li  Li1  1  0.78330100  0.00600100  0.76458500  1
  Li  Li2  1  0.21649200  0.48566900  0.74393000  1
  Li  Li3  1  0.21657400  0.98560200  0.24392500  1
  Li  Li4  1  0.59236900  0.67465100  0.93310800  1
  Li  Li5  1  0.59244300  0.17462000  0.43309800  1
  Li  Li6  1  0.40757100  0.31696200  0.07525400  1
  Li  Li7  1  0.40749400  0.81700200  0.57526600  1
  V  V0  1  0.20598700  0.06147800  0.81976200  1
  V  V1  1  0.79411400  0.93025000  0.18846200  1
  V  V2  1  0.20602500  0.56156000  0.31969700  1
  V  V3  1  0.79411900  0.43015700  0.68848000  1
  O  O0  1  0.14580000  0.84033000  0.09848300  1
  O  O1  1  0.14578100  0.34039900  0.59848100  1
  O  O2  1  0.85432200  0.15135100  0.90979200  1
  O  O3  1  0.85435300  0.65129300  0.40977500  1
  O  O4  1  0.49203800  0.46484400  0.22350000  1
  O  O5  1  0.49196000  0.96475200  0.72351900  1
  O  O6  1  0.50806900  0.52668000  0.78488200  1
  O  O7  1  0.50811400  0.02680800  0.28486200  1
  F  F0  1  0.72430000  0.79510900  0.05376200  1
  F  F1  1  0.72422100  0.29520000  0.55369900  1
  F  F2  1  0.27557300  0.19655300  0.95462900  1
  F  F3  1  0.27566300  0.69644900  0.45469500  1
  F  F4  1  0.88858700  0.55731100  0.81546700  1
  F  F5  1  0.88867600  0.05719800  0.31547800  1
  F  F6  1  0.11138600  0.43499900  0.19226900  1
  F  F7  1  0.11127700  0.93511700  0.69227600  1
loop_
_geom_bond_atom_site_label_1
_geom_bond_atom_site_label_2
_geom_bond_distance
_geom_bond_site_symmetry_2
Li0 O4 2.120463 1_555
Li0 O3 2.146177 1_555
Li1 O5 2.121025 1_545
Li1 O2 2.146420 1_555
Li2 O6 2.121059 1_555
Li2 O1 2.146355 1_555
Li3 O7 2.121556 1_565
Li3 O0 2.146550 1_555
Li4 O5 2.038402 1_555
Li4 O4 2.040117 1_556
Li4 O6 2.231904 1_555
Li5 O4 2.038984 1_555
Li5 O5 2.040616 1_545
Li5 O7 2.231049 1_555
Li6 O7 2.038871 1_555
Li6 O6 2.039996 1_554
Li6 O4 2.232084 1_555
Li7 O6 2.039704 1_555
Li7 O7 2.040545 1_565
Li7 O5 2.231273 1_555
O0 V0 1.978997 1_564
O0 V2 1.979536 1_555
O0 V1 2.054727 1_455
O1 V2 1.979364 1_555
O1 V0 1.980411 1_555
O1 V3 2.054464 1_455
O2 V1 1.978638 1_546
O2 V3 1.979980 1_555
O2 V0 2.054619 1_655
O3 V3 1.978922 1_555
O3 V1 1.980695 1_555
O3 V2 2.054569 1_655
O4 V2 1.742395 1_555
O5 V0 1.742324 1_565
O6 V3 1.742592 1_555
O7 V1 1.742426 1_545
F0 Li0 1.999410 1_555
F0 Li1 1.999569 1_564
F0 V1 2.007410 1_555
F0 Li4 2.079466 1_554
F1 Li0 1.999061 1_555
F1 Li1 1.999828 1_555
F1 V3 2.007049 1_555
F1 Li5 2.079203 1_555
F2 Li2 1.998944 1_555
F2 Li3 2.000308 1_546
F2 V0 2.007231 1_555
F2 Li6 2.079286 1_556
F3 Li3 1.999311 1_555
F3 Li2 1.999662 1_555
F3 V2 2.007064 1_555
F3 Li7 2.079090 1_555
F4 Li4 1.890993 1_555
F4 Li2 1.899268 1_655
F4 V3 2.001243 1_555
F5 Li5 1.891227 1_555
F5 Li3 1.899217 1_645
F5 V1 2.000494 1_545
F6 Li6 1.891060 1_555
F6 Li0 1.899895 1_455
F6 V2 2.000966 1_555
F7 Li7 1.891399 1_555
F7 Li1 1.899680 1_465
F7 V0 2.000349 1_565
