# generated using pymatgen
data_Li4MnCrO6
_symmetry_space_group_name_H-M   'P 1'
_cell_length_a   5.04342900
_cell_length_b   8.65993267
_cell_length_c   9.75427835
_cell_angle_alpha   98.20585127
_cell_angle_beta   95.26574809
_cell_angle_gamma   89.76047329
_symmetry_Int_Tables_number   1
_chemical_formula_structural   Li4MnCrO6
_chemical_formula_sum   'Li16 Mn4 Cr4 O24'
_cell_volume   419.86696169
_cell_formula_units_Z   4
loop_
 _symmetry_equiv_pos_site_id
 _symmetry_equiv_pos_as_xyz
  1  'x, y, z'
loop_
 _atom_site_type_symbol
 _atom_site_label
 _atom_site_symmetry_multiplicity
 _atom_site_fract_x
 _atom_site_fract_y
 _atom_site_fract_z
 _atom_site_occupancy
  Li  Li0  1  0.99654800  0.16737600  0.49874700  1
  Li  Li1  1  0.87473300  0.37621300  0.74972300  1
  Li  Li2  1  0.75013900  0.25004300  0.00062100  1
  Li  Li3  1  0.74071200  0.92047800  0.99960000  1
  Li  Li4  1  0.75512700  0.57996800  0.00019800  1
  Li  Li5  1  0.62384400  0.12268800  0.24996200  1
  Li  Li6  1  0.50267800  0.33195100  0.50056600  1
  Li  Li7  1  0.49992400  0.00036700  0.50008400  1
  Li  Li8  1  0.49207400  0.66784500  0.49937700  1
  Li  Li9  1  0.37413500  0.87525700  0.75024600  1
  Li  Li10  1  0.25373800  0.75077800  0.99919000  1
  Li  Li11  1  0.24281900  0.42067900  0.00010600  1
  Li  Li12  1  0.25814600  0.07858400  0.99986100  1
  Li  Li13  1  0.12378800  0.62286100  0.25008800  1
  Li  Li14  1  0.00594900  0.83122000  0.50094400  1
  Li  Li15  1  0.00345200  0.50136100  0.49977300  1
  Mn  Mn0  1  0.62538700  0.79185400  0.25036800  1
  Mn  Mn1  1  0.37326500  0.54272700  0.75019100  1
  Mn  Mn2  1  0.37613300  0.20768700  0.74984700  1
  Mn  Mn3  1  0.12567600  0.29138500  0.24979500  1
  Cr  Cr0  1  0.87213600  0.70492600  0.74847100  1
  Cr  Cr1  1  0.87765700  0.04509900  0.75160400  1
  Cr  Cr2  1  0.62245200  0.45528000  0.24981100  1
  Cr  Cr3  1  0.12287200  0.95512200  0.24969900  1
  O  O0  1  0.96651200  0.10705000  0.13780800  1
  O  O1  1  0.92731400  0.78709300  0.13880900  1
  O  O2  1  0.93191500  0.42701100  0.13423500  1
  O  O3  1  0.81755500  0.96444000  0.36313200  1
  O  O4  1  0.82406700  0.32512600  0.36340700  1
  O  O5  1  0.78590200  0.64387500  0.36262100  1
  O  O6  1  0.71819800  0.85644300  0.63835700  1
  O  O7  1  0.67775300  0.53532700  0.63877500  1
  O  O8  1  0.67757200  0.17557900  0.63722600  1
  O  O9  1  0.46664200  0.60679600  0.13816000  1
  O  O10  1  0.56683900  0.71264200  0.86235200  1
  O  O11  1  0.56811200  0.07416400  0.86577000  1
  O  O12  1  0.43190200  0.92683000  0.13465100  1
  O  O13  1  0.42672200  0.28711200  0.13862000  1
  O  O14  1  0.53802600  0.39284100  0.86175700  1
  O  O15  1  0.32412900  0.82497800  0.36323200  1
  O  O16  1  0.31762900  0.46428400  0.36288300  1
  O  O17  1  0.28615600  0.14405100  0.36203000  1
  O  O18  1  0.21053800  0.35646800  0.63851000  1
  O  O19  1  0.18160300  0.67659300  0.63472800  1
  O  O20  1  0.18404500  0.03658000  0.63732400  1
  O  O21  1  0.07263300  0.57459100  0.86286100  1
  O  O22  1  0.07198000  0.21413600  0.86083000  1
  O  O23  1  0.03287300  0.89424300  0.86305500  1
loop_
_geom_bond_atom_site_label_1
_geom_bond_atom_site_label_2
_geom_bond_distance
_geom_bond_site_symmetry_2
Li0 O20 2.048857 1_655
Li0 O17 2.056889 1_655
Li0 O4 2.158664 1_555
Li0 O3 2.187180 1_545
Li0 O8 2.188182 1_555
Li0 O18 2.193685 1_655
Li1 O7 2.067291 1_555
Li1 O18 2.087151 1_655
Li1 O22 2.087791 1_655
Li1 O14 2.095799 1_555
Li1 O21 2.106267 1_655
Li1 O8 2.116986 1_555
Li2 O2 2.027315 1_555
Li2 O11 2.027555 1_554
Li2 O0 2.169937 1_555
Li2 O14 2.170137 1_554
Li2 O13 2.202465 1_555
Li2 O22 2.207194 1_654
Li3 O23 2.065865 1_655
Li3 O1 2.065890 1_556
Li3 O11 2.123884 1_565
Li3 O12 2.125851 1_556
Li3 O0 2.199229 1_566
Li3 O10 2.215981 1_555
Li4 O10 2.056035 1_554
Li4 O9 2.061344 1_555
Li4 O2 2.128249 1_555
Li4 O21 2.176304 1_654
Li4 O14 2.183402 1_554
Li4 O1 2.214661 1_555
Li5 O3 2.067312 1_545
Li5 O12 2.085265 1_545
Li5 O17 2.100265 1_555
Li5 O13 2.104002 1_555
Li5 O0 2.122420 1_555
Li5 O4 2.138575 1_555
Li6 O16 2.046534 1_555
Li6 O18 2.075129 1_555
Li6 O8 2.162925 1_555
Li6 O17 2.186927 1_555
Li6 O4 2.189847 1_555
Li6 O7 2.194478 1_555
Li7 O15 2.022422 1_545
Li7 O8 2.026442 1_555
Li7 O20 2.166991 1_555
Li7 O3 2.171997 1_545
Li7 O17 2.173617 1_555
Li7 O6 2.186394 1_545
Li8 O7 2.060467 1_555
Li8 O5 2.073592 1_555
Li8 O19 2.133205 1_555
Li8 O15 2.152309 1_555
Li8 O16 2.186826 1_555
Li8 O6 2.214868 1_555
Li9 O20 2.078061 1_565
Li9 O10 2.087231 1_555
Li9 O19 2.105265 1_555
Li9 O11 2.109887 1_565
Li9 O23 2.119847 1_555
Li9 O6 2.126806 1_555
Li10 O12 2.023901 1_556
Li10 O21 2.034727 1_555
Li10 O10 2.154272 1_555
Li10 O23 2.176132 1_555
Li10 O9 2.179293 1_556
Li10 O1 2.224603 1_456
Li11 O13 2.056887 1_555
Li11 O14 2.090183 1_554
Li11 O2 2.128095 1_455
Li11 O21 2.143437 1_554
Li11 O9 2.191357 1_555
Li11 O22 2.211707 1_554
Li12 O0 2.073703 1_456
Li12 O22 2.076096 1_555
Li12 O12 2.120326 1_546
Li12 O11 2.125236 1_555
Li12 O23 2.179168 1_545
Li12 O13 2.218048 1_556
Li13 O16 2.067552 1_555
Li13 O2 2.087087 1_455
Li13 O1 2.101028 1_455
Li13 O5 2.103738 1_455
Li13 O9 2.121903 1_555
Li13 O15 2.135704 1_555
Li14 O6 2.054565 1_455
Li14 O3 2.059097 1_455
Li14 O19 2.134839 1_555
Li14 O15 2.180975 1_555
Li14 O5 2.190797 1_455
Li14 O20 2.204058 1_565
Li15 O19 2.016687 1_555
Li15 O4 2.031799 1_455
Li15 O16 2.158348 1_555
Li15 O5 2.169638 1_455
Li15 O18 2.170473 1_555
Li15 O7 2.216770 1_455
Mn0 O5 1.930196 1_555
Mn0 O3 1.931349 1_555
Mn0 O9 1.938145 1_555
Mn0 O12 1.938424 1_555
Mn0 O1 1.948180 1_555
Mn0 O15 1.953460 1_555
Mn1 O10 1.916155 1_555
Mn1 O19 1.926203 1_555
Mn1 O14 1.946230 1_555
Mn1 O21 1.949020 1_555
Mn1 O18 1.951252 1_555
Mn1 O7 1.956808 1_555
Mn2 O20 1.921314 1_555
Mn2 O11 1.927694 1_555
Mn2 O18 1.939314 1_555
Mn2 O14 1.943432 1_555
Mn2 O8 1.952225 1_555
Mn2 O22 1.953193 1_555
Mn3 O17 1.925875 1_555
Mn3 O0 1.933357 1_455
Mn3 O16 1.934049 1_555
Mn3 O2 1.941950 1_455
Mn3 O13 1.942395 1_555
Mn3 O4 1.959754 1_455
Cr0 O7 1.906312 1_555
Cr0 O21 1.919456 1_655
Cr0 O6 1.928424 1_555
Cr0 O10 1.975122 1_555
Cr0 O23 1.978886 1_655
Cr0 O19 1.991005 1_655
Cr1 O22 1.900950 1_655
Cr1 O8 1.919247 1_555
Cr1 O23 1.934424 1_645
Cr1 O6 1.966950 1_545
Cr1 O20 1.981809 1_655
Cr1 O11 1.994124 1_555
Cr2 O13 1.906906 1_555
Cr2 O4 1.916311 1_555
Cr2 O9 1.940995 1_555
Cr2 O16 1.967658 1_555
Cr2 O5 1.972190 1_555
Cr2 O2 2.001952 1_555
Cr3 O1 1.904465 1_455
Cr3 O15 1.915019 1_555
Cr3 O0 1.946112 1_465
Cr3 O3 1.971822 1_455
Cr3 O17 1.972184 1_565
Cr3 O12 1.996969 1_555
