# generated using pymatgen
data_MoP2N2O9
_symmetry_space_group_name_H-M   'P 1'
_cell_length_a   7.65505296
_cell_length_b   7.65505296
_cell_length_c   16.38559744
_cell_angle_alpha   82.48736151
_cell_angle_beta   82.48736151
_cell_angle_gamma   69.80374242
_symmetry_Int_Tables_number   1
_chemical_formula_structural   MoP2N2O9
_chemical_formula_sum   'Mo4 P8 N8 O36'
_cell_volume   889.63149387
_cell_formula_units_Z   4
loop_
 _symmetry_equiv_pos_site_id
 _symmetry_equiv_pos_as_xyz
  1  'x, y, z'
loop_
 _atom_site_type_symbol
 _atom_site_label
 _atom_site_symmetry_multiplicity
 _atom_site_fract_x
 _atom_site_fract_y
 _atom_site_fract_z
 _atom_site_occupancy
  Mo  Mo0  1  0.22070300  0.51822400  0.14900000  1
  Mo  Mo1  1  0.48177600  0.77929700  0.35100000  1
  Mo  Mo2  1  0.77929700  0.48177600  0.85100000  1
  Mo  Mo3  1  0.51822400  0.22070300  0.64900000  1
  P  P0  1  0.28368800  0.43603800  0.34335000  1
  P  P1  1  0.56396200  0.71631200  0.15665000  1
  P  P2  1  0.71631200  0.56396200  0.65665000  1
  P  P3  1  0.43603800  0.28368800  0.84335000  1
  P  P4  1  0.69633100  0.39062400  0.05727900  1
  P  P5  1  0.60937600  0.30366900  0.44272100  1
  P  P6  1  0.30366900  0.60937600  0.94272100  1
  P  P7  1  0.39062400  0.69633100  0.55727900  1
  N  N0  1  0.95748700  0.24383800  0.31431900  1
  N  N1  1  0.75616200  0.04251300  0.18568100  1
  N  N2  1  0.04251300  0.75616200  0.68568100  1
  N  N3  1  0.24383800  0.95748700  0.81431900  1
  N  N4  1  0.94488800  0.78201000  0.46885400  1
  N  N5  1  0.21799000  0.05511200  0.03114600  1
  N  N6  1  0.05511200  0.21799000  0.53114600  1
  N  N7  1  0.78201000  0.94488800  0.96885400  1
  O  O0  1  0.34929600  0.39731300  0.25094700  1
  O  O1  1  0.60268700  0.65070400  0.24905300  1
  O  O2  1  0.65070400  0.60268700  0.74905300  1
  O  O3  1  0.39731300  0.34929600  0.75094700  1
  O  O4  1  0.11265400  0.39281100  0.37844200  1
  O  O5  1  0.60718900  0.88734600  0.12155800  1
  O  O6  1  0.88734600  0.60718900  0.62155800  1
  O  O7  1  0.39281100  0.11265400  0.87844200  1
  O  O8  1  0.29728500  0.62202200  0.35973800  1
  O  O9  1  0.37797800  0.70271500  0.14026200  1
  O  O10  1  0.70271500  0.37797800  0.64026200  1
  O  O11  1  0.62202200  0.29728500  0.85973800  1
  O  O12  1  0.72786700  0.53188500  0.10937000  1
  O  O13  1  0.46811500  0.27213300  0.39063000  1
  O  O14  1  0.27213300  0.46811500  0.89063000  1
  O  O15  1  0.53188500  0.72786700  0.60937000  1
  O  O16  1  0.63822100  0.48845200  0.42866900  1
  O  O17  1  0.51154800  0.36177900  0.07133100  1
  O  O18  1  0.36177900  0.51154800  0.57133100  1
  O  O19  1  0.48845200  0.63822100  0.92866900  1
  O  O20  1  0.17928600  0.64068400  0.02176100  1
  O  O21  1  0.35931600  0.82071400  0.47823900  1
  O  O22  1  0.82071400  0.35931600  0.97823900  1
  O  O23  1  0.64068400  0.17928600  0.52176100  1
  O  O24  1  0.84485900  0.10329200  0.13406000  1
  O  O25  1  0.89670800  0.15514100  0.36594000  1
  O  O26  1  0.15514100  0.89670800  0.86594000  1
  O  O27  1  0.10329200  0.84485900  0.63406000  1
  O  O28  1  0.16321100  0.33255900  0.12752500  1
  O  O29  1  0.66744100  0.83678900  0.37247500  1
  O  O30  1  0.83678900  0.66744100  0.87247500  1
  O  O31  1  0.33255900  0.16321100  0.62752500  1
  O  O32  1  0.01540000  0.66787900  0.19024900  1
  O  O33  1  0.33212100  0.98460000  0.30975100  1
  O  O34  1  0.98460000  0.33212100  0.80975100  1
  O  O35  1  0.66787900  0.01540000  0.69024900  1
loop_
_geom_bond_atom_site_label_1
_geom_bond_atom_site_label_2
_geom_bond_distance
_geom_bond_site_symmetry_2
Mo0 O32 1.709020 1_555
Mo0 O28 1.714848 1_555
Mo0 O0 2.003182 1_555
Mo0 O9 2.130875 1_555
Mo0 O20 2.186921 1_555
Mo0 O17 2.414011 1_555
Mo1 O33 1.709020 1_555
Mo1 O29 1.714848 1_555
Mo1 O1 2.003182 1_555
Mo1 O8 2.130875 1_555
Mo1 O21 2.186921 1_555
Mo1 O16 2.414011 1_555
Mo2 O34 1.709020 1_555
Mo2 O30 1.714848 1_555
Mo2 O2 2.003182 1_555
Mo2 O11 2.130875 1_555
Mo2 O22 2.186921 1_555
Mo2 O19 2.414011 1_555
Mo3 O35 1.709020 1_555
Mo3 O31 1.714848 1_555
Mo3 O3 2.003182 1_555
Mo3 O10 2.130875 1_555
Mo3 O23 2.186921 1_555
Mo3 O18 2.414011 1_555
N0 O25 1.165322 1_555
N1 O24 1.165322 1_555
N2 O27 1.165322 1_555
N3 O26 1.165322 1_555
O0 P0 1.564696 1_555
O1 P1 1.564696 1_555
O2 P2 1.564696 1_555
O3 P3 1.564696 1_555
O4 P0 1.485550 1_555
O5 P1 1.485550 1_555
O6 P2 1.485550 1_555
O7 P3 1.485550 1_555
O8 P0 1.522994 1_555
O9 P1 1.522994 1_555
O10 P2 1.522994 1_555
O11 P3 1.522994 1_555
O12 P4 1.559370 1_555
O12 P1 1.725212 1_555
O13 P5 1.559370 1_555
O13 P0 1.725212 1_555
O14 P6 1.559370 1_555
O14 P3 1.725212 1_555
O15 P7 1.559370 1_555
O15 P2 1.725212 1_555
O16 P5 1.489917 1_555
O17 P4 1.489917 1_555
O18 P7 1.489917 1_555
O19 P6 1.489917 1_555
O20 P6 1.497503 1_554
O21 P7 1.497503 1_555
O22 P4 1.497503 1_556
O23 P5 1.497503 1_555
O24 P4 2.374282 1_555
O25 P5 2.374282 1_555
O26 P6 2.374282 1_555
O27 P7 2.374282 1_555
