# generated using pymatgen
data_Li6MnV3(PO4)6
_symmetry_space_group_name_H-M   'P 1'
_cell_length_a   8.71532400
_cell_length_b   8.71208100
_cell_length_c   12.35921954
_cell_angle_alpha   89.00849014
_cell_angle_beta   90.00000000
_cell_angle_gamma   90.00000000
_symmetry_Int_Tables_number   1
_chemical_formula_structural   Li6MnV3(PO4)6
_chemical_formula_sum   'Li12 Mn2 V6 P12 O48'
_cell_volume   938.27783449
_cell_formula_units_Z   2
loop_
 _symmetry_equiv_pos_site_id
 _symmetry_equiv_pos_as_xyz
  1  'x, y, z'
loop_
 _atom_site_type_symbol
 _atom_site_label
 _atom_site_symmetry_multiplicity
 _atom_site_fract_x
 _atom_site_fract_y
 _atom_site_fract_z
 _atom_site_occupancy
  Li  Li0  1  0.90262900  0.17353200  0.44735400  1
  Li  Li1  1  0.29573700  0.16749500  0.50844200  1
  Li  Li2  1  0.22711900  0.03880000  0.92871500  1
  Li  Li3  1  0.72711900  0.96120000  0.07128500  1
  Li  Li4  1  0.79573700  0.83250500  0.49155800  1
  Li  Li5  1  0.40262900  0.82646800  0.55264600  1
  Li  Li6  1  0.59625300  0.67022700  0.94792900  1
  Li  Li7  1  0.20363800  0.66403300  0.00903200  1
  Li  Li8  1  0.27373800  0.53905400  0.42865100  1
  Li  Li9  1  0.77373800  0.46094600  0.57134900  1
  Li  Li10  1  0.70363800  0.33596700  0.99096800  1
  Li  Li11  1  0.09625300  0.32977300  0.05207100  1
  Mn  Mn0  1  0.03386100  0.50457300  0.85610700  1
  Mn  Mn1  1  0.53386100  0.49542700  0.14389300  1
  V  V0  1  0.46880500  0.00308700  0.35974300  1
  V  V1  1  0.54229900  0.00325200  0.86135200  1
  V  V2  1  0.96880500  0.99691300  0.64025700  1
  V  V3  1  0.04229900  0.99674800  0.13864800  1
  V  V4  1  0.95820800  0.50386800  0.36127400  1
  V  V5  1  0.45820800  0.49613200  0.63872600  1
  P  P0  1  0.75221000  0.21091500  0.24358000  1
  P  P1  1  0.61174100  0.14442800  0.60363900  1
  P  P2  1  0.90211500  0.14548800  0.89845600  1
  P  P3  1  0.11174100  0.85557200  0.39636100  1
  P  P4  1  0.40211500  0.85451200  0.10154400  1
  P  P5  1  0.25221000  0.78908500  0.75642000  1
  P  P6  1  0.74861000  0.70996300  0.74413900  1
  P  P7  1  0.59849300  0.64498800  0.40106600  1
  P  P8  1  0.88819200  0.64437000  0.10599600  1
  P  P9  1  0.09849300  0.35501200  0.59893400  1
  P  P10  1  0.38819200  0.35563000  0.89400400  1
  P  P11  1  0.24861000  0.29003700  0.25586100  1
  O  O0  1  0.13482300  0.20036600  0.18441600  1
  O  O1  1  0.32702300  0.18691200  0.34325800  1
  O  O2  1  0.40483200  0.18019000  0.91460800  1
  O  O3  1  0.10562900  0.17591900  0.59637000  1
  O  O4  1  0.64196500  0.13439600  0.32546100  1
  O  O5  1  0.58569600  0.10131400  0.72244100  1
  O  O6  1  0.77879800  0.09999300  0.56924400  1
  O  O7  1  0.02445300  0.09938300  0.98687900  1
  O  O8  1  0.73993600  0.09190000  0.93634200  1
  O  O9  1  0.83390300  0.08348400  0.17999500  1
  O  O10  1  0.94956700  0.07962100  0.79103700  1
  O  O11  1  0.49180600  0.05673400  0.53310100  1
  O  O12  1  0.99180600  0.94326600  0.46689900  1
  O  O13  1  0.44956700  0.92037900  0.20896300  1
  O  O14  1  0.33390300  0.91651600  0.82000500  1
  O  O15  1  0.23993600  0.90810000  0.06365800  1
  O  O16  1  0.27879800  0.90000700  0.43075600  1
  O  O17  1  0.52445300  0.90061700  0.01312100  1
  O  O18  1  0.08569600  0.89868600  0.27755900  1
  O  O19  1  0.14196500  0.86560400  0.67453900  1
  O  O20  1  0.60562900  0.82408100  0.40363000  1
  O  O21  1  0.90483200  0.81981000  0.08539200  1
  O  O22  1  0.82702300  0.81308800  0.65674200  1
  O  O23  1  0.63482300  0.79963400  0.81558400  1
  O  O24  1  0.36482300  0.69960700  0.68509000  1
  O  O25  1  0.17287700  0.68702000  0.84487100  1
  O  O26  1  0.09509200  0.68103600  0.41643000  1
  O  O27  1  0.39403100  0.67512300  0.09845600  1
  O  O28  1  0.85868200  0.63687000  0.82843900  1
  O  O29  1  0.90963000  0.60489100  0.22592500  1
  O  O30  1  0.47586000  0.60130300  0.48976700  1
  O  O31  1  0.72058700  0.59967800  0.07014200  1
  O  O32  1  0.76134300  0.59314700  0.43869400  1
  O  O33  1  0.66618600  0.58257100  0.68060100  1
  O  O34  1  0.54944200  0.57956200  0.29514600  1
  O  O35  1  0.00936800  0.55613700  0.03973200  1
  O  O36  1  0.50936800  0.44386300  0.96026800  1
  O  O37  1  0.04944200  0.42043800  0.70485400  1
  O  O38  1  0.16618600  0.41742900  0.31939900  1
  O  O39  1  0.26134300  0.40685300  0.56130600  1
  O  O40  1  0.97586000  0.39869700  0.51023300  1
  O  O41  1  0.22058700  0.40032200  0.92985800  1
  O  O42  1  0.40963000  0.39510900  0.77407500  1
  O  O43  1  0.35868200  0.36313000  0.17156100  1
  O  O44  1  0.89403100  0.32487700  0.90154400  1
  O  O45  1  0.59509200  0.31896400  0.58357000  1
  O  O46  1  0.67287700  0.31298000  0.15512900  1
  O  O47  1  0.86482300  0.30039300  0.31491000  1
loop_
_geom_bond_atom_site_label_1
_geom_bond_atom_site_label_2
_geom_bond_distance
_geom_bond_site_symmetry_2
Li0 O6 1.952238 1_555
Li0 O47 1.986688 1_555
Li0 O12 2.161030 1_545
Li0 O40 2.216333 1_555
Li1 O11 1.983397 1_555
Li1 O3 1.983500 1_555
Li1 O1 2.063715 1_555
Li1 O39 2.216390 1_555
Li1 O16 2.540030 1_545
Li2 O14 1.963621 1_545
Li2 O7 1.981990 1_555
Li2 O2 1.984732 1_555
Li2 O15 2.006202 1_546
Li3 O9 1.963621 1_565
Li3 O17 1.981990 1_555
Li3 O21 1.984732 1_555
Li3 O8 2.006202 1_564
Li4 O12 1.983397 1_555
Li4 O20 1.983500 1_555
Li4 O22 2.063715 1_555
Li4 O32 2.216390 1_555
Li4 O6 2.540030 1_565
Li5 O16 1.952238 1_555
Li5 O24 1.986688 1_555
Li5 O11 2.161030 1_565
Li5 O30 2.216333 1_555
Li6 O31 1.949701 1_556
Li6 O23 1.998917 1_555
Li6 O36 2.115521 1_555
Li6 O17 2.263955 1_556
Li7 O35 1.970253 1_555
Li7 O27 1.996978 1_555
Li7 O25 2.052891 1_554
Li7 O15 2.264255 1_555
Li7 O41 2.517046 1_554
Li8 O38 1.968283 1_555
Li8 O39 1.990185 1_555
Li8 O26 1.992619 1_555
Li8 O30 1.995476 1_555
Li9 O33 1.968283 1_555
Li9 O32 1.990185 1_555
Li9 O45 1.992619 1_555
Li9 O40 1.995476 1_555
Li10 O36 1.970253 1_555
Li10 O44 1.996978 1_555
Li10 O46 2.052891 1_556
Li10 O8 2.264255 1_555
Li10 O31 2.517046 1_556
Li11 O41 1.949701 1_554
Li11 O0 1.998917 1_555
Li11 O35 2.115521 1_555
Li11 O7 2.263955 1_554
Mn0 O28 1.939763 1_455
Mn0 O25 2.001508 1_555
Mn0 O37 2.024272 1_555
Mn0 O44 2.054494 1_455
Mn0 O41 2.067717 1_555
Mn0 O35 2.330904 1_556
Mn1 O43 1.939763 1_555
Mn1 O46 2.001508 1_555
Mn1 O34 2.024272 1_555
Mn1 O27 2.054494 1_555
Mn1 O31 2.067717 1_555
Mn1 O36 2.330904 1_554
O0 P11 1.548330 1_555
O0 V3 2.037594 1_545
O1 P11 1.551569 1_555
O1 V0 2.030249 1_555
O2 P10 1.551953 1_555
O2 V1 2.068800 1_555
O3 P9 1.562381 1_555
O3 V2 2.029530 1_445
O4 P0 1.538945 1_555
O4 V0 1.936219 1_555
O5 P1 1.526246 1_555
O5 V1 1.941563 1_555
O6 P1 1.567186 1_555
O6 V2 2.071652 1_545
O7 P2 1.573931 1_455
O7 V3 2.069807 1_546
O8 P2 1.558033 1_555
O8 V1 2.108822 1_555
O9 P0 1.545059 1_555
O9 V3 2.035739 1_645
O10 P2 1.513027 1_555
O10 V2 2.016558 1_545
O11 P1 1.568236 1_555
O11 V0 2.209952 1_555
O12 P3 1.568236 1_655
O12 V2 2.209952 1_555
O13 P4 1.513027 1_555
O13 V0 2.016558 1_565
O14 P5 1.545059 1_555
O14 V1 2.035739 1_565
O15 P4 1.558033 1_555
O15 V3 2.108822 1_555
O16 P3 1.567186 1_555
O16 V0 2.071652 1_565
O17 P4 1.573931 1_555
O17 V1 2.069807 1_564
O18 P3 1.526246 1_555
O18 V3 1.941563 1_555
O19 P5 1.538945 1_555
O19 V2 1.936219 1_455
O20 P7 1.562381 1_555
O20 V0 2.029530 1_565
O21 P8 1.551953 1_555
O21 V3 2.068800 1_655
O22 P6 1.551569 1_555
O22 V2 2.030249 1_555
O23 P6 1.548330 1_555
O23 V1 2.037594 1_565
O24 P5 1.540103 1_555
O24 V5 2.041652 1_555
O25 P5 1.558890 1_555
O26 P3 1.543264 1_555
O26 V4 2.075266 1_455
O27 P4 1.565564 1_555
O28 P6 1.545426 1_555
O29 P8 1.527274 1_555
O29 V4 1.923848 1_555
O30 P7 1.573064 1_555
O30 V5 2.047965 1_555
O31 P8 1.577236 1_555
O32 P7 1.558003 1_555
O32 V4 2.118979 1_555
O33 P6 1.547457 1_555
O33 V5 2.033211 1_555
O34 P7 1.499061 1_555
O35 P8 1.548778 1_455
O36 P10 1.548778 1_555
O37 P9 1.499061 1_555
O38 P11 1.547457 1_555
O38 V4 2.033211 1_455
O39 P9 1.558003 1_555
O39 V5 2.118979 1_555
O40 P9 1.573064 1_655
O40 V4 2.047965 1_555
O41 P10 1.577236 1_555
O42 P10 1.527274 1_555
O42 V5 1.923848 1_555
O43 P11 1.545426 1_555
O44 P2 1.565564 1_555
O45 P1 1.543264 1_555
O45 V5 2.075266 1_555
O46 P0 1.558890 1_555
O47 P0 1.540103 1_555
O47 V4 2.041652 1_555
