# generated using pymatgen
data_V5BiO10
_symmetry_space_group_name_H-M   'P 1'
_cell_length_a   10.08790454
_cell_length_b   10.18063483
_cell_length_c   10.08935665
_cell_angle_alpha   60.29868653
_cell_angle_beta   90.03465338
_cell_angle_gamma   60.31117315
_symmetry_Int_Tables_number   1
_chemical_formula_structural   V5BiO10
_chemical_formula_sum   'V20 Bi4 O40'
_cell_volume   739.18345576
_cell_formula_units_Z   4
loop_
 _symmetry_equiv_pos_site_id
 _symmetry_equiv_pos_as_xyz
  1  'x, y, z'
loop_
 _atom_site_type_symbol
 _atom_site_label
 _atom_site_symmetry_multiplicity
 _atom_site_fract_x
 _atom_site_fract_y
 _atom_site_fract_z
 _atom_site_occupancy
  V  V0  1  0.04172500  0.20327500  0.56741200  1
  V  V1  1  0.17232400  0.99519800  0.35925300  1
  V  V2  1  0.22805800  0.20405500  0.04089300  1
  V  V3  1  0.03210800  0.59666800  0.84426400  1
  V  V4  1  0.35918400  0.99821600  0.83070900  1
  V  V5  1  0.15444100  0.39812400  0.63057100  1
  V  V6  1  0.44397900  0.40296300  0.96943700  1
  V  V7  1  0.64326600  0.99752500  0.17076300  1
  V  V8  1  0.24099800  0.80186500  0.76928100  1
  V  V9  1  0.36906200  0.59727000  0.55840000  1
  V  V10  1  0.56717600  0.20544500  0.75515900  1
  V  V11  1  0.42969400  0.80082200  0.24251500  1
  V  V12  1  0.82855100  0.00081000  0.64269000  1
  V  V13  1  0.62986100  0.39876200  0.44434700  1
  V  V14  1  0.55764700  0.59717200  0.03117800  1
  V  V15  1  0.75778300  0.20104100  0.22902900  1
  V  V16  1  0.84377200  0.59717500  0.37158800  1
  V  V17  1  0.96809500  0.40405100  0.15281000  1
  V  V18  1  0.77042000  0.79934000  0.95698800  1
  V  V19  1  0.95433100  0.80239800  0.42931200  1
  Bi  Bi0  1  0.40786900  0.17700700  0.40754800  1
  Bi  Bi1  1  0.19196000  0.62077700  0.19142900  1
  Bi  Bi2  1  0.97659800  0.04374400  0.97793400  1
  Bi  Bi3  1  0.62226900  0.75431900  0.62220600  1
  O  O0  1  0.15019000  0.00328500  0.80393300  1
  O  O1  1  0.16475200  0.99849200  0.54340900  1
  O  O2  1  0.19328600  0.00226600  0.15112300  1
  O  O3  1  0.00523200  0.60510900  0.04665500  1
  O  O4  1  0.20845600  0.19503600  0.25240200  1
  O  O5  1  0.24143700  0.19736400  0.86000200  1
  O  O6  1  0.03736200  0.59970000  0.65759000  1
  O  O7  1  0.04595900  0.60440300  0.39224700  1
  O  O8  1  0.25204100  0.19391700  0.59555400  1
  O  O9  1  0.25934300  0.40049500  0.96509000  1
  O  O10  1  0.45693400  0.99900300  0.16610600  1
  O  O11  1  0.05572500  0.80145000  0.76373900  1
  O  O12  1  0.13995200  0.80174800  0.43570500  1
  O  O13  1  0.33986700  0.39869900  0.63666300  1
  O  O14  1  0.54412100  0.99991400  0.83547900  1
  O  O15  1  0.34683600  0.60647100  0.00521800  1
  O  O16  1  0.55357100  0.19490200  0.20885500  1
  O  O17  1  0.35787900  0.60196900  0.74068600  1
  O  O18  1  0.56039400  0.20042800  0.94281700  1
  O  O19  1  0.59467500  0.19603200  0.55284400  1
  O  O20  1  0.38971700  0.60490900  0.34708600  1
  O  O21  1  0.40869200  0.79483200  0.45153600  1
  O  O22  1  0.59576600  0.40035600  0.63891000  1
  O  O23  1  0.80378900  0.00429700  0.84786600  1
  O  O24  1  0.43744100  0.80060800  0.05703700  1
  O  O25  1  0.83657900  0.99909800  0.45843900  1
  O  O26  1  0.63654300  0.39979700  0.25860200  1
  O  O27  1  0.63972300  0.40005100  0.00336200  1
  O  O28  1  0.45030800  0.79632900  0.79482900  1
  O  O29  1  0.84729400  0.00198200  0.19155900  1
  O  O30  1  0.85884600  0.19929500  0.55974700  1
  O  O31  1  0.65719400  0.60036700  0.36140400  1
  O  O32  1  0.74047200  0.60088800  0.03800100  1
  O  O33  1  0.94458400  0.19828800  0.23924600  1
  O  O34  1  0.95993000  0.39836900  0.59770500  1
  O  O35  1  0.75146400  0.79735900  0.40819700  1
  O  O36  1  0.96484300  0.40042000  0.34028700  1
  O  O37  1  0.76184200  0.80079800  0.14182400  1
  O  O38  1  0.00286900  0.40013900  0.95986000  1
  O  O39  1  0.79539400  0.79738800  0.75262500  1
loop_
_geom_bond_atom_site_label_1
_geom_bond_atom_site_label_2
_geom_bond_distance
_geom_bond_site_symmetry_2
Bi0 O4 2.424134 1_555
Bi0 O16 2.473711 1_555
Bi0 O8 2.481524 1_555
Bi0 O19 2.525343 1_555
Bi1 O20 2.428559 1_555
Bi1 O15 2.457890 1_555
Bi1 O7 2.492861 1_555
Bi1 O3 2.496501 1_555
Bi2 O23 2.476979 1_555
Bi2 O29 2.484432 1_556
Bi2 O0 2.514767 1_655
Bi2 O2 2.521846 1_656
Bi3 O35 2.486835 1_555
Bi3 O21 2.487718 1_555
Bi3 O28 2.496483 1_555
Bi3 O39 2.510253 1_555
O0 V0 2.003148 1_555
O0 V8 2.004084 1_545
O0 V4 2.097223 1_545
O1 V1 1.875783 1_555
O1 V8 1.934999 1_555
O1 V0 1.970544 1_565
O2 V11 2.005553 1_545
O2 V2 2.007600 1_555
O2 V1 2.079745 1_545
O3 V18 1.981008 1_454
O3 V17 2.016156 1_455
O3 V3 2.098122 1_554
O4 V1 1.998940 1_545
O4 V17 2.045538 1_455
O4 V2 2.103752 1_555
O5 V2 1.862294 1_556
O5 V4 1.953839 1_545
O5 V5 1.959153 1_555
O6 V3 1.869536 1_555
O6 V5 1.958185 1_555
O6 V19 1.959658 1_455
O7 V19 1.989751 1_455
O7 V5 2.026303 1_555
O7 V16 2.091020 1_455
O8 V4 1.986524 1_545
O8 V5 2.029024 1_555
O8 V0 2.088857 1_555
O9 V6 1.875940 1_555
O9 V3 1.943832 1_555
O9 V2 1.947790 1_556
O10 V7 1.872666 1_555
O10 V11 1.936152 1_555
O10 V2 1.973159 1_565
O11 V8 1.871977 1_555
O11 V12 1.948240 1_465
O11 V3 1.969020 1_555
O12 V19 1.870219 1_455
O12 V1 1.926743 1_555
O12 V9 1.970950 1_555
O13 V5 1.874532 1_555
O13 V10 1.937820 1_555
O13 V9 1.950701 1_555
O14 V4 1.875058 1_555
O14 V18 1.944836 1_555
O14 V10 1.972576 1_565
O15 V8 1.991020 1_554
O15 V6 2.028199 1_554
O15 V14 2.091767 1_555
O16 V7 1.992198 1_545
O16 V6 2.037317 1_554
O16 V15 2.104487 1_555
O17 V9 1.865362 1_555
O17 V6 1.951035 1_555
O17 V8 1.954558 1_555
O18 V10 1.870787 1_555
O18 V7 1.958169 1_546
O18 V6 1.962999 1_555
O19 V12 1.976194 1_555
O19 V13 2.017756 1_555
O19 V10 2.102604 1_555
O20 V11 1.991452 1_555
O20 V13 2.038684 1_555
O20 V9 2.108854 1_555
O21 V1 2.002662 1_555
O21 V9 2.003933 1_555
O21 V11 2.093301 1_555
O22 V10 1.912419 1_555
O22 V9 1.936868 1_555
O22 V13 1.999712 1_555
O23 V10 2.005770 1_555
O23 V18 2.024609 1_545
O23 V12 2.100860 1_555
O24 V11 1.874067 1_555
O24 V4 1.938322 1_554
O24 V14 1.968769 1_555
O25 V12 1.869101 1_565
O25 V19 1.932558 1_555
O25 V15 1.969609 1_565
O26 V13 1.870293 1_555
O26 V14 1.944413 1_555
O26 V15 1.956151 1_555
O27 V14 1.924596 1_555
O27 V15 1.934551 1_555
O27 V6 1.987059 1_554
O28 V14 2.000178 1_556
O28 V4 2.016589 1_555
O28 V8 2.096452 1_555
O29 V15 2.003026 1_555
O29 V19 2.010521 1_545
O29 V7 2.093742 1_545
O30 V0 1.867654 1_655
O30 V12 1.952760 1_555
O30 V13 1.955108 1_555
O31 V16 1.868178 1_555
O31 V11 1.949878 1_555
O31 V13 1.961574 1_555
O32 V14 1.865270 1_555
O32 V17 1.941286 1_555
O32 V18 1.951851 1_554
O33 V15 1.872719 1_555
O33 V1 1.956927 1_645
O33 V17 1.971560 1_555
O34 V0 1.922918 1_655
O34 V16 1.935454 1_555
O34 V5 1.988409 1_655
O35 V16 2.005859 1_555
O35 V7 2.009655 1_555
O35 V19 2.085783 1_555
O36 V17 1.874109 1_555
O36 V0 1.944016 1_655
O36 V16 1.951337 1_555
O37 V18 1.873987 1_554
O37 V7 1.932379 1_555
O37 V16 1.973002 1_555
O38 V2 1.924138 1_556
O38 V3 1.929509 1_555
O38 V17 1.994559 1_456
O39 V3 2.006051 1_655
O39 V12 2.010319 1_565
O39 V18 2.086033 1_555
