# generated using pymatgen
data_Li3Fe5(NiO6)2
_symmetry_space_group_name_H-M   'P 1'
_cell_length_a   5.12378753
_cell_length_b   5.12378753
_cell_length_c   9.69906190
_cell_angle_alpha   85.61577201
_cell_angle_beta   85.61577201
_cell_angle_gamma   118.74636527
_symmetry_Int_Tables_number   1
_chemical_formula_structural   Li3Fe5(NiO6)2
_chemical_formula_sum   'Li3 Fe5 Ni2 O12'
_cell_volume   220.72222170
_cell_formula_units_Z   1
loop_
 _symmetry_equiv_pos_site_id
 _symmetry_equiv_pos_as_xyz
  1  'x, y, z'
loop_
 _atom_site_type_symbol
 _atom_site_label
 _atom_site_symmetry_multiplicity
 _atom_site_fract_x
 _atom_site_fract_y
 _atom_site_fract_z
 _atom_site_occupancy
  Li  Li0  1  0.67015300  0.85063000  0.74641300  1
  Li  Li1  1  0.14937000  0.32984700  0.25358700  1
  Li  Li2  1  0.08266700  0.91733300  0.50000000  1
  Fe  Fe0  1  0.92112400  0.07887600  0.00000000  1
  Fe  Fe1  1  0.57994000  0.42006000  0.00000000  1
  Fe  Fe2  1  0.42684500  0.57315500  0.50000000  1
  Fe  Fe3  1  0.49650300  0.99634100  0.25431000  1
  Fe  Fe4  1  0.00365900  0.50349700  0.74569000  1
  Ni  Ni0  1  0.74668500  0.25331500  0.50000000  1
  Ni  Ni1  1  0.24467600  0.75532400  0.00000000  1
  O  O0  1  0.85525500  0.34887000  0.12186200  1
  O  O1  1  0.65113000  0.14474500  0.87813800  1
  O  O2  1  0.93183700  0.76580800  0.88006400  1
  O  O3  1  0.72060500  0.53696000  0.60802200  1
  O  O4  1  0.46304000  0.27939500  0.39197800  1
  O  O5  1  0.77198600  0.98357900  0.38587500  1
  O  O6  1  0.54796400  0.73180800  0.11604000  1
  O  O7  1  0.23419200  0.06816300  0.11993600  1
  O  O8  1  0.36966800  0.82159000  0.62203000  1
  O  O9  1  0.26819200  0.45203600  0.88396000  1
  O  O10  1  0.01642100  0.22801400  0.61412400  1
  O  O11  1  0.17841000  0.63033200  0.37797000  1
loop_
_geom_bond_atom_site_label_1
_geom_bond_atom_site_label_2
_geom_bond_distance
_geom_bond_site_symmetry_2
Li0 O8 1.984701 1_555
Li0 O1 2.080719 1_565
Li0 O2 2.099319 1_555
Li0 O10 2.122695 1_665
Li0 O3 2.264489 1_555
Li0 O9 2.304362 1_555
Li1 O11 1.984701 1_555
Li1 O0 2.080719 1_455
Li1 O7 2.099319 1_555
Li1 O5 2.122691 1_445
Li1 O4 2.264489 1_555
Li1 O6 2.304362 1_555
Li2 O3 2.061693 1_455
Li2 O4 2.061693 1_565
Li2 O10 2.146191 1_565
Li2 O5 2.146196 1_455
Li2 O11 2.162219 1_555
Li2 O8 2.162219 1_555
Fe0 O1 2.015630 1_554
Fe0 O0 2.015630 1_555
Fe0 O6 2.044342 1_545
Fe0 O9 2.044342 1_654
Fe0 O7 2.071120 1_655
Fe0 O2 2.071120 1_544
Fe1 O2 2.008584 1_554
Fe1 O7 2.008584 1_555
Fe1 O0 2.050349 1_555
Fe1 O1 2.050349 1_554
Fe1 O9 2.084083 1_554
Fe1 O6 2.084083 1_555
Fe2 O11 1.908679 1_555
Fe2 O8 1.908679 1_555
Fe2 O3 1.969138 1_555
Fe2 O4 1.969138 1_555
Fe2 O10 2.131346 1_555
Fe2 O5 2.131350 1_555
Fe3 O5 1.994086 1_555
Fe3 O11 2.007269 1_555
Fe3 O6 2.067073 1_555
Fe3 O7 2.076211 1_565
Fe3 O0 2.093406 1_565
Fe3 O4 2.101414 1_565
Fe4 O10 1.994092 1_555
Fe4 O8 2.007269 1_555
Fe4 O9 2.067073 1_555
Fe4 O2 2.076211 1_455
Fe4 O1 2.093406 1_455
Fe4 O3 2.101414 1_455
Ni0 O10 1.880539 1_655
Ni0 O5 1.880546 1_545
Ni0 O4 1.904191 1_555
Ni0 O3 1.904191 1_555
Ni0 O8 2.272818 1_545
Ni0 O11 2.272818 1_655
Ni1 O9 2.030481 1_554
Ni1 O6 2.030481 1_555
Ni1 O2 2.069729 1_454
Ni1 O7 2.069729 1_565
Ni1 O0 2.231944 1_455
Ni1 O1 2.231944 1_564
