# generated using pymatgen
data_Li2V3BiO8
_symmetry_space_group_name_H-M   'P 1'
_cell_length_a   8.71215000
_cell_length_b   8.79877885
_cell_length_c   8.80335959
_cell_angle_alpha   89.98981681
_cell_angle_beta   89.94922797
_cell_angle_gamma   89.77499762
_symmetry_Int_Tables_number   1
_chemical_formula_structural   Li2V3BiO8
_chemical_formula_sum   'Li8 V12 Bi4 O32'
_cell_volume   674.82732884
_cell_formula_units_Z   4
loop_
 _symmetry_equiv_pos_site_id
 _symmetry_equiv_pos_as_xyz
  1  'x, y, z'
loop_
 _atom_site_type_symbol
 _atom_site_label
 _atom_site_symmetry_multiplicity
 _atom_site_fract_x
 _atom_site_fract_y
 _atom_site_fract_z
 _atom_site_occupancy
  Li  Li0  1  0.00256700  0.00034100  0.99818600  1
  Li  Li1  1  0.24857800  0.75010300  0.25021500  1
  Li  Li2  1  0.74733500  0.24695300  0.25429600  1
  Li  Li3  1  0.50259500  0.00061600  0.49863900  1
  Li  Li4  1  0.99678800  0.50296100  0.50756200  1
  Li  Li5  1  0.75074200  0.74718100  0.74688700  1
  Li  Li6  1  0.25370000  0.25500500  0.75445300  1
  Li  Li7  1  0.49814100  0.49609200  0.99273900  1
  V  V0  1  0.62622600  0.85750800  0.10384100  1
  V  V1  1  0.85266800  0.60237300  0.12594900  1
  V  V2  1  0.10694900  0.37251000  0.14533800  1
  V  V3  1  0.60938300  0.62514500  0.35315200  1
  V  V4  1  0.35663700  0.38745500  0.37546000  1
  V  V5  1  0.12449400  0.14751100  0.39578100  1
  V  V6  1  0.37128200  0.63889500  0.60678600  1
  V  V7  1  0.14621900  0.89648000  0.62138600  1
  V  V8  1  0.89886600  0.12565500  0.64542200  1
  V  V9  1  0.39359200  0.87369500  0.85667500  1
  V  V10  1  0.64173800  0.11089100  0.87302800  1
  V  V11  1  0.87999600  0.36128800  0.88826600  1
  Bi  Bi0  1  0.37423500  0.12091800  0.12103300  1
  Bi  Bi1  1  0.87640800  0.88103200  0.37696900  1
  Bi  Bi2  1  0.62906600  0.37619000  0.62147200  1
  Bi  Bi3  1  0.12547800  0.62934600  0.87998200  1
  O  O0  1  0.40484500  0.86120700  0.09609100  1
  O  O1  1  0.64269800  0.08373400  0.09581600  1
  O  O2  1  0.88570700  0.37652100  0.12229600  1
  O  O3  1  0.84477700  0.83477600  0.10952400  1
  O  O4  1  0.08587900  0.60745100  0.13651200  1
  O  O5  1  0.62397000  0.62667300  0.12980600  1
  O  O6  1  0.32645200  0.39041900  0.14494000  1
  O  O7  1  0.11136600  0.14903000  0.16406100  1
  O  O8  1  0.60949400  0.85087600  0.33360800  1
  O  O9  1  0.82025000  0.60627600  0.36757100  1
  O  O10  1  0.12588000  0.37620000  0.37001800  1
  O  O11  1  0.58598200  0.39210200  0.36023800  1
  O  O12  1  0.36730400  0.17766700  0.39145200  1
  O  O13  1  0.38285600  0.61224700  0.37484100  1
  O  O14  1  0.14003000  0.91736100  0.39551800  1
  O  O15  1  0.88223900  0.13351300  0.41681500  1
  O  O16  1  0.59327000  0.63983400  0.58702600  1
  O  O17  1  0.35726700  0.41737800  0.60135300  1
  O  O18  1  0.12714700  0.12204300  0.62238100  1
  O  O19  1  0.15504200  0.66339900  0.60583000  1
  O  O20  1  0.92743500  0.88327700  0.63707800  1
  O  O21  1  0.36350500  0.87233500  0.62190800  1
  O  O22  1  0.66168000  0.10854500  0.65905500  1
  O  O23  1  0.88977800  0.36428900  0.66403800  1
  O  O24  1  0.38740700  0.64359500  0.83213000  1
  O  O25  1  0.16380300  0.88954500  0.85476100  1
  O  O26  1  0.87429300  0.13789700  0.87348000  1
  O  O27  1  0.41442600  0.10800700  0.86624300  1
  O  O28  1  0.64565300  0.33315300  0.88887400  1
  O  O29  1  0.62414100  0.87927300  0.87892900  1
  O  O30  1  0.85675300  0.57398100  0.88855500  1
  O  O31  1  0.10512800  0.36111200  0.91573200  1
loop_
_geom_bond_atom_site_label_1
_geom_bond_atom_site_label_2
_geom_bond_distance
_geom_bond_site_symmetry_2
Li0 O26 1.977397 1_455
Li0 O25 2.122343 1_545
Li0 O7 2.180662 1_556
Li0 O3 2.232818 1_446
Li1 O13 2.008526 1_555
Li1 O4 2.145576 1_555
Li1 O0 2.157955 1_555
Li1 O14 2.164245 1_555
Li2 O2 2.027597 1_555
Li2 O15 2.101858 1_555
Li2 O11 2.112103 1_555
Li2 O1 2.203001 1_555
Li3 O21 1.981915 1_545
Li3 O12 2.166457 1_555
Li3 O8 2.168546 1_545
Li3 O22 2.198029 1_555
Li4 O10 1.990788 1_655
Li4 O23 2.064345 1_555
Li4 O19 2.158679 1_655
Li4 O9 2.168561 1_555
Li5 O29 1.976538 1_555
Li5 O30 2.172816 1_555
Li5 O20 2.179346 1_555
Li5 O16 2.183779 1_555
Li6 O18 1.987207 1_555
Li6 O31 2.133214 1_555
Li6 O27 2.142409 1_555
Li6 O17 2.163123 1_555
Li7 O5 1.997642 1_556
Li7 O28 2.127666 1_555
Li7 O24 2.146195 1_555
Li7 O6 2.214516 1_556
Bi0 O27 2.272660 1_554
Bi0 O0 2.310083 1_545
Bi0 O7 2.333135 1_555
Bi0 O1 2.370617 1_555
Bi0 O6 2.415125 1_555
Bi0 O12 2.433133 1_555
Bi1 O15 2.249887 1_565
Bi1 O14 2.325981 1_655
Bi1 O20 2.333076 1_555
Bi1 O8 2.372769 1_555
Bi1 O3 2.405665 1_555
Bi1 O9 2.469826 1_555
Bi2 O23 2.304364 1_555
Bi2 O11 2.334584 1_555
Bi2 O16 2.358954 1_555
Bi2 O28 2.388643 1_555
Bi2 O22 2.393871 1_555
Bi2 O17 2.400811 1_555
Bi3 O4 2.292413 1_556
Bi3 O24 2.324019 1_555
Bi3 O25 2.325506 1_555
Bi3 O31 2.388227 1_555
Bi3 O30 2.394311 1_455
Bi3 O19 2.445434 1_555
O0 V0 1.930118 1_555
O0 V9 2.112850 1_554
O1 V10 1.975764 1_554
O1 V0 1.997474 1_545
O2 V2 1.938499 1_655
O2 V1 2.007100 1_555
O2 V11 2.065285 1_554
O3 V0 1.914441 1_555
O3 V1 2.050830 1_555
O4 V1 2.034645 1_455
O4 V2 2.076057 1_555
O5 V3 1.970232 1_555
O5 V1 2.003314 1_555
O5 V0 2.044017 1_555
O6 V2 1.919441 1_555
O6 V4 2.046698 1_555
O7 V2 1.973445 1_555
O7 V5 2.043258 1_555
O8 V3 1.993569 1_555
O8 V0 2.028684 1_555
O9 V3 1.848416 1_555
O9 V1 2.145769 1_555
O10 V2 1.985231 1_555
O10 V4 2.013828 1_555
O10 V5 2.024967 1_555
O11 V4 2.003035 1_555
O11 V3 2.062328 1_555
O12 V4 1.853188 1_555
O12 V5 2.133313 1_555
O13 V3 1.986270 1_555
O13 V4 1.991938 1_555
O13 V6 2.057693 1_555
O14 V7 1.997591 1_555
O14 V5 2.029028 1_565
O15 V8 2.018997 1_555
O15 V5 2.122562 1_655
O16 V6 1.941696 1_555
O16 V3 2.067565 1_555
O17 V6 1.953975 1_555
O17 V4 2.006032 1_555
O18 V7 1.990992 1_545
O18 V8 1.999085 1_455
O18 V5 2.007492 1_555
O19 V6 1.895397 1_555
O19 V7 2.056551 1_555
O20 V7 1.914937 1_655
O20 V8 2.147397 1_565
O21 V7 1.904092 1_555
O21 V6 2.059166 1_555
O21 V9 2.083567 1_555
O22 V10 1.891632 1_555
O22 V8 2.075831 1_555
O23 V11 1.975899 1_555
O23 V8 2.107275 1_555
O24 V6 1.989325 1_555
O24 V9 2.037063 1_555
O25 V9 2.006347 1_555
O25 V7 2.061198 1_555
O26 V11 1.970720 1_555
O26 V8 2.021715 1_555
O26 V10 2.040875 1_555
O27 V10 1.981592 1_555
O27 V9 2.072078 1_545
O28 V10 1.961060 1_555
O28 V11 2.057552 1_555
O29 V0 1.989279 1_556
O29 V9 2.019071 1_555
O29 V10 2.044961 1_565
O30 V11 1.881573 1_555
O30 V1 2.105040 1_556
O31 V11 1.976438 1_455
O31 V2 2.023888 1_556
