# generated using pymatgen
data_TeINO10
_symmetry_space_group_name_H-M   'P 1'
_cell_length_a   6.51011500
_cell_length_b   7.53294959
_cell_length_c   12.31354462
_cell_angle_alpha   80.86691947
_cell_angle_beta   86.49807430
_cell_angle_gamma   72.61429271
_symmetry_Int_Tables_number   1
_chemical_formula_structural   TeINO10
_chemical_formula_sum   'Te2 I2 N2 O20'
_cell_volume   568.90777285
_cell_formula_units_Z   2
loop_
 _symmetry_equiv_pos_site_id
 _symmetry_equiv_pos_as_xyz
  1  'x, y, z'
loop_
 _atom_site_type_symbol
 _atom_site_label
 _atom_site_symmetry_multiplicity
 _atom_site_fract_x
 _atom_site_fract_y
 _atom_site_fract_z
 _atom_site_occupancy
  Te  Te0  1  0.74895800  0.67613800  0.25412400  1
  Te  Te1  1  0.25104200  0.32386200  0.74587600  1
  I  I0  1  0.78487800  0.62743100  0.78866900  1
  I  I1  1  0.21512200  0.37256900  0.21133100  1
  N  N0  1  0.63642300  0.21307100  0.94766400  1
  N  N1  1  0.36357700  0.78692900  0.05233600  1
  O  O0  1  0.84033600  0.41001700  0.24975500  1
  O  O1  1  0.15966400  0.58998300  0.75024500  1
  O  O2  1  0.76022200  0.41587900  0.54481600  1
  O  O3  1  0.23977800  0.58412100  0.45518400  1
  O  O4  1  0.60818600  0.75147800  0.37752500  1
  O  O5  1  0.39181400  0.24852200  0.62247500  1
  O  O6  1  0.37440700  0.48503100  0.39846300  1
  O  O7  1  0.62559300  0.51496900  0.60153700  1
  O  O8  1  0.01971800  0.70874100  0.23873700  1
  O  O9  1  0.98028200  0.29125900  0.76126300  1
  O  O10  1  0.60654300  0.78111900  0.11891200  1
  O  O11  1  0.39345700  0.21888100  0.88108800  1
  O  O12  1  0.21867700  0.90092800  0.07777200  1
  O  O13  1  0.78132300  0.09907200  0.92222800  1
  O  O14  1  0.20583800  0.47888000  0.07011300  1
  O  O15  1  0.79416200  0.52112000  0.92988700  1
  O  O16  1  0.42032100  0.15083300  0.20621200  1
  O  O17  1  0.57967900  0.84916700  0.79378800  1
  O  O18  1  0.08355200  0.01264400  0.47862000  1
  O  O19  1  0.91644800  0.98735600  0.52138000  1
loop_
_geom_bond_atom_site_label_1
_geom_bond_atom_site_label_2
_geom_bond_distance
_geom_bond_site_symmetry_2
I0 O15 1.791808 1_555
I0 O17 1.807813 1_555
I0 O1 2.397200 1_655
I0 O9 2.537462 1_555
I1 O14 1.791808 1_555
I1 O16 1.807813 1_555
I1 O0 2.397200 1_455
I1 O8 2.537462 1_555
N0 O13 1.136037 1_555
N0 O11 1.811492 1_555
N1 O12 1.136037 1_555
N1 O10 1.811492 1_555
O0 Te0 1.921760 1_555
O1 Te1 1.921760 1_555
O2 O7 1.230003 1_555
O3 O6 1.230003 1_555
O4 Te0 1.806565 1_555
O5 Te1 1.806565 1_555
O8 Te0 1.845641 1_455
O9 Te1 1.845641 1_655
O10 Te0 1.894579 1_555
O11 Te1 1.894579 1_555
O18 O19 1.232477 1_445
