# generated using pymatgen
data_Cd9(InSe2)20
_symmetry_space_group_name_H-M   'P 1'
_cell_length_a   12.62817700
_cell_length_b   13.57287137
_cell_length_c   14.08600410
_cell_angle_alpha   62.16757503
_cell_angle_beta   64.88915113
_cell_angle_gamma   71.66470334
_symmetry_Int_Tables_number   1
_chemical_formula_structural   Cd9(InSe2)20
_chemical_formula_sum   'Cd9 In20 Se40'
_cell_volume   1912.71272508
_cell_formula_units_Z   1
loop_
 _symmetry_equiv_pos_site_id
 _symmetry_equiv_pos_as_xyz
  1  'x, y, z'
loop_
 _atom_site_type_symbol
 _atom_site_label
 _atom_site_symmetry_multiplicity
 _atom_site_fract_x
 _atom_site_fract_y
 _atom_site_fract_z
 _atom_site_occupancy
  Cd  Cd0  1  0.29250700  0.90806900  0.48454800  1
  Cd  Cd1  1  0.49135900  0.70513700  0.08100100  1
  Cd  Cd2  1  0.69659200  0.50442200  0.68331700  1
  Cd  Cd3  1  0.84178900  0.84517900  0.14932600  1
  Cd  Cd4  1  0.88950700  0.30433300  0.27890300  1
  Cd  Cd5  1  0.04199500  0.64845500  0.74771400  1
  Cd  Cd6  1  0.24224800  0.44615300  0.34892400  1
  Cd  Cd7  1  0.44260200  0.24475100  0.94964400  1
  Cd  Cd8  1  0.64048600  0.04742500  0.54828300  1
  In  In0  1  0.09613700  0.89676900  0.79518700  1
  In  In1  1  0.28150200  0.68674800  0.38745300  1
  In  In2  1  0.53758400  0.94638100  0.13911300  1
  In  In3  1  0.48133800  0.48695000  0.98946300  1
  In  In4  1  0.73545700  0.74654300  0.74209500  1
  In  In5  1  0.96811300  0.99890300  0.49314400  1
  In  In6  1  0.62826900  0.84895700  0.44148800  1
  In  In7  1  0.68247200  0.28736000  0.58818100  1
  In  In8  1  0.93411200  0.54179600  0.34029600  1
  In  In9  1  0.17230700  0.80432400  0.08941300  1
  In  In10  1  0.83256900  0.64711400  0.04227100  1
  In  In11  1  0.88776800  0.08569400  0.18442300  1
  In  In12  1  0.13794000  0.33671600  0.93230900  1
  In  In13  1  0.37160600  0.60006700  0.69315700  1
  In  In14  1  0.03559800  0.43939300  0.63791100  1
  In  In15  1  0.32414000  0.15037400  0.54176200  1
  In  In16  1  0.56834000  0.39769400  0.29168800  1
  In  In17  1  0.23122700  0.24856400  0.24020900  1
  In  In18  1  0.78981200  0.20164300  0.89711100  1
  In  In19  1  0.42419600  0.05309500  0.83967700  1
  Se  Se0  1  0.67044200  0.00004600  0.22816100  1
  Se  Se1  1  0.32969400  0.83909100  0.17678100  1
  Se  Se2  1  0.89297300  0.98498700  0.92387200  1
  Se  Se3  1  0.24846400  0.92329700  0.87059500  1
  Se  Se4  1  0.52566100  0.84039700  0.85784200  1
  Se  Se5  1  0.87020600  0.79687600  0.82888800  1
  Se  Se6  1  0.53178600  0.63886500  0.77819800  1
  Se  Se7  1  0.45463400  0.94039000  0.58589100  1
  Se  Se8  1  0.80144200  0.86702900  0.51802600  1
  Se  Se9  1  0.11385400  0.79621100  0.52289500  1
  Se  Se10  1  0.44516800  0.72569100  0.47283700  1
  Se  Se11  1  0.73279200  0.63654100  0.46012100  1
  Se  Se12  1  0.07136900  0.59765700  0.42837300  1
  Se  Se13  1  0.98417400  0.86927400  0.24048600  1
  Se  Se14  1  0.73338000  0.43910900  0.37631500  1
  Se  Se15  1  0.65769000  0.73579600  0.18866500  1
  Se  Se16  1  0.00261100  0.66157000  0.11711700  1
  Se  Se17  1  0.30976500  0.59352000  0.12414400  1
  Se  Se18  1  0.64660300  0.52458900  0.07236600  1
  Se  Se19  1  0.93712700  0.43272700  0.05344400  1
  Se  Se20  1  0.27103900  0.39590700  0.02579300  1
  Se  Se21  1  0.18327800  0.67578900  0.83794100  1
  Se  Se22  1  0.92805200  0.24385500  0.97855200  1
  Se  Se23  1  0.86243700  0.53653700  0.78098400  1
  Se  Se24  1  0.20378000  0.46967400  0.71398500  1
  Se  Se25  1  0.51384000  0.39510900  0.72394900  1
  Se  Se26  1  0.84856400  0.32109100  0.67434300  1
  Se  Se27  1  0.13836600  0.22457100  0.68847500  1
  Se  Se28  1  0.47206200  0.20054200  0.62565700  1
  Se  Se29  1  0.38670000  0.47272800  0.44020600  1
  Se  Se30  1  0.12694600  0.04129100  0.58088000  1
  Se  Se31  1  0.06030300  0.33338700  0.38973300  1
  Se  Se32  1  0.40293000  0.26498100  0.31769800  1
  Se  Se33  1  0.71050400  0.19336100  0.32249800  1
  Se  Se34  1  0.04424600  0.12299500  0.27280200  1
  Se  Se35  1  0.33184300  0.03600600  0.26038800  1
  Se  Se36  1  0.58662600  0.27318400  0.03761000  1
  Se  Se37  1  0.25811800  0.13111400  0.99243800  1
  Se  Se38  1  0.60140900  0.06723000  0.91710600  1
  Se  Se39  1  0.78444900  0.07287400  0.64103100  1
loop_
_geom_bond_atom_site_label_1
_geom_bond_atom_site_label_2
_geom_bond_distance
_geom_bond_site_symmetry_2
Cd0 Se10 2.642023 1_555
Cd0 Se30 2.643254 1_565
Cd0 Se35 2.706224 1_565
Cd0 Se9 2.835762 1_555
Cd0 Se7 3.170551 1_555
Cd1 Se1 2.628917 1_555
Cd1 Se18 2.629969 1_555
Cd1 Se4 2.719386 1_554
Cd1 Se17 2.840150 1_555
Cd1 Se15 3.275343 1_555
Cd2 Se26 2.640861 1_555
Cd2 Se6 2.640942 1_555
Cd2 Se11 2.709335 1_555
Cd2 Se25 2.845214 1_555
Cd2 Se23 3.169948 1_555
Cd3 Se2 2.739765 1_554
Cd3 Se0 2.759019 1_565
Cd3 Se16 2.762317 1_655
Cd3 Se13 2.776791 1_555
Cd3 Se15 2.868106 1_555
Cd4 Se14 2.625813 1_555
Cd4 Se34 2.629206 1_655
Cd4 Se19 2.711986 1_555
Cd4 Se33 2.802824 1_555
Cd5 Se5 2.714377 1_455
Cd5 Se24 2.724264 1_555
Cd5 Se9 2.765794 1_555
Cd5 Se21 2.778021 1_555
Cd5 Se23 2.875599 1_455
Cd6 Se12 2.728537 1_555
Cd6 Se32 2.733276 1_555
Cd6 Se17 2.760593 1_555
Cd6 Se29 2.819350 1_555
Cd6 Se31 2.867429 1_555
Cd7 Se38 2.692281 1_555
Cd7 Se20 2.709156 1_556
Cd7 Se25 2.783963 1_555
Cd7 Se36 2.791597 1_556
Cd7 Se37 2.893170 1_555
Cd8 Se28 2.719781 1_555
Cd8 Se8 2.723266 1_545
Cd8 Se33 2.766394 1_555
Cd8 Se39 2.821973 1_555
Cd8 Se7 2.875892 1_545
In0 Se30 2.658175 1_565
In0 Se21 2.714567 1_555
In0 Se2 2.729198 1_455
In0 Se3 2.735924 1_555
In1 Se1 2.642219 1_555
In1 Se29 2.673865 1_555
In1 Se9 2.751186 1_555
In1 Se12 2.984265 1_555
In1 Se10 3.064036 1_555
In2 Se38 2.649947 1_564
In2 Se15 2.695426 1_555
In2 Se35 2.708004 1_565
In2 Se0 2.885635 1_565
In2 Se1 3.129810 1_555
In3 Se6 2.645929 1_555
In3 Se36 2.673354 1_556
In3 Se17 2.736356 1_556
In3 Se20 3.026929 1_556
In3 Se18 3.045750 1_556
In4 Se8 2.671322 1_555
In4 Se23 2.721751 1_555
In4 Se4 2.729447 1_555
In4 Se5 2.852002 1_555
In4 Se6 3.093633 1_555
In5 Se34 2.645583 1_665
In5 Se39 2.667211 1_565
In5 Se9 2.742982 1_655
In5 Se8 2.985785 1_555
In5 Se30 3.061909 1_665
In6 Se0 2.663334 1_565
In6 Se11 2.704911 1_555
In6 Se7 2.710176 1_555
In6 Se8 2.930928 1_555
In6 Se10 3.036119 1_555
In7 Se14 2.650822 1_555
In7 Se39 2.668128 1_555
In7 Se25 2.743485 1_555
In7 Se28 2.987632 1_555
In7 Se26 3.060303 1_555
In8 Se16 2.660537 1_655
In8 Se31 2.700443 1_655
In8 Se11 2.700695 1_555
In8 Se12 2.940879 1_655
In8 Se14 3.016043 1_555
In9 Se3 2.616565 1_554
In9 Se13 2.663264 1_455
In9 Se17 2.779922 1_555
In9 Se1 2.982576 1_555
In9 Se16 3.113723 1_555
In10 Se5 2.661265 1_554
In10 Se15 2.712621 1_555
In10 Se19 2.750790 1_555
In10 Se16 2.853188 1_655
In10 Se18 3.068265 1_555
In11 Se22 2.626514 1_554
In11 Se13 2.671010 1_545
In11 Se33 2.798196 1_555
In11 Se34 3.002775 1_655
In11 Se0 3.027581 1_555
In12 Se24 2.645201 1_555
In12 Se37 2.650934 1_555
In12 Se19 2.713875 1_456
In12 Se22 2.984607 1_455
In12 Se20 2.986716 1_556
In13 Se10 2.647647 1_555
In13 Se21 2.678507 1_555
In13 Se25 2.746625 1_555
In13 Se24 3.009510 1_555
In13 Se6 3.019876 1_555
In14 Se12 2.662440 1_555
In14 Se27 2.675393 1_555
In14 Se23 2.740196 1_455
In14 Se24 2.952950 1_555
In14 Se26 3.001343 1_455
In15 Se32 2.663665 1_555
In15 Se27 2.670345 1_555
In15 Se7 2.735898 1_545
In15 Se28 2.962225 1_555
In15 Se30 3.014973 1_555
In16 Se18 2.645444 1_555
In16 Se29 2.668731 1_555
In16 Se33 2.740043 1_555
In16 Se32 2.973813 1_555
In16 Se14 3.090647 1_555
In17 Se20 2.660436 1_555
In17 Se35 2.693151 1_555
In17 Se31 2.694955 1_555
In17 Se32 2.912451 1_555
In17 Se34 3.093884 1_555
In18 Se26 2.656274 1_555
In18 Se36 2.712976 1_556
In18 Se2 2.730952 1_545
In18 Se22 2.763069 1_555
In18 Se38 3.278795 1_555
In19 Se28 2.653226 1_555
In19 Se37 2.655232 1_555
In19 Se4 2.702366 1_545
In19 Se38 2.961681 1_555
In19 Se3 3.023427 1_545
