# generated using pymatgen
data_Li24Mn5Cr7O36
_symmetry_space_group_name_H-M   'P 1'
_cell_length_a   5.03296800
_cell_length_b   9.76438721
_cell_length_c   13.28283238
_cell_angle_alpha   97.00743309
_cell_angle_beta   100.57241151
_cell_angle_gamma   94.96458044
_symmetry_Int_Tables_number   1
_chemical_formula_structural   Li24Mn5Cr7O36
_chemical_formula_sum   'Li24 Mn5 Cr7 O36'
_cell_volume   632.91344034
_cell_formula_units_Z   1
loop_
 _symmetry_equiv_pos_site_id
 _symmetry_equiv_pos_as_xyz
  1  'x, y, z'
loop_
 _atom_site_type_symbol
 _atom_site_label
 _atom_site_symmetry_multiplicity
 _atom_site_fract_x
 _atom_site_fract_y
 _atom_site_fract_z
 _atom_site_occupancy
  Li  Li0  1  0.16357900  0.00027400  0.83338200  1
  Li  Li1  1  0.04676900  0.00079400  0.61279300  1
  Li  Li2  1  0.00144800  0.75053300  0.25083200  1
  Li  Li3  1  0.33473600  0.75062100  0.91643100  1
  Li  Li4  1  0.04874700  0.49764400  0.11235900  1
  Li  Li5  1  0.38203800  0.50029400  0.78111500  1
  Li  Li6  1  0.16490900  0.50019800  0.33287000  1
  Li  Li7  1  0.49483800  0.50030300  0.99911900  1
  Li  Li8  1  0.27988400  0.49932000  0.55254300  1
  Li  Li9  1  0.32956800  0.25054200  0.41635100  1
  Li  Li10  1  0.49921300  0.99998700  0.50035900  1
  Li  Li11  1  0.28923400  0.00214100  0.05493000  1
  Li  Li12  1  0.62158700  0.99971800  0.72092800  1
  Li  Li13  1  0.37938100  0.00057600  0.27853100  1
  Li  Li14  1  0.71507000  0.99851100  0.94607800  1
  Li  Li15  1  0.66905300  0.74972900  0.58401200  1
  Li  Li16  1  0.72273900  0.50088400  0.44791700  1
  Li  Li17  1  0.83341200  0.49983200  0.66695600  1
  Li  Li18  1  0.62065000  0.50038900  0.21966700  1
  Li  Li19  1  0.95148600  0.50108900  0.88680600  1
  Li  Li20  1  0.66705400  0.24989000  0.08464300  1
  Li  Li21  1  0.83073400  0.00072000  0.16609400  1
  Li  Li22  1  0.99972400  0.25027800  0.75055000  1
  Li  Li23  1  0.95369400  0.99939400  0.38679300  1
  Mn  Mn0  1  0.11371400  0.25083900  0.97252800  1
  Mn  Mn1  1  0.10871200  0.74868000  0.47173700  1
  Mn  Mn2  1  0.22029900  0.24831900  0.19290200  1
  Mn  Mn3  1  0.77707600  0.74968300  0.80628900  1
  Mn  Mn4  1  0.88832900  0.25020600  0.52782900  1
  Cr  Cr0  1  0.22789900  0.75047000  0.69340800  1
  Cr  Cr1  1  0.43650400  0.24788400  0.63849200  1
  Cr  Cr2  1  0.56413200  0.25212100  0.86362900  1
  Cr  Cr3  1  0.44950100  0.75179800  0.13901400  1
  Cr  Cr4  1  0.55586500  0.74871900  0.36288600  1
  Cr  Cr5  1  0.77095300  0.25052400  0.30645800  1
  Cr  Cr6  1  0.89682400  0.75047100  0.02887300  1
  O  O0  1  0.99579300  0.86099000  0.92841400  1
  O  O1  1  0.06740100  0.63602200  0.78445900  1
  O  O2  1  0.00386800  0.36278100  0.43081600  1
  O  O3  1  0.14091300  0.36139500  0.64218400  1
  O  O4  1  0.25893400  0.36508700  0.88241300  1
  O  O5  1  0.33056400  0.86160500  0.59543800  1
  O  O6  1  0.06853300  0.13655200  0.28426700  1
  O  O7  1  0.18726900  0.13811000  0.52256700  1
  O  O8  1  0.40144000  0.13706700  0.94967800  1
  O  O9  1  0.14213400  0.86234700  0.14160700  1
  O  O10  1  0.26055400  0.86453200  0.38201800  1
  O  O11  1  0.48195500  0.86270000  0.81106000  1
  O  O12  1  0.33941500  0.13700700  0.73639000  1
  O  O13  1  0.19280200  0.63707600  0.02624000  1
  O  O14  1  0.40298000  0.63629400  0.45193900  1
  O  O15  1  0.51857400  0.63852700  0.69115300  1
  O  O16  1  0.33760300  0.63788200  0.23992700  1
  O  O17  1  0.66358200  0.63737000  0.90335300  1
  O  O18  1  0.33548100  0.36130000  0.09529500  1
  O  O19  1  0.66203600  0.36253700  0.76400100  1
  O  O20  1  0.48001300  0.36115600  0.30783600  1
  O  O21  1  0.59795800  0.36300500  0.54958200  1
  O  O22  1  0.81106300  0.36147600  0.97652100  1
  O  O23  1  0.66224800  0.86263900  0.26209400  1
  O  O24  1  0.51642700  0.13702500  0.18823500  1
  O  O25  1  0.73935600  0.13483800  0.61770800  1
  O  O26  1  0.86270000  0.13815700  0.85853200  1
  O  O27  1  0.59407800  0.86560800  0.04837200  1
  O  O28  1  0.81034900  0.86092300  0.47516800  1
  O  O29  1  0.93165800  0.86342700  0.71522400  1
  O  O30  1  0.66992600  0.13847400  0.40371600  1
  O  O31  1  0.73480300  0.63556500  0.11511600  1
  O  O32  1  0.86293400  0.63772400  0.35692100  1
  O  O33  1  0.99570000  0.63716000  0.56927800  1
  O  O34  1  0.93169000  0.36357300  0.21526200  1
  O  O35  1  0.99790700  0.13869500  0.07111700  1
loop_
_geom_bond_atom_site_label_1
_geom_bond_atom_site_label_2
_geom_bond_distance
_geom_bond_site_symmetry_2
Li0 O8 2.035847 1_555
Li0 O29 2.038949 1_445
Li0 O26 2.155494 1_455
Li0 O0 2.183443 1_445
Li0 O12 2.204331 1_555
Li0 O11 2.215798 1_545
Li1 O7 2.067137 1_555
Li1 O5 2.078649 1_545
Li1 O25 2.116108 1_455
Li1 O29 2.141481 1_445
Li1 O12 2.207816 1_555
Li1 O28 2.221318 1_445
Li2 O32 2.071564 1_455
Li2 O10 2.101826 1_555
Li2 O9 2.104258 1_555
Li2 O16 2.113396 1_555
Li2 O23 2.124219 1_455
Li2 O31 2.160704 1_455
Li3 O11 2.078357 1_555
Li3 O17 2.089903 1_555
Li3 O27 2.112480 1_556
Li3 O0 2.114894 1_455
Li3 O13 2.122918 1_556
Li3 O1 2.128534 1_555
Li4 O13 2.049698 1_555
Li4 O18 2.070100 1_555
Li4 O34 2.127852 1_455
Li4 O31 2.165433 1_455
Li4 O22 2.191282 1_454
Li4 O16 2.246146 1_555
Li5 O19 2.053762 1_555
Li5 O15 2.063082 1_555
Li5 O4 2.129565 1_555
Li5 O1 2.154238 1_555
Li5 O17 2.175519 1_555
Li5 O3 2.236143 1_555
Li6 O34 2.036041 1_455
Li6 O14 2.054073 1_555
Li6 O32 2.154517 1_455
Li6 O16 2.164124 1_555
Li6 O2 2.185085 1_555
Li6 O20 2.219221 1_555
Li7 O4 2.027275 1_555
Li7 O31 2.030153 1_556
Li7 O13 2.158497 1_556
Li7 O18 2.174417 1_556
Li7 O17 2.178468 1_555
Li7 O22 2.215877 1_555
Li8 O3 2.062649 1_555
Li8 O33 2.069663 1_455
Li8 O14 2.134205 1_555
Li8 O2 2.156579 1_555
Li8 O21 2.171420 1_555
Li8 O15 2.230623 1_555
Li9 O2 2.073704 1_555
Li9 O7 2.078766 1_555
Li9 O20 2.110994 1_555
Li9 O6 2.113668 1_555
Li9 O30 2.131933 1_555
Li9 O21 2.134063 1_555
Li10 O25 2.038790 1_565
Li10 O10 2.046443 1_555
Li10 O5 2.180011 1_555
Li10 O7 2.193227 1_565
Li10 O30 2.200413 1_565
Li10 O28 2.203949 1_555
Li11 O9 2.063542 1_545
Li11 O35 2.087598 1_455
Li11 O27 2.124529 1_545
Li11 O24 2.145870 1_555
Li11 O8 2.149309 1_554
Li11 O0 2.253137 1_444
Li12 O12 2.055592 1_565
Li12 O11 2.062517 1_555
Li12 O25 2.139174 1_565
Li12 O29 2.142523 1_555
Li12 O26 2.222603 1_565
Li12 O5 2.226257 1_555
Li13 O24 2.055197 1_555
Li13 O23 2.064637 1_545
Li13 O6 2.143561 1_555
Li13 O10 2.149769 1_545
Li13 O9 2.209189 1_545
Li13 O30 2.221926 1_555
Li14 O0 2.056095 1_555
Li14 O26 2.071761 1_565
Li14 O27 2.120891 1_556
Li14 O8 2.169292 1_565
Li14 O11 2.174801 1_555
Li14 O35 2.213364 1_566
Li15 O33 2.080279 1_555
Li15 O28 2.097954 1_555
Li15 O15 2.099554 1_555
Li15 O29 2.108457 1_555
Li15 O5 2.120182 1_555
Li15 O14 2.122450 1_555
Li16 O2 2.060447 1_655
Li16 O32 2.070733 1_555
Li16 O33 2.145724 1_555
Li16 O21 2.153830 1_555
Li16 O14 2.173390 1_555
Li16 O20 2.252544 1_555
Li17 O1 2.034534 1_655
Li17 O21 2.039540 1_555
Li17 O3 2.184292 1_655
Li17 O33 2.184578 1_555
Li17 O19 2.198244 1_555
Li17 O15 2.213665 1_555
Li18 O20 2.060824 1_555
Li18 O16 2.070690 1_555
Li18 O31 2.146999 1_555
Li18 O34 2.148318 1_555
Li18 O18 2.208774 1_555
Li18 O32 2.216677 1_555
Li19 O17 2.073148 1_555
Li19 O22 2.077655 1_555
Li19 O1 2.125891 1_655
Li19 O4 2.128657 1_655
Li19 O19 2.204938 1_555
Li19 O13 2.227962 1_656
Li20 O24 2.071424 1_555
Li20 O18 2.086053 1_555
Li20 O35 2.087832 1_555
Li20 O22 2.098131 1_554
Li20 O34 2.107741 1_555
Li20 O8 2.144380 1_554
Li21 O27 2.036056 1_545
Li21 O6 2.045313 1_655
Li21 O35 2.173139 1_555
Li21 O23 2.186627 1_545
Li21 O24 2.190866 1_555
Li21 O9 2.198637 1_645
Li22 O26 2.084909 1_555
Li22 O3 2.092129 1_655
Li22 O4 2.110872 1_655
Li22 O19 2.123224 1_555
Li22 O25 2.124113 1_555
Li22 O12 2.139181 1_655
Li23 O28 2.062958 1_555
Li23 O30 2.076905 1_565
Li23 O10 2.119173 1_655
Li23 O6 2.140598 1_665
Li23 O7 2.195328 1_665
Li23 O23 2.215399 1_555
Mn0 O4 1.927995 1_555
Mn0 O26 1.936583 1_455
Mn0 O18 1.939814 1_556
Mn0 O35 1.942468 1_456
Mn0 O8 1.944413 1_555
Mn0 O22 1.946942 1_455
Mn1 O33 1.922334 1_455
Mn1 O32 1.924172 1_455
Mn1 O28 1.938038 1_455
Mn1 O10 1.948692 1_555
Mn1 O14 1.954659 1_555
Mn1 O5 1.958047 1_555
Mn2 O24 1.924550 1_555
Mn2 O35 1.929017 1_455
Mn2 O18 1.935998 1_555
Mn2 O6 1.940692 1_555
Mn2 O34 1.955587 1_455
Mn2 O20 1.965002 1_555
Mn3 O17 1.923027 1_555
Mn3 O11 1.931118 1_555
Mn3 O0 1.931811 1_555
Mn3 O1 1.951546 1_655
Mn3 O29 1.955894 1_555
Mn3 O15 1.957044 1_555
Mn4 O2 1.927928 1_655
Mn4 O3 1.937057 1_655
Mn4 O25 1.940840 1_555
Mn4 O7 1.942051 1_655
Mn4 O21 1.946347 1_555
Mn4 O30 1.950628 1_555
Cr0 O15 1.902833 1_555
Cr0 O5 1.905848 1_555
Cr0 O11 1.970892 1_555
Cr0 O29 1.971970 1_455
Cr0 O1 1.973844 1_555
Cr0 O33 1.983036 1_455
Cr1 O12 1.893925 1_555
Cr1 O3 1.934692 1_555
Cr1 O7 1.936292 1_555
Cr1 O21 1.958711 1_555
Cr1 O19 1.987787 1_555
Cr1 O25 1.997306 1_555
Cr2 O22 1.905009 1_555
Cr2 O19 1.910991 1_555
Cr2 O8 1.932999 1_555
Cr2 O26 1.951745 1_555
Cr2 O4 2.001288 1_555
Cr2 O12 2.003497 1_555
Cr3 O23 1.927677 1_555
Cr3 O27 1.929246 1_555
Cr3 O13 1.948789 1_555
Cr3 O31 1.952470 1_555
Cr3 O9 1.964433 1_555
Cr3 O16 1.970661 1_555
Cr4 O14 1.923794 1_555
Cr4 O28 1.929411 1_555
Cr4 O16 1.936507 1_555
Cr4 O23 1.959526 1_555
Cr4 O32 1.970598 1_555
Cr4 O10 1.977836 1_555
Cr5 O20 1.894788 1_555
Cr5 O30 1.901085 1_555
Cr5 O34 1.967637 1_555
Cr5 O24 1.981578 1_555
Cr5 O2 1.982286 1_655
Cr5 O6 1.984675 1_655
Cr6 O9 1.910228 1_655
Cr6 O0 1.922360 1_554
Cr6 O31 1.932391 1_555
Cr6 O13 1.934265 1_655
Cr6 O17 1.996388 1_554
Cr6 O27 2.005731 1_555
