# generated using pymatgen
data_Li3V2(O2F)2
_symmetry_space_group_name_H-M   'P 1'
_cell_length_a   5.22268690
_cell_length_b   7.32244131
_cell_length_c   5.88502389
_cell_angle_alpha   89.30923553
_cell_angle_beta   90.73782263
_cell_angle_gamma   88.51364189
_symmetry_Int_Tables_number   1
_chemical_formula_structural   Li3V2(O2F)2
_chemical_formula_sum   'Li6 V4 O8 F4'
_cell_volume   224.94823732
_cell_formula_units_Z   2
loop_
 _symmetry_equiv_pos_site_id
 _symmetry_equiv_pos_as_xyz
  1  'x, y, z'
loop_
 _atom_site_type_symbol
 _atom_site_label
 _atom_site_symmetry_multiplicity
 _atom_site_fract_x
 _atom_site_fract_y
 _atom_site_fract_z
 _atom_site_occupancy
  Li  Li0  1  0.85909000  0.63119500  0.24806500  1
  Li  Li1  1  0.14066700  0.36902000  0.75160900  1
  Li  Li2  1  0.31635000  0.63023500  0.00111800  1
  Li  Li3  1  0.68394000  0.37018500  0.99873900  1
  Li  Li4  1  0.31851200  0.63024800  0.49410800  1
  Li  Li5  1  0.68126400  0.36926100  0.50554300  1
  V  V0  1  0.00001700  0.99990500  0.00014300  1
  V  V1  1  0.99999600  0.99986400  0.50014000  1
  V  V2  1  0.49214600  0.00878900  0.24992000  1
  V  V3  1  0.50785700  0.99129200  0.74982200  1
  O  O0  1  0.81650000  0.14191300  0.24722500  1
  O  O1  1  0.18354500  0.85794200  0.75305000  1
  O  O2  1  0.17271500  0.85161000  0.25293200  1
  O  O3  1  0.82775500  0.14836300  0.74737500  1
  O  O4  1  0.34564200  0.14083200  0.00343900  1
  O  O5  1  0.65415600  0.85924700  0.99667800  1
  O  O6  1  0.34680100  0.14059400  0.51350000  1
  O  O7  1  0.65327200  0.85937300  0.48664800  1
  F  F0  1  0.00022200  0.50003700  0.00010500  1
  F  F1  1  0.99960700  0.50015100  0.49993500  1
  F  F2  1  0.52941100  0.51499300  0.24897400  1
  F  F3  1  0.47053400  0.48495100  0.75093300  1
loop_
_geom_bond_atom_site_label_1
_geom_bond_atom_site_label_2
_geom_bond_distance
_geom_bond_site_symmetry_2
Li0 O2 2.329318 1_655
Li0 O7 2.433262 1_555
Li0 O5 2.435102 1_554
Li1 O3 2.327856 1_455
Li1 O6 2.433567 1_555
Li1 O4 2.437403 1_556
Li2 O1 2.290788 1_554
Li2 O2 2.325938 1_555
Li2 O5 2.465558 1_554
Li3 O0 2.294920 1_556
Li3 O3 2.326794 1_555
Li3 O4 2.469205 1_556
Li4 O2 2.252623 1_555
Li4 O1 2.372097 1_555
Li4 O7 2.454766 1_555
Li5 O3 2.253753 1_555
Li5 O0 2.368317 1_555
Li5 O6 2.451337 1_555
O0 V2 1.976383 1_555
O0 V1 2.022353 1_545
O0 V0 2.033449 1_645
O1 V3 1.977090 1_555
O1 V1 2.021998 1_455
O1 V0 2.033355 1_556
O2 V0 2.020270 1_555
O2 V1 2.032188 1_455
O2 V2 2.051348 1_565
O3 V0 2.019836 1_646
O3 V1 2.032162 1_545
O3 V3 2.052870 1_545
O4 V2 1.877126 1_555
O4 V3 2.041640 1_544
O4 V0 2.102338 1_545
O5 V3 1.878403 1_555
O5 V2 2.039569 1_566
O5 V0 2.102406 1_656
O6 V3 1.929366 1_545
O6 V2 1.985513 1_555
O6 V1 2.108042 1_445
O7 V2 1.931666 1_565
O7 V3 1.984166 1_555
O7 V1 2.106804 1_555
F0 Li0 1.902588 1_455
F0 Li1 1.903150 1_554
F0 Li3 1.927188 1_454
F0 Li2 1.927800 1_555
F1 Li0 1.886157 1_555
F1 Li1 1.886615 1_655
F1 Li4 1.940540 1_655
F1 Li5 1.940943 1_555
F2 Li0 1.940307 1_555
F2 Li5 1.983421 1_555
F2 Li2 1.989406 1_555
F2 Li3 1.992036 1_554
F2 Li4 2.007154 1_555
F3 Li1 1.940263 1_555
F3 Li4 1.983234 1_555
F3 Li3 1.988771 1_555
F3 Li2 1.992946 1_556
F3 Li5 2.009096 1_555
