# generated using pymatgen
data_USiPbO6
_symmetry_space_group_name_H-M   'P 1'
_cell_length_a   6.93079800
_cell_length_b   6.72443400
_cell_length_c   13.38840599
_cell_angle_alpha   76.75095795
_cell_angle_beta   90.00000000
_cell_angle_gamma   90.00000000
_symmetry_Int_Tables_number   1
_chemical_formula_structural   USiPbO6
_chemical_formula_sum   'U4 Si4 Pb4 O24'
_cell_volume   607.36763761
_cell_formula_units_Z   4
loop_
 _symmetry_equiv_pos_site_id
 _symmetry_equiv_pos_as_xyz
  1  'x, y, z'
loop_
 _atom_site_type_symbol
 _atom_site_label
 _atom_site_symmetry_multiplicity
 _atom_site_fract_x
 _atom_site_fract_y
 _atom_site_fract_z
 _atom_site_occupancy
  U  U0  1  0.77746100  0.52282700  0.67736400  1
  U  U1  1  0.27746100  0.47717300  0.82263600  1
  U  U2  1  0.22253900  0.47717300  0.32263600  1
  U  U3  1  0.72253900  0.52282700  0.17736400  1
  Si  Si0  1  0.28752500  0.59426400  0.57381700  1
  Si  Si1  1  0.78752500  0.40573600  0.92618300  1
  Si  Si2  1  0.71247500  0.40573600  0.42618300  1
  Si  Si3  1  0.21247500  0.59426400  0.07381700  1
  Pb  Pb0  1  0.97845900  0.94330700  0.87100500  1
  Pb  Pb1  1  0.47845900  0.05669300  0.62899500  1
  Pb  Pb2  1  0.02154100  0.05669300  0.12899500  1
  Pb  Pb3  1  0.52154100  0.94330700  0.37100500  1
  O  O0  1  0.73227200  0.80372100  0.66562400  1
  O  O1  1  0.23227200  0.19627900  0.83437600  1
  O  O2  1  0.26772800  0.19627900  0.33437600  1
  O  O3  1  0.76772800  0.80372100  0.16562400  1
  O  O4  1  0.30165600  0.76083600  0.79753700  1
  O  O5  1  0.80165600  0.23916400  0.70246300  1
  O  O6  1  0.69834400  0.23916400  0.20246300  1
  O  O7  1  0.19834400  0.76083600  0.29753700  1
  O  O8  1  0.35770000  0.82985300  0.52733300  1
  O  O9  1  0.85770000  0.17014700  0.97266700  1
  O  O10  1  0.64230000  0.17014700  0.47266700  1
  O  O11  1  0.14230000  0.82985300  0.02733300  1
  O  O12  1  0.73353800  0.53872700  0.51344900  1
  O  O13  1  0.23353800  0.46127300  0.98655100  1
  O  O14  1  0.26646200  0.46127300  0.48655100  1
  O  O15  1  0.76646200  0.53872700  0.01344900  1
  O  O16  1  0.44244400  0.48042700  0.66535900  1
  O  O17  1  0.94244400  0.51957300  0.83464100  1
  O  O18  1  0.55755600  0.51957300  0.33464100  1
  O  O19  1  0.05755600  0.48042700  0.16535900  1
  O  O20  1  0.09196400  0.57461600  0.64561600  1
  O  O21  1  0.59196400  0.42538400  0.85438400  1
  O  O22  1  0.90803600  0.42538400  0.35438400  1
  O  O23  1  0.40803600  0.57461600  0.14561600  1
loop_
_geom_bond_atom_site_label_1
_geom_bond_atom_site_label_2
_geom_bond_distance
_geom_bond_site_symmetry_2
O0 U0 1.885332 1_555
O0 Pb1 2.417925 1_565
O1 U1 1.885332 1_555
O1 Pb0 2.417925 1_445
O2 U2 1.885332 1_555
O2 Pb3 2.417925 1_545
O3 U3 1.885332 1_555
O3 Pb2 2.417925 1_665
O4 U1 1.867000 1_555
O5 U0 1.867000 1_555
O6 U3 1.867000 1_555
O7 U2 1.867000 1_555
O8 Si0 1.637575 1_555
O8 Pb3 2.349506 1_555
O8 Pb1 2.414844 1_565
O9 Si1 1.637575 1_555
O9 Pb2 2.349506 1_656
O9 Pb0 2.414844 1_545
O10 Si2 1.637575 1_555
O10 Pb1 2.349506 1_555
O10 Pb3 2.414844 1_545
O11 Si3 1.637575 1_555
O11 Pb0 2.349506 1_454
O11 Pb2 2.414844 1_565
O12 Si2 1.632494 1_555
O12 U0 2.193775 1_555
O13 Si3 1.632494 1_556
O13 U1 2.193775 1_555
O14 Si0 1.632494 1_555
O14 U2 2.193775 1_555
O15 Si1 1.632494 1_554
O15 U3 2.193775 1_555
O16 Si0 1.676573 1_555
O16 U0 2.349364 1_555
O16 U1 2.391818 1_555
O17 Si1 1.676573 1_555
O17 U1 2.349364 1_655
O17 U0 2.391818 1_555
O18 Si2 1.676573 1_555
O18 U2 2.349364 1_555
O18 U3 2.391818 1_555
O19 Si3 1.676573 1_555
O19 U3 2.349364 1_455
O19 U2 2.391818 1_555
O20 Si0 1.649358 1_555
O20 U0 2.232810 1_455
O20 U1 2.643365 1_555
O21 Si1 1.649358 1_555
O21 U1 2.232810 1_555
O21 U0 2.643365 1_555
O22 Si2 1.649358 1_555
O22 U2 2.232810 1_655
O22 U3 2.643365 1_555
O23 Si3 1.649358 1_555
O23 U3 2.232810 1_555
O23 U2 2.643365 1_555
