# generated using pymatgen
data_KCaP3(HO2)6
_symmetry_space_group_name_H-M   'P 1'
_cell_length_a   12.06693500
_cell_length_b   7.35723300
_cell_length_c   13.03926439
_cell_angle_alpha   69.38765493
_cell_angle_beta   90.00000000
_cell_angle_gamma   90.00000000
_symmetry_Int_Tables_number   1
_chemical_formula_structural   KCaP3(HO2)6
_chemical_formula_sum   'K4 Ca4 P12 H24 O48'
_cell_volume   1083.50984820
_cell_formula_units_Z   4
loop_
 _symmetry_equiv_pos_site_id
 _symmetry_equiv_pos_as_xyz
  1  'x, y, z'
loop_
 _atom_site_type_symbol
 _atom_site_label
 _atom_site_symmetry_multiplicity
 _atom_site_fract_x
 _atom_site_fract_y
 _atom_site_fract_z
 _atom_site_occupancy
  K  K0  1  0.59208000  0.77381300  0.59643500  1
  K  K1  1  0.90792000  0.77381300  0.09643500  1
  K  K2  1  0.40792000  0.22618700  0.40356500  1
  K  K3  1  0.09208000  0.22618700  0.90356500  1
  Ca  Ca0  1  0.78872600  0.12491900  0.79790700  1
  Ca  Ca1  1  0.71127400  0.12491900  0.29790700  1
  Ca  Ca2  1  0.21127400  0.87508100  0.20209300  1
  Ca  Ca3  1  0.28872600  0.87508100  0.70209300  1
  P  P0  1  0.67798700  0.30703800  0.52091800  1
  P  P1  1  0.82201300  0.30703800  0.02091800  1
  P  P2  1  0.32201300  0.69296200  0.47908200  1
  P  P3  1  0.17798700  0.69296200  0.97908200  1
  P  P4  1  0.49024800  0.78080900  0.31266900  1
  P  P5  1  0.00975200  0.78080900  0.81266900  1
  P  P6  1  0.50975200  0.21919100  0.68733100  1
  P  P7  1  0.99024800  0.21919100  0.18733100  1
  P  P8  1  0.71165500  0.61387100  0.31286200  1
  P  P9  1  0.78834500  0.61387100  0.81286200  1
  P  P10  1  0.28834500  0.38612900  0.68713800  1
  P  P11  1  0.21165500  0.38612900  0.18713800  1
  H  H0  1  0.53494000  0.78065100  0.81005800  1
  H  H1  1  0.96506000  0.78065100  0.31005800  1
  H  H2  1  0.46506000  0.21934900  0.18994200  1
  H  H3  1  0.03494000  0.21934900  0.68994200  1
  H  H4  1  0.98156100  0.42918700  0.64674700  1
  H  H5  1  0.51843900  0.42918700  0.14674700  1
  H  H6  1  0.01843900  0.57081300  0.35325300  1
  H  H7  1  0.48156100  0.57081300  0.85325300  1
  H  H8  1  0.29672200  0.99957700  0.96276800  1
  H  H9  1  0.20327800  0.99957700  0.46276800  1
  H  H10  1  0.70327800  0.00042300  0.03723200  1
  H  H11  1  0.79672200  0.00042300  0.53723200  1
  H  H12  1  0.84570100  0.81615000  0.51961200  1
  H  H13  1  0.65429900  0.81615000  0.01961200  1
  H  H14  1  0.15429900  0.18385000  0.48038800  1
  H  H15  1  0.34570100  0.18385000  0.98038800  1
  H  H16  1  0.03236900  0.75305600  0.61164900  1
  H  H17  1  0.46763100  0.75305600  0.11164900  1
  H  H18  1  0.96763100  0.24694400  0.38835100  1
  H  H19  1  0.53236900  0.24694400  0.88835100  1
  H  H20  1  0.46297200  0.75048800  0.99220400  1
  H  H21  1  0.03702800  0.75048800  0.49220400  1
  H  H22  1  0.53702800  0.24951200  0.00779600  1
  H  H23  1  0.96297200  0.24951200  0.50779600  1
  O  O0  1  0.76694200  0.19965200  0.59940000  1
  O  O1  1  0.73305800  0.19965200  0.09940000  1
  O  O2  1  0.23305800  0.80034800  0.40060000  1
  O  O3  1  0.26694200  0.80034800  0.90060000  1
  O  O4  1  0.87293700  0.20854300  0.94899000  1
  O  O5  1  0.62706300  0.20854300  0.44899000  1
  O  O6  1  0.12706300  0.79145700  0.05101000  1
  O  O7  1  0.37293700  0.79145700  0.55101000  1
  O  O8  1  0.58125100  0.37280000  0.58772800  1
  O  O9  1  0.91874900  0.37280000  0.08772800  1
  O  O10  1  0.41874900  0.62720000  0.41227200  1
  O  O11  1  0.08125100  0.62720000  0.91227200  1
  O  O12  1  0.08149600  0.85483600  0.71234800  1
  O  O13  1  0.41850400  0.85483600  0.21234800  1
  O  O14  1  0.91850400  0.14516400  0.28765200  1
  O  O15  1  0.58149600  0.14516400  0.78765200  1
  O  O16  1  0.45326300  0.07858400  0.64434000  1
  O  O17  1  0.04673700  0.07858400  0.14434000  1
  O  O18  1  0.54673700  0.92141600  0.35566000  1
  O  O19  1  0.95326300  0.92141600  0.85566000  1
  O  O20  1  0.92249200  0.62981200  0.79404200  1
  O  O21  1  0.57750800  0.62981200  0.29404200  1
  O  O22  1  0.07750800  0.37018800  0.20595800  1
  O  O23  1  0.42249200  0.37018800  0.70595800  1
  O  O24  1  0.24807800  0.52775700  0.73777400  1
  O  O25  1  0.25192200  0.52775700  0.23777400  1
  O  O26  1  0.75192200  0.47224300  0.26222600  1
  O  O27  1  0.74807800  0.47224300  0.76222600  1
  O  O28  1  0.73737300  0.81159000  0.77920400  1
  O  O29  1  0.76262700  0.81159000  0.27920400  1
  O  O30  1  0.26262700  0.18841000  0.22079600  1
  O  O31  1  0.23737300  0.18841000  0.72079600  1
  O  O32  1  0.27894200  0.47875000  0.55304600  1
  O  O33  1  0.22105800  0.47875000  0.05304600  1
  O  O34  1  0.72105800  0.52125000  0.44695400  1
  O  O35  1  0.77894200  0.52125000  0.94695400  1
  O  O36  1  0.97182600  0.29531400  0.69910600  1
  O  O37  1  0.52817400  0.29531400  0.19910600  1
  O  O38  1  0.02817400  0.70468600  0.30089400  1
  O  O39  1  0.47182600  0.70468600  0.80089400  1
  O  O40  1  0.28802400  0.08345600  0.00686000  1
  O  O41  1  0.21197600  0.08345600  0.50686000  1
  O  O42  1  0.71197600  0.91654400  0.99314000  1
  O  O43  1  0.78802400  0.91654400  0.49314000  1
  O  O44  1  0.99474600  0.70020500  0.56040900  1
  O  O45  1  0.50525400  0.70020500  0.06040900  1
  O  O46  1  0.00525400  0.29979500  0.43959100  1
  O  O47  1  0.49474600  0.29979500  0.93959100  1
loop_
_geom_bond_atom_site_label_1
_geom_bond_atom_site_label_2
_geom_bond_distance
_geom_bond_site_symmetry_2
K0 O7 2.703019 1_555
K0 O43 2.740727 1_555
K0 O39 2.918426 1_555
K0 O18 2.989115 1_555
K0 O8 2.995054 1_555
K0 O16 3.034810 1_565
K0 O28 3.049095 1_555
K0 O27 3.124496 1_555
K0 O5 3.126462 1_565
K1 O6 2.703019 1_655
K1 O42 2.740727 1_554
K1 O38 2.918426 1_655
K1 O19 2.989115 1_554
K1 O9 2.995054 1_555
K1 O17 3.034810 1_665
K1 O29 3.049095 1_555
K1 O26 3.124496 1_555
K1 O4 3.126462 1_564
K2 O5 2.703019 1_555
K2 O41 2.740727 1_555
K2 O37 2.918426 1_555
K2 O16 2.989115 1_555
K2 O10 2.995054 1_555
K2 O18 3.034810 1_545
K2 O30 3.049095 1_555
K2 O25 3.124496 1_555
K2 O7 3.126462 1_545
K3 O4 2.703019 1_455
K3 O40 2.740727 1_556
K3 O36 2.918426 1_455
K3 O17 2.989115 1_556
K3 O11 2.995054 1_555
K3 O19 3.034810 1_445
K3 O31 3.049095 1_555
K3 O24 3.124496 1_555
K3 O6 3.126462 1_546
Ca0 O19 2.440686 1_545
Ca0 O0 2.463557 1_555
Ca0 O4 2.479000 1_555
Ca0 O27 2.479869 1_555
Ca0 O28 2.480605 1_545
Ca0 O15 2.505833 1_555
Ca0 O42 2.634526 1_545
Ca0 O36 2.641185 1_555
Ca1 O18 2.440686 1_545
Ca1 O1 2.463557 1_555
Ca1 O5 2.479000 1_555
Ca1 O26 2.479869 1_555
Ca1 O29 2.480605 1_545
Ca1 O14 2.505833 1_555
Ca1 O43 2.634526 1_545
Ca1 O37 2.641185 1_555
Ca2 O17 2.440686 1_565
Ca2 O2 2.463557 1_555
Ca2 O6 2.479000 1_555
Ca2 O25 2.479869 1_555
Ca2 O30 2.480605 1_565
Ca2 O13 2.505833 1_555
Ca2 O40 2.634526 1_565
Ca2 O38 2.641185 1_555
Ca3 O16 2.440686 1_565
Ca3 O3 2.463557 1_555
Ca3 O7 2.479000 1_555
Ca3 O24 2.479869 1_555
Ca3 O31 2.480605 1_565
Ca3 O12 2.505833 1_555
Ca3 O41 2.634526 1_565
Ca3 O39 2.641185 1_555
H0 O39 0.976567 1_555
H0 K0 2.887135 1_555
H1 O38 0.976567 1_655
H1 K1 2.887135 1_555
H2 O37 0.976567 1_555
H2 K2 2.887135 1_555
H3 O36 0.976567 1_455
H3 K3 2.887135 1_555
H4 O36 0.988207 1_555
H5 O37 0.988207 1_555
H6 O38 0.988207 1_555
H7 O39 0.988207 1_555
H8 O40 0.986002 1_566
H8 K3 2.926998 1_565
H9 O41 0.986002 1_565
H9 K2 2.926998 1_565
H10 O42 0.986002 1_544
H10 K1 2.926998 1_545
H11 O43 0.986002 1_545
H11 K0 2.926998 1_545
H12 O43 0.984679 1_555
H13 O42 0.984679 1_554
H14 O41 0.984679 1_555
H15 O40 0.984679 1_556
H16 O44 0.993289 1_455
H17 O45 0.993289 1_555
H18 O46 0.993289 1_655
H19 O47 0.993289 1_555
H20 O45 0.977987 1_556
H21 O44 0.977987 1_455
H22 O47 0.977987 1_554
H23 O46 0.977987 1_655
O0 P0 1.501465 1_555
O1 P1 1.501465 1_555
O2 P2 1.501465 1_555
O3 P3 1.501465 1_555
O4 P1 1.503624 1_556
O5 P0 1.503624 1_555
O6 P3 1.503624 1_554
O7 P2 1.503624 1_555
O8 P0 1.628608 1_555
O8 P6 1.635514 1_555
O9 P1 1.628608 1_555
O9 P7 1.635514 1_555
O10 P2 1.628608 1_555
O10 P4 1.635514 1_555
O11 P3 1.628608 1_555
O11 P5 1.635514 1_555
O12 P5 1.501882 1_555
O13 P4 1.501882 1_555
O14 P7 1.501882 1_555
O15 P6 1.501882 1_555
O16 P6 1.502441 1_555
O17 P7 1.502441 1_455
O18 P4 1.502441 1_555
O19 P5 1.502441 1_655
O20 P5 1.609919 1_655
O20 P9 1.635249 1_555
O21 P4 1.609919 1_555
O21 P8 1.635249 1_555
O22 P7 1.609919 1_455
O22 P11 1.635249 1_555
O23 P6 1.609919 1_555
O23 P10 1.635249 1_555
O24 P10 1.497390 1_555
O25 P11 1.497390 1_555
O26 P8 1.497390 1_555
O27 P9 1.497390 1_555
O28 P9 1.495820 1_555
O29 P8 1.495820 1_555
O30 P11 1.495820 1_555
O31 P10 1.495820 1_555
O32 P2 1.616749 1_555
O32 P10 1.641783 1_555
O33 P3 1.616749 1_554
O33 P11 1.641783 1_555
O34 P0 1.616749 1_555
O34 P8 1.641783 1_555
O35 P1 1.616749 1_556
O35 P9 1.641783 1_555
