# generated using pymatgen
data_Li2VO2F
_symmetry_space_group_name_H-M   'P 1'
_cell_length_a   3.02958800
_cell_length_b   7.91650484
_cell_length_c   10.38389358
_cell_angle_alpha   107.85217847
_cell_angle_beta   89.94668744
_cell_angle_gamma   100.88548058
_symmetry_Int_Tables_number   1
_chemical_formula_structural   Li2VO2F
_chemical_formula_sum   'Li8 V4 O8 F4'
_cell_volume   232.35527797
_cell_formula_units_Z   4
loop_
 _symmetry_equiv_pos_site_id
 _symmetry_equiv_pos_as_xyz
  1  'x, y, z'
loop_
 _atom_site_type_symbol
 _atom_site_label
 _atom_site_symmetry_multiplicity
 _atom_site_fract_x
 _atom_site_fract_y
 _atom_site_fract_z
 _atom_site_occupancy
  Li  Li0  1  0.59065600  0.16539600  0.12973600  1
  Li  Li1  1  0.91778300  0.84229400  0.13718000  1
  Li  Li2  1  0.92356500  0.85693000  0.61460200  1
  Li  Li3  1  0.55803000  0.12261000  0.59399000  1
  Li  Li4  1  0.05830000  0.13316500  0.37452600  1
  Li  Li5  1  0.42743300  0.86023600  0.89625600  1
  Li  Li6  1  0.43564300  0.86655000  0.39773200  1
  Li  Li7  1  0.06944900  0.15216900  0.87016900  1
  V  V0  1  0.75866900  0.50235300  0.37315500  1
  V  V1  1  0.75263000  0.49899500  0.88250200  1
  V  V2  1  0.24226400  0.49950800  0.12557400  1
  V  V3  1  0.23425100  0.47697000  0.61111900  1
  O  O0  1  0.66054300  0.34435200  0.00446600  1
  O  O1  1  0.68170700  0.34607700  0.50270600  1
  O  O2  1  0.81994400  0.64502700  0.23984600  1
  O  O3  1  0.99957000  0.99884200  0.49907500  1
  O  O4  1  0.17479300  0.34921400  0.25464700  1
  O  O5  1  0.19679900  0.37161400  0.76310400  1
  O  O6  1  0.33419500  0.64227900  0.49905500  1
  O  O7  1  0.31661200  0.65679900  0.99610600  1
  F  F0  1  0.83172000  0.66007000  0.74532400  1
  F  F1  1  0.99469200  0.99871500  0.00093600  1
  F  F2  1  0.49958100  0.99885200  0.23960300  1
  F  F3  1  0.49307700  0.99566700  0.76314000  1
loop_
_geom_bond_atom_site_label_1
_geom_bond_atom_site_label_2
_geom_bond_distance
_geom_bond_site_symmetry_2
Li0 O0 2.181748 1_555
Li0 O4 2.192291 1_655
Li0 O4 2.217985 1_555
Li1 O2 2.123325 1_555
Li1 O7 2.260581 1_654
Li1 O7 2.301164 1_554
Li2 O3 1.866102 1_555
Li2 O6 2.263466 1_555
Li2 O6 2.328171 1_655
Li3 O3 1.891784 1_445
Li3 O3 1.902972 1_545
Li3 O1 2.223877 1_555
Li4 O3 1.899042 1_445
Li4 O1 2.293958 1_455
Li4 O1 2.367793 1_555
Li4 O4 2.382435 1_555
Li5 O7 2.144860 1_555
Li6 O3 1.942914 1_555
Li6 O3 1.947781 1_455
Li6 O6 2.300487 1_555
Li6 O2 2.474596 1_555
Li6 O2 2.500013 1_455
Li7 O0 2.267389 1_556
Li7 O0 2.280764 1_456
Li7 O5 2.309343 1_555
O0 V1 2.000365 1_554
O0 V2 2.081794 1_555
O0 V2 2.106089 1_655
O1 V3 1.943297 1_655
O1 V3 1.997801 1_555
O1 V0 2.074967 1_555
O2 V2 2.021847 1_655
O2 V0 2.026161 1_555
O2 V2 2.049958 1_555
O4 V2 2.034485 1_555
O4 V0 2.057436 1_455
O4 V0 2.095821 1_555
O5 V3 1.992535 1_555
O5 V1 1.996411 1_555
O5 V1 2.026738 1_455
O6 V3 1.985392 1_555
O6 V0 2.058377 1_555
O6 V0 2.088823 1_455
O7 V1 2.040992 1_455
O7 V2 2.080503 1_556
O7 V1 2.100943 1_555
F0 V1 2.170274 1_555
F0 V3 2.226271 1_655
F0 V3 2.257155 1_555
F0 Li2 2.341208 1_555
F0 Li5 2.372110 1_655
F0 Li5 2.382077 1_555
F1 Li5 1.974356 1_554
F1 Li5 1.977803 1_654
F1 Li7 2.068283 1_664
F1 Li0 2.133825 1_565
F1 Li1 2.133947 1_555
F1 Li0 2.193732 1_665
F2 Li0 1.974895 1_565
F2 Li1 2.013667 1_555
F2 Li1 2.035736 1_455
F2 Li4 2.090435 1_665
F2 Li4 2.121509 1_565
F2 Li6 2.192685 1_555
F3 Li5 1.981736 1_555
F3 Li7 2.039983 1_665
F3 Li7 2.042301 1_565
F3 Li2 2.187430 1_555
F3 Li2 2.193813 1_455
F3 Li3 2.267291 1_565
