# generated using pymatgen
data_Al2H12(SeO5)3
_symmetry_space_group_name_H-M   'P 1'
_cell_length_a   8.99765046
_cell_length_b   8.99765046
_cell_length_c   11.09387900
_cell_angle_alpha   90.00000000
_cell_angle_beta   90.00000000
_cell_angle_gamma   120.00000335
_symmetry_Int_Tables_number   1
_chemical_formula_structural   Al2H12(SeO5)3
_chemical_formula_sum   'Al4 H24 Se6 O30'
_cell_volume   777.80776913
_cell_formula_units_Z   2
loop_
 _symmetry_equiv_pos_site_id
 _symmetry_equiv_pos_as_xyz
  1  'x, y, z'
loop_
 _atom_site_type_symbol
 _atom_site_label
 _atom_site_symmetry_multiplicity
 _atom_site_fract_x
 _atom_site_fract_y
 _atom_site_fract_z
 _atom_site_occupancy
  Al  Al0  1  0.66666700  0.33333300  0.62446800  1
  Al  Al1  1  0.33333300  0.66666700  0.12446800  1
  Al  Al2  1  0.66666700  0.33333300  0.04182300  1
  Al  Al3  1  0.33333300  0.66666700  0.54182300  1
  H  H0  1  0.58407100  0.41067100  0.43145400  1
  H  H1  1  0.58932900  0.17340000  0.43145400  1
  H  H2  1  0.82660000  0.41592900  0.43145400  1
  H  H3  1  0.41067100  0.58407100  0.93145400  1
  H  H4  1  0.17340000  0.58932900  0.93145400  1
  H  H5  1  0.41592900  0.82660000  0.93145400  1
  H  H6  1  0.54449200  0.96259600  0.01172600  1
  H  H7  1  0.03740400  0.58189700  0.01172600  1
  H  H8  1  0.41810300  0.45550800  0.01172600  1
  H  H9  1  0.96259600  0.54449200  0.51172600  1
  H  H10  1  0.58189700  0.03740400  0.51172600  1
  H  H11  1  0.45550800  0.41810300  0.51172600  1
  H  H12  1  0.57833800  0.80023700  0.71037000  1
  H  H13  1  0.19976300  0.77810100  0.71037000  1
  H  H14  1  0.22189900  0.42166200  0.71037000  1
  H  H15  1  0.80023700  0.57833800  0.21037000  1
  H  H16  1  0.77810100  0.19976300  0.21037000  1
  H  H17  1  0.42166200  0.22189900  0.21037000  1
  H  H18  1  0.42355700  0.48762800  0.67905500  1
  H  H19  1  0.51237200  0.93592900  0.67905500  1
  H  H20  1  0.06407100  0.57644300  0.67905500  1
  H  H21  1  0.48762800  0.42355700  0.17905500  1
  H  H22  1  0.93592900  0.51237200  0.17905500  1
  H  H23  1  0.57644300  0.06407100  0.17905500  1
  Se  Se0  1  0.73635700  0.61860200  0.83066900  1
  Se  Se1  1  0.38139800  0.11775400  0.83066900  1
  Se  Se2  1  0.88224600  0.26364300  0.83066900  1
  Se  Se3  1  0.61860200  0.73635700  0.33066900  1
  Se  Se4  1  0.11775400  0.38139800  0.33066900  1
  Se  Se5  1  0.26364300  0.88224600  0.33066900  1
  O  O0  1  0.61831800  0.48291500  0.70917100  1
  O  O1  1  0.51708500  0.13540300  0.70917100  1
  O  O2  1  0.86459700  0.38168200  0.70917100  1
  O  O3  1  0.48291500  0.61831800  0.20917100  1
  O  O4  1  0.13540300  0.51708500  0.20917100  1
  O  O5  1  0.38168200  0.86459700  0.20917100  1
  O  O6  1  0.51108900  0.34757600  0.50022500  1
  O  O7  1  0.65242400  0.16351300  0.50022500  1
  O  O8  1  0.83648700  0.48891100  0.50022500  1
  O  O9  1  0.34757600  0.51108900  0.00022500  1
  O  O10  1  0.16351300  0.65242400  0.00022500  1
  O  O11  1  0.48891100  0.83648700  0.00022500  1
  O  O12  1  0.65836500  0.75315900  0.82505500  1
  O  O13  1  0.24684100  0.90520600  0.82505500  1
  O  O14  1  0.09479400  0.34163500  0.82505500  1
  O  O15  1  0.75315900  0.65836500  0.32505500  1
  O  O16  1  0.90520600  0.24684100  0.32505500  1
  O  O17  1  0.34163500  0.09479400  0.32505500  1
  O  O18  1  0.62113900  0.48377200  0.95209600  1
  O  O19  1  0.51622800  0.13736700  0.95209600  1
  O  O20  1  0.86263300  0.37886100  0.95209600  1
  O  O21  1  0.48377200  0.62113900  0.45209600  1
  O  O22  1  0.13736700  0.51622800  0.45209600  1
  O  O23  1  0.37886100  0.86263300  0.45209600  1
  O  O24  1  0.48164700  0.31661000  0.14774300  1
  O  O25  1  0.68339000  0.16503800  0.14774300  1
  O  O26  1  0.83496200  0.51835300  0.14774300  1
  O  O27  1  0.31661000  0.48164700  0.64774300  1
  O  O28  1  0.16503800  0.68339000  0.64774300  1
  O  O29  1  0.51835300  0.83496200  0.64774300  1
loop_
_geom_bond_atom_site_label_1
_geom_bond_atom_site_label_2
_geom_bond_distance
_geom_bond_site_symmetry_2
Al0 O2 1.862562 1_555
Al0 O1 1.862564 1_555
Al0 O0 1.862569 1_555
Al0 O7 2.013739 1_555
Al0 O8 2.013742 1_555
Al0 O6 2.013746 1_555
Al1 O5 1.862562 1_555
Al1 O4 1.862564 1_555
Al1 O3 1.862569 1_555
Al1 O10 2.013739 1_555
Al1 O11 2.013742 1_555
Al1 O9 2.013746 1_555
Al2 O20 1.882914 1_554
Al2 O19 1.882916 1_554
Al2 O18 1.882921 1_554
Al2 O25 1.980971 1_555
Al2 O26 1.980979 1_555
Al2 O24 1.980985 1_555
Al3 O23 1.882914 1_555
Al3 O22 1.882916 1_555
Al3 O21 1.882921 1_555
Al3 O28 1.980971 1_555
Al3 O29 1.980979 1_555
Al3 O27 1.980985 1_555
H0 O6 0.981214 1_555
H1 O7 0.981214 1_555
H2 O8 0.981214 1_555
H3 O9 0.981214 1_556
H4 O10 0.981214 1_556
H5 O11 0.981214 1_556
H6 O11 0.993193 1_555
H7 O10 0.993193 1_555
H8 O9 0.993185 1_555
H9 O8 0.993193 1_555
H10 O7 0.993193 1_555
H11 O6 0.993185 1_555
H12 O29 1.019936 1_555
H12 O12 1.619157 1_555
H13 O28 1.019943 1_555
H13 O13 1.619157 1_555
H14 O27 1.019942 1_555
H14 O14 1.619157 1_555
H15 O26 1.019936 1_555
H15 O15 1.619157 1_555
H16 O25 1.019943 1_555
H16 O16 1.619157 1_555
H17 O24 1.019942 1_555
H17 O17 1.619157 1_555
H18 O27 0.998872 1_555
H19 O29 0.998880 1_555
H20 O28 0.998876 1_555
H21 O24 0.998872 1_555
H22 O26 0.998880 1_555
H23 O25 0.998876 1_555
O0 Se0 1.771625 1_555
O1 Se1 1.771622 1_555
O2 Se2 1.771628 1_555
O3 Se3 1.771625 1_555
O4 Se4 1.771622 1_555
O5 Se5 1.771628 1_555
O12 Se0 1.676816 1_555
O13 Se1 1.676809 1_565
O14 Se2 1.676808 1_455
O15 Se3 1.676816 1_555
O16 Se4 1.676809 1_655
O17 Se5 1.676808 1_545
O18 Se0 1.761668 1_555
O19 Se1 1.761665 1_555
O20 Se2 1.761671 1_555
O21 Se3 1.761668 1_555
O22 Se4 1.761665 1_555
O23 Se5 1.761671 1_555
