# generated using pymatgen
data_Na3VO4
_symmetry_space_group_name_H-M   'P 1'
_cell_length_a   9.22198700
_cell_length_b   9.77206800
_cell_length_c   10.70487000
_cell_angle_alpha   90.00000000
_cell_angle_beta   90.00000000
_cell_angle_gamma   90.00000000
_symmetry_Int_Tables_number   1
_chemical_formula_structural   Na3VO4
_chemical_formula_sum   'Na24 V8 O32'
_cell_volume   964.70023353
_cell_formula_units_Z   8
loop_
 _symmetry_equiv_pos_site_id
 _symmetry_equiv_pos_as_xyz
  1  'x, y, z'
loop_
 _atom_site_type_symbol
 _atom_site_label
 _atom_site_symmetry_multiplicity
 _atom_site_fract_x
 _atom_site_fract_y
 _atom_site_fract_z
 _atom_site_occupancy
  Na  Na0  1  0.03857800  0.62268900  0.59832400  1
  Na  Na1  1  0.03857800  0.12268900  0.90167600  1
  Na  Na2  1  0.11514500  0.54039100  0.14014100  1
  Na  Na3  1  0.11514500  0.04039100  0.35985900  1
  Na  Na4  1  0.22196500  0.23352500  0.62399800  1
  Na  Na5  1  0.22196500  0.73352500  0.87600200  1
  Na  Na6  1  0.27803500  0.23352500  0.12399800  1
  Na  Na7  1  0.27803500  0.73352500  0.37600200  1
  Na  Na8  1  0.38485500  0.04039100  0.85985900  1
  Na  Na9  1  0.38485500  0.54039100  0.64014100  1
  Na  Na10  1  0.46142200  0.62268900  0.09832400  1
  Na  Na11  1  0.46142200  0.12268900  0.40167600  1
  Na  Na12  1  0.53857800  0.87731100  0.59832400  1
  Na  Na13  1  0.53857800  0.37731100  0.90167600  1
  Na  Na14  1  0.61514500  0.45960900  0.35985900  1
  Na  Na15  1  0.61514500  0.95960900  0.14014100  1
  Na  Na16  1  0.72196500  0.26647500  0.62399800  1
  Na  Na17  1  0.72196500  0.76647500  0.87600200  1
  Na  Na18  1  0.77803500  0.26647500  0.12399800  1
  Na  Na19  1  0.77803500  0.76647500  0.37600200  1
  Na  Na20  1  0.88485500  0.95960900  0.64014100  1
  Na  Na21  1  0.88485500  0.45960900  0.85985900  1
  Na  Na22  1  0.96142200  0.87731100  0.09832400  1
  Na  Na23  1  0.96142200  0.37731100  0.40167600  1
  V  V0  1  0.20870800  0.40368500  0.88028800  1
  V  V1  1  0.20870800  0.90368500  0.61971200  1
  V  V2  1  0.29129200  0.90368500  0.11971200  1
  V  V3  1  0.29129200  0.40368500  0.38028800  1
  V  V4  1  0.70870800  0.09631500  0.88028800  1
  V  V5  1  0.70870800  0.59631500  0.61971200  1
  V  V6  1  0.79129200  0.59631500  0.11971200  1
  V  V7  1  0.79129200  0.09631500  0.38028800  1
  O  O0  1  0.08633200  0.34866200  0.99485000  1
  O  O1  1  0.08633200  0.84866200  0.50515000  1
  O  O2  1  0.11946900  0.97540800  0.74689300  1
  O  O3  1  0.11946900  0.47540800  0.75310700  1
  O  O4  1  0.17695800  0.02465600  0.05409500  1
  O  O5  1  0.17695800  0.52465600  0.44590500  1
  O  O6  1  0.18873400  0.76457400  0.17098300  1
  O  O7  1  0.18873400  0.26457400  0.32901700  1
  O  O8  1  0.31126600  0.26457400  0.82901700  1
  O  O9  1  0.31126600  0.76457400  0.67098300  1
  O  O10  1  0.32304200  0.02465600  0.55409500  1
  O  O11  1  0.32304200  0.52465600  0.94590500  1
  O  O12  1  0.38053100  0.97540800  0.24689300  1
  O  O13  1  0.38053100  0.47540800  0.25310700  1
  O  O14  1  0.41366800  0.34866200  0.49485000  1
  O  O15  1  0.41366800  0.84866200  0.00515000  1
  O  O16  1  0.58633200  0.65133800  0.50515000  1
  O  O17  1  0.58633200  0.15133800  0.99485000  1
  O  O18  1  0.61946900  0.52459200  0.74689300  1
  O  O19  1  0.61946900  0.02459200  0.75310700  1
  O  O20  1  0.67695800  0.47534400  0.05409500  1
  O  O21  1  0.67695800  0.97534400  0.44590500  1
  O  O22  1  0.68873400  0.23542600  0.32901700  1
  O  O23  1  0.68873400  0.73542600  0.17098300  1
  O  O24  1  0.81126600  0.73542600  0.67098300  1
  O  O25  1  0.81126600  0.23542600  0.82901700  1
  O  O26  1  0.82304200  0.97534400  0.94590500  1
  O  O27  1  0.82304200  0.47534400  0.55409500  1
  O  O28  1  0.88053100  0.52459200  0.24689300  1
  O  O29  1  0.88053100  0.02459200  0.25310700  1
  O  O30  1  0.91366800  0.65133800  0.00515000  1
  O  O31  1  0.91366800  0.15133800  0.49485000  1
loop_
_geom_bond_atom_site_label_1
_geom_bond_atom_site_label_2
_geom_bond_distance
_geom_bond_site_symmetry_2
Na0 O5 2.282207 1_555
Na0 O3 2.318041 1_555
Na0 O1 2.462728 1_555
Na0 O24 2.492590 1_455
Na0 O27 2.499643 1_455
Na1 O4 2.282207 1_556
Na1 O2 2.318041 1_545
Na1 O0 2.462728 1_555
Na1 O25 2.492590 1_455
Na1 O26 2.499643 1_445
Na2 O6 2.317080 1_555
Na2 O0 2.449482 1_554
Na2 O28 2.451723 1_455
Na2 O30 2.591502 1_455
Na2 O13 2.802735 1_555
Na2 O11 2.832447 1_554
Na3 O7 2.317080 1_555
Na3 O1 2.449482 1_545
Na3 O29 2.451723 1_455
Na3 O31 2.591502 1_455
Na3 O12 2.802735 1_545
Na3 O10 2.832447 1_555
Na4 O8 2.363680 1_555
Na4 O10 2.365342 1_555
Na4 O14 2.510510 1_555
Na4 O3 2.896668 1_555
Na4 O2 2.997725 1_545
Na5 O9 2.363680 1_555
Na5 O11 2.365342 1_555
Na5 O15 2.510510 1_556
Na5 O2 2.896668 1_555
Na5 O3 2.997725 1_555
Na6 O7 2.363680 1_555
Na6 O4 2.365342 1_555
Na6 O0 2.510510 1_554
Na6 O13 2.896668 1_555
Na6 O12 2.997725 1_545
Na7 O6 2.363680 1_555
Na7 O5 2.365342 1_555
Na7 O1 2.510510 1_555
Na7 O12 2.896668 1_555
Na7 O13 2.997725 1_555
Na8 O8 2.317080 1_555
Na8 O15 2.449482 1_546
Na8 O19 2.451723 1_555
Na8 O17 2.591502 1_555
Na8 O2 2.802735 1_545
Na8 O4 2.832447 1_556
Na9 O9 2.317080 1_555
Na9 O14 2.449482 1_555
Na9 O18 2.451723 1_555
Na9 O16 2.591502 1_555
Na9 O3 2.802735 1_555
Na9 O5 2.832447 1_555
Na10 O11 2.282207 1_554
Na10 O13 2.318041 1_555
Na10 O15 2.462728 1_555
Na10 O23 2.492590 1_555
Na10 O20 2.499643 1_555
Na11 O10 2.282207 1_555
Na11 O12 2.318041 1_545
Na11 O14 2.462728 1_555
Na11 O22 2.492590 1_555
Na11 O21 2.499643 1_545
Na12 O21 2.282207 1_555
Na12 O19 2.318041 1_565
Na12 O16 2.462728 1_555
Na12 O9 2.492590 1_555
Na12 O10 2.499643 1_565
Na13 O20 2.282207 1_556
Na13 O18 2.318041 1_555
Na13 O17 2.462728 1_555
Na13 O8 2.492590 1_555
Na13 O11 2.499643 1_555
Na14 O22 2.317080 1_555
Na14 O16 2.449482 1_555
Na14 O13 2.451723 1_555
Na14 O14 2.591502 1_555
Na14 O28 2.802735 1_555
Na14 O27 2.832447 1_555
Na15 O23 2.317080 1_555
Na15 O17 2.449482 1_564
Na15 O12 2.451723 1_555
Na15 O15 2.591502 1_555
Na15 O29 2.802735 1_565
Na15 O26 2.832447 1_554
Na16 O25 2.363680 1_555
Na16 O27 2.365342 1_555
Na16 O31 2.510510 1_555
Na16 O19 2.896668 1_555
Na16 O18 2.997725 1_555
Na17 O24 2.363680 1_555
Na17 O26 2.365342 1_555
Na17 O30 2.510510 1_556
Na17 O18 2.896668 1_555
Na17 O19 2.997725 1_565
Na18 O22 2.363680 1_555
Na18 O20 2.365342 1_555
Na18 O17 2.510510 1_554
Na18 O29 2.896668 1_555
Na18 O28 2.997725 1_555
Na19 O23 2.363680 1_555
Na19 O21 2.365342 1_555
Na19 O16 2.510510 1_555
Na19 O28 2.896668 1_555
Na19 O29 2.997725 1_565
Na20 O24 2.317080 1_555
Na20 O31 2.449482 1_565
Na20 O2 2.451723 1_655
Na20 O1 2.591502 1_655
Na20 O19 2.802735 1_565
Na20 O21 2.832447 1_555
Na21 O25 2.317080 1_555
Na21 O30 2.449482 1_556
Na21 O3 2.451723 1_655
Na21 O0 2.591502 1_655
Na21 O18 2.802735 1_555
Na21 O20 2.832447 1_556
Na22 O26 2.282207 1_554
Na22 O29 2.318041 1_565
Na22 O30 2.462728 1_555
Na22 O6 2.492590 1_655
Na22 O4 2.499643 1_665
Na23 O27 2.282207 1_555
Na23 O28 2.318041 1_555
Na23 O31 2.462728 1_555
Na23 O7 2.492590 1_655
Na23 O5 2.499643 1_655
O0 V0 1.751205 1_555
O1 V1 1.751205 1_555
O2 V1 1.738408 1_555
O3 V0 1.738408 1_555
O4 V2 1.732794 1_545
O5 V3 1.732794 1_555
O6 V2 1.744628 1_555
O7 V3 1.744628 1_555
O8 V0 1.744628 1_555
O9 V1 1.744628 1_555
O10 V1 1.732794 1_545
O11 V0 1.732794 1_555
O12 V2 1.738408 1_555
O13 V3 1.738408 1_555
O14 V3 1.751205 1_555
O15 V2 1.751205 1_555
O16 V5 1.751205 1_555
O17 V4 1.751205 1_555
O18 V5 1.738408 1_555
O19 V4 1.738408 1_555
O20 V6 1.732794 1_555
O21 V7 1.732794 1_565
O22 V7 1.744628 1_555
O23 V6 1.744628 1_555
O24 V5 1.744628 1_555
O25 V4 1.744628 1_555
O26 V4 1.732794 1_565
O27 V5 1.732794 1_555
O28 V6 1.738408 1_555
O29 V7 1.738408 1_555
O30 V6 1.751205 1_555
O31 V7 1.751205 1_555
