# generated using pymatgen
data_Li8Mn3Fe5(BO3)8
_symmetry_space_group_name_H-M   'P 1'
_cell_length_a   5.24043000
_cell_length_b   5.24676308
_cell_length_c   20.77843080
_cell_angle_alpha   90.70526441
_cell_angle_beta   90.58228996
_cell_angle_gamma   119.89191226
_symmetry_Int_Tables_number   1
_chemical_formula_structural   Li8Mn3Fe5(BO3)8
_chemical_formula_sum   'Li8 Mn3 Fe5 B8 O24'
_cell_volume   495.18113005
_cell_formula_units_Z   1
loop_
 _symmetry_equiv_pos_site_id
 _symmetry_equiv_pos_as_xyz
  1  'x, y, z'
loop_
 _atom_site_type_symbol
 _atom_site_label
 _atom_site_symmetry_multiplicity
 _atom_site_fract_x
 _atom_site_fract_y
 _atom_site_fract_z
 _atom_site_occupancy
  Li  Li0  1  0.67456900  0.64951900  0.33314900  1
  Li  Li1  1  0.65325200  0.67888900  0.08362100  1
  Li  Li2  1  0.67813400  0.65340800  0.83357400  1
  Li  Li3  1  0.65251300  0.67852300  0.58344400  1
  Li  Li4  1  0.34458800  0.33366000  0.20940000  1
  Li  Li5  1  0.33538200  0.34793000  0.45822800  1
  Li  Li6  1  0.34704400  0.33392600  0.70883100  1
  Li  Li7  1  0.33525600  0.34755200  0.95864500  1
  Mn  Mn0  1  0.32251700  0.00047000  0.06693800  1
  Mn  Mn1  1  0.32292700  0.00034000  0.56636600  1
  Mn  Mn2  1  0.99986300  0.32366200  0.81644600  1
  Fe  Fe0  1  0.67762600  0.00194500  0.44065100  1
  Fe  Fe1  1  0.67599600  0.00066700  0.94154400  1
  Fe  Fe2  1  0.99023300  0.32346000  0.31658500  1
  Fe  Fe3  1  0.00177900  0.67405900  0.19192000  1
  Fe  Fe4  1  0.00023800  0.67460200  0.69140800  1
  B  B0  1  0.99693700  0.33981200  0.06301600  1
  B  B1  1  0.99676500  0.33969300  0.56268200  1
  B  B2  1  0.67006100  0.00527700  0.18896400  1
  B  B3  1  0.66921000  0.00551100  0.68824000  1
  B  B4  1  0.33875000  0.99780800  0.31302300  1
  B  B5  1  0.33955300  0.99714400  0.81281700  1
  B  B6  1  0.00794600  0.67013200  0.43737500  1
  B  B7  1  0.00682900  0.66985700  0.93819300  1
  O  O0  1  0.93181400  0.25301800  0.20780600  1
  O  O1  1  0.93157700  0.25370800  0.70724900  1
  O  O2  1  0.74665900  0.06963200  0.04740000  1
  O  O3  1  0.96632700  0.57688000  0.08379100  1
  O  O4  1  0.74677600  0.06968600  0.54674500  1
  O  O5  1  0.96613200  0.57669300  0.58353200  1
  O  O6  1  0.41860500  0.02516700  0.17451000  1
  O  O7  1  0.73475500  0.65315600  0.43125700  1
  O  O8  1  0.41865900  0.02622100  0.67365700  1
  O  O9  1  0.73397500  0.65208900  0.93180700  1
  O  O10  1  0.65203800  0.73207600  0.18267700  1
  O  O11  1  0.65108700  0.73278700  0.68204600  1
  O  O12  1  0.35828800  0.26818000  0.30685200  1
  O  O13  1  0.36948300  0.27319300  0.80598300  1
  O  O14  1  0.27323400  0.36945400  0.05603900  1
  O  O15  1  0.58475700  0.97484800  0.33199000  1
  O  O16  1  0.27305800  0.36925700  0.55583300  1
  O  O17  1  0.57661500  0.96639600  0.83357700  1
  O  O18  1  0.02920600  0.42063400  0.42275100  1
  O  O19  1  0.02728900  0.41908400  0.92369400  1
  O  O20  1  0.25620200  0.93198300  0.45669000  1
  O  O21  1  0.25461600  0.93167300  0.95741200  1
  O  O22  1  0.07293700  0.74026900  0.29837800  1
  O  O23  1  0.06914100  0.74726700  0.79706600  1
loop_
_geom_bond_atom_site_label_1
_geom_bond_atom_site_label_2
_geom_bond_distance
_geom_bond_site_symmetry_2
Li0 O12 1.923067 1_555
Li0 O15 1.984240 1_555
Li0 O22 2.038437 1_655
Li0 O7 2.058014 1_555
Li1 O14 1.913501 1_555
Li1 O3 1.962996 1_555
Li1 O2 2.013533 1_565
Li1 O10 2.074154 1_555
Li2 O13 1.913465 1_555
Li2 O17 1.962281 1_555
Li2 O23 2.012850 1_655
Li2 O9 2.059638 1_555
Li3 O16 1.911567 1_555
Li3 O5 1.965126 1_555
Li3 O4 2.018236 1_565
Li3 O11 2.065611 1_555
Li4 O6 1.974448 1_555
Li4 O0 1.986236 1_455
Li4 O10 1.990910 1_555
Li4 O12 2.064500 1_555
Li5 O18 1.963732 1_555
Li5 O7 1.991009 1_555
Li5 O20 2.007830 1_545
Li5 O16 2.067994 1_555
Li6 O8 1.965174 1_555
Li6 O11 1.987747 1_555
Li6 O1 2.000844 1_455
Li6 O13 2.058819 1_555
Li7 O19 1.964557 1_555
Li7 O9 1.986910 1_555
Li7 O21 2.004935 1_545
Li7 O14 2.063748 1_556
Mn0 O14 2.091395 1_555
Mn0 O3 2.108017 1_445
Mn0 O2 2.110656 1_555
Mn0 O6 2.274054 1_555
Mn0 O21 2.295947 1_544
Mn1 O16 2.091956 1_555
Mn1 O4 2.109184 1_555
Mn1 O5 2.110582 1_445
Mn1 O8 2.267594 1_555
Mn1 O20 2.298466 1_545
Mn2 O13 2.094660 1_655
Mn2 O17 2.109121 1_545
Mn2 O23 2.110559 1_655
Mn2 O19 2.265300 1_655
Mn2 O1 2.289749 1_555
Fe0 O7 2.003784 1_545
Fe0 O20 2.081583 1_545
Fe0 O18 2.087712 1_655
Fe0 O4 2.225627 1_555
Fe0 O15 2.292498 1_545
Fe1 O9 2.006030 1_545
Fe1 O21 2.082532 1_545
Fe1 O19 2.086086 1_655
Fe1 O2 2.221767 1_556
Fe1 O17 2.282394 1_545
Fe2 O15 2.029151 1_545
Fe2 O22 2.047552 1_655
Fe2 O12 2.099819 1_655
Fe2 O18 2.242163 1_655
Fe2 O0 2.278525 1_555
Fe3 O10 2.009737 1_455
Fe3 O6 2.077866 1_565
Fe3 O0 2.082455 1_455
Fe3 O22 2.233385 1_555
Fe3 O3 2.282822 1_455
Fe4 O11 2.007442 1_455
Fe4 O1 2.083949 1_455
Fe4 O8 2.085351 1_565
Fe4 O23 2.218472 1_555
Fe4 O5 2.278624 1_455
B0 O14 1.386374 1_655
B0 O3 1.395088 1_555
B0 O2 1.400665 1_555
B1 O16 1.386213 1_655
B1 O5 1.395286 1_555
B1 O4 1.400937 1_555
B2 O0 1.387016 1_555
B2 O10 1.393154 1_545
B2 O6 1.402611 1_555
B3 O11 1.390279 1_545
B3 O1 1.390648 1_555
B3 O8 1.400895 1_555
B4 O12 1.378137 1_565
B4 O22 1.401430 1_555
B4 O15 1.406221 1_555
B5 O13 1.386222 1_565
B5 O17 1.394994 1_555
B5 O23 1.400817 1_555
B6 O20 1.391188 1_555
B6 O7 1.393774 1_455
B6 O18 1.398084 1_555
B7 O21 1.389481 1_555
B7 O9 1.390614 1_455
B7 O19 1.401769 1_555
