# generated using pymatgen
data_Na2Ti2O5
_symmetry_space_group_name_H-M   'P 1'
_cell_length_a   5.49889412
_cell_length_b   6.60095132
_cell_length_c   16.33449972
_cell_angle_alpha   90.00000000
_cell_angle_beta   90.00000000
_cell_angle_gamma   90.00000000
_symmetry_Int_Tables_number   1
_chemical_formula_structural   Na2Ti2O5
_chemical_formula_sum   'Na8 Ti8 O20'
_cell_volume   592.90856662
_cell_formula_units_Z   4
loop_
 _symmetry_equiv_pos_site_id
 _symmetry_equiv_pos_as_xyz
  1  'x, y, z'
loop_
 _atom_site_type_symbol
 _atom_site_label
 _atom_site_symmetry_multiplicity
 _atom_site_fract_x
 _atom_site_fract_y
 _atom_site_fract_z
 _atom_site_occupancy
  Na  Na0  1  0.79154111  0.09765414  0.94395987  1
  Na  Na1  1  0.20845889  0.09765414  0.44395987  1
  Na  Na2  1  0.29154111  0.40234586  0.94395987  1
  Na  Na3  1  0.70845889  0.40234586  0.44395987  1
  Na  Na4  1  0.29154111  0.59765414  0.55604013  1
  Na  Na5  1  0.70845889  0.59765414  0.05604013  1
  Na  Na6  1  0.79154111  0.90234586  0.55604013  1
  Na  Na7  1  0.20845889  0.90234586  0.05604013  1
  Ti  Ti0  1  0.29672573  0.10225627  0.64831928  1
  Ti  Ti1  1  0.70327427  0.10225627  0.14831928  1
  Ti  Ti2  1  0.79672573  0.39774373  0.64831928  1
  Ti  Ti3  1  0.20327427  0.39774373  0.14831928  1
  Ti  Ti4  1  0.20327427  0.60225627  0.35168072  1
  Ti  Ti5  1  0.79672573  0.60225627  0.85168072  1
  Ti  Ti6  1  0.29672573  0.89774373  0.85168072  1
  Ti  Ti7  1  0.70327427  0.89774373  0.35168072  1
  O  O0  1  0.23227227  -0.00000000  0.75000000  1
  O  O1  1  0.76772773  -0.00000000  0.25000000  1
  O  O2  1  0.21157881  0.06666530  0.92901872  1
  O  O3  1  0.78842119  0.06666530  0.42901872  1
  O  O4  1  0.62458245  0.15849155  0.63321763  1
  O  O5  1  0.37541755  0.15849155  0.13321763  1
  O  O6  1  0.12458245  0.34150845  0.63321763  1
  O  O7  1  0.87541755  0.34150845  0.13321763  1
  O  O8  1  0.71157881  0.43333470  0.92901872  1
  O  O9  1  0.28842119  0.43333470  0.42901872  1
  O  O10  1  0.73227227  0.50000000  0.75000000  1
  O  O11  1  0.26772773  0.50000000  0.25000000  1
  O  O12  1  0.71157881  0.56666530  0.57098128  1
  O  O13  1  0.28842119  0.56666530  0.07098128  1
  O  O14  1  0.12458245  0.65849155  0.86678237  1
  O  O15  1  0.87541755  0.65849155  0.36678237  1
  O  O16  1  0.62458245  0.84150845  0.86678237  1
  O  O17  1  0.37541755  0.84150845  0.36678237  1
  O  O18  1  0.21157881  0.93333470  0.57098128  1
  O  O19  1  0.78842119  0.93333470  0.07098128  1
loop_
_geom_bond_atom_site_label_1
_geom_bond_atom_site_label_2
_geom_bond_distance
_geom_bond_site_symmetry_2
Na0 O8 2.272162 1_555
Na0 O16 2.300209 1_545
Na0 O2 2.331591 1_655
Na0 O19 2.341307 1_546
Na1 O9 2.272162 1_555
Na1 O17 2.300209 1_545
Na1 O3 2.331591 1_455
Na1 O18 2.341307 1_545
Na2 O2 2.272162 1_555
Na2 O14 2.300209 1_555
Na2 O8 2.331591 1_555
Na2 O13 2.341307 1_556
Na3 O3 2.272162 1_555
Na3 O15 2.300209 1_555
Na3 O9 2.331591 1_555
Na3 O12 2.341307 1_555
Na4 O18 2.272162 1_555
Na4 O6 2.300209 1_555
Na4 O12 2.331591 1_555
Na4 O9 2.341307 1_555
Na5 O19 2.272162 1_555
Na5 O7 2.300209 1_555
Na5 O13 2.331591 1_555
Na5 O8 2.341307 1_554
Na6 O12 2.272162 1_555
Na6 O4 2.300209 1_565
Na6 O18 2.331591 1_655
Na6 O3 2.341307 1_565
Na7 O13 2.272162 1_555
Na7 O5 2.300209 1_565
Na7 O19 2.331591 1_455
Na7 O2 2.341307 1_564
O0 Ti0 1.827519 1_555
O0 Ti6 1.827519 1_545
O1 Ti7 1.827519 1_545
O1 Ti1 1.827519 1_555
O2 Ti6 1.748833 1_545
O3 Ti7 1.748833 1_545
O4 Ti0 1.857124 1_555
O4 Ti2 1.857703 1_555
O5 Ti1 1.857124 1_555
O5 Ti3 1.857703 1_555
O6 Ti2 1.857124 1_455
O6 Ti0 1.857703 1_555
O7 Ti3 1.857124 1_655
O7 Ti1 1.857703 1_555
O8 Ti5 1.748833 1_555
O9 Ti4 1.748833 1_555
O10 Ti2 1.827519 1_555
O10 Ti5 1.827519 1_555
O11 Ti3 1.827519 1_555
O11 Ti4 1.827519 1_555
O12 Ti2 1.748833 1_555
O13 Ti3 1.748833 1_555
O14 Ti5 1.857124 1_455
O14 Ti6 1.857703 1_555
O15 Ti4 1.857124 1_655
O15 Ti7 1.857703 1_555
O16 Ti6 1.857124 1_555
O16 Ti5 1.857703 1_555
O17 Ti7 1.857124 1_555
O17 Ti4 1.857703 1_555
O18 Ti0 1.748833 1_565
O19 Ti1 1.748833 1_565
