# generated using pymatgen
data_Sr12Fe8O27
_symmetry_space_group_name_H-M   'P 1'
_cell_length_a   7.71718956
_cell_length_b   8.61524841
_cell_length_c   10.41733923
_cell_angle_alpha   94.71568986
_cell_angle_beta   100.69282585
_cell_angle_gamma   116.59390847
_symmetry_Int_Tables_number   1
_chemical_formula_structural   Sr12Fe8O27
_chemical_formula_sum   'Sr12 Fe8 O27'
_cell_volume   597.70981140
_cell_formula_units_Z   1
loop_
 _symmetry_equiv_pos_site_id
 _symmetry_equiv_pos_as_xyz
  1  'x, y, z'
loop_
 _atom_site_type_symbol
 _atom_site_label
 _atom_site_symmetry_multiplicity
 _atom_site_fract_x
 _atom_site_fract_y
 _atom_site_fract_z
 _atom_site_occupancy
  Sr  Sr0  1  0.23992767  0.16010410  0.63812114  1
  Sr  Sr1  1  0.73759699  0.15928801  0.63455364  1
  Sr  Sr2  1  0.38619673  0.25755683  0.00010115  1
  Sr  Sr3  1  0.51324364  0.34294756  0.36525918  1
  Sr  Sr4  1  0.87124529  0.25712247  0.99996213  1
  Sr  Sr5  1  0.01122627  0.34096154  0.36511927  1
  Sr  Sr6  1  0.98877373  0.65903846  0.63488073  1
  Sr  Sr7  1  0.48675636  0.65705244  0.63474082  1
  Sr  Sr8  1  0.12875471  0.74287753  0.00003787  1
  Sr  Sr9  1  0.26240301  0.84071199  0.36544636  1
  Sr  Sr10  1  0.76007233  0.83989590  0.36187886  1
  Sr  Sr11  1  0.61380327  0.74244317  0.99989885  1
  Fe  Fe0  1  0.07775679  0.05168413  0.20567052  1
  Fe  Fe1  1  0.57113517  0.04799765  0.19110300  1
  Fe  Fe2  1  0.67902531  0.45351727  0.80700698  1
  Fe  Fe3  1  0.17671836  0.45069423  0.80721771  1
  Fe  Fe4  1  0.82328164  0.54930577  0.19278229  1
  Fe  Fe5  1  0.32097469  0.54648273  0.19299302  1
  Fe  Fe6  1  0.42886483  0.95200235  0.80889700  1
  Fe  Fe7  1  0.92224321  0.94831587  0.79432948  1
  O  O0  1  0.15189131  0.10016794  0.39619788  1
  O  O1  1  0.30597948  0.04541614  0.18024353  1
  O  O2  1  0.55312101  0.19972117  0.80931266  1
  O  O3  1  0.64152121  0.09609499  0.38187957  1
  O  O4  1  0.82994951  0.04548334  0.18150138  1
  O  O5  1  0.05183473  0.19501963  0.81994062  1
  O  O6  1  0.61180898  0.41211279  0.61563504  1
  O  O7  1  0.69520331  0.29494150  0.19063717  1
  O  O8  1  0.92908360  0.45275317  0.81005978  1
  O  O9  1  0.10097287  0.39750875  0.61589930  1
  O  O10  1  0.42864663  0.45276303  0.80958230  1
  O  O11  1  0.18737560  0.28509058  0.17959607  1
  O  O12  1  0.81262440  0.71490942  0.82040393  1
  O  O13  1  0.74877649  0.49768774  0.00032223  1
  O  O14  1  0.57135337  0.54723697  0.19041770  1
  O  O15  1  0.89902713  0.60249125  0.38410070  1
  O  O16  1  0.30479669  0.70505850  0.80936283  1
  O  O17  1  0.38819102  0.58788721  0.38436496  1
  O  O18  1  0.25122351  0.50231226  -0.00032223  1
  O  O19  1  0.07091640  0.54724683  0.18994022  1
  O  O20  1  0.69402052  0.95458386  0.81975647  1
  O  O21  1  0.35847879  0.90390501  0.61812043  1
  O  O22  1  0.94816527  0.80498037  0.18005938  1
  O  O23  1  0.17005049  0.95451666  0.81849862  1
  O  O24  1  0.84810869  0.89983206  0.60380212  1
  O  O25  1  0.44687899  0.80027883  0.19068734  1
  O  O26  1  0.50000000  -0.00000000  -0.00000000  1
loop_
_geom_bond_atom_site_label_1
_geom_bond_atom_site_label_2
_geom_bond_distance
_geom_bond_site_symmetry_2
Fe0 O1 1.852284 1_555
Fe0 O4 1.857706 1_455
Fe0 O11 1.866815 1_555
Fe0 O22 1.869059 1_445
Fe0 O0 1.915599 1_555
Fe1 O7 1.903311 1_555
Fe1 O25 1.907575 1_545
Fe1 O3 1.918054 1_555
Fe1 O26 1.921310 1_555
Fe1 O1 2.018266 1_555
Fe1 O4 2.027874 1_555
Fe2 O6 1.924672 1_555
Fe2 O8 1.927074 1_555
Fe2 O10 1.934492 1_555
Fe2 O13 1.943813 1_556
Fe2 O2 1.959765 1_555
Fe2 O12 1.992471 1_555
Fe3 O9 1.923935 1_555
Fe3 O8 1.924719 1_455
Fe3 O10 1.931809 1_555
Fe3 O18 1.935138 1_556
Fe3 O16 1.955555 1_555
Fe3 O5 1.998255 1_555
Fe4 O15 1.923935 1_555
Fe4 O19 1.924719 1_655
Fe4 O14 1.931809 1_555
Fe4 O13 1.935138 1_555
Fe4 O7 1.955555 1_555
Fe4 O22 1.998255 1_555
Fe5 O17 1.924672 1_555
Fe5 O19 1.927074 1_555
Fe5 O14 1.934492 1_555
Fe5 O18 1.943813 1_555
Fe5 O25 1.959765 1_555
Fe5 O11 1.992471 1_555
Fe6 O16 1.903311 1_555
Fe6 O2 1.907575 1_565
Fe6 O21 1.918054 1_555
Fe6 O26 1.921310 1_566
Fe6 O20 2.018266 1_555
Fe6 O23 2.027874 1_555
Fe7 O20 1.852284 1_555
Fe7 O23 1.857706 1_655
Fe7 O12 1.866815 1_555
Fe7 O5 1.869059 1_665
Fe7 O24 1.915599 1_555
O0 Sr0 2.432315 1_555
O0 Sr3 2.734465 1_555
O0 Sr9 2.741690 1_545
O0 Sr5 2.753723 1_555
O0 Sr10 2.774048 1_445
O1 Sr9 2.686037 1_545
O1 Sr3 2.686359 1_555
O1 Sr2 2.688346 1_555
O1 Sr8 2.690593 1_545
O2 Sr0 2.588521 1_555
O2 Sr1 2.600748 1_555
O2 Sr4 2.675500 1_555
O2 Sr2 2.686972 1_556
O3 Sr1 2.540338 1_555
O3 Sr3 2.722991 1_555
O3 Sr9 2.723758 1_545
O3 Sr5 2.734505 1_655
O3 Sr10 2.748696 1_545
O4 Sr10 2.650818 1_545
O4 Sr5 2.667211 1_655
O4 Sr4 2.696832 1_554
O4 Sr11 2.700978 1_544
O5 Sr0 2.665051 1_555
O5 Sr1 2.683502 1_455
O5 Sr4 2.686614 1_455
O5 Sr2 2.694943 1_556
O6 Sr3 2.517746 1_555
O6 Sr6 2.683508 1_555
O6 Sr7 2.692487 1_555
O6 Sr1 2.760100 1_555
O6 Sr0 2.785545 1_555
O7 Sr5 2.603768 1_655
O7 Sr3 2.606946 1_555
O7 Sr2 2.679714 1_555
O7 Sr4 2.681155 1_554
O8 Sr1 2.609771 1_555
O8 Sr6 2.610197 1_555
O8 Sr8 2.673055 1_656
O8 Sr4 2.675025 1_555
O9 Sr5 2.521741 1_555
O9 Sr1 2.688600 1_455
O9 Sr0 2.708537 1_555
O9 Sr6 2.757255 1_455
O9 Sr7 2.766340 1_555
O10 Sr0 2.583618 1_555
O10 Sr7 2.596090 1_555
O10 Sr11 2.672673 1_555
O10 Sr2 2.677956 1_556
O11 Sr4 2.686468 1_454
O11 Sr5 2.687484 1_555
O11 Sr2 2.687830 1_555
O11 Sr3 2.688433 1_555
O12 Sr8 2.686468 1_656
O12 Sr6 2.687484 1_555
O12 Sr11 2.687830 1_555
O12 Sr7 2.688433 1_555
O13 Sr2 2.631217 1_555
O13 Sr4 2.634848 1_554
O13 Sr11 2.738174 1_554
O13 Sr8 2.742126 1_655
O14 Sr10 2.583618 1_555
O14 Sr3 2.596090 1_555
O14 Sr2 2.672673 1_555
O14 Sr11 2.677956 1_554
O15 Sr6 2.521741 1_555
O15 Sr9 2.688600 1_655
O15 Sr10 2.708537 1_555
O15 Sr5 2.757255 1_655
O15 Sr3 2.766340 1_555
O16 Sr6 2.603768 1_455
O16 Sr7 2.606946 1_555
O16 Sr11 2.679714 1_555
O16 Sr8 2.681155 1_556
O17 Sr7 2.517746 1_555
O17 Sr5 2.683508 1_555
O17 Sr3 2.692487 1_555
O17 Sr9 2.760100 1_555
O17 Sr10 2.785545 1_555
O18 Sr11 2.631217 1_554
O18 Sr8 2.634848 1_555
O18 Sr2 2.738174 1_555
O18 Sr4 2.742126 1_454
O19 Sr9 2.609771 1_555
O19 Sr5 2.610197 1_555
O19 Sr4 2.673055 1_454
O19 Sr8 2.675025 1_555
O20 Sr1 2.686037 1_565
O20 Sr7 2.686359 1_555
O20 Sr11 2.688346 1_555
O20 Sr4 2.690593 1_565
O21 Sr9 2.540338 1_555
O21 Sr7 2.722991 1_555
O21 Sr1 2.723758 1_565
O21 Sr6 2.734505 1_455
O21 Sr0 2.748696 1_565
O22 Sr10 2.665051 1_555
O22 Sr9 2.683502 1_655
O22 Sr8 2.686614 1_655
O22 Sr11 2.694943 1_554
O23 Sr0 2.650818 1_565
O23 Sr6 2.667211 1_455
O23 Sr8 2.696832 1_556
O23 Sr2 2.700978 1_566
O24 Sr10 2.432315 1_555
O24 Sr7 2.734465 1_555
O24 Sr1 2.741690 1_565
O24 Sr6 2.753723 1_555
O24 Sr0 2.774048 1_665
O25 Sr10 2.588521 1_555
O25 Sr9 2.600748 1_555
O25 Sr8 2.675500 1_555
O25 Sr11 2.686972 1_554
O26 Sr8 2.726444 1_545
O26 Sr4 2.726444 1_554
O26 Sr11 2.727567 1_544
O26 Sr2 2.727567 1_555
