# generated using pymatgen
data_Fe13Cu5O24
_symmetry_space_group_name_H-M   'P 1'
_cell_length_a   6.01039505
_cell_length_b   6.06776970
_cell_length_c   13.39044865
_cell_angle_alpha   103.47708229
_cell_angle_beta   102.81761367
_cell_angle_gamma   88.39286672
_symmetry_Int_Tables_number   1
_chemical_formula_structural   Fe13Cu5O24
_chemical_formula_sum   'Fe13 Cu5 O24'
_cell_volume   462.92006022
_cell_formula_units_Z   1
loop_
 _symmetry_equiv_pos_site_id
 _symmetry_equiv_pos_as_xyz
  1  'x, y, z'
loop_
 _atom_site_type_symbol
 _atom_site_label
 _atom_site_symmetry_multiplicity
 _atom_site_fract_x
 _atom_site_fract_y
 _atom_site_fract_z
 _atom_site_occupancy
  Fe  Fe0  1  0.99369900  0.00681100  0.00261000  1
  Fe  Fe1  1  0.58941200  0.07703600  0.16408000  1
  Fe  Fe2  1  0.12423500  0.37896900  0.25079900  1
  Fe  Fe3  1  0.12008000  0.87340000  0.24769000  1
  Fe  Fe4  1  0.66219700  0.65499800  0.33664500  1
  Fe  Fe5  1  0.45774400  0.21055500  0.41974500  1
  Fe  Fe6  1  0.26918800  0.76407100  0.49965700  1
  Fe  Fe7  1  0.79228200  0.04183100  0.58338000  1
  Fe  Fe8  1  0.31470800  0.31946900  0.66688500  1
  Fe  Fe9  1  0.12528200  0.87281300  0.74722300  1
  Fe  Fe10  1  0.92141400  0.42760900  0.83030100  1
  Fe  Fe11  1  0.46248100  0.20909400  0.91814700  1
  Fe  Fe12  1  0.45942300  0.70382500  0.91590500  1
  Cu  Cu0  1  0.79041500  0.54081800  0.08300500  1
  Cu  Cu1  1  0.29208100  0.54159500  0.08295600  1
  Cu  Cu2  1  0.95779200  0.21082300  0.41736500  1
  Cu  Cu3  1  0.79165500  0.54188800  0.58407900  1
  Cu  Cu4  1  0.62598200  0.87203900  0.74951000  1
  O  O0  1  0.55967600  0.28597600  0.07585100  1
  O  O1  1  0.53898000  0.77498700  0.07612300  1
  O  O2  1  0.04385300  0.30809800  0.09002600  1
  O  O3  1  0.02428600  0.80020700  0.09020600  1
  O  O4  1  0.35581600  0.62124300  0.24455100  1
  O  O5  1  0.90095700  0.63694900  0.26082400  1
  O  O6  1  0.36080100  0.12206000  0.25402800  1
  O  O7  1  0.89517900  0.13567800  0.25642800  1
  O  O8  1  0.23410700  0.46125000  0.41121600  1
  O  O9  1  0.20521600  0.97855500  0.40900900  1
  O  O10  1  0.68483600  0.95601000  0.42460100  1
  O  O11  1  0.70766900  0.43522400  0.42220400  1
  O  O12  1  0.53051500  0.26388300  0.57858700  1
  O  O13  1  0.01346000  0.28950400  0.57646800  1
  O  O14  1  0.57106300  0.79450400  0.59092300  1
  O  O15  1  0.05239200  0.81996900  0.58828400  1
  O  O16  1  0.87634200  0.64720900  0.74535800  1
  O  O17  1  0.89831200  0.12702800  0.74261900  1
  O  O18  1  0.37818400  0.10325500  0.75693700  1
  O  O19  1  0.34963700  0.62285100  0.75560900  1
  O  O20  1  0.22251300  0.96011700  0.91225900  1
  O  O21  1  0.68800800  0.94645200  0.90959100  1
  O  O22  1  0.68099200  0.44782500  0.90571200  1
  O  O23  1  0.22713400  0.46352000  0.92260200  1
loop_
_geom_bond_atom_site_label_1
_geom_bond_atom_site_label_2
_geom_bond_distance
_geom_bond_site_symmetry_2
Fe0 O3 1.886259 1_645
Fe0 O2 1.918343 1_655
Fe0 O21 1.967495 1_544
Fe0 O20 1.997986 1_644
Fe1 O0 1.904410 1_555
Fe1 O1 1.924756 1_545
Fe1 O7 1.963782 1_555
Fe1 O6 1.993284 1_555
Fe2 O5 2.033093 1_455
Fe2 O2 2.042458 1_555
Fe2 O8 2.046637 1_555
Fe2 O7 2.071763 1_455
Fe2 O4 2.080678 1_555
Fe2 O6 2.081685 1_555
Fe3 O3 2.003694 1_555
Fe3 O5 2.037225 1_455
Fe3 O9 2.054403 1_555
Fe3 O4 2.055510 1_555
Fe3 O7 2.058229 1_465
Fe3 O6 2.094113 1_565
Fe4 O10 1.918803 1_555
Fe4 O5 1.920400 1_555
Fe4 O11 1.928300 1_555
Fe4 O4 1.962027 1_555
Fe5 O8 2.007953 1_555
Fe5 O12 2.023452 1_555
Fe5 O10 2.035176 1_545
Fe5 O11 2.046449 1_555
Fe5 O9 2.057851 1_545
Fe5 O6 2.107222 1_555
Fe6 O15 1.922245 1_555
Fe6 O8 1.928684 1_555
Fe6 O14 1.936334 1_555
Fe6 O9 1.953487 1_555
Fe7 O10 2.025390 1_545
Fe7 O17 2.030211 1_555
Fe7 O15 2.034280 1_645
Fe7 O12 2.042411 1_555
Fe7 O13 2.065368 1_655
Fe7 O14 2.066981 1_545
Fe8 O12 1.914205 1_555
Fe8 O13 1.928849 1_555
Fe8 O19 1.932845 1_555
Fe8 O18 1.956006 1_555
Fe9 O19 2.007201 1_555
Fe9 O15 2.024932 1_555
Fe9 O17 2.033009 1_465
Fe9 O16 2.048321 1_455
Fe9 O18 2.056530 1_565
Fe9 O20 2.098692 1_555
Fe10 O17 1.915199 1_555
Fe10 O16 1.921486 1_555
Fe10 O22 1.924210 1_555
Fe10 O23 1.959776 1_655
Fe11 O0 2.006747 1_556
Fe11 O22 2.041345 1_555
Fe11 O18 2.053242 1_555
Fe11 O21 2.062251 1_545
Fe11 O23 2.063925 1_555
Fe11 O20 2.094044 1_545
Fe12 O22 2.017619 1_555
Fe12 O1 2.035292 1_556
Fe12 O19 2.045042 1_555
Fe12 O21 2.070051 1_555
Fe12 O23 2.077032 1_555
Fe12 O20 2.080547 1_555
Cu0 O1 2.046948 1_555
Cu0 O2 2.049599 1_655
Cu0 O0 2.077473 1_555
Cu0 O3 2.110827 1_655
Cu0 O22 2.256240 1_554
Cu0 O5 2.263544 1_555
Cu1 O23 2.037563 1_554
Cu1 O4 2.053688 1_555
Cu1 O1 2.110584 1_555
Cu1 O2 2.118010 1_555
Cu1 O0 2.204710 1_555
Cu1 O3 2.217909 1_555
Cu2 O11 2.001373 1_555
Cu2 O9 2.023132 1_645
Cu2 O13 2.024186 1_655
Cu2 O7 2.045828 1_555
Cu2 O8 2.309640 1_655
Cu2 O10 2.318206 1_545
Cu3 O14 1.997556 1_555
Cu3 O13 2.001466 1_655
Cu3 O16 2.053917 1_555
Cu3 O11 2.061805 1_555
Cu3 O12 2.313853 1_555
Cu3 O15 2.317552 1_655
Cu4 O16 2.003773 1_555
Cu4 O14 2.017868 1_555
Cu4 O18 2.019873 1_565
Cu4 O21 2.035050 1_555
Cu4 O19 2.304388 1_555
Cu4 O17 2.314552 1_565
