# generated using pymatgen
data_Ho2(SeO4)3
_symmetry_space_group_name_H-M   'P 1'
_cell_length_a   9.83310587
_cell_length_b   9.83317571
_cell_length_c   9.83311331
_cell_angle_alpha   58.05414922
_cell_angle_beta   58.05380574
_cell_angle_gamma   58.05413616
_symmetry_Int_Tables_number   1
_chemical_formula_structural   Ho2(SeO4)3
_chemical_formula_sum   'Ho4 Se6 O24'
_cell_volume   642.29464183
_cell_formula_units_Z   2
loop_
 _symmetry_equiv_pos_site_id
 _symmetry_equiv_pos_as_xyz
  1  'x, y, z'
loop_
 _atom_site_type_symbol
 _atom_site_label
 _atom_site_symmetry_multiplicity
 _atom_site_fract_x
 _atom_site_fract_y
 _atom_site_fract_z
 _atom_site_occupancy
  Ho  Ho0  1  0.64315232  0.64315685  0.64315682  1
  Ho  Ho1  1  0.35684354  0.35684600  0.35684242  1
  Ho  Ho2  1  0.14315060  0.14315666  0.14315829  1
  Ho  Ho3  1  0.85684725  0.85683895  0.85684620  1
  Se  Se0  1  0.74999796  0.03590170  0.46409712  1
  Se  Se1  1  0.96409277  0.53589978  0.25000332  1
  Se  Se2  1  0.53590723  0.24999442  0.96409983  1
  Se  Se3  1  0.46409848  0.74999492  0.03590915  1
  Se  Se4  1  0.03590226  0.46409675  0.75000142  1
  Se  Se5  1  0.24999901  0.96409874  0.53590212  1
  O  O0  1  0.91812761  0.06282588  0.29338737  1
  O  O1  1  0.77524636  0.00680097  0.63080117  1
  O  O2  1  0.99319950  0.36919303  0.22475867  1
  O  O3  1  0.70661227  0.08187010  0.93717631  1
  O  O4  1  0.58187324  0.20661169  0.43717435  1
  O  O5  1  0.86919398  0.49320627  0.72475498  1
  O  O6  1  0.50679988  0.27524255  0.13080566  1
  O  O7  1  0.79338893  0.56282097  0.41813161  1
  O  O8  1  0.93717265  0.70660465  0.08187398  1
  O  O9  1  0.56282979  0.41812373  0.79339224  1
  O  O10  1  0.36920199  0.22475339  0.99319466  1
  O  O11  1  0.27524176  0.13080827  0.50679600  1
  O  O12  1  0.72475385  0.86920088  0.49319664  1
  O  O13  1  0.63080562  0.77524274  0.00680038  1
  O  O14  1  0.43717918  0.58186873  0.20661315  1
  O  O15  1  0.06282287  0.29339443  0.91812733  1
  O  O16  1  0.20660436  0.43717820  0.58187200  1
  O  O17  1  0.49320098  0.72475386  0.86919955  1
  O  O18  1  0.13080011  0.50680000  0.27524547  1
  O  O19  1  0.41812904  0.79339763  0.56281982  1
  O  O20  1  0.29339502  0.91812349  0.06282852  1
  O  O21  1  0.00679913  0.63080930  0.77523934  1
  O  O22  1  0.22475878  0.99320423  0.36919141  1
  O  O23  1  0.08187069  0.93717926  0.70660372  1
loop_
_geom_bond_atom_site_label_1
_geom_bond_atom_site_label_2
_geom_bond_distance
_geom_bond_site_symmetry_2
Ho0 O19 2.204089 1_555
Ho0 O7 2.204095 1_555
Ho0 O9 2.204104 1_555
Ho0 O17 2.219316 1_555
Ho0 O5 2.219320 1_555
Ho0 O12 2.219359 1_555
Ho1 O14 2.204090 1_555
Ho1 O16 2.204110 1_555
Ho1 O4 2.204119 1_555
Ho1 O6 2.219298 1_555
Ho1 O11 2.219312 1_555
Ho1 O18 2.219326 1_555
Ho2 O0 2.204052 1_455
Ho2 O15 2.204107 1_554
Ho2 O20 2.204138 1_545
Ho2 O2 2.219295 1_455
Ho2 O22 2.219303 1_545
Ho2 O10 2.219378 1_554
Ho3 O8 2.204070 1_556
Ho3 O23 2.204099 1_655
Ho3 O3 2.204128 1_565
Ho3 O21 2.219273 1_655
Ho3 O13 2.219299 1_556
Ho3 O1 2.219357 1_565
O0 Se0 1.636193 1_555
O1 Se0 1.640022 1_555
O2 Se1 1.640011 1_555
O3 Se2 1.636156 1_555
O4 Se0 1.636178 1_555
O5 Se4 1.640013 1_655
O6 Se2 1.640009 1_554
O7 Se1 1.636157 1_555
O8 Se1 1.636180 1_555
O9 Se2 1.636193 1_555
O10 Se2 1.640014 1_555
O11 Se5 1.640029 1_545
O12 Se0 1.639981 1_565
O13 Se3 1.640012 1_555
O14 Se3 1.636157 1_555
O15 Se4 1.636152 1_555
O16 Se4 1.636152 1_555
O17 Se3 1.640025 1_556
O18 Se1 1.640021 1_455
O19 Se5 1.636164 1_555
O20 Se3 1.636167 1_555
O21 Se4 1.640044 1_555
O22 Se5 1.640019 1_555
O23 Se5 1.636146 1_555
