# generated using pymatgen
data_Li3Cr3NiO8
_symmetry_space_group_name_H-M   'P 1'
_cell_length_a   5.84658100
_cell_length_b   10.20018200
_cell_length_c   10.31013443
_cell_angle_alpha   70.26203770
_cell_angle_beta   90.00000000
_cell_angle_gamma   90.00000000
_symmetry_Int_Tables_number   1
_chemical_formula_structural   Li3Cr3NiO8
_chemical_formula_sum   'Li12 Cr12 Ni4 O32'
_cell_volume   578.73243112
_cell_formula_units_Z   4
loop_
 _symmetry_equiv_pos_site_id
 _symmetry_equiv_pos_as_xyz
  1  'x, y, z'
loop_
 _atom_site_type_symbol
 _atom_site_label
 _atom_site_symmetry_multiplicity
 _atom_site_fract_x
 _atom_site_fract_y
 _atom_site_fract_z
 _atom_site_occupancy
  Li  Li0  1  0.00000000  0.00000000  0.00000000  1
  Li  Li1  1  0.75501600  0.75076100  0.99806800  1
  Li  Li2  1  0.24498400  0.75076100  0.99806800  1
  Li  Li3  1  0.50000000  0.50000000  0.00000000  1
  Li  Li4  1  0.75501600  0.24923900  0.00193200  1
  Li  Li5  1  0.24498400  0.24923900  0.00193200  1
  Li  Li6  1  0.00000000  0.00000000  0.50000000  1
  Li  Li7  1  0.74785500  0.74900300  0.49939700  1
  Li  Li8  1  0.25214500  0.74900300  0.49939700  1
  Li  Li9  1  0.00000000  0.50000000  0.50000000  1
  Li  Li10  1  0.74785500  0.25099700  0.50060300  1
  Li  Li11  1  0.25214500  0.25099700  0.50060300  1
  Cr  Cr0  1  0.74979300  0.00050700  0.75036900  1
  Cr  Cr1  1  0.25020700  0.00050700  0.75036900  1
  Cr  Cr2  1  0.50000000  0.75411100  0.74425200  1
  Cr  Cr3  1  0.75102900  0.50114900  0.74931900  1
  Cr  Cr4  1  0.24897100  0.50114900  0.74931900  1
  Cr  Cr5  1  0.50000000  0.25096000  0.75135100  1
  Cr  Cr6  1  0.74979300  0.99949300  0.24963100  1
  Cr  Cr7  1  0.25020700  0.99949300  0.24963100  1
  Cr  Cr8  1  0.50000000  0.74904000  0.24864900  1
  Cr  Cr9  1  0.75102900  0.49885100  0.25068100  1
  Cr  Cr10  1  0.24897100  0.49885100  0.25068100  1
  Cr  Cr11  1  0.50000000  0.24588900  0.25574800  1
  Ni  Ni0  1  0.00000000  0.74732400  0.75456600  1
  Ni  Ni1  1  0.00000000  0.25066800  0.74843800  1
  Ni  Ni2  1  0.00000000  0.74933200  0.25156200  1
  Ni  Ni3  1  0.00000000  0.25267600  0.24543400  1
  O  O0  1  0.00000000  0.88306300  0.86677000  1
  O  O1  1  0.50000000  0.87675200  0.85684100  1
  O  O2  1  0.26651200  0.63304900  0.85563300  1
  O  O3  1  0.73348800  0.63304900  0.85563300  1
  O  O4  1  0.00000000  0.37484000  0.85642300  1
  O  O5  1  0.50000000  0.37978700  0.86308000  1
  O  O6  1  0.25002200  0.86844900  0.64395200  1
  O  O7  1  0.74997800  0.86844900  0.64395200  1
  O  O8  1  0.24015800  0.13516100  0.85485800  1
  O  O9  1  0.75984200  0.13516100  0.85485800  1
  O  O10  1  0.50000000  0.62470600  0.63932700  1
  O  O11  1  0.00000000  0.61780800  0.63505700  1
  O  O12  1  0.24151800  0.36619100  0.64456900  1
  O  O13  1  0.75848200  0.36619100  0.64456900  1
  O  O14  1  0.50000000  0.12469300  0.64255600  1
  O  O15  1  0.00000000  0.12241900  0.63688300  1
  O  O16  1  0.00000000  0.87758100  0.36311700  1
  O  O17  1  0.50000000  0.87530700  0.35744400  1
  O  O18  1  0.24151800  0.63380900  0.35543100  1
  O  O19  1  0.75848200  0.63380900  0.35543100  1
  O  O20  1  0.00000000  0.38219200  0.36494300  1
  O  O21  1  0.50000000  0.37529400  0.36067300  1
  O  O22  1  0.24015800  0.86483900  0.14514200  1
  O  O23  1  0.75984200  0.86483900  0.14514200  1
  O  O24  1  0.25002200  0.13155100  0.35604800  1
  O  O25  1  0.74997800  0.13155100  0.35604800  1
  O  O26  1  0.50000000  0.62021300  0.13692000  1
  O  O27  1  0.00000000  0.62516000  0.14357700  1
  O  O28  1  0.26651200  0.36695100  0.14436700  1
  O  O29  1  0.73348800  0.36695100  0.14436700  1
  O  O30  1  0.50000000  0.12324800  0.14315900  1
  O  O31  1  0.00000000  0.11693700  0.13323000  1
loop_
_geom_bond_atom_site_label_1
_geom_bond_atom_site_label_2
_geom_bond_distance
_geom_bond_site_symmetry_2
Li0 O0 2.101477 1_544
Li0 O31 2.101477 1_555
Li0 O23 2.172109 1_445
Li0 O9 2.172109 1_454
Li0 O22 2.172109 1_545
Li0 O8 2.172109 1_554
Li1 O0 2.114544 1_655
Li1 O27 2.155306 1_656
Li1 O1 2.175038 1_555
Li1 O26 2.181289 1_556
Li1 O3 2.192031 1_555
Li1 O23 2.201341 1_556
Li2 O0 2.114544 1_555
Li2 O27 2.155306 1_556
Li2 O1 2.175038 1_555
Li2 O26 2.181289 1_556
Li2 O2 2.192031 1_555
Li2 O22 2.201341 1_556
Li3 O28 2.134568 1_555
Li3 O29 2.134568 1_555
Li3 O3 2.134568 1_554
Li3 O2 2.134568 1_554
Li3 O26 2.159980 1_555
Li3 O5 2.159980 1_554
Li4 O31 2.114544 1_655
Li4 O4 2.155306 1_654
Li4 O30 2.175038 1_555
Li4 O5 2.181289 1_554
Li4 O29 2.192031 1_555
Li4 O9 2.201341 1_554
Li5 O31 2.114544 1_555
Li5 O4 2.155306 1_554
Li5 O30 2.175038 1_555
Li5 O5 2.181289 1_554
Li5 O28 2.192031 1_555
Li5 O8 2.201341 1_554
Li6 O16 2.177443 1_545
Li6 O15 2.177443 1_555
Li6 O6 2.189732 1_545
Li6 O7 2.189732 1_445
Li6 O25 2.189732 1_455
Li6 O24 2.189732 1_555
Li7 O10 2.133838 1_555
Li7 O16 2.150079 1_655
Li7 O17 2.151305 1_555
Li7 O11 2.157798 1_655
Li7 O19 2.183040 1_555
Li7 O7 2.220879 1_555
Li8 O10 2.133838 1_555
Li8 O16 2.150079 1_555
Li8 O17 2.151305 1_555
Li8 O11 2.157798 1_555
Li8 O18 2.183040 1_555
Li8 O6 2.220879 1_555
Li9 O20 2.124409 1_555
Li9 O11 2.124409 1_555
Li9 O18 2.168952 1_555
Li9 O12 2.168952 1_555
Li9 O19 2.168952 1_455
Li9 O13 2.168952 1_455
Li10 O21 2.133838 1_555
Li10 O15 2.150079 1_655
Li10 O14 2.151305 1_555
Li10 O20 2.157798 1_655
Li10 O13 2.183040 1_555
Li10 O25 2.220879 1_555
Li11 O21 2.133838 1_555
Li11 O15 2.150079 1_555
Li11 O14 2.151305 1_555
Li11 O20 2.157798 1_555
Li11 O12 2.183040 1_555
Li11 O24 2.220879 1_555
Cr0 O1 1.998852 1_545
Cr0 O7 2.004115 1_545
Cr0 O14 2.005488 1_555
Cr0 O0 2.011029 1_645
Cr0 O9 2.012443 1_555
Cr0 O15 2.018062 1_655
Cr1 O1 1.998852 1_545
Cr1 O6 2.004115 1_545
Cr1 O14 2.005488 1_555
Cr1 O0 2.011029 1_545
Cr1 O8 2.012443 1_555
Cr1 O15 2.018062 1_555
Cr2 O2 1.936309 1_555
Cr2 O3 1.936309 1_555
Cr2 O6 1.936745 1_555
Cr2 O7 1.936745 1_555
Cr2 O10 1.969015 1_555
Cr2 O1 1.973119 1_555
Cr3 O11 1.993940 1_655
Cr3 O3 2.004537 1_555
Cr3 O4 2.009280 1_655
Cr3 O10 2.015706 1_555
Cr3 O13 2.016795 1_555
Cr3 O5 2.020258 1_555
Cr4 O11 1.993940 1_555
Cr4 O2 2.004537 1_555
Cr4 O4 2.009280 1_555
Cr4 O10 2.015706 1_555
Cr4 O12 2.016795 1_555
Cr4 O5 2.020258 1_555
Cr5 O14 1.973015 1_555
Cr5 O8 1.997636 1_555
Cr5 O9 1.997636 1_555
Cr5 O13 2.000845 1_555
Cr5 O12 2.000845 1_555
Cr5 O5 2.018946 1_555
Cr6 O30 1.998852 1_565
Cr6 O25 2.004115 1_565
Cr6 O17 2.005488 1_555
Cr6 O31 2.011029 1_665
Cr6 O23 2.012443 1_555
Cr6 O16 2.018062 1_655
Cr7 O30 1.998852 1_565
Cr7 O24 2.004115 1_565
Cr7 O17 2.005488 1_555
Cr7 O31 2.011029 1_565
Cr7 O22 2.012443 1_555
Cr7 O16 2.018062 1_555
Cr8 O17 1.973015 1_555
Cr8 O22 1.997636 1_555
Cr8 O23 1.997636 1_555
Cr8 O18 2.000845 1_555
Cr8 O19 2.000845 1_555
Cr8 O26 2.018946 1_555
Cr9 O20 1.993940 1_655
Cr9 O29 2.004537 1_555
Cr9 O27 2.009280 1_655
Cr9 O21 2.015706 1_555
Cr9 O19 2.016795 1_555
Cr9 O26 2.020258 1_555
Cr10 O20 1.993940 1_555
Cr10 O28 2.004537 1_555
Cr10 O27 2.009280 1_555
Cr10 O21 2.015706 1_555
Cr10 O18 2.016795 1_555
Cr10 O26 2.020258 1_555
Cr11 O29 1.936309 1_555
Cr11 O28 1.936309 1_555
Cr11 O25 1.936745 1_555
Cr11 O24 1.936745 1_555
Cr11 O21 1.969015 1_555
Cr11 O30 1.973119 1_555
Ni0 O6 2.003035 1_555
Ni0 O7 2.003035 1_455
Ni0 O3 2.012965 1_455
Ni0 O2 2.012965 1_555
Ni0 O0 2.082582 1_555
Ni0 O11 2.088765 1_555
Ni1 O12 1.917528 1_555
Ni1 O13 1.917528 1_455
Ni1 O9 1.921028 1_455
Ni1 O8 1.921028 1_555
Ni1 O4 1.948384 1_555
Ni1 O15 2.012555 1_555
Ni2 O18 1.917528 1_555
Ni2 O19 1.917528 1_455
Ni2 O23 1.921028 1_455
Ni2 O22 1.921028 1_555
Ni2 O27 1.948384 1_555
Ni2 O16 2.012555 1_555
Ni3 O25 2.003035 1_455
Ni3 O24 2.003035 1_555
Ni3 O29 2.012965 1_455
Ni3 O28 2.012965 1_555
Ni3 O31 2.082582 1_555
Ni3 O20 2.088765 1_555
