# generated using pymatgen
data_Li3P3WO11
_symmetry_space_group_name_H-M   'P 1'
_cell_length_a   8.15485600
_cell_length_b   8.22695048
_cell_length_c   6.41301010
_cell_angle_alpha   96.16533570
_cell_angle_beta   99.47426599
_cell_angle_gamma   109.12297099
_symmetry_Int_Tables_number   1
_chemical_formula_structural   Li3P3WO11
_chemical_formula_sum   'Li6 P6 W2 O22'
_cell_volume   394.90625388
_cell_formula_units_Z   2
loop_
 _symmetry_equiv_pos_site_id
 _symmetry_equiv_pos_as_xyz
  1  'x, y, z'
loop_
 _atom_site_type_symbol
 _atom_site_label
 _atom_site_symmetry_multiplicity
 _atom_site_fract_x
 _atom_site_fract_y
 _atom_site_fract_z
 _atom_site_occupancy
  Li  Li0  1  0.82436500  0.61581400  0.99112700  1
  Li  Li1  1  0.57394100  0.40984000  0.17873300  1
  Li  Li2  1  0.96203300  0.71168400  0.47388800  1
  Li  Li3  1  0.03796700  0.28831600  0.52611200  1
  Li  Li4  1  0.42605900  0.59016000  0.82126700  1
  Li  Li5  1  0.17563500  0.38418600  0.00887300  1
  P  P0  1  0.61884700  0.88217400  0.22892600  1
  P  P1  1  0.85974800  0.14041400  0.11438600  1
  P  P2  1  0.28818900  0.62124500  0.41428500  1
  P  P3  1  0.71181100  0.37875500  0.58571500  1
  P  P4  1  0.14025200  0.85958600  0.88561400  1
  P  P5  1  0.38115300  0.11782600  0.77107400  1
  W  W0  1  0.72524300  0.90602600  0.68075500  1
  W  W1  1  0.27475700  0.09397400  0.31924500  1
  O  O0  1  0.61748100  0.68631700  0.09276000  1
  O  O1  1  0.87311700  0.36031700  0.07698100  1
  O  O2  1  0.43753100  0.91486700  0.21969600  1
  O  O3  1  0.68961700  0.09915200  0.17253800  1
  O  O4  1  0.74507200  0.87754000  0.41522300  1
  O  O5  1  0.16840300  0.05468100  0.03837400  1
  O  O6  1  0.29361300  0.42577800  0.27143800  1
  O  O7  1  0.17365600  0.77341800  0.31564300  1
  O  O8  1  0.79474600  0.45657500  0.45811000  1
  O  O9  1  0.47451100  0.74703800  0.51633400  1
  O  O10  1  0.98874700  0.88433200  0.71887200  1
  O  O11  1  0.01125300  0.11566800  0.28112800  1
  O  O12  1  0.52548900  0.25296200  0.48366600  1
  O  O13  1  0.20525400  0.54342500  0.54189000  1
  O  O14  1  0.82634400  0.22658200  0.68435700  1
  O  O15  1  0.70638700  0.57422200  0.72856200  1
  O  O16  1  0.83159700  0.94531900  0.96162600  1
  O  O17  1  0.25492800  0.12246000  0.58477700  1
  O  O18  1  0.31038300  0.90084800  0.82746200  1
  O  O19  1  0.56246900  0.08513300  0.78030400  1
  O  O20  1  0.12688300  0.63968300  0.92301900  1
  O  O21  1  0.38251900  0.31368300  0.90724000  1
loop_
_geom_bond_atom_site_label_1
_geom_bond_atom_site_label_2
_geom_bond_distance
_geom_bond_site_symmetry_2
Li0 O15 1.733559 1_555
Li0 O0 2.128268 1_556
Li0 O1 2.367168 1_556
Li0 O20 2.524110 1_655
Li1 O21 2.023434 1_554
Li1 O8 2.221819 1_555
Li1 O0 2.325588 1_555
Li1 O12 2.471505 1_555
Li1 O6 2.494729 1_555
Li2 O10 1.933515 1_555
Li2 O8 2.075848 1_555
Li2 O7 2.092618 1_655
Li3 O11 1.933515 1_555
Li3 O13 2.075848 1_555
Li3 O14 2.092618 1_455
Li4 O0 2.023434 1_556
Li4 O13 2.221819 1_555
Li4 O21 2.325588 1_555
Li4 O9 2.471505 1_555
Li4 O15 2.494729 1_555
Li5 O6 1.733559 1_555
Li5 O21 2.128268 1_554
Li5 O20 2.367168 1_554
Li5 O1 2.524110 1_455
O0 P0 1.744069 1_555
O1 P1 1.820709 1_555
O2 P0 1.580282 1_555
O2 W1 2.387300 1_565
O3 P1 1.438097 1_555
O3 P0 1.784006 1_545
O4 P0 1.455683 1_555
O4 W0 1.735096 1_555
O5 P4 1.713292 1_544
O5 W1 1.810547 1_555
O6 P2 1.780633 1_555
O6 W1 2.736670 1_555
O7 P2 1.892497 1_555
O7 W1 2.488205 1_565
O8 P3 1.244188 1_555
O9 P2 1.518180 1_555
O9 W0 2.060368 1_555
O10 P4 1.577333 1_655
O10 W0 2.190167 1_555
O11 P1 1.577333 1_455
O11 W1 2.190167 1_555
O12 P3 1.518180 1_555
O12 W1 2.060368 1_555
O13 P2 1.244188 1_555
O14 P3 1.892497 1_555
O14 W0 2.488205 1_545
O15 P3 1.780633 1_555
O15 W0 2.736670 1_555
O16 P1 1.713292 1_566
O16 W0 1.810547 1_555
O17 P5 1.455683 1_555
O17 W1 1.735096 1_555
O18 P4 1.438097 1_555
O18 P5 1.784006 1_565
O19 P5 1.580282 1_555
O19 W0 2.387300 1_545
O20 P4 1.820709 1_555
O21 P5 1.744069 1_555
