# generated using pymatgen
data_Ba8In8O19
_symmetry_space_group_name_H-M   'P 1'
_cell_length_a   9.41062933
_cell_length_b   9.41062933
_cell_length_c   8.51715386
_cell_angle_alpha   89.25019468
_cell_angle_beta   89.25019468
_cell_angle_gamma   125.27766454
_symmetry_Int_Tables_number   1
_chemical_formula_structural   Ba8In8O19
_chemical_formula_sum   'Ba8 In8 O19'
_cell_volume   615.51538676
_cell_formula_units_Z   1
loop_
 _symmetry_equiv_pos_site_id
 _symmetry_equiv_pos_as_xyz
  1  'x, y, z'
loop_
 _atom_site_type_symbol
 _atom_site_label
 _atom_site_symmetry_multiplicity
 _atom_site_fract_x
 _atom_site_fract_y
 _atom_site_fract_z
 _atom_site_occupancy
  Ba  Ba0  1  0.87005987  0.15982553  0.75337984  1
  Ba  Ba1  1  0.85587154  0.13055605  0.24172612  1
  Ba  Ba2  1  0.63353540  0.35336678  0.73931140  1
  Ba  Ba3  1  0.35336678  0.63353540  0.73931140  1
  Ba  Ba4  1  0.65028620  0.37317578  0.25201786  1
  Ba  Ba5  1  0.15982553  0.87005987  0.75337984  1
  Ba  Ba6  1  0.37317578  0.65028620  0.25201786  1
  Ba  Ba7  1  0.13055605  0.85587154  0.24172612  1
  In  In0  1  0.50372564  -0.00059223  0.99897861  1
  In  In1  1  0.74306194  0.74306194  0.91043776  1
  In  In2  1  0.79498421  0.79498421  0.55551210  1
  In  In3  1  0.50325228  0.99888438  0.49700788  1
  In  In4  1  -0.00059223  0.50372564  0.99897861  1
  In  In5  1  0.99888438  0.50325228  0.49700788  1
  In  In6  1  0.23314456  0.23314456  0.46051229  1
  In  In7  1  0.29427154  0.29427154  0.01529432  1
  O  O0  1  0.51087748  0.99636917  0.74844655  1
  O  O1  1  0.75873680  0.24297710  0.49412473  1
  O  O2  1  0.99636917  0.51087748  0.74844655  1
  O  O3  1  0.74253616  0.25989652  0.99390151  1
  O  O4  1  0.25989652  0.74253616  0.99390151  1
  O  O5  1  0.50089347  0.50089347  0.88568833  1
  O  O6  1  0.32404153  0.09784686  0.98182442  1
  O  O7  1  0.09784686  0.32404153  0.98182442  1
  O  O8  1  0.60418545  0.82855615  0.48242682  1
  O  O9  1  0.82855615  0.60418545  0.48242682  1
  O  O10  1  0.88484008  0.66407037  0.02094371  1
  O  O11  1  0.66407037  0.88484008  0.02094371  1
  O  O12  1  0.15284033  0.38143906  0.53707625  1
  O  O13  1  0.38143906  0.15284033  0.53707625  1
  O  O14  1  0.35923769  0.35923769  0.24868131  1
  O  O15  1  0.49858322  0.01203689  0.24766468  1
  O  O16  1  0.01203689  0.49858322  0.24766468  1
  O  O17  1  0.24297710  0.75873680  0.49412473  1
  O  O18  1  0.99860417  0.99860417  0.41294613  1
loop_
_geom_bond_atom_site_label_1
_geom_bond_atom_site_label_2
_geom_bond_distance
_geom_bond_site_symmetry_2
Ba0 O7 2.670292 1_655
Ba0 O1 2.747330 1_555
Ba0 O2 2.790663 1_555
Ba0 O0 2.791573 1_545
Ba0 O3 2.795569 1_555
Ba0 O12 2.861068 1_655
Ba0 O11 3.095705 1_546
Ba1 O18 2.720892 1_545
Ba1 O11 2.742729 1_545
Ba1 O1 2.775116 1_555
Ba1 O15 2.866016 1_555
Ba1 O16 2.878304 1_655
Ba1 O7 2.893821 1_654
Ba1 O3 2.926697 1_554
Ba1 O8 3.136070 1_545
Ba2 O5 2.654452 1_555
Ba2 O13 2.679002 1_555
Ba2 O3 2.752871 1_555
Ba2 O2 2.832989 1_555
Ba2 O0 2.852485 1_545
Ba2 O1 2.869588 1_555
Ba2 O9 2.912490 1_555
Ba2 O6 3.186584 1_555
Ba3 O5 2.654452 1_555
Ba3 O12 2.679002 1_555
Ba3 O4 2.752871 1_555
Ba3 O0 2.832989 1_555
Ba3 O2 2.852485 1_455
Ba3 O17 2.869588 1_555
Ba3 O8 2.912490 1_555
Ba3 O7 3.186584 1_555
Ba4 O14 2.665900 1_555
Ba4 O9 2.716022 1_555
Ba4 O3 2.793468 1_554
Ba4 O15 2.826661 1_555
Ba4 O1 2.868500 1_555
Ba4 O16 2.887611 1_655
Ba4 O10 3.000871 1_555
Ba4 O13 3.200464 1_555
Ba5 O6 2.670292 1_565
Ba5 O17 2.747330 1_555
Ba5 O0 2.790663 1_555
Ba5 O2 2.791573 1_455
Ba5 O4 2.795569 1_555
Ba5 O13 2.861068 1_565
Ba5 O10 3.095705 1_456
Ba6 O14 2.665900 1_555
Ba6 O8 2.716022 1_555
Ba6 O4 2.793468 1_554
Ba6 O16 2.826661 1_555
Ba6 O17 2.868500 1_555
Ba6 O15 2.887611 1_565
Ba6 O11 3.000871 1_555
Ba6 O12 3.200464 1_555
Ba7 O18 2.720892 1_455
Ba7 O10 2.742729 1_455
Ba7 O17 2.775116 1_555
Ba7 O16 2.866016 1_555
Ba7 O15 2.878304 1_565
Ba7 O6 2.893821 1_564
Ba7 O4 2.926697 1_554
Ba7 O9 3.136070 1_455
In0 O15 2.124465 1_556
In0 O0 2.135087 1_545
In0 O3 2.166314 1_555
In0 O4 2.169986 1_545
In0 O11 2.314219 1_546
In0 O6 2.356074 1_555
In1 O11 2.092547 1_556
In1 O10 2.092547 1_556
In1 O5 2.111351 1_555
In2 O9 2.095374 1_555
In2 O8 2.095374 1_555
In2 O18 2.110687 1_555
In3 O15 2.128185 1_565
In3 O0 2.143961 1_555
In3 O1 2.162262 1_565
In3 O17 2.171745 1_555
In3 O8 2.290772 1_555
In3 O13 2.334684 1_565
In4 O16 2.124465 1_556
In4 O2 2.135087 1_455
In4 O4 2.166314 1_555
In4 O3 2.169986 1_455
In4 O10 2.314219 1_456
In4 O7 2.356074 1_555
In5 O16 2.128185 1_655
In5 O2 2.143961 1_555
In5 O17 2.162262 1_655
In5 O1 2.171745 1_555
In5 O9 2.290772 1_555
In5 O12 2.334684 1_655
In6 O13 2.042791 1_555
In6 O12 2.042791 1_555
In6 O18 2.080159 1_445
In6 O14 2.081528 1_555
In7 O6 2.046093 1_554
In7 O7 2.046093 1_554
In7 O5 2.073815 1_554
In7 O14 2.081044 1_555
