# generated using pymatgen
data_Li4Ti3(CoO3)6
_symmetry_space_group_name_H-M   'P 1'
_cell_length_a   8.82142188
_cell_length_b   24.64260320
_cell_length_c   2.87656033
_cell_angle_alpha   90.00000025
_cell_angle_beta   90.00000302
_cell_angle_gamma   90.04175185
_symmetry_Int_Tables_number   1
_chemical_formula_structural   Li4Ti3(CoO3)6
_chemical_formula_sum   'Li8 Ti6 Co12 O36'
_cell_volume   625.31456993
_cell_formula_units_Z   2
loop_
 _symmetry_equiv_pos_site_id
 _symmetry_equiv_pos_as_xyz
  1  'x, y, z'
loop_
 _atom_site_type_symbol
 _atom_site_label
 _atom_site_symmetry_multiplicity
 _atom_site_fract_x
 _atom_site_fract_y
 _atom_site_fract_z
 _atom_site_occupancy
  Li  Li0  1  0.18700181  0.99326678  0.00000004  1
  Li  Li1  1  0.19088237  0.20886878  0.00000011  1
  Li  Li2  1  0.30884111  0.70837590  -0.00000001  1
  Li  Li3  1  0.31600615  0.49345126  0.99999984  1
  Li  Li4  1  0.67820558  0.50307386  0.00000033  1
  Li  Li5  1  0.68902831  0.29599427  0.00000022  1
  Li  Li6  1  0.81179374  0.79579076  0.00000012  1
  Li  Li7  1  0.81868550  0.00233995  0.00000015  1
  Ti  Ti0  1  0.01414428  0.10367423  0.00000012  1
  Ti  Ti1  1  0.48307250  0.60322443  0.00000035  1
  Ti  Ti2  1  0.51093897  0.39490729  0.00000070  1
  Ti  Ti3  1  0.65076230  0.69503277  0.50000026  1
  Ti  Ti4  1  0.84933807  0.19554976  0.50000032  1
  Ti  Ti5  1  0.99808217  0.89301900  0.99999959  1
  Co  Co0  1  0.99647838  0.50088367  0.99999963  1
  Co  Co1  1  0.03060342  0.31241208  -0.00000008  1
  Co  Co2  1  0.12964039  0.58592433  0.49999957  1
  Co  Co3  1  0.14688680  0.80509995  0.49999950  1
  Co  Co4  1  0.35199912  0.30514251  0.50000105  1
  Co  Co5  1  0.36971749  0.08614870  0.50000038  1
  Co  Co6  1  0.46908416  0.81189467  0.99999963  1
  Co  Co7  1  0.50285775  0.00080094  0.00000028  1
  Co  Co8  1  0.51112268  0.19062299  0.00000024  1
  Co  Co9  1  0.63329506  0.91436653  0.50000015  1
  Co  Co10  1  0.86849274  0.41457949  0.50000001  1
  Co  Co11  1  0.99028847  0.69142742  0.99999964  1
  O  O0  1  0.00388604  0.42598071  -0.00000003  1
  O  O1  1  0.99290535  0.57574572  0.99999947  1
  O  O2  1  0.04517965  0.94162119  0.49999990  1
  O  O3  1  0.05765599  0.16155090  0.50000024  1
  O  O4  1  0.10321293  0.66180742  0.49999959  1
  O  O5  1  0.11305618  0.75799014  0.99999949  1
  O  O6  1  0.14014285  0.50763241  0.49999943  1
  O  O7  1  0.14991090  0.28180976  0.49999974  1
  O  O8  1  0.18781050  0.85476495  0.99999953  1
  O  O9  1  0.22711655  0.08662864  0.00000035  1
  O  O10  1  0.27494501  0.58615507  0.99999958  1
  O  O11  1  0.31190922  0.35357715  0.00000137  1
  O  O12  1  0.35131764  0.78193206  0.49999949  1
  O  O13  1  0.35840746  0.00913570  0.50000032  1
  O  O14  1  0.38757805  0.25797495  -0.00000177  1
  O  O15  1  0.39566406  0.16070814  0.50000032  1
  O  O16  1  0.44300159  0.66160022  0.49999997  1
  O  O17  1  0.45225781  0.44139769  0.50000062  1
  O  O18  1  0.50558877  0.07770050  0.00000048  1
  O  O19  1  0.49757006  0.92454799  -0.00000003  1
  O  O20  1  0.53910420  0.55592639  0.50000003  1
  O  O21  1  0.55109714  0.33621148  0.49999970  1
  O  O22  1  0.58544025  0.84143813  0.49999987  1
  O  O23  1  0.60997898  0.74619714  0.00000006  1
  O  O24  1  0.64837881  0.99115670  0.50000020  1
  O  O25  1  0.63769244  0.21651136  0.50000007  1
  O  O26  1  0.68391262  0.64300642  0.99999976  1
  O  O27  1  0.71989040  0.41100048  0.00000006  1
  O  O28  1  0.77559997  0.91122706  0.00000025  1
  O  O29  1  0.81659700  0.14253676  0.00000006  1
  O  O30  1  0.86307249  0.71660600  0.49999965  1
  O  O31  1  0.85217585  0.49277260  0.49999979  1
  O  O32  1  0.89035204  0.24554934  0.00000016  1
  O  O33  1  0.91343269  0.34051507  0.50000019  1
  O  O34  1  0.94481671  0.83687495  0.49999975  1
  O  O35  1  0.96209249  0.05633850  0.50000019  1
loop_
_geom_bond_atom_site_label_1
_geom_bond_atom_site_label_2
_geom_bond_distance
_geom_bond_site_symmetry_2
Li0 O13 2.122964 1_564
Li0 O13 2.122965 1_565
Li0 O2 2.291556 1_555
Li0 O2 2.291557 1_554
Li0 O9 2.327480 1_565
Li1 O14 2.114707 1_555
Li1 O3 2.192600 1_554
Li1 O3 2.192600 1_555
Li1 O7 2.330466 1_555
Li1 O7 2.330467 1_554
Li1 O15 2.596843 1_554
Li1 O15 2.596844 1_555
Li2 O5 2.116782 1_554
Li2 O16 2.190876 1_555
Li2 O16 2.190876 1_554
Li2 O12 2.343850 1_555
Li2 O12 2.343852 1_554
Li2 O4 2.583192 1_555
Li2 O4 2.583193 1_554
Li3 O6 2.144363 1_556
Li3 O6 2.144364 1_555
Li3 O17 2.271771 1_555
Li3 O17 2.271774 1_556
Li3 O10 2.313262 1_555
Li4 O31 2.118691 1_555
Li4 O31 2.118693 1_554
Li4 O20 2.296299 1_555
Li4 O20 2.296300 1_554
Li4 O27 2.298797 1_555
Li5 O21 2.129102 1_555
Li5 O21 2.129104 1_554
Li5 O32 2.168534 1_555
Li5 O25 2.471600 1_555
Li5 O25 2.471600 1_554
Li6 O34 2.113978 1_555
Li6 O34 2.113979 1_554
Li6 O23 2.158666 1_555
Li6 O30 2.466211 1_555
Li6 O30 2.466213 1_554
Li7 O24 2.097865 1_544
Li7 O24 2.097866 1_545
Li7 O28 2.276928 1_545
Li7 O35 2.331786 1_554
Li7 O35 2.331786 1_555
Co0 O1 1.845088 1_555
Co0 O0 1.847008 1_656
Co0 O6 1.924087 1_656
Co0 O6 1.924088 1_655
Co0 O31 1.930968 1_555
Co0 O31 1.930969 1_556
Co1 O33 1.902011 1_454
Co1 O33 1.902012 1_455
Co1 O7 1.935505 1_555
Co1 O7 1.935506 1_554
Co1 O32 2.059747 1_455
Co2 O4 1.884601 1_555
Co2 O1 1.893683 1_455
Co2 O1 1.893683 1_454
Co2 O10 1.926568 1_555
Co2 O10 1.926568 1_554
Co2 O6 1.931607 1_555
Co3 O5 1.872142 1_555
Co3 O5 1.872142 1_554
Co3 O12 1.891981 1_555
Co3 O8 1.922550 1_554
Co3 O8 1.922551 1_555
Co3 O34 1.947465 1_455
Co4 O7 1.872738 1_555
Co4 O14 1.875814 1_556
Co4 O14 1.875827 1_555
Co4 O11 1.902342 1_555
Co4 O11 1.902344 1_556
Co4 O21 1.915438 1_555
Co5 O15 1.851375 1_555
Co5 O18 1.883864 1_555
Co5 O18 1.883864 1_556
Co5 O13 1.900349 1_555
Co5 O9 1.910820 1_556
Co5 O9 1.910820 1_555
Co6 O22 1.910794 1_555
Co6 O22 1.910795 1_556
Co6 O12 1.921444 1_556
Co6 O12 1.921445 1_555
Co6 O23 2.041749 1_556
Co7 O19 1.879616 1_545
Co7 O18 1.895141 1_555
Co7 O13 1.932601 1_554
Co7 O13 1.932601 1_555
Co7 O24 1.942542 1_545
Co7 O24 1.942542 1_544
Co8 O15 1.910065 1_554
Co8 O15 1.910066 1_555
Co8 O25 1.929048 1_555
Co8 O25 1.929049 1_554
Co8 O14 1.986223 1_555
Co9 O22 1.845761 1_555
Co9 O19 1.888262 1_556
Co9 O19 1.888263 1_555
Co9 O24 1.896885 1_555
Co9 O28 1.910663 1_555
Co9 O28 1.910663 1_556
Co10 O33 1.867980 1_555
Co10 O0 1.890396 1_656
Co10 O0 1.890396 1_655
Co10 O31 1.932355 1_555
Co10 O27 1.947993 1_555
Co10 O27 1.947993 1_556
Co11 O4 1.895998 1_656
Co11 O4 1.895998 1_655
Co11 O30 1.927183 1_555
Co11 O30 1.927183 1_556
Co11 O5 1.964888 1_655
O2 Ti5 1.917024 1_455
O2 Ti5 1.917026 1_454
O3 Ti4 2.020194 1_455
O3 Ti0 2.061387 1_556
O3 Ti0 2.061388 1_555
O8 Ti5 1.921491 1_455
O9 Ti0 1.925402 1_555
O10 Ti1 1.883250 1_556
O11 Ti2 2.029106 1_555
O16 Ti3 2.008857 1_555
O16 Ti1 2.064875 1_555
O16 Ti1 2.064877 1_556
O17 Ti2 1.910491 1_555
O17 Ti2 1.910492 1_556
O20 Ti1 1.916324 1_555
O20 Ti1 1.916326 1_556
O21 Ti2 2.070509 1_555
O21 Ti2 2.070513 1_556
O23 Ti3 1.946386 1_554
O23 Ti3 1.946386 1_555
O25 Ti4 1.937518 1_555
O26 Ti3 1.948948 1_555
O26 Ti3 1.948950 1_556
O26 Ti1 2.024209 1_556
O27 Ti2 1.885146 1_555
O28 Ti5 2.013565 1_554
O29 Ti4 1.964215 1_554
O29 Ti4 1.964216 1_555
O29 Ti0 1.989068 1_655
O30 Ti3 1.946494 1_555
O32 Ti4 1.927957 1_554
O32 Ti4 1.927958 1_555
O34 Ti5 2.050038 1_555
O34 Ti5 2.050039 1_554
O35 Ti0 1.907714 1_656
O35 Ti0 1.907714 1_655
