# generated using pymatgen
data_FeH2Cl5O3
_symmetry_space_group_name_H-M   'P 1'
_cell_length_a   7.12307500
_cell_length_b   8.50862500
_cell_length_c   14.45320000
_cell_angle_alpha   90.00000000
_cell_angle_beta   90.00000000
_cell_angle_gamma   90.00000000
_symmetry_Int_Tables_number   1
_chemical_formula_structural   FeH2Cl5O3
_chemical_formula_sum   'Fe4 H8 Cl20 O12'
_cell_volume   875.97338885
_cell_formula_units_Z   4
loop_
 _symmetry_equiv_pos_site_id
 _symmetry_equiv_pos_as_xyz
  1  'x, y, z'
loop_
 _atom_site_type_symbol
 _atom_site_label
 _atom_site_symmetry_multiplicity
 _atom_site_fract_x
 _atom_site_fract_y
 _atom_site_fract_z
 _atom_site_occupancy
  Fe  Fe0  1  0.81928100  0.25000000  0.10794800  1
  Fe  Fe1  1  0.68071900  0.25000000  0.60794800  1
  Fe  Fe2  1  0.18071900  0.75000000  0.89205200  1
  Fe  Fe3  1  0.31928100  0.75000000  0.39205200  1
  H  H0  1  0.57887700  0.05436500  0.39003100  1
  H  H1  1  0.92112300  0.44563500  0.89003100  1
  H  H2  1  0.42112300  0.55436500  0.60996900  1
  H  H3  1  0.07887700  0.94563500  0.10996900  1
  H  H4  1  0.42112300  0.94563500  0.60996900  1
  H  H5  1  0.07887700  0.55436500  0.10996900  1
  H  H6  1  0.57887700  0.44563500  0.39003100  1
  H  H7  1  0.92112300  0.05436500  0.89003100  1
  Cl  Cl0  1  0.13327800  0.25000000  0.16755400  1
  Cl  Cl1  1  0.36672200  0.25000000  0.66755400  1
  Cl  Cl2  1  0.86672200  0.75000000  0.83244600  1
  Cl  Cl3  1  0.63327800  0.75000000  0.33244600  1
  Cl  Cl4  1  0.64406600  0.25000000  0.26428000  1
  Cl  Cl5  1  0.85593400  0.25000000  0.76428000  1
  Cl  Cl6  1  0.35593400  0.75000000  0.73572000  1
  Cl  Cl7  1  0.14406600  0.75000000  0.23572000  1
  Cl  Cl8  1  0.76646100  0.98502800  0.11858500  1
  Cl  Cl9  1  0.73353900  0.51497200  0.61858500  1
  Cl  Cl10  1  0.23353900  0.48502800  0.88141500  1
  Cl  Cl11  1  0.26646100  0.01497200  0.38141500  1
  Cl  Cl12  1  0.23353900  0.01497200  0.88141500  1
  Cl  Cl13  1  0.26646100  0.48502800  0.38141500  1
  Cl  Cl14  1  0.76646100  0.51497200  0.11858500  1
  Cl  Cl15  1  0.73353900  0.98502800  0.61858500  1
  Cl  Cl16  1  0.59381200  0.25000000  0.97830300  1
  Cl  Cl17  1  0.90618800  0.25000000  0.47830300  1
  Cl  Cl18  1  0.40618800  0.75000000  0.02169700  1
  Cl  Cl19  1  0.09381200  0.75000000  0.52169700  1
  O  O0  1  0.95765300  0.25000000  0.99366000  1
  O  O1  1  0.54234700  0.25000000  0.49366000  1
  O  O2  1  0.04234700  0.75000000  0.00634000  1
  O  O3  1  0.45765300  0.75000000  0.50634000  1
  O  O4  1  0.21041600  0.54927000  0.13422700  1
  O  O5  1  0.28958400  0.95073000  0.63422700  1
  O  O6  1  0.78958400  0.04927000  0.86577300  1
  O  O7  1  0.71041600  0.45073000  0.36577300  1
  O  O8  1  0.78958400  0.45073000  0.86577300  1
  O  O9  1  0.71041600  0.04927000  0.36577300  1
  O  O10  1  0.21041600  0.95073000  0.13422700  1
  O  O11  1  0.28958400  0.54927000  0.63422700  1
loop_
_geom_bond_atom_site_label_1
_geom_bond_atom_site_label_2
_geom_bond_distance
_geom_bond_site_symmetry_2
Fe0 O0 1.923541 1_554
Fe1 O1 1.923541 1_555
Fe2 O2 1.923541 1_556
Fe3 O3 1.923541 1_555
H0 O9 1.001350 1_555
H1 O8 1.001350 1_555
H2 O11 1.001350 1_555
H3 O10 1.001350 1_555
H4 O5 1.001350 1_555
H5 O4 1.001350 1_555
H6 O7 1.001350 1_555
H7 O6 1.001350 1_555
Cl0 Fe0 2.396803 1_455
Cl1 Fe1 2.396803 1_555
Cl2 Fe2 2.396803 1_655
Cl3 Fe3 2.396803 1_555
Cl4 O9 2.300479 1_555
Cl4 O7 2.300479 1_555
Cl4 Fe0 2.581280 1_555
Cl5 O8 2.300479 1_555
Cl5 O6 2.300479 1_555
Cl5 Fe1 2.581280 1_555
Cl6 O11 2.300479 1_555
Cl6 O5 2.300479 1_555
Cl6 Fe2 2.581280 1_555
Cl7 O4 2.300479 1_555
Cl7 O10 2.300479 1_555
Cl7 Fe3 2.581280 1_555
Cl8 Fe0 2.290890 1_565
Cl9 Fe1 2.290890 1_555
Cl10 Fe2 2.290890 1_555
Cl11 Fe3 2.290890 1_545
Cl12 Fe2 2.290890 1_545
Cl13 Fe3 2.290890 1_555
Cl14 Fe0 2.290890 1_555
Cl15 Fe1 2.290890 1_565
Cl16 Fe0 2.467876 1_556
Cl17 Fe1 2.467876 1_555
Cl18 Fe2 2.467876 1_554
Cl19 Fe3 2.467876 1_555
