# generated using pymatgen
data_Li5Mn2Fe3(PO4)6
_symmetry_space_group_name_H-M   'P 1'
_cell_length_a   8.54833800
_cell_length_b   8.62437986
_cell_length_c   8.63285339
_cell_angle_alpha   61.71923386
_cell_angle_beta   62.05098324
_cell_angle_gamma   61.97367031
_symmetry_Int_Tables_number   1
_chemical_formula_structural   Li5Mn2Fe3(PO4)6
_chemical_formula_sum   'Li5 Mn2 Fe3 P6 O24'
_cell_volume   469.31464080
_cell_formula_units_Z   1
loop_
 _symmetry_equiv_pos_site_id
 _symmetry_equiv_pos_as_xyz
  1  'x, y, z'
loop_
 _atom_site_type_symbol
 _atom_site_label
 _atom_site_symmetry_multiplicity
 _atom_site_fract_x
 _atom_site_fract_y
 _atom_site_fract_z
 _atom_site_occupancy
  Li  Li0  1  0.75387700  0.14271000  0.35565700  1
  Li  Li1  1  0.19786300  0.85124400  0.66221500  1
  Li  Li2  1  0.66199300  0.19590900  0.85219400  1
  Li  Li3  1  0.85150900  0.66135800  0.19677100  1
  Li  Li4  1  0.84515800  0.83985100  0.84501100  1
  Mn  Mn0  1  0.00760500  0.99703900  0.99188300  1
  Mn  Mn1  1  0.48842400  0.50661200  0.50042300  1
  Fe  Fe0  1  0.14887200  0.14674200  0.14133700  1
  Fe  Fe1  1  0.35182100  0.35690200  0.35328100  1
  Fe  Fe2  1  0.65038300  0.65130200  0.65660800  1
  P  P0  1  0.05410700  0.75155500  0.45267800  1
  P  P1  1  0.45153200  0.05289900  0.75547300  1
  P  P2  1  0.75323700  0.45202700  0.05447100  1
  P  P3  1  0.25555600  0.54153000  0.95671300  1
  P  P4  1  0.54791600  0.95915200  0.25697400  1
  P  P5  1  0.94976000  0.25373200  0.53920600  1
  O  O0  1  0.11237200  0.32145200  0.47818600  1
  O  O1  1  0.33386900  0.49117100  0.10659200  1
  O  O2  1  0.04984900  0.91647800  0.26377600  1
  O  O3  1  0.52165800  0.10721500  0.32539400  1
  O  O4  1  0.03370900  0.80973100  0.60304700  1
  O  O5  1  0.24558700  0.59376900  0.42161200  1
  O  O6  1  0.25502000  0.06909200  0.90881200  1
  O  O7  1  0.43972800  0.23913100  0.58686300  1
  O  O8  1  0.18867200  0.38604500  0.99551700  1
  O  O9  1  0.59791200  0.41978800  0.25047100  1
  O  O10  1  0.09889800  0.73327600  0.94590200  1
  O  O11  1  0.38006700  0.00915800  0.19997400  1
  O  O12  1  0.60358900  0.02643200  0.81777400  1
  O  O13  1  0.90346100  0.25170900  0.07439100  1
  O  O14  1  0.40728900  0.56684600  0.75821500  1
  O  O15  1  0.81471200  0.60174200  0.03052300  1
  O  O16  1  0.56472100  0.76144400  0.41046000  1
  O  O17  1  0.73739500  0.94158800  0.09705700  1
  O  O18  1  0.75385400  0.40902500  0.57038300  1
  O  O19  1  0.96771200  0.19331400  0.38777800  1
  O  O20  1  0.49219300  0.88904200  0.69706700  1
  O  O21  1  0.94657600  0.09689600  0.73045700  1
  O  O22  1  0.69238400  0.49299300  0.89264400  1
  O  O23  1  0.88915700  0.68910200  0.49920900  1
loop_
_geom_bond_atom_site_label_1
_geom_bond_atom_site_label_2
_geom_bond_distance
_geom_bond_site_symmetry_2
Li0 O9 2.096916 1_555
Li0 O13 2.114444 1_555
Li0 O19 2.224458 1_555
Li0 O3 2.288127 1_555
Li0 O2 2.404898 1_645
Li0 O7 2.517310 1_555
Li1 O4 1.917151 1_555
Li1 O10 2.062585 1_555
Li1 O21 2.273653 1_465
Li1 O14 2.290392 1_555
Li2 O12 1.926215 1_555
Li2 O21 2.062381 1_555
Li2 O18 2.289533 1_555
Li2 O17 2.291260 1_546
Li3 O15 1.922879 1_555
Li3 O17 2.033164 1_555
Li3 O10 2.283397 1_654
Li3 O16 2.332227 1_555
Li4 O15 1.960806 1_556
Li4 O12 1.970485 1_565
Li4 O4 1.998348 1_655
Li4 O10 2.333871 1_655
Li4 O17 2.350220 1_556
Li4 O21 2.359893 1_565
Mn0 O6 2.182815 1_565
Mn0 O10 2.199599 1_555
Mn0 O21 2.224167 1_465
Mn0 O17 2.247048 1_456
Mn0 O2 2.266264 1_556
Mn0 O13 2.274740 1_466
Mn1 O5 2.170251 1_555
Mn1 O14 2.239133 1_555
Mn1 O7 2.243160 1_555
Mn1 O9 2.252146 1_555
Mn1 O16 2.261321 1_555
Mn1 O18 2.286849 1_555
Fe0 O11 1.932593 1_555
Fe0 O8 1.938143 1_554
Fe0 O19 2.054900 1_455
Fe0 O6 2.072849 1_554
Fe0 O13 2.100127 1_455
Fe0 O2 2.128264 1_545
Fe1 O0 1.911216 1_555
Fe1 O1 1.924144 1_555
Fe1 O3 2.007107 1_555
Fe1 O5 2.059656 1_555
Fe1 O9 2.091220 1_555
Fe1 O7 2.103536 1_555
Fe2 O23 1.929918 1_555
Fe2 O22 1.932343 1_555
Fe2 O20 1.945474 1_555
Fe2 O14 2.174079 1_555
Fe2 O18 2.195960 1_555
Fe2 O16 2.201405 1_555
O0 P5 1.528362 1_455
O1 P3 1.522211 1_554
O2 P0 1.578877 1_555
O3 P4 1.533278 1_545
O4 P0 1.513279 1_555
O5 P0 1.563349 1_555
O6 P1 1.569713 1_555
O7 P1 1.574366 1_555
O8 P3 1.533817 1_555
O9 P2 1.580658 1_555
O10 P3 1.557731 1_555
O11 P4 1.538205 1_545
O12 P1 1.513636 1_555
O13 P2 1.582375 1_555
O14 P3 1.579442 1_555
O15 P2 1.506308 1_555
O16 P4 1.578311 1_555
O17 P4 1.556886 1_555
O18 P5 1.575437 1_555
O19 P5 1.544750 1_555
O20 P1 1.556079 1_565
O21 P5 1.559663 1_555
O22 P2 1.545283 1_556
O23 P0 1.554822 1_655
