# generated using pymatgen
data_LiVSiO4
_symmetry_space_group_name_H-M   'P 1'
_cell_length_a   5.12598480
_cell_length_b   10.38415900
_cell_length_c   6.83472710
_cell_angle_alpha   90.00001907
_cell_angle_beta   88.76574501
_cell_angle_gamma   89.99991681
_symmetry_Int_Tables_number   1
_chemical_formula_structural   LiVSiO4
_chemical_formula_sum   'Li4 V4 Si4 O16'
_cell_volume   363.72156131
_cell_formula_units_Z   4
loop_
 _symmetry_equiv_pos_site_id
 _symmetry_equiv_pos_as_xyz
  1  'x, y, z'
loop_
 _atom_site_type_symbol
 _atom_site_label
 _atom_site_symmetry_multiplicity
 _atom_site_fract_x
 _atom_site_fract_y
 _atom_site_fract_z
 _atom_site_occupancy
  Li  Li0  1  0.19271200  0.14913600  0.50523600  1
  Li  Li1  1  0.30728700  0.64913600  0.99476100  1
  Li  Li2  1  0.69269600  0.35085200  0.00526500  1
  Li  Li3  1  0.80730100  0.85085200  0.49473500  1
  V  V0  1  0.68666600  0.33212200  0.50995800  1
  V  V1  1  0.81333000  0.83211600  0.99005100  1
  V  V2  1  0.18673800  0.16788600  0.00992000  1
  V  V3  1  0.31326700  0.66788600  0.49007900  1
  Si  Si0  1  0.18894400  0.40733900  0.26070000  1
  Si  Si1  1  0.31105600  0.90733800  0.23930100  1
  Si  Si2  1  0.68900500  0.09266500  0.76067600  1
  Si  Si3  1  0.81099500  0.59266500  0.73932500  1
  O  O0  1  0.12689900  0.62226100  0.73157700  1
  O  O1  1  0.37310100  0.12226100  0.76842000  1
  O  O2  1  0.62695200  0.87773000  0.23154800  1
  O  O3  1  0.87304800  0.37773200  0.26845100  1
  O  O4  1  0.17990800  0.83429800  0.05055500  1
  O  O5  1  0.32009400  0.33429800  0.44944300  1
  O  O6  1  0.67985600  0.66569800  0.55057500  1
  O  O7  1  0.82014600  0.16569700  0.94942700  1
  O  O8  1  0.19076700  0.84175400  0.44170100  1
  O  O9  1  0.30923000  0.34175600  0.05829700  1
  O  O10  1  0.69074900  0.65825900  0.94172500  1
  O  O11  1  0.80925300  0.15825700  0.55827600  1
  O  O12  1  0.24833200  0.06239800  0.23814900  1
  O  O13  1  0.25167000  0.56239900  0.26184900  1
  O  O14  1  0.74828100  0.43760300  0.73818900  1
  O  O15  1  0.75171800  0.93760300  0.76181000  1
loop_
_geom_bond_atom_site_label_1
_geom_bond_atom_site_label_2
_geom_bond_distance
_geom_bond_site_symmetry_2
Li0 O11 1.993312 1_455
Li0 O12 2.049989 1_555
Li0 O1 2.059175 1_555
Li0 O5 2.063497 1_555
Li1 O10 1.993324 1_555
Li1 O13 2.049989 1_556
Li1 O0 2.059173 1_555
Li1 O4 2.063491 1_556
Li2 O9 1.993326 1_555
Li2 O14 2.049961 1_554
Li2 O3 2.059106 1_555
Li2 O7 2.063591 1_554
Li3 O8 1.993329 1_655
Li3 O15 2.049953 1_555
Li3 O2 2.059102 1_555
Li3 O6 2.063577 1_555
O0 Si3 1.647956 1_455
O0 V3 1.947707 1_555
O1 Si2 1.647954 1_555
O1 V2 1.947706 1_556
O2 Si1 1.647938 1_555
O2 V1 1.947697 1_554
O3 Si0 1.647937 1_655
O3 V0 1.947755 1_555
O4 Si1 1.651887 1_555
O4 V1 1.932850 1_454
O5 Si0 1.651879 1_555
O5 V0 1.932837 1_555
O6 Si3 1.651855 1_555
O6 V3 1.932893 1_555
O7 Si2 1.651860 1_555
O7 V2 1.932904 1_656
O8 Si1 1.649519 1_555
O8 V3 1.942242 1_555
O9 Si0 1.649525 1_555
O9 V2 1.942248 1_555
O10 Si3 1.649482 1_555
O10 V1 1.942210 1_555
O11 Si2 1.649478 1_555
O11 V0 1.942286 1_555
O12 Si1 1.642007 1_545
O12 V2 1.937536 1_555
O13 Si0 1.642009 1_555
O13 V3 1.937539 1_555
O14 Si3 1.642017 1_555
O14 V0 1.937526 1_555
O15 Si2 1.642015 1_565
O15 V1 1.937614 1_555
