# generated using pymatgen
data_Ag2O
_symmetry_space_group_name_H-M   'P 1'
_cell_length_a   6.33540129
_cell_length_b   6.63088356
_cell_length_c   6.63088381
_cell_angle_alpha   94.25444838
_cell_angle_beta   61.46345202
_cell_angle_gamma   61.46344317
_symmetry_Int_Tables_number   1
_chemical_formula_structural   Ag2O
_chemical_formula_sum   'Ag8 O4'
_cell_volume   197.79721321
_cell_formula_units_Z   4
loop_
 _symmetry_equiv_pos_site_id
 _symmetry_equiv_pos_as_xyz
  1  'x, y, z'
loop_
 _atom_site_type_symbol
 _atom_site_label
 _atom_site_symmetry_multiplicity
 _atom_site_fract_x
 _atom_site_fract_y
 _atom_site_fract_z
 _atom_site_occupancy
  Ag  Ag0  1  0.00000000  0.50000000  0.00000000  1
  Ag  Ag1  1  0.50000000  0.50000000  0.00000000  1
  Ag  Ag2  1  0.00000000  0.00000000  0.00000000  1
  Ag  Ag3  1  0.25000000  0.50000000  0.50000000  1
  Ag  Ag4  1  0.50000000  0.00000000  0.00000000  1
  Ag  Ag5  1  0.00000000  0.00000000  0.50000000  1
  Ag  Ag6  1  0.75000000  0.50000000  0.50000000  1
  Ag  Ag7  1  0.50000000  0.00000000  0.50000000  1
  O  O0  1  0.22155894  0.38906813  0.16781398  1
  O  O1  1  0.27844106  0.83218702  0.61093187  1
  O  O2  1  0.72155894  0.16781398  0.38906813  1
  O  O3  1  0.77844106  0.61093187  0.83218702  1
loop_
_geom_bond_atom_site_label_1
_geom_bond_atom_site_label_2
_geom_bond_distance
_geom_bond_site_symmetry_2
Ag0 O3 2.092088 1_454
Ag0 O0 2.092094 1_555
Ag1 O3 2.092093 1_554
Ag1 O0 2.092094 1_555
Ag2 O1 2.087143 1_544
Ag2 O2 2.087143 1_455
Ag3 O2 2.385541 1_555
Ag3 O0 2.385542 1_555
Ag3 O3 2.385544 1_455
Ag3 O1 2.385548 1_555
Ag4 O3 2.087143 1_544
Ag4 O0 2.087143 1_555
Ag5 O1 2.092093 1_545
Ag5 O2 2.092094 1_455
Ag6 O0 2.385542 1_655
Ag6 O2 2.385542 1_555
Ag6 O1 2.385543 1_555
Ag6 O3 2.385548 1_555
Ag7 O1 2.092088 1_545
Ag7 O2 2.092094 1_555
