# generated using pymatgen
data_Li3V3P8O29
_symmetry_space_group_name_H-M   'P 1'
_cell_length_a   9.76083032
_cell_length_b   9.76083032
_cell_length_c   13.88175578
_cell_angle_alpha   89.87548529
_cell_angle_beta   89.87548529
_cell_angle_gamma   60.16120486
_symmetry_Int_Tables_number   1
_chemical_formula_structural   Li3V3P8O29
_chemical_formula_sum   'Li6 V6 P16 O58'
_cell_volume   1147.22966877
_cell_formula_units_Z   2
loop_
 _symmetry_equiv_pos_site_id
 _symmetry_equiv_pos_as_xyz
  1  'x, y, z'
loop_
 _atom_site_type_symbol
 _atom_site_label
 _atom_site_symmetry_multiplicity
 _atom_site_fract_x
 _atom_site_fract_y
 _atom_site_fract_z
 _atom_site_occupancy
  Li  Li0  1  0.90882100  0.31673100  0.19519800  1
  Li  Li1  1  0.32367100  0.90203000  0.68852600  1
  Li  Li2  1  0.77088000  0.91011000  0.19293600  1
  Li  Li3  1  0.08989000  0.22912000  0.80706400  1
  Li  Li4  1  0.68326900  0.09117900  0.80480200  1
  Li  Li5  1  0.09797000  0.67632900  0.31147400  1
  V  V0  1  0.43108700  0.00404500  0.49269000  1
  V  V1  1  0.56183900  0.00289400  0.00083800  1
  V  V2  1  0.99710600  0.43816100  0.99916200  1
  V  V3  1  0.99595500  0.56891300  0.50731000  1
  V  V4  1  0.56824500  0.43175500  0.50000000  1
  V  V5  1  0.43330800  0.56669200  0.00000000  1
  P  P0  1  0.76923000  0.31517300  0.90588100  1
  P  P1  1  0.91230900  0.31812600  0.40825600  1
  P  P2  1  0.31524000  0.76907700  0.40635800  1
  P  P3  1  0.66122600  0.66851000  0.62296100  1
  P  P4  1  0.66542700  0.66738900  0.12264200  1
  P  P5  1  0.31571600  0.91227000  0.90881200  1
  P  P6  1  0.22589100  0.08593100  0.09546700  1
  P  P7  1  0.91406900  0.77410900  0.90453300  1
  P  P8  1  0.08830100  0.22686000  0.59211300  1
  P  P9  1  0.77314000  0.91169900  0.40788700  1
  P  P10  1  0.68187400  0.08769100  0.59174400  1
  P  P11  1  0.33149000  0.33877400  0.37703900  1
  P  P12  1  0.33261100  0.33457300  0.87735800  1
  P  P13  1  0.68482700  0.23077000  0.09411900  1
  P  P14  1  0.08773000  0.68428400  0.09118800  1
  P  P15  1  0.23092300  0.68476000  0.59364200  1
  O  O0  1  0.76594200  0.23977900  0.18150800  1
  O  O1  1  0.74316700  0.34344000  0.41568100  1
  O  O2  1  0.00648800  0.23839900  0.68452000  1
  O  O3  1  0.91559800  0.33959300  0.90993700  1
  O  O4  1  0.61739800  0.47654000  0.92607500  1
  O  O5  1  0.66483100  0.51998700  0.57670500  1
  O  O6  1  0.47564300  0.61722000  0.42508700  1
  O  O7  1  0.23792100  0.76684600  0.68159300  1
  O  O8  1  0.34154300  0.74383900  0.91430500  1
  O  O9  1  0.81697600  0.51397200  0.07966300  1
  O  O10  1  0.90719800  0.47716600  0.42946700  1
  O  O11  1  0.51991400  0.66630100  0.07620300  1
  O  O12  1  0.66481100  0.66805900  0.73008700  1
  O  O13  1  0.67350500  0.66360800  0.22940200  1
  O  O14  1  0.51260100  0.81872600  0.58175800  1
  O  O15  1  0.90581100  0.61924300  0.92808300  1
  O  O16  1  0.81417200  0.66656800  0.57799300  1
  O  O17  1  0.34325500  0.91262100  0.41408900  1
  O  O18  1  0.20327600  0.00561000  0.99778900  1
  O  O19  1  0.23844200  0.99779300  0.18374300  1
  O  O20  1  0.24591900  0.99947400  0.81708400  1
  O  O21  1  0.47762200  0.90464700  0.92839700  1
  O  O22  1  0.66986100  0.81720300  0.08110900  1
  O  O23  1  0.25757600  0.08146700  0.58837000  1
  O  O24  1  0.61955600  0.90280600  0.42653000  1
  O  O25  1  0.91853300  0.74242400  0.41163000  1
  O  O26  1  0.00175100  0.20560800  0.49996000  1
  O  O27  1  0.99437000  0.24636800  0.31653800  1
  O  O28  1  0.00052600  0.75408100  0.18291600  1
  O  O29  1  0.08265100  0.25743500  0.08817800  1
  O  O30  1  0.38075700  0.09418900  0.07191700  1
  O  O31  1  0.74256500  0.91734900  0.91182200  1
  O  O32  1  0.33343200  0.18582800  0.42200700  1
  O  O33  1  0.52283300  0.09280200  0.57053300  1
  O  O34  1  0.75363200  0.00563000  0.68346200  1
  O  O35  1  0.76160100  0.99351200  0.31548000  1
  O  O36  1  0.79439200  0.99824900  0.50004000  1
  O  O37  1  0.66040700  0.08440200  0.09006300  1
  O  O38  1  0.18279700  0.33013900  0.91889100  1
  O  O39  1  0.09719400  0.38044400  0.57347000  1
  O  O40  1  0.48602800  0.18302400  0.92033700  1
  O  O41  1  0.33639200  0.32649500  0.77059800  1
  O  O42  1  0.33194100  0.33518900  0.26991300  1
  O  O43  1  0.48001300  0.33516900  0.42329500  1
  O  O44  1  0.09535300  0.52237800  0.07160300  1
  O  O45  1  0.18127400  0.48739900  0.41824200  1
  O  O46  1  0.65656000  0.25683300  0.58431900  1
  O  O47  1  0.79217100  0.20782900  0.00000000  1
  O  O48  1  0.76022100  0.23405800  0.81849200  1
  O  O49  1  0.52346000  0.38260200  0.07392500  1
  O  O50  1  0.33369900  0.48008600  0.92379700  1
  O  O51  1  0.38278000  0.52435700  0.57491300  1
  O  O52  1  0.08737900  0.65674500  0.58591100  1
  O  O53  1  0.00220700  0.76155800  0.81625700  1
  O  O54  1  0.99439000  0.79672400  0.00221100  1
  O  O55  1  0.25616100  0.65845700  0.08569500  1
  O  O56  1  0.23315400  0.76207900  0.31840700  1
  O  O57  1  0.20622800  0.79377200  0.50000000  1
loop_
_geom_bond_atom_site_label_1
_geom_bond_atom_site_label_2
_geom_bond_distance
_geom_bond_site_symmetry_2
Li0 O27 1.853806 1_555
Li0 O0 1.894579 1_555
Li0 O29 2.106297 1_655
Li0 O9 2.314689 1_555
Li1 O7 1.884370 1_555
Li1 O20 1.987116 1_555
Li1 O23 2.070202 1_565
Li1 O14 2.181698 1_555
Li2 O35 1.869953 1_555
Li2 O28 1.991405 1_655
Li2 O37 2.065653 1_565
Li2 O22 2.259873 1_555
Li3 O2 1.869953 1_555
Li3 O20 1.991405 1_545
Li3 O3 2.065653 1_455
Li3 O38 2.259873 1_555
Li4 O34 1.853806 1_555
Li4 O48 1.894579 1_555
Li4 O31 2.106297 1_545
Li4 O40 2.314689 1_555
Li5 O56 1.884370 1_555
Li5 O28 1.987116 1_555
Li5 O25 2.070202 1_455
Li5 O45 2.181698 1_555
O0 P13 1.476538 1_555
O1 P1 1.546220 1_555
O1 V4 1.886631 1_555
O2 P8 1.484103 1_555
O3 P0 1.562171 1_555
O3 V2 1.965680 1_555
O4 P0 1.559813 1_555
O4 V5 1.865108 1_556
O5 P3 1.571110 1_555
O5 V4 1.892247 1_555
O6 P2 1.551347 1_555
O6 V4 1.882338 1_555
O7 P15 1.482005 1_555
O8 P5 1.536002 1_555
O8 V5 1.913557 1_556
O9 P4 1.606947 1_555
O9 V2 1.894215 1_554
O10 P1 1.556879 1_555
O10 V3 1.870971 1_555
O11 P4 1.565900 1_555
O11 V5 1.898729 1_555
O12 P3 1.487530 1_555
O13 P4 1.483686 1_555
O14 P3 1.569967 1_555
O14 V0 1.999036 1_565
O15 P7 1.586618 1_555
O15 V2 1.822259 1_555
O16 P3 1.608278 1_555
O16 V3 1.825682 1_555
O17 P2 1.559308 1_555
O17 V0 1.868548 1_565
O18 P5 1.601299 1_545
O18 P6 1.637101 1_556
O19 P6 1.465600 1_565
O20 P5 1.494007 1_555
O21 P5 1.568975 1_555
O21 V1 1.843596 1_566
O22 P4 1.591175 1_555
O22 V1 1.932130 1_565
O23 P8 1.553462 1_555
O23 V0 1.981035 1_555
O24 P9 1.565101 1_555
O24 V0 1.841675 1_565
O25 P9 1.553462 1_555
O25 V3 1.981035 1_555
O26 P8 1.604190 1_555
O26 P1 1.622820 1_455
O27 P1 1.481341 1_555
O28 P14 1.494007 1_555
O29 P6 1.561461 1_555
O29 V2 1.966017 1_454
O30 P6 1.586618 1_555
O30 V1 1.822259 1_555
O31 P7 1.561461 1_555
O31 V1 1.966017 1_566
O32 P11 1.608278 1_555
O32 V0 1.825682 1_555
O33 P10 1.556889 1_555
O33 V0 1.870964 1_555
O34 P10 1.481341 1_555
O35 P9 1.484103 1_555
O36 P9 1.604190 1_555
O36 P10 1.622820 1_565
O37 P13 1.562171 1_555
O37 V1 1.965680 1_555
O38 P12 1.591175 1_555
O38 V2 1.932130 1_455
O39 P8 1.565101 1_555
O39 V3 1.841675 1_455
O40 P12 1.606947 1_555
O40 V1 1.894215 1_556
O41 P12 1.483686 1_555
O42 P11 1.487530 1_555
O43 P11 1.571110 1_555
O43 V4 1.892247 1_555
O44 P14 1.568975 1_555
O44 V2 1.843596 1_454
O45 P11 1.569967 1_555
O45 V3 1.999036 1_455
O46 P10 1.546220 1_555
O46 V4 1.886631 1_555
O47 P13 1.617666 1_555
O47 P0 1.617666 1_554
O48 P0 1.476538 1_555
O49 P13 1.559813 1_555
O49 V5 1.865108 1_555
O50 P12 1.565900 1_555
O50 V5 1.898729 1_556
O51 P15 1.551347 1_555
O51 V4 1.882338 1_555
O52 P15 1.559308 1_555
O52 V3 1.868548 1_455
O53 P7 1.465600 1_455
O54 P14 1.601299 1_655
O54 P7 1.637101 1_554
O55 P14 1.536002 1_555
O55 V5 1.913557 1_555
O56 P2 1.482005 1_555
O57 P15 1.618703 1_555
O57 P2 1.618703 1_555
