# generated using pymatgen
data_Li3MnSi2O7
_symmetry_space_group_name_H-M   'P 1'
_cell_length_a   4.66534400
_cell_length_b   5.35343719
_cell_length_c   6.75930115
_cell_angle_alpha   99.34430328
_cell_angle_beta   90.85180933
_cell_angle_gamma   115.62987552
_symmetry_Int_Tables_number   1
_chemical_formula_structural   Li3MnSi2O7
_chemical_formula_sum   'Li3 Mn1 Si2 O7'
_cell_volume   149.49890529
_cell_formula_units_Z   1
loop_
 _symmetry_equiv_pos_site_id
 _symmetry_equiv_pos_as_xyz
  1  'x, y, z'
loop_
 _atom_site_type_symbol
 _atom_site_label
 _atom_site_symmetry_multiplicity
 _atom_site_fract_x
 _atom_site_fract_y
 _atom_site_fract_z
 _atom_site_occupancy
  Li  Li0  1  0.71388300  0.42257200  0.15091900  1
  Li  Li1  1  0.83743700  0.70448500  0.55169200  1
  Li  Li2  1  0.28435100  0.56967900  0.83216000  1
  Mn  Mn0  1  0.00061500  0.00708600  0.01177700  1
  Si  Si0  1  0.58459300  0.15514400  0.71245300  1
  Si  Si1  1  0.43836200  0.84178000  0.28932800  1
  O  O0  1  0.75010600  0.08781400  0.20815000  1
  O  O1  1  0.88283500  0.44063900  0.68963900  1
  O  O2  1  0.37177300  0.23133300  0.88671600  1
  O  O3  1  0.68801300  0.91957300  0.78496800  1
  O  O4  1  0.51382600  0.58772700  0.32422400  1
  O  O5  1  0.34015900  0.98212800  0.50266300  1
  O  O6  1  0.13497300  0.74993400  0.11725100  1
loop_
_geom_bond_atom_site_label_1
_geom_bond_atom_site_label_2
_geom_bond_distance
_geom_bond_site_symmetry_2
Li0 O4 1.853410 1_555
Li0 O0 1.968510 1_555
Li0 O6 2.036371 1_655
Li0 O2 2.166254 1_554
Li1 O1 1.894731 1_555
Li1 O4 1.958712 1_555
Li1 O3 2.106085 1_555
Li1 O5 2.233176 1_655
Li2 O1 1.877478 1_455
Li2 O3 2.077762 1_555
Li2 O2 2.105878 1_555
Li2 O6 2.268945 1_556
Mn0 O0 1.900341 1_455
Mn0 O2 1.931020 1_554
Mn0 O3 1.950874 1_444
Mn0 O6 1.961704 1_545
O0 Si1 1.659022 1_545
O1 Si0 1.593392 1_555
O2 Si0 1.663944 1_555
O3 Si0 1.668398 1_565
O4 Si1 1.595395 1_555
O5 Si0 1.667573 1_565
O5 Si1 1.679102 1_555
O6 Si1 1.661707 1_555
