# generated using pymatgen
data_LiVF4
_symmetry_space_group_name_H-M   'P 1'
_cell_length_a   8.03956015
_cell_length_b   8.03956015
_cell_length_c   12.62622446
_cell_angle_alpha   59.83348542
_cell_angle_beta   59.83348542
_cell_angle_gamma   28.56138379
_symmetry_Int_Tables_number   1
_chemical_formula_structural   LiVF4
_chemical_formula_sum   'Li4 V4 F16'
_cell_volume   333.61888615
_cell_formula_units_Z   4
loop_
 _symmetry_equiv_pos_site_id
 _symmetry_equiv_pos_as_xyz
  1  'x, y, z'
loop_
 _atom_site_type_symbol
 _atom_site_label
 _atom_site_symmetry_multiplicity
 _atom_site_fract_x
 _atom_site_fract_y
 _atom_site_fract_z
 _atom_site_occupancy
  Li  Li0  1  0.19958100  0.19958100  0.33487100  1
  Li  Li1  1  0.34102700  0.34102700  0.82176100  1
  Li  Li2  1  0.65897300  0.65897300  0.17823900  1
  Li  Li3  1  0.80041900  0.80041900  0.66512900  1
  V  V0  1  0.96538900  0.96538900  0.36779500  1
  V  V1  1  0.86190500  0.86190500  0.14128700  1
  V  V2  1  0.13809500  0.13809500  0.85871300  1
  V  V3  1  0.03461100  0.03461100  0.63220500  1
  F  F0  1  0.48145300  0.48145300  0.35018100  1
  F  F1  1  0.92485400  0.92485400  0.24268200  1
  F  F2  1  0.83210100  0.83210100  0.50015700  1
  F  F3  1  0.35076200  0.35076200  0.15892200  1
  F  F4  1  0.72355900  0.72355900  0.28545100  1
  F  F5  1  0.79988800  0.79988800  0.04541000  1
  F  F6  1  0.88564300  0.88564300  0.75663700  1
  F  F7  1  0.11435700  0.11435700  0.24336300  1
  F  F8  1  0.20011200  0.20011200  0.95459000  1
  F  F9  1  0.27644100  0.27644100  0.71454900  1
  F  F10  1  0.64923800  0.64923800  0.84107800  1
  F  F11  1  0.16789900  0.16789900  0.49984300  1
  F  F12  1  0.00000000  0.00000000  0.00000000  1
  F  F13  1  0.07514600  0.07514600  0.75731800  1
  F  F14  1  0.51854700  0.51854700  0.64981900  1
  F  F15  1  0.00000000  0.00000000  0.50000000  1
loop_
_geom_bond_atom_site_label_1
_geom_bond_atom_site_label_2
_geom_bond_distance
_geom_bond_site_symmetry_2
F0 V0 1.996803 1_455
F0 V0 1.996803 1_545
F0 Li2 2.477271 1_555
F1 V1 1.975720 1_555
F1 V0 1.982220 1_555
F2 V0 1.872679 1_555
F2 Li3 1.875114 1_555
F3 V1 1.993105 1_455
F3 V1 1.993105 1_545
F3 Li0 2.248869 1_555
F4 V1 1.972576 1_555
F4 Li0 2.054267 1_565
F4 Li0 2.054267 1_655
F4 Li2 2.063526 1_555
F5 V1 1.900670 1_555
F5 Li2 1.953216 1_555
F6 V3 2.018528 1_665
F6 Li1 2.121189 1_565
F6 Li1 2.121189 1_655
F6 Li3 2.165578 1_555
F7 V0 2.018528 1_445
F7 Li2 2.121189 1_455
F7 Li2 2.121189 1_545
F7 Li0 2.165578 1_555
F8 V2 1.900670 1_555
F8 Li1 1.953216 1_555
F9 V2 1.972576 1_555
F9 Li3 2.054267 1_455
F9 Li3 2.054267 1_545
F9 Li1 2.063526 1_555
F10 V2 1.993105 1_655
F10 V2 1.993105 1_565
F10 Li3 2.248869 1_555
F11 V3 1.872679 1_555
F11 Li0 1.875114 1_555
F12 V1 1.957481 1_445
F12 V2 1.957481 1_554
F13 V2 1.975720 1_555
F13 V3 1.982220 1_555
F14 V3 1.996803 1_655
F14 V3 1.996803 1_565
F14 Li1 2.477271 1_555
F15 V0 2.002721 1_445
F15 V3 2.002721 1_555
