# generated using pymatgen
data_LiMn3(BO3)3
_symmetry_space_group_name_H-M   'P 1'
_cell_length_a   5.78419200
_cell_length_b   8.11875978
_cell_length_c   9.17200569
_cell_angle_alpha   110.57430180
_cell_angle_beta   105.00978018
_cell_angle_gamma   100.77927440
_symmetry_Int_Tables_number   1
_chemical_formula_structural   LiMn3(BO3)3
_chemical_formula_sum   'Li2 Mn6 B6 O18'
_cell_volume   370.62288519
_cell_formula_units_Z   2
loop_
 _symmetry_equiv_pos_site_id
 _symmetry_equiv_pos_as_xyz
  1  'x, y, z'
loop_
 _atom_site_type_symbol
 _atom_site_label
 _atom_site_symmetry_multiplicity
 _atom_site_fract_x
 _atom_site_fract_y
 _atom_site_fract_z
 _atom_site_occupancy
  Li  Li0  1  0.48515600  0.17273300  0.89605000  1
  Li  Li1  1  0.51484400  0.82726700  0.10395000  1
  Mn  Mn0  1  0.56894200  0.82346900  0.77033100  1
  Mn  Mn1  1  0.78549800  0.52626100  0.86470700  1
  Mn  Mn2  1  0.07722800  0.82960200  0.51310500  1
  Mn  Mn3  1  0.92277200  0.17039800  0.48689500  1
  Mn  Mn4  1  0.21450200  0.47373900  0.13529300  1
  Mn  Mn5  1  0.43105800  0.17653100  0.22966900  1
  B  B0  1  0.45885600  0.19233700  0.57492400  1
  B  B1  1  0.88127600  0.14156400  0.12813900  1
  B  B2  1  0.75329100  0.50643000  0.20685500  1
  B  B3  1  0.24670900  0.49357000  0.79314500  1
  B  B4  1  0.11872400  0.85843600  0.87186100  1
  B  B5  1  0.54114400  0.80766300  0.42507600  1
  O  O0  1  0.75910100  0.07694600  0.96273300  1
  O  O1  1  0.40135100  0.78186600  0.52237200  1
  O  O2  1  0.11747400  0.27753200  0.20573500  1
  O  O3  1  0.55402100  0.26935100  0.74351700  1
  O  O4  1  0.20992100  0.07290900  0.48755300  1
  O  O5  1  0.89474100  0.53146900  0.11031600  1
  O  O6  1  0.22707200  0.91281000  0.77005300  1
  O  O7  1  0.49247600  0.62067800  0.87944900  1
  O  O8  1  0.84524500  0.58682200  0.37489100  1
  O  O9  1  0.15475500  0.41317800  0.62510900  1
  O  O10  1  0.50752400  0.37932200  0.12055100  1
  O  O11  1  0.77292800  0.08719000  0.22994700  1
  O  O12  1  0.10525900  0.46853100  0.88968400  1
  O  O13  1  0.79007900  0.92709100  0.51244700  1
  O  O14  1  0.44597900  0.73064900  0.25648300  1
  O  O15  1  0.88252600  0.72246800  0.79426500  1
  O  O16  1  0.59864900  0.21813400  0.47762800  1
  O  O17  1  0.24089900  0.92305400  0.03726700  1
loop_
_geom_bond_atom_site_label_1
_geom_bond_atom_site_label_2
_geom_bond_distance
_geom_bond_site_symmetry_2
Li0 O3 1.916864 1_555
Li0 O0 1.944966 1_555
Li0 O6 2.056992 1_545
Li0 O10 2.103175 1_556
Li1 O14 1.916864 1_555
Li1 O17 1.944966 1_555
Li1 O11 2.056992 1_565
Li1 O7 2.103175 1_554
Mn0 O0 2.038261 1_565
Mn0 O1 2.102814 1_555
Mn0 O15 2.118300 1_555
Mn0 O6 2.229707 1_555
Mn0 O7 2.241203 1_555
Mn1 O15 1.961303 1_555
Mn1 O12 1.968065 1_655
Mn1 O3 1.983367 1_555
Mn1 O7 2.002594 1_555
Mn1 O5 2.159073 1_556
Mn2 O8 1.914705 1_455
Mn2 O13 1.968517 1_455
Mn2 O1 1.970953 1_555
Mn2 O6 2.089433 1_555
Mn2 O4 2.097015 1_565
Mn3 O9 1.914705 1_655
Mn3 O4 1.968517 1_655
Mn3 O16 1.970953 1_555
Mn3 O11 2.089433 1_555
Mn3 O13 2.097015 1_545
Mn4 O2 1.961303 1_555
Mn4 O5 1.968065 1_455
Mn4 O14 1.983367 1_555
Mn4 O10 2.002594 1_555
Mn4 O12 2.159073 1_554
Mn5 O17 2.038261 1_545
Mn5 O16 2.102814 1_555
Mn5 O2 2.118300 1_555
Mn5 O11 2.229707 1_555
Mn5 O10 2.241203 1_555
B0 O3 1.354963 1_555
B0 O16 1.391343 1_555
B0 O4 1.410529 1_555
B1 O0 1.350127 1_554
B1 O11 1.396047 1_555
B1 O2 1.404168 1_655
B2 O8 1.350113 1_555
B2 O5 1.390795 1_555
B2 O10 1.416563 1_555
B3 O9 1.350113 1_555
B3 O12 1.390795 1_555
B3 O7 1.416563 1_555
B4 O17 1.350127 1_556
B4 O6 1.396047 1_555
B4 O15 1.404168 1_455
B5 O14 1.354963 1_555
B5 O1 1.391343 1_555
B5 O13 1.410529 1_555
