# generated using pymatgen
data_Li4Cr2Co3Sn3O16
_symmetry_space_group_name_H-M   'P 1'
_cell_length_a   5.94828971
_cell_length_b   6.00709476
_cell_length_c   9.54484730
_cell_angle_alpha   89.71804768
_cell_angle_beta   89.40435209
_cell_angle_gamma   119.97591140
_symmetry_Int_Tables_number   1
_chemical_formula_structural   Li4Cr2Co3Sn3O16
_chemical_formula_sum   'Li4 Cr2 Co3 Sn3 O16'
_cell_volume   295.39864218
_cell_formula_units_Z   1
loop_
 _symmetry_equiv_pos_site_id
 _symmetry_equiv_pos_as_xyz
  1  'x, y, z'
loop_
 _atom_site_type_symbol
 _atom_site_label
 _atom_site_symmetry_multiplicity
 _atom_site_fract_x
 _atom_site_fract_y
 _atom_site_fract_z
 _atom_site_occupancy
  Li  Li0  1  0.35536000  0.68001600  0.88604000  1
  Li  Li1  1  0.94865800  0.97413200  0.99165300  1
  Li  Li2  1  0.96824300  0.98730200  0.50319600  1
  Li  Li3  1  0.67561100  0.33775400  0.39904600  1
  Cr  Cr0  1  0.33575900  0.66373500  0.49034700  1
  Cr  Cr1  1  0.67787000  0.33747800  0.98138300  1
  Co  Co0  1  0.66138200  0.83039400  0.21680200  1
  Co  Co1  1  0.83172800  0.66371400  0.71115200  1
  Co  Co2  1  0.83260600  0.17341200  0.71455600  1
  Sn  Sn0  1  0.17146600  0.83317300  0.21271200  1
  Sn  Sn1  1  0.17143000  0.33817900  0.21304400  1
  Sn  Sn2  1  0.33876500  0.17025900  0.71280000  1
  O  O0  1  0.14460400  0.82328700  0.59949300  1
  O  O1  1  0.03937800  0.51987900  0.35071600  1
  O  O2  1  0.35682100  0.67806100  0.09904900  1
  O  O3  1  0.97987300  0.98990400  0.31717000  1
  O  O4  1  0.97816500  0.98781800  0.80712800  1
  O  O5  1  0.15333400  0.32134900  0.59607700  1
  O  O6  1  0.49482900  0.96422300  0.34365700  1
  O  O7  1  0.49578600  0.53107600  0.34300200  1
  O  O8  1  0.32590900  0.16337300  0.08719600  1
  O  O9  1  0.66826700  0.82615200  0.61469000  1
  O  O10  1  0.54366600  0.49873500  0.83980400  1
  O  O11  1  0.53658900  0.04443100  0.84108400  1
  O  O12  1  0.69117400  0.34714900  0.60738400  1
  O  O13  1  0.82850400  0.67071300  0.10100600  1
  O  O14  1  0.96538300  0.48653700  0.82682500  1
  O  O15  1  0.82884200  0.15806500  0.10082300  1
loop_
_geom_bond_atom_site_label_1
_geom_bond_atom_site_label_2
_geom_bond_distance
_geom_bond_site_symmetry_2
Li0 O11 1.939405 1_565
Li0 O10 1.961775 1_555
Li0 O2 2.033248 1_556
Li0 O14 2.095444 1_455
Li1 O4 1.765599 1_555
Li1 O13 1.893777 1_556
Li1 O15 1.896660 1_566
Li1 O8 2.159425 1_666
Li2 O3 1.775906 1_555
Li2 O9 1.864890 1_555
Li2 O5 1.963385 1_665
Li2 O0 1.989975 1_655
Li3 O1 1.923654 1_655
Li3 O12 1.991435 1_555
Li3 O7 2.006489 1_555
Li3 O6 2.020650 1_545
Cr0 O5 2.037826 1_555
Cr0 O1 2.041778 1_555
Cr0 O7 2.064037 1_555
Cr0 O6 2.086813 1_555
Cr0 O0 2.090693 1_555
Cr0 O9 2.098640 1_555
Cr1 O11 2.041247 1_555
Cr1 O10 2.045489 1_555
Cr1 O15 2.060101 1_556
Cr1 O8 2.062653 1_556
Cr1 O14 2.075382 1_555
Cr1 O13 2.089274 1_556
Co0 O3 1.912525 1_555
Co0 O2 1.943823 1_555
Co0 O7 1.959171 1_555
Co0 O6 1.968341 1_555
Co0 O13 2.017511 1_555
Co0 O15 2.021993 1_565
Co1 O10 1.916623 1_555
Co1 O0 1.919468 1_655
Co1 O9 1.924344 1_555
Co1 O4 1.930789 1_555
Co1 O12 1.934745 1_555
Co1 O14 1.958583 1_555
Co2 O12 1.930835 1_555
Co2 O11 1.934564 1_555
Co2 O4 1.934978 1_545
Co2 O14 1.965470 1_555
Co2 O5 1.989804 1_655
Co2 O9 2.053518 1_545
O0 Sn2 2.119074 1_565
O1 Sn0 2.090639 1_555
O1 Sn1 2.093910 1_555
O2 Sn1 2.066842 1_555
O2 Sn0 2.066992 1_555
O3 Sn1 2.058384 1_665
O3 Sn0 2.058425 1_655
O4 Sn2 2.052715 1_665
O5 Sn2 2.073054 1_555
O6 Sn0 2.104307 1_555
O7 Sn1 2.105634 1_555
O8 Sn1 2.084120 1_555
O8 Sn0 2.084828 1_545
O10 Sn2 2.121213 1_555
O11 Sn2 2.089233 1_555
O12 Sn2 2.062884 1_555
O13 Sn0 2.077737 1_655
O15 Sn1 2.079473 1_655
