# generated using pymatgen
data_Hf2N2O
_symmetry_space_group_name_H-M   'P 1'
_cell_length_a   8.72729400
_cell_length_b   8.73006954
_cell_length_c   8.73213385
_cell_angle_alpha   109.53915279
_cell_angle_beta   109.34299859
_cell_angle_gamma   109.44867378
_symmetry_Int_Tables_number   1
_chemical_formula_structural   Hf2N2O
_chemical_formula_sum   'Hf16 N16 O8'
_cell_volume   512.67015972
_cell_formula_units_Z   8
loop_
 _symmetry_equiv_pos_site_id
 _symmetry_equiv_pos_as_xyz
  1  'x, y, z'
loop_
 _atom_site_type_symbol
 _atom_site_label
 _atom_site_symmetry_multiplicity
 _atom_site_fract_x
 _atom_site_fract_y
 _atom_site_fract_z
 _atom_site_occupancy
  Hf  Hf0  1  0.45925700  0.70215500  0.25846400  1
  Hf  Hf1  1  0.01500600  0.01824400  0.48844300  1
  Hf  Hf2  1  0.71281900  0.16789800  0.53782700  1
  Hf  Hf3  1  0.78087600  0.81196700  0.96987100  1
  Hf  Hf4  1  0.69020800  0.47754000  0.27780000  1
  Hf  Hf5  1  0.68736100  0.97303400  0.78317900  1
  Hf  Hf6  1  0.50315800  0.00770800  0.99037800  1
  Hf  Hf7  1  0.51416300  0.52336100  0.49372200  1
  Hf  Hf8  1  0.97253000  0.47811900  0.01243600  1
  Hf  Hf9  1  0.96435900  0.21695900  0.25161500  1
  Hf  Hf10  1  0.02185400  0.76243500  0.76215000  1
  Hf  Hf11  1  0.32417200  0.54198800  0.70945800  1
  Hf  Hf12  1  0.32163900  0.03991000  0.21374800  1
  Hf  Hf13  1  0.20871400  0.16851400  0.04152200  1
  Hf  Hf14  1  0.29021100  0.82532400  0.45932700  1
  Hf  Hf15  1  0.53798900  0.29180300  0.74709700  1
  N  N0  1  0.97356200  0.20292400  0.53601300  1
  N  N1  1  0.21768200  0.68307900  0.77283200  1
  N  N2  1  0.42845500  0.68562300  0.04180200  1
  N  N3  1  0.69994100  0.74458600  0.26530400  1
  N  N4  1  0.58574900  0.31954300  0.95170700  1
  N  N5  1  0.53233300  0.98827800  0.23756600  1
  N  N6  1  0.29197000  0.24554700  0.74109500  1
  N  N7  1  0.81605500  0.05295100  0.45689300  1
  N  N8  1  0.78589200  0.31961100  0.22590500  1
  N  N9  1  0.19609000  0.92539100  0.03213400  1
  N  N10  1  0.43276600  0.70695000  0.51718700  1
  N  N11  1  0.75169000  0.52546800  0.00983700  1
  N  N12  1  0.81920400  0.30477100  0.72617800  1
  N  N13  1  0.51247900  0.49950700  0.22707800  1
  N  N14  1  0.01866800  0.79587200  0.46828000  1
  N  N15  1  0.00106700  0.97005600  0.27046400  1
  O  O0  1  0.00478500  0.03473800  0.72305700  1
  O  O1  1  0.48760700  0.50038100  0.77483600  1
  O  O2  1  0.17210500  0.68560900  0.27520100  1
  O  O3  1  0.55802100  0.28238100  0.48870100  1
  O  O4  1  0.25871700  0.48577400  0.98101700  1
  O  O5  1  0.80051500  0.07660100  0.97116700  1
  O  O6  1  0.46551900  0.00788200  0.76372400  1
  O  O7  1  0.18480900  0.94951900  0.54498800  1
loop_
_geom_bond_atom_site_label_1
_geom_bond_atom_site_label_2
_geom_bond_distance
_geom_bond_site_symmetry_2
Hf0 N2 1.768353 1_555
Hf0 N13 1.930777 1_555
Hf0 N3 1.984165 1_555
Hf0 O4 2.104580 1_554
Hf0 N10 2.334180 1_555
Hf0 N5 2.449604 1_555
Hf0 O2 2.517588 1_555
Hf1 N0 1.715420 1_455
Hf1 N15 1.758324 1_545
Hf1 O7 1.762208 1_545
Hf1 N7 1.808798 1_455
Hf1 N14 1.901885 1_545
Hf1 O0 2.039135 1_555
Hf1 N6 2.234387 1_555
Hf1 N3 2.455070 1_445
Hf2 N12 1.389228 1_555
Hf2 N7 1.693432 1_555
Hf2 O3 1.951932 1_555
Hf2 N5 2.164181 1_545
Hf2 N0 2.199039 1_555
Hf3 N15 2.226333 1_656
Hf3 O5 2.254863 1_565
Hf3 O1 2.495586 1_555
Hf3 N11 2.580884 1_556
Hf4 N13 1.561615 1_555
Hf4 N8 1.844732 1_555
Hf4 N11 2.697248 1_555
Hf5 O5 1.351336 1_565
Hf5 O6 2.019589 1_565
Hf5 N10 2.294110 1_555
Hf5 O0 2.898095 1_665
Hf6 O6 1.896496 1_555
Hf6 N5 2.159220 1_546
Hf6 N8 2.480082 1_556
Hf6 N1 2.531657 1_545
Hf7 N10 1.936582 1_555
Hf7 O3 2.249430 1_555
Hf7 N13 2.261825 1_555
Hf7 O1 2.606713 1_555
Hf8 O2 2.012720 1_655
Hf8 N12 2.057759 1_554
Hf8 N11 2.096148 1_555
Hf8 O4 2.583211 1_654
Hf9 O5 2.012355 1_554
Hf9 N8 2.027770 1_555
Hf9 N15 2.331961 1_645
Hf9 N0 2.503338 1_555
Hf10 N9 1.958394 1_556
Hf10 N1 2.033611 1_555
Hf10 O0 2.556338 1_565
Hf10 N14 2.670226 1_555
Hf11 O1 1.560965 1_555
Hf11 N1 1.825979 1_555
Hf11 N10 2.748364 1_555
Hf11 O4 2.771144 1_555
Hf11 N0 2.884146 1_455
Hf12 N9 1.331905 1_545
Hf12 N5 1.997219 1_545
Hf12 O3 2.216402 1_555
Hf12 N15 2.903131 1_545
Hf13 N9 2.060508 1_545
Hf13 O0 2.330142 1_554
Hf13 N13 2.631455 1_555
Hf13 O4 2.909898 1_554
Hf14 O2 1.374189 1_555
Hf14 O7 1.777279 1_555
Hf14 N10 1.913130 1_555
Hf14 O6 2.189659 1_565
Hf15 N4 1.604568 1_555
Hf15 O1 1.968853 1_555
Hf15 N6 2.027237 1_555
Hf15 N11 2.098740 1_556
Hf15 O3 2.296776 1_555
Hf15 O6 2.412966 1_555
Hf15 N12 2.489035 1_555
N0 N7 1.283900 1_555
N2 O4 1.630554 1_554
N11 N4 1.660043 1_554
N14 O7 1.345639 1_555
