# generated using pymatgen
data_Li4Ni3Sn2Sb3O16
_symmetry_space_group_name_H-M   'P 1'
_cell_length_a   6.16826153
_cell_length_b   6.16827786
_cell_length_c   19.82269411
_cell_angle_alpha   90.28966909
_cell_angle_beta   90.29286757
_cell_angle_gamma   60.35734685
_symmetry_Int_Tables_number   1
_chemical_formula_structural   Li4Ni3Sn2Sb3O16
_chemical_formula_sum   'Li8 Ni6 Sn4 Sb6 O32'
_cell_volume   655.48854869
_cell_formula_units_Z   2
loop_
 _symmetry_equiv_pos_site_id
 _symmetry_equiv_pos_as_xyz
  1  'x, y, z'
loop_
 _atom_site_type_symbol
 _atom_site_label
 _atom_site_symmetry_multiplicity
 _atom_site_fract_x
 _atom_site_fract_y
 _atom_site_fract_z
 _atom_site_occupancy
  Li  Li0  1  0.66259100  0.66261600  0.44172600  1
  Li  Li1  1  0.66259800  0.66261700  0.94174500  1
  Li  Li2  1  0.98579800  0.98581600  0.49161300  1
  Li  Li3  1  0.98579600  0.98581500  0.99165200  1
  Li  Li4  1  0.99136600  0.99130000  0.25129200  1
  Li  Li5  1  0.99137300  0.99132300  0.75129800  1
  Li  Li6  1  0.32545700  0.32550700  0.20450100  1
  Li  Li7  1  0.32543300  0.32548500  0.70450800  1
  Ni  Ni0  1  0.83066000  0.83068900  0.60771400  1
  Ni  Ni1  1  0.83061800  0.83070200  0.10777100  1
  Ni  Ni2  1  0.17287700  0.66201500  0.35622400  1
  Ni  Ni3  1  0.17280900  0.66202400  0.85621900  1
  Ni  Ni4  1  0.66197400  0.17288600  0.35621700  1
  Ni  Ni5  1  0.66199800  0.17281700  0.85623100  1
  Sn  Sn0  1  0.67745300  0.67746100  0.25176800  1
  Sn  Sn1  1  0.67746700  0.67744700  0.75172500  1
  Sn  Sn2  1  0.34640700  0.34629800  0.48832200  1
  Sn  Sn3  1  0.34632000  0.34631000  0.98831400  1
  Sb  Sb0  1  0.17156100  0.17159100  0.35723000  1
  Sb  Sb1  1  0.17153400  0.17155500  0.85720800  1
  Sb  Sb2  1  0.33814300  0.83198200  0.10781700  1
  Sb  Sb3  1  0.33809300  0.83199200  0.60782300  1
  Sb  Sb4  1  0.83197400  0.33815500  0.10782400  1
  Sb  Sb5  1  0.83199500  0.33812600  0.60781900  1
  O  O0  1  0.51452700  0.51486900  0.16930600  1
  O  O1  1  0.51457900  0.51478100  0.66925900  1
  O  O2  1  0.66318300  0.66339400  0.05263300  1
  O  O3  1  0.66293400  0.66348200  0.55262200  1
  O  O4  1  0.00176000  0.00169600  0.15761600  1
  O  O5  1  0.00187800  0.00168000  0.65758900  1
  O  O6  1  0.00744100  0.00749300  0.40159500  1
  O  O7  1  0.00749400  0.00747100  0.90167200  1
  O  O8  1  0.16346800  0.16337100  0.05148800  1
  O  O9  1  0.16346800  0.16325700  0.55152100  1
  O  O10  1  0.84098300  0.84099900  0.29908000  1
  O  O11  1  0.84097300  0.84099000  0.79908300  1
  O  O12  1  0.32625600  0.32625100  0.30298000  1
  O  O13  1  0.32626900  0.32626100  0.80298100  1
  O  O14  1  0.48579600  0.48577100  0.41967200  1
  O  O15  1  0.48571100  0.48588600  0.91964000  1
  O  O16  1  0.32481700  0.84969400  0.29727600  1
  O  O17  1  0.32479200  0.84969800  0.79727500  1
  O  O18  1  0.84970700  0.32481000  0.29727300  1
  O  O19  1  0.84971600  0.32476800  0.79727700  1
  O  O20  1  0.51254600  0.95974300  0.17005400  1
  O  O21  1  0.51240900  0.95979900  0.67002300  1
  O  O22  1  0.95978100  0.51256200  0.17007800  1
  O  O23  1  0.95974400  0.51251000  0.67004300  1
  O  O24  1  0.03303400  0.47275200  0.42122100  1
  O  O25  1  0.03295300  0.47276400  0.92118600  1
  O  O26  1  0.47280300  0.03300700  0.42118600  1
  O  O27  1  0.47275100  0.03302000  0.92116200  1
  O  O28  1  0.16698800  0.68063600  0.05011600  1
  O  O29  1  0.16707900  0.68073900  0.55015300  1
  O  O30  1  0.68059500  0.16691100  0.05010300  1
  O  O31  1  0.68066600  0.16700900  0.55011500  1
loop_
_geom_bond_atom_site_label_1
_geom_bond_atom_site_label_2
_geom_bond_distance
_geom_bond_site_symmetry_2
Li0 O14 1.933198 1_555
Li0 O26 2.028512 1_565
Li0 O24 2.028684 1_655
Li0 O3 2.198230 1_555
Li1 O15 1.933307 1_555
Li1 O25 2.028443 1_655
Li1 O27 2.028755 1_565
Li1 O2 2.198068 1_556
Li2 O6 1.800635 1_665
Li2 O31 2.016136 1_565
Li2 O29 2.016301 1_655
Li2 O9 2.229187 1_665
Li3 O7 1.799912 1_665
Li3 O30 2.015781 1_566
Li3 O28 2.015799 1_656
Li3 O8 2.228962 1_666
Li4 O4 1.860867 1_665
Li4 O10 1.867041 1_555
Li4 O16 2.008998 1_655
Li4 O18 2.009321 1_565
Li5 O5 1.861546 1_665
Li5 O11 1.867236 1_555
Li5 O17 2.008768 1_655
Li5 O19 2.008981 1_565
Li6 O12 1.952088 1_555
Li6 O22 2.074229 1_455
Li6 O20 2.074896 1_545
Li6 O0 2.138962 1_555
Li7 O13 1.951969 1_555
Li7 O23 2.074562 1_455
Li7 O21 2.074738 1_545
Li7 O1 2.139368 1_555
Ni0 O5 2.070241 1_665
Ni0 O3 2.087887 1_555
Ni0 O23 2.116851 1_555
Ni0 O21 2.117021 1_555
Ni0 O31 2.139584 1_565
Ni0 O29 2.139742 1_655
Ni1 O4 2.069618 1_665
Ni1 O2 2.087495 1_555
Ni1 O20 2.115934 1_555
Ni1 O22 2.116375 1_555
Ni1 O30 2.139790 1_565
Ni1 O28 2.140477 1_655
Ni2 O6 2.056776 1_565
Ni2 O12 2.085261 1_555
Ni2 O14 2.098238 1_555
Ni2 O10 2.108621 1_455
Ni2 O16 2.163799 1_555
Ni2 O24 2.188525 1_555
Ni3 O7 2.057343 1_565
Ni3 O13 2.085179 1_555
Ni3 O15 2.097805 1_555
Ni3 O11 2.108277 1_455
Ni3 O17 2.163919 1_555
Ni3 O25 2.188211 1_555
Ni4 O6 2.056705 1_655
Ni4 O12 2.084887 1_555
Ni4 O14 2.098259 1_555
Ni4 O10 2.108621 1_545
Ni4 O18 2.163944 1_555
Ni4 O26 2.187936 1_555
Ni5 O7 2.057393 1_655
Ni5 O13 2.085052 1_555
Ni5 O15 2.098509 1_555
Ni5 O11 2.108466 1_545
Ni5 O19 2.164099 1_555
Ni5 O27 2.187498 1_555
O0 Sb2 2.097834 1_555
O0 Sb4 2.099359 1_555
O0 Sn0 2.377267 1_555
O1 Sb3 2.097666 1_555
O1 Sb5 2.098724 1_555
O1 Sn1 2.377460 1_555
O2 Sb2 2.060656 1_555
O2 Sb4 2.061561 1_555
O3 Sb3 2.059935 1_555
O3 Sb5 2.062184 1_555
O4 Sb2 2.058507 1_545
O4 Sb4 2.058720 1_455
O5 Sb3 2.057404 1_545
O5 Sb5 2.058454 1_455
O6 Sb0 1.963283 1_555
O7 Sb1 1.963725 1_555
O8 Sb2 2.101956 1_545
O8 Sb4 2.102605 1_455
O8 Sn3 2.324073 1_554
O9 Sb3 2.101109 1_545
O9 Sb5 2.102125 1_455
O9 Sn2 2.325191 1_555
O10 Sn0 1.975317 1_555
O11 Sn1 1.975656 1_555
O12 Sb0 1.974420 1_555
O13 Sb1 1.974554 1_555
O14 Sn2 2.021557 1_555
O15 Sn3 2.022294 1_555
O16 Sb0 2.092704 1_565
O16 Sn0 2.097199 1_555
O17 Sb1 2.092290 1_565
O17 Sn1 2.097748 1_555
O18 Sb0 2.092452 1_655
O18 Sn0 2.097172 1_555
O19 Sb1 2.092001 1_655
O19 Sn1 2.097711 1_555
O20 Sb2 2.028680 1_555
O20 Sn0 2.224831 1_555
O21 Sb3 2.028035 1_555
O21 Sn1 2.224961 1_555
O22 Sb4 2.029095 1_555
O22 Sn0 2.224749 1_555
O23 Sb5 2.028402 1_555
O23 Sn1 2.224473 1_555
O24 Sb0 2.051126 1_555
O24 Sn2 2.146344 1_555
O25 Sb1 2.051165 1_555
O25 Sn3 2.146648 1_555
O26 Sb0 2.050940 1_555
O26 Sn2 2.146535 1_555
O27 Sb1 2.050817 1_555
O27 Sn3 2.146710 1_555
O28 Sb2 2.060603 1_555
O28 Sn3 2.170024 1_554
O29 Sb3 2.059223 1_555
O29 Sn2 2.170840 1_555
O30 Sb4 2.061371 1_555
O30 Sn3 2.169575 1_554
O31 Sb5 2.060394 1_555
O31 Sn2 2.169522 1_555
