# generated using pymatgen
data_NaCa2LuSi2O7F2
_symmetry_space_group_name_H-M   'P 1'
_cell_length_a   9.27841100
_cell_length_b   9.42976495
_cell_length_c   10.19614733
_cell_angle_alpha   95.67006265
_cell_angle_beta   92.07658740
_cell_angle_gamma   108.43834012
_symmetry_Int_Tables_number   1
_chemical_formula_structural   NaCa2LuSi2O7F2
_chemical_formula_sum   'Na4 Ca8 Lu4 Si8 O28 F8'
_cell_volume   840.00268575
_cell_formula_units_Z   4
loop_
 _symmetry_equiv_pos_site_id
 _symmetry_equiv_pos_as_xyz
  1  'x, y, z'
loop_
 _atom_site_type_symbol
 _atom_site_label
 _atom_site_symmetry_multiplicity
 _atom_site_fract_x
 _atom_site_fract_y
 _atom_site_fract_z
 _atom_site_occupancy
  Na  Na0  1  0.27087200  0.68302000  0.02566500  1
  Na  Na1  1  0.43106500  0.01322600  0.68883900  1
  Na  Na2  1  0.75613000  0.91677600  0.55435300  1
  Na  Na3  1  0.82406300  0.41831500  0.94066600  1
  Ca  Ca0  1  0.16494800  0.31695600  0.63162700  1
  Ca  Ca1  1  0.28152100  0.17320400  0.38536700  1
  Ca  Ca2  1  0.50468700  0.45315600  0.84938600  1
  Ca  Ca3  1  0.45291000  0.10225500  0.05517500  1
  Ca  Ca4  1  0.48444800  0.47271500  0.18293800  1
  Ca  Ca5  1  0.46216400  0.84551700  0.32394600  1
  Ca  Ca6  1  0.01718200  0.80262200  0.42104600  1
  Ca  Ca7  1  0.89706500  0.14405000  0.11440000  1
  Lu  Lu0  1  0.04004700  0.91033500  0.82457800  1
  Lu  Lu1  1  0.49196500  0.61136800  0.54886300  1
  Lu  Lu2  1  0.63309500  0.82620500  0.92046500  1
  Lu  Lu3  1  0.62769900  0.31253900  0.49759800  1
  Si  Si0  1  0.20865300  0.70101200  0.63979000  1
  Si  Si1  1  0.04689200  0.91504100  0.11487800  1
  Si  Si2  1  0.14107400  0.28562300  0.91986900  1
  Si  Si3  1  0.18050300  0.51184100  0.36537500  1
  Si  Si4  1  0.76593900  0.58254000  0.69068500  1
  Si  Si5  1  0.81436500  0.65587900  0.13981700  1
  Si  Si6  1  0.82988400  0.12858400  0.80229500  1
  Si  Si7  1  0.90257700  0.24814100  0.38769000  1
  O  O0  1  0.00097200  0.76091000  0.19677100  1
  O  O1  1  0.11849900  0.61845300  0.48126500  1
  O  O2  1  0.03219700  0.35629600  0.30251700  1
  O  O3  1  0.05810800  0.11762600  0.95362400  1
  O  O4  1  0.27633100  0.61208400  0.26061200  1
  O  O5  1  0.28655700  0.58059000  0.68744300  1
  O  O6  1  0.28514300  0.43393200  0.44564600  1
  O  O7  1  0.46856200  0.92812700  0.90784000  1
  O  O8  1  0.10582900  0.06717600  0.21464600  1
  O  O9  1  0.27202600  0.30125600  0.81907800  1
  O  O10  1  0.16451700  0.88877900  0.00571200  1
  O  O11  1  0.42312500  0.25496200  0.58344400  1
  O  O12  1  0.50450300  0.64371900  0.00950400  1
  O  O13  1  0.48840500  0.82305200  0.53622800  1
  O  O14  1  0.49481600  0.28408200  0.31315500  1
  O  O15  1  0.63604400  0.66517700  0.74149800  1
  O  O16  1  0.60112600  0.68157900  0.32935100  1
  O  O17  1  0.75667700  0.15741500  0.93816500  1
  O  O18  1  0.76337200  0.73964500  0.29507900  1
  O  O19  1  0.83209800  0.95527600  0.77239300  1
  O  O20  1  0.65459300  0.05246400  0.22131700  1
  O  O21  1  0.71515800  0.55763300  0.52898600  1
  O  O22  1  0.73805400  0.20543400  0.29518800  1
  O  O23  1  0.71248800  0.41829700  0.74010000  1
  O  O24  1  0.87497400  0.89238500  0.03970300  1
  O  O25  1  0.94102200  0.68634700  0.73124800  1
  O  O26  1  0.89361900  0.31769200  0.53162200  1
  O  O27  1  0.98870600  0.26496000  0.78728100  1
  F  F0  1  0.06362500  0.00034700  0.59206900  1
  F  F1  1  0.08679200  0.42868000  0.99232200  1
  F  F2  1  0.27124300  0.32507700  0.06345500  1
  F  F3  1  0.70801900  0.12237300  0.67280200  1
  F  F4  1  0.26346800  0.92486200  0.38440800  1
  F  F5  1  0.56135300  0.33423800  0.01018900  1
  F  F6  1  0.81164300  0.48975400  0.19913100  1
  F  F7  1  0.91658800  0.07840500  0.39089400  1
loop_
_geom_bond_atom_site_label_1
_geom_bond_atom_site_label_2
_geom_bond_distance
_geom_bond_site_symmetry_2
Na0 O12 2.320673 1_555
Na0 O10 2.460565 1_555
Na0 O4 2.553030 1_555
Na0 O7 2.859450 1_554
Na1 O13 2.456086 1_545
Na1 O7 2.495097 1_545
Na1 O11 2.634570 1_555
Na2 O19 2.266316 1_555
Na2 O13 2.351920 1_555
Na3 O23 2.258349 1_555
Na3 O17 2.336172 1_555
Na3 O27 2.827437 1_555
Na3 Si5 2.896826 1_556
Ca0 O9 2.161785 1_555
Ca0 O27 2.295189 1_455
Ca0 O5 2.382597 1_555
Ca0 O6 2.417600 1_555
Ca0 O26 2.684027 1_455
Ca0 O11 2.689935 1_555
Ca0 F0 2.814091 1_555
Ca1 O14 2.121486 1_555
Ca1 O8 2.259756 1_555
Ca1 O11 2.293198 1_555
Ca1 F4 2.293346 1_545
Ca1 O6 2.463992 1_555
Ca2 O9 2.171525 1_555
Ca2 F5 2.212662 1_556
Ca2 O12 2.305833 1_556
Ca2 O23 2.356133 1_555
Ca2 O15 2.383928 1_555
Ca3 O7 2.157128 1_544
Ca3 F5 2.201712 1_555
Ca3 O20 2.659902 1_555
Ca3 O10 2.785847 1_545
Ca3 O14 2.936492 1_555
Ca4 F2 2.254717 1_555
Ca4 O16 2.287532 1_555
Ca4 O14 2.345577 1_555
Ca4 F5 2.354302 1_555
Ca4 O12 2.481827 1_555
Ca4 O4 2.755647 1_555
Ca5 O13 2.207731 1_555
Ca5 F4 2.280883 1_555
Ca5 O16 2.308195 1_555
Ca5 O4 2.339428 1_555
Ca5 O20 2.534933 1_565
Ca6 O0 2.272980 1_555
Ca6 F4 2.273952 1_555
Ca6 O1 2.340582 1_555
Ca6 F0 2.344710 1_565
Ca6 O18 2.508692 1_455
Ca7 O17 2.218214 1_554
Ca7 O3 2.305298 1_654
Ca7 O24 2.361721 1_545
Ca7 O20 2.475962 1_555
Ca7 O8 2.492654 1_655
Ca7 O22 2.536955 1_555
Ca7 O2 2.595482 1_655
Lu0 O25 2.126693 1_455
Lu0 O19 2.161670 1_455
Lu0 O3 2.202001 1_565
Lu0 O10 2.203203 1_556
Lu0 O24 2.708974 1_456
Lu1 O13 2.023472 1_555
Lu1 O6 2.250386 1_555
Lu1 O15 2.255236 1_555
Lu1 O21 2.293524 1_555
Lu1 O5 2.374732 1_555
Lu1 O16 2.550791 1_555
Lu2 O7 2.051616 1_555
Lu2 O12 2.073007 1_556
Lu2 O15 2.262441 1_555
Lu2 O24 2.381305 1_556
Lu2 O19 2.512688 1_555
Lu3 O11 2.055773 1_555
Lu3 O14 2.156804 1_555
Lu3 O21 2.179708 1_555
Lu3 O26 2.463565 1_555
Lu3 O23 2.569559 1_555
Lu3 O22 2.592907 1_555
O0 Si1 1.692643 1_555
O0 Si5 1.744906 1_455
O1 Si3 1.708299 1_555
O1 Si0 1.777580 1_555
O2 Si7 1.647894 1_455
O2 Si3 1.711501 1_555
O3 Si2 1.605044 1_555
O4 Si3 1.600559 1_555
O5 Si0 1.628133 1_555
O6 Si3 1.632378 1_555
O8 Si1 1.602178 1_545
O9 Si2 1.600397 1_555
O10 Si1 1.641916 1_555
O15 Si4 1.699343 1_555
O16 O18 1.497540 1_555
O17 Si6 1.601583 1_555
O18 Si5 1.843233 1_555
O19 Si6 1.639328 1_565
O20 O22 1.511342 1_555
O21 Si4 1.671102 1_555
O22 Si7 1.677412 1_555
O23 Si4 1.607775 1_555
O24 Si1 1.685542 1_655
O24 Si5 2.455627 1_555
O25 Si4 1.622850 1_555
O26 Si7 1.563294 1_555
O27 Si6 1.644765 1_555
O27 Si2 1.870668 1_655
F0 Lu0 2.589642 1_545
F0 Na2 2.710581 1_445
F1 Si2 1.696765 1_555
F1 Na3 2.444472 1_455
F1 Na0 2.447548 1_556
F2 Si2 1.794565 1_554
F3 Si6 1.691109 1_555
F3 Na2 2.353804 1_545
F3 Na1 2.465778 1_555
F3 Lu3 2.888622 1_555
F5 Na3 2.467070 1_554
F6 Si5 1.727327 1_555
F6 Na3 2.670666 1_554
F7 Si7 1.649678 1_555
F7 Na2 2.561950 1_545
