# generated using pymatgen
data_CoP3H16N4O11
_symmetry_space_group_name_H-M   'P 1'
_cell_length_a   14.28005600
_cell_length_b   7.39224700
_cell_length_c   14.13269412
_cell_angle_alpha   62.41706762
_cell_angle_beta   90.00000000
_cell_angle_gamma   90.00000000
_symmetry_Int_Tables_number   1
_chemical_formula_structural   CoP3H16N4O11
_chemical_formula_sum   'Co4 P12 H64 N16 O44'
_cell_volume   1322.30745961
_cell_formula_units_Z   4
loop_
 _symmetry_equiv_pos_site_id
 _symmetry_equiv_pos_as_xyz
  1  'x, y, z'
loop_
 _atom_site_type_symbol
 _atom_site_label
 _atom_site_symmetry_multiplicity
 _atom_site_fract_x
 _atom_site_fract_y
 _atom_site_fract_z
 _atom_site_occupancy
  Co  Co0  1  0.10377300  0.53302700  0.71216600  1
  Co  Co1  1  0.39622700  0.53302700  0.21216600  1
  Co  Co2  1  0.89622700  0.46697300  0.28783400  1
  Co  Co3  1  0.60377300  0.46697300  0.78783400  1
  P  P0  1  0.17536400  0.65004400  0.46014700  1
  P  P1  1  0.32463600  0.65004400  0.96014700  1
  P  P2  1  0.82463600  0.34995600  0.53985300  1
  P  P3  1  0.67536400  0.34995600  0.03985300  1
  P  P4  1  0.34136000  0.81561100  0.52580800  1
  P  P5  1  0.15864000  0.81561100  0.02580800  1
  P  P6  1  0.65864000  0.18438900  0.47419200  1
  P  P7  1  0.84136000  0.18438900  0.97419200  1
  P  P8  1  0.20915700  0.97906200  0.62810800  1
  P  P9  1  0.29084300  0.97906200  0.12810800  1
  P  P10  1  0.79084300  0.02093800  0.37189200  1
  P  P11  1  0.70915700  0.02093800  0.87189200  1
  H  H0  1  0.13754000  0.48551100  0.90391500  1
  H  H1  1  0.36246000  0.48551100  0.40391500  1
  H  H2  1  0.86246000  0.51448900  0.09608500  1
  H  H3  1  0.63754000  0.51448900  0.59608500  1
  H  H4  1  0.02300600  0.51024300  0.88549000  1
  H  H5  1  0.47699400  0.51024300  0.38549000  1
  H  H6  1  0.97699400  0.48975700  0.11451000  1
  H  H7  1  0.52300600  0.48975700  0.61451000  1
  H  H8  1  0.07355400  0.28735000  0.91661800  1
  H  H9  1  0.42644600  0.28735000  0.41661800  1
  H  H10  1  0.92644600  0.71265000  0.08338200  1
  H  H11  1  0.57355400  0.71265000  0.58338200  1
  H  H12  1  0.22828500  0.28834600  0.83186000  1
  H  H13  1  0.27171500  0.28834600  0.33186000  1
  H  H14  1  0.77171500  0.71165400  0.16814000  1
  H  H15  1  0.72828500  0.71165400  0.66814000  1
  H  H16  1  0.23381400  0.28510700  0.71582500  1
  H  H17  1  0.26618600  0.28510700  0.21582500  1
  H  H18  1  0.76618600  0.71489300  0.28417500  1
  H  H19  1  0.73381400  0.71489300  0.78417500  1
  H  H20  1  0.27594600  0.48577600  0.72706900  1
  H  H21  1  0.22405400  0.48577600  0.22706900  1
  H  H22  1  0.72405400  0.51422400  0.27293100  1
  H  H23  1  0.77594600  0.51422400  0.77293100  1
  H  H24  1  0.02476300  0.27540800  0.66061200  1
  H  H25  1  0.47523700  0.27540800  0.16061200  1
  H  H26  1  0.97523700  0.72459200  0.33938800  1
  H  H27  1  0.52476300  0.72459200  0.83938800  1
  H  H28  1  0.06143600  0.14889500  0.78664800  1
  H  H29  1  0.43856400  0.14889500  0.28664800  1
  H  H30  1  0.93856400  0.85110500  0.21335200  1
  H  H31  1  0.56143600  0.85110500  0.71335200  1
  H  H32  1  0.96453700  0.28371000  0.76071200  1
  H  H33  1  0.53546300  0.28371000  0.26071200  1
  H  H34  1  0.03546300  0.71629000  0.23928800  1
  H  H35  1  0.46453700  0.71629000  0.73928800  1
  H  H36  1  0.93311900  0.61987600  0.66148000  1
  H  H37  1  0.56688100  0.61987600  0.16148000  1
  H  H38  1  0.06688100  0.38012400  0.33852000  1
  H  H39  1  0.43311900  0.38012400  0.83852000  1
  H  H40  1  0.97071500  0.74073100  0.73056600  1
  H  H41  1  0.52928500  0.74073100  0.23056600  1
  H  H42  1  0.02928500  0.25926900  0.26943400  1
  H  H43  1  0.47071500  0.25926900  0.76943400  1
  H  H44  1  0.00027100  0.82437700  0.60237000  1
  H  H45  1  0.49972900  0.82437700  0.10237000  1
  H  H46  1  0.99972900  0.17562300  0.39763000  1
  H  H47  1  0.50027100  0.17562300  0.89763000  1
  H  H48  1  0.00088200  0.16806800  0.10892700  1
  H  H49  1  0.49911800  0.16806800  0.60892700  1
  H  H50  1  0.99911800  0.83193200  0.89107300  1
  H  H51  1  0.50088200  0.83193200  0.39107300  1
  H  H52  1  0.10729800  0.17568500  0.14093900  1
  H  H53  1  0.39270200  0.17568500  0.64093900  1
  H  H54  1  0.89270200  0.82431500  0.85906100  1
  H  H55  1  0.60729800  0.82431500  0.35906100  1
  H  H56  1  0.18289700  0.92289800  0.29500800  1
  H  H57  1  0.31710300  0.92289800  0.79500800  1
  H  H58  1  0.81710300  0.07710200  0.70499200  1
  H  H59  1  0.68289700  0.07710200  0.20499200  1
  H  H60  1  0.14242900  0.26958700  0.51495100  1
  H  H61  1  0.35757100  0.26958700  0.01495100  1
  H  H62  1  0.85757100  0.73041300  0.48504900  1
  H  H63  1  0.64242900  0.73041300  0.98504900  1
  N  N0  1  0.08167800  0.44215400  0.87385700  1
  N  N1  1  0.41832200  0.44215400  0.37385700  1
  N  N2  1  0.91832200  0.55784600  0.12614300  1
  N  N3  1  0.58167800  0.55784600  0.62614300  1
  N  N4  1  0.22274100  0.37848800  0.75110600  1
  N  N5  1  0.27725900  0.37848800  0.25110600  1
  N  N6  1  0.77725900  0.62151200  0.24889400  1
  N  N7  1  0.72274100  0.62151200  0.74889400  1
  N  N8  1  0.03021800  0.28090600  0.73123800  1
  N  N9  1  0.46978200  0.28090600  0.23123800  1
  N  N10  1  0.96978200  0.71909400  0.26876200  1
  N  N11  1  0.53021800  0.71909400  0.76876200  1
  N  N12  1  0.98813300  0.69667700  0.67306500  1
  N  N13  1  0.51186700  0.69667700  0.17306500  1
  N  N14  1  0.01186700  0.30332300  0.32693500  1
  N  N15  1  0.48813300  0.30332300  0.82693500  1
  O  O0  1  0.11488500  0.62285900  0.55397100  1
  O  O1  1  0.38511500  0.62285900  0.05397100  1
  O  O2  1  0.88511500  0.37714100  0.44602900  1
  O  O3  1  0.61488500  0.37714100  0.94602900  1
  O  O4  1  0.14715100  0.86282000  0.36517300  1
  O  O5  1  0.35284900  0.86282000  0.86517300  1
  O  O6  1  0.85284900  0.13718000  0.63482700  1
  O  O7  1  0.64715100  0.13718000  0.13482700  1
  O  O8  1  0.17137700  0.47804000  0.43014700  1
  O  O9  1  0.32862300  0.47804000  0.93014700  1
  O  O10  1  0.82862300  0.52196000  0.56985300  1
  O  O11  1  0.67137700  0.52196000  0.06985300  1
  O  O12  1  0.28429000  0.66958000  0.48681000  1
  O  O13  1  0.21571000  0.66958000  0.98681000  1
  O  O14  1  0.71571000  0.33042000  0.51319000  1
  O  O15  1  0.78429000  0.33042000  0.01319000  1
  O  O16  1  0.40700300  0.94430900  0.43667000  1
  O  O17  1  0.09299700  0.94430900  0.93667000  1
  O  O18  1  0.59299700  0.05569100  0.56333000  1
  O  O19  1  0.90700300  0.05569100  0.06333000  1
  O  O20  1  0.37553700  0.68404100  0.63690400  1
  O  O21  1  0.12446300  0.68404100  0.13690400  1
  O  O22  1  0.62446300  0.31595900  0.36309600  1
  O  O23  1  0.87553700  0.31595900  0.86309600  1
  O  O24  1  0.26028500  0.97133200  0.52703600  1
  O  O25  1  0.23971500  0.97133200  0.02703600  1
  O  O26  1  0.73971500  0.02866800  0.47296400  1
  O  O27  1  0.76028500  0.02866800  0.97296400  1
  O  O28  1  0.12329600  0.12229100  0.57117900  1
  O  O29  1  0.37670400  0.12229100  0.07117900  1
  O  O30  1  0.87670400  0.87770900  0.42882100  1
  O  O31  1  0.62329600  0.87770900  0.92882100  1
  O  O32  1  0.27524000  0.07327000  0.67748400  1
  O  O33  1  0.22476000  0.07327000  0.17748400  1
  O  O34  1  0.72476000  0.92673000  0.32251600  1
  O  O35  1  0.77524000  0.92673000  0.82251600  1
  O  O36  1  0.17393800  0.77012000  0.70700300  1
  O  O37  1  0.32606200  0.77012000  0.20700300  1
  O  O38  1  0.82606200  0.22988000  0.29299700  1
  O  O39  1  0.67393800  0.22988000  0.79299700  1
  O  O40  1  0.04477800  0.23622700  0.13633800  1
  O  O41  1  0.45522200  0.23622700  0.63633800  1
  O  O42  1  0.95522200  0.76377300  0.86366200  1
  O  O43  1  0.54477800  0.76377300  0.36366200  1
loop_
_geom_bond_atom_site_label_1
_geom_bond_atom_site_label_2
_geom_bond_distance
_geom_bond_site_symmetry_2
Co0 N12 1.968935 1_455
Co0 N4 1.977844 1_555
Co0 O36 1.990628 1_555
Co0 O0 2.022306 1_555
Co0 N8 2.045543 1_555
Co0 N0 2.085922 1_555
Co1 N13 1.968935 1_555
Co1 N5 1.977844 1_555
Co1 O37 1.990628 1_555
Co1 O1 2.022306 1_555
Co1 N9 2.045543 1_555
Co1 N1 2.085922 1_555
Co2 N14 1.968935 1_655
Co2 N6 1.977844 1_555
Co2 O38 1.990628 1_555
Co2 O2 2.022306 1_555
Co2 N10 2.045543 1_555
Co2 N2 2.085922 1_555
Co3 N15 1.968935 1_555
Co3 N7 1.977844 1_555
Co3 O39 1.990628 1_555
Co3 O3 2.022306 1_555
Co3 N11 2.045543 1_555
Co3 N3 2.085922 1_555
H0 N0 1.022550 1_555
H1 N1 1.022550 1_555
H2 N2 1.022550 1_555
H3 N3 1.022550 1_555
H4 N0 1.029067 1_555
H5 N1 1.029067 1_555
H6 N2 1.029067 1_555
H7 N3 1.029067 1_555
H8 N0 1.023609 1_555
H9 N1 1.023609 1_555
H10 N2 1.023609 1_555
H11 N3 1.023609 1_555
H12 N4 1.023979 1_555
H13 N5 1.023979 1_555
H14 N6 1.023979 1_555
H15 N7 1.023979 1_555
H16 N4 1.033863 1_555
H17 N5 1.033863 1_555
H18 N6 1.033863 1_555
H19 N7 1.033863 1_555
H20 N4 1.035450 1_555
H21 N5 1.035450 1_555
H22 N6 1.035450 1_555
H23 N7 1.035450 1_555
H24 N8 1.020570 1_555
H25 N9 1.020570 1_555
H26 N10 1.020570 1_555
H27 N11 1.020570 1_555
H28 N8 1.027901 1_555
H29 N9 1.027901 1_555
H30 N10 1.027901 1_555
H31 N11 1.027901 1_555
H32 N8 1.030362 1_655
H33 N9 1.030362 1_555
H34 N10 1.030362 1_455
H35 N11 1.030362 1_555
H36 N12 1.025855 1_555
H37 N13 1.025855 1_555
H38 N14 1.025855 1_555
H39 N15 1.025855 1_555
H40 N12 1.036044 1_555
H41 N13 1.036044 1_555
H42 N14 1.036044 1_555
H43 N15 1.036044 1_555
H44 N12 1.022724 1_455
H45 N13 1.022724 1_555
H46 N14 1.022724 1_655
H47 N15 1.022724 1_555
H48 O40 0.988744 1_555
H49 O41 0.988744 1_555
H50 O42 0.988744 1_555
H51 O43 0.988744 1_555
H52 O40 0.987241 1_555
H53 O41 0.987241 1_555
H54 O42 0.987241 1_555
H55 O43 0.987241 1_555
H56 O4 1.016504 1_555
H56 O33 1.625400 1_565
H57 O5 1.016504 1_555
H57 O32 1.625400 1_565
H58 O6 1.016504 1_555
H58 O35 1.625400 1_545
H59 O7 1.016504 1_555
H59 O34 1.625400 1_545
H60 O28 1.044237 1_555
H60 O8 1.507153 1_555
H61 O29 1.044237 1_555
H61 O9 1.507153 1_554
H62 O30 1.044237 1_555
H62 O10 1.507153 1_555
H63 O31 1.044237 1_555
H63 O11 1.507153 1_556
O0 P0 1.515829 1_555
O1 P1 1.515829 1_554
O2 P2 1.515829 1_555
O3 P3 1.515829 1_556
O4 P0 1.575692 1_555
O5 P1 1.575692 1_555
O6 P2 1.575692 1_555
O7 P3 1.575692 1_555
O8 P0 1.516224 1_555
O9 P1 1.516224 1_555
O10 P2 1.516224 1_555
O11 P3 1.516224 1_555
O12 P0 1.622569 1_555
O12 P4 1.638357 1_555
O13 P1 1.622569 1_555
O13 P5 1.638357 1_556
O14 P2 1.622569 1_555
O14 P6 1.638357 1_555
O15 P3 1.622569 1_555
O15 P7 1.638357 1_554
O16 P4 1.503630 1_555
O17 P5 1.503630 1_556
O18 P6 1.503630 1_555
O19 P7 1.503630 1_554
O20 P4 1.495042 1_555
O21 P5 1.495042 1_555
O22 P6 1.495042 1_555
O23 P7 1.495042 1_555
O24 P8 1.628588 1_555
O24 P4 1.638382 1_555
O25 P9 1.628588 1_555
O25 P5 1.638382 1_555
O26 P10 1.628588 1_555
O26 P6 1.638382 1_555
O27 P11 1.628588 1_555
O27 P7 1.638382 1_555
O28 P8 1.575687 1_545
O29 P9 1.575687 1_545
O30 P10 1.575687 1_565
O31 P11 1.575687 1_565
O32 P8 1.520683 1_545
O33 P9 1.520683 1_545
O34 P10 1.520683 1_565
O35 P11 1.520683 1_565
O36 P8 1.512268 1_555
O37 P9 1.512268 1_555
O38 P10 1.512268 1_555
O39 P11 1.512268 1_555
