# generated using pymatgen
data_Li2Mg11(WO4)12
_symmetry_space_group_name_H-M   'P 1'
_cell_length_a   10.79198100
_cell_length_b   10.51339800
_cell_length_c   17.84812083
_cell_angle_alpha   89.48363145
_cell_angle_beta   90.00000000
_cell_angle_gamma   90.00000000
_symmetry_Int_Tables_number   1
_chemical_formula_structural   Li2Mg11(WO4)12
_chemical_formula_sum   'Li4 Mg22 W24 O96'
_cell_volume   2024.97253673
_cell_formula_units_Z   2
loop_
 _symmetry_equiv_pos_site_id
 _symmetry_equiv_pos_as_xyz
  1  'x, y, z'
loop_
 _atom_site_type_symbol
 _atom_site_label
 _atom_site_symmetry_multiplicity
 _atom_site_fract_x
 _atom_site_fract_y
 _atom_site_fract_z
 _atom_site_occupancy
  Li  Li0  1  0.50000000  0.38109800  0.70852800  1
  Li  Li1  1  0.00000000  0.62269500  0.29326200  1
  Li  Li2  1  0.50000000  0.87791000  0.70878500  1
  Li  Li3  1  0.00000000  0.94940000  0.75086500  1
  Mg  Mg0  1  0.50000000  0.05053000  0.25050700  1
  Mg  Mg1  1  0.17163200  0.12922200  0.47144200  1
  Mg  Mg2  1  0.82836800  0.12922200  0.47144200  1
  Mg  Mg3  1  0.67647800  0.12016800  0.96850500  1
  Mg  Mg4  1  0.32352200  0.12016800  0.96850500  1
  Mg  Mg5  1  0.00000000  0.21184700  0.74974100  1
  Mg  Mg6  1  0.50000000  0.30035900  0.24879800  1
  Mg  Mg7  1  0.17145500  0.37798200  0.02820400  1
  Mg  Mg8  1  0.82854500  0.37798200  0.02820400  1
  Mg  Mg9  1  0.67681000  0.37025800  0.53171300  1
  Mg  Mg10  1  0.32319000  0.37025800  0.53171300  1
  Mg  Mg11  1  0.50000000  0.55027900  0.25039100  1
  Mg  Mg12  1  0.17358000  0.62855400  0.47188800  1
  Mg  Mg13  1  0.82642000  0.62855400  0.47188800  1
  Mg  Mg14  1  0.32315700  0.62038400  0.96848700  1
  Mg  Mg15  1  0.67684300  0.62038400  0.96848700  1
  Mg  Mg16  1  0.00000000  0.68328400  0.75198300  1
  Mg  Mg17  1  0.50000000  0.80100500  0.24923600  1
  Mg  Mg18  1  0.82716000  0.88011600  0.02803800  1
  Mg  Mg19  1  0.17284000  0.88011600  0.02803800  1
  Mg  Mg20  1  0.67723300  0.87182300  0.53073500  1
  Mg  Mg21  1  0.32276700  0.87182300  0.53073500  1
  W  W0  1  0.00000000  0.11049600  0.94359000  1
  W  W1  1  0.72319900  0.11003600  0.65785600  1
  W  W2  1  0.27680100  0.11003600  0.65785600  1
  W  W3  1  0.22698000  0.13786300  0.15669100  1
  W  W4  1  0.77302000  0.13786300  0.15669100  1
  W  W5  1  0.50000000  0.14019700  0.44362200  1
  W  W6  1  0.00000000  0.36046900  0.55506600  1
  W  W7  1  0.27455800  0.36281300  0.84299900  1
  W  W8  1  0.72544200  0.36281300  0.84299900  1
  W  W9  1  0.22582300  0.39193000  0.34371100  1
  W  W10  1  0.77417700  0.39193000  0.34371100  1
  W  W11  1  0.50000000  0.38991400  0.05677900  1
  W  W12  1  0.00000000  0.61177400  0.94634600  1
  W  W13  1  0.71897000  0.61177800  0.65708600  1
  W  W14  1  0.28103000  0.61177800  0.65708600  1
  W  W15  1  0.22710300  0.63920700  0.15657500  1
  W  W16  1  0.77289700  0.63920700  0.15657500  1
  W  W17  1  0.50000000  0.64041900  0.44299700  1
  W  W18  1  0.00000000  0.85852600  0.55672300  1
  W  W19  1  0.27165300  0.86131100  0.84172200  1
  W  W20  1  0.72834700  0.86131100  0.84172200  1
  W  W21  1  0.22386000  0.88964600  0.34230100  1
  W  W22  1  0.77614000  0.88964600  0.34230100  1
  W  W23  1  0.50000000  0.89001500  0.05678700  1
  O  O0  1  0.14266400  0.02438100  0.37997600  1
  O  O1  1  0.85733600  0.02438100  0.37997600  1
  O  O2  1  0.50000000  0.03191100  0.99553400  1
  O  O3  1  0.73562100  0.03832500  0.07256900  1
  O  O4  1  0.26437900  0.03832500  0.07256900  1
  O  O5  1  0.63301900  0.04100100  0.46503600  1
  O  O6  1  0.36698100  0.04100100  0.46503600  1
  O  O7  1  0.13726600  0.03867000  0.21457000  1
  O  O8  1  0.86273400  0.03867000  0.21457000  1
  O  O9  1  0.86996600  0.07933000  0.70533700  1
  O  O10  1  0.13003400  0.07933000  0.70533700  1
  O  O11  1  0.00000000  0.07636600  0.84545600  1
  O  O12  1  0.50000000  0.17603800  0.34323200  1
  O  O13  1  0.62566900  0.17615700  0.20617100  1
  O  O14  1  0.37433100  0.17615700  0.20617100  1
  O  O15  1  0.13446100  0.20814500  0.96635900  1
  O  O16  1  0.86553900  0.20814500  0.96635900  1
  O  O17  1  0.23886500  0.20586600  0.57123100  1
  O  O18  1  0.76113500  0.20586600  0.57123100  1
  O  O19  1  0.62991400  0.21599200  0.70902200  1
  O  O20  1  0.37008600  0.21599200  0.70902200  1
  O  O21  1  0.00000000  0.21887900  0.49319000  1
  O  O22  1  0.63937700  0.22860000  0.88019400  1
  O  O23  1  0.36062300  0.22860000  0.88019400  1
  O  O24  1  0.14267200  0.27390900  0.12145600  1
  O  O25  1  0.85732800  0.27390900  0.12145600  1
  O  O26  1  0.50000000  0.28178700  0.50388200  1
  O  O27  1  0.63295700  0.29126200  0.03577200  1
  O  O28  1  0.36704300  0.29126200  0.03577200  1
  O  O29  1  0.73734600  0.29117000  0.42774200  1
  O  O30  1  0.26265400  0.29117000  0.42774200  1
  O  O31  1  0.13506600  0.29315700  0.28842300  1
  O  O32  1  0.86493400  0.29315700  0.28842300  1
  O  O33  1  0.00000000  0.31288100  0.65024200  1
  O  O34  1  0.13495700  0.31193000  0.79800800  1
  O  O35  1  0.86504300  0.31193000  0.79800800  1
  O  O36  1  0.50000000  0.42684400  0.15694000  1
  O  O37  1  0.62633800  0.42593200  0.29355000  1
  O  O38  1  0.37366200  0.42593200  0.29355000  1
  O  O39  1  0.13669900  0.45833800  0.53431600  1
  O  O40  1  0.86330100  0.45833800  0.53431600  1
  O  O41  1  0.63401200  0.45763600  0.78067400  1
  O  O42  1  0.36598800  0.45763600  0.78067400  1
  O  O43  1  0.23556900  0.46294600  0.92784000  1
  O  O44  1  0.76443100  0.46294600  0.92784000  1
  O  O45  1  0.00000000  0.46590000  0.00648300  1
  O  O46  1  0.63506500  0.47068600  0.62248900  1
  O  O47  1  0.36493500  0.47068600  0.62248900  1
  O  O48  1  0.13853000  0.53023500  0.37665700  1
  O  O49  1  0.86147000  0.53023500  0.37665700  1
  O  O50  1  0.50000000  0.53251100  0.99578600  1
  O  O51  1  0.73706000  0.53782000  0.07396100  1
  O  O52  1  0.26294000  0.53782000  0.07396100  1
  O  O53  1  0.63362100  0.54106200  0.46362900  1
  O  O54  1  0.36637900  0.54106200  0.46362900  1
  O  O55  1  0.13175100  0.54715400  0.21649100  1
  O  O56  1  0.86824900  0.54715400  0.21649100  1
  O  O57  1  0.13564100  0.58059700  0.70248700  1
  O  O58  1  0.86435900  0.58059700  0.70248700  1
  O  O59  1  0.00000000  0.57783600  0.84927800  1
  O  O60  1  0.50000000  0.67632500  0.34267000  1
  O  O61  1  0.62584900  0.67649200  0.20604400  1
  O  O62  1  0.37415100  0.67649200  0.20604400  1
  O  O63  1  0.13521300  0.71014600  0.96763100  1
  O  O64  1  0.86478700  0.71014600  0.96763100  1
  O  O65  1  0.24064300  0.70763700  0.57046000  1
  O  O66  1  0.75935700  0.70763700  0.57046000  1
  O  O67  1  0.62887500  0.71976400  0.70969200  1
  O  O68  1  0.37112500  0.71976400  0.70969200  1
  O  O69  1  0.00000000  0.71753500  0.49422500  1
  O  O70  1  0.64232600  0.72753700  0.87884200  1
  O  O71  1  0.35767400  0.72753700  0.87884200  1
  O  O72  1  0.14451000  0.77541700  0.12150300  1
  O  O73  1  0.85549000  0.77541700  0.12150300  1
  O  O74  1  0.50000000  0.78137200  0.50368800  1
  O  O75  1  0.63275700  0.79060100  0.03568600  1
  O  O76  1  0.36724300  0.79060100  0.03568600  1
  O  O77  1  0.73573200  0.79116700  0.42663100  1
  O  O78  1  0.26426800  0.79116700  0.42663100  1
  O  O79  1  0.12951100  0.78421000  0.29122300  1
  O  O80  1  0.87048900  0.78421000  0.29122300  1
  O  O81  1  0.00000000  0.81701200  0.65385900  1
  O  O82  1  0.12798100  0.81683700  0.79524400  1
  O  O83  1  0.87201900  0.81683700  0.79524400  1
  O  O84  1  0.50000000  0.92594700  0.15696400  1
  O  O85  1  0.62727300  0.92492600  0.29313000  1
  O  O86  1  0.37272700  0.92492600  0.29313000  1
  O  O87  1  0.13512500  0.95769400  0.53551100  1
  O  O88  1  0.86487500  0.95769400  0.53551100  1
  O  O89  1  0.63509300  0.95733100  0.78161500  1
  O  O90  1  0.36490700  0.95733100  0.78161500  1
  O  O91  1  0.76426600  0.96168800  0.92641900  1
  O  O92  1  0.23573400  0.96168800  0.92641900  1
  O  O93  1  0.00000000  0.96616300  0.00480900  1
  O  O94  1  0.63761700  0.97090300  0.62315500  1
  O  O95  1  0.36238300  0.97090300  0.62315500  1
loop_
_geom_bond_atom_site_label_1
_geom_bond_atom_site_label_2
_geom_bond_distance
_geom_bond_site_symmetry_2
Li0 O42 2.101410 1_555
Li0 O41 2.101410 1_555
Li0 O19 2.231273 1_555
Li0 O20 2.231273 1_555
Li0 O46 2.311684 1_555
Li0 O47 2.311684 1_555
Li1 O55 2.132961 1_555
Li1 O56 2.132961 1_455
Li1 O79 2.199356 1_555
Li1 O80 2.199356 1_455
Li1 O49 2.317190 1_455
Li1 O48 2.317190 1_555
Li2 O89 2.128845 1_555
Li2 O90 2.128845 1_555
Li2 O67 2.167616 1_555
Li2 O68 2.167616 1_555
Li2 O94 2.338892 1_555
Li2 O95 2.338892 1_555
Li3 O82 2.111276 1_555
Li3 O83 2.111276 1_455
Li3 O10 2.115558 1_565
Li3 O9 2.115558 1_465
Li3 O11 2.161640 1_565
Li3 O81 2.231218 1_555
Mg0 O85 2.047189 1_545
Mg0 O86 2.047189 1_545
Mg0 O13 2.047215 1_555
Mg0 O14 2.047215 1_555
Mg0 O12 2.125888 1_555
Mg0 O84 2.131295 1_545
Mg1 O0 2.002531 1_555
Mg1 O17 2.091351 1_555
Mg1 O30 2.109090 1_555
Mg1 O21 2.115794 1_555
Mg1 O87 2.162802 1_545
Mg1 O6 2.306461 1_555
Mg2 O1 2.002531 1_555
Mg2 O18 2.091351 1_555
Mg2 O29 2.109090 1_555
Mg2 O21 2.115794 1_655
Mg2 O88 2.162802 1_545
Mg2 O5 2.306461 1_555
Mg3 O22 1.977843 1_555
Mg3 O91 2.064091 1_545
Mg3 O3 2.137450 1_556
Mg3 O2 2.170926 1_555
Mg3 O27 2.221834 1_556
Mg3 O16 2.240387 1_555
Mg4 O23 1.977843 1_555
Mg4 O92 2.064091 1_545
Mg4 O4 2.137450 1_556
Mg4 O2 2.170926 1_555
Mg4 O28 2.221834 1_556
Mg4 O15 2.240387 1_555
Mg5 O34 1.996719 1_555
Mg5 O35 1.996719 1_455
Mg5 O33 2.061069 1_555
Mg5 O10 2.135027 1_555
Mg5 O9 2.135027 1_455
Mg5 O11 2.214353 1_555
Mg6 O13 2.034979 1_555
Mg6 O14 2.034979 1_555
Mg6 O37 2.063705 1_555
Mg6 O38 2.063705 1_555
Mg6 O36 2.101660 1_555
Mg6 O12 2.123545 1_555
Mg7 O24 2.007732 1_555
Mg7 O45 2.102844 1_555
Mg7 O43 2.111068 1_554
Mg7 O52 2.119044 1_555
Mg7 O15 2.145126 1_554
Mg7 O28 2.302751 1_555
Mg8 O25 2.007732 1_555
Mg8 O45 2.102844 1_655
Mg8 O44 2.111068 1_554
Mg8 O51 2.119044 1_555
Mg8 O16 2.145126 1_554
Mg8 O27 2.302751 1_555
Mg9 O46 1.993383 1_555
Mg9 O18 2.071413 1_555
Mg9 O29 2.142325 1_555
Mg9 O26 2.182011 1_555
Mg9 O53 2.208892 1_555
Mg9 O40 2.216086 1_555
Mg10 O47 1.993383 1_555
Mg10 O17 2.071413 1_555
Mg10 O30 2.142325 1_555
Mg10 O26 2.182011 1_555
Mg10 O54 2.208892 1_555
Mg10 O39 2.216086 1_555
Mg11 O37 2.035495 1_555
Mg11 O38 2.035495 1_555
Mg11 O61 2.052533 1_555
Mg11 O62 2.052533 1_555
Mg11 O36 2.122514 1_555
Mg11 O60 2.123217 1_555
Mg12 O48 2.032775 1_555
Mg12 O65 2.082467 1_555
Mg12 O78 2.123256 1_555
Mg12 O69 2.133063 1_555
Mg12 O39 2.136927 1_555
Mg12 O54 2.280245 1_555
Mg13 O49 2.032775 1_555
Mg13 O66 2.082467 1_555
Mg13 O77 2.123256 1_555
Mg13 O69 2.133063 1_655
Mg13 O40 2.136927 1_555
Mg13 O53 2.280245 1_555
Mg14 O71 1.983773 1_555
Mg14 O43 2.044789 1_555
Mg14 O52 2.165685 1_556
Mg14 O50 2.173728 1_555
Mg14 O76 2.214966 1_556
Mg14 O63 2.237075 1_555
Mg15 O70 1.983773 1_555
Mg15 O44 2.044789 1_555
Mg15 O51 2.165685 1_556
Mg15 O50 2.173728 1_555
Mg15 O75 2.214966 1_556
Mg15 O64 2.237075 1_555
Mg16 O57 2.026310 1_555
Mg16 O58 2.026310 1_455
Mg16 O59 2.051799 1_555
Mg16 O82 2.120102 1_555
Mg16 O83 2.120102 1_455
Mg16 O81 2.235940 1_555
Mg17 O61 2.042227 1_555
Mg17 O62 2.042227 1_555
Mg17 O85 2.053314 1_555
Mg17 O86 2.053314 1_555
Mg17 O84 2.097303 1_555
Mg17 O60 2.111820 1_555
Mg18 O73 2.013658 1_555
Mg18 O3 2.097156 1_565
Mg18 O91 2.111322 1_554
Mg18 O93 2.112535 1_655
Mg18 O64 2.134306 1_554
Mg18 O75 2.302949 1_555
Mg19 O72 2.013658 1_555
Mg19 O4 2.097156 1_565
Mg19 O92 2.111322 1_554
Mg19 O93 2.112535 1_555
Mg19 O63 2.134306 1_554
Mg19 O76 2.302949 1_555
Mg20 O94 2.004933 1_555
Mg20 O66 2.060520 1_555
Mg20 O77 2.144389 1_555
Mg20 O5 2.174541 1_565
Mg20 O74 2.191806 1_555
Mg20 O88 2.219107 1_555
Mg21 O95 2.004933 1_555
Mg21 O65 2.060520 1_555
Mg21 O78 2.144389 1_555
Mg21 O6 2.174541 1_565
Mg21 O74 2.191806 1_555
Mg21 O87 2.219107 1_555
O0 W21 1.801029 1_545
O1 W22 1.801029 1_545
O2 W23 1.841547 1_546
O3 W4 1.881650 1_555
O4 W3 1.881650 1_555
O5 W5 1.813085 1_555
O6 W5 1.813085 1_555
O7 W3 1.752906 1_555
O8 W4 1.752906 1_555
O9 W1 1.823790 1_555
O10 W2 1.823790 1_555
O11 W0 1.791050 1_555
O12 W5 1.827640 1_555
O13 W4 1.864717 1_555
O14 W3 1.864717 1_555
O15 W0 1.825463 1_555
O16 W0 1.825463 1_655
O17 W2 1.882816 1_555
O18 W1 1.882816 1_555
O19 W1 1.762586 1_555
O20 W2 1.762586 1_555
O21 W6 1.861497 1_555
O22 W8 1.810397 1_555
O23 W7 1.810397 1_555
O24 W3 1.803574 1_555
O25 W4 1.803574 1_555
O26 W5 1.844322 1_555
O27 W11 1.811671 1_555
O28 W11 1.811671 1_555
O29 W10 1.871074 1_555
O30 W9 1.871074 1_555
O31 W9 1.740659 1_555
O32 W10 1.740659 1_555
O33 W6 1.766527 1_555
O34 W7 1.791226 1_555
O35 W8 1.791226 1_555
O36 W11 1.832778 1_555
O37 W10 1.862549 1_555
O38 W9 1.862549 1_555
O39 W6 1.834494 1_555
O40 W6 1.834494 1_655
O41 W8 1.784613 1_555
O42 W7 1.784613 1_555
O43 W7 1.899210 1_555
O44 W8 1.899210 1_555
O45 W12 1.863974 1_554
O46 W13 1.848806 1_555
O47 W14 1.848806 1_555
O48 W9 1.833834 1_555
O49 W10 1.833834 1_555
O50 W11 1.844775 1_556
O51 W16 1.867688 1_555
O52 W15 1.867688 1_555
O53 W17 1.816393 1_555
O54 W17 1.816393 1_555
O55 W15 1.766485 1_555
O56 W16 1.766485 1_555
O57 W14 1.794762 1_555
O58 W13 1.794762 1_555
O59 W12 1.771988 1_555
O60 W17 1.826675 1_555
O61 W16 1.859526 1_555
O62 W15 1.859526 1_555
O63 W12 1.830392 1_555
O64 W12 1.830392 1_655
O65 W14 1.888919 1_555
O66 W13 1.888919 1_555
O67 W13 1.770610 1_555
O68 W14 1.770610 1_555
O69 W18 1.863136 1_555
O70 W20 1.806091 1_555
O71 W19 1.806091 1_555
O72 W15 1.794681 1_555
O73 W16 1.794681 1_555
O74 W17 1.843451 1_555
O75 W23 1.814936 1_555
O76 W23 1.814936 1_555
O77 W22 1.870682 1_555
O78 W21 1.870682 1_555
O79 W21 1.764886 1_555
O80 W22 1.764886 1_555
O81 W18 1.783971 1_555
O82 W19 1.821491 1_555
O83 W20 1.821491 1_555
O84 W23 1.830771 1_555
O85 W22 1.866273 1_555
O86 W21 1.866273 1_555
O87 W18 1.830235 1_555
O88 W18 1.830235 1_655
O89 W20 1.778563 1_555
O90 W19 1.778563 1_555
O91 W20 1.891525 1_555
O92 W19 1.891525 1_555
O93 W0 1.861876 1_564
O94 W1 1.841908 1_565
O95 W2 1.841908 1_565
