# generated using pymatgen
data_Li2MnPO4F
_symmetry_space_group_name_H-M   'P 1'
_cell_length_a   5.14087100
_cell_length_b   13.17634600
_cell_length_c   13.18498818
_cell_angle_alpha   60.45596281
_cell_angle_beta   90.00000000
_cell_angle_gamma   90.00000000
_symmetry_Int_Tables_number   1
_chemical_formula_structural   Li2MnPO4F
_chemical_formula_sum   'Li16 Mn8 P8 O32 F8'
_cell_volume   776.99673738
_cell_formula_units_Z   8
loop_
 _symmetry_equiv_pos_site_id
 _symmetry_equiv_pos_as_xyz
  1  'x, y, z'
loop_
 _atom_site_type_symbol
 _atom_site_label
 _atom_site_symmetry_multiplicity
 _atom_site_fract_x
 _atom_site_fract_y
 _atom_site_fract_z
 _atom_site_occupancy
  Li  Li0  1  0.73332500  0.17257400  0.64870800  1
  Li  Li1  1  0.73083800  0.40141600  0.42097800  1
  Li  Li2  1  0.23083800  0.09858400  0.57902200  1
  Li  Li3  1  0.71874700  0.67800000  0.14934200  1
  Li  Li4  1  0.23332500  0.32742600  0.35129200  1
  Li  Li5  1  0.27417000  0.82583100  0.08188900  1
  Li  Li6  1  0.77417000  0.67416900  0.91811100  1
  Li  Li7  1  0.78125300  0.17800000  0.14934200  1
  Li  Li8  1  0.21874700  0.82200000  0.85065800  1
  Li  Li9  1  0.22583000  0.32583100  0.08188900  1
  Li  Li10  1  0.72583000  0.17416900  0.91811100  1
  Li  Li11  1  0.76667500  0.67257400  0.64870800  1
  Li  Li12  1  0.28125300  0.32200000  0.85065800  1
  Li  Li13  1  0.76916200  0.90141600  0.42097800  1
  Li  Li14  1  0.26916200  0.59858400  0.57902200  1
  Li  Li15  1  0.26667500  0.82742600  0.35129200  1
  Mn  Mn0  1  0.27424500  0.32961300  0.57891000  1
  Mn  Mn1  1  0.77424500  0.17038700  0.42109000  1
  Mn  Mn2  1  0.22936900  0.59360900  0.07726800  1
  Mn  Mn3  1  0.72936900  0.90639100  0.92273200  1
  Mn  Mn4  1  0.27063100  0.09360900  0.07726800  1
  Mn  Mn5  1  0.77063100  0.40639100  0.92273200  1
  Mn  Mn6  1  0.22575500  0.82961300  0.57891000  1
  Mn  Mn7  1  0.72575500  0.67038700  0.42109000  1
  P  P0  1  0.21785900  0.08115700  0.83321900  1
  P  P1  1  0.21488000  0.58355100  0.33275300  1
  P  P2  1  0.28512000  0.08355100  0.33275300  1
  P  P3  1  0.71785900  0.41884300  0.16678100  1
  P  P4  1  0.28214100  0.58115700  0.83321900  1
  P  P5  1  0.71488000  0.91644900  0.66724700  1
  P  P6  1  0.78512000  0.41644900  0.66724700  1
  P  P7  1  0.78214100  0.91884300  0.16678100  1
  O  O0  1  0.91245000  0.07798800  0.84241800  1
  O  O1  1  0.67574500  0.35350100  0.60310600  1
  O  O2  1  0.30333500  0.14460900  0.70387900  1
  O  O3  1  0.90945100  0.58589500  0.33663000  1
  O  O4  1  0.31315900  0.45560500  0.39307800  1
  O  O5  1  0.81315900  0.04439500  0.60692200  1
  O  O6  1  0.31283600  0.64693500  0.20465300  1
  O  O7  1  0.66719700  0.85356800  0.10572300  1
  O  O8  1  0.80333500  0.35539100  0.29612100  1
  O  O9  1  0.17574500  0.14649900  0.39689400  1
  O  O10  1  0.59054900  0.08589500  0.33663000  1
  O  O11  1  0.82317300  0.54607500  0.10680400  1
  O  O12  1  0.41245000  0.42201200  0.15758200  1
  O  O13  1  0.32317300  0.95392500  0.89319600  1
  O  O14  1  0.18716400  0.14693500  0.20465300  1
  O  O15  1  0.83280300  0.35356800  0.10572300  1
  O  O16  1  0.16719700  0.64643200  0.89427700  1
  O  O17  1  0.81283600  0.85306500  0.79534700  1
  O  O18  1  0.67682700  0.04607500  0.10680400  1
  O  O19  1  0.58755000  0.57798800  0.84241800  1
  O  O20  1  0.17682700  0.45392500  0.89319600  1
  O  O21  1  0.40945100  0.91410500  0.66337000  1
  O  O22  1  0.82425500  0.85350100  0.60310600  1
  O  O23  1  0.19666500  0.64460900  0.70387900  1
  O  O24  1  0.33280300  0.14643200  0.89427700  1
  O  O25  1  0.68716400  0.35306500  0.79534700  1
  O  O26  1  0.18684100  0.95560500  0.39307800  1
  O  O27  1  0.68684100  0.54439500  0.60692200  1
  O  O28  1  0.09054900  0.41410500  0.66337000  1
  O  O29  1  0.69666500  0.85539100  0.29612100  1
  O  O30  1  0.32425500  0.64649900  0.39689400  1
  O  O31  1  0.08755000  0.92201200  0.15758200  1
  F  F0  1  0.98917800  0.26309500  0.50943700  1
  F  F1  1  0.48917800  0.23690500  0.49056300  1
  F  F2  1  0.01368800  0.76703200  0.01211100  1
  F  F3  1  0.51368800  0.73296800  0.98788900  1
  F  F4  1  0.48631200  0.26703200  0.01211100  1
  F  F5  1  0.98631200  0.23296800  0.98788900  1
  F  F6  1  0.51082200  0.76309500  0.50943700  1
  F  F7  1  0.01082200  0.73690500  0.49056300  1
loop_
_geom_bond_atom_site_label_1
_geom_bond_atom_site_label_2
_geom_bond_distance
_geom_bond_site_symmetry_2
Li0 O5 2.059643 1_555
Li0 O1 2.172282 1_555
Li0 O2 2.299348 1_555
Li0 O0 2.405272 1_555
Li1 O8 2.049714 1_555
Li1 O1 2.179492 1_555
Li1 O4 2.235335 1_555
Li1 O3 2.307074 1_555
Li2 O2 2.049714 1_555
Li2 O9 2.179492 1_555
Li2 O5 2.235335 1_455
Li2 O21 2.307074 1_545
Li3 O7 2.107248 1_555
Li3 O11 2.141469 1_555
Li3 O6 2.181621 1_555
Li3 O3 2.361444 1_555
Li4 O4 2.059643 1_555
Li4 O9 2.172282 1_555
Li4 O8 2.299348 1_455
Li4 O12 2.405272 1_555
Li5 O7 2.104284 1_555
Li5 O6 2.110247 1_555
Li5 O31 2.184001 1_555
Li5 O13 2.227279 1_554
Li6 O16 2.104284 1_655
Li6 O17 2.110247 1_555
Li6 O19 2.184001 1_555
Li6 O11 2.227279 1_556
Li7 O15 2.107248 1_555
Li7 O18 2.141469 1_555
Li7 O14 2.181621 1_655
Li7 O10 2.361444 1_555
Li8 O16 2.107248 1_555
Li8 O13 2.141469 1_555
Li8 O17 2.181621 1_455
Li8 O21 2.361444 1_555
Li9 O15 2.104284 1_455
Li9 O14 2.110247 1_555
Li9 O12 2.184001 1_555
Li9 O20 2.227279 1_554
Li10 O24 2.104284 1_555
Li10 O25 2.110247 1_555
Li10 O0 2.184001 1_555
Li10 O18 2.227279 1_556
Li11 O27 2.059643 1_555
Li11 O22 2.172282 1_555
Li11 O23 2.299348 1_655
Li11 O19 2.405272 1_555
Li12 O24 2.107248 1_555
Li12 O20 2.141469 1_555
Li12 O25 2.181621 1_555
Li12 O28 2.361444 1_555
Li13 O29 2.049714 1_555
Li13 O22 2.179492 1_555
Li13 O26 2.235335 1_655
Li13 O10 2.307074 1_565
Li14 O23 2.049714 1_555
Li14 O30 2.179492 1_555
Li14 O27 2.235335 1_555
Li14 O28 2.307074 1_555
Li15 O26 2.059643 1_555
Li15 O30 2.172282 1_555
Li15 O29 2.299348 1_555
Li15 O31 2.405272 1_555
Mn0 O1 2.135467 1_555
Mn0 O28 2.143361 1_555
Mn0 O2 2.172209 1_555
Mn0 O4 2.188159 1_555
Mn1 O9 2.135467 1_655
Mn1 O10 2.143361 1_555
Mn1 O8 2.172209 1_555
Mn1 O5 2.188159 1_555
Mn2 O6 2.159308 1_555
Mn2 O11 2.159626 1_455
Mn2 O16 2.179858 1_554
Mn2 O12 2.181333 1_555
Mn3 O17 2.159308 1_555
Mn3 O13 2.159626 1_555
Mn3 O7 2.179858 1_556
Mn3 O0 2.181333 1_565
Mn4 O14 2.159308 1_555
Mn4 O18 2.159626 1_555
Mn4 O24 2.179858 1_554
Mn4 O31 2.181333 1_545
Mn5 O25 2.159308 1_555
Mn5 O20 2.159626 1_655
Mn5 O15 2.179858 1_556
Mn5 O19 2.181333 1_555
Mn6 O22 2.135467 1_455
Mn6 O21 2.143361 1_555
Mn6 O23 2.172209 1_555
Mn6 O26 2.188159 1_555
Mn7 O30 2.135467 1_555
Mn7 O3 2.143361 1_555
Mn7 O29 2.172209 1_555
Mn7 O27 2.188159 1_555
O0 P0 1.573714 1_655
O1 P6 1.552761 1_555
O2 P0 1.547326 1_555
O3 P1 1.571802 1_655
O4 P1 1.551660 1_555
O5 P5 1.551660 1_545
O6 P1 1.553287 1_555
O7 P7 1.555595 1_555
O8 P3 1.547326 1_555
O9 P2 1.552761 1_555
O10 P2 1.571802 1_555
O11 P3 1.556135 1_555
O12 P3 1.573714 1_555
O13 P0 1.556135 1_565
O14 P2 1.553287 1_555
O15 P3 1.555595 1_555
O16 P4 1.555595 1_555
O17 P5 1.553287 1_555
O18 P7 1.556135 1_545
O19 P4 1.573714 1_555
O20 P4 1.556135 1_555
O21 P5 1.571802 1_555
O22 P5 1.552761 1_555
O23 P4 1.547326 1_555
O24 P0 1.555595 1_555
O25 P6 1.553287 1_555
O26 P2 1.551660 1_565
O27 P6 1.551660 1_555
O28 P6 1.571802 1_455
O29 P7 1.547326 1_555
O30 P1 1.552761 1_555
O31 P7 1.573714 1_455
F0 Li1 2.085559 1_555
F0 Li0 2.089175 1_555
F0 Mn0 2.132291 1_655
F0 Li4 2.213282 1_655
F0 Li2 2.263317 1_655
F0 Mn1 2.339497 1_555
F1 Li2 2.085559 1_555
F1 Li4 2.089175 1_555
F1 Mn1 2.132291 1_555
F1 Li0 2.213282 1_555
F1 Li1 2.263317 1_555
F1 Mn0 2.339497 1_555
F2 Li5 1.985657 1_555
F2 Li8 2.155683 1_554
F2 Mn3 2.182413 1_454
F2 Li3 2.203592 1_455
F2 Mn2 2.291958 1_555
F2 Li6 2.458659 1_454
F3 Li6 1.985657 1_555
F3 Li3 2.155683 1_556
F3 Mn2 2.182413 1_556
F3 Li8 2.203592 1_555
F3 Mn3 2.291958 1_555
F3 Li5 2.458659 1_556
F4 Li9 1.985657 1_555
F4 Li12 2.155683 1_554
F4 Mn5 2.182413 1_554
F4 Li7 2.203592 1_555
F4 Mn4 2.291958 1_555
F4 Li10 2.458659 1_554
F5 Li10 1.985657 1_555
F5 Li7 2.155683 1_556
F5 Mn4 2.182413 1_656
F5 Li12 2.203592 1_655
F5 Mn5 2.291958 1_555
F5 Li9 2.458659 1_656
F6 Li13 2.085559 1_555
F6 Li11 2.089175 1_555
F6 Mn6 2.132291 1_555
F6 Li15 2.213282 1_555
F6 Li14 2.263317 1_555
F6 Mn7 2.339497 1_555
F7 Li14 2.085559 1_555
F7 Li15 2.089175 1_555
F7 Mn7 2.132291 1_455
F7 Li11 2.213282 1_455
F7 Li13 2.263317 1_455
F7 Mn6 2.339497 1_555
