# generated using pymatgen
data_Li3Mn2P2O8F3
_symmetry_space_group_name_H-M   'P 1'
_cell_length_a   9.06655500
_cell_length_b   9.13516300
_cell_length_c   10.36009400
_cell_angle_alpha   90.00000000
_cell_angle_beta   90.00000000
_cell_angle_gamma   90.00000000
_symmetry_Int_Tables_number   1
_chemical_formula_structural   Li3Mn2P2O8F3
_chemical_formula_sum   'Li12 Mn8 P8 O32 F12'
_cell_volume   858.06916803
_cell_formula_units_Z   4
loop_
 _symmetry_equiv_pos_site_id
 _symmetry_equiv_pos_as_xyz
  1  'x, y, z'
loop_
 _atom_site_type_symbol
 _atom_site_label
 _atom_site_symmetry_multiplicity
 _atom_site_fract_x
 _atom_site_fract_y
 _atom_site_fract_z
 _atom_site_occupancy
  Li  Li0  1  0.00957300  0.28530600  0.50000000  1
  Li  Li1  1  0.05409800  0.81187500  0.00000000  1
  Li  Li2  1  0.23800100  0.49808000  0.00000000  1
  Li  Li3  1  0.26199900  0.99808000  0.50000000  1
  Li  Li4  1  0.44590200  0.31187500  0.50000000  1
  Li  Li5  1  0.49042700  0.78530600  0.00000000  1
  Li  Li6  1  0.50957300  0.21469400  0.00000000  1
  Li  Li7  1  0.55409800  0.68812500  0.50000000  1
  Li  Li8  1  0.73800100  0.00192000  0.50000000  1
  Li  Li9  1  0.76199900  0.50192000  0.00000000  1
  Li  Li10  1  0.94590200  0.18812500  0.00000000  1
  Li  Li11  1  0.99042700  0.71469400  0.50000000  1
  Mn  Mn0  1  0.24976500  0.24932900  0.19002800  1
  Mn  Mn1  1  0.24976500  0.24932900  0.80997200  1
  Mn  Mn2  1  0.25023500  0.74932900  0.30997200  1
  Mn  Mn3  1  0.25023500  0.74932900  0.69002800  1
  Mn  Mn4  1  0.74976500  0.25067100  0.30997200  1
  Mn  Mn5  1  0.74976500  0.25067100  0.69002800  1
  Mn  Mn6  1  0.75023500  0.75067100  0.19002800  1
  Mn  Mn7  1  0.75023500  0.75067100  0.80997200  1
  P  P0  1  0.00000000  0.00000000  0.25437800  1
  P  P1  1  0.00000000  0.00000000  0.74562200  1
  P  P2  1  0.00000000  0.50000000  0.74985500  1
  P  P3  1  0.00000000  0.50000000  0.25014500  1
  P  P4  1  0.50000000  0.50000000  0.24562200  1
  P  P5  1  0.50000000  0.00000000  0.24985500  1
  P  P6  1  0.50000000  0.00000000  0.75014500  1
  P  P7  1  0.50000000  0.50000000  0.75437800  1
  O  O0  1  0.08091900  0.60694100  0.34196400  1
  O  O1  1  0.08091900  0.60694100  0.65803600  1
  O  O2  1  0.08289000  0.10391800  0.16094700  1
  O  O3  1  0.08289000  0.10391800  0.83905300  1
  O  O4  1  0.10122100  0.91316400  0.34701300  1
  O  O5  1  0.10122100  0.91316400  0.65298700  1
  O  O6  1  0.10487700  0.41690700  0.15807800  1
  O  O7  1  0.10487700  0.41690700  0.84192200  1
  O  O8  1  0.39512300  0.91690700  0.34192200  1
  O  O9  1  0.39512300  0.91690700  0.65807800  1
  O  O10  1  0.39877900  0.41316400  0.84701300  1
  O  O11  1  0.39877900  0.41316400  0.15298700  1
  O  O12  1  0.41711000  0.60391800  0.33905300  1
  O  O13  1  0.41711000  0.60391800  0.66094700  1
  O  O14  1  0.41908100  0.10694100  0.15803600  1
  O  O15  1  0.41908100  0.10694100  0.84196400  1
  O  O16  1  0.58091900  0.89305900  0.84196400  1
  O  O17  1  0.58091900  0.89305900  0.15803600  1
  O  O18  1  0.58289000  0.39608200  0.33905300  1
  O  O19  1  0.58289000  0.39608200  0.66094700  1
  O  O20  1  0.60122100  0.58683600  0.15298700  1
  O  O21  1  0.60122100  0.58683600  0.84701300  1
  O  O22  1  0.60487700  0.08309300  0.34192200  1
  O  O23  1  0.60487700  0.08309300  0.65807800  1
  O  O24  1  0.89512300  0.58309300  0.84192200  1
  O  O25  1  0.89512300  0.58309300  0.15807800  1
  O  O26  1  0.89877900  0.08683600  0.34701300  1
  O  O27  1  0.89877900  0.08683600  0.65298700  1
  O  O28  1  0.91711000  0.89608200  0.16094700  1
  O  O29  1  0.91711000  0.89608200  0.83905300  1
  O  O30  1  0.91908100  0.39305900  0.34196400  1
  O  O31  1  0.91908100  0.39305900  0.65803600  1
  F  F0  1  0.25841400  0.23722200  0.37839300  1
  F  F1  1  0.25841400  0.23722200  0.62160700  1
  F  F2  1  0.24916900  0.25248500  0.00000000  1
  F  F3  1  0.25083100  0.75248500  0.50000000  1
  F  F4  1  0.24158600  0.73722200  0.12160700  1
  F  F5  1  0.24158600  0.73722200  0.87839300  1
  F  F6  1  0.75841400  0.26277800  0.12160700  1
  F  F7  1  0.75841400  0.26277800  0.87839300  1
  F  F8  1  0.74916900  0.24751500  0.50000000  1
  F  F9  1  0.75083100  0.74751500  0.00000000  1
  F  F10  1  0.74158600  0.76277800  0.37839300  1
  F  F11  1  0.74158600  0.76277800  0.62160700  1
loop_
_geom_bond_atom_site_label_1
_geom_bond_atom_site_label_2
_geom_bond_distance
_geom_bond_site_symmetry_2
Li0 O31 2.079113 1_455
Li0 O30 2.079113 1_455
Li0 O27 2.609277 1_455
Li0 O26 2.609277 1_455
Li1 O28 2.216897 1_455
Li1 O29 2.216897 1_454
Li2 O6 2.165347 1_555
Li2 O7 2.165347 1_554
Li2 O11 2.288829 1_555
Li2 O10 2.288829 1_554
Li3 O9 2.165347 1_555
Li3 O8 2.165347 1_555
Li3 O5 2.288829 1_555
Li3 O4 2.288829 1_555
Li4 O19 2.216897 1_555
Li4 O18 2.216897 1_555
Li5 O17 2.079113 1_555
Li5 O16 2.079113 1_554
Li5 O20 2.609277 1_555
Li5 O21 2.609277 1_554
Li6 O14 2.079113 1_555
Li6 O15 2.079113 1_554
Li6 O11 2.609277 1_555
Li6 O10 2.609277 1_554
Li7 O13 2.216897 1_555
Li7 O12 2.216897 1_555
Li8 O23 2.165347 1_555
Li8 O22 2.165347 1_555
Li8 O27 2.288829 1_555
Li8 O26 2.288829 1_555
Li9 O25 2.165347 1_555
Li9 O24 2.165347 1_554
Li9 O20 2.288829 1_555
Li9 O21 2.288829 1_554
Li10 O2 2.216897 1_655
Li10 O3 2.216897 1_654
Li11 O1 2.079113 1_655
Li11 O0 2.079113 1_655
Li11 O5 2.609277 1_655
Li11 O4 2.609277 1_655
Mn0 O2 2.035781 1_555
Mn0 O14 2.039201 1_555
Mn0 O6 2.044189 1_555
Mn0 O11 2.052455 1_555
Mn1 O3 2.035781 1_555
Mn1 O15 2.039201 1_555
Mn1 O7 2.044189 1_555
Mn1 O10 2.052455 1_555
Mn2 O12 2.035781 1_555
Mn2 O0 2.039201 1_555
Mn2 O8 2.044189 1_555
Mn2 O4 2.052455 1_555
Mn3 O13 2.035781 1_555
Mn3 O1 2.039201 1_555
Mn3 O9 2.044189 1_555
Mn3 O5 2.052455 1_555
Mn4 O18 2.035781 1_555
Mn4 O30 2.039201 1_555
Mn4 O22 2.044189 1_555
Mn4 O26 2.052455 1_555
Mn5 O19 2.035781 1_555
Mn5 O31 2.039201 1_555
Mn5 O23 2.044189 1_555
Mn5 O27 2.052455 1_555
Mn6 O28 2.035781 1_555
Mn6 O17 2.039201 1_555
Mn6 O25 2.044189 1_555
Mn6 O20 2.052455 1_555
Mn7 O29 2.035781 1_555
Mn7 O16 2.039201 1_555
Mn7 O24 2.044189 1_555
Mn7 O21 2.052455 1_555
O0 P3 1.548391 1_555
O1 P2 1.548391 1_555
O2 P0 1.550133 1_555
O3 P1 1.550133 1_555
O4 P0 1.546778 1_565
O5 P1 1.546778 1_565
O6 P3 1.546002 1_555
O7 P2 1.546002 1_555
O8 P5 1.546002 1_565
O9 P6 1.546002 1_565
O10 P7 1.546778 1_555
O11 P4 1.546778 1_555
O12 P4 1.550133 1_555
O13 P7 1.550133 1_555
O14 P5 1.548391 1_555
O15 P6 1.548391 1_555
O16 P6 1.548391 1_565
O17 P5 1.548391 1_565
O18 P4 1.550133 1_555
O19 P7 1.550133 1_555
O20 P4 1.546778 1_555
O21 P7 1.546778 1_555
O22 P5 1.546002 1_555
O23 P6 1.546002 1_555
O24 P2 1.546002 1_655
O25 P3 1.546002 1_655
O26 P0 1.546778 1_655
O27 P1 1.546778 1_655
O28 P0 1.550133 1_665
O29 P1 1.550133 1_665
O30 P3 1.548391 1_655
O31 P2 1.548391 1_655
F0 Mn0 1.956183 1_555
F0 Li4 2.223035 1_555
F0 Li3 2.522060 1_545
F0 Li0 2.621129 1_555
F1 Mn1 1.956183 1_555
F1 Li4 2.223035 1_555
F1 Li3 2.522060 1_545
F1 Li0 2.621129 1_555
F2 Mn0 1.968926 1_555
F2 Mn1 1.968926 1_554
F2 Li2 2.245834 1_555
F2 Li6 2.386074 1_555
F3 Mn3 1.968926 1_555
F3 Mn2 1.968926 1_555
F3 Li3 2.245834 1_555
F3 Li11 2.386074 1_455
F4 Mn2 1.956183 1_555
F4 Li1 2.223035 1_555
F4 Li2 2.522060 1_555
F4 Li5 2.621129 1_555
F5 Mn3 1.956183 1_555
F5 Li1 2.223035 1_556
F5 Li2 2.522060 1_556
F5 Li5 2.621129 1_556
F6 Mn4 1.956183 1_555
F6 Li10 2.223035 1_555
F6 Li9 2.522060 1_555
F6 Li6 2.621129 1_555
F7 Mn5 1.956183 1_555
F7 Li10 2.223035 1_556
F7 Li9 2.522060 1_556
F7 Li6 2.621129 1_556
F8 Mn5 1.968926 1_555
F8 Mn4 1.968926 1_555
F8 Li8 2.245834 1_555
F8 Li0 2.386074 1_655
F9 Mn6 1.968926 1_555
F9 Mn7 1.968926 1_554
F9 Li9 2.245834 1_555
F9 Li5 2.386074 1_555
F10 Mn6 1.956183 1_555
F10 Li7 2.223035 1_555
F10 Li8 2.522060 1_565
F10 Li11 2.621129 1_555
F11 Mn7 1.956183 1_555
F11 Li7 2.223035 1_555
F11 Li8 2.522060 1_565
F11 Li11 2.621129 1_555
