# generated using pymatgen
data_Bi4(BO4)3
_symmetry_space_group_name_H-M   'P 1'
_cell_length_a   8.48531344
_cell_length_b   8.48531344
_cell_length_c   8.48531344
_cell_angle_alpha   109.47122063
_cell_angle_beta   109.47122063
_cell_angle_gamma   109.47122063
_symmetry_Int_Tables_number   1
_chemical_formula_structural   Bi4(BO4)3
_chemical_formula_sum   'Bi8 B6 O24'
_cell_volume   470.30736279
_cell_formula_units_Z   2
loop_
 _symmetry_equiv_pos_site_id
 _symmetry_equiv_pos_as_xyz
  1  'x, y, z'
loop_
 _atom_site_type_symbol
 _atom_site_label
 _atom_site_symmetry_multiplicity
 _atom_site_fract_x
 _atom_site_fract_y
 _atom_site_fract_z
 _atom_site_occupancy
  Bi  Bi0  1  0.85138500  0.50000000  0.00000000  1
  Bi  Bi1  1  0.50000000  0.00000000  0.35138500  1
  Bi  Bi2  1  0.14861500  0.14861500  0.14861500  1
  Bi  Bi3  1  0.35138500  0.50000000  0.00000000  1
  Bi  Bi4  1  0.50000000  0.00000000  0.85138500  1
  Bi  Bi5  1  0.64861500  0.64861500  0.64861500  1
  Bi  Bi6  1  0.00000000  0.35138500  0.50000000  1
  Bi  Bi7  1  0.00000000  0.85138500  0.50000000  1
  B  B0  1  0.62500000  0.37500000  0.25000000  1
  B  B1  1  0.87500000  0.12500000  0.75000000  1
  B  B2  1  0.75000000  0.87500000  0.12500000  1
  B  B3  1  0.37500000  0.25000000  0.62500000  1
  B  B4  1  0.25000000  0.62500000  0.37500000  1
  B  B5  1  0.12500000  0.75000000  0.87500000  1
  O  O0  1  0.91803700  0.07280000  0.25790300  1
  O  O1  1  0.65476300  0.33986600  0.08196300  1
  O  O2  1  0.83986600  0.15476300  0.58196300  1
  O  O3  1  0.66013400  0.24209700  0.31489700  1
  O  O4  1  0.81489700  0.74209700  0.16013400  1
  O  O5  1  0.42720000  0.34523700  0.18510300  1
  O  O6  1  0.74209700  0.16013400  0.81489700  1
  O  O7  1  0.75790300  0.57280000  0.41803700  1
  O  O8  1  0.34523700  0.18510300  0.42720000  1
  O  O9  1  0.33986600  0.08196300  0.65476300  1
  O  O10  1  0.58196300  0.83986600  0.15476300  1
  O  O11  1  0.18510300  0.42720000  0.34523700  1
  O  O12  1  0.31489700  0.66013400  0.24209700  1
  O  O13  1  0.57280000  0.41803700  0.75790300  1
  O  O14  1  0.92720000  0.68510300  0.84523700  1
  O  O15  1  0.25790300  0.91803700  0.07280000  1
  O  O16  1  0.24209700  0.31489700  0.66013400  1
  O  O17  1  0.84523700  0.92720000  0.68510300  1
  O  O18  1  0.41803700  0.75790300  0.57280000  1
  O  O19  1  0.08196300  0.65476300  0.33986600  1
  O  O20  1  0.68510300  0.84523700  0.92720000  1
  O  O21  1  0.07280000  0.25790300  0.91803700  1
  O  O22  1  0.15476300  0.58196300  0.83986600  1
  O  O23  1  0.16013400  0.81489700  0.74209700  1
loop_
_geom_bond_atom_site_label_1
_geom_bond_atom_site_label_2
_geom_bond_distance
_geom_bond_site_symmetry_2
Bi0 O13 2.237362 1_554
Bi0 O1 2.237362 1_555
Bi0 O4 2.237362 1_555
Bi0 O6 2.422809 1_554
Bi0 O14 2.422809 1_554
Bi0 O19 2.422809 1_655
Bi1 O15 2.237362 1_545
Bi1 O10 2.237362 1_545
Bi1 O3 2.237362 1_555
Bi1 O8 2.422809 1_555
Bi1 O12 2.422809 1_545
Bi1 O2 2.422809 1_555
Bi2 O5 2.237362 1_555
Bi2 O8 2.237362 1_555
Bi2 O11 2.237362 1_555
Bi2 O21 2.422809 1_554
Bi2 O15 2.422809 1_545
Bi2 O0 2.422809 1_455
Bi3 O21 2.237362 1_554
Bi3 O22 2.237362 1_554
Bi3 O12 2.237362 1_555
Bi3 O5 2.422809 1_555
Bi3 O16 2.422809 1_554
Bi3 O10 2.422809 1_555
Bi4 O9 2.237362 1_555
Bi4 O18 2.237362 1_545
Bi4 O6 2.237362 1_555
Bi4 O23 2.422809 1_545
Bi4 O1 2.422809 1_556
Bi4 O20 2.422809 1_545
Bi5 O17 2.237362 1_555
Bi5 O20 2.237362 1_555
Bi5 O14 2.237362 1_555
Bi5 O13 2.422809 1_555
Bi5 O7 2.422809 1_555
Bi5 O18 2.422809 1_555
Bi6 O0 2.237362 1_455
Bi6 O16 2.237362 1_555
Bi6 O2 2.237362 1_455
Bi6 O11 2.422809 1_555
Bi6 O3 2.422809 1_455
Bi6 O22 2.422809 1_555
Bi7 O19 2.237362 1_555
Bi7 O23 2.237362 1_555
Bi7 O7 2.237362 1_455
Bi7 O17 2.422809 1_455
Bi7 O9 2.422809 1_565
Bi7 O4 2.422809 1_455
B0 O1 1.480732 1_555
B0 O5 1.480732 1_555
B0 O3 1.480732 1_555
B0 O7 1.480732 1_555
B1 O21 1.480732 1_655
B1 O17 1.480732 1_545
B1 O2 1.480732 1_555
B1 O6 1.480732 1_555
B2 O0 1.480732 1_565
B2 O20 1.480732 1_554
B2 O10 1.480732 1_555
B2 O4 1.480732 1_555
B3 O8 1.480732 1_555
B3 O16 1.480732 1_555
B3 O13 1.480732 1_555
B3 O9 1.480732 1_555
B4 O19 1.480732 1_555
B4 O18 1.480732 1_555
B4 O11 1.480732 1_555
B4 O12 1.480732 1_555
B5 O23 1.480732 1_555
B5 O22 1.480732 1_555
B5 O14 1.480732 1_455
B5 O15 1.480732 1_556
