# generated using pymatgen
data_Li3FeOF3
_symmetry_space_group_name_H-M   'P 1'
_cell_length_a   2.99541900
_cell_length_b   5.17636529
_cell_length_c   10.37706059
_cell_angle_alpha   100.37328837
_cell_angle_beta   89.87635946
_cell_angle_gamma   106.64274766
_symmetry_Int_Tables_number   1
_chemical_formula_structural   Li3FeOF3
_chemical_formula_sum   'Li6 Fe2 O2 F6'
_cell_volume   151.43182351
_cell_formula_units_Z   2
loop_
 _symmetry_equiv_pos_site_id
 _symmetry_equiv_pos_as_xyz
  1  'x, y, z'
loop_
 _atom_site_type_symbol
 _atom_site_label
 _atom_site_symmetry_multiplicity
 _atom_site_fract_x
 _atom_site_fract_y
 _atom_site_fract_z
 _atom_site_occupancy
  Li  Li0  1  0.74985000  0.50157600  0.38300500  1
  Li  Li1  1  0.50000000  0.00000000  0.50000000  1
  Li  Li2  1  0.50000000  0.00000000  0.00000000  1
  Li  Li3  1  0.99758300  0.00335300  0.75091800  1
  Li  Li4  1  0.25015000  0.49842400  0.61699500  1
  Li  Li5  1  0.00241700  0.99664700  0.24908200  1
  Fe  Fe0  1  0.73505900  0.48340400  0.88292900  1
  Fe  Fe1  1  0.26494100  0.51659600  0.11707100  1
  O  O0  1  0.88510200  0.76159300  0.06736200  1
  O  O1  1  0.11489800  0.23840700  0.93263800  1
  F  F0  1  0.87289800  0.74799700  0.56157400  1
  F  F1  1  0.62187200  0.24592200  0.67620900  1
  F  F2  1  0.63620500  0.26413300  0.20313800  1
  F  F3  1  0.12710200  0.25200300  0.43842600  1
  F  F4  1  0.37812800  0.75407800  0.32379100  1
  F  F5  1  0.36379500  0.73586700  0.79686200  1
loop_
_geom_bond_atom_site_label_1
_geom_bond_atom_site_label_2
_geom_bond_distance
_geom_bond_site_symmetry_2
Li2 O0 2.099332 1_445
Li2 O1 2.099332 1_654
Li2 O0 2.114665 1_545
Li2 O1 2.114665 1_554
Li3 O1 2.022753 1_655
Li5 O0 2.022753 1_455
Fe0 O1 2.051154 1_555
Fe0 O1 2.057563 1_655
Fe0 O0 2.139867 1_556
Fe1 O0 2.051154 1_555
Fe1 O0 2.057563 1_455
Fe1 O1 2.139867 1_554
F0 Li0 2.019666 1_555
F0 Li4 2.088524 1_555
F0 Li4 2.093621 1_655
F0 Li1 2.120234 1_565
F0 Li1 2.128333 1_665
F0 Li3 2.128934 1_565
F1 Li1 1.998930 1_555
F1 Li4 2.109867 1_555
F1 Li4 2.122012 1_655
F1 Li3 2.146608 1_555
F1 Li3 2.161916 1_455
F1 Fe0 2.245556 1_555
F2 Li0 2.011782 1_555
F2 Li5 2.111338 1_645
F2 Li5 2.115826 1_545
F2 Fe1 2.235918 1_555
F2 Fe1 2.248486 1_655
F2 Li2 2.263991 1_555
F3 Li4 2.019666 1_555
F3 Li0 2.088524 1_555
F3 Li0 2.093621 1_455
F3 Li1 2.120234 1_555
F3 Li1 2.128333 1_455
F3 Li5 2.128934 1_545
F4 Li1 1.998930 1_565
F4 Li0 2.109867 1_555
F4 Li0 2.122012 1_455
F4 Li5 2.146608 1_555
F4 Li5 2.161916 1_655
F4 Fe1 2.245556 1_555
F5 Li4 2.011782 1_555
F5 Li3 2.111338 1_465
F5 Li3 2.115826 1_565
F5 Fe0 2.235918 1_555
F5 Fe0 2.248486 1_455
F5 Li2 2.263991 1_566
