# generated using pymatgen
data_Li2Ni(PO3)4
_symmetry_space_group_name_H-M   'P 1'
_cell_length_a   12.47842500
_cell_length_b   7.66286600
_cell_length_c   11.60062774
_cell_angle_alpha   62.99716066
_cell_angle_beta   90.00000000
_cell_angle_gamma   90.00000000
_symmetry_Int_Tables_number   1
_chemical_formula_structural   Li2Ni(PO3)4
_chemical_formula_sum   'Li8 Ni4 P16 O48'
_cell_volume   988.33098808
_cell_formula_units_Z   4
loop_
 _symmetry_equiv_pos_site_id
 _symmetry_equiv_pos_as_xyz
  1  'x, y, z'
loop_
 _atom_site_type_symbol
 _atom_site_label
 _atom_site_symmetry_multiplicity
 _atom_site_fract_x
 _atom_site_fract_y
 _atom_site_fract_z
 _atom_site_occupancy
  Li  Li0  1  0.06015700  0.53630800  0.59771900  1
  Li  Li1  1  0.70156600  0.96894600  0.14206900  1
  Li  Li2  1  0.56015700  0.46369200  0.90228100  1
  Li  Li3  1  0.20156600  0.03105400  0.35793100  1
  Li  Li4  1  0.79843400  0.96894600  0.64206900  1
  Li  Li5  1  0.43984300  0.53630800  0.09771900  1
  Li  Li6  1  0.29843400  0.03105400  0.85793100  1
  Li  Li7  1  0.93984300  0.46369200  0.40228100  1
  Ni  Ni0  1  0.15227400  0.25865500  0.98792100  1
  Ni  Ni1  1  0.65227400  0.74134500  0.51207900  1
  Ni  Ni2  1  0.34772600  0.25865500  0.48792100  1
  Ni  Ni3  1  0.84772600  0.74134500  0.01207900  1
  P  P0  1  0.82145900  0.38661900  0.69191000  1
  P  P1  1  0.42002000  0.55880400  0.59709100  1
  P  P2  1  0.33378300  0.91879300  0.14632700  1
  P  P3  1  0.92002000  0.44119600  0.90290900  1
  P  P4  1  0.93728900  0.06649200  0.13648500  1
  P  P5  1  0.32145900  0.61338100  0.80809000  1
  P  P6  1  0.43728900  0.93350800  0.36351500  1
  P  P7  1  0.83378300  0.08120700  0.35367300  1
  P  P8  1  0.16621700  0.91879300  0.64632700  1
  P  P9  1  0.56271100  0.06649200  0.63648500  1
  P  P10  1  0.67854100  0.38661900  0.19191000  1
  P  P11  1  0.06271100  0.93350800  0.86351500  1
  P  P12  1  0.07998000  0.55880400  0.09709100  1
  P  P13  1  0.66621700  0.08120700  0.85367300  1
  P  P14  1  0.57998000  0.44119600  0.40290900  1
  P  P15  1  0.17854100  0.61338100  0.30809000  1
  O  O0  1  0.63748500  0.19679300  0.92480500  1
  O  O1  1  0.36487700  0.37070000  0.62181600  1
  O  O2  1  0.91539000  0.39079200  0.60835100  1
  O  O3  1  0.85768500  0.33258900  0.83505200  1
  O  O4  1  0.24714900  0.81388400  0.26720900  1
  O  O5  1  0.85200100  0.92614600  0.13741000  1
  O  O6  1  0.53613800  0.55976900  0.63018600  1
  O  O7  1  0.75109400  0.56193700  0.64856200  1
  O  O8  1  0.25109400  0.43806300  0.85143800  1
  O  O9  1  0.03613800  0.44023100  0.86981400  1
  O  O10  1  0.39554500  0.71289300  0.45096200  1
  O  O11  1  0.35768500  0.66741100  0.66494800  1
  O  O12  1  0.05044500  0.04329700  0.10485600  1
  O  O13  1  0.43850500  0.92965500  0.22478800  1
  O  O14  1  0.79267700  0.87709600  0.43153800  1
  O  O15  1  0.29267700  0.12290400  0.06846200  1
  O  O16  1  0.93850500  0.07034500  0.27521200  1
  O  O17  1  0.41539000  0.60920800  0.89164900  1
  O  O18  1  0.86487700  0.62930000  0.87818400  1
  O  O19  1  0.55044500  0.95670300  0.39514400  1
  O  O20  1  0.13748500  0.80320700  0.57519500  1
  O  O21  1  0.89554500  0.28710700  0.04903800  1
  O  O22  1  0.25285100  0.81388400  0.76720900  1
  O  O23  1  0.64799900  0.92614600  0.63741000  1
  O  O24  1  0.35200100  0.07385400  0.36259000  1
  O  O25  1  0.74714900  0.18611600  0.23279100  1
  O  O26  1  0.10445500  0.71289300  0.95096200  1
  O  O27  1  0.86251500  0.19679300  0.42480500  1
  O  O28  1  0.44955500  0.04329700  0.60485600  1
  O  O29  1  0.13512300  0.37070000  0.12181600  1
  O  O30  1  0.58461000  0.39079200  0.10835100  1
  O  O31  1  0.06149500  0.92965500  0.72478800  1
  O  O32  1  0.70732300  0.87709600  0.93153800  1
  O  O33  1  0.20732300  0.12290400  0.56846200  1
  O  O34  1  0.56149500  0.07034500  0.77521200  1
  O  O35  1  0.94955500  0.95670300  0.89514400  1
  O  O36  1  0.64231500  0.33258900  0.33505200  1
  O  O37  1  0.60445500  0.28710700  0.54903800  1
  O  O38  1  0.96386200  0.55976900  0.13018600  1
  O  O39  1  0.74890600  0.56193700  0.14856200  1
  O  O40  1  0.24890600  0.43806300  0.35143800  1
  O  O41  1  0.46386200  0.44023100  0.36981400  1
  O  O42  1  0.14799900  0.07385400  0.86259000  1
  O  O43  1  0.75285100  0.18611600  0.73279100  1
  O  O44  1  0.14231500  0.66741100  0.16494800  1
  O  O45  1  0.08461000  0.60920800  0.39164900  1
  O  O46  1  0.63512300  0.62930000  0.37818400  1
  O  O47  1  0.36251500  0.80320700  0.07519500  1
loop_
_geom_bond_atom_site_label_1
_geom_bond_atom_site_label_2
_geom_bond_distance
_geom_bond_site_symmetry_2
Li0 O2 2.096907 1_455
Li0 O20 2.167253 1_555
Li0 O45 2.215222 1_555
Li1 O5 1.910610 1_555
Li1 O25 2.406433 1_565
Li1 O0 2.458500 1_564
Li2 O17 2.096907 1_555
Li2 O0 2.167253 1_555
Li2 O30 2.215222 1_556
Li3 O24 1.910610 1_555
Li3 O4 2.406433 1_545
Li3 O20 2.458500 1_545
Li4 O23 1.910610 1_555
Li4 O43 2.406433 1_565
Li4 O27 2.458500 1_565
Li5 O30 2.096907 1_555
Li5 O47 2.167253 1_555
Li5 O17 2.215222 1_554
Li6 O42 1.910610 1_555
Li6 O22 2.406433 1_545
Li6 O47 2.458500 1_546
Li7 O45 2.096907 1_655
Li7 O27 2.167253 1_555
Li7 O2 2.215222 1_555
Ni0 O8 1.985153 1_555
Ni0 O15 2.035197 1_556
Ni0 O12 2.035996 1_556
Ni0 O9 2.045052 1_555
Ni0 O29 2.099195 1_556
Ni0 O42 2.447796 1_555
Ni1 O7 1.985153 1_555
Ni1 O14 2.035197 1_555
Ni1 O19 2.035996 1_555
Ni1 O6 2.045052 1_555
Ni1 O46 2.099195 1_555
Ni1 O23 2.447796 1_555
Ni2 O40 1.985153 1_555
Ni2 O33 2.035197 1_555
Ni2 O28 2.035996 1_555
Ni2 O41 2.045052 1_555
Ni2 O1 2.099195 1_555
Ni2 O24 2.447796 1_555
Ni3 O39 1.985153 1_555
Ni3 O32 2.035197 1_554
Ni3 O35 2.035996 1_554
Ni3 O38 2.045052 1_555
Ni3 O18 2.099195 1_554
Ni3 O5 2.447796 1_555
O0 P13 1.502546 1_555
O1 P1 1.502664 1_555
O2 P0 1.512063 1_555
O3 P0 1.583933 1_555
O3 P3 1.584999 1_555
O4 P15 1.629970 1_555
O4 P2 1.660639 1_555
O5 P4 1.509597 1_565
O6 P1 1.499848 1_555
O7 P0 1.488355 1_555
O8 P5 1.488355 1_555
O9 P3 1.499848 1_455
O10 P1 1.594846 1_555
O10 P6 1.612781 1_555
O11 P5 1.583933 1_555
O11 P1 1.584999 1_555
O12 P4 1.489701 1_455
O13 P2 1.616112 1_555
O13 P6 1.623010 1_555
O14 P7 1.497476 1_565
O15 P2 1.497476 1_545
O16 P7 1.616112 1_555
O16 P4 1.623010 1_555
O17 P5 1.512063 1_555
O18 P3 1.502664 1_555
O19 P6 1.489701 1_555
O20 P8 1.502546 1_555
O21 P3 1.594846 1_554
O21 P4 1.612781 1_555
O22 P5 1.629970 1_555
O22 P8 1.660639 1_555
O23 P9 1.509597 1_565
O24 P6 1.509597 1_545
O25 P10 1.629970 1_555
O25 P7 1.660639 1_555
O26 P12 1.594846 1_556
O26 P11 1.612781 1_555
O27 P7 1.502546 1_555
O28 P9 1.489701 1_555
O29 P12 1.502664 1_555
O30 P10 1.512063 1_555
O31 P8 1.616112 1_555
O31 P11 1.623010 1_555
O32 P13 1.497476 1_565
O33 P8 1.497476 1_545
O34 P13 1.616112 1_555
O34 P9 1.623010 1_555
O35 P11 1.489701 1_655
O36 P10 1.583933 1_555
O36 P14 1.584999 1_555
O37 P14 1.594846 1_555
O37 P9 1.612781 1_555
O38 P12 1.499848 1_655
O39 P10 1.488355 1_555
O40 P15 1.488355 1_555
O41 P14 1.499848 1_555
O42 P11 1.509597 1_545
O43 P0 1.629970 1_555
O43 P13 1.660639 1_555
O44 P15 1.583933 1_555
O44 P12 1.584999 1_555
O45 P15 1.512063 1_555
O46 P14 1.502664 1_555
O47 P2 1.502546 1_555
