# generated using pymatgen
data_Li3MnFe2(BO3)3
_symmetry_space_group_name_H-M   'P 1'
_cell_length_a   6.28434300
_cell_length_b   8.26038200
_cell_length_c   8.26080300
_cell_angle_alpha   60.05505754
_cell_angle_beta   90.00000000
_cell_angle_gamma   90.00000000
_symmetry_Int_Tables_number   1
_chemical_formula_structural   Li3MnFe2(BO3)3
_chemical_formula_sum   'Li6 Mn2 Fe4 B6 O18'
_cell_volume   371.58107550
_cell_formula_units_Z   2
loop_
 _symmetry_equiv_pos_site_id
 _symmetry_equiv_pos_as_xyz
  1  'x, y, z'
loop_
 _atom_site_type_symbol
 _atom_site_label
 _atom_site_symmetry_multiplicity
 _atom_site_fract_x
 _atom_site_fract_y
 _atom_site_fract_z
 _atom_site_occupancy
  Li  Li0  1  0.74881100  0.69876400  0.01620900  1
  Li  Li1  1  0.25118900  0.69876400  0.01620900  1
  Li  Li2  1  0.74993200  0.28519000  0.69854500  1
  Li  Li3  1  0.25006800  0.28519000  0.69854500  1
  Li  Li4  1  0.25047700  0.01510000  0.28627800  1
  Li  Li5  1  0.74952300  0.01510000  0.28627800  1
  Mn  Mn0  1  0.00000000  0.98804700  0.64008100  1
  Mn  Mn1  1  0.00000000  0.37151100  0.98797600  1
  Fe  Fe0  1  0.50000000  0.99375100  0.63944200  1
  Fe  Fe1  1  0.50000000  0.36739500  0.99314000  1
  Fe  Fe2  1  0.00000000  0.64120700  0.36613400  1
  Fe  Fe3  1  0.50000000  0.63980200  0.36747200  1
  B  B0  1  0.00000000  0.99911500  0.00303600  1
  B  B1  1  0.50000000  0.99976200  0.99966700  1
  B  B2  1  0.74649400  0.33478400  0.33288200  1
  B  B3  1  0.25350600  0.33478400  0.33288200  1
  B  B4  1  0.74653800  0.66591100  0.66590500  1
  B  B5  1  0.25346200  0.66591100  0.66590500  1
  O  O0  1  0.50000000  0.80655200  0.08569400  1
  O  O1  1  0.00000000  0.80517300  0.08404400  1
  O  O2  1  0.74983800  0.44191400  0.41969400  1
  O  O3  1  0.25016200  0.44191400  0.41969400  1
  O  O4  1  0.00000000  0.11118300  0.80989400  1
  O  O5  1  0.50000000  0.10735500  0.80569200  1
  O  O6  1  0.74587000  0.42095000  0.13996400  1
  O  O7  1  0.25413000  0.42095000  0.13996400  1
  O  O8  1  0.74653800  0.14154700  0.43979100  1
  O  O9  1  0.25346200  0.14154700  0.43979100  1
  O  O10  1  0.74591900  0.77949500  0.74570100  1
  O  O11  1  0.25408100  0.77949500  0.74570100  1
  O  O12  1  0.00000000  0.07881000  0.11629500  1
  O  O13  1  0.50000000  0.08649500  0.10694000  1
  O  O14  1  0.74895400  0.74513000  0.47271400  1
  O  O15  1  0.25104600  0.74513000  0.47271400  1
  O  O16  1  0.25343500  0.47313600  0.77956400  1
  O  O17  1  0.74656500  0.47313600  0.77956400  1
loop_
_geom_bond_atom_site_label_1
_geom_bond_atom_site_label_2
_geom_bond_distance
_geom_bond_site_symmetry_2
Li0 O10 1.987669 1_554
Li0 O6 1.992398 1_555
Li0 O1 2.017474 1_655
Li0 O0 2.019244 1_555
Li1 O11 1.987669 1_554
Li1 O7 1.992398 1_555
Li1 O1 2.017474 1_555
Li1 O0 2.019244 1_555
Li2 O17 1.973827 1_555
Li2 O2 2.001266 1_555
Li2 O4 2.015398 1_655
Li2 O5 2.027377 1_555
Li3 O16 1.973827 1_555
Li3 O3 2.001266 1_555
Li3 O4 2.015398 1_555
Li3 O5 2.027377 1_555
Li4 O15 1.978961 1_545
Li4 O12 1.997175 1_555
Li4 O9 2.005463 1_555
Li4 O13 2.032051 1_555
Li5 O14 1.978961 1_545
Li5 O12 1.997175 1_655
Li5 O8 2.005463 1_555
Li5 O13 2.032051 1_555
Mn0 O4 2.104019 1_565
Mn0 O10 2.185864 1_455
Mn0 O11 2.185864 1_555
Mn0 O9 2.188153 1_565
Mn0 O8 2.188153 1_465
Mn1 O12 2.100198 1_556
Mn1 O16 2.182322 1_555
Mn1 O17 2.182322 1_455
Mn1 O6 2.192167 1_456
Mn1 O7 2.192167 1_556
Fe0 O5 2.013296 1_565
Fe0 O8 2.144958 1_565
Fe0 O9 2.144958 1_565
Fe0 O10 2.177214 1_555
Fe0 O11 2.177214 1_555
Fe1 O13 2.022390 1_556
Fe1 O7 2.142403 1_556
Fe1 O6 2.142403 1_556
Fe1 O16 2.176736 1_555
Fe1 O17 2.176736 1_555
Fe2 O1 2.028243 1_555
Fe2 O3 2.156433 1_555
Fe2 O2 2.156433 1_455
Fe2 O15 2.180745 1_555
Fe2 O14 2.180745 1_455
Fe3 O0 2.028455 1_555
Fe3 O2 2.149240 1_555
Fe3 O3 2.149240 1_555
Fe3 O14 2.171557 1_555
Fe3 O15 2.171557 1_555
B0 O12 1.386953 1_565
B0 O4 1.388550 1_564
B0 O1 1.394292 1_555
B1 O0 1.385605 1_556
B1 O13 1.390111 1_566
B1 O5 1.391322 1_565
B2 O6 1.383455 1_555
B2 O8 1.385821 1_555
B2 O2 1.389748 1_555
B3 O7 1.383455 1_555
B3 O9 1.385821 1_555
B3 O3 1.389748 1_555
B4 O17 1.387317 1_555
B4 O10 1.390066 1_555
B4 O14 1.390247 1_555
B5 O16 1.387317 1_555
B5 O11 1.390066 1_555
B5 O15 1.390247 1_555
