# generated using pymatgen
data_Sr2V(PO4)3
_symmetry_space_group_name_H-M   'P 1'
_cell_length_a   8.23760232
_cell_length_b   8.23760232
_cell_length_c   9.11779143
_cell_angle_alpha   66.62270444
_cell_angle_beta   66.62270444
_cell_angle_gamma   96.68295886
_symmetry_Int_Tables_number   1
_chemical_formula_structural   Sr2V(PO4)3
_chemical_formula_sum   'Sr4 V2 P6 O24'
_cell_volume   493.01126879
_cell_formula_units_Z   2
loop_
 _symmetry_equiv_pos_site_id
 _symmetry_equiv_pos_as_xyz
  1  'x, y, z'
loop_
 _atom_site_type_symbol
 _atom_site_label
 _atom_site_symmetry_multiplicity
 _atom_site_fract_x
 _atom_site_fract_y
 _atom_site_fract_z
 _atom_site_occupancy
  Sr  Sr0  1  0.64517900  0.05631700  0.68751000  1
  Sr  Sr1  1  0.94368300  0.35482100  0.81249000  1
  Sr  Sr2  1  0.35482100  0.94368300  0.31249000  1
  Sr  Sr3  1  0.05631700  0.64517900  0.18751000  1
  V  V0  1  0.50000000  0.50000000  0.50000000  1
  V  V1  1  0.50000000  0.50000000  0.00000000  1
  P  P0  1  0.29626200  0.70373800  0.75000000  1
  P  P1  1  0.70373800  0.29626200  0.25000000  1
  P  P2  1  0.81878000  0.70217700  0.55832500  1
  P  P3  1  0.29782300  0.18122000  0.94167500  1
  P  P4  1  0.18122000  0.29782300  0.44167500  1
  P  P5  1  0.70217700  0.81878000  0.05832500  1
  O  O0  1  0.39926500  0.64697000  0.59703000  1
  O  O1  1  0.35303000  0.60073500  0.90297000  1
  O  O2  1  0.60073500  0.35303000  0.40297000  1
  O  O3  1  0.64697000  0.39926500  0.09703000  1
  O  O4  1  0.74007500  0.62274900  0.45596300  1
  O  O5  1  0.37725100  0.25992500  0.04403700  1
  O  O6  1  0.25992500  0.37725100  0.54403700  1
  O  O7  1  0.62274900  0.74007500  0.95596300  1
  O  O8  1  0.45659600  0.30142400  0.73138100  1
  O  O9  1  0.69857600  0.54340400  0.76861900  1
  O  O10  1  0.54340400  0.69857600  0.26861900  1
  O  O11  1  0.30142400  0.45659600  0.23138100  1
  O  O12  1  0.37373400  0.90795300  0.68299400  1
  O  O13  1  0.09204700  0.62626600  0.81700600  1
  O  O14  1  0.62626600  0.09204700  0.31700600  1
  O  O15  1  0.90795300  0.37373400  0.18299400  1
  O  O16  1  0.01975400  0.69565500  0.48317500  1
  O  O17  1  0.30434500  0.98024600  0.01682500  1
  O  O18  1  0.98024600  0.30434500  0.51682500  1
  O  O19  1  0.69565500  0.01975400  0.98317500  1
  O  O20  1  0.79331500  0.88479800  0.53904200  1
  O  O21  1  0.11520200  0.20668500  0.96095800  1
  O  O22  1  0.20668500  0.11520200  0.46095800  1
  O  O23  1  0.88479800  0.79331500  0.03904200  1
loop_
_geom_bond_atom_site_label_1
_geom_bond_atom_site_label_2
_geom_bond_distance
_geom_bond_site_symmetry_2
O0 P0 1.598359 1_555
O0 V0 1.854254 1_555
O0 Sr2 2.961221 1_555
O1 P0 1.598359 1_555
O1 V1 1.854254 1_556
O1 Sr3 2.961221 1_556
O2 P1 1.598359 1_555
O2 V0 1.854254 1_555
O2 Sr0 2.961221 1_555
O3 P1 1.598359 1_555
O3 V1 1.854254 1_555
O3 Sr1 2.961221 1_554
O4 P2 1.607977 1_555
O4 V0 1.917540 1_555
O4 Sr3 2.698280 1_655
O5 P3 1.607977 1_554
O5 V1 1.917540 1_555
O5 Sr2 2.698280 1_545
O6 P4 1.607977 1_555
O6 V0 1.917540 1_555
O6 Sr1 2.698280 1_455
O7 P5 1.607977 1_556
O7 V1 1.917540 1_556
O7 Sr0 2.698280 1_565
O8 P3 1.602925 1_555
O8 V0 1.944502 1_555
O8 Sr0 2.743697 1_555
O9 P2 1.602925 1_555
O9 V1 1.944502 1_556
O9 Sr1 2.743697 1_555
O10 P5 1.602925 1_555
O10 V0 1.944502 1_555
O10 Sr2 2.743697 1_555
O11 P4 1.602925 1_555
O11 V1 1.944502 1_555
O11 Sr3 2.743697 1_555
O12 P0 1.495188 1_555
O12 Sr0 2.443821 1_565
O13 P0 1.495188 1_555
O13 Sr1 2.443821 1_455
O14 P1 1.495188 1_555
O14 Sr2 2.443821 1_545
O15 P1 1.495188 1_555
O15 Sr3 2.443821 1_655
O16 P2 1.537179 1_455
O16 Sr2 2.640112 1_555
O16 Sr3 2.793804 1_555
O16 Sr1 2.949349 1_455
O17 P3 1.537179 1_564
O17 Sr3 2.640112 1_555
O17 Sr2 2.793804 1_555
O17 Sr0 2.949349 1_564
O18 P4 1.537179 1_655
O18 Sr0 2.640112 1_555
O18 Sr1 2.793804 1_555
O18 Sr3 2.949349 1_655
O19 P5 1.537179 1_546
O19 Sr1 2.640112 1_555
O19 Sr0 2.793804 1_555
O19 Sr2 2.949349 1_546
O20 P2 1.493598 1_555
O20 Sr0 2.434363 1_565
O21 P3 1.493598 1_555
O21 Sr1 2.434363 1_455
O22 P4 1.493598 1_555
O22 Sr2 2.434363 1_545
O23 P5 1.493598 1_555
O23 Sr3 2.434363 1_655
