# generated using pymatgen
data_LiV3P3(HO6)2
_symmetry_space_group_name_H-M   'P 1'
_cell_length_a   8.67155760
_cell_length_b   8.67155760
_cell_length_c   6.68507238
_cell_angle_alpha   72.71610646
_cell_angle_beta   72.71610646
_cell_angle_gamma   91.96248279
_symmetry_Int_Tables_number   1
_chemical_formula_structural   LiV3P3(HO6)2
_chemical_formula_sum   'Li2 V6 P6 H4 O24'
_cell_volume   454.15957450
_cell_formula_units_Z   2
loop_
 _symmetry_equiv_pos_site_id
 _symmetry_equiv_pos_as_xyz
  1  'x, y, z'
loop_
 _atom_site_type_symbol
 _atom_site_label
 _atom_site_symmetry_multiplicity
 _atom_site_fract_x
 _atom_site_fract_y
 _atom_site_fract_z
 _atom_site_occupancy
  Li  Li0  1  0.48889300  0.51110700  0.75000000  1
  Li  Li1  1  0.51110700  0.48889300  0.25000000  1
  V  V0  1  0.86789800  0.54255100  0.88295200  1
  V  V1  1  0.54255100  0.86789800  0.38295200  1
  V  V2  1  0.78707900  0.21292100  0.75000000  1
  V  V3  1  0.21292100  0.78707900  0.25000000  1
  V  V4  1  0.45744900  0.13210200  0.61704800  1
  V  V5  1  0.13210200  0.45744900  0.11704800  1
  P  P0  1  0.60000300  0.82024800  0.89593100  1
  P  P1  1  0.82024800  0.60000300  0.39593100  1
  P  P2  1  0.17628600  0.82371400  0.75000000  1
  P  P3  1  0.82371400  0.17628600  0.25000000  1
  P  P4  1  0.17975200  0.39999700  0.60406900  1
  P  P5  1  0.39999700  0.17975200  0.10406900  1
  H  H0  1  0.87483500  0.87821400  0.81255700  1
  H  H1  1  0.87821400  0.87483500  0.31255700  1
  H  H2  1  0.12178600  0.12516500  0.68744300  1
  H  H3  1  0.12516500  0.12178600  0.18744300  1
  O  O0  1  0.99511800  0.78944600  0.76527200  1
  O  O1  1  0.76326800  0.93463800  0.85276000  1
  O  O2  1  0.78944600  0.99511800  0.26527200  1
  O  O3  1  0.93463800  0.76326800  0.35276000  1
  O  O4  1  0.53707700  0.88972300  0.69997700  1
  O  O5  1  0.63509900  0.64261200  0.92400600  1
  O  O6  1  0.82442400  0.47745900  0.61578500  1
  O  O7  1  0.88972300  0.53707700  0.19997700  1
  O  O8  1  0.64261200  0.63509900  0.42400600  1
  O  O9  1  0.47745900  0.82442400  0.11578500  1
  O  O10  1  0.21233100  0.71730300  0.95914600  1
  O  O11  1  0.28269700  0.78766900  0.54085400  1
  O  O12  1  0.71730300  0.21233100  0.45914600  1
  O  O13  1  0.78766900  0.28269700  0.04085400  1
  O  O14  1  0.52254100  0.17557600  0.88421500  1
  O  O15  1  0.35738800  0.36490100  0.57599400  1
  O  O16  1  0.11027700  0.46292300  0.80002300  1
  O  O17  1  0.17557600  0.52254100  0.38421500  1
  O  O18  1  0.36490100  0.35738800  0.07599400  1
  O  O19  1  0.46292300  0.11027700  0.30002300  1
  O  O20  1  0.06536200  0.23673200  0.64724000  1
  O  O21  1  0.21055400  0.00488200  0.73472800  1
  O  O22  1  0.23673200  0.06536200  0.14724000  1
  O  O23  1  0.00488200  0.21055400  0.23472800  1
loop_
_geom_bond_atom_site_label_1
_geom_bond_atom_site_label_2
_geom_bond_distance
_geom_bond_site_symmetry_2
Li0 O8 2.113185 1_555
Li0 O18 2.113185 1_556
Li0 O5 2.413813 1_555
Li0 O15 2.413813 1_555
Li1 O15 2.113185 1_555
Li1 O5 2.113185 1_554
Li1 O8 2.413813 1_555
Li1 O18 2.413813 1_555
H0 O1 1.097117 1_555
H0 O0 1.335679 1_555
H1 O3 1.097117 1_555
H1 O2 1.335679 1_555
H2 O20 1.097117 1_555
H2 O21 1.335679 1_555
H3 O22 1.097117 1_555
H3 O23 1.335679 1_555
O0 P2 1.556113 1_655
O0 V0 2.177466 1_555
O1 P0 1.600792 1_555
O1 V2 2.287874 1_565
O2 P3 1.556113 1_565
O2 V1 2.177466 1_555
O3 P1 1.600792 1_555
O3 V3 2.287874 1_655
O4 P0 1.534610 1_555
O4 V1 2.169983 1_555
O4 V4 2.199135 1_565
O5 P0 1.547539 1_555
O5 V0 2.199028 1_555
O6 P1 1.548185 1_555
O6 V0 2.152948 1_555
O6 V2 2.173841 1_555
O7 P1 1.534610 1_555
O7 V0 2.169983 1_554
O7 V5 2.199135 1_655
O8 P1 1.547539 1_555
O8 V1 2.199028 1_555
O9 P0 1.548185 1_554
O9 V1 2.152948 1_555
O9 V3 2.173841 1_555
O10 P2 1.554611 1_555
O10 V5 2.172250 1_556
O10 V3 2.202618 1_556
O11 P2 1.554611 1_555
O11 V1 2.172250 1_555
O11 V3 2.202618 1_555
O12 P3 1.554611 1_555
O12 V4 2.172250 1_555
O12 V2 2.202618 1_555
O13 P3 1.554611 1_555
O13 V0 2.172250 1_554
O13 V2 2.202618 1_554
O14 P5 1.548185 1_556
O14 V4 2.152948 1_555
O14 V2 2.173841 1_555
O15 P4 1.547539 1_555
O15 V4 2.199028 1_555
O16 P4 1.534610 1_555
O16 V5 2.169983 1_556
O16 V0 2.199135 1_455
O17 P4 1.548185 1_555
O17 V5 2.152948 1_555
O17 V3 2.173841 1_555
O18 P5 1.547539 1_555
O18 V5 2.199028 1_555
O19 P5 1.534610 1_555
O19 V4 2.169983 1_555
O19 V1 2.199135 1_545
O20 P4 1.600792 1_555
O20 V2 2.287874 1_455
O21 P2 1.556113 1_545
O21 V4 2.177466 1_555
O22 P5 1.600792 1_555
O22 V3 2.287874 1_545
O23 P3 1.556113 1_455
O23 V5 2.177466 1_555
