# generated using pymatgen
data_Li6V3P8O29
_symmetry_space_group_name_H-M   'P 1'
_cell_length_a   9.80944977
_cell_length_b   9.79129576
_cell_length_c   13.94363227
_cell_angle_alpha   89.82256243
_cell_angle_beta   89.63558654
_cell_angle_gamma   60.37604161
_symmetry_Int_Tables_number   1
_chemical_formula_structural   Li6V3P8O29
_chemical_formula_sum   'Li12 V6 P16 O58'
_cell_volume   1164.16836215
_cell_formula_units_Z   2
loop_
 _symmetry_equiv_pos_site_id
 _symmetry_equiv_pos_as_xyz
  1  'x, y, z'
loop_
 _atom_site_type_symbol
 _atom_site_label
 _atom_site_symmetry_multiplicity
 _atom_site_fract_x
 _atom_site_fract_y
 _atom_site_fract_z
 _atom_site_occupancy
  Li  Li0  1  0.91235000  0.77315600  0.06160100  1
  Li  Li1  1  0.76583400  0.90308900  0.55790900  1
  Li  Li2  1  0.89860600  0.33814500  0.55808200  1
  Li  Li3  1  0.77281800  0.32178100  0.06221400  1
  Li  Li4  1  0.31887600  0.90475600  0.05942600  1
  Li  Li5  1  0.33323100  0.76947000  0.55812800  1
  Li  Li6  1  0.69058000  0.08367100  0.94020200  1
  Li  Li7  1  0.34003600  0.32938200  0.61126300  1
  Li  Li8  1  0.33546300  0.33551600  0.11443500  1
  Li  Li9  1  0.09255600  0.67604200  0.43685900  1
  Li  Li10  1  0.08798700  0.22250100  0.94007000  1
  Li  Li11  1  0.98777300  0.03841800  0.49109300  1
  V  V0  1  0.56272900  0.43653400  0.25278800  1
  V  V1  1  0.43388600  0.56688200  0.75217800  1
  V  V2  1  0.56698100  0.99625000  0.74895800  1
  V  V3  1  0.43338700  0.00078900  0.25475500  1
  V  V4  1  0.00020100  0.56619300  0.25132300  1
  V  V5  1  0.99787500  0.43193000  0.75191800  1
  P  P0  1  0.91282600  0.76833400  0.84237000  1
  P  P1  1  0.77205400  0.91364800  0.34327300  1
  P  P2  1  0.91213900  0.31283400  0.34153600  1
  P  P3  1  0.66502300  0.67025500  0.12856800  1
  P  P4  1  0.66787900  0.66459100  0.62655600  1
  P  P5  1  0.76399400  0.32049200  0.84371100  1
  P  P6  1  0.69034900  0.22358100  0.65778400  1
  P  P7  1  0.31677200  0.91238800  0.84441900  1
  P  P8  1  0.68103200  0.09020400  0.15826200  1
  P  P9  1  0.31258700  0.77212900  0.34437200  1
  P  P10  1  0.22921200  0.68181600  0.15886300  1
  P  P11  1  0.33272700  0.33479400  0.37183400  1
  P  P12  1  0.33531200  0.32937600  0.87182900  1
  P  P13  1  0.09097000  0.68297100  0.65771700  1
  P  P14  1  0.22260400  0.08801300  0.65929300  1
  P  P15  1  0.09332200  0.22774000  0.15789500  1
  O  O0  1  0.99791500  0.76832500  0.56988100  1
  O  O1  1  0.91923100  0.74676100  0.33706600  1
  O  O2  1  0.75920100  0.99513600  0.06972300  1
  O  O3  1  0.74760800  0.91599700  0.83714800  1
  O  O4  1  0.90320600  0.61720000  0.81906200  1
  O  O5  1  0.81495500  0.66830300  0.16859700  1
  O  O6  1  0.91664500  0.46845700  0.32657300  1
  O  O7  1  0.99673200  0.24754600  0.06985800  1
  O  O8  1  0.91746800  0.32995500  0.84131300  1
  O  O9  1  0.67382300  0.81136200  0.66737500  1
  O  O10  1  0.62022000  0.90614800  0.33174900  1
  O  O11  1  0.81277700  0.51200300  0.66637900  1
  O  O12  1  0.66058900  0.67133300  0.02191800  1
  O  O13  1  0.66551500  0.66752800  0.51966600  1
  O  O14  1  0.65974500  0.52249900  0.17069000  1
  O  O15  1  0.47591900  0.90657500  0.82272300  1
  O  O16  1  0.51802600  0.82125100  0.17236700  1
  O  O17  1  0.74526000  0.34362300  0.33364500  1
  O  O18  1  0.78198800  0.20341700  0.75764900  1
  O  O19  1  0.79674300  0.21383200  0.57751900  1
  O  O20  1  0.74890000  0.24833300  0.93564100  1
  O  O21  1  0.62303400  0.48259100  0.82336300  1
  O  O22  1  0.51428400  0.66921500  0.66849900  1
  O  O23  1  0.66790200  0.25358900  0.15611900  1
  O  O24  1  0.46953500  0.61839600  0.33291400  1
  O  O25  1  0.33487500  0.91491900  0.33818000  1
  O  O26  1  0.78838700  0.00313800  0.24996600  1
  O  O27  1  0.78265900  0.99131600  0.43322400  1
  O  O28  1  0.21441600  0.99513400  0.57704400  1
  O  O29  1  0.66215000  0.07985400  0.65658800  1
  O  O30  1  0.52812800  0.37423400  0.66503300  1
  O  O31  1  0.33903900  0.74791500  0.83895500  1
  O  O32  1  0.48027700  0.33362300  0.32699300  1
  O  O33  1  0.37254900  0.51467800  0.17220600  1
  O  O34  1  0.23788400  0.76992300  0.07497500  1
  O  O35  1  0.22445600  0.77478800  0.43483400  1
  O  O36  1  0.20332700  0.78205700  0.25567400  1
  O  O37  1  0.25498400  0.66729900  0.65641900  1
  O  O38  1  0.48595800  0.18208300  0.83144000  1
  O  O39  1  0.51444600  0.11303600  0.17395000  1
  O  O40  1  0.33842000  0.47457800  0.82437500  1
  O  O41  1  0.33956400  0.32983500  0.97912000  1
  O  O42  1  0.33432300  0.33565500  0.47894500  1
  O  O43  1  0.18495100  0.48951000  0.33597900  1
  O  O44  1  0.37204000  0.10361000  0.66816500  1
  O  O45  1  0.33116200  0.18778900  0.32875000  1
  O  O46  1  0.08113800  0.66060900  0.15858600  1
  O  O47  1  0.00502900  0.78716200  0.75158600  1
  O  O48  1  0.99281500  0.75613500  0.93414500  1
  O  O49  1  0.10989200  0.51730200  0.67157200  1
  O  O50  1  0.18481900  0.32677200  0.83616100  1
  O  O51  1  0.11911500  0.37001700  0.17502800  1
  O  O52  1  0.25481300  0.07803900  0.15538000  1
  O  O53  1  0.24497200  0.00100700  0.93523700  1
  O  O54  1  0.20228600  0.01331900  0.75792200  1
  O  O55  1  0.07929100  0.25862900  0.66010100  1
  O  O56  1  0.98934500  0.22925600  0.43248000  1
  O  O57  1  0.00623600  0.20634900  0.25007200  1
loop_
_geom_bond_atom_site_label_1
_geom_bond_atom_site_label_2
_geom_bond_distance
_geom_bond_site_symmetry_2
Li0 O48 1.913943 1_554
Li0 O2 1.940376 1_555
Li0 O46 2.000001 1_655
Li0 O5 2.265975 1_555
Li1 O27 1.980930 1_555
Li1 O0 1.996378 1_555
Li1 O29 2.044474 1_565
Li1 O9 2.174031 1_555
Li2 O19 1.936577 1_555
Li2 O56 2.012400 1_555
Li2 O55 2.105272 1_655
Li2 O11 2.114184 1_555
Li3 O7 1.946365 1_555
Li3 O20 1.966466 1_554
Li3 O23 1.968818 1_555
Li3 O14 2.285276 1_555
Li4 O34 1.858516 1_555
Li4 O53 1.934618 1_564
Li4 O52 2.003241 1_565
Li4 O16 2.327439 1_555
Li5 O28 1.940064 1_555
Li5 O35 2.016094 1_555
Li5 O37 2.050737 1_555
Li5 O22 2.188191 1_555
Li6 O20 1.959959 1_555
Li6 O2 1.973596 1_546
Li6 O3 2.041941 1_545
Li6 O38 2.318386 1_555
Li7 O42 1.846111 1_555
Li7 O44 2.218342 1_555
Li7 O30 2.231590 1_555
Li7 O49 2.251268 1_555
Li8 O41 1.887361 1_554
Li8 O33 2.121778 1_555
Li8 O51 2.145255 1_555
Li8 O39 2.177796 1_555
Li9 O35 1.961067 1_555
Li9 O1 2.041243 1_455
Li9 O0 2.068289 1_455
Li9 O43 2.121082 1_555
Li10 O53 1.943503 1_555
Li10 O7 1.975259 1_456
Li10 O8 2.020291 1_455
Li10 O50 2.230664 1_555
Li11 O56 2.044146 1_555
Li11 O19 2.171619 1_555
Li11 O28 2.378656 1_645
Li11 O27 2.419191 1_545
Li11 O35 2.594879 1_645
O0 P13 1.511754 1_655
O1 P1 1.558515 1_555
O1 V4 1.949050 1_655
O2 P8 1.505990 1_565
O3 P0 1.551337 1_555
O3 V2 1.978470 1_555
O4 P0 1.563890 1_555
O4 V5 1.834034 1_555
O5 P3 1.567670 1_555
O5 V4 1.963581 1_655
O6 P2 1.559423 1_555
O6 V4 1.856555 1_655
O7 P15 1.507951 1_655
O8 P5 1.553532 1_555
O8 V5 1.982714 1_555
O9 P4 1.575077 1_555
O9 V2 1.947189 1_555
O10 P1 1.536488 1_555
O10 V3 1.926149 1_565
O11 P4 1.570438 1_555
O11 V5 1.987082 1_555
O12 P3 1.487853 1_555
O13 P4 1.490730 1_555
O14 P3 1.583998 1_555
O14 V0 1.922675 1_555
O15 P7 1.561469 1_555
O15 V2 1.839809 1_555
O16 P3 1.588974 1_555
O16 V3 1.912268 1_565
O17 P2 1.515566 1_555
O17 V0 1.927097 1_555
O18 P5 1.609668 1_555
O18 P6 1.620129 1_555
O19 P6 1.496076 1_555
O20 P5 1.503201 1_555
O21 P5 1.531049 1_555
O21 V1 1.900915 1_555
O22 P4 1.592386 1_555
O22 V1 1.936389 1_555
O23 P8 1.540370 1_555
O23 V0 2.064022 1_555
O24 P9 1.539121 1_555
O24 V0 1.909124 1_555
O25 P9 1.520243 1_555
O25 V3 1.943388 1_565
O26 P8 1.610477 1_555
O26 P1 1.617162 1_545
O27 P1 1.499347 1_555
O28 P14 1.492842 1_565
O29 P6 1.562773 1_555
O29 V2 1.983473 1_545
O30 P6 1.548108 1_555
O30 V1 2.040870 1_555
O31 P7 1.516481 1_555
O31 V1 1.959644 1_555
O32 P11 1.567837 1_555
O32 V0 1.878475 1_555
O33 P10 1.554469 1_555
O33 V0 1.984548 1_555
O34 P10 1.478072 1_555
O35 P9 1.517629 1_555
O36 P9 1.612726 1_555
O36 P10 1.614771 1_555
O37 P13 1.538820 1_555
O37 V1 2.035971 1_555
O38 P12 1.571096 1_555
O38 V2 1.958778 1_545
O39 P8 1.550086 1_555
O39 V3 1.988597 1_555
O40 P12 1.580125 1_555
O40 V1 1.877844 1_555
O41 P12 1.496955 1_555
O42 P11 1.493792 1_555
O43 P11 1.574708 1_555
O43 V4 1.979401 1_555
O44 P14 1.552798 1_555
O44 V2 2.015856 1_545
O45 P11 1.568514 1_555
O45 V3 1.898932 1_555
O46 P10 1.565633 1_555
O46 V4 1.965248 1_555
O47 P0 1.613463 1_455
O47 P13 1.615114 1_555
O48 P0 1.478744 1_555
O49 P13 1.550447 1_555
O49 V5 2.011926 1_455
O50 P12 1.572880 1_555
O50 V5 1.988994 1_455
O51 P15 1.553395 1_555
O51 V4 1.990915 1_555
O52 P15 1.537295 1_555
O52 V3 2.067642 1_555
O53 P7 1.497947 1_545
O54 P14 1.612541 1_555
O54 P7 1.614044 1_545
O55 P14 1.563768 1_555
O55 V5 1.953685 1_455
O56 P2 1.498127 1_555
O57 P15 1.608365 1_555
O57 P2 1.614745 1_455
