# generated using pymatgen
data_Hf2N2O
_symmetry_space_group_name_H-M   'P 1'
_cell_length_a   8.66176056
_cell_length_b   8.67386627
_cell_length_c   8.67083469
_cell_angle_alpha   109.52708918
_cell_angle_beta   109.31256612
_cell_angle_gamma   109.40315574
_symmetry_Int_Tables_number   1
_chemical_formula_structural   Hf2N2O
_chemical_formula_sum   'Hf16 N16 O8'
_cell_volume   502.53824085
_cell_formula_units_Z   8
loop_
 _symmetry_equiv_pos_site_id
 _symmetry_equiv_pos_as_xyz
  1  'x, y, z'
loop_
 _atom_site_type_symbol
 _atom_site_label
 _atom_site_symmetry_multiplicity
 _atom_site_fract_x
 _atom_site_fract_y
 _atom_site_fract_z
 _atom_site_occupancy
  Hf  Hf0  1  0.98717895  0.49777057  0.98968944  1
  Hf  Hf1  1  0.53483222  0.74960851  0.29141564  1
  Hf  Hf2  1  0.25005292  0.21736357  0.96329182  1
  Hf  Hf3  1  0.24748646  0.72023887  0.47165858  1
  Hf  Hf4  1  0.95645109  0.25176954  0.21442741  1
  Hf  Hf5  1  0.71910158  0.46314580  0.25618599  1
  Hf  Hf6  1  0.21667522  0.96820291  0.25874650  1
  Hf  Hf7  1  0.50999971  0.50230333  0.49981061  1
  Hf  Hf8  1  0.00589195  0.00796625  0.51920136  1
  Hf  Hf9  1  0.28357360  0.53370823  0.74946756  1
  Hf  Hf10  1  0.50661443  0.99793511  0.99663934  1
  Hf  Hf11  1  0.77549586  0.02686308  0.74105440  1
  Hf  Hf12  1  0.03369190  0.74496974  0.78191666  1
  Hf  Hf13  1  0.75156105  0.78000699  0.02452483  1
  Hf  Hf14  1  0.75134648  0.28309771  0.53641387  1
  Hf  Hf15  1  0.46477260  0.25089042  0.70537527  1
  N  N0  1  0.96170746  0.73421628  0.99558476  1
  N  N1  1  0.96939568  0.51287722  0.24005816  1
  N  N2  1  0.52581787  0.77041587  0.54131287  1
  N  N3  1  0.26628759  0.77262406  0.73051271  1
  N  N4  1  0.45534291  0.46587597  0.22339477  1
  N  N5  1  0.03509738  0.48633545  0.76395512  1
  N  N6  1  0.23326386  0.96182794  0.50340867  1
  N  N7  1  0.46278042  0.22735915  0.45062632  1
  N  N8  1  0.77533184  0.54954657  0.53332793  1
  N  N9  1  0.99110767  0.95818015  0.73307259  1
  N  N10  1  0.54451885  0.53816536  0.77357257  1
  N  N11  1  0.73112818  0.98842271  0.95869780  1
  N  N12  1  0.73490197  0.22584873  0.26779031  1
  N  N13  1  0.22888345  0.27225464  0.74244753  1
  N  N14  1  0.72631101  0.26213031  0.77936753  1
  N  N15  1  0.76028987  0.02982649  0.48324205  1
  O  O0  1  0.27785914  0.74262215  0.22155677  1
  O  O1  1  0.48610844  0.76387583  0.03790800  1
  O  O2  1  0.04933996  0.27585670  0.01509005  1
  O  O3  1  0.76973073  0.72750376  0.25292546  1
  O  O4  1  0.01640780  0.05248660  0.27745190  1
  O  O5  1  0.27886646  0.01372355  0.04790896  1
  O  O6  1  0.22045201  0.44432821  0.46529483  1
  O  O7  1  0.50434143  0.22785865  0.96167504  1
loop_
_geom_bond_atom_site_label_1
_geom_bond_atom_site_label_2
_geom_bond_distance
_geom_bond_site_symmetry_2
Hf0 N14 2.079192 1_555
Hf0 N5 2.109047 1_655
Hf0 N0 2.120258 1_555
Hf0 N1 2.190470 1_556
Hf0 O2 2.221943 1_656
Hf0 O0 2.266356 1_656
Hf1 O0 2.078217 1_555
Hf1 N15 2.117324 1_565
Hf1 N4 2.124597 1_555
Hf1 N2 2.143270 1_555
Hf1 O1 2.151305 1_555
Hf1 O3 2.225635 1_555
Hf2 N13 2.088640 1_555
Hf2 O2 2.105189 1_556
Hf2 N4 2.108444 1_556
Hf2 O7 2.178973 1_555
Hf2 N9 2.181224 1_445
Hf2 O5 2.181452 1_556
Hf3 N6 2.071336 1_555
Hf3 N3 2.073155 1_555
Hf3 N2 2.128465 1_555
Hf3 N1 2.139435 1_455
Hf3 O6 2.305681 1_555
Hf3 O0 2.331219 1_555
Hf4 N12 2.077838 1_555
Hf4 O6 2.119862 1_655
Hf4 O4 2.143932 1_655
Hf4 N1 2.160939 1_555
Hf4 O2 2.174396 1_655
Hf4 N11 2.175558 1_544
Hf5 N8 2.086364 1_555
Hf5 N1 2.127274 1_555
Hf5 N12 2.140535 1_555
Hf5 O3 2.198727 1_555
Hf5 N4 2.216225 1_555
Hf5 O7 2.235641 1_554
Hf6 N7 2.082154 1_565
Hf6 N6 2.099101 1_555
Hf6 O4 2.125856 1_565
Hf6 O0 2.143261 1_555
Hf6 O5 2.186498 1_565
Hf6 N0 2.189964 1_454
Hf7 N8 2.094554 1_555
Hf7 N7 2.143177 1_555
Hf7 N4 2.170768 1_555
Hf7 N2 2.180087 1_555
Hf7 N10 2.189968 1_555
Hf7 O6 2.279785 1_555
Hf8 N9 2.073047 1_445
Hf8 N13 2.086002 1_555
Hf8 N15 2.127809 1_455
Hf8 N6 2.173254 1_545
Hf8 O4 2.279341 1_555
Hf8 O3 2.290857 1_445
Hf9 N5 2.107725 1_555
Hf9 O6 2.126404 1_555
Hf9 N13 2.132122 1_555
Hf9 O1 2.179759 1_556
Hf9 N3 2.182093 1_555
Hf9 N10 2.185853 1_555
Hf10 N11 2.099636 1_555
Hf10 O7 2.120370 1_565
Hf10 N12 2.136899 1_566
Hf10 O1 2.137615 1_556
Hf10 N3 2.140649 1_555
Hf10 O5 2.196993 1_566
Hf11 N2 2.091744 1_545
Hf11 N11 2.152998 1_545
Hf11 N9 2.155162 1_545
Hf11 N14 2.162008 1_555
Hf11 N15 2.204801 1_555
Hf11 O2 2.318260 1_656
Hf12 N8 2.091381 1_455
Hf12 N9 2.146871 1_455
Hf12 N3 2.158589 1_555
Hf12 N0 2.161215 1_455
Hf12 N5 2.200659 1_555
Hf12 O5 2.267220 1_566
Hf13 N10 2.054077 1_554
Hf13 N0 2.061514 1_554
Hf13 N11 2.112034 1_554
Hf13 O3 2.144441 1_555
Hf13 O4 2.294115 1_665
Hf13 O1 2.300727 1_555
Hf14 N15 2.122328 1_555
Hf14 N5 2.151668 1_655
Hf14 N12 2.156934 1_555
Hf14 N7 2.182063 1_555
Hf14 N14 2.247218 1_555
Hf14 N8 2.260807 1_555
Hf15 N14 2.098374 1_555
Hf15 N7 2.142939 1_555
Hf15 N10 2.153369 1_555
Hf15 N6 2.185346 1_545
Hf15 O7 2.221401 1_555
Hf15 N13 2.226786 1_555
