# generated using pymatgen
data_H12RuSN4(ClO)2
_symmetry_space_group_name_H-M   'P 1'
_cell_length_a   7.42255700
_cell_length_b   9.40371500
_cell_length_c   14.17945600
_cell_angle_alpha   90.00000000
_cell_angle_beta   90.00000000
_cell_angle_gamma   90.00000000
_symmetry_Int_Tables_number   1
_chemical_formula_structural   H12RuSN4(ClO)2
_chemical_formula_sum   'H48 Ru4 S4 N16 Cl8 O8'
_cell_volume   989.72050731
_cell_formula_units_Z   4
loop_
 _symmetry_equiv_pos_site_id
 _symmetry_equiv_pos_as_xyz
  1  'x, y, z'
loop_
 _atom_site_type_symbol
 _atom_site_label
 _atom_site_symmetry_multiplicity
 _atom_site_fract_x
 _atom_site_fract_y
 _atom_site_fract_z
 _atom_site_occupancy
  H  H0  1  0.05783000  0.66352700  0.02321000  1
  H  H1  1  0.44217000  0.66352700  0.02321000  1
  H  H2  1  0.99929100  0.20630500  0.04923200  1
  H  H3  1  0.50070900  0.20630500  0.04923200  1
  H  H4  1  0.09948300  0.36424200  0.05815400  1
  H  H5  1  0.40051700  0.36424200  0.05815400  1
  H  H6  1  0.03459400  0.93669400  0.13518800  1
  H  H7  1  0.46540600  0.93669400  0.13518800  1
  H  H8  1  0.46155300  0.79070900  0.19941300  1
  H  H9  1  0.03844700  0.79070900  0.19941300  1
  H  H10  1  0.59909700  0.92375900  0.22907500  1
  H  H11  1  0.90090300  0.92375900  0.22907500  1
  H  H12  1  0.09909700  0.42375900  0.27092500  1
  H  H13  1  0.40090300  0.42375900  0.27092500  1
  H  H14  1  0.53844700  0.29070900  0.30058700  1
  H  H15  1  0.96155300  0.29070900  0.30058700  1
  H  H16  1  0.96540600  0.43669400  0.36481200  1
  H  H17  1  0.53459400  0.43669400  0.36481200  1
  H  H18  1  0.90051700  0.86424200  0.44184600  1
  H  H19  1  0.59948300  0.86424200  0.44184600  1
  H  H20  1  0.00070900  0.70630500  0.45076800  1
  H  H21  1  0.49929100  0.70630500  0.45076800  1
  H  H22  1  0.55783000  0.16352700  0.47679000  1
  H  H23  1  0.94217000  0.16352700  0.47679000  1
  H  H24  1  0.05783000  0.83647300  0.52321000  1
  H  H25  1  0.44217000  0.83647300  0.52321000  1
  H  H26  1  0.99929100  0.29369500  0.54923200  1
  H  H27  1  0.50070900  0.29369500  0.54923200  1
  H  H28  1  0.09948300  0.13575800  0.55815400  1
  H  H29  1  0.40051700  0.13575800  0.55815400  1
  H  H30  1  0.03459400  0.56330600  0.63518800  1
  H  H31  1  0.46540600  0.56330600  0.63518800  1
  H  H32  1  0.03844700  0.70929100  0.69941300  1
  H  H33  1  0.46155300  0.70929100  0.69941300  1
  H  H34  1  0.59909700  0.57624100  0.72907500  1
  H  H35  1  0.90090300  0.57624100  0.72907500  1
  H  H36  1  0.09909700  0.07624100  0.77092500  1
  H  H37  1  0.40090300  0.07624100  0.77092500  1
  H  H38  1  0.53844700  0.20929100  0.80058700  1
  H  H39  1  0.96155300  0.20929100  0.80058700  1
  H  H40  1  0.53459400  0.06330600  0.86481200  1
  H  H41  1  0.96540600  0.06330600  0.86481200  1
  H  H42  1  0.59948300  0.63575800  0.94184600  1
  H  H43  1  0.90051700  0.63575800  0.94184600  1
  H  H44  1  0.49929100  0.79369500  0.95076800  1
  H  H45  1  0.00070900  0.79369500  0.95076800  1
  H  H46  1  0.55783000  0.33647300  0.97679000  1
  H  H47  1  0.94217000  0.33647300  0.97679000  1
  Ru  Ru0  1  0.75000000  0.78011300  0.08527700  1
  Ru  Ru1  1  0.25000000  0.28011300  0.41472300  1
  Ru  Ru2  1  0.75000000  0.71988700  0.58527700  1
  Ru  Ru3  1  0.25000000  0.21988700  0.91472300  1
  S  S0  1  0.75000000  0.59230300  0.16651200  1
  S  S1  1  0.25000000  0.09230300  0.33348800  1
  S  S2  1  0.75000000  0.90769700  0.66651200  1
  S  S3  1  0.25000000  0.40769700  0.83348800  1
  N  N0  1  0.04938300  0.29053400  0.01143900  1
  N  N1  1  0.45061700  0.29053400  0.01143900  1
  N  N2  1  0.54518500  0.86814500  0.17323400  1
  N  N3  1  0.95481500  0.86814500  0.17323400  1
  N  N4  1  0.04518500  0.36814500  0.32676600  1
  N  N5  1  0.45481500  0.36814500  0.32676600  1
  N  N6  1  0.95061700  0.79053400  0.48856100  1
  N  N7  1  0.54938300  0.79053400  0.48856100  1
  N  N8  1  0.04938300  0.20946600  0.51143900  1
  N  N9  1  0.45061700  0.20946600  0.51143900  1
  N  N10  1  0.54518500  0.63185500  0.67323400  1
  N  N11  1  0.95481500  0.63185500  0.67323400  1
  N  N12  1  0.04518500  0.13185500  0.82676600  1
  N  N13  1  0.45481500  0.13185500  0.82676600  1
  N  N14  1  0.54938300  0.70946600  0.98856100  1
  N  N15  1  0.95061700  0.70946600  0.98856100  1
  Cl  Cl0  1  0.75000000  0.00758500  0.00392600  1
  Cl  Cl1  1  0.25000000  0.56587100  0.15087700  1
  Cl  Cl2  1  0.75000000  0.06587100  0.34912300  1
  Cl  Cl3  1  0.25000000  0.50758500  0.49607400  1
  Cl  Cl4  1  0.75000000  0.49241500  0.50392600  1
  Cl  Cl5  1  0.25000000  0.93412900  0.65087700  1
  Cl  Cl6  1  0.75000000  0.43412900  0.84912300  1
  Cl  Cl7  1  0.25000000  0.99241500  0.99607400  1
  O  O0  1  0.75000000  0.44579700  0.13021800  1
  O  O1  1  0.25000000  0.10160400  0.23007100  1
  O  O2  1  0.75000000  0.60160400  0.26992900  1
  O  O3  1  0.25000000  0.94579700  0.36978200  1
  O  O4  1  0.75000000  0.05420300  0.63021800  1
  O  O5  1  0.25000000  0.39839600  0.73007100  1
  O  O6  1  0.75000000  0.89839600  0.76992900  1
  O  O7  1  0.25000000  0.55420300  0.86978200  1
loop_
_geom_bond_atom_site_label_1
_geom_bond_atom_site_label_2
_geom_bond_distance
_geom_bond_site_symmetry_2
H0 N15 1.030189 1_454
H1 N14 1.030189 1_554
H2 N0 1.026052 1_655
H3 N1 1.026052 1_555
H4 N0 1.028339 1_555
H5 N1 1.028339 1_555
H6 N3 1.028210 1_455
H7 N2 1.028210 1_555
H8 N2 1.026350 1_555
H9 N3 1.026350 1_455
H10 N2 1.029843 1_555
H11 N3 1.029843 1_555
H12 N4 1.029843 1_555
H13 N5 1.029843 1_555
H14 N5 1.026350 1_555
H15 N4 1.026350 1_655
H16 N4 1.028210 1_655
H17 N5 1.028210 1_555
H18 N6 1.028339 1_555
H19 N7 1.028339 1_555
H20 N6 1.026052 1_455
H21 N7 1.026052 1_555
H22 N9 1.030189 1_555
H23 N8 1.030189 1_655
H24 N6 1.030189 1_455
H25 N7 1.030189 1_555
H26 N8 1.026052 1_655
H27 N9 1.026052 1_555
H28 N8 1.028339 1_555
H29 N9 1.028339 1_555
H30 N11 1.028210 1_455
H31 N10 1.028210 1_555
H32 N11 1.026350 1_455
H33 N10 1.026350 1_555
H34 N10 1.029843 1_555
H35 N11 1.029843 1_555
H36 N12 1.029843 1_555
H37 N13 1.029843 1_555
H38 N13 1.026350 1_555
H39 N12 1.026350 1_655
H40 N13 1.028210 1_555
H41 N12 1.028210 1_655
H42 N14 1.028339 1_555
H43 N15 1.028339 1_555
H44 N14 1.026052 1_555
H45 N15 1.026052 1_455
H46 N1 1.030189 1_556
H47 N0 1.030189 1_656
Ru0 S0 2.108542 1_555
Ru1 S1 2.108542 1_555
Ru2 S2 2.108542 1_555
Ru3 S3 2.108542 1_555
N0 Ru3 2.130594 1_554
N1 Ru3 2.130594 1_554
N2 Ru0 2.133524 1_555
N3 Ru0 2.133524 1_555
N4 Ru1 2.133524 1_555
N5 Ru1 2.133524 1_555
N6 Ru2 2.130594 1_555
N7 Ru2 2.130594 1_555
N8 Ru1 2.130594 1_555
N9 Ru1 2.130594 1_555
N10 Ru2 2.133524 1_555
N11 Ru2 2.133524 1_555
N12 Ru3 2.133524 1_555
N13 Ru3 2.133524 1_555
N14 Ru0 2.130594 1_556
N15 Ru0 2.130594 1_556
Cl0 Ru0 2.430280 1_545
Cl3 Ru1 2.430280 1_555
Cl4 Ru2 2.430280 1_555
Cl7 Ru3 2.430280 1_565
O0 S0 1.470681 1_555
O1 S1 1.469003 1_555
O2 S0 1.469003 1_555
O3 S1 1.470681 1_565
O4 S2 1.470681 1_545
O5 S3 1.469003 1_555
O6 S2 1.469003 1_555
O7 S3 1.470681 1_555
