# generated using pymatgen
data_Li2SbS2
_symmetry_space_group_name_H-M   'P 1'
_cell_length_a   7.61808700
_cell_length_b   8.68949900
_cell_length_c   12.57277100
_cell_angle_alpha   90.00000000
_cell_angle_beta   90.00000000
_cell_angle_gamma   90.00000000
_symmetry_Int_Tables_number   1
_chemical_formula_structural   Li2SbS2
_chemical_formula_sum   'Li16 Sb8 S16'
_cell_volume   832.28424014
_cell_formula_units_Z   8
loop_
 _symmetry_equiv_pos_site_id
 _symmetry_equiv_pos_as_xyz
  1  'x, y, z'
loop_
 _atom_site_type_symbol
 _atom_site_label
 _atom_site_symmetry_multiplicity
 _atom_site_fract_x
 _atom_site_fract_y
 _atom_site_fract_z
 _atom_site_occupancy
  Li  Li0  1  0.84062200  0.80600400  0.73400900  1
  Li  Li1  1  0.56496500  0.37913500  0.60680900  1
  Li  Li2  1  0.88906400  0.09897700  0.61157800  1
  Li  Li3  1  0.31421900  0.03276800  0.64115600  1
  Li  Li4  1  0.81421900  0.46723200  0.35884400  1
  Li  Li5  1  0.38906400  0.40102300  0.38842200  1
  Li  Li6  1  0.06496500  0.12086500  0.39319100  1
  Li  Li7  1  0.34062200  0.69399600  0.26599100  1
  Li  Li8  1  0.65937800  0.19399600  0.23400900  1
  Li  Li9  1  0.93503500  0.62086500  0.10680900  1
  Li  Li10  1  0.61093600  0.90102300  0.11157800  1
  Li  Li11  1  0.18578100  0.96723200  0.14115600  1
  Li  Li12  1  0.68578100  0.53276800  0.85884400  1
  Li  Li13  1  0.11093600  0.59897700  0.88842200  1
  Li  Li14  1  0.43503500  0.87913500  0.89319100  1
  Li  Li15  1  0.15937800  0.30600400  0.76599100  1
  Sb  Sb0  1  0.32253500  0.69166200  0.63132900  1
  Sb  Sb1  1  0.04163900  0.50670500  0.54834400  1
  Sb  Sb2  1  0.54163900  0.99329500  0.45165600  1
  Sb  Sb3  1  0.82253500  0.80833800  0.36867100  1
  Sb  Sb4  1  0.17746500  0.30833800  0.13132900  1
  Sb  Sb5  1  0.45836100  0.49329500  0.04834400  1
  Sb  Sb6  1  0.95836100  0.00670500  0.95165600  1
  Sb  Sb7  1  0.67746500  0.19166200  0.86867100  1
  S  S0  1  0.60764300  0.00986900  0.72042800  1
  S  S1  1  0.90372800  0.47553100  0.72309300  1
  S  S2  1  0.22423600  0.26777800  0.54500300  1
  S  S3  1  0.52389600  0.61131800  0.49081200  1
  S  S4  1  0.02389600  0.88868200  0.50918800  1
  S  S5  1  0.72423600  0.23222200  0.45499700  1
  S  S6  1  0.40372800  0.02446900  0.27690700  1
  S  S7  1  0.10764300  0.49013100  0.27957200  1
  S  S8  1  0.89235700  0.99013100  0.22042800  1
  S  S9  1  0.59627200  0.52446900  0.22309300  1
  S  S10  1  0.27576400  0.73222200  0.04500300  1
  S  S11  1  0.97610400  0.38868200  0.99081200  1
  S  S12  1  0.47610400  0.11131800  0.00918800  1
  S  S13  1  0.77576400  0.76777800  0.95499700  1
  S  S14  1  0.09627200  0.97553100  0.77690700  1
  S  S15  1  0.39235700  0.50986900  0.77957200  1
loop_
_geom_bond_atom_site_label_1
_geom_bond_atom_site_label_2
_geom_bond_distance
_geom_bond_site_symmetry_2
Li0 S14 2.500787 1_655
Li0 S0 2.513448 1_565
Li0 S13 2.841504 1_555
Li0 S1 2.914841 1_555
Li1 S3 2.509054 1_555
Li1 S5 2.597119 1_555
Li1 S15 2.781665 1_555
Li1 S2 2.877123 1_555
Li1 S1 3.082086 1_555
Li2 S4 2.459981 1_645
Li2 S5 2.606320 1_555
Li2 S0 2.658708 1_555
Li2 S14 2.821908 1_645
Li3 S14 2.432518 1_545
Li3 S0 2.455533 1_555
Li3 S2 2.470146 1_555
Li3 Sb2 2.965758 1_545
Li3 Sb0 2.967291 1_545
Li4 S9 2.432518 1_555
Li4 S7 2.455533 1_655
Li4 S5 2.470146 1_555
Li4 Sb1 2.965758 1_655
Li4 Sb3 2.967291 1_555
Li5 S3 2.459981 1_555
Li5 S2 2.606320 1_555
Li5 S7 2.658708 1_555
Li5 S9 2.821908 1_555
Li6 S4 2.509054 1_545
Li6 S2 2.597119 1_555
Li6 S8 2.781665 1_445
Li6 S5 2.877123 1_455
Li6 S6 3.082086 1_555
Li7 S9 2.500787 1_555
Li7 S7 2.513448 1_555
Li7 S10 2.841504 1_555
Li7 S6 2.914841 1_565
Li8 S6 2.500787 1_555
Li8 S8 2.513448 1_545
Li8 S5 2.841504 1_555
Li8 S9 2.914841 1_555
Li9 S11 2.509054 1_554
Li9 S13 2.597119 1_554
Li9 S7 2.781665 1_655
Li9 S10 2.877123 1_655
Li9 S9 3.082086 1_555
Li10 S12 2.459981 1_565
Li10 S13 2.606320 1_554
Li10 S8 2.658708 1_555
Li10 S6 2.821908 1_565
Li11 S6 2.432518 1_565
Li11 S8 2.455533 1_455
Li11 S10 2.470146 1_555
Li11 Sb6 2.965758 1_464
Li11 Sb4 2.967291 1_565
Li12 S1 2.432518 1_555
Li12 S15 2.455533 1_555
Li12 S13 2.470146 1_555
Li12 Sb5 2.965758 1_556
Li12 Sb7 2.967291 1_555
Li13 S11 2.459981 1_455
Li13 S10 2.606320 1_556
Li13 S15 2.658708 1_555
Li13 S1 2.821908 1_455
Li14 S12 2.509054 1_566
Li14 S10 2.597119 1_556
Li14 S0 2.781665 1_565
Li14 S13 2.877123 1_555
Li14 S14 3.082086 1_555
Li15 S1 2.500787 1_455
Li15 S15 2.513448 1_555
Li15 S2 2.841504 1_555
Li15 S14 2.914841 1_545
S0 Sb7 2.500439 1_555
S1 Sb1 2.450374 1_655
S2 Sb1 2.499436 1_555
S3 Sb0 2.441661 1_555
S4 Sb3 2.441661 1_455
S5 Sb2 2.499436 1_545
S6 Sb2 2.450374 1_545
S7 Sb4 2.500439 1_555
S8 Sb3 2.500439 1_555
S9 Sb5 2.450374 1_555
S10 Sb5 2.499436 1_555
S11 Sb4 2.441661 1_656
S12 Sb7 2.441661 1_554
S13 Sb6 2.499436 1_565
S14 Sb6 2.450374 1_465
S15 Sb0 2.500439 1_555
