# generated using pymatgen
data_Rb3As
_symmetry_space_group_name_H-M   'P 1'
_cell_length_a   6.08094816
_cell_length_b   6.08094811
_cell_length_c   10.73272376
_cell_angle_alpha   90.00000000
_cell_angle_beta   90.00000000
_cell_angle_gamma   120.00000026
_symmetry_Int_Tables_number   1
_chemical_formula_structural   Rb3As
_chemical_formula_sum   'Rb6 As2'
_cell_volume   343.70288759
_cell_formula_units_Z   2
loop_
 _symmetry_equiv_pos_site_id
 _symmetry_equiv_pos_as_xyz
  1  'x, y, z'
loop_
 _atom_site_type_symbol
 _atom_site_label
 _atom_site_symmetry_multiplicity
 _atom_site_fract_x
 _atom_site_fract_y
 _atom_site_fract_z
 _atom_site_occupancy
  Rb  Rb0  1  0.33333300  0.66666700  0.58040093  1
  Rb  Rb1  1  0.66666700  0.33333300  0.08040093  1
  Rb  Rb2  1  0.66666700  0.33333300  0.41959907  1
  Rb  Rb3  1  0.33333300  0.66666700  0.91959907  1
  Rb  Rb4  1  0.00000000  -0.00000000  0.75000000  1
  Rb  Rb5  1  -0.00000000  0.00000000  0.25000000  1
  As  As0  1  0.66666700  0.33333300  0.75000000  1
  As  As1  1  0.33333300  0.66666700  0.25000000  1
loop_
_geom_bond_atom_site_label_1
_geom_bond_atom_site_label_2
_geom_bond_distance
_geom_bond_site_symmetry_2
As0 Rb4 3.510834 1_655
As0 Rb4 3.510839 1_665
As0 Rb4 3.510839 1_555
As0 Rb1 3.546102 1_556
As0 Rb2 3.546102 1_555
As0 Rb0 3.954655 1_545
As0 Rb3 3.954655 1_545
As0 Rb0 3.954655 1_655
As0 Rb3 3.954655 1_655
As0 Rb0 3.954665 1_555
As0 Rb3 3.954665 1_555
As1 Rb5 3.510834 1_565
As1 Rb5 3.510839 1_555
As1 Rb5 3.510839 1_665
As1 Rb3 3.546102 1_554
As1 Rb0 3.546102 1_555
As1 Rb1 3.954655 1_565
As1 Rb2 3.954655 1_565
As1 Rb2 3.954655 1_455
As1 Rb1 3.954655 1_455
As1 Rb1 3.954665 1_555
As1 Rb2 3.954665 1_555
