# generated using pymatgen
data_Li5Mn5(NiO6)2
_symmetry_space_group_name_H-M   'P 1'
_cell_length_a   5.16780235
_cell_length_b   5.16780235
_cell_length_c   9.84884144
_cell_angle_alpha   84.97348697
_cell_angle_beta   84.97348697
_cell_angle_gamma   119.64324313
_symmetry_Int_Tables_number   1
_chemical_formula_structural   Li5Mn5(NiO6)2
_chemical_formula_sum   'Li5 Mn5 Ni2 O12'
_cell_volume   225.10167724
_cell_formula_units_Z   1
loop_
 _symmetry_equiv_pos_site_id
 _symmetry_equiv_pos_as_xyz
  1  'x, y, z'
loop_
 _atom_site_type_symbol
 _atom_site_label
 _atom_site_symmetry_multiplicity
 _atom_site_fract_x
 _atom_site_fract_y
 _atom_site_fract_z
 _atom_site_occupancy
  Li  Li0  1  0.82485800  0.65666500  0.25650300  1
  Li  Li1  1  0.67791000  0.84365700  0.74070900  1
  Li  Li2  1  0.34333500  0.17514200  0.74349700  1
  Li  Li3  1  0.15634300  0.32209000  0.25929100  1
  Li  Li4  1  0.07816900  0.92183100  0.50000000  1
  Mn  Mn0  1  0.92638600  0.07361400  0.00000000  1
  Mn  Mn1  1  0.00928000  0.51932400  0.74319600  1
  Mn  Mn2  1  0.48067600  0.99072000  0.25680400  1
  Mn  Mn3  1  0.58335900  0.41664100  0.00000000  1
  Mn  Mn4  1  0.41884000  0.58116000  0.50000000  1
  Ni  Ni0  1  0.74537700  0.25462300  0.50000000  1
  Ni  Ni1  1  0.25394300  0.74605700  0.00000000  1
  O  O0  1  0.06082100  0.25499900  0.61878900  1
  O  O1  1  0.74500100  0.93917900  0.38121100  1
  O  O2  1  0.83586000  0.35011200  0.12713500  1
  O  O3  1  0.64988800  0.16414000  0.87286500  1
  O  O4  1  0.69401000  0.54623700  0.61374700  1
  O  O5  1  0.45376300  0.30599000  0.38625300  1
  O  O6  1  0.54370700  0.69568400  0.11277900  1
  O  O7  1  0.30431600  0.45629300  0.88722100  1
  O  O8  1  0.37207100  0.85053800  0.62173700  1
  O  O9  1  0.14946200  0.62792900  0.37826300  1
  O  O10  1  0.20793700  0.01531200  0.13279400  1
  O  O11  1  0.98468800  0.79206300  0.86720600  1
loop_
_geom_bond_atom_site_label_1
_geom_bond_atom_site_label_2
_geom_bond_distance
_geom_bond_site_symmetry_2
Li0 O5 2.078896 1_555
Li0 O10 2.095435 1_665
Li0 O2 2.136924 1_555
Li0 O1 2.152160 1_555
Li0 O6 2.180720 1_555
Li0 O9 2.200411 1_655
Li1 O8 2.060358 1_555
Li1 O4 2.092353 1_555
Li1 O11 2.200604 1_555
Li1 O0 2.202645 1_665
Li1 O7 2.235950 1_555
Li1 O3 2.245001 1_565
Li2 O4 2.078896 1_555
Li2 O11 2.095435 1_445
Li2 O3 2.136924 1_555
Li2 O0 2.152160 1_555
Li2 O7 2.180720 1_555
Li2 O8 2.200411 1_545
Li3 O9 2.060358 1_555
Li3 O5 2.092353 1_555
Li3 O10 2.200604 1_555
Li3 O1 2.202645 1_445
Li3 O6 2.235950 1_555
Li3 O2 2.245001 1_455
Li4 O4 2.093137 1_455
Li4 O5 2.093137 1_565
Li4 O8 2.162252 1_555
Li4 O9 2.162252 1_555
Li4 O0 2.197380 1_565
Li4 O1 2.197380 1_455
Mn0 O6 2.091273 1_545
Mn0 O7 2.091273 1_654
Mn0 O10 2.148575 1_655
Mn0 O11 2.148575 1_544
Mn0 O3 2.168069 1_554
Mn0 O2 2.168069 1_555
Mn1 O11 1.986475 1_455
Mn1 O8 1.987341 1_555
Mn1 O0 2.008511 1_555
Mn1 O3 2.061773 1_455
Mn1 O4 2.203703 1_455
Mn1 O7 2.287389 1_555
Mn2 O10 1.986475 1_565
Mn2 O9 1.987341 1_555
Mn2 O1 2.008511 1_555
Mn2 O2 2.061773 1_565
Mn2 O5 2.203703 1_565
Mn2 O6 2.287389 1_555
Mn3 O6 1.971880 1_555
Mn3 O7 1.971880 1_554
Mn3 O2 2.010819 1_555
Mn3 O3 2.010819 1_554
Mn3 O10 2.208102 1_555
Mn3 O11 2.208102 1_554
Mn4 O4 1.951240 1_555
Mn4 O5 1.951240 1_555
Mn4 O0 1.955304 1_555
Mn4 O1 1.955304 1_555
Mn4 O8 2.002095 1_555
Mn4 O9 2.002095 1_555
Ni0 O4 2.058152 1_555
Ni0 O5 2.058152 1_555
Ni0 O0 2.087489 1_655
Ni0 O1 2.087489 1_545
Ni0 O8 2.165838 1_545
Ni0 O9 2.165838 1_655
Ni1 O6 2.042117 1_555
Ni1 O7 2.042117 1_554
Ni1 O10 2.072401 1_565
Ni1 O11 2.072401 1_454
Ni1 O2 2.264188 1_455
Ni1 O3 2.264188 1_564
