# generated using pymatgen
data_Na2TiO3
_symmetry_space_group_name_H-M   'P 1'
_cell_length_a   5.30734520
_cell_length_b   5.30734520
_cell_length_c   10.84256332
_cell_angle_alpha   85.19901865
_cell_angle_beta   85.19901865
_cell_angle_gamma   120.02615100
_symmetry_Int_Tables_number   1
_chemical_formula_structural   Na2TiO3
_chemical_formula_sum   'Na8 Ti4 O12'
_cell_volume   260.69135244
_cell_formula_units_Z   4
loop_
 _symmetry_equiv_pos_site_id
 _symmetry_equiv_pos_as_xyz
  1  'x, y, z'
loop_
 _atom_site_type_symbol
 _atom_site_label
 _atom_site_symmetry_multiplicity
 _atom_site_fract_x
 _atom_site_fract_y
 _atom_site_fract_z
 _atom_site_occupancy
  Na  Na0  1  0.84328553  0.68522146  0.49954071  1
  Na  Na1  1  -0.00000000  0.50000000  0.00000000  1
  Na  Na2  1  0.91587800  0.08412200  0.25000000  1
  Na  Na3  1  0.31477854  0.15671447  0.00045929  1
  Na  Na4  1  0.50000000  0.00000000  0.50000000  1
  Na  Na5  1  0.68522146  0.84328553  0.99954071  1
  Na  Na6  1  0.08412200  0.91587800  0.75000000  1
  Na  Na7  1  0.15671447  0.31477854  0.50045929  1
  Ti  Ti0  1  0.74905223  0.25094777  0.75000000  1
  Ti  Ti1  1  0.58297490  0.41702510  0.25000000  1
  Ti  Ti2  1  0.41702510  0.58297490  0.75000000  1
  Ti  Ti3  1  0.25094777  0.74905223  0.25000000  1
  O  O0  1  0.95000618  0.74409084  0.14691399  1
  O  O1  1  0.67335879  0.50418174  0.85234751  1
  O  O2  1  0.88110086  0.42624044  0.35187210  1
  O  O3  1  0.49581826  0.32664121  0.64765249  1
  O  O4  1  0.74409084  0.95000618  0.64691399  1
  O  O5  1  0.42624044  0.88110086  0.85187210  1
  O  O6  1  0.57375956  0.11889914  0.14812790  1
  O  O7  1  0.25590916  0.04999382  0.35308601  1
  O  O8  1  0.50418174  0.67335879  0.35234751  1
  O  O9  1  0.11889914  0.57375956  0.64812790  1
  O  O10  1  0.32664121  0.49581826  0.14765249  1
  O  O11  1  0.04999382  0.25590916  0.85308601  1
loop_
_geom_bond_atom_site_label_1
_geom_bond_atom_site_label_2
_geom_bond_distance
_geom_bond_site_symmetry_2
Na0 O3 2.254313 1_555
Na0 O2 2.254716 1_555
Na0 O7 2.392839 1_665
Na0 O4 2.404335 1_555
Na0 O8 2.484815 1_555
Na0 O9 2.487199 1_655
Na1 O11 2.214666 1_554
Na1 O0 2.214666 1_455
Na1 O6 2.461088 1_455
Na1 O5 2.461088 1_554
Na1 O1 2.462917 1_454
Na1 O10 2.462917 1_555
Na2 O0 2.273719 1_545
Na2 O7 2.273719 1_655
Na2 O8 2.276038 1_545
Na2 O10 2.276038 1_655
Na2 O2 2.277721 1_555
Na2 O6 2.277721 1_555
Na3 O1 2.254313 1_554
Na3 O6 2.254716 1_555
Na3 O0 2.392839 1_445
Na3 O11 2.404335 1_554
Na3 O10 2.484815 1_555
Na3 O5 2.487199 1_544
Na4 O7 2.214666 1_555
Na4 O4 2.214666 1_545
Na4 O9 2.461088 1_545
Na4 O2 2.461088 1_555
Na4 O3 2.462917 1_555
Na4 O8 2.462917 1_545
Na5 O10 2.254313 1_556
Na5 O5 2.254716 1_555
Na5 O11 2.392839 1_665
Na5 O0 2.404335 1_556
Na5 O1 2.484815 1_555
Na5 O6 2.487199 1_566
Na6 O4 2.273719 1_455
Na6 O11 2.273719 1_565
Na6 O3 2.276038 1_565
Na6 O1 2.276038 1_455
Na6 O5 2.277721 1_555
Na6 O9 2.277721 1_555
Na7 O8 2.254313 1_555
Na7 O9 2.254716 1_555
Na7 O4 2.392839 1_445
Na7 O7 2.404335 1_555
Na7 O3 2.484815 1_555
Na7 O2 2.487199 1_455
O0 Ti1 1.995936 1_555
O0 Ti3 2.015614 1_655
O1 Ti0 1.978525 1_555
O1 Ti2 2.000389 1_555
O2 Ti1 1.987489 1_555
O2 Ti3 1.990728 1_655
O3 Ti0 1.978525 1_555
O3 Ti2 2.000389 1_555
O4 Ti2 1.995936 1_555
O4 Ti0 2.015614 1_565
O5 Ti2 1.987489 1_555
O5 Ti0 1.990728 1_565
O6 Ti1 1.987489 1_555
O6 Ti3 1.990728 1_545
O7 Ti1 1.995936 1_555
O7 Ti3 2.015614 1_545
O8 Ti3 1.978525 1_555
O8 Ti1 2.000389 1_555
O9 Ti2 1.987489 1_555
O9 Ti0 1.990728 1_455
O10 Ti3 1.978525 1_555
O10 Ti1 2.000389 1_555
O11 Ti2 1.995936 1_555
O11 Ti0 2.015614 1_455
