# generated using pymatgen
data_V4OF11
_symmetry_space_group_name_H-M   'P 1'
_cell_length_a   5.05943337
_cell_length_b   5.32482191
_cell_length_c   16.78787734
_cell_angle_alpha   88.27449700
_cell_angle_beta   98.38516647
_cell_angle_gamma   118.26241406
_symmetry_Int_Tables_number   1
_chemical_formula_structural   V4OF11
_chemical_formula_sum   'V8 O2 F22'
_cell_volume   393.70652129
_cell_formula_units_Z   2
loop_
 _symmetry_equiv_pos_site_id
 _symmetry_equiv_pos_as_xyz
  1  'x, y, z'
loop_
 _atom_site_type_symbol
 _atom_site_label
 _atom_site_symmetry_multiplicity
 _atom_site_fract_x
 _atom_site_fract_y
 _atom_site_fract_z
 _atom_site_occupancy
  V  V0  1  0.74637130  0.39103382  0.12247987  1
  V  V1  1  0.75363200  0.86786580  0.62429699  1
  V  V2  1  0.49895985  0.75901732  0.25027874  1
  V  V3  1  0.49904314  0.24300322  0.75025811  1
  V  V4  1  0.24686207  0.13787195  0.38093306  1
  V  V5  1  0.24426628  0.61766371  0.87599878  1
  V  V6  1  0.97529321  0.97670028  0.00404248  1
  V  V7  1  0.01281989  0.48539357  0.49814750  1
  O  O0  1  0.78820855  0.69991055  0.06053645  1
  O  O1  1  0.17312777  0.29207260  0.46032916  1
  F  F0  1  0.32084986  0.17216249  0.09102666  1
  F  F1  1  0.75198295  0.17530264  0.56182885  1
  F  F2  1  0.73283987  0.06156548  0.18580022  1
  F  F3  1  0.32018383  0.98183270  0.28762171  1
  F  F4  1  0.31184547  0.64194071  0.59205544  1
  F  F5  1  0.31172359  0.45537649  0.78418478  1
  F  F6  1  0.81498301  0.22313850  0.03307345  1
  F  F7  1  0.17826180  0.59064153  0.16010937  1
  F  F8  1  0.19477258  0.09451643  0.65672162  1
  F  F9  1  0.25615528  0.44315567  0.31056483  1
  F  F10  1  0.75399408  0.56464375  0.68772614  1
  F  F11  1  0.81707122  0.91059790  0.34037875  1
  F  F12  1  0.82699972  0.70748459  0.53407181  1
  F  F13  1  0.80268929  0.39390095  0.84347660  1
  F  F14  1  0.19827010  0.79827880  0.96674008  1
  F  F15  1  0.68389938  0.35672280  0.40804223  1
  F  F16  1  0.68433575  0.53515396  0.21582116  1
  F  F17  1  0.68422899  0.02839547  0.71573163  1
  F  F18  1  0.24333945  0.92080188  0.81149160  1
  F  F19  1  0.23162626  0.30777474  0.94042708  1
  F  F20  1  0.25344290  0.82344174  0.43916513  1
  F  F21  1  0.68792155  0.84264295  0.90664372  1
loop_
_geom_bond_atom_site_label_1
_geom_bond_atom_site_label_2
_geom_bond_distance
_geom_bond_site_symmetry_2
O0 V6 1.680526 1_555
O0 V0 1.860854 1_555
O1 V4 1.758117 1_555
O1 V7 1.760909 1_555
F0 V0 1.897736 1_555
F0 V6 1.973825 1_445
F1 V1 1.920097 1_545
F1 V7 1.962769 1_655
F2 V2 1.905391 1_545
F2 V0 2.001909 1_555
F3 V4 1.954909 1_565
F3 V2 1.960940 1_555
F4 V7 1.912676 1_555
F4 V1 1.968791 1_555
F5 V3 1.926808 1_555
F5 V5 1.937004 1_555
F6 V0 1.923348 1_555
F6 V6 1.943990 1_545
F7 V2 1.927611 1_555
F7 V0 1.934400 1_455
F8 V3 1.917770 1_555
F8 V1 1.966878 1_445
F9 V2 1.914581 1_555
F9 V4 1.966836 1_555
F10 V1 1.907754 1_555
F10 V3 1.973238 1_555
F11 V2 1.913906 1_555
F11 V4 1.944794 1_665
F12 V1 1.924444 1_555
F12 V7 1.976702 1_655
F13 V3 1.913200 1_555
F13 V5 1.967634 1_655
F14 V5 1.924394 1_555
F14 V6 1.955598 1_456
F15 V4 1.937157 1_555
F15 V7 1.943055 1_655
F16 V0 1.893911 1_555
F16 V2 1.973260 1_555
F17 V1 1.931487 1_545
F17 V3 1.931819 1_555
F18 V5 1.917993 1_555
F18 V3 1.963064 1_565
F19 V5 1.926026 1_555
F19 V6 2.013887 1_446
F20 V4 1.924774 1_565
F20 V7 1.967658 1_555
F21 V6 1.921236 1_556
F21 V5 1.972814 1_555
