# generated using pymatgen
data_Li2AlFeO4
_symmetry_space_group_name_H-M   'P 1'
_cell_length_a   5.03221000
_cell_length_b   5.55062800
_cell_length_c   6.27552200
_cell_angle_alpha   90.00000000
_cell_angle_beta   90.00000000
_cell_angle_gamma   90.00000000
_symmetry_Int_Tables_number   1
_chemical_formula_structural   Li2AlFeO4
_chemical_formula_sum   'Li4 Al2 Fe2 O8'
_cell_volume   175.28741441
_cell_formula_units_Z   2
loop_
 _symmetry_equiv_pos_site_id
 _symmetry_equiv_pos_as_xyz
  1  'x, y, z'
loop_
 _atom_site_type_symbol
 _atom_site_label
 _atom_site_symmetry_multiplicity
 _atom_site_fract_x
 _atom_site_fract_y
 _atom_site_fract_z
 _atom_site_occupancy
  Li  Li0  1  0.99298300  0.33383600  0.25021700  1
  Li  Li1  1  0.49298300  0.66616400  0.24978300  1
  Li  Li2  1  0.99298300  0.33383600  0.74978300  1
  Li  Li3  1  0.49298300  0.66616400  0.75021700  1
  Al  Al0  1  0.49897000  0.16718300  0.00000000  1
  Al  Al1  1  0.99897000  0.83281700  0.50000000  1
  Fe  Fe0  1  0.99617800  0.83470600  0.00000000  1
  Fe  Fe1  1  0.49617800  0.16529400  0.50000000  1
  O  O0  1  0.85437900  0.15335200  0.00000000  1
  O  O1  1  0.37526200  0.86424600  0.00000000  1
  O  O2  1  0.89462700  0.68175000  0.26202800  1
  O  O3  1  0.39462700  0.31825000  0.23797200  1
  O  O4  1  0.87526200  0.13575400  0.50000000  1
  O  O5  1  0.35437900  0.84664800  0.50000000  1
  O  O6  1  0.39462700  0.31825000  0.76202800  1
  O  O7  1  0.89462700  0.68175000  0.73797200  1
loop_
_geom_bond_atom_site_label_1
_geom_bond_atom_site_label_2
_geom_bond_distance
_geom_bond_site_symmetry_2
Li0 O0 1.988906 1_555
Li0 O2 1.994937 1_555
Li0 O4 2.004222 1_555
Li0 O3 2.024467 1_655
Li1 O5 1.988906 1_555
Li1 O3 1.994937 1_555
Li1 O1 2.004222 1_555
Li1 O2 2.024467 1_555
Li2 O0 1.988906 1_556
Li2 O7 1.994937 1_555
Li2 O4 2.004222 1_555
Li2 O6 2.024467 1_655
Li3 O5 1.988906 1_555
Li3 O6 1.994937 1_555
Li3 O1 2.004222 1_556
Li3 O7 2.024467 1_555
Al0 O0 1.790140 1_555
Al0 O3 1.791383 1_555
Al0 O6 1.791383 1_554
Al0 O1 1.793027 1_545
Al1 O5 1.790140 1_655
Al1 O7 1.791383 1_555
Al1 O2 1.791383 1_555
Al1 O4 1.793027 1_565
Fe0 O0 1.907202 1_565
Fe0 O1 1.914664 1_655
Fe0 O7 1.919864 1_554
Fe0 O2 1.919864 1_555
Fe1 O5 1.907202 1_545
Fe1 O4 1.914664 1_555
Fe1 O3 1.919864 1_555
Fe1 O6 1.919864 1_555
