# generated using pymatgen
data_Li4Ti2Mn4(FeO6)3
_symmetry_space_group_name_H-M   'P 1'
_cell_length_a   2.93696800
_cell_length_b   9.11207300
_cell_length_c   25.07677400
_cell_angle_alpha   90.00000000
_cell_angle_beta   90.00000000
_cell_angle_gamma   90.00000000
_symmetry_Int_Tables_number   1
_chemical_formula_structural   Li4Ti2Mn4(FeO6)3
_chemical_formula_sum   'Li8 Ti4 Mn8 Fe6 O36'
_cell_volume   671.10128593
_cell_formula_units_Z   2
loop_
 _symmetry_equiv_pos_site_id
 _symmetry_equiv_pos_as_xyz
  1  'x, y, z'
loop_
 _atom_site_type_symbol
 _atom_site_label
 _atom_site_symmetry_multiplicity
 _atom_site_fract_x
 _atom_site_fract_y
 _atom_site_fract_z
 _atom_site_occupancy
  Li  Li0  1  0.00000000  0.17786300  0.99644400  1
  Li  Li1  1  0.00000000  0.18717700  0.20218400  1
  Li  Li2  1  0.00000000  0.31282300  0.70218400  1
  Li  Li3  1  0.00000000  0.32213700  0.49644400  1
  Li  Li4  1  0.00000000  0.67786300  0.50355600  1
  Li  Li5  1  0.00000000  0.68717700  0.29781600  1
  Li  Li6  1  0.00000000  0.81282300  0.79781600  1
  Li  Li7  1  0.00000000  0.82213700  0.00355600  1
  Ti  Ti0  1  0.00000000  0.99629800  0.10575500  1
  Ti  Ti1  1  0.00000000  0.50370200  0.60575500  1
  Ti  Ti2  1  0.00000000  0.49629800  0.39424500  1
  Ti  Ti3  1  0.00000000  0.00370200  0.89424500  1
  Mn  Mn0  1  0.00000000  0.00809700  0.31120700  1
  Mn  Mn1  1  0.50000000  0.14684200  0.58629800  1
  Mn  Mn2  1  0.50000000  0.35315800  0.08629800  1
  Mn  Mn3  1  0.00000000  0.49190300  0.81120700  1
  Mn  Mn4  1  0.00000000  0.50809700  0.18879300  1
  Mn  Mn5  1  0.50000000  0.64684200  0.91370200  1
  Mn  Mn6  1  0.50000000  0.85315800  0.41370200  1
  Mn  Mn7  1  0.00000000  0.99190300  0.68879300  1
  Fe  Fe0  1  0.00000000  0.00000000  0.50000000  1
  Fe  Fe1  1  0.50000000  0.15356500  0.80432600  1
  Fe  Fe2  1  0.50000000  0.34643500  0.30432600  1
  Fe  Fe3  1  0.00000000  0.50000000  0.00000000  1
  Fe  Fe4  1  0.50000000  0.65356500  0.69567400  1
  Fe  Fe5  1  0.50000000  0.84643500  0.19567400  1
  O  O0  1  0.00000000  0.99303900  0.41934700  1
  O  O1  1  0.00000000  0.00696100  0.58065300  1
  O  O2  1  0.50000000  0.04212400  0.94230500  1
  O  O3  1  0.50000000  0.05269500  0.16051500  1
  O  O4  1  0.50000000  0.11627500  0.66169600  1
  O  O5  1  0.00000000  0.12494800  0.75292900  1
  O  O6  1  0.50000000  0.15461700  0.50779400  1
  O  O7  1  0.50000000  0.12906300  0.28555900  1
  O  O8  1  0.00000000  0.18594700  0.85803200  1
  O  O9  1  0.00000000  0.21511000  0.08624600  1
  O  O10  1  0.00000000  0.28489000  0.58624600  1
  O  O11  1  0.00000000  0.31405300  0.35803200  1
  O  O12  1  0.50000000  0.37093700  0.78555900  1
  O  O13  1  0.50000000  0.34538300  0.00779400  1
  O  O14  1  0.00000000  0.37505200  0.25292900  1
  O  O15  1  0.50000000  0.38372500  0.16169600  1
  O  O16  1  0.50000000  0.44730500  0.66051500  1
  O  O17  1  0.50000000  0.45787600  0.44230500  1
  O  O18  1  0.00000000  0.49303900  0.08065300  1
  O  O19  1  0.00000000  0.50696100  0.91934700  1
  O  O20  1  0.50000000  0.54212400  0.55769500  1
  O  O21  1  0.50000000  0.55269500  0.33948500  1
  O  O22  1  0.50000000  0.61627500  0.83830400  1
  O  O23  1  0.00000000  0.62494800  0.74707100  1
  O  O24  1  0.50000000  0.65461700  0.99220600  1
  O  O25  1  0.50000000  0.62906300  0.21444100  1
  O  O26  1  0.00000000  0.68594700  0.64196800  1
  O  O27  1  0.00000000  0.71511000  0.41375400  1
  O  O28  1  0.00000000  0.78489000  0.91375400  1
  O  O29  1  0.00000000  0.81405300  0.14196800  1
  O  O30  1  0.50000000  0.87093700  0.71444100  1
  O  O31  1  0.50000000  0.84538300  0.49220600  1
  O  O32  1  0.00000000  0.87505200  0.24707100  1
  O  O33  1  0.50000000  0.88372500  0.33830400  1
  O  O34  1  0.50000000  0.94730500  0.83948500  1
  O  O35  1  0.50000000  0.95787600  0.05769500  1
loop_
_geom_bond_atom_site_label_1
_geom_bond_atom_site_label_2
_geom_bond_distance
_geom_bond_site_symmetry_2
Li0 O13 2.137175 1_556
Li0 O13 2.137175 1_456
Li0 O9 2.277377 1_556
Li0 O2 2.351476 1_555
Li0 O2 2.351476 1_455
Li1 O14 2.133077 1_555
Li1 O3 2.179436 1_555
Li1 O3 2.179436 1_455
Li1 O15 2.528801 1_555
Li1 O15 2.528801 1_455
Li1 O7 2.609253 1_555
Li1 O7 2.609253 1_455
Li2 O5 2.133077 1_555
Li2 O16 2.179436 1_455
Li2 O16 2.179436 1_555
Li2 O4 2.528801 1_555
Li2 O4 2.528801 1_455
Li2 O12 2.609253 1_455
Li2 O12 2.609253 1_555
Li3 O6 2.137175 1_455
Li3 O6 2.137175 1_555
Li3 O10 2.277377 1_555
Li3 O17 2.351476 1_455
Li3 O17 2.351476 1_555
Li4 O31 2.137175 1_455
Li4 O31 2.137175 1_555
Li4 O27 2.277377 1_555
Li4 O20 2.351476 1_455
Li4 O20 2.351476 1_555
Li5 O32 2.133077 1_555
Li5 O21 2.179436 1_455
Li5 O21 2.179436 1_555
Li5 O33 2.528801 1_455
Li5 O33 2.528801 1_555
Li5 O25 2.609253 1_455
Li5 O25 2.609253 1_555
Li6 O23 2.133077 1_555
Li6 O34 2.179436 1_455
Li6 O34 2.179436 1_555
Li6 O22 2.528801 1_455
Li6 O22 2.528801 1_555
Li6 O30 2.609253 1_455
Li6 O30 2.609253 1_555
Li7 O24 2.137175 1_554
Li7 O24 2.137175 1_454
Li7 O28 2.277377 1_554
Li7 O35 2.351476 1_455
Li7 O35 2.351476 1_555
Mn0 O7 1.945525 1_455
Mn0 O7 1.945525 1_555
Mn0 O33 1.975478 1_445
Mn0 O33 1.975478 1_545
Mn0 O32 2.014054 1_545
Mn1 O4 1.911144 1_555
Mn1 O10 1.933589 1_555
Mn1 O10 1.933589 1_655
Mn1 O1 1.949642 1_555
Mn1 O1 1.949642 1_655
Mn1 O6 1.969901 1_555
Mn2 O15 1.911144 1_555
Mn2 O9 1.933589 1_555
Mn2 O9 1.933589 1_655
Mn2 O18 1.949642 1_655
Mn2 O18 1.949642 1_555
Mn2 O13 1.969901 1_555
Mn3 O12 1.945525 1_455
Mn3 O12 1.945525 1_555
Mn3 O22 1.975478 1_455
Mn3 O22 1.975478 1_555
Mn3 O23 2.014054 1_555
Mn4 O25 1.945525 1_455
Mn4 O25 1.945525 1_555
Mn4 O15 1.975478 1_455
Mn4 O15 1.975478 1_555
Mn4 O14 2.014054 1_555
Mn5 O22 1.911144 1_555
Mn5 O28 1.933589 1_555
Mn5 O28 1.933589 1_655
Mn5 O19 1.949642 1_555
Mn5 O19 1.949642 1_655
Mn5 O24 1.969901 1_555
Mn6 O33 1.911144 1_555
Mn6 O27 1.933589 1_655
Mn6 O27 1.933589 1_555
Mn6 O0 1.949642 1_555
Mn6 O0 1.949642 1_655
Mn6 O31 1.969901 1_555
Mn7 O30 1.945525 1_455
Mn7 O30 1.945525 1_555
Mn7 O4 1.975478 1_565
Mn7 O4 1.975478 1_465
Mn7 O5 2.014054 1_565
Fe0 O0 2.023511 1_545
Fe0 O1 2.023511 1_555
Fe0 O31 2.044405 1_445
Fe0 O31 2.044405 1_545
Fe0 O6 2.044405 1_455
Fe0 O6 2.044405 1_555
Fe1 O5 1.971200 1_555
Fe1 O5 1.971200 1_655
Fe1 O8 2.014276 1_555
Fe1 O8 2.014276 1_655
Fe1 O12 2.035851 1_555
Fe1 O34 2.075983 1_545
Fe2 O14 1.971200 1_555
Fe2 O14 1.971200 1_655
Fe2 O11 2.014276 1_555
Fe2 O11 2.014276 1_655
Fe2 O7 2.035851 1_555
Fe2 O21 2.075983 1_555
Fe3 O19 2.023511 1_554
Fe3 O18 2.023511 1_555
Fe3 O13 2.044405 1_455
Fe3 O13 2.044405 1_555
Fe3 O24 2.044405 1_554
Fe3 O24 2.044405 1_454
Fe4 O23 1.971200 1_555
Fe4 O23 1.971200 1_655
Fe4 O26 2.014276 1_555
Fe4 O26 2.014276 1_655
Fe4 O30 2.035851 1_555
Fe4 O16 2.075983 1_555
Fe5 O32 1.971200 1_655
Fe5 O32 1.971200 1_555
Fe5 O29 2.014276 1_655
Fe5 O29 2.014276 1_555
Fe5 O25 2.035851 1_555
Fe5 O3 2.075983 1_565
O2 Ti3 1.931709 1_655
O2 Ti3 1.931709 1_555
O3 Ti0 2.075144 1_645
O3 Ti0 2.075144 1_545
O8 Ti3 1.892709 1_555
O9 Ti0 2.052974 1_545
O10 Ti1 2.052974 1_555
O11 Ti2 1.892709 1_555
O16 Ti1 2.075144 1_655
O16 Ti1 2.075144 1_555
O17 Ti2 1.931709 1_555
O17 Ti2 1.931709 1_655
O20 Ti1 1.931709 1_655
O20 Ti1 1.931709 1_555
O21 Ti2 2.075144 1_555
O21 Ti2 2.075144 1_655
O26 Ti1 1.892709 1_555
O27 Ti2 2.052974 1_555
O28 Ti3 2.052974 1_565
O29 Ti0 1.892709 1_555
O34 Ti3 2.075144 1_565
O34 Ti3 2.075144 1_665
O35 Ti0 1.931709 1_555
O35 Ti0 1.931709 1_655
