# generated using pymatgen
data_V6O7F5
_symmetry_space_group_name_H-M   'P 1'
_cell_length_a   9.31877400
_cell_length_b   4.69214600
_cell_length_c   4.69884462
_cell_angle_alpha   87.30069450
_cell_angle_beta   90.00000000
_cell_angle_gamma   90.00000000
_symmetry_Int_Tables_number   1
_chemical_formula_structural   V6O7F5
_chemical_formula_sum   'V6 O7 F5'
_cell_volume   205.22924147
_cell_formula_units_Z   1
loop_
 _symmetry_equiv_pos_site_id
 _symmetry_equiv_pos_as_xyz
  1  'x, y, z'
loop_
 _atom_site_type_symbol
 _atom_site_label
 _atom_site_symmetry_multiplicity
 _atom_site_fract_x
 _atom_site_fract_y
 _atom_site_fract_z
 _atom_site_occupancy
  V  V0  1  0.32664000  0.99173500  0.98350300  1
  V  V1  1  0.67336000  0.99173500  0.98350300  1
  V  V2  1  0.00000000  0.95693500  0.00736600  1
  V  V3  1  0.50000000  0.50012100  0.48886000  1
  V  V4  1  0.17529200  0.52530300  0.51409100  1
  V  V5  1  0.82470800  0.52530300  0.51409100  1
  O  O0  1  0.83144600  0.80417400  0.80716700  1
  O  O1  1  0.16855400  0.80417400  0.80716700  1
  O  O2  1  0.34428100  0.70225400  0.30021300  1
  O  O3  1  0.65571900  0.70225400  0.30021300  1
  O  O4  1  0.00000000  0.68665400  0.31816900  1
  O  O5  1  0.34247300  0.30730700  0.68852000  1
  O  O6  1  0.65752700  0.30730700  0.68852000  1
  F  F0  1  0.50000000  0.79962200  0.79274700  1
  F  F1  1  0.00000000  0.30022800  0.71676500  1
  F  F2  1  0.50000000  0.19817600  0.18449700  1
  F  F3  1  0.16462600  0.19835800  0.20230400  1
  F  F4  1  0.83537400  0.19835800  0.20230400  1
loop_
_geom_bond_atom_site_label_1
_geom_bond_atom_site_label_2
_geom_bond_distance
_geom_bond_site_symmetry_2
O0 V1 1.923527 1_555
O0 V5 1.944815 1_555
O0 V2 1.982260 1_656
O1 V0 1.923527 1_555
O1 V4 1.944815 1_555
O1 V2 1.982260 1_556
O2 V3 1.926607 1_555
O2 V0 1.973888 1_554
O2 V4 2.025008 1_555
O3 V3 1.926607 1_555
O3 V1 1.973888 1_554
O3 V5 2.025008 1_555
O4 V2 1.888569 1_555
O4 V5 2.005838 1_455
O4 V4 2.005838 1_555
O5 V3 1.942582 1_555
O5 V0 1.985491 1_545
O5 V4 2.016479 1_555
O6 V3 1.942582 1_555
O6 V1 1.985491 1_545
O6 V5 2.016479 1_555
F0 V3 2.050080 1_555
F0 V0 2.074108 1_555
F0 V1 2.074108 1_555
F1 V2 2.062039 1_546
F1 V4 2.143798 1_555
F1 V5 2.143798 1_455
F2 V3 2.059957 1_555
F2 V0 2.127503 1_544
F2 V1 2.127503 1_544
F3 V0 2.090514 1_544
F3 V2 2.138569 1_545
F3 V4 2.172852 1_555
F4 V1 2.090514 1_544
F4 V2 2.138569 1_645
F4 V5 2.172852 1_555
