# generated using pymatgen
data_Li4(CuO2)3
_symmetry_space_group_name_H-M   'P 1'
_cell_length_a   5.34698425
_cell_length_b   5.34698425
_cell_length_c   8.37610315
_cell_angle_alpha   74.84524814
_cell_angle_beta   74.84524814
_cell_angle_gamma   38.51943911
_symmetry_Int_Tables_number   1
_chemical_formula_structural   Li4(CuO2)3
_chemical_formula_sum   'Li4 Cu3 O6'
_cell_volume   143.30747642
_cell_formula_units_Z   1
loop_
 _symmetry_equiv_pos_site_id
 _symmetry_equiv_pos_as_xyz
  1  'x, y, z'
loop_
 _atom_site_type_symbol
 _atom_site_label
 _atom_site_symmetry_multiplicity
 _atom_site_fract_x
 _atom_site_fract_y
 _atom_site_fract_z
 _atom_site_occupancy
  Li  Li0  1  0.77896000  0.77896000  0.25542200  1
  Li  Li1  1  0.22360900  0.22360900  0.07863900  1
  Li  Li2  1  0.77972500  0.77972500  0.55946500  1
  Li  Li3  1  0.21862700  0.21862700  0.77399000  1
  Cu  Cu0  1  0.49903600  0.49903600  0.66578600  1
  Cu  Cu1  1  0.49708600  0.49708600  0.33724400  1
  Cu  Cu2  1  0.50438900  0.50438900  0.99630100  1
  O  O0  1  0.36924100  0.36924100  0.21160400  1
  O  O1  1  0.62510100  0.62510100  0.45860300  1
  O  O2  1  0.37203800  0.37203800  0.87188500  1
  O  O3  1  0.63264500  0.63264500  0.13306400  1
  O  O4  1  0.36651200  0.36651200  0.54807900  1
  O  O5  1  0.63492500  0.63492500  0.77658300  1
loop_
_geom_bond_atom_site_label_1
_geom_bond_atom_site_label_2
_geom_bond_distance
_geom_bond_site_symmetry_2
Li0 O1 1.960848 1_555
Li0 O0 1.972511 1_565
Li0 O0 1.972511 1_655
Li0 O3 2.017603 1_555
Li1 O2 1.951213 1_554
Li1 O3 1.982406 1_455
Li1 O3 1.982406 1_545
Li1 O0 2.075774 1_555
Li2 O4 1.959879 1_565
Li2 O4 1.959879 1_655
Li2 O1 1.969992 1_555
Li2 O5 1.992948 1_555
Li3 O2 1.942773 1_555
Li3 O5 1.953205 1_455
Li3 O5 1.953205 1_545
Li3 O4 2.060317 1_555
Cu0 O2 1.843389 1_555
Cu0 O1 1.846092 1_555
Cu0 O5 1.856991 1_555
Cu0 O4 1.868841 1_555
Cu1 O1 1.852330 1_555
Cu1 O3 1.871224 1_555
Cu1 O0 1.877644 1_555
Cu1 O4 1.888654 1_555
Cu2 O2 1.908532 1_555
Cu2 O0 1.936756 1_556
Cu2 O5 1.944325 1_555
Cu2 O3 1.951994 1_556
