# generated using pymatgen
data_Mn2O3F
_symmetry_space_group_name_H-M   'P 1'
_cell_length_a   4.58672045
_cell_length_b   9.67614874
_cell_length_c   6.04681500
_cell_angle_alpha   71.79247096
_cell_angle_beta   90.00000000
_cell_angle_gamma   87.86285778
_symmetry_Int_Tables_number   1
_chemical_formula_structural   Mn2O3F
_chemical_formula_sum   'Mn8 O12 F4'
_cell_volume   254.73501317
_cell_formula_units_Z   4
loop_
 _symmetry_equiv_pos_site_id
 _symmetry_equiv_pos_as_xyz
  1  'x, y, z'
loop_
 _atom_site_type_symbol
 _atom_site_label
 _atom_site_symmetry_multiplicity
 _atom_site_fract_x
 _atom_site_fract_y
 _atom_site_fract_z
 _atom_site_occupancy
  Mn  Mn0  1  0.47529700  0.23748700  0.63125600  1
  Mn  Mn1  1  0.52470300  0.26251300  0.11874400  1
  Mn  Mn2  1  0.50000000  0.75000000  0.37500000  1
  Mn  Mn3  1  0.50000000  0.75000000  0.87500000  1
  Mn  Mn4  1  0.00126500  0.00119800  0.49517500  1
  Mn  Mn5  1  0.99873500  0.49880200  0.74637300  1
  Mn  Mn6  1  0.00126500  0.00119800  0.00362700  1
  Mn  Mn7  1  0.99873500  0.49880200  0.25482500  1
  O  O0  1  0.81050600  0.40747700  0.04626100  1
  O  O1  1  0.81128700  0.90616900  0.29691500  1
  O  O2  1  0.69276300  0.15497100  0.92303700  1
  O  O3  1  0.69276300  0.15497100  0.42199200  1
  O  O4  1  0.69201300  0.65432600  0.67381300  1
  O  O5  1  0.69201300  0.65432600  0.17186100  1
  O  O6  1  0.30723700  0.34502900  0.82696300  1
  O  O7  1  0.30798700  0.84567400  0.57813900  1
  O  O8  1  0.30798700  0.84567400  0.07618700  1
  O  O9  1  0.30723700  0.34502900  0.32800800  1
  O  O10  1  0.18871300  0.59383100  0.45308500  1
  O  O11  1  0.18949400  0.09252300  0.70373900  1
  F  F0  1  0.77758400  0.38835100  0.55582400  1
  F  F1  1  0.78630200  0.89313200  0.80343500  1
  F  F2  1  0.21369800  0.60686800  0.94656500  1
  F  F3  1  0.22241600  0.11164900  0.19417600  1
loop_
_geom_bond_atom_site_label_1
_geom_bond_atom_site_label_2
_geom_bond_distance
_geom_bond_site_symmetry_2
Mn0 O11 1.905532 1_555
Mn0 O9 1.946070 1_555
Mn0 O6 1.946074 1_555
Mn0 O3 1.950790 1_555
Mn0 O2 1.950795 1_555
Mn1 O0 1.905532 1_555
Mn1 O3 1.946070 1_555
Mn1 O2 1.946074 1_554
Mn1 O9 1.950790 1_555
Mn1 O6 1.950795 1_554
Mn2 O7 1.947131 1_555
Mn2 O5 1.947131 1_555
Mn2 O8 1.947131 1_555
Mn2 O4 1.947131 1_555
Mn2 O1 2.063982 1_555
Mn2 O10 2.063982 1_555
Mn3 O4 1.937945 1_555
Mn3 O8 1.937945 1_556
Mn3 O7 1.937945 1_555
Mn3 O5 1.937945 1_556
Mn4 O1 1.946963 1_445
Mn4 O3 1.960490 1_455
Mn4 O7 1.966177 1_545
Mn4 O11 1.967255 1_555
Mn5 O10 1.946959 1_655
Mn5 O6 1.960490 1_655
Mn5 O4 1.966177 1_555
Mn5 O0 1.967251 1_556
Mn6 O1 1.946959 1_445
Mn6 O2 1.960490 1_454
Mn6 O8 1.966177 1_545
Mn6 O11 1.967251 1_554
Mn7 O10 1.946963 1_655
Mn7 O9 1.960490 1_655
Mn7 O5 1.966177 1_555
Mn7 O0 1.967255 1_555
F0 Mn0 1.999068 1_555
F0 Mn7 2.085450 1_555
F0 Mn5 2.085454 1_555
F1 Mn3 1.894985 1_555
F1 Mn6 2.097342 1_666
F1 Mn4 2.097351 1_665
F2 Mn3 1.894985 1_555
F2 Mn5 2.097342 1_455
F2 Mn7 2.097351 1_456
F3 Mn1 1.999068 1_555
F3 Mn4 2.085450 1_555
F3 Mn6 2.085454 1_555
