# generated using pymatgen
data_Li24Mn5Cr7O36
_symmetry_space_group_name_H-M   'P 1'
_cell_length_a   5.02761200
_cell_length_b   9.76979889
_cell_length_c   13.27310582
_cell_angle_alpha   96.92629758
_cell_angle_beta   100.50049867
_cell_angle_gamma   94.94423451
_symmetry_Int_Tables_number   1
_chemical_formula_structural   Li24Mn5Cr7O36
_chemical_formula_sum   'Li24 Mn5 Cr7 O36'
_cell_volume   632.44281235
_cell_formula_units_Z   1
loop_
 _symmetry_equiv_pos_site_id
 _symmetry_equiv_pos_as_xyz
  1  'x, y, z'
loop_
 _atom_site_type_symbol
 _atom_site_label
 _atom_site_symmetry_multiplicity
 _atom_site_fract_x
 _atom_site_fract_y
 _atom_site_fract_z
 _atom_site_occupancy
  Li  Li0  1  0.16806400  0.99949700  0.83309600  1
  Li  Li1  1  0.05141000  0.00038400  0.61315200  1
  Li  Li2  1  0.00065200  0.75036600  0.25062300  1
  Li  Li3  1  0.33670900  0.75028000  0.91679500  1
  Li  Li4  1  0.04953100  0.49852100  0.11201200  1
  Li  Li5  1  0.38604100  0.49958200  0.77995500  1
  Li  Li6  1  0.16716200  0.49972700  0.33342100  1
  Li  Li7  1  0.50124400  0.49936800  0.00035100  1
  Li  Li8  1  0.28293500  0.49986200  0.55350500  1
  Li  Li9  1  0.33348500  0.24997200  0.41660700  1
  Li  Li10  1  0.49479200  0.00157100  0.49915400  1
  Li  Li11  1  0.28678100  0.00038800  0.05394900  1
  Li  Li12  1  0.61719000  0.99998100  0.72130100  1
  Li  Li13  1  0.38134100  0.00050500  0.28016900  1
  Li  Li14  1  0.71230000  0.99934100  0.94631500  1
  Li  Li15  1  0.67046300  0.74960200  0.58404200  1
  Li  Li16  1  0.71838400  0.49944800  0.44611600  1
  Li  Li17  1  0.83094800  0.50040300  0.66610200  1
  Li  Li18  1  0.61415900  0.49993000  0.22064700  1
  Li  Li19  1  0.94700300  0.50171400  0.88770300  1
  Li  Li20  1  0.66415600  0.25028300  0.08209900  1
  Li  Li21  1  0.83694800  0.99957100  0.16638400  1
  Li  Li22  1  0.99956900  0.24997400  0.74990200  1
  Li  Li23  1  0.95187800  0.99988800  0.38647400  1
  Mn  Mn0  1  0.10882100  0.74853500  0.47195900  1
  Mn  Mn1  1  0.22262400  0.25084300  0.19462400  1
  Mn  Mn2  1  0.44559100  0.25074900  0.63919600  1
  Mn  Mn3  1  0.55405900  0.24880700  0.86054600  1
  Mn  Mn4  1  0.77702700  0.75070000  0.80543000  1
  Cr  Cr0  1  0.10482100  0.24996200  0.97117000  1
  Cr  Cr1  1  0.22812200  0.74964100  0.69380600  1
  Cr  Cr2  1  0.44332200  0.75073800  0.14143700  1
  Cr  Cr3  1  0.56020800  0.75110100  0.36418200  1
  Cr  Cr4  1  0.77224100  0.24844300  0.30400200  1
  Cr  Cr5  1  0.89523500  0.25091500  0.52853800  1
  Cr  Cr6  1  0.89265000  0.74925900  0.02586300  1
  O  O0  1  0.99814200  0.86150500  0.92853500  1
  O  O1  1  0.06682400  0.63680600  0.78371600  1
  O  O2  1  0.99449900  0.36109900  0.42977100  1
  O  O3  1  0.14613900  0.36164200  0.64352600  1
  O  O4  1  0.26571800  0.36305600  0.88324500  1
  O  O5  1  0.32809100  0.86095700  0.59591400  1
  O  O6  1  0.07392200  0.13499200  0.28396300  1
  O  O7  1  0.19306300  0.13814100  0.52514100  1
  O  O8  1  0.40590700  0.13501800  0.95092100  1
  O  O9  1  0.15256200  0.86248000  0.14245800  1
  O  O10  1  0.25912000  0.86462300  0.38257900  1
  O  O11  1  0.48129500  0.86226900  0.81073300  1
  O  O12  1  0.33161200  0.13826400  0.73796900  1
  O  O13  1  0.18065100  0.63770500  0.02389500  1
  O  O14  1  0.40114100  0.63664600  0.45107300  1
  O  O15  1  0.52124500  0.63894200  0.69086400  1
  O  O16  1  0.33828000  0.63885700  0.23853700  1
  O  O17  1  0.66201800  0.63718700  0.90181400  1
  O  O18  1  0.33456300  0.36249500  0.09622000  1
  O  O19  1  0.66804000  0.36109000  0.76190600  1
  O  O20  1  0.47251600  0.36240700  0.30896400  1
  O  O21  1  0.59361400  0.36467500  0.54927700  1
  O  O22  1  0.80695700  0.36179800  0.97509900  1
  O  O23  1  0.66474700  0.86270700  0.26441200  1
  O  O24  1  0.52309100  0.13921600  0.19075500  1
  O  O25  1  0.73372800  0.13629800  0.61700300  1
  O  O26  1  0.85428600  0.13865900  0.85704100  1
  O  O27  1  0.60169700  0.86464800  0.04883600  1
  O  O28  1  0.81058200  0.86110400  0.47612400  1
  O  O29  1  0.92962600  0.86414000  0.71495800  1
  O  O30  1  0.67184400  0.13796800  0.40357400  1
  O  O31  1  0.73161800  0.63645400  0.11677500  1
  O  O32  1  0.86149300  0.63769800  0.35729200  1
  O  O33  1  0.99598500  0.63650500  0.56927800  1
  O  O34  1  0.93218100  0.36340500  0.21639300  1
  O  O35  1  0.00533600  0.13869300  0.07081600  1
loop_
_geom_bond_atom_site_label_1
_geom_bond_atom_site_label_2
_geom_bond_distance
_geom_bond_site_symmetry_2
Li0 O8 2.043224 1_565
Li0 O29 2.045998 1_455
Li0 O12 2.169666 1_565
Li0 O0 2.181716 1_455
Li0 O11 2.191779 1_555
Li0 O26 2.210520 1_465
Li1 O7 2.049484 1_555
Li1 O5 2.051909 1_545
Li1 O29 2.137173 1_445
Li1 O25 2.166968 1_455
Li1 O12 2.197225 1_555
Li1 O28 2.223070 1_445
Li2 O32 2.076025 1_455
Li2 O10 2.109781 1_555
Li2 O16 2.114193 1_555
Li2 O23 2.115152 1_455
Li2 O9 2.116362 1_555
Li2 O31 2.147580 1_455
Li3 O17 2.076614 1_555
Li3 O11 2.077187 1_555
Li3 O0 2.115935 1_455
Li3 O13 2.116815 1_556
Li3 O27 2.124860 1_556
Li3 O1 2.141271 1_555
Li4 O13 2.040012 1_555
Li4 O18 2.057712 1_555
Li4 O34 2.148238 1_455
Li4 O31 2.182251 1_455
Li4 O22 2.213586 1_454
Li4 O16 2.240659 1_555
Li5 O15 2.058131 1_555
Li5 O19 2.067485 1_555
Li5 O4 2.151485 1_555
Li5 O17 2.164412 1_555
Li5 O1 2.181622 1_555
Li5 O3 2.210248 1_555
Li6 O34 2.035500 1_455
Li6 O14 2.041365 1_555
Li6 O20 2.166497 1_555
Li6 O32 2.170392 1_455
Li6 O16 2.186341 1_555
Li6 O2 2.200704 1_455
Li7 O31 2.025904 1_555
Li7 O4 2.037105 1_554
Li7 O18 2.171527 1_555
Li7 O22 2.171717 1_554
Li7 O17 2.190747 1_554
Li7 O13 2.231469 1_555
Li8 O3 2.062237 1_555
Li8 O33 2.069287 1_455
Li8 O21 2.134705 1_555
Li8 O14 2.140870 1_555
Li8 O2 2.212267 1_455
Li8 O15 2.220697 1_555
Li9 O20 2.084887 1_555
Li9 O7 2.093979 1_555
Li9 O2 2.120280 1_455
Li9 O6 2.120717 1_555
Li9 O21 2.121119 1_555
Li9 O30 2.122184 1_555
Li10 O10 2.036517 1_545
Li10 O25 2.041656 1_555
Li10 O7 2.151524 1_555
Li10 O30 2.189166 1_555
Li10 O5 2.204203 1_545
Li10 O28 2.224572 1_545
Li11 O9 2.040779 1_545
Li11 O35 2.061597 1_555
Li11 O8 2.134327 1_554
Li11 O27 2.156253 1_545
Li11 O24 2.211404 1_555
Li11 O0 2.225603 1_444
Li12 O11 2.051429 1_555
Li12 O12 2.076929 1_565
Li12 O29 2.148585 1_555
Li12 O25 2.153881 1_565
Li12 O26 2.202891 1_565
Li12 O5 2.227114 1_555
Li13 O23 2.063425 1_545
Li13 O24 2.069446 1_555
Li13 O6 2.116644 1_555
Li13 O10 2.141657 1_545
Li13 O9 2.203244 1_545
Li13 O30 2.208866 1_555
Li14 O26 2.072706 1_565
Li14 O0 2.077239 1_555
Li14 O27 2.115212 1_556
Li14 O8 2.121424 1_565
Li14 O11 2.183947 1_555
Li14 O35 2.231393 1_666
Li15 O33 2.077045 1_555
Li15 O28 2.084852 1_555
Li15 O15 2.087961 1_555
Li15 O29 2.103294 1_555
Li15 O5 2.133453 1_555
Li15 O14 2.137248 1_555
Li16 O2 2.040485 1_555
Li16 O32 2.063420 1_555
Li16 O21 2.146541 1_555
Li16 O14 2.174955 1_555
Li16 O33 2.175218 1_555
Li16 O20 2.222886 1_555
Li17 O21 2.035572 1_555
Li17 O1 2.042142 1_655
Li17 O33 2.172283 1_555
Li17 O19 2.178350 1_555
Li17 O15 2.192475 1_555
Li17 O3 2.210015 1_655
Li18 O16 2.046763 1_555
Li18 O20 2.050772 1_555
Li18 O31 2.152469 1_555
Li18 O34 2.172802 1_555
Li18 O18 2.190906 1_555
Li18 O32 2.224435 1_555
Li19 O17 2.050525 1_555
Li19 O22 2.055283 1_555
Li19 O1 2.148310 1_655
Li19 O13 2.188739 1_656
Li19 O4 2.189887 1_655
Li19 O19 2.214397 1_555
Li20 O22 2.080734 1_554
Li20 O18 2.087972 1_555
Li20 O24 2.092364 1_555
Li20 O8 2.106318 1_554
Li20 O35 2.128360 1_655
Li20 O34 2.146445 1_555
Li21 O27 2.033076 1_555
Li21 O6 2.039133 1_665
Li21 O35 2.186796 1_665
Li21 O9 2.204546 1_655
Li21 O23 2.204784 1_555
Li21 O24 2.215081 1_565
Li22 O3 2.083025 1_655
Li22 O19 2.085443 1_555
Li22 O26 2.086429 1_555
Li22 O12 2.090881 1_655
Li22 O25 2.131598 1_555
Li22 O4 2.133985 1_655
Li23 O30 2.055128 1_565
Li23 O28 2.071288 1_555
Li23 O10 2.121236 1_655
Li23 O6 2.137271 1_665
Li23 O23 2.189828 1_555
Li23 O7 2.233154 1_665
Mn0 O33 1.920778 1_455
Mn0 O32 1.927649 1_455
Mn0 O28 1.939240 1_455
Mn0 O10 1.941205 1_555
Mn0 O14 1.945267 1_555
Mn0 O5 1.955228 1_555
Mn1 O18 1.928292 1_555
Mn1 O20 1.933836 1_555
Mn1 O6 1.935744 1_555
Mn1 O24 1.942354 1_555
Mn1 O34 1.943986 1_455
Mn1 O35 1.949232 1_555
Mn2 O21 1.928338 1_555
Mn2 O3 1.934258 1_555
Mn2 O12 1.941040 1_555
Mn2 O19 1.941769 1_555
Mn2 O7 1.941916 1_555
Mn2 O25 1.947031 1_555
Mn3 O26 1.931859 1_555
Mn3 O8 1.932400 1_555
Mn3 O19 1.938408 1_555
Mn3 O12 1.941388 1_555
Mn3 O4 1.948125 1_555
Mn3 O22 1.948251 1_555
Mn4 O17 1.924094 1_555
Mn4 O11 1.924244 1_555
Mn4 O29 1.941432 1_555
Mn4 O0 1.944607 1_555
Mn4 O1 1.949151 1_655
Mn4 O15 1.950129 1_555
Cr0 O35 1.917127 1_556
Cr0 O26 1.932595 1_455
Cr0 O22 1.932856 1_455
Cr0 O4 1.933439 1_555
Cr0 O18 1.984950 1_556
Cr0 O8 1.998312 1_555
Cr1 O5 1.899533 1_555
Cr1 O15 1.904868 1_555
Cr1 O1 1.952682 1_555
Cr1 O11 1.966281 1_555
Cr1 O29 1.987340 1_455
Cr1 O33 1.987388 1_455
Cr2 O9 1.899385 1_555
Cr2 O16 1.903437 1_555
Cr2 O23 1.948680 1_555
Cr2 O31 1.954077 1_555
Cr2 O27 1.979160 1_555
Cr2 O13 1.994913 1_555
Cr3 O28 1.909753 1_555
Cr3 O14 1.926953 1_555
Cr3 O23 1.929237 1_555
Cr3 O32 1.961031 1_555
Cr3 O16 1.974457 1_555
Cr3 O10 1.984932 1_555
Cr4 O30 1.913034 1_555
Cr4 O24 1.914079 1_555
Cr4 O34 1.939182 1_555
Cr4 O20 1.955109 1_555
Cr4 O2 1.977801 1_555
Cr4 O6 1.991353 1_655
Cr5 O2 1.900699 1_555
Cr5 O7 1.937795 1_655
Cr5 O3 1.937978 1_655
Cr5 O25 1.949340 1_555
Cr5 O30 1.973865 1_555
Cr5 O21 1.994857 1_555
Cr6 O13 1.887854 1_655
Cr6 O0 1.908898 1_554
Cr6 O31 1.961928 1_555
Cr6 O27 1.966608 1_555
Cr6 O17 1.976068 1_554
Cr6 O9 1.981665 1_655
