# generated using pymatgen
data_Li3Fe4(BO3)4
_symmetry_space_group_name_H-M   'P 1'
_cell_length_a   5.23778212
_cell_length_b   9.03743456
_cell_length_c   11.48973983
_cell_angle_alpha   113.35305961
_cell_angle_beta   78.52484051
_cell_angle_gamma   89.38977576
_symmetry_Int_Tables_number   1
_chemical_formula_structural   Li3Fe4(BO3)4
_chemical_formula_sum   'Li6 Fe8 B8 O24'
_cell_volume   486.91619776
_cell_formula_units_Z   2
loop_
 _symmetry_equiv_pos_site_id
 _symmetry_equiv_pos_as_xyz
  1  'x, y, z'
loop_
 _atom_site_type_symbol
 _atom_site_label
 _atom_site_symmetry_multiplicity
 _atom_site_fract_x
 _atom_site_fract_y
 _atom_site_fract_z
 _atom_site_occupancy
  Li  Li0  1  0.17020800  0.16000000  0.33368300  1
  Li  Li1  1  0.35846000  0.29205500  0.59886100  1
  Li  Li2  1  0.60984200  0.04986100  0.08763300  1
  Li  Li3  1  0.91799100  0.42570000  0.83694800  1
  Li  Li4  1  0.68177200  0.65379100  0.33133400  1
  Li  Li5  1  0.42159500  0.93476500  0.83430200  1
  Fe  Fe0  1  0.39976500  0.27379300  0.87461500  1
  Fe  Fe1  1  0.09060500  0.23877600  0.11820500  1
  Fe  Fe2  1  0.83970600  0.13603700  0.62208200  1
  Fe  Fe3  1  0.65980800  0.34508500  0.37185500  1
  Fe  Fe4  1  0.34914800  0.64645300  0.62177500  1
  Fe  Fe5  1  0.15540600  0.84576900  0.36318700  1
  Fe  Fe6  1  0.90858800  0.77758500  0.87043700  1
  Fe  Fe7  1  0.60673800  0.71349700  0.11044000  1
  B  B0  1  0.64003200  0.01512300  0.37365200  1
  B  B1  1  0.89447100  0.10644600  0.87298300  1
  B  B2  1  0.15187200  0.52417900  0.37792400  1
  B  B3  1  0.40798900  0.60027500  0.86081400  1
  B  B4  1  0.85743500  0.47637700  0.62363300  1
  B  B5  1  0.59500500  0.38826000  0.12579000  1
  B  B6  1  0.34252200  0.97852500  0.61821100  1
  B  B7  1  0.09843400  0.90231100  0.13029200  1
  O  O0  1  0.13842100  0.11611500  0.90219000  1
  O  O1  1  0.44475400  0.12761800  0.65910700  1
  O  O2  1  0.23017000  0.03585800  0.13862000  1
  O  O3  1  0.49297600  0.15160000  0.38885400  1
  O  O4  1  0.89102000  0.02969500  0.39938200  1
  O  O5  1  0.79958700  0.21664900  0.83042400  1
  O  O6  1  0.26604200  0.47258900  0.85354200  1
  O  O7  1  0.05510000  0.37452900  0.34435600  1
  O  O8  1  0.69493800  0.27310100  0.16526800  1
  O  O9  1  0.61380000  0.46721800  0.58807700  1
  O  O10  1  0.97789400  0.34546100  0.63050300  1
  O  O11  1  0.38422100  0.35165500  0.06789400  1
  O  O12  1  0.64308700  0.61734700  0.90199400  1
  O  O13  1  0.38945800  0.54702900  0.42154200  1
  O  O14  1  0.31773300  0.72014800  0.82309600  1
  O  O15  1  0.97622600  0.61939400  0.65510500  1
  O  O16  1  0.70549500  0.52911800  0.14813400  1
  O  O17  1  0.20034900  0.79192800  0.17203500  1
  O  O18  1  0.13770800  0.95563100  0.55508800  1
  O  O19  1  0.44435600  0.85672400  0.64410000  1
  O  O20  1  0.02554500  0.64890600  0.36590400  1
  O  O21  1  0.74099900  0.98935300  0.89067100  1
  O  O22  1  0.54318800  0.86435000  0.33757800  1
  O  O23  1  0.86854100  0.87660200  0.08445000  1
loop_
_geom_bond_atom_site_label_1
_geom_bond_atom_site_label_2
_geom_bond_distance
_geom_bond_site_symmetry_2
Li0 O3 1.930673 1_555
Li0 O7 1.973486 1_555
Li0 O2 2.024697 1_555
Li0 O4 2.096958 1_455
Li1 O1 1.953874 1_555
Li1 O10 1.972438 1_455
Li1 O9 2.108237 1_555
Li1 O3 2.192303 1_555
Li2 O8 1.953284 1_555
Li2 O2 1.978508 1_555
Li2 O23 2.044226 1_545
Li2 O21 2.069941 1_544
Li3 O6 1.905257 1_655
Li3 O5 1.972514 1_555
Li3 O12 2.030797 1_555
Li3 O10 2.141507 1_555
Li4 O20 1.923196 1_655
Li4 O16 1.930894 1_555
Li4 O22 1.998686 1_555
Li4 O13 2.131263 1_555
Li5 O21 1.912345 1_555
Li5 O14 1.981636 1_555
Li5 O19 1.989999 1_555
Li5 O0 1.992193 1_565
Fe0 O11 2.030118 1_556
Fe0 O6 2.040228 1_555
Fe0 O0 2.057116 1_555
Fe0 O5 2.063033 1_555
Fe0 O1 2.258282 1_555
Fe1 O11 1.971590 1_555
Fe1 O8 2.022617 1_455
Fe1 O2 2.081616 1_555
Fe1 O0 2.239912 1_554
Fe1 O7 2.359465 1_555
Fe2 O10 2.006803 1_555
Fe2 O1 2.035934 1_555
Fe2 O18 2.039569 1_645
Fe2 O5 2.172366 1_555
Fe2 O4 2.305307 1_555
Fe3 O3 2.023550 1_555
Fe3 O7 2.067732 1_655
Fe3 O13 2.111678 1_555
Fe3 O8 2.165794 1_555
Fe3 O9 2.242875 1_555
Fe4 O19 1.900078 1_555
Fe4 O15 1.951555 1_455
Fe4 O9 1.984106 1_555
Fe4 O13 2.075730 1_555
Fe4 O14 2.108571 1_555
Fe5 O20 1.921018 1_555
Fe5 O4 2.006833 1_465
Fe5 O18 2.009252 1_555
Fe5 O22 2.012178 1_555
Fe5 O17 2.015059 1_555
Fe6 O21 2.004403 1_555
Fe6 O12 2.102615 1_555
Fe6 O14 2.108667 1_655
Fe6 O23 2.222055 1_556
Fe6 O15 2.264262 1_555
Fe7 O16 1.968412 1_555
Fe7 O23 2.090806 1_555
Fe7 O17 2.122475 1_555
Fe7 O12 2.166206 1_554
Fe7 O22 2.367333 1_555
B0 O3 1.378589 1_555
B0 O22 1.391548 1_545
B0 O4 1.400152 1_555
B1 O0 1.379367 1_655
B1 O21 1.389579 1_545
B1 O5 1.396523 1_555
B2 O20 1.367985 1_555
B2 O7 1.383346 1_555
B2 O13 1.419142 1_555
B3 O6 1.363055 1_555
B3 O12 1.393554 1_555
B3 O14 1.423988 1_555
B4 O10 1.371896 1_555
B4 O15 1.387294 1_555
B4 O9 1.408924 1_555
B5 O16 1.355381 1_555
B5 O11 1.377091 1_555
B5 O8 1.421261 1_555
B6 O19 1.376546 1_555
B6 O18 1.383833 1_555
B6 O1 1.391615 1_565
B7 O2 1.376363 1_565
B7 O23 1.393782 1_455
B7 O17 1.407120 1_555
