# generated using pymatgen
data_Li4Mn(BO3)2
_symmetry_space_group_name_H-M   'P 1'
_cell_length_a   3.36988000
_cell_length_b   18.72569400
_cell_length_c   7.97188500
_cell_angle_alpha   90.00229522
_cell_angle_beta   89.99993006
_cell_angle_gamma   90.00024141
_symmetry_Int_Tables_number   1
_chemical_formula_structural   Li4Mn(BO3)2
_chemical_formula_sum   'Li16 Mn4 B8 O24'
_cell_volume   503.05258292
_cell_formula_units_Z   4
loop_
 _symmetry_equiv_pos_site_id
 _symmetry_equiv_pos_as_xyz
  1  'x, y, z'
loop_
 _atom_site_type_symbol
 _atom_site_label
 _atom_site_symmetry_multiplicity
 _atom_site_fract_x
 _atom_site_fract_y
 _atom_site_fract_z
 _atom_site_occupancy
  Li  Li0  1  0.50000100  0.02780500  0.17060300  1
  Li  Li1  1  0.49997600  0.52779700  0.17068800  1
  Li  Li2  1  0.99998500  0.22214500  0.67078100  1
  Li  Li3  1  0.99996900  0.72220500  0.67056200  1
  Li  Li4  1  0.99997800  0.27780900  0.32954000  1
  Li  Li5  1  0.99997300  0.77782800  0.32907500  1
  Li  Li6  1  0.49997700  0.47213700  0.82934500  1
  Li  Li7  1  0.49999900  0.97219600  0.82905700  1
  Li  Li8  1  0.99998400  0.10129300  0.00698500  1
  Li  Li9  1  0.99996300  0.60128100  0.00702600  1
  Li  Li10  1  0.49998300  0.14871900  0.50703000  1
  Li  Li11  1  0.49996600  0.64878500  0.50696200  1
  Li  Li12  1  0.49997100  0.35134900  0.49322600  1
  Li  Li13  1  0.49998600  0.85120800  0.49297900  1
  Li  Li14  1  0.99997200  0.39866300  0.99313900  1
  Li  Li15  1  0.99997800  0.89874800  0.99298500  1
  Mn  Mn0  1  0.00012400  0.00017600  0.49968500  1
  Mn  Mn1  1  0.50002100  0.74997400  0.99937800  1
  Mn  Mn2  1  0.00023600  0.50024300  0.49967700  1
  Mn  Mn3  1  0.50010300  0.24985800  0.00026800  1
  B  B0  1  0.50002200  0.10066900  0.76831600  1
  B  B1  1  0.50000200  0.60067600  0.76840800  1
  B  B2  1  0.00001600  0.14935500  0.26850500  1
  B  B3  1  0.99998200  0.64936500  0.26838100  1
  B  B4  1  0.00000200  0.35061300  0.73170100  1
  B  B5  1  0.99999400  0.85062900  0.73158200  1
  B  B6  1  0.50000900  0.39938700  0.23176600  1
  B  B7  1  0.50001500  0.89928800  0.23166600  1
  O  O0  1  0.50008800  0.05702600  0.62283700  1
  O  O1  1  0.50000500  0.55708200  0.62285100  1
  O  O2  1  0.00002800  0.19300000  0.12286100  1
  O  O3  1  0.99998800  0.69294200  0.12282600  1
  O  O4  1  0.00002700  0.30702900  0.87722400  1
  O  O5  1  0.99998900  0.80701600  0.87715000  1
  O  O6  1  0.49999500  0.44300700  0.37727800  1
  O  O7  1  0.50009200  0.94289500  0.37719000  1
  O  O8  1  0.00000800  0.07537000  0.25097900  1
  O  O9  1  0.99997700  0.57536300  0.25079700  1
  O  O10  1  0.49998600  0.17463000  0.75074900  1
  O  O11  1  0.49996100  0.67466200  0.75091000  1
  O  O12  1  0.49997500  0.32542700  0.24939100  1
  O  O13  1  0.49997300  0.82533300  0.24917300  1
  O  O14  1  0.99997300  0.42458300  0.74940700  1
  O  O15  1  0.00000500  0.92459900  0.74912300  1
  O  O16  1  0.49997700  0.06871600  0.92301600  1
  O  O17  1  0.49995100  0.56872400  0.92305100  1
  O  O18  1  0.99997700  0.18125000  0.42307200  1
  O  O19  1  0.99996200  0.68126500  0.42303700  1
  O  O20  1  0.99996200  0.31874300  0.57699100  1
  O  O21  1  0.99998000  0.81869600  0.57691600  1
  O  O22  1  0.49996100  0.43119600  0.07695700  1
  O  O23  1  0.49997400  0.93124600  0.07689900  1
loop_
_geom_bond_atom_site_label_1
_geom_bond_atom_site_label_2
_geom_bond_distance
_geom_bond_site_symmetry_2
Li0 O23 1.956335 1_545
Li0 O8 2.010669 1_555
Li0 O8 2.010704 1_655
Li0 O16 2.117225 1_554
Li0 O7 2.289224 1_545
Li1 O22 1.957144 1_555
Li1 O9 2.010017 1_455
Li1 O9 2.010018 1_555
Li1 O17 2.117705 1_554
Li1 O6 2.287681 1_555
Li2 O20 1.957327 1_555
Li2 O10 2.009254 1_555
Li2 O10 2.009267 1_655
Li2 O18 2.117966 1_555
Li2 O4 2.287968 1_655
Li3 O21 1.955037 1_555
Li3 O11 2.010437 1_655
Li3 O11 2.010474 1_555
Li3 O19 2.116903 1_555
Li3 O5 2.287851 1_555
Li4 O18 1.955867 1_555
Li4 O12 2.010561 1_655
Li4 O12 2.010585 1_555
Li4 O20 2.116313 1_555
Li4 O2 2.288347 1_655
Li5 O19 1.957246 1_555
Li5 O13 2.009007 1_655
Li5 O13 2.009014 1_555
Li5 O21 2.118764 1_555
Li5 O3 2.286882 1_555
Li6 O17 1.956826 1_555
Li6 O14 2.009476 1_555
Li6 O14 2.009494 1_455
Li6 O22 2.117614 1_556
Li6 O1 2.289146 1_555
Li7 O16 1.956437 1_565
Li7 O15 2.009813 1_555
Li7 O15 2.009851 1_655
Li7 O23 2.119384 1_556
Li7 O0 2.286079 1_565
Li8 O16 1.912886 1_654
Li8 O16 1.912925 1_554
Li8 O2 1.949930 1_655
Li8 O8 2.004769 1_655
Li9 O17 1.912769 1_654
Li9 O17 1.912837 1_554
Li9 O3 1.948885 1_555
Li9 O9 2.003021 1_555
Li10 O18 1.912597 1_555
Li10 O18 1.912638 1_455
Li10 O0 1.949504 1_555
Li10 O10 2.002550 1_555
Li11 O19 1.912207 1_555
Li11 O19 1.912236 1_455
Li11 O1 1.949979 1_555
Li11 O11 2.004167 1_555
Li12 O20 1.912504 1_555
Li12 O20 1.912551 1_455
Li12 O6 1.949460 1_555
Li12 O12 2.003497 1_555
Li13 O21 1.912431 1_555
Li13 O21 1.912460 1_455
Li13 O7 1.949337 1_555
Li13 O13 2.003059 1_555
Li14 O22 1.912188 1_656
Li14 O22 1.912256 1_556
Li14 O4 1.948874 1_655
Li14 O14 2.002729 1_555
Li15 O23 1.912267 1_656
Li15 O23 1.912294 1_556
Li15 O5 1.950188 1_555
Li15 O15 2.003421 1_655
Mn0 O0 2.221630 1_555
Mn0 O0 2.221819 1_455
Mn0 O7 2.223218 1_545
Mn0 O7 2.223376 1_445
Mn0 O8 2.431826 1_555
Mn0 O15 2.440738 1_545
Mn1 O5 2.220158 1_555
Mn1 O5 2.220330 1_455
Mn1 O3 2.224360 1_556
Mn1 O3 2.224520 1_456
Mn1 O11 2.431469 1_555
Mn1 O13 2.440603 1_556
Mn2 O1 2.221110 1_555
Mn2 O6 2.221942 1_555
Mn2 O1 2.222296 1_455
Mn2 O6 2.223168 1_455
Mn2 O9 2.432156 1_455
Mn2 O14 2.443536 1_455
Mn3 O2 2.219680 1_655
Mn3 O2 2.220056 1_555
Mn3 O4 2.224070 1_654
Mn3 O4 2.224467 1_554
Mn3 O10 2.437389 1_554
Mn3 O12 2.438514 1_555
B0 O16 1.370759 1_555
B0 O10 1.392039 1_555
B0 O0 1.418737 1_555
B1 O17 1.370342 1_555
B1 O11 1.392449 1_555
B1 O1 1.418717 1_555
B2 O18 1.369288 1_455
B2 O8 1.392442 1_555
B2 O2 1.419888 1_555
B3 O19 1.369967 1_555
B3 O9 1.392805 1_555
B3 O3 1.418575 1_555
B4 O20 1.370110 1_455
B4 O14 1.392307 1_455
B4 O4 1.418442 1_555
B5 O21 1.370308 1_555
B5 O15 1.392175 1_655
B5 O5 1.419047 1_555
B6 O22 1.370366 1_555
B6 O12 1.392067 1_555
B6 O6 1.418704 1_555
B7 O23 1.371280 1_555
B7 O13 1.391879 1_555
B7 O7 1.418642 1_555
