# generated using pymatgen
data_NaLi2FePCO7
_symmetry_space_group_name_H-M   'P 1'
_cell_length_a   6.69448400
_cell_length_b   8.65748590
_cell_length_c   10.09361663
_cell_angle_alpha   87.71595332
_cell_angle_beta   89.44446678
_cell_angle_gamma   89.65395928
_symmetry_Int_Tables_number   1
_chemical_formula_structural   NaLi2FePCO7
_chemical_formula_sum   'Na4 Li8 Fe4 P4 C4 O28'
_cell_volume   584.49818863
_cell_formula_units_Z   4
loop_
 _symmetry_equiv_pos_site_id
 _symmetry_equiv_pos_as_xyz
  1  'x, y, z'
loop_
 _atom_site_type_symbol
 _atom_site_label
 _atom_site_symmetry_multiplicity
 _atom_site_fract_x
 _atom_site_fract_y
 _atom_site_fract_z
 _atom_site_occupancy
  Na  Na0  1  0.74893000  0.91697500  0.12450800  1
  Na  Na1  1  0.99763100  0.74474400  0.87387000  1
  Na  Na2  1  0.50042200  0.74817800  0.87512100  1
  Na  Na3  1  0.49833500  0.25593400  0.62580100  1
  Li  Li0  1  0.76491900  0.90162700  0.61598000  1
  Li  Li1  1  0.96844400  0.72012500  0.38738100  1
  Li  Li2  1  0.53689300  0.71806100  0.38905300  1
  Li  Li3  1  0.46977100  0.27712400  0.11211000  1
  Li  Li4  1  0.03233600  0.27757700  0.11746900  1
  Li  Li5  1  0.01092000  0.26910300  0.62099100  1
  Li  Li6  1  0.24334100  0.09517300  0.37362200  1
  Li  Li7  1  0.23700300  0.10526900  0.87947300  1
  Fe  Fe0  1  0.24756500  0.64831700  0.12020500  1
  Fe  Fe1  1  0.24807400  0.64888400  0.60434100  1
  Fe  Fe2  1  0.75706400  0.33824500  0.38426800  1
  Fe  Fe3  1  0.75377300  0.35453800  0.89383700  1
  P  P0  1  0.74851800  0.58092500  0.15255300  1
  P  P1  1  0.75370000  0.58639600  0.63752500  1
  P  P2  1  0.25161100  0.40576700  0.35393700  1
  P  P3  1  0.24610400  0.41025400  0.86147100  1
  C  C0  1  0.24838200  0.96198100  0.13427800  1
  C  C1  1  0.23918100  0.95727500  0.63696400  1
  C  C2  1  0.75177400  0.03312800  0.37384100  1
  C  C3  1  0.75730300  0.06387300  0.84626700  1
  O  O0  1  0.74909100  0.88562200  0.35501000  1
  O  O1  1  0.75005100  0.91972300  0.81623200  1
  O  O2  1  0.24671500  0.92674300  0.01042200  1
  O  O3  1  0.24504800  0.92746500  0.51253400  1
  O  O4  1  0.24367300  0.85206900  0.22643400  1
  O  O5  1  0.25005200  0.84123800  0.72454200  1
  O  O6  1  0.93243400  0.67418800  0.10110300  1
  O  O7  1  0.56316500  0.67624300  0.10662100  1
  O  O8  1  0.93066700  0.69464500  0.59351300  1
  O  O9  1  0.56464400  0.67691500  0.58868200  1
  O  O10  1  0.75268500  0.56895600  0.30829200  1
  O  O11  1  0.24654600  0.57333200  0.40601600  1
  O  O12  1  0.74786800  0.56652700  0.79212300  1
  O  O13  1  0.25270900  0.57080200  0.92222500  1
  O  O14  1  0.74562300  0.41293900  0.10234600  1
  O  O15  1  0.24349400  0.42037800  0.19875700  1
  O  O16  1  0.77257600  0.42582700  0.57817400  1
  O  O17  1  0.22737200  0.43161000  0.70746100  1
  O  O18  1  0.44030700  0.31287100  0.39618400  1
  O  O19  1  0.07417600  0.30514800  0.40760800  1
  O  O20  1  0.43336300  0.31013600  0.89828300  1
  O  O21  1  0.06922600  0.31103000  0.91851000  1
  O  O22  1  0.76115400  0.13182700  0.27260600  1
  O  O23  1  0.77546100  0.17141400  0.75346700  1
  O  O24  1  0.74607800  0.08518500  0.49228300  1
  O  O25  1  0.74612300  0.10594900  0.96807400  1
  O  O26  1  0.25449700  0.10529900  0.16890100  1
  O  O27  1  0.22320100  0.09644800  0.67873000  1
loop_
_geom_bond_atom_site_label_1
_geom_bond_atom_site_label_2
_geom_bond_distance
_geom_bond_site_symmetry_2
Na0 O25 2.228109 1_564
Na0 O0 2.331620 1_555
Na0 O22 2.434540 1_565
Na0 O6 2.446587 1_555
Na0 O7 2.447122 1_555
Na1 O1 2.301844 1_555
Na1 O13 2.312666 1_655
Na1 O5 2.385903 1_655
Na1 O6 2.386707 1_556
Na1 O12 2.452854 1_555
Na1 O2 2.722560 1_656
Na1 O8 2.919199 1_555
Na2 O13 2.300322 1_555
Na2 O1 2.300442 1_555
Na2 O5 2.388293 1_555
Na2 O7 2.433967 1_556
Na2 O12 2.442484 1_555
Na2 O2 2.689094 1_556
Na3 O27 2.353135 1_555
Na3 O23 2.364863 1_555
Na3 O18 2.385277 1_555
Na3 O16 2.392524 1_555
Na3 O17 2.514080 1_555
Na3 O24 2.614953 1_555
Na3 O20 2.837411 1_555
Li0 O24 1.985616 1_565
Li0 O1 2.034975 1_555
Li0 O8 2.120658 1_555
Li0 O9 2.395753 1_555
Li1 O0 2.064601 1_555
Li1 O8 2.096539 1_555
Li1 O10 2.136546 1_555
Li1 O11 2.252938 1_655
Li2 O9 2.042252 1_555
Li2 O0 2.053327 1_555
Li2 O10 2.110992 1_555
Li2 O11 2.320177 1_555
Li3 O26 2.135481 1_555
Li3 O15 2.153080 1_555
Li3 O20 2.181625 1_554
Li3 O14 2.194532 1_555
Li4 O21 2.030440 1_554
Li4 O15 2.079504 1_555
Li4 O26 2.152310 1_555
Li4 O14 2.246101 1_455
Li5 O16 2.124658 1_455
Li5 O27 2.124730 1_555
Li5 O19 2.201346 1_555
Li5 O23 2.207491 1_455
Li5 O17 2.233354 1_555
Li6 O3 1.977884 1_545
Li6 O26 2.065386 1_555
Li6 O19 2.173034 1_555
Li6 O18 2.326530 1_555
Li7 O2 1.994419 1_546
Li7 O27 2.033715 1_555
Li7 O21 2.147854 1_555
Li7 O20 2.229271 1_555
Fe0 O15 2.097411 1_555
Fe0 O4 2.100394 1_555
Fe0 O6 2.129943 1_455
Fe0 O7 2.130492 1_555
Fe0 O13 2.133110 1_554
Fe1 O5 2.099294 1_555
Fe1 O17 2.117832 1_555
Fe1 O11 2.130740 1_555
Fe1 O9 2.138189 1_555
Fe1 O8 2.162148 1_455
Fe1 O3 2.549036 1_555
Fe2 O10 2.110949 1_555
Fe2 O16 2.130628 1_555
Fe2 O18 2.134929 1_555
Fe2 O22 2.150345 1_555
Fe2 O19 2.154364 1_655
Fe2 O24 2.409142 1_555
Fe3 O12 2.067273 1_555
Fe3 O21 2.157937 1_655
Fe3 O23 2.171236 1_555
Fe3 O20 2.181156 1_555
Fe3 O14 2.184091 1_556
Fe3 O25 2.251205 1_555
C0 O2 1.298766 1_555
C0 O26 1.303372 1_565
C0 O4 1.304206 1_555
C1 O3 1.292405 1_555
C1 O27 1.295753 1_565
C1 O5 1.313581 1_555
C2 O24 1.294474 1_555
C2 O0 1.298826 1_545
C2 O22 1.306915 1_555
C3 O1 1.297260 1_545
C3 O25 1.297492 1_555
C3 O23 1.299474 1_555
O6 P0 1.550393 1_555
O7 P0 1.550453 1_555
O8 P1 1.564982 1_555
O9 P1 1.558312 1_555
O10 P0 1.571762 1_555
O11 P2 1.562633 1_555
O12 P1 1.563212 1_555
O13 P3 1.542449 1_555
O14 P0 1.559347 1_555
O15 P2 1.567836 1_555
O16 P1 1.539507 1_555
O17 P3 1.564297 1_555
O18 P2 1.547649 1_555
O19 P2 1.557454 1_555
O20 P3 1.559201 1_555
O21 P3 1.559216 1_555
