# generated using pymatgen
data_Li3Ti6Zn3O16
_symmetry_space_group_name_H-M   'P 1'
_cell_length_a   8.47041300
_cell_length_b   8.47176100
_cell_length_c   8.47411948
_cell_angle_alpha   89.92916895
_cell_angle_beta   90.00000000
_cell_angle_gamma   90.00000000
_symmetry_Int_Tables_number   1
_chemical_formula_structural   Li3Ti6Zn3O16
_chemical_formula_sum   'Li6 Ti12 Zn6 O32'
_cell_volume   608.09653994
_cell_formula_units_Z   2
loop_
 _symmetry_equiv_pos_site_id
 _symmetry_equiv_pos_as_xyz
  1  'x, y, z'
loop_
 _atom_site_type_symbol
 _atom_site_label
 _atom_site_symmetry_multiplicity
 _atom_site_fract_x
 _atom_site_fract_y
 _atom_site_fract_z
 _atom_site_occupancy
  Li  Li0  1  0.62496000  0.12529900  0.62450300  1
  Li  Li1  1  0.12496000  0.87470100  0.37549700  1
  Li  Li2  1  0.50208500  0.74803600  0.49824700  1
  Li  Li3  1  0.37527600  0.62516500  0.87496600  1
  Li  Li4  1  0.87527600  0.37483500  0.12503400  1
  Li  Li5  1  0.00208500  0.25196400  0.50175300  1
  Ti  Ti0  1  0.86956400  0.13084000  0.87223800  1
  Ti  Ti1  1  0.11887800  0.12608600  0.13556500  1
  Ti  Ti2  1  0.37321500  0.11506800  0.38322000  1
  Ti  Ti3  1  0.87321500  0.88493200  0.61678000  1
  Ti  Ti4  1  0.61887800  0.87391400  0.86443500  1
  Ti  Ti5  1  0.36956400  0.86916000  0.12776200  1
  Ti  Ti6  1  0.13366600  0.62822600  0.62353300  1
  Ti  Ti7  1  0.87784400  0.62035600  0.37047400  1
  Ti  Ti8  1  0.62475400  0.61970400  0.12284500  1
  Ti  Ti9  1  0.12475400  0.38029600  0.87715500  1
  Ti  Ti10  1  0.37784400  0.37964400  0.62952600  1
  Ti  Ti11  1  0.63366600  0.37177400  0.37646700  1
  Zn  Zn0  1  0.49912000  0.24905800  0.00143000  1
  Zn  Zn1  1  0.24785700  0.00059300  0.75072900  1
  Zn  Zn2  1  0.74785700  0.99940700  0.24927100  1
  Zn  Zn3  1  0.99912000  0.75094200  0.99857000  1
  Zn  Zn4  1  0.75073900  0.50223000  0.74778700  1
  Zn  Zn5  1  0.25073900  0.49777000  0.25221300  1
  O  O0  1  0.60901900  0.14324000  0.37243200  1
  O  O1  1  0.37280800  0.13891800  0.60719900  1
  O  O2  1  0.11293200  0.13684900  0.88707100  1
  O  O3  1  0.14267800  0.12674600  0.35559100  1
  O  O4  1  0.89258200  0.12202300  0.11010800  1
  O  O5  1  0.36275500  0.11346900  0.13625600  1
  O  O6  1  0.64227400  0.11049900  0.87812000  1
  O  O7  1  0.87696800  0.10505900  0.64233300  1
  O  O8  1  0.37696800  0.89494100  0.35766700  1
  O  O9  1  0.14227400  0.88950100  0.12188000  1
  O  O10  1  0.86275500  0.88653100  0.86374400  1
  O  O11  1  0.39258200  0.87797700  0.88989200  1
  O  O12  1  0.64267800  0.87325400  0.64440900  1
  O  O13  1  0.61293200  0.86315100  0.11292900  1
  O  O14  1  0.87280800  0.86108200  0.39280100  1
  O  O15  1  0.10901900  0.85676000  0.62756800  1
  O  O16  1  0.38848100  0.64194900  0.12763000  1
  O  O17  1  0.62750500  0.63984000  0.89283400  1
  O  O18  1  0.88756700  0.63787900  0.61245000  1
  O  O19  1  0.86123100  0.62739900  0.14219600  1
  O  O20  1  0.10759700  0.62355600  0.38911300  1
  O  O21  1  0.63833900  0.61094100  0.36119500  1
  O  O22  1  0.35585100  0.60809300  0.62367600  1
  O  O23  1  0.12344700  0.60796500  0.86160700  1
  O  O24  1  0.62344700  0.39203500  0.13839300  1
  O  O25  1  0.85585100  0.39190700  0.37632400  1
  O  O26  1  0.13833900  0.38905900  0.63880500  1
  O  O27  1  0.60759700  0.37644400  0.61088700  1
  O  O28  1  0.36123100  0.37260100  0.85780400  1
  O  O29  1  0.38756700  0.36212100  0.38755000  1
  O  O30  1  0.12750500  0.36016000  0.10716600  1
  O  O31  1  0.88848100  0.35805100  0.87237000  1
loop_
_geom_bond_atom_site_label_1
_geom_bond_atom_site_label_2
_geom_bond_distance
_geom_bond_site_symmetry_2
Li0 O27 2.135694 1_555
Li0 O1 2.143956 1_555
Li0 O0 2.145546 1_555
Li0 O7 2.146796 1_555
Li0 O12 2.146962 1_545
Li0 O6 2.157670 1_555
Li1 O20 2.135694 1_555
Li1 O14 2.143956 1_455
Li1 O15 2.145546 1_555
Li1 O8 2.146796 1_555
Li1 O3 2.146962 1_565
Li1 O9 2.157670 1_555
Li2 O21 2.008262 1_555
Li2 O22 2.016553 1_555
Li2 O12 2.020122 1_555
Li2 O8 2.021772 1_555
Li3 O22 2.140878 1_555
Li3 O23 2.141071 1_555
Li3 O17 2.145459 1_555
Li3 O28 2.148075 1_555
Li3 O16 2.148909 1_556
Li3 O11 2.150652 1_555
Li4 O25 2.140878 1_555
Li4 O24 2.141071 1_555
Li4 O30 2.145459 1_655
Li4 O19 2.148075 1_555
Li4 O31 2.148909 1_554
Li4 O4 2.150652 1_555
Li5 O26 2.008262 1_555
Li5 O25 2.016553 1_455
Li5 O3 2.020122 1_555
Li5 O7 2.021772 1_455
O0 Ti11 1.947651 1_555
O0 Zn2 1.990029 1_545
O0 Ti2 2.013629 1_555
O1 Ti2 1.909001 1_555
O1 Zn1 1.992302 1_555
O1 Ti10 2.048808 1_555
O2 Zn1 1.994197 1_555
O2 Ti0 2.065887 1_455
O2 Ti9 2.066460 1_555
O2 Ti1 2.108230 1_556
O3 Ti1 1.875409 1_555
O3 Ti2 1.969202 1_555
O4 Ti1 1.929233 1_655
O4 Zn2 1.992364 1_545
O4 Ti0 2.026431 1_554
O5 Zn0 1.988913 1_555
O5 Ti1 2.068510 1_555
O5 Ti5 2.071871 1_545
O5 Ti2 2.094738 1_555
O6 Ti0 1.933574 1_555
O6 Zn0 1.985742 1_556
O6 Ti4 2.017543 1_545
O7 Ti3 1.877928 1_545
O7 Ti0 1.961718 1_555
O8 Ti2 1.877928 1_565
O8 Ti5 1.961718 1_555
O9 Ti5 1.933574 1_555
O9 Zn3 1.985742 1_454
O9 Ti1 2.017543 1_565
O10 Zn3 1.988913 1_555
O10 Ti4 2.068510 1_555
O10 Ti0 2.071871 1_565
O10 Ti3 2.094738 1_555
O11 Ti4 1.929233 1_555
O11 Zn1 1.992364 1_565
O11 Ti5 2.026431 1_556
O12 Ti4 1.875409 1_555
O12 Ti3 1.969202 1_555
O13 Zn2 1.994197 1_555
O13 Ti5 2.065887 1_555
O13 Ti8 2.066460 1_555
O13 Ti4 2.108230 1_554
O14 Ti3 1.909001 1_555
O14 Zn2 1.992302 1_555
O14 Ti7 2.048808 1_555
O15 Ti6 1.947651 1_555
O15 Zn1 1.990029 1_565
O15 Ti3 2.013629 1_455
O16 Ti5 1.931537 1_555
O16 Zn5 1.991126 1_555
O16 Ti8 2.010597 1_555
O17 Ti8 1.956520 1_556
O17 Zn4 1.990738 1_555
O17 Ti4 1.998609 1_555
O18 Zn4 1.993971 1_555
O18 Ti7 2.057732 1_555
O18 Ti6 2.088272 1_655
O18 Ti3 2.096868 1_555
O19 Ti7 1.940410 1_555
O19 Zn3 1.984386 1_554
O19 Ti8 2.010823 1_555
O20 Ti7 1.952693 1_455
O20 Zn5 1.988607 1_555
O20 Ti6 1.999178 1_555
O21 Ti8 2.024352 1_555
O21 Ti11 2.030521 1_555
O21 Ti7 2.031800 1_555
O22 Ti6 1.889712 1_555
O22 Ti10 1.944881 1_555
O23 Ti9 1.933121 1_555
O23 Zn3 1.981604 1_455
O23 Ti6 2.026394 1_555
O24 Ti8 1.933121 1_555
O24 Zn0 1.981604 1_555
O24 Ti11 2.026394 1_555
O25 Ti11 1.889712 1_555
O25 Ti7 1.944881 1_555
O26 Ti9 2.024352 1_555
O26 Ti6 2.030521 1_555
O26 Ti10 2.031800 1_555
O27 Ti10 1.952693 1_555
O27 Zn4 1.988607 1_555
O27 Ti11 1.999178 1_555
O28 Ti10 1.940410 1_555
O28 Zn0 1.984386 1_556
O28 Ti9 2.010823 1_555
O29 Zn5 1.993971 1_555
O29 Ti10 2.057732 1_555
O29 Ti11 2.088272 1_555
O29 Ti2 2.096868 1_555
O30 Ti9 1.956520 1_554
O30 Zn5 1.990738 1_555
O30 Ti1 1.998609 1_555
O31 Ti0 1.931537 1_555
O31 Zn4 1.991126 1_555
O31 Ti9 2.010597 1_655
