# generated using pymatgen
data_KZnP2O7
_symmetry_space_group_name_H-M   'P 1'
_cell_length_a   5.13334800
_cell_length_b   10.37671100
_cell_length_c   12.84886600
_cell_angle_alpha   90.00000000
_cell_angle_beta   90.00000000
_cell_angle_gamma   90.00000000
_symmetry_Int_Tables_number   1
_chemical_formula_structural   KZnP2O7
_chemical_formula_sum   'K4 Zn4 P8 O28'
_cell_volume   684.42399718
_cell_formula_units_Z   4
loop_
 _symmetry_equiv_pos_site_id
 _symmetry_equiv_pos_as_xyz
  1  'x, y, z'
loop_
 _atom_site_type_symbol
 _atom_site_label
 _atom_site_symmetry_multiplicity
 _atom_site_fract_x
 _atom_site_fract_y
 _atom_site_fract_z
 _atom_site_occupancy
  K  K0  1  0.99386800  0.26688800  0.00000000  1
  K  K1  1  0.00613200  0.76688800  0.00000000  1
  K  K2  1  0.50111000  0.48699700  0.50000000  1
  K  K3  1  0.49889000  0.98699700  0.50000000  1
  Zn  Zn0  1  0.52481200  0.27266500  0.25180400  1
  Zn  Zn1  1  0.47518800  0.77266500  0.25180400  1
  Zn  Zn2  1  0.47518800  0.77266500  0.74819600  1
  Zn  Zn3  1  0.52481200  0.27266500  0.74819600  1
  P  P0  1  0.47166200  0.02438900  0.11449700  1
  P  P1  1  0.52833800  0.52438900  0.11449700  1
  P  P2  1  0.01586500  0.22270500  0.38665800  1
  P  P3  1  0.98413500  0.72270500  0.38665800  1
  P  P4  1  0.01586500  0.22270500  0.61334200  1
  P  P5  1  0.98413500  0.72270500  0.61334200  1
  P  P6  1  0.47166200  0.02438900  0.88550300  1
  P  P7  1  0.52833800  0.52438900  0.88550300  1
  O  O0  1  0.41953100  0.47958400  0.00000000  1
  O  O1  1  0.58046900  0.97958400  0.00000000  1
  O  O2  1  0.56710500  0.16439200  0.12735700  1
  O  O3  1  0.43289500  0.66439200  0.12735700  1
  O  O4  1  0.17600500  0.01304300  0.11592500  1
  O  O5  1  0.82399500  0.51304300  0.11592500  1
  O  O6  1  0.39622700  0.43302700  0.19129000  1
  O  O7  1  0.60377300  0.93302700  0.19129000  1
  O  O8  1  0.12854400  0.80806900  0.30866200  1
  O  O9  1  0.87145600  0.30806900  0.30866200  1
  O  O10  1  0.08714100  0.58555900  0.38794100  1
  O  O11  1  0.91285900  0.08555900  0.38794100  1
  O  O12  1  0.31479800  0.23025700  0.37422800  1
  O  O13  1  0.68520200  0.73025700  0.37422800  1
  O  O14  1  0.95765300  0.28974800  0.50000000  1
  O  O15  1  0.04234700  0.78974800  0.50000000  1
  O  O16  1  0.31479800  0.23025700  0.62577200  1
  O  O17  1  0.68520200  0.73025700  0.62577200  1
  O  O18  1  0.08714100  0.58555900  0.61205900  1
  O  O19  1  0.91285900  0.08555900  0.61205900  1
  O  O20  1  0.12854400  0.80806900  0.69133800  1
  O  O21  1  0.87145600  0.30806900  0.69133800  1
  O  O22  1  0.39622700  0.43302700  0.80871000  1
  O  O23  1  0.60377300  0.93302700  0.80871000  1
  O  O24  1  0.17600500  0.01304300  0.88407500  1
  O  O25  1  0.82399500  0.51304300  0.88407500  1
  O  O26  1  0.43289500  0.66439200  0.87264300  1
  O  O27  1  0.56710500  0.16439200  0.87264300  1
loop_
_geom_bond_atom_site_label_1
_geom_bond_atom_site_label_2
_geom_bond_distance
_geom_bond_site_symmetry_2
K0 O2 2.933979 1_555
K0 O27 2.933979 1_554
K0 O25 3.082755 1_554
K0 O5 3.082755 1_555
K0 O0 3.105766 1_655
K0 O24 3.167200 1_654
K0 O4 3.167200 1_655
K1 O3 2.933979 1_555
K1 O26 2.933979 1_554
K1 O24 3.082755 1_564
K1 O4 3.082755 1_565
K1 O1 3.105766 1_455
K1 O25 3.167200 1_454
K1 O5 3.167200 1_455
K2 O10 2.763142 1_555
K2 O18 2.763142 1_555
K2 O14 3.111560 1_555
K2 O13 3.142669 1_555
K2 O17 3.142669 1_555
K2 O12 3.259413 1_555
K2 O16 3.259413 1_555
K3 O11 2.763142 1_565
K3 O19 2.763142 1_565
K3 O15 3.111560 1_555
K3 O12 3.142669 1_565
K3 O16 3.142669 1_565
K3 O13 3.259413 1_555
K3 O17 3.259413 1_555
O0 P7 1.640863 1_554
O0 P1 1.640863 1_555
O1 P6 1.640863 1_564
O1 P0 1.640863 1_565
O2 P0 1.542041 1_555
O2 Zn0 1.966275 1_555
O3 P1 1.542041 1_555
O3 Zn1 1.966275 1_555
O4 P0 1.522381 1_555
O5 P1 1.522381 1_555
O6 P1 1.527178 1_555
O6 Zn0 1.951731 1_555
O7 P0 1.527178 1_565
O7 Zn1 1.951731 1_555
O8 P3 1.529212 1_455
O8 Zn1 1.958343 1_555
O9 P2 1.529212 1_655
O9 Zn0 1.958343 1_555
O10 P3 1.518271 1_455
O11 P2 1.518271 1_655
O12 P2 1.544805 1_555
O12 Zn0 1.957103 1_555
O13 P3 1.544805 1_555
O13 Zn1 1.957103 1_555
O14 P2 1.641381 1_655
O14 P4 1.641381 1_655
O15 P3 1.641381 1_455
O15 P5 1.641381 1_455
O16 P4 1.544805 1_555
O16 Zn3 1.957103 1_555
O17 P5 1.544805 1_555
O17 Zn2 1.957103 1_555
O18 P5 1.518271 1_455
O19 P4 1.518271 1_655
O20 P5 1.529212 1_455
O20 Zn2 1.958343 1_555
O21 P4 1.529212 1_655
O21 Zn3 1.958343 1_555
O22 P7 1.527178 1_555
O22 Zn3 1.951731 1_555
O23 P6 1.527178 1_565
O23 Zn2 1.951731 1_555
O24 P6 1.522381 1_555
O25 P7 1.522381 1_555
O26 P7 1.542041 1_555
O26 Zn2 1.966275 1_555
O27 P6 1.542041 1_555
O27 Zn3 1.966275 1_555
