# generated using pymatgen
data_Li2Mn(SO4)2
_symmetry_space_group_name_H-M   'P 1'
_cell_length_a   9.40920700
_cell_length_b   9.50235000
_cell_length_c   14.03736200
_cell_angle_alpha   90.00000000
_cell_angle_beta   90.00000000
_cell_angle_gamma   90.00000000
_symmetry_Int_Tables_number   1
_chemical_formula_structural   Li2Mn(SO4)2
_chemical_formula_sum   'Li16 Mn8 S16 O64'
_cell_volume   1255.07461457
_cell_formula_units_Z   8
loop_
 _symmetry_equiv_pos_site_id
 _symmetry_equiv_pos_as_xyz
  1  'x, y, z'
loop_
 _atom_site_type_symbol
 _atom_site_label
 _atom_site_symmetry_multiplicity
 _atom_site_fract_x
 _atom_site_fract_y
 _atom_site_fract_z
 _atom_site_occupancy
  Li  Li0  1  0.77971600  0.96668900  0.37412600  1
  Li  Li1  1  0.72028400  0.96668900  0.87412600  1
  Li  Li2  1  0.04598100  0.77617600  0.37257600  1
  Li  Li3  1  0.45401900  0.77617600  0.87257600  1
  Li  Li4  1  0.95401900  0.72382400  0.87257600  1
  Li  Li5  1  0.54598100  0.72382400  0.37257600  1
  Li  Li6  1  0.27971600  0.53331100  0.37412600  1
  Li  Li7  1  0.22028400  0.53331100  0.87412600  1
  Li  Li8  1  0.77971600  0.46668900  0.12587400  1
  Li  Li9  1  0.72028400  0.46668900  0.62587400  1
  Li  Li10  1  0.45401900  0.27617600  0.62742400  1
  Li  Li11  1  0.04598100  0.27617600  0.12742400  1
  Li  Li12  1  0.54598100  0.22382400  0.12742400  1
  Li  Li13  1  0.95401900  0.22382400  0.62742400  1
  Li  Li14  1  0.22028400  0.03331100  0.62587400  1
  Li  Li15  1  0.27971600  0.03331100  0.12587400  1
  Mn  Mn0  1  0.89761900  0.86034700  0.12361400  1
  Mn  Mn1  1  0.60238100  0.86034700  0.62361400  1
  Mn  Mn2  1  0.39761900  0.63965300  0.12361400  1
  Mn  Mn3  1  0.10238100  0.63965300  0.62361400  1
  Mn  Mn4  1  0.89761900  0.36034700  0.37638600  1
  Mn  Mn5  1  0.60238100  0.36034700  0.87638600  1
  Mn  Mn6  1  0.39761900  0.13965300  0.37638600  1
  Mn  Mn7  1  0.10238100  0.13965300  0.87638600  1
  S  S0  1  0.92981600  0.92585400  0.72871200  1
  S  S1  1  0.57018400  0.92585400  0.22871200  1
  S  S2  1  0.31218000  0.83893700  0.49042500  1
  S  S3  1  0.18782000  0.83893700  0.99042500  1
  S  S4  1  0.81218000  0.66106300  0.49042500  1
  S  S5  1  0.68782000  0.66106300  0.99042500  1
  S  S6  1  0.07018400  0.57414600  0.22871200  1
  S  S7  1  0.42981600  0.57414600  0.72871200  1
  S  S8  1  0.57018400  0.42585400  0.27128800  1
  S  S9  1  0.92981600  0.42585400  0.77128800  1
  S  S10  1  0.31218000  0.33893700  0.00957500  1
  S  S11  1  0.18782000  0.33893700  0.50957500  1
  S  S12  1  0.81218000  0.16106300  0.00957500  1
  S  S13  1  0.68782000  0.16106300  0.50957500  1
  S  S14  1  0.42981600  0.07414600  0.77128800  1
  S  S15  1  0.07018400  0.07414600  0.27128800  1
  O  O0  1  0.30000700  0.99386300  0.47717800  1
  O  O1  1  0.19999300  0.99386300  0.97717800  1
  O  O2  1  0.00282000  0.98320000  0.34421000  1
  O  O3  1  0.49718000  0.98320000  0.84421000  1
  O  O4  1  0.53820400  0.97498100  0.32838100  1
  O  O5  1  0.96179600  0.97498100  0.82838100  1
  O  O6  1  0.77135000  0.92792600  0.72277400  1
  O  O7  1  0.72865000  0.92792600  0.22277400  1
  O  O8  1  0.26692000  0.81156300  0.08094000  1
  O  O9  1  0.23308000  0.81156300  0.58094000  1
  O  O10  1  0.03618900  0.79477700  0.00100800  1
  O  O11  1  0.46381100  0.79477700  0.50100800  1
  O  O12  1  0.98446200  0.77866500  0.72292200  1
  O  O13  1  0.51553800  0.77866500  0.22292200  1
  O  O14  1  0.25291600  0.75915200  0.40827300  1
  O  O15  1  0.24708400  0.75915200  0.90827300  1
  O  O16  1  0.75291600  0.74084800  0.40827300  1
  O  O17  1  0.74708400  0.74084800  0.90827300  1
  O  O18  1  0.01553800  0.72133500  0.22292200  1
  O  O19  1  0.48446200  0.72133500  0.72292200  1
  O  O20  1  0.96381100  0.70522300  0.50100800  1
  O  O21  1  0.53618900  0.70522300  0.00100800  1
  O  O22  1  0.76692000  0.68843700  0.08094000  1
  O  O23  1  0.73308000  0.68843700  0.58094000  1
  O  O24  1  0.22865000  0.57207400  0.22277400  1
  O  O25  1  0.27135000  0.57207400  0.72277400  1
  O  O26  1  0.46179600  0.52501900  0.82838100  1
  O  O27  1  0.03820400  0.52501900  0.32838100  1
  O  O28  1  0.50282000  0.51680000  0.34421000  1
  O  O29  1  0.99718000  0.51680000  0.84421000  1
  O  O30  1  0.80000700  0.50613700  0.47717800  1
  O  O31  1  0.69999300  0.50613700  0.97717800  1
  O  O32  1  0.30000700  0.49386300  0.02282200  1
  O  O33  1  0.19999300  0.49386300  0.52282200  1
  O  O34  1  0.49718000  0.48320000  0.65579000  1
  O  O35  1  0.00282000  0.48320000  0.15579000  1
  O  O36  1  0.53820400  0.47498100  0.17161900  1
  O  O37  1  0.96179600  0.47498100  0.67161900  1
  O  O38  1  0.72865000  0.42792600  0.27722600  1
  O  O39  1  0.77135000  0.42792600  0.77722600  1
  O  O40  1  0.26692000  0.31156300  0.41906000  1
  O  O41  1  0.23308000  0.31156300  0.91906000  1
  O  O42  1  0.46381100  0.29477700  0.99899200  1
  O  O43  1  0.03618900  0.29477700  0.49899200  1
  O  O44  1  0.51553800  0.27866500  0.27707800  1
  O  O45  1  0.98446200  0.27866500  0.77707800  1
  O  O46  1  0.25291600  0.25915200  0.09172700  1
  O  O47  1  0.24708400  0.25915200  0.59172700  1
  O  O48  1  0.75291600  0.24084800  0.09172700  1
  O  O49  1  0.74708400  0.24084800  0.59172700  1
  O  O50  1  0.48446200  0.22133500  0.77707800  1
  O  O51  1  0.01553800  0.22133500  0.27707800  1
  O  O52  1  0.53618900  0.20522300  0.49899200  1
  O  O53  1  0.96381100  0.20522300  0.99899200  1
  O  O54  1  0.76692000  0.18843700  0.41906000  1
  O  O55  1  0.73308000  0.18843700  0.91906000  1
  O  O56  1  0.27135000  0.07207400  0.77722600  1
  O  O57  1  0.22865000  0.07207400  0.27722600  1
  O  O58  1  0.46179600  0.02501900  0.67161900  1
  O  O59  1  0.03820400  0.02501900  0.17161900  1
  O  O60  1  0.99718000  0.01680000  0.65579000  1
  O  O61  1  0.50282000  0.01680000  0.15579000  1
  O  O62  1  0.80000700  0.00613700  0.02282200  1
  O  O63  1  0.69999300  0.00613700  0.52282200  1
loop_
_geom_bond_atom_site_label_1
_geom_bond_atom_site_label_2
_geom_bond_distance
_geom_bond_site_symmetry_2
Li0 O2 2.146565 1_655
Li0 O54 2.202801 1_565
Li0 O7 2.209162 1_555
Li0 O16 2.213312 1_555
Li0 O63 2.249450 1_565
Li0 O4 2.362735 1_555
Li1 O3 2.146565 1_555
Li1 O55 2.202801 1_565
Li1 O6 2.209162 1_555
Li1 O17 2.213312 1_555
Li1 O62 2.249450 1_566
Li1 O5 2.362735 1_555
Li2 O14 2.017037 1_555
Li2 O2 2.047782 1_555
Li2 O20 2.074270 1_455
Li2 O18 2.183290 1_555
Li2 O27 2.466982 1_555
Li3 O15 2.017037 1_555
Li3 O3 2.047782 1_555
Li3 O21 2.074270 1_556
Li3 O19 2.183290 1_555
Li3 O26 2.466982 1_555
Li4 O17 2.017037 1_555
Li4 O29 2.047782 1_555
Li4 O10 2.074270 1_656
Li4 O12 2.183290 1_555
Li4 O5 2.466982 1_555
Li5 O16 2.017037 1_555
Li5 O28 2.047782 1_555
Li5 O11 2.074270 1_555
Li5 O13 2.183290 1_555
Li5 O4 2.466982 1_555
Li6 O28 2.146565 1_555
Li6 O40 2.202801 1_555
Li6 O24 2.209162 1_555
Li6 O14 2.213312 1_555
Li6 O33 2.249450 1_555
Li6 O27 2.362735 1_555
Li7 O29 2.146565 1_455
Li7 O41 2.202801 1_555
Li7 O25 2.209162 1_555
Li7 O15 2.213312 1_555
Li7 O32 2.249450 1_556
Li7 O26 2.362735 1_555
Li8 O35 2.146565 1_655
Li8 O22 2.202801 1_555
Li8 O38 2.209162 1_555
Li8 O48 2.213312 1_555
Li8 O31 2.249450 1_554
Li8 O36 2.362735 1_555
Li9 O34 2.146565 1_555
Li9 O23 2.202801 1_555
Li9 O39 2.209162 1_555
Li9 O49 2.213312 1_555
Li9 O30 2.249450 1_555
Li9 O37 2.362735 1_555
Li10 O47 2.017037 1_555
Li10 O34 2.047782 1_555
Li10 O52 2.074270 1_555
Li10 O50 2.183290 1_555
Li10 O58 2.466982 1_555
Li11 O46 2.017037 1_555
Li11 O35 2.047782 1_555
Li11 O53 2.074270 1_454
Li11 O51 2.183290 1_555
Li11 O59 2.466982 1_555
Li12 O48 2.017037 1_555
Li12 O61 2.047782 1_555
Li12 O42 2.074270 1_554
Li12 O44 2.183290 1_555
Li12 O36 2.466982 1_555
Li13 O49 2.017037 1_555
Li13 O60 2.047782 1_555
Li13 O43 2.074270 1_655
Li13 O45 2.183290 1_555
Li13 O37 2.466982 1_555
Li14 O60 2.146565 1_455
Li14 O9 2.202801 1_545
Li14 O56 2.209162 1_555
Li14 O47 2.213312 1_555
Li14 O0 2.249450 1_545
Li14 O58 2.362735 1_555
Li15 O61 2.146565 1_555
Li15 O8 2.202801 1_545
Li15 O57 2.209162 1_555
Li15 O46 2.213312 1_555
Li15 O1 2.249450 1_544
Li15 O59 2.362735 1_555
Mn0 O22 2.130649 1_555
Mn0 O59 2.156938 1_665
Mn0 O62 2.182785 1_565
Mn0 O7 2.208517 1_555
Mn0 O18 2.217933 1_655
Mn0 O10 2.247279 1_655
Mn1 O23 2.130649 1_555
Mn1 O58 2.156938 1_565
Mn1 O63 2.182785 1_565
Mn1 O6 2.208517 1_555
Mn1 O19 2.217933 1_555
Mn1 O11 2.247279 1_555
Mn2 O8 2.130649 1_555
Mn2 O36 2.156938 1_555
Mn2 O32 2.182785 1_555
Mn2 O24 2.208517 1_555
Mn2 O13 2.217933 1_555
Mn2 O21 2.247279 1_555
Mn3 O9 2.130649 1_555
Mn3 O37 2.156938 1_455
Mn3 O33 2.182785 1_555
Mn3 O25 2.208517 1_555
Mn3 O12 2.217933 1_455
Mn3 O20 2.247279 1_455
Mn4 O54 2.130649 1_555
Mn4 O27 2.156938 1_655
Mn4 O30 2.182785 1_555
Mn4 O38 2.208517 1_555
Mn4 O51 2.217933 1_655
Mn4 O43 2.247279 1_655
Mn5 O55 2.130649 1_555
Mn5 O26 2.156938 1_555
Mn5 O31 2.182785 1_555
Mn5 O39 2.208517 1_555
Mn5 O50 2.217933 1_555
Mn5 O42 2.247279 1_555
Mn6 O40 2.130649 1_555
Mn6 O4 2.156938 1_545
Mn6 O0 2.182785 1_545
Mn6 O57 2.208517 1_555
Mn6 O44 2.217933 1_555
Mn6 O52 2.247279 1_555
Mn7 O41 2.130649 1_555
Mn7 O5 2.156938 1_445
Mn7 O1 2.182785 1_545
Mn7 O56 2.208517 1_555
Mn7 O45 2.217933 1_455
Mn7 O53 2.247279 1_455
O0 S2 1.488273 1_555
O1 S3 1.488273 1_555
O2 S15 1.482033 1_565
O3 S14 1.482033 1_565
O4 S1 1.505297 1_555
O5 S0 1.505297 1_555
O6 S0 1.493497 1_555
O7 S1 1.493497 1_555
O8 S3 1.495326 1_554
O9 S2 1.495326 1_555
O10 S3 1.494558 1_554
O11 S2 1.494558 1_555
O12 S0 1.492374 1_555
O13 S1 1.492374 1_555
O14 S2 1.488488 1_555
O15 S3 1.488488 1_555
O16 S4 1.488488 1_555
O17 S5 1.488488 1_555
O18 S6 1.492374 1_555
O19 S7 1.492374 1_555
O20 S4 1.494558 1_555
O21 S5 1.494558 1_554
O22 S5 1.495326 1_554
O23 S4 1.495326 1_555
O24 S6 1.493497 1_555
O25 S7 1.493497 1_555
O26 S7 1.505297 1_555
O27 S6 1.505297 1_555
O28 S8 1.482033 1_555
O29 S9 1.482033 1_555
O30 S4 1.488273 1_555
O31 S5 1.488273 1_555
O32 S10 1.488273 1_555
O33 S11 1.488273 1_555
O34 S7 1.482033 1_555
O35 S6 1.482033 1_555
O36 S8 1.505297 1_555
O37 S9 1.505297 1_555
O38 S8 1.493497 1_555
O39 S9 1.493497 1_555
O40 S11 1.495326 1_555
O41 S10 1.495326 1_556
O42 S10 1.494558 1_556
O43 S11 1.494558 1_555
O44 S8 1.492374 1_555
O45 S9 1.492374 1_555
O46 S10 1.488488 1_555
O47 S11 1.488488 1_555
O48 S12 1.488488 1_555
O49 S13 1.488488 1_555
O50 S14 1.492374 1_555
O51 S15 1.492374 1_555
O52 S13 1.494558 1_555
O53 S12 1.494558 1_556
O54 S13 1.495326 1_555
O55 S12 1.495326 1_556
O56 S14 1.493497 1_555
O57 S15 1.493497 1_555
O58 S14 1.505297 1_555
O59 S15 1.505297 1_555
O60 S0 1.482033 1_545
O61 S1 1.482033 1_545
O62 S12 1.488273 1_555
O63 S13 1.488273 1_555
