# generated using pymatgen
data_Sr5Si3
_symmetry_space_group_name_H-M   'P 1'
_cell_length_a   8.07849020
_cell_length_b   8.07849133
_cell_length_c   9.76641184
_cell_angle_alpha   114.43026858
_cell_angle_beta   114.43026137
_cell_angle_gamma   89.99999983
_symmetry_Int_Tables_number   1
_chemical_formula_structural   Sr5Si3
_chemical_formula_sum   'Sr10 Si6'
_cell_volume   516.97974886
_cell_formula_units_Z   2
loop_
 _symmetry_equiv_pos_site_id
 _symmetry_equiv_pos_as_xyz
  1  'x, y, z'
loop_
 _atom_site_type_symbol
 _atom_site_label
 _atom_site_symmetry_multiplicity
 _atom_site_fract_x
 _atom_site_fract_y
 _atom_site_fract_z
 _atom_site_occupancy
  Sr  Sr0  1  0.17880219  0.03959165  0.71839385  1
  Sr  Sr1  1  0.03959165  0.53959165  0.71839385  1
  Sr  Sr2  1  0.67880219  0.17880219  0.71839385  1
  Sr  Sr3  1  0.96040835  0.46040835  0.28160615  1
  Sr  Sr4  1  0.53959165  0.67880219  0.71839385  1
  Sr  Sr5  1  0.82119781  0.96040835  0.28160615  1
  Sr  Sr6  1  0.46040835  0.32119781  0.28160615  1
  Sr  Sr7  1  0.32119781  0.82119781  0.28160615  1
  Sr  Sr8  1  0.50000000  0.50000000  -0.00000000  1
  Sr  Sr9  1  -0.00000000  -0.00000000  -0.00000000  1
  Si  Si0  1  0.60696396  0.10696396  0.00000000  1
  Si  Si1  1  0.89303604  0.60696396  0.00000000  1
  Si  Si2  1  0.10696396  0.39303604  -0.00000000  1
  Si  Si3  1  0.39303604  0.89303604  -0.00000000  1
  Si  Si4  1  0.75000000  0.75000000  0.50000000  1
  Si  Si5  1  0.25000000  0.25000000  0.50000000  1
loop_
_geom_bond_atom_site_label_1
_geom_bond_atom_site_label_2
_geom_bond_distance
_geom_bond_site_symmetry_2
Si0 Si3 2.444065 1_545
Si0 Sr6 3.273722 1_555
Si0 Sr0 3.273722 1_554
Si0 Sr4 3.273722 1_544
Si0 Sr5 3.273722 1_545
Si0 Sr9 3.290620 1_655
Si0 Sr8 3.290621 1_555
Si0 Sr2 3.298206 1_554
Si0 Sr3 3.298206 1_555
Si1 Si2 2.444065 1_655
Si1 Sr1 3.273722 1_654
Si1 Sr7 3.273722 1_655
Si1 Sr2 3.273722 1_554
Si1 Sr3 3.273722 1_555
Si1 Sr8 3.290620 1_555
Si1 Sr9 3.290621 1_665
Si1 Sr5 3.298206 1_555
Si1 Sr4 3.298206 1_554
Si2 Sr3 3.273722 1_455
Si2 Sr2 3.273722 1_454
Si2 Sr7 3.273722 1_555
Si2 Sr1 3.273722 1_554
Si2 Sr8 3.290620 1_555
Si2 Sr9 3.290621 1_555
Si2 Sr0 3.298206 1_554
Si2 Sr6 3.298206 1_555
Si3 Sr4 3.273722 1_554
Si3 Sr5 3.273722 1_555
Si3 Sr6 3.273722 1_565
Si3 Sr0 3.273722 1_564
Si3 Sr9 3.290620 1_565
Si3 Sr8 3.290621 1_555
Si3 Sr7 3.298206 1_555
Si3 Sr1 3.298206 1_554
Si4 Sr0 3.432656 1_665
Si4 Sr3 3.432656 1_555
Si4 Sr7 3.432656 1_555
Si4 Sr4 3.432656 1_555
Si4 Sr2 3.432656 1_565
Si4 Sr6 3.432656 1_555
Si4 Sr1 3.432656 1_655
Si4 Sr5 3.432656 1_555
Si5 Sr5 3.432656 1_445
Si5 Sr1 3.432656 1_555
Si5 Sr2 3.432656 1_555
Si5 Sr6 3.432656 1_555
Si5 Sr7 3.432656 1_545
Si5 Sr4 3.432656 1_555
Si5 Sr3 3.432656 1_455
Si5 Sr0 3.432656 1_555
