# generated using pymatgen
data_Na2CrSiCO7
_symmetry_space_group_name_H-M   'P 1'
_cell_length_a   5.25929848
_cell_length_b   18.13285245
_cell_length_c   6.44934900
_cell_angle_alpha   89.99841055
_cell_angle_beta   90.00302871
_cell_angle_gamma   88.30885089
_symmetry_Int_Tables_number   1
_chemical_formula_structural   Na2CrSiCO7
_chemical_formula_sum   'Na8 Cr4 Si4 C4 O28'
_cell_volume   614.78125692
_cell_formula_units_Z   4
loop_
 _symmetry_equiv_pos_site_id
 _symmetry_equiv_pos_as_xyz
  1  'x, y, z'
loop_
 _atom_site_type_symbol
 _atom_site_label
 _atom_site_symmetry_multiplicity
 _atom_site_fract_x
 _atom_site_fract_y
 _atom_site_fract_z
 _atom_site_occupancy
  Na  Na0  1  0.24486300  0.11709500  0.01021500  1
  Na  Na1  1  0.24466200  0.61713500  0.01023500  1
  Na  Na2  1  0.24485200  0.11709600  0.48981000  1
  Na  Na3  1  0.24462900  0.61713200  0.48981300  1
  Na  Na4  1  0.75524000  0.38289900  0.51020000  1
  Na  Na5  1  0.75512200  0.88283800  0.51017300  1
  Na  Na6  1  0.75524900  0.38287800  0.98977800  1
  Na  Na7  1  0.75508700  0.88283400  0.98979500  1
  Cr  Cr0  1  0.80174700  0.67477700  0.75014900  1
  Cr  Cr1  1  0.19859600  0.82520700  0.24993200  1
  Cr  Cr2  1  0.80155600  0.17476800  0.75002900  1
  Cr  Cr3  1  0.19866800  0.32522400  0.24983500  1
  Si  Si0  1  0.70423000  0.21437800  0.24999900  1
  Si  Si1  1  0.70414200  0.71441800  0.25005100  1
  Si  Si2  1  0.29585700  0.28563100  0.74990600  1
  Si  Si3  1  0.29577200  0.78563700  0.74999400  1
  C  C0  1  0.72782800  0.04056200  0.74999800  1
  C  C1  1  0.72768900  0.54062400  0.75001600  1
  C  C2  1  0.27223900  0.45941900  0.24998900  1
  C  C3  1  0.27221900  0.95938300  0.25000800  1
  O  O0  1  0.30962400  0.02711600  0.25002500  1
  O  O1  1  0.30970100  0.52716100  0.25003200  1
  O  O2  1  0.69057600  0.47287700  0.75003900  1
  O  O3  1  0.69038300  0.97282200  0.74999300  1
  O  O4  1  0.95393600  0.06988400  0.75000700  1
  O  O5  1  0.95388300  0.56996300  0.75001900  1
  O  O6  1  0.04616500  0.43005900  0.24994100  1
  O  O7  1  0.04604100  0.93008200  0.25000200  1
  O  O8  1  0.54219000  0.09163700  0.75000500  1
  O  O9  1  0.54200700  0.59166300  0.74999500  1
  O  O10  1  0.45785800  0.40833400  0.24996100  1
  O  O11  1  0.45788600  0.90830500  0.25000200  1
  O  O12  1  0.13704500  0.20849500  0.75003500  1
  O  O13  1  0.13690000  0.70847800  0.75000000  1
  O  O14  1  0.86302900  0.29150800  0.24996100  1
  O  O15  1  0.86293500  0.79157200  0.24998300  1
  O  O16  1  0.39492900  0.23041200  0.24997300  1
  O  O17  1  0.39467000  0.73034400  0.24997300  1
  O  O18  1  0.60517700  0.26956400  0.75004600  1
  O  O19  1  0.60515300  0.76971000  0.75001400  1
  O  O20  1  0.78526800  0.16584200  0.04342100  1
  O  O21  1  0.78526800  0.66589200  0.04350300  1
  O  O22  1  0.78526000  0.16584200  0.45660500  1
  O  O23  1  0.78527500  0.66591000  0.45664200  1
  O  O24  1  0.21480400  0.33415500  0.54337300  1
  O  O25  1  0.21448800  0.83412600  0.54335900  1
  O  O26  1  0.21483000  0.33416100  0.95655500  1
  O  O27  1  0.21447100  0.83415000  0.95661200  1
loop_
_geom_bond_atom_site_label_1
_geom_bond_atom_site_label_2
_geom_bond_distance
_geom_bond_site_symmetry_2
Na0 O0 2.266513 1_555
Na0 O8 2.330745 1_554
Na0 O12 2.414179 1_554
Na0 O4 2.442818 1_454
Na0 O20 2.558073 1_455
Na0 O16 2.707711 1_555
Na1 O1 2.266580 1_555
Na1 O9 2.330993 1_554
Na1 O13 2.413660 1_554
Na1 O5 2.442097 1_454
Na1 O21 2.557177 1_455
Na1 O17 2.706039 1_555
Na2 O0 2.266509 1_555
Na2 O8 2.330580 1_555
Na2 O12 2.414461 1_555
Na2 O4 2.442817 1_455
Na2 O22 2.558027 1_455
Na2 O16 2.707989 1_555
Na3 O1 2.266579 1_555
Na3 O9 2.330692 1_555
Na3 O13 2.413550 1_555
Na3 O5 2.442000 1_455
Na3 O23 2.557023 1_455
Na3 O17 2.706494 1_555
Na4 O2 2.266648 1_555
Na4 O10 2.330861 1_555
Na4 O14 2.414405 1_555
Na4 O6 2.442775 1_655
Na4 O24 2.557860 1_655
Na4 O18 2.708264 1_555
Na5 O3 2.266693 1_555
Na5 O11 2.330138 1_555
Na5 O15 2.412673 1_555
Na5 O7 2.442926 1_655
Na5 O25 2.556710 1_655
Na5 O19 2.705210 1_555
Na6 O2 2.266400 1_555
Na6 O10 2.330837 1_556
Na6 O14 2.413780 1_556
Na6 O6 2.442381 1_656
Na6 O26 2.557841 1_655
Na6 O18 2.707584 1_555
Na7 O3 2.266555 1_555
Na7 O11 2.330333 1_556
Na7 O15 2.412549 1_556
Na7 O7 2.443151 1_656
Na7 O27 2.556661 1_655
Na7 O19 2.704893 1_555
Cr0 O13 1.882557 1_655
Cr0 O21 1.900983 1_556
Cr0 O23 1.901935 1_555
Cr0 O19 1.981725 1_555
Cr0 O5 2.040255 1_555
Cr0 O9 2.063720 1_555
Cr1 O15 1.884663 1_455
Cr1 O27 1.900706 1_554
Cr1 O25 1.901359 1_555
Cr1 O17 1.979285 1_555
Cr1 O7 2.042077 1_555
Cr1 O11 2.061886 1_555
Cr2 O12 1.884394 1_655
Cr2 O20 1.901243 1_556
Cr2 O22 1.901451 1_555
Cr2 O18 1.979044 1_555
Cr2 O4 2.041891 1_555
Cr2 O8 2.062608 1_555
Cr3 O14 1.885071 1_455
Cr3 O26 1.900510 1_554
Cr3 O24 1.902151 1_555
Cr3 O16 1.978984 1_555
Cr3 O6 2.041310 1_555
Cr3 O10 2.061690 1_555
C0 O3 1.249732 1_545
C0 O4 1.316867 1_555
C0 O8 1.325733 1_555
C1 O2 1.249533 1_555
C1 O5 1.317414 1_555
C1 O9 1.325457 1_555
C2 O1 1.249784 1_555
C2 O6 1.317000 1_555
C2 O10 1.325785 1_555
C3 O0 1.249567 1_565
C3 O7 1.317040 1_555
C3 O11 1.325879 1_555
O12 Si2 1.650130 1_555
O13 Si3 1.650657 1_555
O14 Si0 1.650000 1_555
O15 Si1 1.650359 1_555
O16 Si0 1.644016 1_555
O17 Si1 1.644614 1_555
O18 Si2 1.644203 1_555
O19 Si3 1.644145 1_555
O20 Si0 1.645968 1_555
O21 Si1 1.645828 1_555
O22 Si0 1.646028 1_555
O23 Si1 1.645814 1_555
O24 Si2 1.645561 1_555
O25 Si3 1.646055 1_555
O26 Si2 1.646267 1_555
O27 Si3 1.646294 1_555
