# generated using pymatgen
data_Li2Cr3BiO8
_symmetry_space_group_name_H-M   'P 1'
_cell_length_a   6.04206406
_cell_length_b   10.90693668
_cell_length_c   6.04216299
_cell_angle_alpha   89.99995537
_cell_angle_beta   120.00048649
_cell_angle_gamma   73.92285703
_symmetry_Int_Tables_number   1
_chemical_formula_structural   Li2Cr3BiO8
_chemical_formula_sum   'Li4 Cr6 Bi2 O16'
_cell_volume   326.72723097
_cell_formula_units_Z   2
loop_
 _symmetry_equiv_pos_site_id
 _symmetry_equiv_pos_as_xyz
  1  'x, y, z'
loop_
 _atom_site_type_symbol
 _atom_site_label
 _atom_site_symmetry_multiplicity
 _atom_site_fract_x
 _atom_site_fract_y
 _atom_site_fract_z
 _atom_site_occupancy
  Li  Li0  1  0.12716600  0.30924900  0.56360300  1
  Li  Li1  1  0.12713300  0.80929900  0.06358600  1
  Li  Li2  1  0.87286000  0.19070000  0.93645000  1
  Li  Li3  1  0.87282900  0.69075100  0.43643400  1
  Cr  Cr0  1  0.49999900  0.49999200  0.99997800  1
  Cr  Cr1  1  0.00000400  0.50000800  0.99998700  1
  Cr  Cr2  1  0.50000700  0.49999100  0.49997900  1
  Cr  Cr3  1  0.49998300  0.00003300  0.49992900  1
  Cr  Cr4  1  0.00003500  0.99996700  0.49997500  1
  Cr  Cr5  1  0.50001300  0.00000300  0.99993500  1
  Bi  Bi0  1  0.50001900  0.24996900  0.25002800  1
  Bi  Bi1  1  0.49998900  0.75002400  0.75001600  1
  O  O0  1  0.73337500  0.39993500  0.86669900  1
  O  O1  1  0.73334700  0.89996400  0.36667700  1
  O  O2  1  0.26663500  0.10004500  0.63332100  1
  O  O3  1  0.26663100  0.60005800  0.13332200  1
  O  O4  1  0.71824000  0.38797900  0.35912800  1
  O  O5  1  0.71828300  0.88801700  0.85914500  1
  O  O6  1  0.25290600  0.38796800  0.35912400  1
  O  O7  1  0.25285100  0.88799800  0.85915300  1
  O  O8  1  0.25290900  0.38796600  0.89380700  1
  O  O9  1  0.25285500  0.88799700  0.39372000  1
  O  O10  1  0.74714400  0.11200500  0.60629200  1
  O  O11  1  0.74708100  0.61203300  0.10620700  1
  O  O12  1  0.74715000  0.11200500  0.14086500  1
  O  O13  1  0.74708700  0.61203500  0.64089300  1
  O  O14  1  0.28169800  0.11199200  0.14085300  1
  O  O15  1  0.28176900  0.61201600  0.64089600  1
loop_
_geom_bond_atom_site_label_1
_geom_bond_atom_site_label_2
_geom_bond_distance
_geom_bond_site_symmetry_2
Li0 O8 2.034798 1_555
Li0 O4 2.034872 1_455
Li0 O6 2.034880 1_555
Li0 O2 2.161967 1_555
Li1 O9 2.034354 1_555
Li1 O7 2.034439 1_554
Li1 O5 2.034496 1_454
Li1 O3 2.162349 1_555
Li2 O12 2.034291 1_556
Li2 O14 2.034429 1_656
Li2 O10 2.034452 1_555
Li2 O0 2.162287 1_555
Li3 O13 2.034776 1_555
Li3 O11 2.034915 1_555
Li3 O15 2.034944 1_655
Li3 O1 2.162060 1_555
Cr0 O0 2.027562 1_555
Cr0 O3 2.027853 1_556
Cr0 O15 2.045885 1_555
Cr0 O8 2.045952 1_555
Cr0 O11 2.046029 1_556
Cr0 O4 2.046135 1_556
Cr1 O3 2.027533 1_556
Cr1 O0 2.027732 1_455
Cr1 O13 2.045964 1_455
Cr1 O8 2.045986 1_555
Cr1 O11 2.046160 1_456
Cr1 O6 2.046193 1_556
Cr2 O3 2.027610 1_555
Cr2 O0 2.027852 1_555
Cr2 O4 2.045838 1_555
Cr2 O6 2.045952 1_555
Cr2 O13 2.046066 1_555
Cr2 O15 2.046213 1_555
Cr3 O1 2.027432 1_545
Cr3 O2 2.027775 1_555
Cr3 O14 2.045545 1_555
Cr3 O10 2.045738 1_555
Cr3 O9 2.046197 1_545
Cr3 O5 2.046425 1_545
Cr4 O1 2.027419 1_455
Cr4 O2 2.027643 1_565
Cr4 O9 2.045612 1_555
Cr4 O7 2.046034 1_555
Cr4 O12 2.046067 1_465
Cr4 O10 2.046475 1_465
Cr5 O2 2.027322 1_555
Cr5 O1 2.027887 1_546
Cr5 O5 2.045601 1_545
Cr5 O12 2.045941 1_556
Cr5 O7 2.046025 1_545
Cr5 O14 2.046373 1_556
Bi0 O6 2.160733 1_555
Bi0 O10 2.160756 1_555
Bi0 O4 2.160766 1_555
Bi0 O8 2.160769 1_554
Bi0 O14 2.160848 1_555
Bi0 O12 2.160874 1_555
Bi1 O11 2.160618 1_556
Bi1 O13 2.160725 1_555
Bi1 O15 2.160743 1_555
Bi1 O7 2.160854 1_555
Bi1 O5 2.160892 1_555
Bi1 O9 2.160932 1_555
