# generated using pymatgen
data_LiMn2(BO3)2
_symmetry_space_group_name_H-M   'P 1'
_cell_length_a   5.35127300
_cell_length_b   9.07267712
_cell_length_c   11.32720850
_cell_angle_alpha   112.87850806
_cell_angle_beta   100.86939065
_cell_angle_gamma   90.60099712
_symmetry_Int_Tables_number   1
_chemical_formula_structural   LiMn2(BO3)2
_chemical_formula_sum   'Li4 Mn8 B8 O24'
_cell_volume   495.44832127
_cell_formula_units_Z   4
loop_
 _symmetry_equiv_pos_site_id
 _symmetry_equiv_pos_as_xyz
  1  'x, y, z'
loop_
 _atom_site_type_symbol
 _atom_site_label
 _atom_site_symmetry_multiplicity
 _atom_site_fract_x
 _atom_site_fract_y
 _atom_site_fract_z
 _atom_site_occupancy
  Li  Li0  1  0.70538800  0.84179000  0.65716400  1
  Li  Li1  1  0.93973700  0.06065600  0.16343200  1
  Li  Li2  1  0.59546100  0.45761600  0.91928200  1
  Li  Li3  1  0.34687700  0.22447900  0.40621500  1
  Mn  Mn0  1  0.89736000  0.71620100  0.14114800  1
  Mn  Mn1  1  0.34986500  0.86557300  0.37860000  1
  Mn  Mn2  1  0.60823100  0.78795800  0.88990300  1
  Mn  Mn3  1  0.84299900  0.35914600  0.38318100  1
  Mn  Mn4  1  0.17670500  0.62310200  0.63689600  1
  Mn  Mn5  1  0.41778900  0.25302400  0.12575500  1
  Mn  Mn6  1  0.65576200  0.17125400  0.62208400  1
  Mn  Mn7  1  0.08663500  0.24203500  0.86691000  1
  B  B0  1  0.40995700  0.91474700  0.14230100  1
  B  B1  1  0.15994900  0.96662500  0.62653400  1
  B  B2  1  0.87839300  0.36727100  0.11422100  1
  B  B3  1  0.35021200  0.52573100  0.37650600  1
  B  B4  1  0.63363300  0.49629000  0.62379800  1
  B  B5  1  0.09754900  0.58869900  0.87646200  1
  B  B6  1  0.86186500  0.02045400  0.37547700  1
  B  B7  1  0.61013300  0.11986800  0.86770200  1
  O  O0  1  0.64045000  0.87992300  0.09946300  1
  O  O1  1  0.95830000  0.87311100  0.35029700  1
  O  O2  1  0.05242100  0.83654200  0.63204100  1
  O  O3  1  0.30012300  0.81083100  0.18964200  1
  O  O4  1  0.38202800  0.96513100  0.57285800  1
  O  O5  1  0.74802400  0.48993400  0.10789600  1
  O  O6  1  0.70877000  0.97963200  0.84555700  1
  O  O7  1  0.45109600  0.65283400  0.36540500  1
  O  O8  1  0.79176600  0.26090200  0.16451100  1
  O  O9  1  0.55380100  0.65130900  0.67107700  1
  O  O10  1  0.09943400  0.32852700  0.06353900  1
  O  O11  1  0.86988800  0.47784000  0.58985100  1
  O  O12  1  0.16028000  0.52369300  0.44469000  1
  O  O13  1  0.87102400  0.62629400  0.92182900  1
  O  O14  1  0.43941800  0.36946100  0.31730300  1
  O  O15  1  0.20597700  0.69016700  0.82628600  1
  O  O16  1  0.99198100  0.14267600  0.36272900  1
  O  O17  1  0.48087400  0.36320900  0.60045600  1
  O  O18  1  0.28708200  0.04288700  0.13629900  1
  O  O19  1  0.22365800  0.46130000  0.88187000  1
  O  O20  1  0.62377400  0.04798900  0.41373600  1
  O  O21  1  0.70965100  0.23833800  0.83155700  1
  O  O22  1  0.05998400  0.11843900  0.67925300  1
  O  O23  1  0.40300100  0.16246700  0.93019800  1
loop_
_geom_bond_atom_site_label_1
_geom_bond_atom_site_label_2
_geom_bond_distance
_geom_bond_site_symmetry_2
Li0 O2 1.929399 1_655
Li0 O9 1.974844 1_555
Li0 O6 2.006988 1_555
Li0 O4 2.325240 1_555
Li1 O18 1.938702 1_655
Li1 O8 1.986040 1_555
Li1 O16 2.044388 1_555
Li1 O0 2.088581 1_545
Li2 O19 1.957986 1_555
Li2 O21 2.008990 1_555
Li2 O5 2.041339 1_556
Li2 O13 2.102285 1_555
Li3 O16 1.932246 1_455
Li3 O17 2.042563 1_555
Li3 O14 2.047985 1_555
Li3 O20 2.207949 1_555
Mn0 O5 2.060467 1_555
Mn0 O0 2.159349 1_555
Mn0 O1 2.195901 1_555
Mn0 O3 2.198207 1_655
Mn0 O13 2.268640 1_554
Mn1 O3 1.963284 1_555
Mn1 O7 1.967051 1_555
Mn1 O4 1.998938 1_555
Mn1 O20 2.064661 1_565
Mn1 O1 2.065125 1_455
Mn2 O6 2.080240 1_555
Mn2 O13 2.126870 1_555
Mn2 O0 2.159426 1_556
Mn2 O15 2.194951 1_555
Mn2 O9 2.257536 1_555
Mn3 O12 2.070935 1_655
Mn3 O16 2.072473 1_555
Mn3 O11 2.137788 1_555
Mn3 O14 2.163452 1_555
Mn3 O8 2.242071 1_555
Mn4 O11 1.948110 1_455
Mn4 O15 1.962962 1_555
Mn4 O9 1.976096 1_555
Mn4 O12 1.990110 1_555
Mn4 O2 2.071547 1_555
Mn5 O10 1.953259 1_555
Mn5 O8 1.960639 1_555
Mn5 O14 1.989346 1_555
Mn5 O23 2.026190 1_554
Mn5 O18 2.078181 1_555
Mn6 O17 2.061147 1_555
Mn6 O20 2.154304 1_555
Mn6 O21 2.167690 1_555
Mn6 O4 2.185760 1_545
Mn6 O22 2.250043 1_655
Mn7 O22 1.955765 1_555
Mn7 O23 1.967607 1_555
Mn7 O21 1.978542 1_455
Mn7 O10 2.040466 1_556
Mn7 O19 2.045529 1_555
B0 O18 1.359848 1_565
B0 O0 1.404036 1_555
B0 O3 1.422048 1_555
B1 O2 1.335814 1_555
B1 O22 1.426979 1_565
B1 O4 1.431289 1_555
B2 O5 1.337824 1_555
B2 O10 1.400066 1_655
B2 O8 1.410096 1_555
B3 O7 1.327530 1_555
B3 O12 1.391627 1_555
B3 O14 1.443384 1_555
B4 O17 1.358497 1_555
B4 O11 1.382744 1_555
B4 O9 1.400215 1_555
B5 O19 1.360508 1_555
B5 O13 1.398983 1_455
B5 O15 1.423787 1_555
B6 O16 1.371681 1_555
B6 O1 1.381375 1_545
B6 O20 1.415718 1_555
B7 O6 1.332735 1_545
B7 O23 1.404020 1_555
B7 O21 1.420884 1_555
