# generated using pymatgen
data_LiBeH5(NF2)2
_symmetry_space_group_name_H-M   'P 1'
_cell_length_a   5.16872000
_cell_length_b   8.95719500
_cell_length_c   9.92568700
_cell_angle_alpha   90.00000000
_cell_angle_beta   90.00000000
_cell_angle_gamma   90.00000000
_symmetry_Int_Tables_number   1
_chemical_formula_structural   LiBeH5(NF2)2
_chemical_formula_sum   'Li4 Be4 H20 N8 F16'
_cell_volume   459.53184313
_cell_formula_units_Z   4
loop_
 _symmetry_equiv_pos_site_id
 _symmetry_equiv_pos_as_xyz
  1  'x, y, z'
loop_
 _atom_site_type_symbol
 _atom_site_label
 _atom_site_symmetry_multiplicity
 _atom_site_fract_x
 _atom_site_fract_y
 _atom_site_fract_z
 _atom_site_occupancy
  Li  Li0  1  0.26017200  0.06482500  0.82140300  1
  Li  Li1  1  0.76017200  0.93517500  0.17859700  1
  Li  Li2  1  0.76017200  0.56482500  0.67859700  1
  Li  Li3  1  0.26017200  0.43517500  0.32140300  1
  Be  Be0  1  0.25513900  0.37214400  0.65927200  1
  Be  Be1  1  0.75513900  0.62785600  0.34072800  1
  Be  Be2  1  0.75513900  0.87214400  0.84072800  1
  Be  Be3  1  0.25513900  0.12785600  0.15927200  1
  H  H0  1  0.79112600  0.11792300  0.61842900  1
  H  H1  1  0.29112600  0.88207700  0.38157100  1
  H  H2  1  0.29112600  0.61792300  0.88157100  1
  H  H3  1  0.79112600  0.38207700  0.11842900  1
  H  H4  1  0.56690300  0.04276800  0.51937800  1
  H  H5  1  0.06690300  0.95723200  0.48062200  1
  H  H6  1  0.06690300  0.54276800  0.98062200  1
  H  H7  1  0.56690300  0.45723200  0.01937800  1
  H  H8  1  0.70640000  0.30595800  0.84204700  1
  H  H9  1  0.20640000  0.69404200  0.15795300  1
  H  H10  1  0.20640000  0.80595800  0.65795300  1
  H  H11  1  0.70640000  0.19404200  0.34204700  1
  H  H12  1  0.92746600  0.22674700  0.94701700  1
  H  H13  1  0.42746600  0.77325300  0.05298300  1
  H  H14  1  0.42746600  0.72674700  0.55298300  1
  H  H15  1  0.92746600  0.27325300  0.44701700  1
  H  H16  1  0.60658700  0.20221600  0.97348100  1
  H  H17  1  0.10658700  0.79778400  0.02651900  1
  H  H18  1  0.10658700  0.70221600  0.52651900  1
  H  H19  1  0.60658700  0.29778400  0.47348100  1
  N  N0  1  0.75182100  0.08708600  0.52121400  1
  N  N1  1  0.25182100  0.91291400  0.47878600  1
  N  N2  1  0.25182100  0.58708600  0.97878600  1
  N  N3  1  0.75182100  0.41291400  0.02121400  1
  N  N4  1  0.74639500  0.27761900  0.94186600  1
  N  N5  1  0.24639500  0.72238100  0.05813400  1
  N  N6  1  0.24639500  0.77761900  0.55813400  1
  N  N7  1  0.74639500  0.22238100  0.44186600  1
  F  F0  1  0.55080800  0.39208400  0.69598100  1
  F  F1  1  0.05080800  0.60791600  0.30401900  1
  F  F2  1  0.05080800  0.89208400  0.80401900  1
  F  F3  1  0.55080800  0.10791600  0.19598100  1
  F  F4  1  0.23281000  0.35623500  0.49973200  1
  F  F5  1  0.73281000  0.64376500  0.50026800  1
  F  F6  1  0.73281000  0.85623500  0.00026800  1
  F  F7  1  0.23281000  0.14376500  0.99973200  1
  F  F8  1  0.14266500  0.22943600  0.72494400  1
  F  F9  1  0.64266500  0.77056400  0.27505600  1
  F  F10  1  0.64266500  0.72943600  0.77505600  1
  F  F11  1  0.14266500  0.27056400  0.22494400  1
  F  F12  1  0.60600900  0.01455400  0.79651500  1
  F  F13  1  0.10600900  0.98544600  0.20348500  1
  F  F14  1  0.10600900  0.51455400  0.70348500  1
  F  F15  1  0.60600900  0.48544600  0.29651500  1
loop_
_geom_bond_atom_site_label_1
_geom_bond_atom_site_label_2
_geom_bond_distance
_geom_bond_site_symmetry_2
Be0 F8 1.548165 1_555
Be0 F14 1.553665 1_555
Be0 F0 1.581186 1_555
Be0 F4 1.594126 1_555
Be1 F9 1.548165 1_555
Be1 F15 1.553665 1_555
Be1 F1 1.581186 1_655
Be1 F5 1.594126 1_555
Be2 F10 1.548165 1_555
Be2 F12 1.553665 1_565
Be2 F2 1.581186 1_655
Be2 F6 1.594126 1_556
Be3 F11 1.548165 1_555
Be3 F13 1.553665 1_545
Be3 F3 1.581186 1_555
Be3 F7 1.594126 1_554
H0 N0 1.024035 1_555
H1 N1 1.024035 1_555
H2 N2 1.024035 1_555
H3 N3 1.024035 1_555
H4 N0 1.035107 1_555
H5 N1 1.035107 1_555
H6 N2 1.035107 1_555
H7 N3 1.035107 1_555
H8 N4 1.043455 1_555
H9 N5 1.043455 1_555
H10 N6 1.043455 1_555
H11 N7 1.043455 1_555
H12 N4 1.042194 1_555
H13 N5 1.042194 1_555
H14 N6 1.042194 1_555
H15 N7 1.042194 1_555
H16 N4 1.037703 1_555
H17 N5 1.037703 1_555
H18 N6 1.037703 1_555
H19 N7 1.037703 1_555
F0 Li2 1.896014 1_555
F1 Li3 1.896014 1_555
F2 Li0 1.896014 1_565
F3 Li1 1.896014 1_545
F4 Li3 1.911282 1_555
F5 Li2 1.911282 1_555
F6 Li1 1.911282 1_555
F7 Li0 1.911282 1_555
F8 Li0 1.859988 1_555
F9 Li1 1.859988 1_555
F10 Li2 1.859988 1_555
F11 Li3 1.859988 1_555
F12 Li0 1.859856 1_555
F13 Li1 1.859856 1_455
F14 Li2 1.859856 1_455
F15 Li3 1.859856 1_555
