# generated using pymatgen
data_Al2ZnTe4
_symmetry_space_group_name_H-M   'P 1'
_cell_length_a   6.03266166
_cell_length_b   6.03266135
_cell_length_c   7.32329335
_cell_angle_alpha   114.32309611
_cell_angle_beta   114.32310553
_cell_angle_gamma   89.99999697
_symmetry_Int_Tables_number   1
_chemical_formula_structural   Al2ZnTe4
_chemical_formula_sum   'Al2 Zn1 Te4'
_cell_volume   216.63505529
_cell_formula_units_Z   1
loop_
 _symmetry_equiv_pos_site_id
 _symmetry_equiv_pos_as_xyz
  1  'x, y, z'
loop_
 _atom_site_type_symbol
 _atom_site_label
 _atom_site_symmetry_multiplicity
 _atom_site_fract_x
 _atom_site_fract_y
 _atom_site_fract_z
 _atom_site_occupancy
  Al  Al0  1  0.25000000  0.75000000  0.50000000  1
  Al  Al1  1  0.50000000  0.50000000  -0.00000000  1
  Zn  Zn0  1  -0.00000000  -0.00000000  -0.00000000  1
  Te  Te0  1  0.39568165  0.37268524  0.26379723  1
  Te  Te1  1  0.10888801  0.60431835  0.73620277  1
  Te  Te2  1  0.62731476  0.13188342  0.73620277  1
  Te  Te3  1  0.86811658  0.89111199  0.26379723  1
loop_
_geom_bond_atom_site_label_1
_geom_bond_atom_site_label_2
_geom_bond_distance
_geom_bond_site_symmetry_2
Al0 Te3 2.637137 1_455
Al0 Te2 2.637138 1_565
Al0 Te0 2.637141 1_555
Al0 Te1 2.637141 1_555
Al1 Te1 2.634730 1_554
Al1 Te0 2.634730 1_555
Al1 Te3 2.634733 1_555
Al1 Te2 2.634733 1_554
Te0 Zn0 2.666103 1_555
Te1 Zn0 2.666103 1_566
Te2 Zn0 2.666099 1_656
Te3 Zn0 2.666099 1_665
