# generated using pymatgen
data_Li2Ni3BiO8
_symmetry_space_group_name_H-M   'P 1'
_cell_length_a   8.44077900
_cell_length_b   8.44077900
_cell_length_c   8.44077900
_cell_angle_alpha   90.00000000
_cell_angle_beta   90.00000000
_cell_angle_gamma   90.00000000
_symmetry_Int_Tables_number   1
_chemical_formula_structural   Li2Ni3BiO8
_chemical_formula_sum   'Li8 Ni12 Bi4 O32'
_cell_volume   601.37807229
_cell_formula_units_Z   4
loop_
 _symmetry_equiv_pos_site_id
 _symmetry_equiv_pos_as_xyz
  1  'x, y, z'
loop_
 _atom_site_type_symbol
 _atom_site_label
 _atom_site_symmetry_multiplicity
 _atom_site_fract_x
 _atom_site_fract_y
 _atom_site_fract_z
 _atom_site_occupancy
  Li  Li0  1  0.99974500  0.99974500  0.99974500  1
  Li  Li1  1  0.25025500  0.25025500  0.25025500  1
  Li  Li2  1  0.24974500  0.74974500  0.75025500  1
  Li  Li3  1  0.50025500  0.00025500  0.49974500  1
  Li  Li4  1  0.49974500  0.50025500  0.00025500  1
  Li  Li5  1  0.75025500  0.24974500  0.74974500  1
  Li  Li6  1  0.74974500  0.75025500  0.24974500  1
  Li  Li7  1  0.00025500  0.49974500  0.50025500  1
  Ni  Ni0  1  0.11537800  0.13462200  0.62500000  1
  Ni  Ni1  1  0.12500000  0.38462200  0.86537800  1
  Ni  Ni2  1  0.13462200  0.62500000  0.11537800  1
  Ni  Ni3  1  0.36537800  0.37500000  0.61537800  1
  Ni  Ni4  1  0.37500000  0.61537800  0.36537800  1
  Ni  Ni5  1  0.38462200  0.86537800  0.12500000  1
  Ni  Ni6  1  0.61537800  0.36537800  0.37500000  1
  Ni  Ni7  1  0.62500000  0.11537800  0.13462200  1
  Ni  Ni8  1  0.63462200  0.87500000  0.88462200  1
  Ni  Ni9  1  0.86537800  0.12500000  0.38462200  1
  Ni  Ni10  1  0.87500000  0.88462200  0.63462200  1
  Ni  Ni11  1  0.88462200  0.63462200  0.87500000  1
  Bi  Bi0  1  0.12500000  0.87500000  0.37500000  1
  Bi  Bi1  1  0.37500000  0.12500000  0.87500000  1
  Bi  Bi2  1  0.62500000  0.62500000  0.62500000  1
  Bi  Bi3  1  0.87500000  0.37500000  0.12500000  1
  O  O0  1  0.09476800  0.12731900  0.38266900  1
  O  O1  1  0.11733100  0.90523200  0.62731900  1
  O  O2  1  0.11487700  0.61487700  0.88512300  1
  O  O3  1  0.12268100  0.15523200  0.86733100  1
  O  O4  1  0.12731900  0.38266900  0.09476800  1
  O  O5  1  0.13512300  0.36487700  0.63512300  1
  O  O6  1  0.13266900  0.62268100  0.34476800  1
  O  O7  1  0.15523200  0.86733100  0.12268100  1
  O  O8  1  0.34476800  0.13266900  0.62268100  1
  O  O9  1  0.36733100  0.37731900  0.84476800  1
  O  O10  1  0.36487700  0.63512300  0.13512300  1
  O  O11  1  0.37268100  0.61733100  0.59476800  1
  O  O12  1  0.37731900  0.84476800  0.36733100  1
  O  O13  1  0.38512300  0.38512300  0.38512300  1
  O  O14  1  0.38266900  0.09476800  0.12731900  1
  O  O15  1  0.40523200  0.87268100  0.88266900  1
  O  O16  1  0.59476800  0.37268100  0.61733100  1
  O  O17  1  0.61733100  0.59476800  0.37268100  1
  O  O18  1  0.61487700  0.88512300  0.11487700  1
  O  O19  1  0.62268100  0.34476800  0.13266900  1
  O  O20  1  0.62731900  0.11733100  0.90523200  1
  O  O21  1  0.63512300  0.13512300  0.36487700  1
  O  O22  1  0.63266900  0.87731900  0.65523200  1
  O  O23  1  0.65523200  0.63266900  0.87731900  1
  O  O24  1  0.84476800  0.36733100  0.37731900  1
  O  O25  1  0.86733100  0.12268100  0.15523200  1
  O  O26  1  0.86487700  0.86487700  0.86487700  1
  O  O27  1  0.87268100  0.88266900  0.40523200  1
  O  O28  1  0.87731900  0.65523200  0.63266900  1
  O  O29  1  0.88512300  0.11487700  0.61487700  1
  O  O30  1  0.88266900  0.40523200  0.87268100  1
  O  O31  1  0.90523200  0.62731900  0.11733100  1
loop_
_geom_bond_atom_site_label_1
_geom_bond_atom_site_label_2
_geom_bond_distance
_geom_bond_site_symmetry_2
Li0 O26 1.971751 1_555
Li0 O7 2.012076 1_656
Li0 O25 2.012076 1_566
Li0 O3 2.012076 1_665
Li1 O13 1.971751 1_555
Li1 O4 2.012076 1_555
Li1 O14 2.012076 1_555
Li1 O0 2.012076 1_555
Li2 O2 1.971751 1_555
Li2 O15 2.012076 1_555
Li2 O1 2.012076 1_555
Li2 O11 2.012076 1_555
Li3 O21 1.971751 1_555
Li3 O22 2.012076 1_545
Li3 O8 2.012076 1_555
Li3 O12 2.012076 1_545
Li4 O10 1.971751 1_555
Li4 O23 2.012076 1_554
Li4 O19 2.012076 1_555
Li4 O9 2.012076 1_554
Li5 O29 1.971751 1_555
Li5 O30 2.012076 1_555
Li5 O20 2.012076 1_555
Li5 O16 2.012076 1_555
Li6 O18 1.971751 1_555
Li6 O27 2.012076 1_555
Li6 O31 2.012076 1_555
Li6 O17 2.012076 1_555
Li7 O5 1.971751 1_555
Li7 O28 2.012076 1_455
Li7 O6 2.012076 1_555
Li7 O24 2.012076 1_455
Ni0 O8 1.936399 1_555
Ni0 O1 1.936399 1_545
Ni0 O5 1.952535 1_555
Ni0 O29 1.952535 1_455
Ni0 O3 2.053772 1_555
Ni0 O0 2.053772 1_555
Ni1 O4 1.936399 1_556
Ni1 O3 1.936399 1_555
Ni1 O5 1.952535 1_555
Ni1 O2 1.952535 1_555
Ni1 O9 2.053772 1_555
Ni1 O30 2.053772 1_455
Ni2 O6 1.936399 1_555
Ni2 O31 1.936399 1_455
Ni2 O10 1.952535 1_555
Ni2 O2 1.952535 1_554
Ni2 O7 2.053772 1_555
Ni2 O4 2.053772 1_555
Ni3 O9 1.936399 1_555
Ni3 O16 1.936399 1_555
Ni3 O5 1.952535 1_555
Ni3 O13 1.952535 1_555
Ni3 O11 2.053772 1_555
Ni3 O8 2.053772 1_555
Ni4 O11 1.936399 1_555
Ni4 O12 1.936399 1_555
Ni4 O13 1.952535 1_555
Ni4 O10 1.952535 1_555
Ni4 O17 2.053772 1_555
Ni4 O6 2.053772 1_555
Ni5 O14 1.936399 1_565
Ni5 O7 1.936399 1_555
Ni5 O10 1.952535 1_555
Ni5 O18 1.952535 1_555
Ni5 O12 2.053772 1_555
Ni5 O15 2.053772 1_554
Ni6 O17 1.936399 1_555
Ni6 O24 1.936399 1_555
Ni6 O21 1.952535 1_555
Ni6 O13 1.952535 1_555
Ni6 O16 2.053772 1_555
Ni6 O19 2.053772 1_555
Ni7 O19 1.936399 1_555
Ni7 O20 1.936399 1_554
Ni7 O21 1.952535 1_555
Ni7 O18 1.952535 1_545
Ni7 O25 2.053772 1_555
Ni7 O14 2.053772 1_555
Ni8 O22 1.936399 1_555
Ni8 O15 1.936399 1_555
Ni8 O26 1.952535 1_555
Ni8 O18 1.952535 1_556
Ni8 O20 2.053772 1_565
Ni8 O23 2.053772 1_555
Ni9 O0 1.936399 1_655
Ni9 O25 1.936399 1_555
Ni9 O21 1.952535 1_555
Ni9 O29 1.952535 1_555
Ni9 O24 2.053772 1_555
Ni9 O27 2.053772 1_545
Ni10 O28 1.936399 1_555
Ni10 O27 1.936399 1_555
Ni10 O26 1.952535 1_555
Ni10 O29 1.952535 1_565
Ni10 O1 2.053772 1_655
Ni10 O22 2.053772 1_555
Ni11 O23 1.936399 1_555
Ni11 O30 1.936399 1_555
Ni11 O26 1.952535 1_555
Ni11 O2 1.952535 1_655
Ni11 O31 2.053772 1_556
Ni11 O28 2.053772 1_555
Bi0 O12 2.145978 1_555
Bi0 O1 2.145978 1_555
Bi0 O7 2.145978 1_555
Bi0 O0 2.145978 1_565
Bi0 O27 2.145978 1_455
Bi0 O6 2.145978 1_555
Bi1 O9 2.145978 1_555
Bi1 O3 2.145978 1_555
Bi1 O20 2.145978 1_555
Bi1 O14 2.145978 1_556
Bi1 O15 2.145978 1_545
Bi1 O8 2.145978 1_555
Bi2 O23 2.145978 1_555
Bi2 O22 2.145978 1_555
Bi2 O28 2.145978 1_555
Bi2 O16 2.145978 1_555
Bi2 O17 2.145978 1_555
Bi2 O11 2.145978 1_555
Bi3 O24 2.145978 1_555
Bi3 O31 2.145978 1_555
Bi3 O25 2.145978 1_555
Bi3 O4 2.145978 1_655
Bi3 O30 2.145978 1_554
Bi3 O19 2.145978 1_555
