# generated using pymatgen
data_BePNO4
_symmetry_space_group_name_H-M   'P 1'
_cell_length_a   5.04820200
_cell_length_b   8.63358800
_cell_length_c   8.76949000
_cell_angle_alpha   90.00000000
_cell_angle_beta   90.00000000
_cell_angle_gamma   90.00000000
_symmetry_Int_Tables_number   1
_chemical_formula_structural   BePNO4
_chemical_formula_sum   'Be4 P4 N4 O16'
_cell_volume   382.21029586
_cell_formula_units_Z   4
loop_
 _symmetry_equiv_pos_site_id
 _symmetry_equiv_pos_as_xyz
  1  'x, y, z'
loop_
 _atom_site_type_symbol
 _atom_site_label
 _atom_site_symmetry_multiplicity
 _atom_site_fract_x
 _atom_site_fract_y
 _atom_site_fract_z
 _atom_site_occupancy
  Be  Be0  1  0.11831300  0.59615000  0.82271400  1
  Be  Be1  1  0.61831300  0.40385000  0.17728600  1
  Be  Be2  1  0.61831300  0.09615000  0.67728600  1
  Be  Be3  1  0.11831300  0.90385000  0.32271400  1
  P  P0  1  0.11808600  0.58387900  0.18034700  1
  P  P1  1  0.61808600  0.41612100  0.81965300  1
  P  P2  1  0.61808600  0.08387900  0.31965300  1
  P  P3  1  0.11808600  0.91612100  0.68034700  1
  N  N0  1  0.63044000  0.68362100  0.49688600  1
  N  N1  1  0.13044000  0.31637900  0.50311400  1
  N  N2  1  0.13044000  0.18362100  0.00311400  1
  N  N3  1  0.63044000  0.81637900  0.99688600  1
  O  O0  1  0.83638500  0.53304400  0.22445400  1
  O  O1  1  0.33638500  0.46695600  0.77554600  1
  O  O2  1  0.33638500  0.03304400  0.27554600  1
  O  O3  1  0.83638500  0.96695600  0.72445400  1
  O  O4  1  0.31969800  0.45658100  0.22109600  1
  O  O5  1  0.81969800  0.54341900  0.77890400  1
  O  O6  1  0.81969800  0.95658100  0.27890400  1
  O  O7  1  0.31969800  0.04341900  0.72109600  1
  O  O8  1  0.19095000  0.73529900  0.25822100  1
  O  O9  1  0.69095000  0.26470100  0.74177900  1
  O  O10  1  0.69095000  0.23529900  0.24177900  1
  O  O11  1  0.19095000  0.76470100  0.75822100  1
  O  O12  1  0.13002900  0.61171500  0.00650700  1
  O  O13  1  0.63002900  0.38828500  0.99349300  1
  O  O14  1  0.63002900  0.11171500  0.49349300  1
  O  O15  1  0.13002900  0.88828500  0.50650700  1
loop_
_geom_bond_atom_site_label_1
_geom_bond_atom_site_label_2
_geom_bond_distance
_geom_bond_site_symmetry_2
Be0 O11 1.603726 1_555
Be0 O12 1.618444 1_556
Be0 O1 1.620849 1_555
Be0 O5 1.620902 1_455
Be1 O10 1.603726 1_555
Be1 O13 1.618444 1_554
Be1 O0 1.620849 1_555
Be1 O4 1.620902 1_555
Be2 O9 1.603726 1_555
Be2 O14 1.618444 1_555
Be2 O3 1.620849 1_545
Be2 O7 1.620902 1_555
Be3 O8 1.603726 1_555
Be3 O15 1.618444 1_555
Be3 O2 1.620849 1_565
Be3 O6 1.620902 1_455
O0 P0 1.537711 1_655
O1 P1 1.537711 1_555
O2 P2 1.537711 1_555
O3 P3 1.537711 1_655
O4 P0 1.539953 1_555
O5 P1 1.539953 1_555
O6 P2 1.539953 1_565
O7 P3 1.539953 1_545
O8 P0 1.520099 1_555
O9 P1 1.520099 1_555
O10 P2 1.520099 1_555
O11 P3 1.520099 1_555
O12 P0 1.544492 1_555
O13 P1 1.544492 1_555
O14 P2 1.544492 1_555
O15 P3 1.544492 1_555
