# generated using pymatgen
data_AlVO3
_symmetry_space_group_name_H-M   'P 1'
_cell_length_a   13.21367952
_cell_length_b   13.21367952
_cell_length_c   5.83720921
_cell_angle_alpha   77.30273421
_cell_angle_beta   77.30273421
_cell_angle_gamma   25.71058258
_symmetry_Int_Tables_number   1
_chemical_formula_structural   AlVO3
_chemical_formula_sum   'Al8 V8 O24'
_cell_volume   430.76494273
_cell_formula_units_Z   8
loop_
 _symmetry_equiv_pos_site_id
 _symmetry_equiv_pos_as_xyz
  1  'x, y, z'
loop_
 _atom_site_type_symbol
 _atom_site_label
 _atom_site_symmetry_multiplicity
 _atom_site_fract_x
 _atom_site_fract_y
 _atom_site_fract_z
 _atom_site_occupancy
  Al  Al0  1  0.00377500  0.00377500  0.99193700  1
  Al  Al1  1  0.53964200  0.53964200  0.69918900  1
  Al  Al2  1  0.53949000  0.53949000  0.21783900  1
  Al  Al3  1  0.66140000  0.66140000  0.34173500  1
  Al  Al4  1  0.20778900  0.20778900  0.53944000  1
  Al  Al5  1  0.75391100  0.75391100  0.74400300  1
  Al  Al6  1  0.87778300  0.87778300  0.86540800  1
  Al  Al7  1  0.41502300  0.41502300  0.07462300  1
  V  V0  1  0.88130000  0.36939500  0.87327600  1
  V  V1  1  0.36939500  0.88130000  0.87327600  1
  V  V2  1  0.20746100  0.20746100  0.04112300  1
  V  V3  1  0.53432200  0.04709500  0.20583800  1
  V  V4  1  0.04709500  0.53432200  0.20583800  1
  V  V5  1  0.87777300  0.87777300  0.37462500  1
  V  V6  1  0.70917500  0.20929900  0.53870400  1
  V  V7  1  0.20929900  0.70917500  0.53870400  1
  O  O0  1  0.74183100  0.32923900  0.46195200  1
  O  O1  1  0.32923900  0.74183100  0.46195200  1
  O  O2  1  0.77187800  0.31194200  0.95520500  1
  O  O3  1  0.31194200  0.77187800  0.95520500  1
  O  O4  1  0.61914400  0.61914400  0.12741300  1
  O  O5  1  0.61879300  0.61879300  0.63683400  1
  O  O6  1  0.12978300  0.12978300  0.09418700  1
  O  O7  1  0.13595900  0.13595900  0.64310500  1
  O  O8  1  0.45861600  0.96357300  0.78155000  1
  O  O9  1  0.96357300  0.45861600  0.78155000  1
  O  O10  1  0.95810700  0.45100200  0.30095300  1
  O  O11  1  0.45100200  0.95810700  0.30095300  1
  O  O12  1  0.28481900  0.28481900  0.98817100  1
  O  O13  1  0.27994700  0.27994700  0.43818000  1
  O  O14  1  0.79470200  0.79470200  0.44702500  1
  O  O15  1  0.79694100  0.79694100  0.95469700  1
  O  O16  1  0.11411900  0.63566600  0.10782800  1
  O  O17  1  0.63566600  0.11411900  0.10782800  1
  O  O18  1  0.66844200  0.09587100  0.62896200  1
  O  O19  1  0.09587100  0.66844200  0.62896200  1
  O  O20  1  0.95795800  0.95795800  0.79956200  1
  O  O21  1  0.96041900  0.96041900  0.28565100  1
  O  O22  1  0.46082900  0.46082900  0.78972400  1
  O  O23  1  0.45966800  0.45966800  0.27659400  1
loop_
_geom_bond_atom_site_label_1
_geom_bond_atom_site_label_2
_geom_bond_distance
_geom_bond_site_symmetry_2
Al0 O20 1.803388 1_445
Al0 O21 1.823099 1_446
Al0 O3 1.853992 1_545
Al0 O2 1.853992 1_455
Al1 O1 1.861792 1_555
Al1 O0 1.861792 1_555
Al1 O22 1.979597 1_555
Al1 O5 1.989127 1_555
Al1 O2 2.025941 1_555
Al1 O3 2.025941 1_555
Al2 O0 1.856525 1_555
Al2 O1 1.856525 1_555
Al2 O4 2.000506 1_555
Al2 O23 2.007294 1_555
Al2 O3 2.034548 1_554
Al2 O2 2.034548 1_554
Al3 O5 1.821991 1_555
Al3 O4 1.834277 1_555
Al3 O11 1.842876 1_555
Al3 O10 1.842876 1_555
Al4 O7 1.812812 1_555
Al4 O13 1.819425 1_555
Al4 O10 2.024100 1_455
Al4 O11 2.024100 1_545
Al4 O9 2.043751 1_455
Al4 O8 2.043751 1_545
Al5 O14 1.813329 1_555
Al5 O15 1.832080 1_555
Al5 O8 1.832977 1_555
Al5 O9 1.832977 1_555
Al6 O19 1.851088 1_655
Al6 O18 1.851088 1_565
Al6 O16 1.984680 1_656
Al6 O17 1.984680 1_566
Al6 O20 2.014167 1_555
Al6 O15 2.029922 1_555
Al7 O22 1.809280 1_554
Al7 O23 1.823328 1_555
Al7 O16 1.835016 1_555
Al7 O17 1.835016 1_555
O0 V6 1.932324 1_555
O1 V7 1.932324 1_555
O2 V0 2.099992 1_555
O3 V1 2.099992 1_555
O4 V0 2.093834 1_554
O4 V1 2.093834 1_554
O5 V1 2.074449 1_555
O5 V0 2.074449 1_555
O6 V0 1.949722 1_454
O6 V1 1.949722 1_544
O6 V2 1.954970 1_555
O7 V1 1.942511 1_545
O7 V0 1.942511 1_455
O8 V2 2.087752 1_566
O8 V1 2.152810 1_555
O9 V2 2.087752 1_656
O9 V0 2.152810 1_555
O10 V2 2.086745 1_655
O10 V4 2.163363 1_655
O11 V2 2.086745 1_565
O11 V3 2.163363 1_565
O12 V4 1.943212 1_556
O12 V3 1.943212 1_556
O12 V2 1.946871 1_556
O13 V4 1.948961 1_555
O13 V3 1.948961 1_555
O14 V3 2.080994 1_565
O14 V4 2.080994 1_655
O14 V5 2.086078 1_555
O15 V3 2.083568 1_566
O15 V4 2.083568 1_656
O16 V5 2.112227 1_455
O16 V4 2.117195 1_555
O17 V5 2.112227 1_545
O17 V3 2.117195 1_555
O18 V6 1.948221 1_555
O18 V5 1.967612 1_545
O19 V7 1.948221 1_555
O19 V5 1.967612 1_455
O20 V6 2.111600 1_565
O20 V7 2.111600 1_655
O21 V5 2.074921 1_555
O21 V6 2.079511 1_565
O21 V7 2.079511 1_655
O22 V6 2.082173 1_555
O22 V7 2.082173 1_555
O23 V7 2.119675 1_555
O23 V6 2.119675 1_555
