# generated using pymatgen
data_Ti3Nb2Cr3O16
_symmetry_space_group_name_H-M   'P 1'
_cell_length_a   5.94744800
_cell_length_b   5.97570204
_cell_length_c   9.38887053
_cell_angle_alpha   90.15140962
_cell_angle_beta   90.63583471
_cell_angle_gamma   119.74109945
_symmetry_Int_Tables_number   1
_chemical_formula_structural   Ti3Nb2Cr3O16
_chemical_formula_sum   'Ti3 Nb2 Cr3 O16'
_cell_volume   289.69754361
_cell_formula_units_Z   1
loop_
 _symmetry_equiv_pos_site_id
 _symmetry_equiv_pos_as_xyz
  1  'x, y, z'
loop_
 _atom_site_type_symbol
 _atom_site_label
 _atom_site_symmetry_multiplicity
 _atom_site_fract_x
 _atom_site_fract_y
 _atom_site_fract_z
 _atom_site_occupancy
  Ti  Ti0  1  0.65432500  0.82019600  0.71717200  1
  Ti  Ti1  1  0.82443300  0.16642700  0.21944800  1
  Ti  Ti2  1  0.82472900  0.65689800  0.22097800  1
  Nb  Nb0  1  0.65856100  0.32693200  0.49915000  1
  Nb  Nb1  1  0.31963800  0.65668200  0.99805000  1
  Cr  Cr0  1  0.33844100  0.16869400  0.20759600  1
  Cr  Cr1  1  0.16780300  0.33825200  0.70914500  1
  Cr  Cr2  1  0.17537500  0.83587400  0.71786800  1
  O  O0  1  0.82519300  0.16752200  0.59952200  1
  O  O1  1  0.96075300  0.47920100  0.33551800  1
  O  O2  1  0.67947600  0.33959900  0.10564100  1
  O  O3  1  0.99784200  0.99860200  0.30564900  1
  O  O4  1  0.00640100  0.99650800  0.80228900  1
  O  O5  1  0.82874800  0.65769100  0.60005200  1
  O  O6  1  0.52966600  0.04583700  0.33619800  1
  O  O7  1  0.52914400  0.48408400  0.33602400  1
  O  O8  1  0.65693400  0.82919100  0.09873100  1
  O  O9  1  0.33794400  0.16760000  0.59900800  1
  O  O10  1  0.48755400  0.53170800  0.83483900  1
  O  O11  1  0.47878300  0.95861600  0.83329600  1
  O  O12  1  0.33182400  0.67595500  0.60711400  1
  O  O13  1  0.16710200  0.33789600  0.09816400  1
  O  O14  1  0.05025600  0.53143300  0.83517500  1
  O  O15  1  0.16907300  0.82840600  0.09909300  1
loop_
_geom_bond_atom_site_label_1
_geom_bond_atom_site_label_2
_geom_bond_distance
_geom_bond_site_symmetry_2
Nb0 O9 1.914340 1_555
Nb0 O0 1.923101 1_555
Nb0 O5 1.952568 1_555
Nb0 O6 2.105396 1_555
Nb0 O7 2.125708 1_555
Nb0 O1 2.205568 1_555
Nb1 O13 1.910284 1_556
Nb1 O15 1.918417 1_556
Nb1 O8 1.970147 1_556
Nb1 O14 2.053134 1_555
Nb1 O10 2.161273 1_555
Nb1 O11 2.212892 1_555
Cr0 O3 1.996893 1_445
Cr0 O2 2.016512 1_555
Cr0 O6 2.023102 1_555
Cr0 O13 2.030001 1_555
Cr0 O15 2.030130 1_545
Cr0 O7 2.032029 1_555
Cr1 O4 1.984884 1_545
Cr1 O12 2.004861 1_555
Cr1 O14 2.008327 1_555
Cr1 O10 2.026662 1_555
Cr1 O0 2.034098 1_455
Cr1 O9 2.043190 1_555
Cr2 O4 1.878928 1_555
Cr2 O11 1.899452 1_555
Cr2 O12 1.938748 1_555
Cr2 O14 1.939604 1_555
Cr2 O9 2.060034 1_565
Cr2 O5 2.091073 1_455
O0 Ti0 2.122497 1_545
O1 Ti2 1.943593 1_555
O1 Ti1 1.950488 1_555
O2 Ti1 1.956120 1_555
O2 Ti2 1.964000 1_555
O3 Ti1 1.932975 1_565
O3 Ti2 1.936196 1_555
O4 Ti0 1.975568 1_455
O5 Ti0 2.060938 1_555
O6 Ti1 1.894107 1_555
O7 Ti2 1.889571 1_555
O8 Ti1 2.075851 1_565
O8 Ti2 2.091296 1_555
O10 Ti0 1.874587 1_555
O11 Ti0 1.959638 1_555
O12 Ti0 1.949525 1_555
O13 Ti1 2.117984 1_455
O15 Ti2 2.128346 1_455
