# generated using pymatgen
data_Li3Mn5OF11
_symmetry_space_group_name_H-M   'P 1'
_cell_length_a   5.36356000
_cell_length_b   5.76604003
_cell_length_c   9.41967062
_cell_angle_alpha   106.56605747
_cell_angle_beta   89.13972845
_cell_angle_gamma   116.86396406
_symmetry_Int_Tables_number   1
_chemical_formula_structural   Li3Mn5OF11
_chemical_formula_sum   'Li3 Mn5 O1 F11'
_cell_volume   246.87495580
_cell_formula_units_Z   1
loop_
 _symmetry_equiv_pos_site_id
 _symmetry_equiv_pos_as_xyz
  1  'x, y, z'
loop_
 _atom_site_type_symbol
 _atom_site_label
 _atom_site_symmetry_multiplicity
 _atom_site_fract_x
 _atom_site_fract_y
 _atom_site_fract_z
 _atom_site_occupancy
  Li  Li0  1  0.52076500  0.04543900  0.49818500  1
  Li  Li1  1  0.77357700  0.01144900  0.25740900  1
  Li  Li2  1  0.30942700  0.03746000  0.77882900  1
  Mn  Mn0  1  0.44585500  0.56964000  0.14998700  1
  Mn  Mn1  1  0.98451500  0.00947200  0.99914000  1
  Mn  Mn2  1  0.95113900  0.63059800  0.63993200  1
  Mn  Mn3  1  0.21208000  0.58701000  0.41032800  1
  Mn  Mn4  1  0.67014100  0.61036100  0.89497600  1
  O  O0  1  0.56731600  0.80169500  0.95605500  1
  F  F0  1  0.44047200  0.48416500  0.34912500  1
  F  F1  1  0.51708800  0.07945900  0.30781800  1
  F  F2  1  0.02373000  0.13528500  0.79135000  1
  F  F3  1  0.42875500  0.09638000  0.04761400  1
  F  F4  1  0.92649200  0.11340600  0.53785800  1
  F  F5  1  0.94362900  0.51904800  0.84780000  1
  F  F6  1  0.99988900  0.47055500  0.10838700  1
  F  F7  1  0.04196200  0.80733600  0.44384700  1
  F  F8  1  0.40154500  0.81500800  0.68664200  1
  F  F9  1  0.91323900  0.80198300  0.20909500  1
  F  F10  1  0.50302300  0.47377500  0.61049900  1
loop_
_geom_bond_atom_site_label_1
_geom_bond_atom_site_label_2
_geom_bond_distance
_geom_bond_site_symmetry_2
Li0 Mn3 2.291668 1_545
Li1 Mn0 2.267138 1_545
Mn0 O0 2.474304 1_554
Mn1 O0 1.983535 1_545
Mn4 O0 1.425032 1_555
F0 Mn3 1.620182 1_555
F0 Mn0 2.067636 1_555
F1 Li1 1.622818 1_555
F1 Li0 1.859989 1_555
F2 Li2 1.848775 1_555
F2 Mn1 2.249671 1_455
F3 Mn1 2.227108 1_454
F3 Li2 2.509391 1_554
F3 Mn0 2.580846 1_555
F4 Li0 2.049145 1_555
F5 Mn4 1.780840 1_555
F5 Mn2 2.222988 1_555
F6 Mn0 2.206103 1_655
F6 Mn1 2.525540 1_554
F7 Mn3 1.832044 1_555
F7 Li0 2.279102 1_565
F7 Mn2 2.298942 1_455
F8 Li2 1.602537 1_565
F8 Mn2 2.145662 1_455
F8 Li0 2.422539 1_565
F9 Li1 1.649538 1_565
F9 Mn0 2.229452 1_555
F9 Mn1 2.530222 1_564
F10 Mn2 2.141077 1_555
F10 Li0 2.438776 1_555
F10 Mn4 2.614398 1_555
