# generated using pymatgen
data_Ti2Ni3Te3O16
_symmetry_space_group_name_H-M   'P 1'
_cell_length_a   6.09170122
_cell_length_b   6.09170122
_cell_length_c   9.31041101
_cell_angle_alpha   88.81246781
_cell_angle_beta   88.81246781
_cell_angle_gamma   59.79947111
_symmetry_Int_Tables_number   1
_chemical_formula_structural   Ti2Ni3Te3O16
_chemical_formula_sum   'Ti2 Ni3 Te3 O16'
_cell_volume   298.51861420
_cell_formula_units_Z   1
loop_
 _symmetry_equiv_pos_site_id
 _symmetry_equiv_pos_as_xyz
  1  'x, y, z'
loop_
 _atom_site_type_symbol
 _atom_site_label
 _atom_site_symmetry_multiplicity
 _atom_site_fract_x
 _atom_site_fract_y
 _atom_site_fract_z
 _atom_site_occupancy
  Ti  Ti0  1  0.67718800  0.67718800  0.48690700  1
  Ti  Ti1  1  0.36227800  0.36227800  0.03989300  1
  Ni  Ni0  1  0.82655600  0.82655600  0.78974400  1
  Ni  Ni1  1  0.16743700  0.66911900  0.29536900  1
  Ni  Ni2  1  0.66911900  0.16743700  0.29536900  1
  Te  Te0  1  0.32920900  0.82683800  0.78490900  1
  Te  Te1  1  0.82683800  0.32920900  0.78490900  1
  Te  Te2  1  0.17042000  0.17042000  0.28635300  1
  O  O0  1  0.34662400  0.84414400  0.40146300  1
  O  O1  1  0.51013400  0.51013400  0.66447400  1
  O  O2  1  0.65114100  0.65114100  0.90283200  1
  O  O3  1  0.00045600  0.00045600  0.67625100  1
  O  O4  1  0.01175900  0.01175900  0.19278100  1
  O  O5  1  0.84414400  0.34662400  0.40146300  1
  O  O6  1  0.50366500  0.94771300  0.66461400  1
  O  O7  1  0.94771300  0.50366500  0.66461400  1
  O  O8  1  0.15461900  0.15461900  0.89226900  1
  O  O9  1  0.82825900  0.82825900  0.40934000  1
  O  O10  1  0.04989800  0.46832500  0.15293000  1
  O  O11  1  0.46832500  0.04989800  0.15293000  1
  O  O12  1  0.32166200  0.32166200  0.39710000  1
  O  O13  1  0.17527900  0.67009000  0.89553200  1
  O  O14  1  0.48701200  0.48701200  0.15671200  1
  O  O15  1  0.67009000  0.17527900  0.89553200  1
loop_
_geom_bond_atom_site_label_1
_geom_bond_atom_site_label_2
_geom_bond_distance
_geom_bond_site_symmetry_2
Ni0 O6 2.090388 1_555
Ni0 O7 2.090388 1_555
Ni0 O3 2.096948 1_665
Ni0 O13 2.098109 1_655
Ni0 O15 2.098109 1_565
Ni0 O2 2.108980 1_555
Ni1 O4 2.032678 1_565
Ni1 O12 2.052554 1_555
Ni1 O9 2.066749 1_455
Ni1 O14 2.114131 1_555
Ni1 O0 2.136162 1_555
Ni1 O10 2.180656 1_555
Ni2 O4 2.032678 1_655
Ni2 O12 2.052554 1_555
Ni2 O9 2.066749 1_545
Ni2 O14 2.114131 1_555
Ni2 O5 2.136162 1_555
Ni2 O11 2.180656 1_555
O0 Ti0 1.922147 1_555
O0 Te2 2.015995 1_565
O1 Te1 2.023200 1_555
O1 Te0 2.023200 1_555
O1 Ti0 2.388878 1_555
O2 Te0 2.031198 1_555
O2 Te1 2.031198 1_555
O3 Te0 2.015294 1_545
O3 Te1 2.015294 1_455
O4 Te2 1.907064 1_555
O5 Ti0 1.922147 1_555
O5 Te2 2.015995 1_655
O6 Te0 1.905185 1_555
O6 Ti0 2.204217 1_555
O7 Te1 1.905185 1_555
O7 Ti0 2.204217 1_555
O8 Te0 2.004850 1_545
O8 Te1 2.004850 1_455
O8 Ti1 2.616020 1_556
O9 Ti0 1.735604 1_555
O10 Ti1 1.963279 1_555
O10 Te2 1.994841 1_555
O11 Ti1 1.963279 1_555
O11 Te2 1.994841 1_555
O12 Te2 1.921863 1_555
O13 Te0 1.916199 1_555
O13 Ti1 2.104804 1_556
O14 Ti1 1.728304 1_555
O15 Te1 1.916199 1_555
O15 Ti1 2.104804 1_556
