# generated using pymatgen
data_Mn2O3F
_symmetry_space_group_name_H-M   'P 1'
_cell_length_a   5.47942197
_cell_length_b   5.47942197
_cell_length_c   10.04876397
_cell_angle_alpha   69.57162079
_cell_angle_beta   69.57162079
_cell_angle_gamma   66.63751891
_symmetry_Int_Tables_number   1
_chemical_formula_structural   Mn2O3F
_chemical_formula_sum   'Mn8 O12 F4'
_cell_volume   251.65099696
_cell_formula_units_Z   4
loop_
 _symmetry_equiv_pos_site_id
 _symmetry_equiv_pos_as_xyz
  1  'x, y, z'
loop_
 _atom_site_type_symbol
 _atom_site_label
 _atom_site_symmetry_multiplicity
 _atom_site_fract_x
 _atom_site_fract_y
 _atom_site_fract_z
 _atom_site_occupancy
  Mn  Mn0  1  0.88042500  0.36967800  0.75164500  1
  Mn  Mn1  1  0.50000000  0.50000000  0.50000000  1
  Mn  Mn2  1  0.72917300  0.72917300  0.01429500  1
  Mn  Mn3  1  0.36967800  0.88042500  0.75164500  1
  Mn  Mn4  1  0.63032200  0.11957500  0.24835500  1
  Mn  Mn5  1  0.11957500  0.63032200  0.24835500  1
  Mn  Mn6  1  0.00000000  0.00000000  0.50000000  1
  Mn  Mn7  1  0.27082700  0.27082700  0.98570500  1
  O  O0  1  0.73344900  0.73344900  0.34538000  1
  O  O1  1  0.80029000  0.29437000  0.59705500  1
  O  O2  1  0.19971000  0.70563000  0.40294500  1
  O  O3  1  0.70563000  0.19971000  0.40294500  1
  O  O4  1  0.45482700  0.95453000  0.90360800  1
  O  O5  1  0.51221100  0.51221100  0.15557900  1
  O  O6  1  0.26655100  0.26655100  0.65462000  1
  O  O7  1  0.48778900  0.48778900  0.84442100  1
  O  O8  1  0.54517300  0.04547000  0.09639200  1
  O  O9  1  0.29437000  0.80029000  0.59705500  1
  O  O10  1  0.04547000  0.54517300  0.09639200  1
  O  O11  1  0.95453000  0.45482700  0.90360800  1
  F  F0  1  0.78577200  0.78577200  0.64203700  1
  F  F1  1  0.21422800  0.21422800  0.35796300  1
  F  F2  1  0.95796400  0.95796400  0.86264400  1
  F  F3  1  0.04203600  0.04203600  0.13735600  1
loop_
_geom_bond_atom_site_label_1
_geom_bond_atom_site_label_2
_geom_bond_distance
_geom_bond_site_symmetry_2
Mn0 O6 1.934605 1_655
Mn0 O11 1.948042 1_555
Mn0 O7 1.957899 1_555
Mn0 O1 1.960506 1_555
Mn1 O9 1.952146 1_555
Mn1 O1 1.952146 1_555
Mn1 O2 1.952146 1_555
Mn1 O3 1.952146 1_555
Mn1 O0 2.051712 1_555
Mn1 O6 2.051712 1_555
Mn2 O5 1.899132 1_555
Mn2 O10 1.931954 1_655
Mn2 O8 1.931954 1_565
Mn2 O4 1.938543 1_554
Mn2 O11 1.938543 1_554
Mn3 O6 1.934605 1_565
Mn3 O4 1.948042 1_555
Mn3 O7 1.957899 1_555
Mn3 O9 1.960506 1_555
Mn4 O0 1.934605 1_545
Mn4 O8 1.948042 1_555
Mn4 O5 1.957899 1_555
Mn4 O3 1.960506 1_555
Mn5 O0 1.934605 1_455
Mn5 O10 1.948042 1_555
Mn5 O5 1.957899 1_555
Mn5 O2 1.960506 1_555
Mn6 O9 1.924478 1_545
Mn6 O3 1.924478 1_455
Mn6 O1 1.924478 1_455
Mn6 O2 1.924478 1_545
Mn7 O7 1.899132 1_555
Mn7 O11 1.931954 1_455
Mn7 O4 1.931954 1_545
Mn7 O8 1.938543 1_556
Mn7 O10 1.938543 1_556
F0 Mn6 1.883263 1_665
F0 Mn3 2.094821 1_555
F0 Mn0 2.094821 1_555
F1 Mn6 1.883263 1_555
F1 Mn4 2.094821 1_555
F1 Mn5 2.094821 1_555
F2 Mn2 2.011151 1_556
F2 Mn0 2.080399 1_565
F2 Mn3 2.080399 1_655
F3 Mn7 2.011151 1_554
F3 Mn5 2.080399 1_545
F3 Mn4 2.080399 1_455
