# generated using pymatgen
data_ErNbO4
_symmetry_space_group_name_H-M   'P 1'
_cell_length_a   5.80573400
_cell_length_b   5.08655900
_cell_length_c   5.30768290
_cell_angle_alpha   86.46271209
_cell_angle_beta   90.00000000
_cell_angle_gamma   90.00000000
_symmetry_Int_Tables_number   1
_chemical_formula_structural   ErNbO4
_chemical_formula_sum   'Er2 Nb2 O8'
_cell_volume   156.44367390
_cell_formula_units_Z   2
loop_
 _symmetry_equiv_pos_site_id
 _symmetry_equiv_pos_as_xyz
  1  'x, y, z'
loop_
 _atom_site_type_symbol
 _atom_site_label
 _atom_site_symmetry_multiplicity
 _atom_site_fract_x
 _atom_site_fract_y
 _atom_site_fract_z
 _atom_site_occupancy
  Er  Er0  1  0.20368300  0.00000000  0.75000000  1
  Er  Er1  1  0.79631700  0.00000000  0.25000000  1
  Nb  Nb0  1  0.68253100  0.50000000  0.75000000  1
  Nb  Nb1  1  0.31746900  0.50000000  0.25000000  1
  O  O0  1  0.88906200  0.24119200  0.89485600  1
  O  O1  1  0.40635500  0.28423000  0.95950000  1
  O  O2  1  0.40635500  0.71577000  0.54050000  1
  O  O3  1  0.88906200  0.75880800  0.60514400  1
  O  O4  1  0.11093800  0.24119200  0.39485600  1
  O  O5  1  0.59364500  0.28423000  0.45950000  1
  O  O6  1  0.59364500  0.71577000  0.04050000  1
  O  O7  1  0.11093800  0.75880800  0.10514400  1
loop_
_geom_bond_atom_site_label_1
_geom_bond_atom_site_label_2
_geom_bond_distance
_geom_bond_site_symmetry_2
Er0 O2 2.215752 1_545
Er0 O1 2.215752 1_555
Er0 O4 2.250087 1_555
Er0 O7 2.250087 1_546
Er0 O0 2.355662 1_455
Er0 O3 2.355662 1_445
Er1 O6 2.215752 1_545
Er1 O5 2.215752 1_555
Er1 O0 2.250087 1_554
Er1 O3 2.250087 1_545
Er1 O4 2.355662 1_655
Er1 O7 2.355662 1_645
Nb0 O3 1.907094 1_555
Nb0 O0 1.907094 1_555
Nb0 O6 2.014222 1_556
Nb0 O5 2.014222 1_555
Nb0 O2 2.204843 1_555
Nb0 O1 2.204843 1_555
Nb1 O7 1.907094 1_555
Nb1 O4 1.907094 1_555
Nb1 O1 2.014222 1_554
Nb1 O2 2.014222 1_555
Nb1 O6 2.204843 1_555
Nb1 O5 2.204843 1_555
