# generated using pymatgen
data_LiNi3O4
_symmetry_space_group_name_H-M   'P 1'
_cell_length_a   5.05549913
_cell_length_b   5.05586499
_cell_length_c   5.74442370
_cell_angle_alpha   89.99938082
_cell_angle_beta   90.00050304
_cell_angle_gamma   109.24046232
_symmetry_Int_Tables_number   1
_chemical_formula_structural   LiNi3O4
_chemical_formula_sum   'Li2 Ni6 O8'
_cell_volume   138.62583029
_cell_formula_units_Z   2
loop_
 _symmetry_equiv_pos_site_id
 _symmetry_equiv_pos_as_xyz
  1  'x, y, z'
loop_
 _atom_site_type_symbol
 _atom_site_label
 _atom_site_symmetry_multiplicity
 _atom_site_fract_x
 _atom_site_fract_y
 _atom_site_fract_z
 _atom_site_occupancy
  Li  Li0  1  0.00000091  0.50000089  0.25000430  1
  Li  Li1  1  0.00000048  0.50000037  0.75000296  1
  Ni  Ni0  1  0.49999640  0.00000339  0.75000013  1
  Ni  Ni1  1  0.99999080  0.00000090  0.50010822  1
  Ni  Ni2  1  0.50000995  0.50000153  0.00009205  1
  Ni  Ni3  1  0.49999573  0.00000199  0.24999960  1
  Ni  Ni4  1  -0.00000580  0.00000244  -0.00011689  1
  Ni  Ni5  1  0.50001073  0.50000084  0.49991588  1
  O  O0  1  0.28001853  0.78021220  0.00003935  1
  O  O1  1  0.28002121  0.78022294  0.49996341  1
  O  O2  1  0.71997532  0.21977861  0.00003493  1
  O  O3  1  0.71998833  0.21978525  0.49995871  1
  O  O4  1  0.75408230  0.74655149  0.25000014  1
  O  O5  1  0.75326854  0.74575762  0.75000043  1
  O  O6  1  0.24591782  0.25344094  0.24999675  1
  O  O7  1  0.24672976  0.25423660  0.74999704  1
loop_
_geom_bond_atom_site_label_1
_geom_bond_atom_site_label_2
_geom_bond_distance
_geom_bond_site_symmetry_2
Li0 O4 2.029989 1_455
Li0 O6 2.030021 1_555
Li0 O3 2.179661 1_455
Li0 O0 2.179703 1_555
Li0 O1 2.179714 1_555
Li0 O2 2.179765 1_455
Li1 O5 2.030072 1_455
Li1 O7 2.030088 1_555
Li1 O0 2.179979 1_556
Li1 O2 2.179996 1_456
Li1 O3 2.180003 1_455
Li1 O1 2.180017 1_555
Ni0 O2 1.928729 1_556
Ni0 O1 1.928740 1_545
Ni0 O0 1.928774 1_546
Ni0 O3 1.928793 1_555
Ni0 O7 2.091947 1_555
Ni0 O5 2.092022 1_545
Ni1 O4 2.049830 1_545
Ni1 O6 2.049856 1_655
Ni1 O5 2.052315 1_545
Ni1 O7 2.052323 1_655
Ni1 O3 2.067666 1_555
Ni1 O1 2.067763 1_645
Ni2 O5 2.049038 1_554
Ni2 O7 2.049119 1_554
Ni2 O4 2.051661 1_555
Ni2 O6 2.051709 1_555
Ni2 O2 2.069351 1_555
Ni2 O0 2.069398 1_555
Ni3 O1 1.928421 1_545
Ni3 O2 1.928430 1_555
Ni3 O0 1.928435 1_545
Ni3 O3 1.928448 1_555
Ni3 O6 2.092016 1_555
Ni3 O4 2.092099 1_545
Ni4 O6 2.049859 1_555
Ni4 O4 2.049872 1_445
Ni4 O5 2.052291 1_444
Ni4 O7 2.052298 1_554
Ni4 O2 2.067706 1_455
Ni4 O0 2.067784 1_545
Ni5 O5 2.049012 1_555
Ni5 O7 2.049060 1_555
Ni5 O4 2.051689 1_555
Ni5 O6 2.051770 1_555
Ni5 O3 2.069366 1_555
Ni5 O1 2.069441 1_555
