# generated using pymatgen
data_Li6Fe9CoO20
_symmetry_space_group_name_H-M   'P 1'
_cell_length_a   2.96550200
_cell_length_b   6.04231500
_cell_length_c   21.13245461
_cell_angle_alpha   82.76517126
_cell_angle_beta   90.00000000
_cell_angle_gamma   90.00000000
_symmetry_Int_Tables_number   1
_chemical_formula_structural   Li6Fe9CoO20
_chemical_formula_sum   'Li6 Fe9 Co1 O20'
_cell_volume   375.64704895
_cell_formula_units_Z   1
loop_
 _symmetry_equiv_pos_site_id
 _symmetry_equiv_pos_as_xyz
  1  'x, y, z'
loop_
 _atom_site_type_symbol
 _atom_site_label
 _atom_site_symmetry_multiplicity
 _atom_site_fract_x
 _atom_site_fract_y
 _atom_site_fract_z
 _atom_site_occupancy
  Li  Li0  1  0.00000000  0.60650200  0.80668400  1
  Li  Li1  1  0.50000000  0.38063900  0.69305000  1
  Li  Li2  1  0.50000000  0.00353000  0.49964500  1
  Li  Li3  1  0.50000000  0.60966000  0.30628400  1
  Li  Li4  1  0.00000000  0.38884400  0.19266400  1
  Li  Li5  1  0.00000000  0.99966500  0.00066800  1
  Fe  Fe0  1  0.50000000  0.30142800  0.90032500  1
  Fe  Fe1  1  0.00000000  0.08199600  0.80527000  1
  Fe  Fe2  1  0.50000000  0.91386000  0.69782700  1
  Fe  Fe3  1  0.00000000  0.70232000  0.60043300  1
  Fe  Fe4  1  0.50000000  0.49931900  0.50043400  1
  Fe  Fe5  1  0.00000000  0.30173000  0.39959200  1
  Fe  Fe6  1  0.50000000  0.08493300  0.30228200  1
  Fe  Fe7  1  0.00000000  0.91229200  0.19540200  1
  Fe  Fe8  1  0.00000000  0.50309000  0.99985500  1
  Co  Co0  1  0.50000000  0.70002900  0.09930700  1
  O  O0  1  0.50000000  0.27294500  0.99128300  1
  O  O1  1  0.00000000  0.50935800  0.90274800  1
  O  O2  1  0.00000000  0.09325200  0.90025500  1
  O  O3  1  0.50000000  0.86023400  0.79532500  1
  O  O4  1  0.50000000  0.32529200  0.80974000  1
  O  O5  1  0.00000000  0.67258900  0.69351900  1
  O  O6  1  0.00000000  0.13610900  0.70784300  1
  O  O7  1  0.50000000  0.92014700  0.60141700  1
  O  O8  1  0.50000000  0.48427200  0.59748700  1
  O  O9  1  0.00000000  0.73083400  0.50781900  1
  O  O10  1  0.00000000  0.27330500  0.49414700  1
  O  O11  1  0.50000000  0.51927900  0.40328700  1
  O  O12  1  0.50000000  0.08478200  0.39880100  1
  O  O13  1  0.00000000  0.86157100  0.29270800  1
  O  O14  1  0.00000000  0.32764300  0.30497200  1
  O  O15  1  0.50000000  0.67566400  0.18893900  1
  O  O16  1  0.50000000  0.13569500  0.20445400  1
  O  O17  1  0.00000000  0.90209100  0.09966100  1
  O  O18  1  0.00000000  0.49746000  0.09692200  1
  O  O19  1  0.50000000  0.72738600  0.00930000  1
loop_
_geom_bond_atom_site_label_1
_geom_bond_atom_site_label_2
_geom_bond_distance
_geom_bond_site_symmetry_2
Li0 O1 2.040976 1_555
Li0 O3 2.124609 1_455
Li0 O3 2.124609 1_555
Li0 O4 2.249939 1_455
Li0 O4 2.249939 1_555
Li0 O5 2.374444 1_555
Li1 O8 2.037621 1_555
Li1 O6 2.088786 1_555
Li1 O6 2.088786 1_655
Li1 O5 2.305415 1_655
Li1 O5 2.305415 1_555
Li1 O4 2.446430 1_555
Li2 O12 2.125798 1_555
Li2 O7 2.146251 1_545
Li2 O10 2.195783 1_555
Li2 O10 2.195783 1_655
Li2 O9 2.207185 1_645
Li2 O9 2.207185 1_545
Li3 O11 2.053876 1_555
Li3 O13 2.118428 1_655
Li3 O13 2.118428 1_555
Li3 O14 2.261627 1_555
Li3 O14 2.261627 1_655
Li3 O15 2.461566 1_555
Li4 O18 2.046916 1_555
Li4 O16 2.122341 1_455
Li4 O16 2.122341 1_555
Li4 O15 2.274615 1_555
Li4 O15 2.274615 1_455
Li4 O14 2.355515 1_555
Li5 O17 2.100777 1_555
Li5 O2 2.126102 1_564
Li5 O19 2.205200 1_555
Li5 O19 2.205200 1_455
Li5 O0 2.209526 1_464
Li5 O0 2.209526 1_564
Fe0 O4 1.901512 1_555
Fe0 O0 1.908145 1_555
Fe0 O2 1.944543 1_555
Fe0 O2 1.944543 1_655
Fe0 O1 1.948297 1_655
Fe0 O1 1.948297 1_555
Fe1 O2 2.016960 1_555
Fe1 O3 2.027099 1_545
Fe1 O3 2.027099 1_445
Fe1 O6 2.043601 1_555
Fe1 O4 2.098466 1_555
Fe1 O4 2.098466 1_455
Fe2 O6 2.029365 1_565
Fe2 O6 2.029365 1_665
Fe2 O7 2.032945 1_555
Fe2 O3 2.044987 1_555
Fe2 O5 2.089390 1_555
Fe2 O5 2.089390 1_655
Fe3 O9 1.942996 1_555
Fe3 O5 1.952661 1_555
Fe3 O7 1.984491 1_555
Fe3 O7 1.984491 1_455
Fe3 O8 1.989706 1_455
Fe3 O8 1.989706 1_555
Fe4 O10 2.031476 1_555
Fe4 O10 2.031476 1_655
Fe4 O11 2.041275 1_555
Fe4 O8 2.041512 1_555
Fe4 O9 2.057857 1_555
Fe4 O9 2.057857 1_655
Fe5 O12 1.980587 1_555
Fe5 O12 1.980587 1_455
Fe5 O10 1.983880 1_555
Fe5 O14 1.985918 1_555
Fe5 O11 1.989575 1_455
Fe5 O11 1.989575 1_555
Fe6 O13 2.032177 1_545
Fe6 O13 2.032177 1_645
Fe6 O12 2.039569 1_555
Fe6 O16 2.051410 1_555
Fe6 O14 2.091289 1_555
Fe6 O14 2.091289 1_655
Fe7 O16 2.030353 1_465
Fe7 O16 2.030353 1_565
Fe7 O17 2.031925 1_555
Fe7 O13 2.040496 1_555
Fe7 O15 2.076214 1_455
Fe7 O15 2.076214 1_555
Fe8 O19 2.035503 1_456
Fe8 O19 2.035503 1_556
Fe8 O18 2.047258 1_556
Fe8 O1 2.047684 1_555
Fe8 O0 2.056357 1_455
Fe8 O0 2.056357 1_555
Co0 O15 1.881281 1_555
Co0 O19 1.888385 1_555
Co0 O17 1.921343 1_555
Co0 O17 1.921343 1_655
Co0 O18 1.927374 1_555
Co0 O18 1.927374 1_655
