# generated using pymatgen
data_Li2Ni3SnO8
_symmetry_space_group_name_H-M   'P 1'
_cell_length_a   8.41534700
_cell_length_b   8.41534700
_cell_length_c   8.13467300
_cell_angle_alpha   90.00000000
_cell_angle_beta   90.00000000
_cell_angle_gamma   90.00000000
_symmetry_Int_Tables_number   1
_chemical_formula_structural   Li2Ni3SnO8
_chemical_formula_sum   'Li8 Ni12 Sn4 O32'
_cell_volume   576.08180233
_cell_formula_units_Z   4
loop_
 _symmetry_equiv_pos_site_id
 _symmetry_equiv_pos_as_xyz
  1  'x, y, z'
loop_
 _atom_site_type_symbol
 _atom_site_label
 _atom_site_symmetry_multiplicity
 _atom_site_fract_x
 _atom_site_fract_y
 _atom_site_fract_z
 _atom_site_occupancy
  Li  Li0  1  0.49987100  0.74890900  0.87257500  1
  Li  Li1  1  0.74890900  0.49987100  0.12742500  1
  Li  Li2  1  0.25109100  0.50012900  0.62742500  1
  Li  Li3  1  0.50012900  0.25109100  0.37257500  1
  Li  Li4  1  0.00012900  0.24890900  0.87742500  1
  Li  Li5  1  0.75109100  0.99987100  0.62257500  1
  Li  Li6  1  0.24890900  0.00012900  0.12257500  1
  Li  Li7  1  0.99987100  0.75109100  0.37742500  1
  Ni  Ni0  1  0.63047400  0.63047400  0.50000000  1
  Ni  Ni1  1  0.87959200  0.62505000  0.74026800  1
  Ni  Ni2  1  0.12505000  0.62040800  0.99026800  1
  Ni  Ni3  1  0.87495000  0.37959200  0.49026800  1
  Ni  Ni4  1  0.12040800  0.37495000  0.24026800  1
  Ni  Ni5  1  0.36952600  0.36952600  0.00000000  1
  Ni  Ni6  1  0.86952600  0.13047400  0.25000000  1
  Ni  Ni7  1  0.62040800  0.12505000  0.00973200  1
  Ni  Ni8  1  0.37495000  0.12040800  0.75973200  1
  Ni  Ni9  1  0.62505000  0.87959200  0.25973200  1
  Ni  Ni10  1  0.37959200  0.87495000  0.50973200  1
  Ni  Ni11  1  0.13047400  0.86952600  0.75000000  1
  Sn  Sn0  1  0.37311900  0.62688100  0.25000000  1
  Sn  Sn1  1  0.62688100  0.37311900  0.75000000  1
  Sn  Sn2  1  0.12688100  0.12688100  0.50000000  1
  Sn  Sn3  1  0.87311900  0.87311900  0.00000000  1
  O  O0  1  0.62178900  0.64498100  0.26995000  1
  O  O1  1  0.40431300  0.63278000  0.50232600  1
  O  O2  1  0.11542700  0.64223500  0.76009500  1
  O  O3  1  0.64498100  0.62178900  0.73005000  1
  O  O4  1  0.88177300  0.62794300  0.97265600  1
  O  O5  1  0.85776500  0.61542700  0.51009500  1
  O  O6  1  0.12794300  0.61822700  0.22265600  1
  O  O7  1  0.36722000  0.59568700  0.99767400  1
  O  O8  1  0.63278000  0.40431300  0.49767400  1
  O  O9  1  0.87205700  0.38177300  0.72265600  1
  O  O10  1  0.14223500  0.38457300  0.01009500  1
  O  O11  1  0.11822700  0.37205700  0.47265600  1
  O  O12  1  0.35501900  0.37821100  0.23005000  1
  O  O13  1  0.88457300  0.35776500  0.26009500  1
  O  O14  1  0.59568700  0.36722000  0.00232600  1
  O  O15  1  0.37821100  0.35501900  0.76995000  1
  O  O16  1  0.87821100  0.14498100  0.48005000  1
  O  O17  1  0.09568700  0.13278000  0.24767400  1
  O  O18  1  0.38457300  0.14223500  0.98990500  1
  O  O19  1  0.85501900  0.12178900  0.01995000  1
  O  O20  1  0.61822700  0.12794300  0.77734400  1
  O  O21  1  0.64223500  0.11542700  0.23990500  1
  O  O22  1  0.37205700  0.11822700  0.52734400  1
  O  O23  1  0.13278000  0.09568700  0.75232600  1
  O  O24  1  0.86722000  0.90431300  0.25232600  1
  O  O25  1  0.62794300  0.88177300  0.02734400  1
  O  O26  1  0.35776500  0.88457300  0.73990500  1
  O  O27  1  0.38177300  0.87205700  0.27734400  1
  O  O28  1  0.14498100  0.87821100  0.51995000  1
  O  O29  1  0.61542700  0.85776500  0.48990500  1
  O  O30  1  0.90431300  0.86722000  0.74767400  1
  O  O31  1  0.12178900  0.85501900  0.98005000  1
loop_
_geom_bond_atom_site_label_1
_geom_bond_atom_site_label_2
_geom_bond_distance
_geom_bond_site_symmetry_2
Li0 O26 1.974393 1_555
Li0 O7 1.986031 1_555
Li0 O3 1.994941 1_555
Li0 O25 1.999199 1_556
Li1 O13 1.974393 1_555
Li1 O14 1.986031 1_555
Li1 O0 1.994941 1_555
Li1 O4 1.999199 1_554
Li2 O2 1.974393 1_555
Li2 O1 1.986031 1_555
Li2 O15 1.994941 1_555
Li2 O11 1.999199 1_555
Li3 O21 1.974393 1_555
Li3 O8 1.986031 1_555
Li3 O12 1.994941 1_555
Li3 O22 1.999199 1_555
Li4 O10 1.974393 1_556
Li4 O23 1.986031 1_555
Li4 O19 1.994941 1_456
Li4 O9 1.999199 1_455
Li5 O29 1.974393 1_555
Li5 O30 1.986031 1_555
Li5 O16 1.994941 1_565
Li5 O20 1.999199 1_565
Li6 O18 1.974393 1_554
Li6 O17 1.986031 1_555
Li6 O31 1.994941 1_544
Li6 O27 1.999199 1_545
Li7 O5 1.974393 1_555
Li7 O24 1.986031 1_555
Li7 O28 1.994941 1_655
Li7 O6 1.999199 1_655
Ni0 O3 1.876783 1_555
Ni0 O0 1.876783 1_555
Ni0 O8 1.903416 1_555
Ni0 O1 1.903416 1_555
Ni0 O29 1.918678 1_555
Ni0 O5 1.918678 1_555
Ni1 O5 1.883112 1_555
Ni1 O4 1.890646 1_555
Ni1 O3 1.976272 1_555
Ni1 O2 1.996421 1_655
Ni1 O30 2.049421 1_555
Ni1 O9 2.053247 1_555
Ni2 O2 1.883112 1_555
Ni2 O6 1.890646 1_556
Ni2 O31 1.976272 1_555
Ni2 O10 1.996421 1_556
Ni2 O7 2.049421 1_555
Ni2 O4 2.053247 1_455
Ni3 O13 1.883112 1_555
Ni3 O9 1.890646 1_555
Ni3 O16 1.976272 1_555
Ni3 O5 1.996421 1_555
Ni3 O8 2.049421 1_555
Ni3 O11 2.053247 1_655
Ni4 O10 1.883112 1_555
Ni4 O11 1.890646 1_555
Ni4 O12 1.976272 1_555
Ni4 O13 1.996421 1_455
Ni4 O17 2.049421 1_555
Ni4 O6 2.053247 1_555
Ni5 O15 1.876783 1_554
Ni5 O12 1.876783 1_555
Ni5 O7 1.903416 1_554
Ni5 O14 1.903416 1_555
Ni5 O10 1.918678 1_555
Ni5 O18 1.918678 1_554
Ni6 O16 1.876783 1_555
Ni6 O19 1.876783 1_555
Ni6 O24 1.903416 1_545
Ni6 O17 1.903416 1_655
Ni6 O13 1.918678 1_555
Ni6 O21 1.918678 1_555
Ni7 O21 1.883112 1_555
Ni7 O20 1.890646 1_554
Ni7 O19 1.976272 1_555
Ni7 O18 1.996421 1_554
Ni7 O14 2.049421 1_555
Ni7 O25 2.053247 1_545
Ni8 O18 1.883112 1_555
Ni8 O22 1.890646 1_555
Ni8 O15 1.976272 1_555
Ni8 O26 1.996421 1_545
Ni8 O23 2.049421 1_555
Ni8 O20 2.053247 1_555
Ni9 O29 1.883112 1_555
Ni9 O25 1.890646 1_555
Ni9 O0 1.976272 1_555
Ni9 O21 1.996421 1_565
Ni9 O24 2.049421 1_555
Ni9 O27 2.053247 1_555
Ni10 O26 1.883112 1_555
Ni10 O27 1.890646 1_555
Ni10 O28 1.976272 1_555
Ni10 O29 1.996421 1_555
Ni10 O1 2.049421 1_555
Ni10 O22 2.053247 1_565
Ni11 O28 1.876783 1_555
Ni11 O31 1.876783 1_555
Ni11 O30 1.903416 1_455
Ni11 O23 1.903416 1_565
Ni11 O26 1.918678 1_555
Ni11 O2 1.918678 1_555
O0 Sn0 2.104447 1_555
O1 Sn0 2.069903 1_555
O3 Sn1 2.104447 1_555
O4 Sn3 2.076474 1_556
O6 Sn0 2.076474 1_555
O7 Sn0 2.069903 1_556
O8 Sn1 2.069903 1_555
O9 Sn1 2.076474 1_555
O11 Sn2 2.076474 1_555
O12 Sn0 2.104447 1_555
O14 Sn1 2.069903 1_554
O15 Sn1 2.104447 1_555
O16 Sn2 2.104447 1_655
O17 Sn2 2.069903 1_555
O19 Sn3 2.104447 1_545
O20 Sn1 2.076474 1_555
O22 Sn2 2.076474 1_555
O23 Sn2 2.069903 1_555
O24 Sn3 2.069903 1_555
O25 Sn3 2.076474 1_555
O27 Sn0 2.076474 1_555
O28 Sn2 2.104447 1_565
O30 Sn3 2.069903 1_556
O31 Sn3 2.104447 1_456
