# generated using pymatgen
data_CoHRu(CO)6
_symmetry_space_group_name_H-M   'P 1'
_cell_length_a   11.61091000
_cell_length_b   9.35032800
_cell_length_c   16.72791560
_cell_angle_alpha   88.46554377
_cell_angle_beta   90.00000000
_cell_angle_gamma   90.00000000
_symmetry_Int_Tables_number   1
_chemical_formula_structural   CoHRu(CO)6
_chemical_formula_sum   'Co8 H8 Ru8 C48 O48'
_cell_volume   1815.42857888
_cell_formula_units_Z   8
loop_
 _symmetry_equiv_pos_site_id
 _symmetry_equiv_pos_as_xyz
  1  'x, y, z'
loop_
 _atom_site_type_symbol
 _atom_site_label
 _atom_site_symmetry_multiplicity
 _atom_site_fract_x
 _atom_site_fract_y
 _atom_site_fract_z
 _atom_site_occupancy
  Co  Co0  1  0.72444100  0.69982800  0.75932800  1
  Co  Co1  1  0.22444100  0.30017200  0.74067200  1
  Co  Co2  1  0.27555900  0.30017200  0.24067200  1
  Co  Co3  1  0.77555900  0.69982800  0.25932800  1
  Co  Co4  1  0.61022700  0.76400300  0.88478600  1
  Co  Co5  1  0.11022700  0.23599700  0.61521400  1
  Co  Co6  1  0.38977300  0.23599700  0.11521400  1
  Co  Co7  1  0.88977300  0.76400300  0.38478600  1
  H  H0  1  0.85717600  0.64157400  0.92507600  1
  H  H1  1  0.35717600  0.35842600  0.57492400  1
  H  H2  1  0.14282400  0.35842600  0.07492400  1
  H  H3  1  0.64282400  0.64157400  0.42507600  1
  H  H4  1  0.62755500  0.61875700  0.82246700  1
  H  H5  1  0.12755500  0.38124300  0.67753300  1
  H  H6  1  0.37244500  0.38124300  0.17753300  1
  H  H7  1  0.87244500  0.61875700  0.32246700  1
  Ru  Ru0  1  0.83927900  0.81759700  0.88259600  1
  Ru  Ru1  1  0.33927900  0.18240300  0.61740400  1
  Ru  Ru2  1  0.16072100  0.18240300  0.11740400  1
  Ru  Ru3  1  0.66072100  0.81759700  0.38259600  1
  Ru  Ru4  1  0.74075100  0.52908700  0.88852500  1
  Ru  Ru5  1  0.24075100  0.47091300  0.61147500  1
  Ru  Ru6  1  0.25924900  0.47091300  0.11147500  1
  Ru  Ru7  1  0.75924900  0.52908700  0.38852500  1
  C  C0  1  0.83643000  0.01134200  0.84169400  1
  C  C1  1  0.33643000  0.98865800  0.65830600  1
  C  C2  1  0.16357000  0.98865800  0.15830600  1
  C  C3  1  0.66357000  0.01134200  0.34169400  1
  C  C4  1  0.99477200  0.78208400  0.85205300  1
  C  C5  1  0.49477200  0.21791600  0.64794700  1
  C  C6  1  0.00522800  0.21791600  0.14794700  1
  C  C7  1  0.50522800  0.78208400  0.35205300  1
  C  C8  1  0.87638700  0.87299100  0.98768000  1
  C  C9  1  0.37638700  0.12700900  0.51232000  1
  C  C10  1  0.12361300  0.12700900  0.01232000  1
  C  C11  1  0.62361300  0.87299100  0.48768000  1
  C  C12  1  0.83105200  0.53387500  0.77962500  1
  C  C13  1  0.33105200  0.46612500  0.72037500  1
  C  C14  1  0.16894800  0.46612500  0.22037500  1
  C  C15  1  0.66894800  0.53387500  0.27962500  1
  C  C16  1  0.64230900  0.61615400  0.97769500  1
  C  C17  1  0.14230900  0.38384600  0.52230500  1
  C  C18  1  0.35769100  0.38384600  0.02230500  1
  C  C19  1  0.85769100  0.61615400  0.47769500  1
  C  C20  1  0.61567600  0.85977800  0.78214800  1
  C  C21  1  0.11567600  0.14022200  0.71785200  1
  C  C22  1  0.38432400  0.14022200  0.21785200  1
  C  C23  1  0.88432400  0.85977800  0.28214800  1
  C  C24  1  0.83622200  0.40343800  0.94873200  1
  C  C25  1  0.33622200  0.59656200  0.55126800  1
  C  C26  1  0.16377800  0.59656200  0.05126800  1
  C  C27  1  0.66377800  0.40343800  0.44873200  1
  C  C28  1  0.64585900  0.37060500  0.86672300  1
  C  C29  1  0.14585900  0.62939500  0.63327700  1
  C  C30  1  0.35414100  0.62939500  0.13327700  1
  C  C31  1  0.85414100  0.37060500  0.36672300  1
  C  C32  1  0.65221600  0.62394600  0.67711500  1
  C  C33  1  0.15221600  0.37605400  0.82288500  1
  C  C34  1  0.34778400  0.37605400  0.32288500  1
  C  C35  1  0.84778400  0.62394600  0.17711500  1
  C  C36  1  0.82026700  0.81109100  0.70634600  1
  C  C37  1  0.32026700  0.18890900  0.79365400  1
  C  C38  1  0.17973300  0.18890900  0.29365400  1
  C  C39  1  0.67973300  0.81109100  0.20634600  1
  C  C40  1  0.45815700  0.74278700  0.89085300  1
  C  C41  1  0.95815700  0.25721300  0.60914700  1
  C  C42  1  0.54184300  0.25721300  0.10914700  1
  C  C43  1  0.04184300  0.74278700  0.39085300  1
  C  C44  1  0.63066800  0.91446500  0.94303200  1
  C  C45  1  0.13066800  0.08553500  0.55696800  1
  C  C46  1  0.36933200  0.08553500  0.05696800  1
  C  C47  1  0.86933200  0.91446500  0.44303200  1
  O  O0  1  0.83847300  0.12917100  0.81903800  1
  O  O1  1  0.33847300  0.87082900  0.68096200  1
  O  O2  1  0.16152700  0.87082900  0.18096200  1
  O  O3  1  0.66152700  0.12917100  0.31903800  1
  O  O4  1  0.08831900  0.75447800  0.83496400  1
  O  O5  1  0.58831900  0.24552200  0.66503600  1
  O  O6  1  0.91168100  0.24552200  0.16503600  1
  O  O7  1  0.41168100  0.75447800  0.33496400  1
  O  O8  1  0.89976700  0.90955700  0.05143600  1
  O  O9  1  0.39976700  0.09044300  0.44856400  1
  O  O10  1  0.10023300  0.09044300  0.94856400  1
  O  O11  1  0.60023300  0.90955700  0.55143600  1
  O  O12  1  0.90705200  0.47846600  0.74592500  1
  O  O13  1  0.40705200  0.52153400  0.75407500  1
  O  O14  1  0.09294800  0.52153400  0.25407500  1
  O  O15  1  0.59294800  0.47846600  0.24592500  1
  O  O16  1  0.61339800  0.60515500  0.04484200  1
  O  O17  1  0.11339800  0.39484500  0.45515800  1
  O  O18  1  0.38660200  0.39484500  0.95515800  1
  O  O19  1  0.88660200  0.60515500  0.54484200  1
  O  O20  1  0.57979500  0.96049300  0.74690800  1
  O  O21  1  0.07979500  0.03950700  0.75309200  1
  O  O22  1  0.42020500  0.03950700  0.25309200  1
  O  O23  1  0.92020500  0.96049300  0.24690800  1
  O  O24  1  0.89472900  0.32452900  0.98471700  1
  O  O25  1  0.39472900  0.67547100  0.51528300  1
  O  O26  1  0.10527100  0.67547100  0.01528300  1
  O  O27  1  0.60527100  0.32452900  0.48471700  1
  O  O28  1  0.59084600  0.27100300  0.85318700  1
  O  O29  1  0.09084600  0.72899700  0.64681300  1
  O  O30  1  0.40915400  0.72899700  0.14681300  1
  O  O31  1  0.90915400  0.27100300  0.35318700  1
  O  O32  1  0.60973600  0.57484000  0.62154800  1
  O  O33  1  0.10973600  0.42516000  0.87845200  1
  O  O34  1  0.39026400  0.42516000  0.37845200  1
  O  O35  1  0.89026400  0.57484000  0.12154800  1
  O  O36  1  0.87397400  0.88521900  0.66401800  1
  O  O37  1  0.37397400  0.11478100  0.83598200  1
  O  O38  1  0.12602600  0.11478100  0.33598200  1
  O  O39  1  0.62602600  0.88521900  0.16401800  1
  O  O40  1  0.35930200  0.73305600  0.89729700  1
  O  O41  1  0.85930200  0.26694400  0.60270300  1
  O  O42  1  0.64069800  0.26694400  0.10270300  1
  O  O43  1  0.14069800  0.73305600  0.39729700  1
  O  O44  1  0.62779000  0.01636300  0.98146200  1
  O  O45  1  0.12779000  0.98363700  0.51853800  1
  O  O46  1  0.37221000  0.98363700  0.01853800  1
  O  O47  1  0.87221000  0.01636300  0.48146200  1
loop_
_geom_bond_atom_site_label_1
_geom_bond_atom_site_label_2
_geom_bond_distance
_geom_bond_site_symmetry_2
Co0 H4 1.706678 1_555
Co1 H5 1.706678 1_555
Co2 H6 1.706678 1_555
Co3 H7 1.706678 1_555
Co4 H4 1.745700 1_555
Co5 H5 1.745700 1_555
Co6 H6 1.745700 1_555
Co7 H7 1.745700 1_555
H0 Ru0 1.787287 1_555
H0 Ru4 1.828088 1_555
H1 Ru1 1.787287 1_555
H1 Ru5 1.828088 1_555
H2 Ru2 1.787287 1_555
H2 Ru6 1.828088 1_555
H3 Ru3 1.787287 1_555
H3 Ru7 1.828088 1_555
H4 Ru4 1.897848 1_555
H5 Ru5 1.897848 1_555
H6 Ru6 1.897848 1_555
H7 Ru7 1.897848 1_555
C0 O0 1.155709 1_555
C0 Ru0 1.919549 1_545
C1 O1 1.155709 1_555
C1 Ru1 1.919549 1_565
C2 O2 1.155709 1_555
C2 Ru2 1.919549 1_565
C3 O3 1.155709 1_555
C3 Ru3 1.919549 1_545
C4 O4 1.154147 1_655
C4 Ru0 1.907856 1_555
C5 O5 1.154147 1_555
C5 Ru1 1.907856 1_555
C6 O6 1.154147 1_455
C6 Ru2 1.907856 1_555
C7 O7 1.154147 1_555
C7 Ru3 1.907856 1_555
C8 O8 1.160841 1_556
C8 Ru0 1.895432 1_555
C9 O9 1.160841 1_555
C9 Ru1 1.895432 1_555
C10 O10 1.160841 1_554
C10 Ru2 1.895432 1_555
C11 O11 1.160841 1_555
C11 Ru3 1.895432 1_555
C12 O12 1.174962 1_555
C12 Co0 2.006778 1_555
C12 Ru4 2.101290 1_555
C13 O13 1.174962 1_555
C13 Co1 2.006778 1_555
C13 Ru5 2.101290 1_555
C14 O14 1.174962 1_555
C14 Co2 2.006778 1_555
C14 Ru6 2.101290 1_555
C15 O15 1.174962 1_555
C15 Co3 2.006778 1_555
C15 Ru7 2.101290 1_555
C16 O16 1.174188 1_556
C16 Ru4 2.063785 1_555
C16 Co4 2.085732 1_555
C17 O17 1.174188 1_555
C17 Ru5 2.063785 1_555
C17 Co5 2.085732 1_555
C18 O18 1.174188 1_554
C18 Ru6 2.063785 1_555
C18 Co6 2.085732 1_555
C19 O19 1.174188 1_555
C19 Ru7 2.063785 1_555
C19 Co7 2.085732 1_555
C20 O20 1.173954 1_555
C20 Co4 1.916100 1_555
C20 Co0 2.001970 1_555
C21 O21 1.173954 1_555
C21 Co5 1.916100 1_555
C21 Co1 2.001970 1_555
C22 O22 1.173954 1_555
C22 Co6 1.916100 1_555
C22 Co2 2.001970 1_555
C23 O23 1.173954 1_555
C23 Co7 1.916100 1_555
C23 Co3 2.001970 1_555
C24 O24 1.159493 1_555
C24 Ru4 1.886805 1_555
C25 O25 1.159493 1_555
C25 Ru5 1.886805 1_555
C26 O26 1.159493 1_555
C26 Ru6 1.886805 1_555
C27 O27 1.159493 1_555
C27 Ru7 1.886805 1_555
C28 O28 1.156680 1_555
C28 Ru4 1.889916 1_555
C29 O29 1.156680 1_555
C29 Ru5 1.889916 1_555
C30 O30 1.156680 1_555
C30 Ru6 1.889916 1_555
C31 O31 1.156680 1_555
C31 Ru7 1.889916 1_555
C32 O32 1.158002 1_555
C32 Co0 1.774893 1_555
C33 O33 1.158002 1_555
C33 Co1 1.774893 1_555
C34 O34 1.158002 1_555
C34 Co2 1.774893 1_555
C35 O35 1.158002 1_555
C35 Co3 1.774893 1_555
C36 O36 1.159458 1_555
C36 Co0 1.748247 1_555
C37 O37 1.159458 1_555
C37 Co1 1.748247 1_555
C38 O38 1.159458 1_555
C38 Co2 1.748247 1_555
C39 O39 1.159458 1_555
C39 Co3 1.748247 1_555
C40 O40 1.156205 1_555
C40 Co4 1.779373 1_555
C41 O41 1.156205 1_555
C41 Co5 1.779373 1_655
C42 O42 1.156205 1_555
C42 Co6 1.779373 1_555
C43 O43 1.156205 1_555
C43 Co7 1.779373 1_455
C44 O44 1.164032 1_565
C44 Co4 1.748814 1_555
C45 O45 1.164032 1_545
C45 Co5 1.748814 1_555
C46 O46 1.164032 1_545
C46 Co6 1.748814 1_555
C47 O47 1.164032 1_565
C47 Co7 1.748814 1_555
