# generated using pymatgen
data_Rb2ZnN4
_symmetry_space_group_name_H-M   'P 1'
_cell_length_a   6.66667200
_cell_length_b   8.40933000
_cell_length_c   13.27239110
_cell_angle_alpha   69.66439627
_cell_angle_beta   90.00000000
_cell_angle_gamma   90.00000000
_symmetry_Int_Tables_number   1
_chemical_formula_structural   Rb2ZnN4
_chemical_formula_sum   'Rb8 Zn4 N16'
_cell_volume   697.70388743
_cell_formula_units_Z   4
loop_
 _symmetry_equiv_pos_site_id
 _symmetry_equiv_pos_as_xyz
  1  'x, y, z'
loop_
 _atom_site_type_symbol
 _atom_site_label
 _atom_site_symmetry_multiplicity
 _atom_site_fract_x
 _atom_site_fract_y
 _atom_site_fract_z
 _atom_site_occupancy
  Rb  Rb0  1  0.20125600  0.46285000  0.34991100  1
  Rb  Rb1  1  0.70125600  0.53715000  0.15008900  1
  Rb  Rb2  1  0.79874400  0.53715000  0.65008900  1
  Rb  Rb3  1  0.29874400  0.46285000  0.84991100  1
  Rb  Rb4  1  0.23854100  0.92020500  0.40872700  1
  Rb  Rb5  1  0.73854100  0.07979500  0.09127300  1
  Rb  Rb6  1  0.76145900  0.07979500  0.59127300  1
  Rb  Rb7  1  0.26145900  0.92020500  0.90872700  1
  Zn  Zn0  1  0.22386300  0.29242000  0.13616800  1
  Zn  Zn1  1  0.72386300  0.70758000  0.36383200  1
  Zn  Zn2  1  0.77613700  0.70758000  0.86383200  1
  Zn  Zn3  1  0.27613700  0.29242000  0.63616800  1
  N  N0  1  0.98105800  0.25098700  0.22038500  1
  N  N1  1  0.48105800  0.74901300  0.27961500  1
  N  N2  1  0.01894200  0.74901300  0.77961500  1
  N  N3  1  0.51894200  0.25098700  0.72038500  1
  N  N4  1  0.43342700  0.23809200  0.24465300  1
  N  N5  1  0.93342700  0.76190800  0.25534700  1
  N  N6  1  0.56657300  0.76190800  0.75534700  1
  N  N7  1  0.06657300  0.23809200  0.74465300  1
  N  N8  1  0.24787800  0.53484300  0.05457300  1
  N  N9  1  0.74787800  0.46515700  0.44542700  1
  N  N10  1  0.75212200  0.46515700  0.94542700  1
  N  N11  1  0.25212200  0.53484300  0.55457300  1
  N  N12  1  0.25089100  0.16044300  0.04510500  1
  N  N13  1  0.75089100  0.83955700  0.45489500  1
  N  N14  1  0.74910900  0.83955700  0.95489500  1
  N  N15  1  0.24910900  0.16044300  0.54510500  1
loop_
_geom_bond_atom_site_label_1
_geom_bond_atom_site_label_2
_geom_bond_distance
_geom_bond_site_symmetry_2
N0 Zn0 1.928807 1_655
N0 Rb1 2.929242 1_555
N0 Rb5 3.055747 1_555
N0 Rb0 3.226969 1_655
N0 Rb4 3.478507 1_645
N1 Zn1 1.928807 1_555
N1 Rb0 2.929242 1_555
N1 Rb4 3.055747 1_555
N1 Rb1 3.226969 1_555
N1 Rb5 3.478507 1_565
N2 Zn2 1.928807 1_455
N2 Rb3 2.929242 1_555
N2 Rb7 3.055747 1_555
N2 Rb2 3.226969 1_455
N2 Rb6 3.478507 1_465
N3 Zn3 1.928807 1_555
N3 Rb2 2.929242 1_555
N3 Rb6 3.055747 1_555
N3 Rb3 3.226969 1_555
N3 Rb7 3.478507 1_545
N4 Zn0 1.943341 1_555
N4 Rb1 2.982307 1_555
N4 Rb4 3.087110 1_545
N4 Rb0 3.123292 1_555
N4 Rb5 3.455024 1_555
N5 Zn1 1.943341 1_555
N5 Rb0 2.982307 1_655
N5 Rb5 3.087110 1_565
N5 Rb1 3.123292 1_555
N5 Rb4 3.455024 1_655
N6 Zn2 1.943341 1_555
N6 Rb3 2.982307 1_555
N6 Rb6 3.087110 1_565
N6 Rb2 3.123292 1_555
N6 Rb7 3.455024 1_555
N7 Zn3 1.943341 1_555
N7 Rb2 2.982307 1_455
N7 Rb7 3.087110 1_545
N7 Rb3 3.123292 1_555
N7 Rb6 3.455024 1_455
N8 Zn0 1.954463 1_555
N8 Rb3 3.000516 1_554
N8 Rb7 3.145950 1_554
N8 Rb1 3.280281 1_555
N9 Zn1 1.954463 1_555
N9 Rb2 3.000516 1_555
N9 Rb6 3.145950 1_555
N9 Rb0 3.280281 1_655
N10 Zn2 1.954463 1_555
N10 Rb1 3.000516 1_556
N10 Rb5 3.145950 1_556
N10 Rb3 3.280281 1_555
N11 Zn3 1.954463 1_555
N11 Rb0 3.000516 1_555
N11 Rb4 3.145950 1_555
N11 Rb2 3.280281 1_455
N12 Zn0 1.912403 1_555
N12 Rb3 2.949821 1_554
N12 Rb7 3.147101 1_544
N12 Rb5 3.334007 1_555
N12 Rb5 3.494765 1_455
N13 Zn1 1.912403 1_555
N13 Rb2 2.949821 1_555
N13 Rb6 3.147101 1_565
N13 Rb4 3.334007 1_655
N13 Rb4 3.494765 1_555
N14 Zn2 1.912403 1_555
N14 Rb1 2.949821 1_556
N14 Rb5 3.147101 1_566
N14 Rb7 3.334007 1_555
N14 Rb7 3.494765 1_655
N15 Zn3 1.912403 1_555
N15 Rb0 2.949821 1_555
N15 Rb4 3.147101 1_545
N15 Rb6 3.334007 1_455
N15 Rb6 3.494765 1_555
