# generated using pymatgen
data_LiV4(PO4)3
_symmetry_space_group_name_H-M   'P 1'
_cell_length_a   8.23057571
_cell_length_b   8.23057571
_cell_length_c   10.24352100
_cell_angle_alpha   90.00000000
_cell_angle_beta   90.00000000
_cell_angle_gamma   131.87391292
_symmetry_Int_Tables_number   1
_chemical_formula_structural   LiV4(PO4)3
_chemical_formula_sum   'Li2 V8 P6 O24'
_cell_volume   516.70395375
_cell_formula_units_Z   2
loop_
 _symmetry_equiv_pos_site_id
 _symmetry_equiv_pos_as_xyz
  1  'x, y, z'
loop_
 _atom_site_type_symbol
 _atom_site_label
 _atom_site_symmetry_multiplicity
 _atom_site_fract_x
 _atom_site_fract_y
 _atom_site_fract_z
 _atom_site_occupancy
  Li  Li0  1  0.02428100  0.97571900  0.25235300  1
  Li  Li1  1  0.97571900  0.02428100  0.75235300  1
  V  V0  1  0.63053900  0.36946100  0.44059900  1
  V  V1  1  0.04798600  0.45913000  0.25012600  1
  V  V2  1  0.54087000  0.95201400  0.25012600  1
  V  V3  1  0.63359200  0.36640800  0.06252700  1
  V  V4  1  0.36946100  0.63053900  0.94059900  1
  V  V5  1  0.45913000  0.04798600  0.75012600  1
  V  V6  1  0.95201400  0.54087000  0.75012600  1
  V  V7  1  0.36640800  0.63359200  0.56252700  1
  P  P0  1  0.18482100  0.81517900  0.46245600  1
  P  P1  1  0.47778500  0.52221500  0.20441700  1
  P  P2  1  0.18503300  0.81496700  0.03604300  1
  P  P3  1  0.81517900  0.18482100  0.96245600  1
  P  P4  1  0.52221500  0.47778500  0.70441700  1
  P  P5  1  0.81496700  0.18503300  0.53604300  1
  O  O0  1  0.31912000  0.05196400  0.42414200  1
  O  O1  1  0.94803600  0.68088000  0.42414200  1
  O  O2  1  0.27907100  0.72092900  0.38820300  1
  O  O3  1  0.78398400  0.21601600  0.38657500  1
  O  O4  1  0.23625000  0.37262600  0.25099400  1
  O  O5  1  0.62737400  0.76375000  0.25099400  1
  O  O6  1  0.57608400  0.42391600  0.25239300  1
  O  O7  1  0.78393400  0.21606600  0.11182800  1
  O  O8  1  0.27886500  0.72113500  0.11139600  1
  O  O9  1  0.31932700  0.05189500  0.07412400  1
  O  O10  1  0.94810500  0.68067300  0.07412400  1
  O  O11  1  0.48849000  0.51151000  0.05220800  1
  O  O12  1  0.05196400  0.31912000  0.92414200  1
  O  O13  1  0.68088000  0.94803600  0.92414200  1
  O  O14  1  0.72092900  0.27907100  0.88820300  1
  O  O15  1  0.21601600  0.78398400  0.88657500  1
  O  O16  1  0.42391600  0.57608400  0.75239300  1
  O  O17  1  0.37262600  0.23625000  0.75099400  1
  O  O18  1  0.76375000  0.62737400  0.75099400  1
  O  O19  1  0.21606600  0.78393400  0.61182800  1
  O  O20  1  0.72113500  0.27886500  0.61139600  1
  O  O21  1  0.68067300  0.94810500  0.57412400  1
  O  O22  1  0.05189500  0.31932700  0.57412400  1
  O  O23  1  0.51151000  0.48849000  0.55220800  1
loop_
_geom_bond_atom_site_label_1
_geom_bond_atom_site_label_2
_geom_bond_distance
_geom_bond_site_symmetry_2
Li0 O4 2.471281 1_565
Li0 O5 2.471281 1_455
Li1 O17 2.471281 1_655
Li1 O18 2.471281 1_545
O0 P0 1.515959 1_545
O0 V0 2.117824 1_555
O1 P0 1.515959 1_655
O1 V0 2.117824 1_555
O2 P0 1.607915 1_555
O2 V1 2.188565 1_555
O2 V2 2.188565 1_555
O2 V7 2.216293 1_555
O3 P5 1.600335 1_555
O3 V2 2.207843 1_545
O3 V1 2.207843 1_655
O3 V0 2.371838 1_555
O4 P1 1.558210 1_555
O4 V1 2.093035 1_555
O5 P1 1.558210 1_555
O5 V2 2.093035 1_555
O6 P1 1.557084 1_555
O6 V0 2.094445 1_555
O6 V3 2.128327 1_555
O7 P3 1.600545 1_554
O7 V2 2.219935 1_545
O7 V1 2.219935 1_655
O7 V3 2.315480 1_555
O8 P2 1.607762 1_555
O8 V2 2.193222 1_555
O8 V1 2.193222 1_555
O8 V4 2.217034 1_554
O9 P2 1.516289 1_545
O9 V3 2.113488 1_555
O10 P2 1.516289 1_655
O10 V3 2.113488 1_555
O11 P1 1.567437 1_555
O11 V4 2.123176 1_554
O11 V3 2.183535 1_555
O12 P3 1.515959 1_455
O12 V4 2.117824 1_555
O13 P3 1.515959 1_565
O13 V4 2.117824 1_555
O14 P3 1.607915 1_555
O14 V5 2.188565 1_555
O14 V6 2.188565 1_555
O14 V3 2.216293 1_556
O15 P2 1.600335 1_556
O15 V6 2.207843 1_455
O15 V5 2.207843 1_565
O15 V4 2.371838 1_555
O16 P4 1.557084 1_555
O16 V4 2.094445 1_555
O16 V7 2.128327 1_555
O17 P4 1.558210 1_555
O17 V5 2.093035 1_555
O18 P4 1.558210 1_555
O18 V6 2.093035 1_555
O19 P0 1.600545 1_555
O19 V6 2.219935 1_455
O19 V5 2.219935 1_565
O19 V7 2.315480 1_555
O20 P5 1.607762 1_555
O20 V6 2.193222 1_555
O20 V5 2.193222 1_555
O20 V0 2.217034 1_555
O21 P5 1.516289 1_565
O21 V7 2.113488 1_555
O22 P5 1.516289 1_455
O22 V7 2.113488 1_555
O23 P4 1.567437 1_555
O23 V0 2.123176 1_555
O23 V7 2.183535 1_555
