# generated using pymatgen
data_LiMnF3
_symmetry_space_group_name_H-M   'P 1'
_cell_length_a   5.41297760
_cell_length_b   5.41297760
_cell_length_c   9.86130500
_cell_angle_alpha   90.00000000
_cell_angle_beta   90.00000000
_cell_angle_gamma   119.99999515
_symmetry_Int_Tables_number   1
_chemical_formula_structural   LiMnF3
_chemical_formula_sum   'Li4 Mn4 F12'
_cell_volume   250.22892175
_cell_formula_units_Z   4
loop_
 _symmetry_equiv_pos_site_id
 _symmetry_equiv_pos_as_xyz
  1  'x, y, z'
loop_
 _atom_site_type_symbol
 _atom_site_label
 _atom_site_symmetry_multiplicity
 _atom_site_fract_x
 _atom_site_fract_y
 _atom_site_fract_z
 _atom_site_occupancy
  Li  Li0  1  0.33333300  0.66666700  0.93279400  1
  Li  Li1  1  0.33333300  0.66666700  0.56720600  1
  Li  Li2  1  0.66666700  0.33333300  0.06720600  1
  Li  Li3  1  0.66666700  0.33333300  0.43279400  1
  Mn  Mn0  1  0.00000000  0.00000000  0.75000000  1
  Mn  Mn1  1  0.00000000  0.00000000  0.25000000  1
  Mn  Mn2  1  0.33333300  0.66666700  0.25000000  1
  Mn  Mn3  1  0.66666700  0.33333300  0.75000000  1
  F  F0  1  0.00722800  0.66775600  0.36991300  1
  F  F1  1  0.33224400  0.99277200  0.13008700  1
  F  F2  1  0.00722800  0.33947200  0.13008700  1
  F  F3  1  0.33224400  0.33947200  0.36991300  1
  F  F4  1  0.66052800  0.99277200  0.36991300  1
  F  F5  1  0.33947200  0.33224400  0.86991300  1
  F  F6  1  0.66052800  0.66775600  0.13008700  1
  F  F7  1  0.33947200  0.00722800  0.63008700  1
  F  F8  1  0.66775600  0.66052800  0.63008700  1
  F  F9  1  0.99277200  0.66052800  0.86991300  1
  F  F10  1  0.66775600  0.00722800  0.86991300  1
  F  F11  1  0.99277200  0.33224400  0.63008700  1
loop_
_geom_bond_atom_site_label_1
_geom_bond_atom_site_label_2
_geom_bond_distance
_geom_bond_site_symmetry_2
F0 Li3 1.929422 1_455
F0 Mn2 2.127127 1_555
F0 Mn1 2.168996 1_565
F1 Li2 1.929422 1_565
F1 Mn2 2.127127 1_555
F1 Mn1 2.168996 1_565
F2 Li2 1.929420 1_455
F2 Mn2 2.127130 1_555
F2 Mn1 2.168996 1_555
F3 Li3 1.929425 1_555
F3 Mn2 2.127132 1_555
F3 Mn1 2.168997 1_555
F4 Li3 1.929420 1_565
F4 Mn2 2.127130 1_555
F4 Mn1 2.168996 1_665
F5 Li0 1.929425 1_555
F5 Mn3 2.127132 1_555
F5 Mn0 2.168997 1_555
F6 Li2 1.929425 1_555
F6 Mn2 2.127132 1_555
F6 Mn1 2.168997 1_665
F7 Li1 1.929420 1_545
F7 Mn3 2.127130 1_555
F7 Mn0 2.168996 1_555
F8 Li1 1.929425 1_555
F8 Mn3 2.127132 1_555
F8 Mn0 2.168997 1_665
F9 Li0 1.929420 1_655
F9 Mn3 2.127130 1_555
F9 Mn0 2.168996 1_665
F10 Li0 1.929422 1_545
F10 Mn3 2.127127 1_555
F10 Mn0 2.168996 1_655
F11 Li1 1.929422 1_655
F11 Mn3 2.127127 1_555
F11 Mn0 2.168996 1_655
