# generated using pymatgen
data_TiNi3Sn2(PO4)6
_symmetry_space_group_name_H-M   'P 1'
_cell_length_a   8.48580732
_cell_length_b   8.48580732
_cell_length_c   8.48580723
_cell_angle_alpha   61.44246178
_cell_angle_beta   61.44246178
_cell_angle_gamma   61.44245772
_symmetry_Int_Tables_number   1
_chemical_formula_structural   TiNi3Sn2(PO4)6
_chemical_formula_sum   'Ti1 Ni3 Sn2 P6 O24'
_cell_volume   446.07652332
_cell_formula_units_Z   1
loop_
 _symmetry_equiv_pos_site_id
 _symmetry_equiv_pos_as_xyz
  1  'x, y, z'
loop_
 _atom_site_type_symbol
 _atom_site_label
 _atom_site_symmetry_multiplicity
 _atom_site_fract_x
 _atom_site_fract_y
 _atom_site_fract_z
 _atom_site_occupancy
  Ti  Ti0  1  0.85079400  0.85079400  0.85079400  1
  Ni  Ni0  1  0.14925300  0.14925300  0.14925300  1
  Ni  Ni1  1  0.35238100  0.35238100  0.35238100  1
  Ni  Ni2  1  0.64595100  0.64595100  0.64595100  1
  Sn  Sn0  1  0.00235500  0.00235500  0.00235500  1
  Sn  Sn1  1  0.50175300  0.50175300  0.50175300  1
  P  P0  1  0.74752400  0.04514200  0.45217300  1
  P  P1  1  0.04514200  0.45217300  0.74752400  1
  P  P2  1  0.54367200  0.25037900  0.95563000  1
  P  P3  1  0.95563000  0.54367200  0.25037900  1
  P  P4  1  0.25037900  0.95563000  0.54367200  1
  P  P5  1  0.45217300  0.74752400  0.04514200  1
  O  O0  1  0.31682300  0.10376800  0.51750300  1
  O  O1  1  0.51750300  0.31682300  0.10376800  1
  O  O2  1  0.90479700  0.06766100  0.25127300  1
  O  O3  1  0.10376800  0.51750300  0.31682300  1
  O  O4  1  0.82348600  0.99330800  0.61229000  1
  O  O5  1  0.59738200  0.24787800  0.44483800  1
  O  O6  1  0.06766100  0.25127300  0.90479700  1
  O  O7  1  0.24787800  0.44483800  0.59738200  1
  O  O8  1  0.39997000  0.17479800  0.98753200  1
  O  O9  1  0.44483800  0.59738200  0.24787800  1
  O  O10  1  0.75250900  0.08839900  0.93400300  1
  O  O11  1  0.98753200  0.39997000  0.17479800  1
  O  O12  1  0.99330800  0.61229000  0.82348600  1
  O  O13  1  0.25127300  0.90479700  0.06766100  1
  O  O14  1  0.56942300  0.40255500  0.74917000  1
  O  O15  1  0.61229000  0.82348600  0.99330800  1
  O  O16  1  0.74917000  0.56942300  0.40255500  1
  O  O17  1  0.93400300  0.75250900  0.08839900  1
  O  O18  1  0.40255500  0.74917000  0.56942300  1
  O  O19  1  0.17479800  0.98753200  0.39997000  1
  O  O20  1  0.89657400  0.48998400  0.67707200  1
  O  O21  1  0.08839900  0.93400300  0.75250900  1
  O  O22  1  0.48998400  0.67707200  0.89657400  1
  O  O23  1  0.67707200  0.89657400  0.48998400  1
loop_
_geom_bond_atom_site_label_1
_geom_bond_atom_site_label_2
_geom_bond_distance
_geom_bond_site_symmetry_2
Ni0 O11 1.954930 1_455
Ni0 O19 1.954930 1_545
Ni0 O8 1.954930 1_554
Ni0 O13 2.148287 1_545
Ni0 O6 2.148287 1_554
Ni0 O2 2.148287 1_455
Ni1 O3 1.970606 1_555
Ni1 O1 1.970606 1_555
Ni1 O0 1.970606 1_555
Ni1 O5 2.203620 1_555
Ni1 O7 2.203620 1_555
Ni1 O9 2.203621 1_555
Ni2 O20 1.963696 1_555
Ni2 O22 1.963696 1_555
Ni2 O23 1.963696 1_555
Ni2 O18 2.112760 1_555
Ni2 O16 2.112760 1_555
Ni2 O14 2.112760 1_555
O0 P4 1.496159 1_545
O1 P2 1.496159 1_554
O2 P0 1.575138 1_555
O2 Sn0 2.112536 1_655
O3 P3 1.496159 1_455
O4 P0 1.565248 1_565
O4 Ti0 1.858158 1_555
O5 P0 1.569923 1_555
O5 Sn1 2.116970 1_555
O6 P1 1.575138 1_555
O6 Sn0 2.112536 1_556
O7 P1 1.569923 1_555
O7 Sn1 2.116970 1_555
O8 P2 1.495918 1_555
O9 P5 1.569923 1_555
O9 Sn1 2.116970 1_555
O10 P2 1.632443 1_555
O10 Ti0 2.109469 1_545
O10 Sn0 2.157623 1_656
O11 P3 1.495918 1_555
O12 P1 1.565248 1_655
O12 Ti0 1.858158 1_555
O13 P5 1.575138 1_555
O13 Sn0 2.112536 1_565
O14 P2 1.589169 1_555
O14 Sn1 2.108834 1_555
O15 P5 1.565248 1_556
O15 Ti0 1.858158 1_555
O16 P3 1.589169 1_555
O16 Sn1 2.108834 1_555
O17 P3 1.632443 1_555
O17 Ti0 2.109470 1_554
O17 Sn0 2.157623 1_665
O18 P4 1.589169 1_555
O18 Sn1 2.108834 1_555
O19 P4 1.495918 1_555
O20 P1 1.483322 1_655
O21 P4 1.632443 1_555
O21 Ti0 2.109470 1_455
O21 Sn0 2.157623 1_566
O22 P5 1.483322 1_556
O23 P0 1.483322 1_565
