# generated using pymatgen
data_LiMnF5
_symmetry_space_group_name_H-M   'P 1'
_cell_length_a   5.47296800
_cell_length_b   5.47296800
_cell_length_c   11.49210800
_cell_angle_alpha   90.00000000
_cell_angle_beta   90.00000000
_cell_angle_gamma   90.00000000
_symmetry_Int_Tables_number   1
_chemical_formula_structural   LiMnF5
_chemical_formula_sum   'Li4 Mn4 F20'
_cell_volume   344.22746332
_cell_formula_units_Z   4
loop_
 _symmetry_equiv_pos_site_id
 _symmetry_equiv_pos_as_xyz
  1  'x, y, z'
loop_
 _atom_site_type_symbol
 _atom_site_label
 _atom_site_symmetry_multiplicity
 _atom_site_fract_x
 _atom_site_fract_y
 _atom_site_fract_z
 _atom_site_occupancy
  Li  Li0  1  0.05390500  0.31543400  0.84643000  1
  Li  Li1  1  0.31543400  0.94609500  0.59643000  1
  Li  Li2  1  0.68456600  0.05390500  0.09643000  1
  Li  Li3  1  0.94609500  0.68456600  0.34643000  1
  Mn  Mn0  1  0.18470900  0.48071400  0.11713600  1
  Mn  Mn1  1  0.48071400  0.81529100  0.86713600  1
  Mn  Mn2  1  0.51928600  0.18470900  0.36713600  1
  Mn  Mn3  1  0.81529100  0.51928600  0.61713600  1
  F  F0  1  0.00218000  0.72867800  0.18091500  1
  F  F1  1  0.01875700  0.76947800  0.64796400  1
  F  F2  1  0.01145800  0.51595600  0.98530800  1
  F  F3  1  0.28248100  0.42988800  0.28628800  1
  F  F4  1  0.27132200  0.00218000  0.43091500  1
  F  F5  1  0.23052200  0.01875700  0.89796400  1
  F  F6  1  0.27941000  0.58374300  0.81148800  1
  F  F7  1  0.48404400  0.01145800  0.23530800  1
  F  F8  1  0.58374300  0.72059000  0.56148800  1
  F  F9  1  0.42988800  0.71751900  0.03628800  1
  F  F10  1  0.57011200  0.28248100  0.53628800  1
  F  F11  1  0.41625700  0.27941000  0.06148800  1
  F  F12  1  0.51595600  0.98854200  0.73530800  1
  F  F13  1  0.72059000  0.41625700  0.31148800  1
  F  F14  1  0.76947800  0.98124300  0.39796400  1
  F  F15  1  0.72867800  0.99782000  0.93091500  1
  F  F16  1  0.71751900  0.57011200  0.78628800  1
  F  F17  1  0.98854200  0.48404400  0.48530800  1
  F  F18  1  0.98124300  0.23052200  0.14796400  1
  F  F19  1  0.99782000  0.27132200  0.68091500  1
loop_
_geom_bond_atom_site_label_1
_geom_bond_atom_site_label_2
_geom_bond_distance
_geom_bond_site_symmetry_2
F0 Mn0 1.837632 1_555
F0 Li3 1.941791 1_455
F1 Mn3 1.800138 1_455
F1 Li1 1.980280 1_555
F2 Mn0 1.797623 1_556
F2 Li0 1.950791 1_555
F3 Mn0 2.035316 1_555
F3 Mn2 2.084110 1_555
F3 Li3 2.410372 1_455
F4 Mn2 1.837632 1_555
F4 Li1 1.941791 1_545
F5 Mn1 1.800138 1_545
F5 Li0 1.980280 1_555
F6 Mn1 1.796864 1_555
F6 Li0 1.959793 1_555
F7 Mn2 1.797623 1_555
F7 Li2 1.950791 1_555
F8 Mn3 1.796864 1_555
F8 Li1 1.959793 1_555
F9 Mn1 2.035316 1_554
F9 Mn0 2.084110 1_555
F9 Li2 2.410372 1_565
F10 Mn2 2.035316 1_555
F10 Mn3 2.084110 1_555
F10 Li1 2.410372 1_545
F11 Mn0 1.796864 1_555
F11 Li2 1.959793 1_555
F12 Mn1 1.797623 1_555
F12 Li1 1.950791 1_555
F13 Mn2 1.796864 1_555
F13 Li3 1.959793 1_555
F14 Mn2 1.800138 1_565
F14 Li3 1.980280 1_555
F15 Mn1 1.837632 1_555
F15 Li2 1.941791 1_566
F16 Mn3 2.035316 1_555
F16 Mn1 2.084110 1_555
F16 Li0 2.410372 1_655
F17 Mn3 1.797623 1_555
F17 Li3 1.950791 1_555
F18 Mn0 1.800138 1_655
F18 Li2 1.980280 1_555
F19 Mn3 1.837632 1_555
F19 Li0 1.941791 1_655
