# generated using pymatgen
data_Fe6O7F5
_symmetry_space_group_name_H-M   'P 1'
_cell_length_a   5.65003942
_cell_length_b   5.65003942
_cell_length_c   7.69359072
_cell_angle_alpha   68.67567495
_cell_angle_beta   68.67567495
_cell_angle_gamma   69.04222179
_symmetry_Int_Tables_number   1
_chemical_formula_structural   Fe6O7F5
_chemical_formula_sum   'Fe6 O7 F5'
_cell_volume   205.80598386
_cell_formula_units_Z   1
loop_
 _symmetry_equiv_pos_site_id
 _symmetry_equiv_pos_as_xyz
  1  'x, y, z'
loop_
 _atom_site_type_symbol
 _atom_site_label
 _atom_site_symmetry_multiplicity
 _atom_site_fract_x
 _atom_site_fract_y
 _atom_site_fract_z
 _atom_site_occupancy
  Fe  Fe0  1  0.66509500  0.66509500  0.83320300  1
  Fe  Fe1  1  0.33592500  0.33592500  0.65356000  1
  Fe  Fe2  1  0.65415900  0.65415900  0.33102400  1
  Fe  Fe3  1  0.34416700  0.34416700  0.18739500  1
  Fe  Fe4  1  0.99827800  0.99827800  0.49646500  1
  Fe  Fe5  1  0.00441400  0.00441400  0.00145200  1
  O  O0  1  0.64110100  0.02720200  0.66508700  1
  O  O1  1  0.96910900  0.35708500  0.33506900  1
  O  O2  1  0.43573900  0.43573900  0.37600800  1
  O  O3  1  0.35708500  0.96910900  0.33506900  1
  O  O4  1  0.02720200  0.64110100  0.66508700  1
  O  O5  1  0.70195100  0.30315200  0.00046000  1
  O  O6  1  0.30315200  0.70195100  0.00046000  1
  F  F0  1  0.89021200  0.89021200  0.29630100  1
  F  F1  1  0.23537800  0.23537800  0.95076000  1
  F  F2  1  0.56523100  0.56523100  0.63157200  1
  F  F3  1  0.77021300  0.77021300  0.03694400  1
  F  F4  1  0.10158900  0.10158900  0.70408600  1
loop_
_geom_bond_atom_site_label_1
_geom_bond_atom_site_label_2
_geom_bond_distance
_geom_bond_site_symmetry_2
Fe0 O6 1.964078 1_556
Fe0 O5 1.964078 1_556
Fe0 O4 1.970183 1_655
Fe0 O0 1.970183 1_565
Fe1 O2 1.916175 1_555
Fe1 O4 1.967404 1_555
Fe1 O0 1.967404 1_555
Fe2 O2 1.906279 1_555
Fe2 O3 1.962255 1_555
Fe2 O1 1.962255 1_555
Fe3 O2 1.981079 1_555
Fe3 O1 1.996332 1_455
Fe3 O3 1.996332 1_545
Fe3 O5 2.000343 1_555
Fe3 O6 2.000343 1_555
Fe4 O3 1.938523 1_655
Fe4 O1 1.938523 1_565
Fe4 O0 1.948455 1_565
Fe4 O4 1.948455 1_655
Fe5 O5 1.925129 1_455
Fe5 O6 1.925129 1_545
F0 Fe5 2.036488 1_665
F0 Fe2 2.093593 1_555
F0 Fe4 2.179805 1_555
F1 Fe5 2.008935 1_556
F1 Fe1 2.053074 1_555
F1 Fe3 2.442972 1_556
F2 Fe1 2.065836 1_555
F2 Fe2 2.083808 1_555
F2 Fe0 2.131681 1_555
F3 Fe2 2.031885 1_555
F3 Fe5 2.074491 1_665
F3 Fe0 2.183817 1_554
F4 Fe1 2.040216 1_555
F4 Fe5 2.055604 1_556
F4 Fe4 2.198397 1_445
