# generated using pymatgen
data_Ho3ReO8
_symmetry_space_group_name_H-M   'P 1'
_cell_length_a   6.28037100
_cell_length_b   7.18244700
_cell_length_c   7.19788743
_cell_angle_alpha   68.12962148
_cell_angle_beta   90.00000000
_cell_angle_gamma   90.00000000
_symmetry_Int_Tables_number   1
_chemical_formula_structural   Ho3ReO8
_chemical_formula_sum   'Ho6 Re2 O16'
_cell_volume   301.31746826
_cell_formula_units_Z   2
loop_
 _symmetry_equiv_pos_site_id
 _symmetry_equiv_pos_as_xyz
  1  'x, y, z'
loop_
 _atom_site_type_symbol
 _atom_site_label
 _atom_site_symmetry_multiplicity
 _atom_site_fract_x
 _atom_site_fract_y
 _atom_site_fract_z
 _atom_site_occupancy
  Ho  Ho0  1  0.25000000  0.32824200  0.89222100  1
  Ho  Ho1  1  0.75000000  0.59473400  0.59400000  1
  Ho  Ho2  1  0.75000000  0.10850100  0.66275000  1
  Ho  Ho3  1  0.25000000  0.89149900  0.33725000  1
  Ho  Ho4  1  0.25000000  0.40526600  0.40600000  1
  Ho  Ho5  1  0.75000000  0.67175800  0.10777900  1
  Re  Re0  1  0.25000000  0.81702800  0.82292200  1
  Re  Re1  1  0.75000000  0.18297200  0.17707800  1
  O  O0  1  0.75000000  0.43161500  0.95539100  1
  O  O1  1  0.94939800  0.81380400  0.81204500  1
  O  O2  1  0.55060200  0.81380400  0.81204500  1
  O  O3  1  0.75000000  0.03049800  0.01998800  1
  O  O4  1  0.25000000  0.65290400  0.66017200  1
  O  O5  1  0.00008200  0.32793500  0.66959500  1
  O  O6  1  0.49991800  0.32793500  0.66959500  1
  O  O7  1  0.75000000  0.95851000  0.42524800  1
  O  O8  1  0.25000000  0.04149000  0.57475200  1
  O  O9  1  0.99991800  0.67206500  0.33040500  1
  O  O10  1  0.50008200  0.67206500  0.33040500  1
  O  O11  1  0.75000000  0.34709600  0.33982800  1
  O  O12  1  0.25000000  0.96950200  0.98001200  1
  O  O13  1  0.05060200  0.18619600  0.18795500  1
  O  O14  1  0.44939800  0.18619600  0.18795500  1
  O  O15  1  0.25000000  0.56838500  0.04460900  1
loop_
_geom_bond_atom_site_label_1
_geom_bond_atom_site_label_2
_geom_bond_distance
_geom_bond_site_symmetry_2
Ho0 O5 2.243661 1_555
Ho0 O6 2.243661 1_555
Ho0 O4 2.307742 1_555
Ho0 O14 2.349965 1_556
Ho0 O13 2.349965 1_556
Ho0 O15 2.363812 1_556
Ho0 O12 2.413567 1_545
Ho1 O10 2.363643 1_555
Ho1 O9 2.363643 1_555
Ho1 O5 2.378686 1_655
Ho1 O6 2.378686 1_555
Ho1 O0 2.422524 1_555
Ho1 O7 2.436739 1_555
Ho2 O5 2.238547 1_655
Ho2 O6 2.238547 1_555
Ho2 O11 2.317716 1_555
Ho2 O7 2.335612 1_545
Ho2 O1 2.347046 1_545
Ho2 O2 2.347046 1_545
Ho2 O3 2.419192 1_556
Ho3 O9 2.238547 1_455
Ho3 O10 2.238547 1_555
Ho3 O4 2.317716 1_555
Ho3 O8 2.335612 1_565
Ho3 O14 2.347046 1_565
Ho3 O13 2.347046 1_565
Ho3 O12 2.419192 1_554
Ho4 O5 2.363643 1_555
Ho4 O6 2.363643 1_555
Ho4 O10 2.378686 1_555
Ho4 O9 2.378686 1_455
Ho4 O15 2.422524 1_555
Ho4 O8 2.436739 1_555
Ho5 O10 2.243661 1_555
Ho5 O9 2.243661 1_555
Ho5 O11 2.307742 1_555
Ho5 O1 2.349965 1_554
Ho5 O2 2.349965 1_554
Ho5 O0 2.363812 1_554
Ho5 O3 2.413567 1_565
O0 Re1 1.900646 1_556
O1 Re0 1.890014 1_655
O2 Re0 1.890014 1_555
O3 Re1 1.844014 1_555
O4 Re0 1.946977 1_555
O7 Re1 1.909052 1_565
O8 Re0 1.909052 1_545
O11 Re1 1.946977 1_555
O12 Re0 1.844014 1_555
O13 Re1 1.890014 1_455
O14 Re1 1.890014 1_555
O15 Re0 1.900646 1_554
