# generated using pymatgen
data_Li8Mn7Fe(BO3)8
_symmetry_space_group_name_H-M   'P 1'
_cell_length_a   5.26278900
_cell_length_b   9.11645429
_cell_length_c   11.62481496
_cell_angle_alpha   111.56689058
_cell_angle_beta   102.23244802
_cell_angle_gamma   89.79163078
_symmetry_Int_Tables_number   1
_chemical_formula_structural   Li8Mn7Fe(BO3)8
_chemical_formula_sum   'Li8 Mn7 Fe1 B8 O24'
_cell_volume   505.21702168
_cell_formula_units_Z   1
loop_
 _symmetry_equiv_pos_site_id
 _symmetry_equiv_pos_as_xyz
  1  'x, y, z'
loop_
 _atom_site_type_symbol
 _atom_site_label
 _atom_site_symmetry_multiplicity
 _atom_site_fract_x
 _atom_site_fract_y
 _atom_site_fract_z
 _atom_site_occupancy
  Li  Li0  1  0.03112300  0.03896800  0.41672300  1
  Li  Li1  1  0.29513500  0.28449500  0.91714200  1
  Li  Li2  1  0.48145500  0.50762100  0.66738300  1
  Li  Li3  1  0.27244800  0.24449800  0.16799900  1
  Li  Li4  1  0.52959200  0.54072900  0.41786500  1
  Li  Li5  1  0.79526100  0.78434600  0.91794300  1
  Li  Li6  1  0.98085100  0.00891500  0.66883800  1
  Li  Li7  1  0.77182200  0.74457800  0.16836300  1
  Mn  Mn0  1  0.02339700  0.35654100  0.38306100  1
  Mn  Mn1  1  0.27274600  0.94036700  0.88364000  1
  Mn  Mn2  1  0.24465300  0.56530900  0.13320400  1
  Mn  Mn3  1  0.52375800  0.85850600  0.38623300  1
  Mn  Mn4  1  0.77058300  0.43721200  0.88198500  1
  Mn  Mn5  1  0.74469100  0.06513800  0.13324000  1
  Mn  Mn6  1  0.97536700  0.65577700  0.63345000  1
  Fe  Fe0  1  0.47138900  0.15731700  0.63269700  1
  B  B0  1  0.02409500  0.68604700  0.37597700  1
  B  B1  1  0.26517500  0.60439100  0.87504900  1
  B  B2  1  0.23655300  0.89203400  0.12582500  1
  B  B3  1  0.47020300  0.81659800  0.62679300  1
  B  B4  1  0.52472200  0.18679700  0.37679500  1
  B  B5  1  0.76484200  0.10424600  0.87454400  1
  B  B6  1  0.73627900  0.39193300  0.12564500  1
  B  B7  1  0.97338400  0.31146200  0.62494300  1
  O  O0  1  0.01908400  0.10930400  0.86065500  1
  O  O1  1  0.09743200  0.71164600  0.84512300  1
  O  O2  1  0.17381000  0.49396900  0.91700500  1
  O  O3  1  0.08184900  0.16949300  0.61219500  1
  O  O4  1  0.09960000  0.42486100  0.59657900  1
  O  O5  1  0.23715400  0.84970200  0.66707600  1
  O  O6  1  0.26866900  0.65536700  0.34563900  1
  O  O7  1  0.51929900  0.60790300  0.85999800  1
  O  O8  1  0.59576100  0.21023000  0.84366300  1
  O  O9  1  0.40405900  0.08682300  0.41903600  1
  O  O10  1  0.40447900  0.31536600  0.36116700  1
  O  O11  1  0.67587400  0.99412100  0.91763400  1
  O  O12  1  0.33715800  0.01247800  0.09593200  1
  O  O13  1  0.57194500  0.67150500  0.61094300  1
  O  O14  1  0.59910000  0.92891900  0.59849200  1
  O  O15  1  0.40495700  0.79396000  0.16707500  1
  O  O16  1  0.46885600  0.37016200  0.11058500  1
  O  O17  1  0.73759700  0.34145700  0.66346600  1
  O  O18  1  0.76955900  0.15521100  0.34661000  1
  O  O19  1  0.90386700  0.58534900  0.41808800  1
  O  O20  1  0.90274100  0.81475500  0.36134400  1
  O  O21  1  0.83692800  0.51223600  0.09568200  1
  O  O22  1  0.90487900  0.29394900  0.16713600  1
  O  O23  1  0.96901800  0.87060800  0.11114000  1
loop_
_geom_bond_atom_site_label_1
_geom_bond_atom_site_label_2
_geom_bond_distance
_geom_bond_site_symmetry_2
Li0 O18 1.957338 1_455
Li0 O20 1.976692 1_445
Li0 O9 2.004600 1_555
Li0 O3 2.099540 1_555
Li1 O8 1.957259 1_555
Li1 O0 1.983485 1_555
Li1 O2 2.011823 1_555
Li1 O16 2.084581 1_556
Li2 O13 1.935887 1_555
Li2 O17 2.018510 1_555
Li2 O4 2.034414 1_555
Li2 O7 2.048539 1_555
Li3 O16 1.920782 1_555
Li3 O22 1.983468 1_455
Li3 O12 2.026031 1_555
Li3 O10 2.053821 1_555
Li4 O6 1.956755 1_555
Li4 O10 1.979746 1_555
Li4 O19 2.012014 1_555
Li4 O13 2.081222 1_555
Li5 O1 1.958344 1_655
Li5 O7 1.989032 1_555
Li5 O11 2.011822 1_555
Li5 O23 2.082096 1_556
Li6 O3 1.929180 1_655
Li6 O5 1.975401 1_645
Li6 O14 2.028046 1_545
Li6 O0 2.039891 1_655
Li7 O23 1.924242 1_555
Li7 O15 1.979143 1_555
Li7 O21 2.029649 1_555
Li7 O20 2.051778 1_555
Mn0 O10 2.090100 1_555
Mn0 O19 2.094552 1_455
Mn0 O18 2.130519 1_455
Mn0 O4 2.270038 1_555
Mn0 O22 2.302465 1_455
Mn1 O0 2.088514 1_565
Mn1 O11 2.099361 1_555
Mn1 O1 2.133554 1_555
Mn1 O12 2.256500 1_566
Mn1 O5 2.308174 1_555
Mn2 O16 2.097306 1_555
Mn2 O15 2.116716 1_555
Mn2 O21 2.117657 1_455
Mn2 O6 2.272988 1_555
Mn2 O2 2.298159 1_554
Mn3 O20 2.091595 1_555
Mn3 O9 2.093654 1_565
Mn3 O6 2.135802 1_555
Mn3 O14 2.253996 1_555
Mn3 O15 2.335241 1_555
Mn4 O7 2.090419 1_555
Mn4 O2 2.103283 1_655
Mn4 O8 2.118795 1_555
Mn4 O21 2.268472 1_556
Mn4 O17 2.330020 1_555
Mn5 O23 2.093601 1_545
Mn5 O12 2.116320 1_555
Mn5 O22 2.117758 1_555
Mn5 O18 2.282449 1_555
Mn5 O11 2.292673 1_544
Mn6 O13 2.094432 1_555
Mn6 O5 2.111371 1_655
Mn6 O4 2.118530 1_655
Mn6 O1 2.266736 1_655
Mn6 O19 2.289625 1_555
Fe0 O3 2.020556 1_555
Fe0 O17 2.066906 1_555
Fe0 O14 2.107064 1_545
Fe0 O8 2.264495 1_555
Fe0 O9 2.272199 1_555
B0 O20 1.381611 1_455
B0 O19 1.395923 1_455
B0 O6 1.405903 1_555
B1 O7 1.387035 1_555
B1 O2 1.395097 1_555
B1 O1 1.403592 1_555
B2 O23 1.387565 1_455
B2 O15 1.394331 1_555
B2 O12 1.403371 1_565
B3 O13 1.388437 1_555
B3 O5 1.396936 1_555
B3 O14 1.401502 1_555
B4 O10 1.381917 1_555
B4 O9 1.392987 1_555
B4 O18 1.407465 1_555
B5 O0 1.384184 1_655
B5 O11 1.396631 1_545
B5 O8 1.402712 1_555
B6 O16 1.386675 1_555
B6 O22 1.395529 1_555
B6 O21 1.402848 1_555
B7 O3 1.382883 1_655
B7 O17 1.399333 1_555
B7 O4 1.402528 1_655
