# generated using pymatgen
data_CaZrO3
_symmetry_space_group_name_H-M   'P 1'
_cell_length_a   5.83183500
_cell_length_b   8.12360400
_cell_length_c   11.45709200
_cell_angle_alpha   90.00000000
_cell_angle_beta   90.00000000
_cell_angle_gamma   90.00000000
_symmetry_Int_Tables_number   1
_chemical_formula_structural   CaZrO3
_chemical_formula_sum   'Ca8 Zr8 O24'
_cell_volume   542.78566980
_cell_formula_units_Z   8
loop_
 _symmetry_equiv_pos_site_id
 _symmetry_equiv_pos_as_xyz
  1  'x, y, z'
loop_
 _atom_site_type_symbol
 _atom_site_label
 _atom_site_symmetry_multiplicity
 _atom_site_fract_x
 _atom_site_fract_y
 _atom_site_fract_z
 _atom_site_occupancy
  Ca  Ca0  1  0.24936100  0.50465700  0.36187800  1
  Ca  Ca1  1  0.23578000  0.00512600  0.38789100  1
  Ca  Ca2  1  0.25063900  0.50465700  0.86187800  1
  Ca  Ca3  1  0.26422000  0.00512600  0.88789100  1
  Ca  Ca4  1  0.73578000  0.00512600  0.11210900  1
  Ca  Ca5  1  0.74936100  0.50465700  0.13812200  1
  Ca  Ca6  1  0.76422000  0.00512600  0.61210900  1
  Ca  Ca7  1  0.75063900  0.50465700  0.63812200  1
  Zr  Zr0  1  0.24749000  0.25533100  0.12524600  1
  Zr  Zr1  1  0.24991300  0.75541600  0.12494300  1
  Zr  Zr2  1  0.25251000  0.25533100  0.62524600  1
  Zr  Zr3  1  0.25008700  0.75541600  0.62494300  1
  Zr  Zr4  1  0.74991300  0.75541600  0.37505700  1
  Zr  Zr5  1  0.74749000  0.25533100  0.37475400  1
  Zr  Zr6  1  0.75008700  0.75541600  0.87505700  1
  Zr  Zr7  1  0.75251000  0.25533100  0.87475400  1
  O  O0  1  0.00000000  0.18671000  0.00000000  1
  O  O1  1  0.00000000  0.82235600  0.00000000  1
  O  O2  1  0.00000000  0.19422700  0.50000000  1
  O  O3  1  0.00000000  0.82224800  0.50000000  1
  O  O4  1  0.99875800  0.32270300  0.24953100  1
  O  O5  1  0.01206300  0.69115900  0.25459800  1
  O  O6  1  0.25011700  0.50629700  0.56596400  1
  O  O7  1  0.23179400  0.00654000  0.68445100  1
  O  O8  1  0.26820600  0.00654000  0.18445100  1
  O  O9  1  0.24988300  0.50629700  0.06596400  1
  O  O10  1  0.50124200  0.32270300  0.74953100  1
  O  O11  1  0.48793700  0.69115900  0.75459800  1
  O  O12  1  0.50000000  0.19422700  0.00000000  1
  O  O13  1  0.50000000  0.82224800  0.00000000  1
  O  O14  1  0.50000000  0.82235600  0.50000000  1
  O  O15  1  0.50000000  0.18671000  0.50000000  1
  O  O16  1  0.51206300  0.69115900  0.24540200  1
  O  O17  1  0.49875800  0.32270300  0.25046900  1
  O  O18  1  0.75011700  0.50629700  0.93403600  1
  O  O19  1  0.73179400  0.00654000  0.81554900  1
  O  O20  1  0.74988300  0.50629700  0.43403600  1
  O  O21  1  0.76820600  0.00654000  0.31554900  1
  O  O22  1  0.98793700  0.69115900  0.74540200  1
  O  O23  1  0.00124200  0.32270300  0.75046900  1
loop_
_geom_bond_atom_site_label_1
_geom_bond_atom_site_label_2
_geom_bond_distance
_geom_bond_site_symmetry_2
Ca0 O6 2.338274 1_555
Ca0 O5 2.391922 1_555
Ca0 O17 2.435057 1_555
Ca0 O4 2.444905 1_455
Ca0 O16 2.534441 1_555
Ca1 O8 2.338518 1_555
Ca1 O3 2.397414 1_545
Ca1 O2 2.429065 1_555
Ca1 O15 2.489999 1_555
Ca1 O14 2.495719 1_545
Ca1 O21 2.850019 1_455
Ca2 O9 2.338274 1_556
Ca2 O11 2.391922 1_555
Ca2 O23 2.435057 1_555
Ca2 O10 2.444905 1_555
Ca2 O22 2.534441 1_455
Ca3 O7 2.338518 1_555
Ca3 O13 2.397414 1_546
Ca3 O12 2.429065 1_556
Ca3 O0 2.489999 1_556
Ca3 O1 2.495719 1_546
Ca3 O19 2.850019 1_555
Ca4 O21 2.338518 1_555
Ca4 O13 2.397414 1_545
Ca4 O12 2.429065 1_555
Ca4 O0 2.489999 1_655
Ca4 O1 2.495719 1_645
Ca4 O8 2.850019 1_555
Ca5 O18 2.338274 1_554
Ca5 O16 2.391922 1_555
Ca5 O4 2.435057 1_555
Ca5 O17 2.444905 1_555
Ca5 O5 2.534441 1_655
Ca6 O19 2.338518 1_555
Ca6 O3 2.397414 1_645
Ca6 O2 2.429065 1_655
Ca6 O15 2.489999 1_555
Ca6 O14 2.495719 1_545
Ca6 O7 2.850019 1_655
Ca7 O20 2.338274 1_555
Ca7 O22 2.391922 1_555
Ca7 O10 2.435057 1_555
Ca7 O23 2.444905 1_655
Ca7 O11 2.534441 1_555
O0 Zr7 2.110218 1_454
O0 Zr0 2.110218 1_555
O1 Zr1 2.114006 1_555
O1 Zr6 2.114006 1_454
O2 Zr2 2.115191 1_555
O2 Zr5 2.115191 1_455
O3 Zr3 2.114480 1_555
O3 Zr4 2.114480 1_455
O4 Zr0 2.105064 1_655
O4 Zr5 2.122532 1_555
O5 Zr1 2.098369 1_555
O5 Zr4 2.124726 1_455
O6 Zr3 2.133576 1_555
O6 Zr2 2.148954 1_555
O7 Zr2 2.135292 1_555
O7 Zr3 2.153589 1_545
O8 Zr0 2.135292 1_555
O8 Zr1 2.153589 1_545
O9 Zr1 2.133576 1_555
O9 Zr0 2.148954 1_555
O10 Zr2 2.105064 1_555
O10 Zr7 2.122532 1_555
O11 Zr3 2.098369 1_555
O11 Zr6 2.124726 1_555
O12 Zr7 2.115191 1_554
O12 Zr0 2.115191 1_555
O13 Zr1 2.114480 1_555
O13 Zr6 2.114480 1_554
O14 Zr3 2.114006 1_555
O14 Zr4 2.114006 1_555
O15 Zr2 2.110218 1_555
O15 Zr5 2.110218 1_555
O16 Zr4 2.098369 1_555
O16 Zr1 2.124726 1_555
O17 Zr5 2.105064 1_555
O17 Zr0 2.122532 1_555
O18 Zr6 2.133576 1_555
O18 Zr7 2.148954 1_555
O19 Zr7 2.135292 1_555
O19 Zr6 2.153589 1_545
O20 Zr4 2.133576 1_555
O20 Zr5 2.148954 1_555
O21 Zr5 2.135292 1_555
O21 Zr4 2.153589 1_545
O22 Zr6 2.098369 1_555
O22 Zr3 2.124726 1_655
O23 Zr7 2.105064 1_455
O23 Zr2 2.122532 1_555
