# generated using pymatgen
data_Li4SbS4
_symmetry_space_group_name_H-M   'P 1'
_cell_length_a   6.89020178
_cell_length_b   6.89020178
_cell_length_c   8.00181700
_cell_angle_alpha   90.00000000
_cell_angle_beta   90.00000000
_cell_angle_gamma   97.97963869
_symmetry_Int_Tables_number   1
_chemical_formula_structural   Li4SbS4
_chemical_formula_sum   'Li8 Sb2 S8'
_cell_volume   376.20705295
_cell_formula_units_Z   2
loop_
 _symmetry_equiv_pos_site_id
 _symmetry_equiv_pos_as_xyz
  1  'x, y, z'
loop_
 _atom_site_type_symbol
 _atom_site_label
 _atom_site_symmetry_multiplicity
 _atom_site_fract_x
 _atom_site_fract_y
 _atom_site_fract_z
 _atom_site_occupancy
  Li  Li0  1  0.84256000  0.15744000  0.50000000  1
  Li  Li1  1  0.84256000  0.15744000  0.00000000  1
  Li  Li2  1  0.41760800  0.11520400  0.75000000  1
  Li  Li3  1  0.88479600  0.58239200  0.25000000  1
  Li  Li4  1  0.58239200  0.88479600  0.25000000  1
  Li  Li5  1  0.11520400  0.41760800  0.75000000  1
  Li  Li6  1  0.15744000  0.84256000  0.00000000  1
  Li  Li7  1  0.15744000  0.84256000  0.50000000  1
  Sb  Sb0  1  0.64640900  0.64640900  0.75000000  1
  Sb  Sb1  1  0.35359100  0.35359100  0.25000000  1
  S  S0  1  0.69224100  0.24966800  0.25000000  1
  S  S1  1  0.75033200  0.30775900  0.75000000  1
  S  S2  1  0.79640900  0.79640900  0.00915000  1
  S  S3  1  0.20359100  0.20359100  0.50915000  1
  S  S4  1  0.79640900  0.79640900  0.49085000  1
  S  S5  1  0.20359100  0.20359100  0.99085000  1
  S  S6  1  0.30775900  0.75033200  0.75000000  1
  S  S7  1  0.24966800  0.69224100  0.25000000  1
loop_
_geom_bond_atom_site_label_1
_geom_bond_atom_site_label_2
_geom_bond_distance
_geom_bond_site_symmetry_2
Li0 S1 2.379308 1_555
Li0 S0 2.379308 1_555
Li0 S3 2.464730 1_655
Li0 S4 2.464730 1_545
Li1 S1 2.379308 1_554
Li1 S0 2.379308 1_555
Li1 S5 2.464730 1_654
Li1 S2 2.464730 1_545
Li2 S1 2.484248 1_555
Li2 S6 2.522889 1_545
Li2 S3 2.551269 1_555
Li2 S5 2.551269 1_555
Li3 S0 2.484248 1_555
Li3 S7 2.522889 1_655
Li3 S2 2.551269 1_555
Li3 S4 2.551269 1_555
Li4 S7 2.484248 1_555
Li4 S0 2.522889 1_565
Li4 S2 2.551269 1_555
Li4 S4 2.551269 1_555
Li5 S6 2.484248 1_555
Li5 S1 2.522889 1_455
Li5 S3 2.551269 1_555
Li5 S5 2.551269 1_555
Li6 S6 2.379308 1_554
Li6 S7 2.379308 1_555
Li6 S5 2.464730 1_564
Li6 S2 2.464730 1_455
Li7 S6 2.379308 1_555
Li7 S7 2.379308 1_555
Li7 S3 2.464730 1_565
Li7 S4 2.464730 1_455
S0 Sb1 2.534012 1_555
S1 Sb0 2.534012 1_555
S2 Sb0 2.477884 1_554
S3 Sb1 2.477884 1_555
S4 Sb0 2.477884 1_555
S5 Sb1 2.477884 1_556
S6 Sb0 2.534012 1_555
S7 Sb1 2.534012 1_555
