# generated using pymatgen
data_Li13(FeO6)2
_symmetry_space_group_name_H-M   'P 1'
_cell_length_a   5.56119700
_cell_length_b   5.62580674
_cell_length_c   7.94824477
_cell_angle_alpha   90.16138720
_cell_angle_beta   91.74468783
_cell_angle_gamma   90.29136835
_symmetry_Int_Tables_number   1
_chemical_formula_structural   Li13(FeO6)2
_chemical_formula_sum   'Li13 Fe2 O12'
_cell_volume   248.55093976
_cell_formula_units_Z   1
loop_
 _symmetry_equiv_pos_site_id
 _symmetry_equiv_pos_as_xyz
  1  'x, y, z'
loop_
 _atom_site_type_symbol
 _atom_site_label
 _atom_site_symmetry_multiplicity
 _atom_site_fract_x
 _atom_site_fract_y
 _atom_site_fract_z
 _atom_site_occupancy
  Li  Li0  1  0.70098300  0.11620100  0.63581400  1
  Li  Li1  1  0.37169700  0.18719400  0.89189800  1
  Li  Li2  1  0.04246800  0.22276100  0.28806400  1
  Li  Li3  1  0.81547800  0.39139300  0.89597300  1
  Li  Li4  1  0.48230900  0.31711700  0.19836500  1
  Li  Li5  1  0.12966800  0.30938000  0.60566000  1
  Li  Li6  1  0.92578900  0.63663800  0.40902000  1
  Li  Li7  1  0.49058100  0.71233100  0.77148300  1
  Li  Li8  1  0.16489800  0.62261500  0.10844800  1
  Li  Li9  1  0.00028300  0.78685100  0.71742500  1
  Li  Li10  1  0.58298500  0.81110200  0.08127100  1
  Li  Li11  1  0.28223000  0.88098800  0.39012800  1
  Li  Li12  1  0.69874900  0.98663600  0.35320800  1
  Fe  Fe0  1  0.51089400  0.49659600  0.49504600  1
  Fe  Fe1  1  0.98868500  0.00352500  0.00361700  1
  O  O0  1  0.98617500  0.12992400  0.78243600  1
  O  O1  1  0.69040200  0.14576300  0.05358900  1
  O  O2  1  0.34612600  0.21623200  0.41682600  1
  O  O3  1  0.52048700  0.37412700  0.71928800  1
  O  O4  1  0.15635400  0.28614100  0.07118000  1
  O  O5  1  0.79945300  0.32104500  0.44127100  1
  O  O6  1  0.21780300  0.64439300  0.55804000  1
  O  O7  1  0.82805100  0.72728400  0.92727500  1
  O  O8  1  0.48336700  0.64452300  0.27785200  1
  O  O9  1  0.69129200  0.77801700  0.56214400  1
  O  O10  1  0.28373700  0.85240300  0.94810700  1
  O  O11  1  0.99717700  0.88113200  0.23316800  1
loop_
_geom_bond_atom_site_label_1
_geom_bond_atom_site_label_2
_geom_bond_distance
_geom_bond_site_symmetry_2
Li0 O3 1.898215 1_555
Li0 O0 1.940416 1_555
Li0 O9 1.989034 1_545
Li0 O5 2.018435 1_555
Li1 O3 1.934239 1_555
Li1 O4 1.969978 1_556
Li1 O10 1.998753 1_545
Li1 O1 2.171287 1_556
Li1 O0 2.309795 1_455
Li2 O4 1.888797 1_555
Li2 O5 1.928479 1_455
Li2 O2 1.948354 1_555
Li2 O11 1.982758 1_445
Li3 O7 1.905923 1_555
Li3 O0 1.984476 1_555
Li3 O1 2.003958 1_556
Li3 O3 2.128420 1_555
Li3 O4 2.395585 1_656
Li4 O1 1.918034 1_555
Li4 O8 1.945500 1_555
Li4 O2 1.997990 1_555
Li4 O4 2.054842 1_555
Li5 O0 1.923100 1_455
Li5 O6 1.985340 1_555
Li5 O2 2.021969 1_555
Li5 O5 2.222488 1_455
Li5 O3 2.354290 1_555
Li6 O5 1.926771 1_555
Li6 O9 1.978950 1_555
Li6 O6 1.980881 1_655
Li6 O11 2.010527 1_555
Li7 O3 1.955223 1_555
Li7 O10 2.004065 1_555
Li7 O9 2.064774 1_555
Li7 O7 2.217846 1_555
Li7 O6 2.271372 1_555
Li8 O4 1.915276 1_555
Li8 O10 1.945252 1_554
Li8 O11 2.007443 1_455
Li8 O8 2.194648 1_555
Li8 O7 2.404423 1_454
Li9 O6 1.951391 1_555
Li9 O7 1.977093 1_455
Li9 O0 1.999172 1_465
Li9 O9 2.085223 1_455
Li9 O10 2.407682 1_555
Li10 O8 1.918892 1_555
Li10 O7 1.919055 1_554
Li10 O10 1.960048 1_554
Li10 O1 1.987174 1_565
Li11 O2 1.927355 1_565
Li11 O6 1.927558 1_555
Li11 O8 1.971420 1_555
Li11 O11 1.987200 1_455
Li12 O11 2.029826 1_555
Li12 O9 2.037570 1_555
Li12 O5 2.073868 1_565
Li12 O8 2.328973 1_555
Fe0 O3 1.912002 1_555
Fe0 O2 1.912858 1_555
Fe0 O6 1.913079 1_555
Fe0 O8 1.920795 1_555
Fe0 O9 1.934938 1_555
Fe0 O5 1.946470 1_555
Fe1 O7 1.878543 1_544
Fe1 O1 1.897779 1_555
Fe1 O0 1.897912 1_554
Fe1 O4 1.906663 1_655
Fe1 O10 1.914679 1_644
Fe1 O11 1.951258 1_545
