# generated using pymatgen
data_Cs2WO4
_symmetry_space_group_name_H-M   'P 1'
_cell_length_a   6.53691261
_cell_length_b   7.50133793
_cell_length_c   8.29622776
_cell_angle_alpha   66.56550415
_cell_angle_beta   90.00000000
_cell_angle_gamma   64.16910883
_symmetry_Int_Tables_number   1
_chemical_formula_structural   Cs2WO4
_chemical_formula_sum   'Cs4 W2 O8'
_cell_volume   328.48162246
_cell_formula_units_Z   2
loop_
 _symmetry_equiv_pos_site_id
 _symmetry_equiv_pos_as_xyz
  1  'x, y, z'
loop_
 _atom_site_type_symbol
 _atom_site_label
 _atom_site_symmetry_multiplicity
 _atom_site_fract_x
 _atom_site_fract_y
 _atom_site_fract_z
 _atom_site_occupancy
  Cs  Cs0  1  0.51307727  0.97384546  0.24063952  1
  Cs  Cs1  1  0.15542506  0.68915089  0.74225065  1
  Cs  Cs2  1  0.84457494  0.31084911  0.25774935  1
  Cs  Cs3  1  0.48692273  0.02615454  0.75936048  1
  W  W0  1  0.17390799  0.65218401  0.22039540  1
  W  W1  1  0.82609201  0.34781599  0.77960460  1
  O  O0  1  0.09464173  0.81071554  0.34605071  1
  O  O1  1  0.68060343  0.63879214  0.63393900  1
  O  O2  1  0.08177339  0.28514402  0.91739781  1
  O  O3  1  0.63308259  0.28514402  0.91739781  1
  O  O4  1  0.91822661  0.71485598  0.08260219  1
  O  O5  1  0.36691741  0.71485598  0.08260219  1
  O  O6  1  0.31939657  0.36120786  0.36606100  1
  O  O7  1  0.90535827  0.18928446  0.65394929  1
loop_
_geom_bond_atom_site_label_1
_geom_bond_atom_site_label_2
_geom_bond_distance
_geom_bond_site_symmetry_2
Cs0 O1 3.039944 1_555
Cs0 O3 3.142481 1_564
Cs0 O2 3.142481 1_564
Cs0 O5 3.170142 1_555
Cs0 O4 3.170142 1_555
Cs0 O6 3.213710 1_565
Cs0 O0 3.436497 1_655
Cs0 O0 3.436503 1_555
Cs1 O0 3.015578 1_555
Cs1 O3 3.049015 1_555
Cs1 O2 3.049019 1_555
Cs1 O7 3.123062 1_465
Cs1 O5 3.253734 1_556
Cs1 O4 3.253737 1_456
Cs1 O1 3.446130 1_555
Cs1 O1 3.446142 1_455
Cs2 O7 3.015578 1_555
Cs2 O5 3.049015 1_555
Cs2 O4 3.049019 1_555
Cs2 O0 3.123062 1_645
Cs2 O3 3.253734 1_554
Cs2 O2 3.253737 1_654
Cs2 O6 3.446130 1_555
Cs2 O6 3.446142 1_655
Cs3 O6 3.039944 1_555
Cs3 O5 3.142481 1_546
Cs3 O4 3.142481 1_546
Cs3 O3 3.170142 1_555
Cs3 O2 3.170142 1_555
Cs3 O1 3.213710 1_545
Cs3 O7 3.436497 1_455
Cs3 O7 3.436503 1_555
O0 W0 1.794018 1_555
O1 W1 1.795017 1_555
O2 W1 1.791398 1_455
O3 W1 1.791399 1_555
O4 W0 1.791398 1_655
O5 W0 1.791399 1_555
O6 W0 1.795017 1_555
O7 W1 1.794018 1_555
