# generated using pymatgen
data_Li4Mn3WO8
_symmetry_space_group_name_H-M   'P 1'
_cell_length_a   6.09341430
_cell_length_b   6.09356837
_cell_length_c   10.78937017
_cell_angle_alpha   92.10348792
_cell_angle_beta   74.69597945
_cell_angle_gamma   62.12131353
_symmetry_Int_Tables_number   1
_chemical_formula_structural   Li4Mn3WO8
_chemical_formula_sum   'Li8 Mn6 W2 O16'
_cell_volume   335.48520391
_cell_formula_units_Z   2
loop_
 _symmetry_equiv_pos_site_id
 _symmetry_equiv_pos_as_xyz
  1  'x, y, z'
loop_
 _atom_site_type_symbol
 _atom_site_label
 _atom_site_symmetry_multiplicity
 _atom_site_fract_x
 _atom_site_fract_y
 _atom_site_fract_z
 _atom_site_occupancy
  Li  Li0  1  0.49992700  0.25007400  0.75000000  1
  Li  Li1  1  0.49992500  0.75007300  0.25000000  1
  Li  Li2  1  0.49998000  0.99995000  0.00000700  1
  Li  Li3  1  0.49998600  0.49994500  0.50000200  1
  Li  Li4  1  0.00006700  0.74992800  0.75000400  1
  Li  Li5  1  0.00007600  0.24992800  0.24999600  1
  Li  Li6  1  0.00005800  0.50001300  0.99999300  1
  Li  Li7  1  0.00005700  0.00001200  0.49999800  1
  Mn  Mn0  1  0.99881400  0.25092000  0.75042800  1
  Mn  Mn1  1  0.50035400  0.99964700  0.50000000  1
  Mn  Mn2  1  0.49950800  0.25075800  0.24957200  1
  Mn  Mn3  1  0.99884000  0.75089800  0.25041800  1
  Mn  Mn4  1  0.50035400  0.49965100  0.99999600  1
  Mn  Mn5  1  0.49950700  0.75074800  0.74958400  1
  W  W0  1  0.00020400  0.49979500  0.50000200  1
  W  W1  1  0.00020400  0.99979500  0.00000300  1
  O  O0  1  0.26049000  0.39106200  0.13034300  1
  O  O1  1  0.26049600  0.89102800  0.63036200  1
  O  O2  1  0.73929000  0.60916100  0.86965600  1
  O  O3  1  0.73934200  0.10913200  0.36963800  1
  O  O4  1  0.21654200  0.66060400  0.88688200  1
  O  O5  1  0.21652000  0.16062500  0.38687900  1
  O  O6  1  0.77402200  0.38182800  0.60771200  1
  O  O7  1  0.77404900  0.88180900  0.10770100  1
  O  O8  1  0.77394700  0.10249700  0.88705200  1
  O  O9  1  0.77398300  0.60247900  0.38703600  1
  O  O10  1  0.78457200  0.33897700  0.11294500  1
  O  O11  1  0.78457600  0.83895700  0.61296100  1
  O  O12  1  0.22586500  0.61828500  0.39228800  1
  O  O13  1  0.22587100  0.11827200  0.89229900  1
  O  O14  1  0.22629900  0.89656000  0.11311900  1
  O  O15  1  0.22627500  0.39658800  0.61312400  1
loop_
_geom_bond_atom_site_label_1
_geom_bond_atom_site_label_2
_geom_bond_distance
_geom_bond_site_symmetry_2
Li0 O15 2.400621 1_555
Li0 O4 2.400762 1_555
Li0 O8 2.404152 1_555
Li0 O11 2.404404 1_545
Li0 O6 2.404551 1_555
Li0 O13 2.404644 1_555
Li1 O14 2.400545 1_555
Li1 O5 2.400850 1_565
Li1 O9 2.404177 1_555
Li1 O10 2.404382 1_555
Li1 O12 2.404547 1_555
Li1 O7 2.404653 1_555
Li2 O7 2.149126 1_555
Li2 O13 2.149418 1_564
Li2 O8 2.149443 1_564
Li2 O14 2.152215 1_555
Li2 O2 2.280145 1_554
Li2 O0 2.281489 1_565
Li3 O6 2.149105 1_555
Li3 O12 2.149522 1_555
Li3 O9 2.149573 1_555
Li3 O15 2.152259 1_555
Li3 O3 2.280305 1_555
Li3 O1 2.281467 1_555
Li4 O11 2.149965 1_455
Li4 O8 2.150230 1_465
Li4 O4 2.152470 1_555
Li4 O15 2.152525 1_555
Li4 O1 2.280346 1_555
Li4 O2 2.280455 1_455
Li5 O10 2.150091 1_455
Li5 O9 2.150116 1_455
Li5 O5 2.152390 1_555
Li5 O14 2.152623 1_545
Li5 O3 2.280350 1_455
Li5 O0 2.280477 1_555
Li6 O13 2.149124 1_555
Li6 O7 2.149420 1_456
Li6 O10 2.149477 1_456
Li6 O4 2.152240 1_555
Li6 O0 2.280005 1_556
Li6 O2 2.281357 1_455
Li7 O12 2.149117 1_545
Li7 O6 2.149533 1_455
Li7 O11 2.149595 1_445
Li7 O5 2.152292 1_555
Li7 O1 2.280156 1_545
Li7 O3 2.281327 1_455
Mn0 O2 2.100597 1_555
Mn0 O1 2.112071 1_645
Mn0 O8 2.249220 1_555
Mn0 O6 2.250618 1_555
Mn0 O15 2.250946 1_655
Mn0 O13 2.252447 1_655
Mn1 O3 2.107206 1_565
Mn1 O1 2.107222 1_555
Mn1 O5 2.249148 1_565
Mn1 O15 2.249188 1_565
Mn1 O11 2.249342 1_555
Mn1 O9 2.249376 1_555
Mn2 O0 2.100535 1_555
Mn2 O3 2.112014 1_555
Mn2 O10 2.249217 1_555
Mn2 O12 2.250803 1_555
Mn2 O5 2.250938 1_555
Mn2 O7 2.252642 1_545
Mn3 O3 2.100519 1_565
Mn3 O0 2.111860 1_655
Mn3 O9 2.249131 1_555
Mn3 O7 2.250625 1_555
Mn3 O14 2.250885 1_655
Mn3 O12 2.252296 1_655
Mn4 O2 2.106979 1_555
Mn4 O0 2.107045 1_556
Mn4 O4 2.248981 1_555
Mn4 O14 2.249032 1_556
Mn4 O10 2.249217 1_556
Mn4 O8 2.249228 1_555
Mn5 O1 2.100430 1_555
Mn5 O2 2.111835 1_555
Mn5 O11 2.249181 1_555
Mn5 O13 2.250783 1_565
Mn5 O4 2.250836 1_555
Mn5 O6 2.252521 1_555
O4 W1 1.979090 1_556
O5 W0 1.979005 1_555
O6 W0 1.977148 1_655
O7 W1 1.977059 1_655
O8 W1 1.978275 1_646
O9 W0 1.978249 1_655
O10 W1 1.978213 1_645
O11 W0 1.978200 1_655
O12 W0 1.977175 1_555
O13 W1 1.977099 1_546
O14 W1 1.979064 1_555
O15 W0 1.979010 1_555
