# generated using pymatgen
data_Te2(PO4)3
_symmetry_space_group_name_H-M   'P 1'
_cell_length_a   8.83531008
_cell_length_b   8.83531007
_cell_length_c   8.83531059
_cell_angle_alpha   58.16525998
_cell_angle_beta   58.16526001
_cell_angle_gamma   58.16526204
_symmetry_Int_Tables_number   1
_chemical_formula_structural   Te2(PO4)3
_chemical_formula_sum   'Te4 P6 O24'
_cell_volume   467.19013399
_cell_formula_units_Z   2
loop_
 _symmetry_equiv_pos_site_id
 _symmetry_equiv_pos_as_xyz
  1  'x, y, z'
loop_
 _atom_site_type_symbol
 _atom_site_label
 _atom_site_symmetry_multiplicity
 _atom_site_fract_x
 _atom_site_fract_y
 _atom_site_fract_z
 _atom_site_occupancy
  Te  Te0  1  0.13835375  0.13835375  0.13835375  1
  Te  Te1  1  0.86164625  0.86164625  0.86164625  1
  Te  Te2  1  0.34237625  0.34237625  0.34237625  1
  Te  Te3  1  0.65762375  0.65762375  0.65762375  1
  P  P0  1  0.45105946  0.75571960  0.05384876  1
  P  P1  1  0.75571960  0.05384876  0.45105946  1
  P  P2  1  0.05384876  0.45105946  0.75571960  1
  P  P3  1  0.94615124  0.54894054  0.24428040  1
  P  P4  1  0.24428040  0.94615124  0.54894054  1
  P  P5  1  0.54894054  0.24428040  0.94615124  1
  O  O0  1  0.50133626  0.20295621  0.15894562  1
  O  O1  1  0.15894562  0.50133626  0.20295621  1
  O  O2  1  0.20295621  0.15894562  0.50133626  1
  O  O3  1  0.46967940  0.54543013  0.16669799  1
  O  O4  1  0.24073064  0.88596141  0.11443452  1
  O  O5  1  0.57902573  0.79938816  0.07604710  1
  O  O6  1  0.88596141  0.11443452  0.24073064  1
  O  O7  1  0.54543013  0.16669799  0.46967940  1
  O  O8  1  0.16669799  0.46967940  0.54543013  1
  O  O9  1  0.92395290  0.42097427  0.20061184  1
  O  O10  1  0.88556548  0.75926936  0.11403859  1
  O  O11  1  0.20061184  0.92395290  0.42097427  1
  O  O12  1  0.79938816  0.07604710  0.57902573  1
  O  O13  1  0.11443452  0.24073064  0.88596141  1
  O  O14  1  0.07604710  0.57902573  0.79938816  1
  O  O15  1  0.83330201  0.53032060  0.45456987  1
  O  O16  1  0.45456987  0.83330201  0.53032060  1
  O  O17  1  0.11403859  0.88556548  0.75926936  1
  O  O18  1  0.42097427  0.20061184  0.92395290  1
  O  O19  1  0.75926936  0.11403859  0.88556548  1
  O  O20  1  0.53032060  0.45456987  0.83330201  1
  O  O21  1  0.79704379  0.84105438  0.49866374  1
  O  O22  1  0.84105438  0.49866374  0.79704379  1
  O  O23  1  0.49866374  0.79704379  0.84105438  1
loop_
_geom_bond_atom_site_label_1
_geom_bond_atom_site_label_2
_geom_bond_distance
_geom_bond_site_symmetry_2
O0 P5 1.564809 1_554
O0 Te2 1.999047 1_555
O1 P3 1.564809 1_455
O1 Te2 1.999047 1_555
O2 P4 1.564809 1_545
O2 Te2 1.999047 1_555
O3 P0 1.539335 1_555
O3 Te2 2.059674 1_555
O4 P0 1.551959 1_555
O4 Te0 2.000796 1_565
O5 P0 1.496524 1_555
O5 Te1 2.342199 1_554
O6 P1 1.551959 1_555
O6 Te0 2.000796 1_655
O7 P1 1.539335 1_555
O7 Te2 2.059674 1_555
O8 P2 1.539335 1_555
O8 Te2 2.059675 1_555
O9 P3 1.496524 1_555
O9 Te0 2.342199 1_655
O10 P3 1.551959 1_555
O10 Te1 2.000796 1_554
O11 P4 1.496524 1_555
O11 Te0 2.342199 1_565
O12 P1 1.496524 1_555
O12 Te1 2.342199 1_545
O13 P2 1.551959 1_555
O13 Te0 2.000796 1_556
O14 P2 1.496524 1_555
O14 Te1 2.342199 1_455
O15 P3 1.539335 1_555
O15 Te3 2.059675 1_555
O16 P4 1.539335 1_555
O16 Te3 2.059674 1_555
O17 P4 1.551959 1_555
O17 Te1 2.000796 1_455
O18 P5 1.496524 1_555
O18 Te0 2.342199 1_556
O19 P5 1.551959 1_555
O19 Te1 2.000796 1_545
O20 P5 1.539335 1_555
O20 Te3 2.059674 1_555
O21 P1 1.564809 1_565
O21 Te3 1.999047 1_555
O22 P2 1.564809 1_655
O22 Te3 1.999047 1_555
O23 P0 1.564809 1_556
O23 Te3 1.999047 1_555
