# generated using pymatgen
data_LiFe2(BO3)2
_symmetry_space_group_name_H-M   'P 1'
_cell_length_a   5.24803300
_cell_length_b   9.11442748
_cell_length_c   11.33347533
_cell_angle_alpha   112.65621627
_cell_angle_beta   103.25333450
_cell_angle_gamma   89.57606874
_symmetry_Int_Tables_number   1
_chemical_formula_structural   LiFe2(BO3)2
_chemical_formula_sum   'Li4 Fe8 B8 O24'
_cell_volume   484.97474549
_cell_formula_units_Z   4
loop_
 _symmetry_equiv_pos_site_id
 _symmetry_equiv_pos_as_xyz
  1  'x, y, z'
loop_
 _atom_site_type_symbol
 _atom_site_label
 _atom_site_symmetry_multiplicity
 _atom_site_fract_x
 _atom_site_fract_y
 _atom_site_fract_z
 _atom_site_occupancy
  Li  Li0  1  0.03013900  0.03527900  0.41075900  1
  Li  Li1  1  0.48256700  0.50759400  0.66065500  1
  Li  Li2  1  0.52629500  0.52778600  0.39538000  1
  Li  Li3  1  0.76070600  0.74781100  0.15490200  1
  Fe  Fe0  1  0.03502800  0.35415600  0.38111000  1
  Fe  Fe1  1  0.26753500  0.93493300  0.87919500  1
  Fe  Fe2  1  0.48958600  0.14864000  0.63483800  1
  Fe  Fe3  1  0.23129400  0.55925100  0.12450400  1
  Fe  Fe4  1  0.76385100  0.43158100  0.87883200  1
  Fe  Fe5  1  0.52901200  0.84727300  0.38170500  1
  Fe  Fe6  1  0.96836000  0.66541900  0.63270200  1
  Fe  Fe7  1  0.73795300  0.07321700  0.13093200  1
  B  B0  1  0.01730200  0.68238700  0.36917800  1
  B  B1  1  0.26531400  0.60718200  0.87879800  1
  B  B2  1  0.46849400  0.81329500  0.62725000  1
  B  B3  1  0.23812600  0.89241700  0.12773700  1
  B  B4  1  0.52476400  0.18708700  0.37989000  1
  B  B5  1  0.76942100  0.10009700  0.87860200  1
  B  B6  1  0.98474300  0.31617900  0.62352200  1
  B  B7  1  0.73188800  0.40363500  0.13523800  1
  O  O0  1  0.02349800  0.08433100  0.87782200  1
  O  O1  1  0.12070700  0.72338800  0.84763600  1
  O  O2  1  0.15121800  0.51981600  0.93503900  1
  O  O3  1  0.12252900  0.18293700  0.61155500  1
  O  O4  1  0.08025500  0.43527400  0.59348600  1
  O  O5  1  0.25948300  0.84447100  0.68587300  1
  O  O6  1  0.25618200  0.65164300  0.33143400  1
  O  O7  1  0.50487500  0.58027200  0.85323600  1
  O  O8  1  0.62374000  0.19985400  0.82644700  1
  O  O9  1  0.42208100  0.07881100  0.42160800  1
  O  O10  1  0.41144800  0.32317500  0.38665200  1
  O  O11  1  0.64174000  0.01828400  0.93474300  1
  O  O12  1  0.37019600  0.98585000  0.08441800  1
  O  O13  1  0.58050100  0.67128300  0.60300900  1
  O  O14  1  0.55553200  0.92465800  0.58489100  1
  O  O15  1  0.37987000  0.77905200  0.16426000  1
  O  O16  1  0.48214900  0.42061200  0.14770400  1
  O  O17  1  0.74088300  0.32633500  0.65722900  1
  O  O18  1  0.75701600  0.15246200  0.33271800  1
  O  O19  1  0.91101700  0.58236000  0.41446700  1
  O  O20  1  0.89274000  0.81196300  0.35694300  1
  O  O21  1  0.85252300  0.50869600  0.09621100  1
  O  O22  1  0.87285600  0.28710800  0.16613100  1
  O  O23  1  0.98337700  0.91344500  0.13924400  1
loop_
_geom_bond_atom_site_label_1
_geom_bond_atom_site_label_2
_geom_bond_distance
_geom_bond_site_symmetry_2
Li0 O20 1.974451 1_445
Li0 O18 2.025188 1_455
Li0 O9 2.064464 1_555
Li0 O3 2.090316 1_555
Li1 O13 1.957829 1_555
Li1 O7 1.996606 1_555
Li1 O4 2.090177 1_555
Li1 O17 2.123726 1_555
Li2 O10 1.923053 1_555
Li2 O6 1.986116 1_555
Li2 O19 2.025442 1_555
Li2 O13 2.157865 1_555
Li2 O16 2.545588 1_555
Li3 O23 2.000934 1_555
Li3 O15 2.037742 1_555
Li3 O20 2.076617 1_555
Li3 O21 2.106894 1_555
Fe0 O10 1.983597 1_555
Fe0 O19 2.092764 1_455
Fe0 O18 2.169104 1_455
Fe0 O4 2.183135 1_555
Fe0 O22 2.223501 1_455
Fe1 O0 1.864408 1_565
Fe1 O1 1.950288 1_555
Fe1 O11 1.979111 1_565
Fe1 O5 2.012077 1_555
Fe1 O12 2.124374 1_556
Fe2 O3 1.923448 1_555
Fe2 O14 1.948560 1_545
Fe2 O8 1.988040 1_555
Fe2 O17 1.997062 1_555
Fe2 O9 2.190106 1_555
Fe3 O16 1.863237 1_555
Fe3 O21 1.968239 1_455
Fe3 O2 1.977514 1_554
Fe3 O15 1.997765 1_555
Fe3 O6 2.136824 1_555
Fe4 O7 1.965413 1_555
Fe4 O8 2.052007 1_555
Fe4 O2 2.054515 1_655
Fe4 O21 2.219306 1_556
Fe4 O17 2.291145 1_555
Fe5 O20 1.998254 1_555
Fe5 O9 2.082437 1_565
Fe5 O14 2.103082 1_555
Fe5 O6 2.105968 1_555
Fe5 O15 2.239375 1_555
Fe6 O13 1.989352 1_555
Fe6 O5 2.053722 1_655
Fe6 O4 2.079823 1_655
Fe6 O1 2.230236 1_655
Fe6 O19 2.236236 1_555
Fe7 O22 1.937183 1_555
Fe7 O23 1.952103 1_545
Fe7 O12 1.967165 1_545
Fe7 O11 2.020124 1_554
Fe7 O18 2.094132 1_555
B0 O19 1.380243 1_455
B0 O20 1.383663 1_455
B0 O6 1.407655 1_555
B1 O7 1.353661 1_555
B1 O2 1.404273 1_555
B1 O1 1.405652 1_555
B2 O13 1.373026 1_555
B2 O5 1.381830 1_555
B2 O14 1.397202 1_555
B3 O23 1.377687 1_455
B3 O12 1.390502 1_555
B3 O15 1.403302 1_555
B4 O10 1.354539 1_555
B4 O9 1.404290 1_555
B4 O18 1.426240 1_555
B5 O0 1.341747 1_655
B5 O8 1.398986 1_555
B5 O11 1.406514 1_555
B6 O4 1.384329 1_655
B6 O3 1.386068 1_655
B6 O17 1.409797 1_555
B7 O16 1.351569 1_555
B7 O22 1.397853 1_555
B7 O21 1.406079 1_555
