# generated using pymatgen
data_Li3Ti2(PO4)3
_symmetry_space_group_name_H-M   'P 1'
_cell_length_a   10.32539919
_cell_length_b   10.32539919
_cell_length_c   10.32539919
_cell_angle_alpha   109.47122063
_cell_angle_beta   109.47122063
_cell_angle_gamma   109.47122063
_symmetry_Int_Tables_number   1
_chemical_formula_structural   Li3Ti2(PO4)3
_chemical_formula_sum   'Li12 Ti8 P12 O48'
_cell_volume   847.41990626
_cell_formula_units_Z   4
loop_
 _symmetry_equiv_pos_site_id
 _symmetry_equiv_pos_as_xyz
  1  'x, y, z'
loop_
 _atom_site_type_symbol
 _atom_site_label
 _atom_site_symmetry_multiplicity
 _atom_site_fract_x
 _atom_site_fract_y
 _atom_site_fract_z
 _atom_site_occupancy
  Li  Li0  1  0.75000000  0.12500000  0.37500000  1
  Li  Li1  1  0.87500000  0.62500000  0.25000000  1
  Li  Li2  1  0.37500000  0.12500000  0.25000000  1
  Li  Li3  1  0.25000000  0.37500000  0.12500000  1
  Li  Li4  1  0.87500000  0.75000000  0.62500000  1
  Li  Li5  1  0.37500000  0.75000000  0.12500000  1
  Li  Li6  1  0.62500000  0.25000000  0.87500000  1
  Li  Li7  1  0.12500000  0.25000000  0.37500000  1
  Li  Li8  1  0.75000000  0.62500000  0.87500000  1
  Li  Li9  1  0.12500000  0.37500000  0.75000000  1
  Li  Li10  1  0.62500000  0.87500000  0.75000000  1
  Li  Li11  1  0.25000000  0.87500000  0.62500000  1
  Ti  Ti0  1  0.50000000  0.00000000  0.00000000  1
  Ti  Ti1  1  0.00000000  0.00000000  0.00000000  1
  Ti  Ti2  1  0.50000000  0.00000000  0.50000000  1
  Ti  Ti3  1  0.50000000  0.50000000  0.00000000  1
  Ti  Ti4  1  0.50000000  0.50000000  0.50000000  1
  Ti  Ti5  1  0.00000000  0.50000000  0.00000000  1
  Ti  Ti6  1  0.00000000  0.00000000  0.50000000  1
  Ti  Ti7  1  0.00000000  0.50000000  0.50000000  1
  P  P0  1  0.87500000  0.25000000  0.12500000  1
  P  P1  1  0.62500000  0.37500000  0.25000000  1
  P  P2  1  0.87500000  0.12500000  0.75000000  1
  P  P3  1  0.75000000  0.87500000  0.12500000  1
  P  P4  1  0.75000000  0.37500000  0.62500000  1
  P  P5  1  0.62500000  0.75000000  0.37500000  1
  P  P6  1  0.37500000  0.25000000  0.62500000  1
  P  P7  1  0.25000000  0.62500000  0.37500000  1
  P  P8  1  0.25000000  0.12500000  0.87500000  1
  P  P9  1  0.12500000  0.87500000  0.25000000  1
  P  P10  1  0.37500000  0.62500000  0.75000000  1
  P  P11  1  0.12500000  0.75000000  0.87500000  1
  O  O0  1  0.88690400  0.00302800  0.29775400  1
  O  O1  1  0.88387600  0.38690400  0.08915000  1
  O  O2  1  0.91085000  0.29472600  0.29775400  1
  O  O3  1  0.91085000  0.11612400  0.61309600  1
  O  O4  1  0.99697200  0.70224600  0.11309600  1
  O  O5  1  0.58915000  0.20224600  0.20527400  1
  O  O6  1  0.61612400  0.41085000  0.11309600  1
  O  O7  1  0.20527400  0.11612400  0.00302800  1
  O  O8  1  0.70527400  0.70224600  0.08915000  1
  O  O9  1  0.88690400  0.38387600  0.58915000  1
  O  O10  1  0.61309600  0.20224600  0.49697200  1
  O  O11  1  0.70224600  0.08915000  0.70527400  1
  O  O12  1  0.11612400  0.00302800  0.20527400  1
  O  O13  1  0.79775400  0.50302800  0.38690400  1
  O  O14  1  0.49697200  0.38387600  0.29472600  1
  O  O15  1  0.49697200  0.61309600  0.20224600  1
  O  O16  1  0.41085000  0.11309600  0.61612400  1
  O  O17  1  0.00302800  0.20527400  0.11612400  1
  O  O18  1  0.70224600  0.11309600  0.99697200  1
  O  O19  1  0.38387600  0.29472600  0.49697200  1
  O  O20  1  0.79775400  0.79472600  0.41085000  1
  O  O21  1  0.70527400  0.50302800  0.61612400  1
  O  O22  1  0.61309600  0.91085000  0.11612400  1
  O  O23  1  0.79472600  0.41085000  0.79775400  1
  O  O24  1  0.38690400  0.08915000  0.88387600  1
  O  O25  1  0.20527400  0.58915000  0.20224600  1
  O  O26  1  0.29472600  0.49697200  0.38387600  1
  O  O27  1  0.20224600  0.20527400  0.58915000  1
  O  O28  1  0.29775400  0.88690400  0.00302800  1
  O  O29  1  0.61612400  0.70527400  0.50302800  1
  O  O30  1  0.58915000  0.88690400  0.38387600  1
  O  O31  1  0.99697200  0.79472600  0.88387600  1
  O  O32  1  0.50302800  0.38690400  0.79775400  1
  O  O33  1  0.50302800  0.61612400  0.70527400  1
  O  O34  1  0.88387600  0.99697200  0.79472600  1
  O  O35  1  0.29775400  0.91085000  0.29472600  1
  O  O36  1  0.20224600  0.49697200  0.61309600  1
  O  O37  1  0.11309600  0.61612400  0.41085000  1
  O  O38  1  0.38690400  0.79775400  0.50302800  1
  O  O39  1  0.29472600  0.29775400  0.91085000  1
  O  O40  1  0.79472600  0.88387600  0.99697200  1
  O  O41  1  0.38387600  0.58915000  0.88690400  1
  O  O42  1  0.08915000  0.88387600  0.38690400  1
  O  O43  1  0.41085000  0.79775400  0.79472600  1
  O  O44  1  0.00302800  0.29775400  0.88690400  1
  O  O45  1  0.08915000  0.70527400  0.70224600  1
  O  O46  1  0.11612400  0.61309600  0.91085000  1
  O  O47  1  0.11309600  0.99697200  0.70224600  1
loop_
_geom_bond_atom_site_label_1
_geom_bond_atom_site_label_2
_geom_bond_distance
_geom_bond_site_symmetry_2
Li0 O10 2.342935 1_555
Li0 O0 2.342935 1_555
Li0 O9 2.342935 1_555
Li0 O22 2.342935 1_545
Li0 O5 2.518002 1_555
Li0 O3 2.518002 1_555
Li0 O30 2.518002 1_545
Li0 O2 2.518002 1_555
Li1 O13 2.342935 1_555
Li1 O6 2.342935 1_555
Li1 O42 2.342935 1_655
Li1 O4 2.342935 1_555
Li1 O37 2.518002 1_655
Li1 O8 2.518002 1_555
Li1 O20 2.518002 1_555
Li1 O1 2.518002 1_555
Li2 O14 2.342935 1_555
Li2 O35 2.342935 1_545
Li2 O12 2.342935 1_555
Li2 O5 2.342935 1_555
Li2 O19 2.518002 1_555
Li2 O10 2.518002 1_555
Li2 O7 2.518002 1_555
Li2 O28 2.518002 1_545
Li3 O26 2.342935 1_555
Li3 O39 2.342935 1_554
Li3 O7 2.342935 1_555
Li3 O25 2.342935 1_555
Li3 O14 2.518002 1_555
Li3 O15 2.518002 1_555
Li3 O17 2.518002 1_555
Li3 O44 2.518002 1_554
Li4 O20 2.342935 1_555
Li4 O29 2.342935 1_555
Li4 O45 2.342935 1_655
Li4 O31 2.342935 1_555
Li4 O34 2.518002 1_555
Li4 O47 2.518002 1_655
Li4 O21 2.518002 1_555
Li4 O13 2.518002 1_555
Li5 O15 2.342935 1_555
Li5 O28 2.342935 1_555
Li5 O30 2.342935 1_555
Li5 O46 2.342935 1_554
Li5 O25 2.518002 1_555
Li5 O22 2.518002 1_555
Li5 O41 2.518002 1_554
Li5 O35 2.518002 1_555
Li6 O32 2.342935 1_555
Li6 O16 2.342935 1_555
Li6 O1 2.342935 1_556
Li6 O18 2.342935 1_555
Li6 O6 2.518002 1_556
Li6 O11 2.518002 1_555
Li6 O23 2.518002 1_555
Li6 O24 2.518002 1_555
Li7 O19 2.342935 1_555
Li7 O2 2.342935 1_455
Li7 O17 2.342935 1_555
Li7 O27 2.342935 1_555
Li7 O26 2.518002 1_555
Li7 O36 2.518002 1_555
Li7 O12 2.518002 1_555
Li7 O0 2.518002 1_455
Li8 O23 2.342935 1_555
Li8 O21 2.342935 1_555
Li8 O8 2.342935 1_556
Li8 O40 2.342935 1_555
Li8 O31 2.518002 1_555
Li8 O4 2.518002 1_556
Li8 O33 2.518002 1_555
Li8 O32 2.518002 1_555
Li9 O36 2.342935 1_555
Li9 O44 2.342935 1_555
Li9 O41 2.342935 1_555
Li9 O3 2.342935 1_455
Li9 O27 2.518002 1_555
Li9 O46 2.518002 1_555
Li9 O9 2.518002 1_455
Li9 O39 2.518002 1_555
Li10 O43 2.342935 1_555
Li10 O33 2.342935 1_555
Li10 O11 2.342935 1_565
Li10 O34 2.342935 1_555
Li10 O40 2.518002 1_555
Li10 O18 2.518002 1_565
Li10 O29 2.518002 1_555
Li10 O38 2.518002 1_555
Li11 O38 2.342935 1_555
Li11 O37 2.342935 1_555
Li11 O24 2.342935 1_565
Li11 O47 2.342935 1_555
Li11 O16 2.518002 1_565
Li11 O45 2.518002 1_555
Li11 O43 2.518002 1_555
Li11 O42 2.518002 1_555
O0 P3 1.558443 1_545
O0 Ti6 2.041483 1_655
O1 P0 1.558443 1_555
O1 Ti5 2.041483 1_655
O2 P0 1.558443 1_555
O2 Ti7 2.041483 1_655
O3 P2 1.558443 1_555
O3 Ti6 2.041483 1_655
O4 P9 1.558443 1_655
O4 Ti5 2.041483 1_655
O5 P1 1.558443 1_555
O5 Ti0 2.041483 1_555
O6 P1 1.558443 1_555
O6 Ti3 2.041483 1_555
O7 P8 1.558443 1_554
O7 Ti1 2.041483 1_555
O8 P3 1.558443 1_555
O8 Ti3 2.041483 1_555
O9 P4 1.558443 1_555
O9 Ti7 2.041483 1_655
O10 P4 1.558443 1_555
O10 Ti2 2.041483 1_555
O11 P2 1.558443 1_555
O11 Ti2 2.041483 1_555
O12 P9 1.558443 1_545
O12 Ti1 2.041483 1_555
O13 P1 1.558443 1_555
O13 Ti7 2.041483 1_655
O14 P1 1.558443 1_555
O14 Ti4 2.041483 1_555
O15 P5 1.558443 1_555
O15 Ti3 2.041483 1_555
O16 P6 1.558443 1_555
O16 Ti2 2.041483 1_555
O17 P0 1.558443 1_455
O17 Ti1 2.041483 1_555
O18 P0 1.558443 1_556
O18 Ti0 2.041483 1_556
O19 P6 1.558443 1_555
O19 Ti4 2.041483 1_555
O20 P5 1.558443 1_555
O20 Ti6 2.041483 1_665
O21 P4 1.558443 1_555
O21 Ti4 2.041483 1_555
O22 P3 1.558443 1_555
O22 Ti0 2.041483 1_565
O23 P4 1.558443 1_555
O23 Ti5 2.041483 1_656
O24 P8 1.558443 1_555
O24 Ti0 2.041483 1_556
O25 P7 1.558443 1_555
O25 Ti5 2.041483 1_555
O26 P7 1.558443 1_555
O26 Ti4 2.041483 1_555
O27 P6 1.558443 1_555
O27 Ti6 2.041483 1_555
O28 P11 1.558443 1_554
O28 Ti0 2.041483 1_565
O29 P5 1.558443 1_555
O29 Ti4 2.041483 1_555
O30 P5 1.558443 1_555
O30 Ti2 2.041483 1_565
O31 P11 1.558443 1_655
O31 Ti1 2.041483 1_666
O32 P6 1.558443 1_555
O32 Ti3 2.041483 1_556
O33 P10 1.558443 1_555
O33 Ti4 2.041483 1_555
O34 P2 1.558443 1_565
O34 Ti1 2.041483 1_666
O35 P9 1.558443 1_555
O35 Ti2 2.041483 1_565
O36 P10 1.558443 1_555
O36 Ti7 2.041483 1_555
O37 P7 1.558443 1_555
O37 Ti7 2.041483 1_555
O38 P7 1.558443 1_555
O38 Ti2 2.041483 1_565
O39 P8 1.558443 1_555
O39 Ti3 2.041483 1_556
O40 P3 1.558443 1_556
O40 Ti1 2.041483 1_666
O41 P10 1.558443 1_555
O41 Ti3 2.041483 1_556
O42 P9 1.558443 1_555
O42 Ti6 2.041483 1_565
O43 P10 1.558443 1_555
O43 Ti0 2.041483 1_566
O44 P2 1.558443 1_455
O44 Ti5 2.041483 1_556
O45 P11 1.558443 1_555
O45 Ti7 2.041483 1_555
O46 P11 1.558443 1_555
O46 Ti5 2.041483 1_556
O47 P8 1.558443 1_565
O47 Ti6 2.041483 1_565
