# generated using pymatgen
data_Li14Fe4O13
_symmetry_space_group_name_H-M   'P 1'
_cell_length_a   27.39099300
_cell_length_b   5.31866500
_cell_length_c   5.36533089
_cell_angle_alpha   62.34152342
_cell_angle_beta   90.00000000
_cell_angle_gamma   90.00000000
_symmetry_Int_Tables_number   1
_chemical_formula_structural   Li14Fe4O13
_chemical_formula_sum   'Li28 Fe8 O26'
_cell_volume   692.32244832
_cell_formula_units_Z   2
loop_
 _symmetry_equiv_pos_site_id
 _symmetry_equiv_pos_as_xyz
  1  'x, y, z'
loop_
 _atom_site_type_symbol
 _atom_site_label
 _atom_site_symmetry_multiplicity
 _atom_site_fract_x
 _atom_site_fract_y
 _atom_site_fract_z
 _atom_site_occupancy
  Li  Li0  1  0.32342200  0.16541300  0.84989300  1
  Li  Li1  1  0.55770500  0.20930300  0.79181300  1
  Li  Li2  1  0.17657800  0.66541300  0.84989300  1
  Li  Li3  1  0.94229500  0.70930300  0.79181300  1
  Li  Li4  1  0.38771200  0.69379800  0.77809000  1
  Li  Li5  1  0.72527000  0.76879300  0.65425100  1
  Li  Li6  1  0.50129500  0.73240900  0.73341900  1
  Li  Li7  1  0.28049300  0.73210000  0.70036000  1
  Li  Li8  1  0.61395800  0.77896100  0.69537100  1
  Li  Li9  1  0.11228800  0.19379800  0.77809000  1
  Li  Li10  1  0.11395800  0.72103900  0.30462900  1
  Li  Li11  1  0.77473000  0.26879300  0.65425100  1
  Li  Li12  1  0.99870500  0.23240900  0.73341900  1
  Li  Li13  1  0.21950700  0.23210000  0.70036000  1
  Li  Li14  1  0.78049300  0.76790000  0.29964000  1
  Li  Li15  1  0.00129500  0.76759100  0.26658100  1
  Li  Li16  1  0.22527000  0.73120700  0.34574900  1
  Li  Li17  1  0.88604200  0.27896100  0.69537100  1
  Li  Li18  1  0.88771200  0.80620200  0.22191000  1
  Li  Li19  1  0.38604200  0.22103900  0.30462900  1
  Li  Li20  1  0.71950700  0.26790000  0.29964000  1
  Li  Li21  1  0.49870500  0.26759100  0.26658100  1
  Li  Li22  1  0.27473000  0.23120700  0.34574900  1
  Li  Li23  1  0.61228800  0.30620200  0.22191000  1
  Li  Li24  1  0.05770500  0.29069700  0.20818700  1
  Li  Li25  1  0.82342200  0.33458700  0.15010700  1
  Li  Li26  1  0.44229500  0.79069700  0.20818700  1
  Li  Li27  1  0.67657800  0.83458700  0.15010700  1
  Fe  Fe0  1  0.66861100  0.31576300  0.69353100  1
  Fe  Fe1  1  0.05540200  0.77063700  0.72818500  1
  Fe  Fe2  1  0.83138900  0.81576300  0.69353100  1
  Fe  Fe3  1  0.55540200  0.72936300  0.27181500  1
  Fe  Fe4  1  0.44459800  0.27063700  0.72818500  1
  Fe  Fe5  1  0.16861100  0.18423700  0.30646900  1
  Fe  Fe6  1  0.94459800  0.22936300  0.27181500  1
  Fe  Fe7  1  0.33138900  0.68423700  0.30646900  1
  O  O0  1  0.44109100  0.22669000  0.09077000  1
  O  O1  1  0.67230900  0.25170600  0.06336800  1
  O  O2  1  0.05890900  0.72669000  0.09077000  1
  O  O3  1  0.27945400  0.45382600  0.55094600  1
  O  O4  1  0.05647300  0.40355000  0.77577900  1
  O  O5  1  0.82573900  0.44781600  0.73455800  1
  O  O6  1  0.82769100  0.75170600  0.06336800  1
  O  O7  1  0.39121400  0.50065300  0.49419200  1
  O  O8  1  0.22054600  0.95382600  0.55094600  1
  O  O9  1  0.44352700  0.90355000  0.77577900  1
  O  O10  1  0.67426100  0.94781600  0.73455800  1
  O  O11  1  0.89121400  0.99934700  0.50580800  1
  O  O12  1  0.00000000  0.00000000  0.50000000  1
  O  O13  1  0.10878600  0.00065300  0.49419200  1
  O  O14  1  0.32573900  0.05218400  0.26544200  1
  O  O15  1  0.55647300  0.09645000  0.22422100  1
  O  O16  1  0.77945400  0.04617400  0.44905400  1
  O  O17  1  0.60878600  0.49934700  0.50580800  1
  O  O18  1  0.50000000  0.50000000  0.50000000  1
  O  O19  1  0.17230900  0.24829400  0.93663200  1
  O  O20  1  0.17426100  0.55218400  0.26544200  1
  O  O21  1  0.94352700  0.59645000  0.22422100  1
  O  O22  1  0.72054600  0.54617400  0.44905400  1
  O  O23  1  0.94109100  0.27331000  0.90923000  1
  O  O24  1  0.32769100  0.74829400  0.93663200  1
  O  O25  1  0.55890900  0.77331000  0.90923000  1
loop_
_geom_bond_atom_site_label_1
_geom_bond_atom_site_label_2
_geom_bond_distance
_geom_bond_site_symmetry_2
Li0 O14 2.022639 1_556
Li0 O3 2.022839 1_555
Li0 O24 2.047812 1_545
Li1 O25 2.102141 1_545
Li1 O15 2.109748 1_556
Li1 O17 2.120003 1_555
Li1 O18 2.256704 1_555
Li2 O20 2.022639 1_556
Li2 O8 2.022839 1_555
Li2 O19 2.047812 1_555
Li3 O23 2.102141 1_555
Li3 O21 2.109748 1_556
Li3 O11 2.120003 1_555
Li3 O12 2.256704 1_665
Li4 O9 1.889231 1_555
Li4 O24 1.933735 1_555
Li4 O7 2.199401 1_555
Li5 O10 1.850753 1_555
Li5 O22 1.959848 1_555
Li5 O16 2.020735 1_565
Li6 O9 1.891032 1_555
Li6 O25 1.902112 1_555
Li6 O18 2.129523 1_555
Li7 O24 1.840414 1_555
Li7 O8 1.962617 1_555
Li7 O3 1.983818 1_555
Li8 O25 1.886550 1_555
Li8 O10 1.937620 1_555
Li8 O17 2.161120 1_555
Li9 O4 1.889231 1_555
Li9 O19 1.933735 1_555
Li9 O13 2.199401 1_555
Li10 O2 1.886550 1_555
Li10 O20 1.937620 1_555
Li10 O13 2.161120 1_565
Li11 O5 1.850753 1_555
Li11 O16 1.959848 1_555
Li11 O22 2.020735 1_555
Li12 O4 1.891032 1_655
Li12 O23 1.902112 1_555
Li12 O12 2.129523 1_655
Li13 O19 1.840414 1_555
Li13 O3 1.962617 1_555
Li13 O8 1.983818 1_545
Li14 O6 1.840414 1_555
Li14 O22 1.962617 1_555
Li14 O16 1.983818 1_565
Li15 O21 1.891032 1_455
Li15 O2 1.902112 1_555
Li15 O12 2.129523 1_565
Li16 O20 1.850753 1_555
Li16 O8 1.959848 1_555
Li16 O3 2.020735 1_555
Li17 O23 1.886550 1_555
Li17 O5 1.937620 1_555
Li17 O11 2.161120 1_545
Li18 O21 1.889231 1_555
Li18 O6 1.933735 1_555
Li18 O11 2.199401 1_555
Li19 O0 1.886550 1_555
Li19 O14 1.937620 1_555
Li19 O7 2.161120 1_555
Li20 O1 1.840414 1_555
Li20 O16 1.962617 1_555
Li20 O22 1.983818 1_555
Li21 O15 1.891032 1_555
Li21 O0 1.902112 1_555
Li21 O18 2.129523 1_555
Li22 O14 1.850753 1_555
Li22 O3 1.959848 1_555
Li22 O8 2.020735 1_545
Li23 O15 1.889231 1_555
Li23 O1 1.933735 1_555
Li23 O17 2.199401 1_555
Li24 O2 2.102141 1_555
Li24 O4 2.109748 1_554
Li24 O13 2.120003 1_555
Li24 O12 2.256704 1_555
Li25 O5 2.022639 1_554
Li25 O16 2.022839 1_555
Li25 O6 2.047812 1_555
Li26 O0 2.102141 1_565
Li26 O9 2.109748 1_554
Li26 O7 2.120003 1_555
Li26 O18 2.256704 1_555
Li27 O10 2.022639 1_554
Li27 O22 2.022839 1_555
Li27 O1 2.047812 1_565
Fe0 O1 1.853681 1_556
Fe0 O10 1.871434 1_545
Fe0 O17 1.933917 1_555
Fe0 O22 1.937431 1_555
Fe1 O4 1.848004 1_555
Fe1 O2 1.851011 1_556
Fe1 O13 1.945517 1_565
Fe1 O12 1.975683 1_565
Fe2 O6 1.853681 1_556
Fe2 O5 1.871434 1_555
Fe2 O11 1.933917 1_555
Fe2 O16 1.937431 1_565
Fe3 O15 1.848004 1_565
Fe3 O25 1.851011 1_554
Fe3 O17 1.945517 1_555
Fe3 O18 1.975683 1_555
Fe4 O9 1.848004 1_545
Fe4 O0 1.851011 1_556
Fe4 O7 1.945517 1_555
Fe4 O18 1.975683 1_555
Fe5 O19 1.853681 1_554
Fe5 O20 1.871434 1_555
Fe5 O13 1.933917 1_555
Fe5 O8 1.937431 1_545
Fe6 O21 1.848004 1_555
Fe6 O23 1.851011 1_554
Fe6 O11 1.945517 1_545
Fe6 O12 1.975683 1_655
Fe7 O24 1.853681 1_554
Fe7 O14 1.871434 1_565
Fe7 O7 1.933917 1_555
Fe7 O3 1.937431 1_555
