# generated using pymatgen
data_LiP5WO15
_symmetry_space_group_name_H-M   'P 1'
_cell_length_a   13.85346000
_cell_length_b   9.50386400
_cell_length_c   10.70076055
_cell_angle_alpha   68.08307292
_cell_angle_beta   90.00000000
_cell_angle_gamma   90.00000000
_symmetry_Int_Tables_number   1
_chemical_formula_structural   LiP5WO15
_chemical_formula_sum   'Li4 P20 W4 O60'
_cell_volume   1307.05195687
_cell_formula_units_Z   4
loop_
 _symmetry_equiv_pos_site_id
 _symmetry_equiv_pos_as_xyz
  1  'x, y, z'
loop_
 _atom_site_type_symbol
 _atom_site_label
 _atom_site_symmetry_multiplicity
 _atom_site_fract_x
 _atom_site_fract_y
 _atom_site_fract_z
 _atom_site_occupancy
  Li  Li0  1  0.36724900  0.07158200  0.73480600  1
  Li  Li1  1  0.63275100  0.92841800  0.26519400  1
  Li  Li2  1  0.13275100  0.07158200  0.23480600  1
  Li  Li3  1  0.86724900  0.92841800  0.76519400  1
  P  P0  1  0.74820700  0.98441500  0.48704700  1
  P  P1  1  0.42489200  0.81741100  0.50479800  1
  P  P2  1  0.08764000  0.82417000  0.51584900  1
  P  P3  1  0.35833100  0.52442500  0.48964300  1
  P  P4  1  0.14384000  0.52769400  0.49239900  1
  P  P5  1  0.85616000  0.47230600  0.50760100  1
  P  P6  1  0.64166900  0.47557500  0.51035700  1
  P  P7  1  0.91236000  0.17583000  0.48415100  1
  P  P8  1  0.57510800  0.18258900  0.49520200  1
  P  P9  1  0.25179300  0.01558500  0.51295300  1
  P  P10  1  0.75179300  0.98441500  0.98704700  1
  P  P11  1  0.07510800  0.81741100  0.00479800  1
  P  P12  1  0.41236000  0.82417000  0.01584900  1
  P  P13  1  0.14166900  0.52442500  0.98964300  1
  P  P14  1  0.35616000  0.52769400  0.99239900  1
  P  P15  1  0.85833100  0.47557500  0.01035700  1
  P  P16  1  0.64384000  0.47230600  0.00760100  1
  P  P17  1  0.92489200  0.18258900  0.99520200  1
  P  P18  1  0.58764000  0.17583000  0.98415100  1
  P  P19  1  0.24820700  0.01558500  0.01295300  1
  W  W0  1  0.99909700  0.50229400  0.74798400  1
  W  W1  1  0.49909700  0.49770600  0.75201600  1
  W  W2  1  0.00090300  0.49770600  0.25201600  1
  W  W3  1  0.50090300  0.50229400  0.24798400  1
  O  O0  1  0.76667900  0.92909900  0.63368500  1
  O  O1  1  0.34438500  0.89596300  0.55838700  1
  O  O2  1  0.16687600  0.88487400  0.59027400  1
  O  O3  1  0.47687600  0.71562400  0.63526400  1
  O  O4  1  0.02083800  0.72390700  0.62984000  1
  O  O5  1  0.87763800  0.49401900  0.63874600  1
  O  O6  1  0.62118200  0.49916300  0.64085700  1
  O  O7  1  0.42109300  0.43572500  0.60869800  1
  O  O8  1  0.07914800  0.44002200  0.60865500  1
  O  O9  1  0.25103900  0.46799800  0.53259700  1
  O  O10  1  0.35705800  0.69863600  0.46031800  1
  O  O11  1  0.15022700  0.70039000  0.46995200  1
  O  O12  1  0.73281600  0.88568200  0.40953300  1
  O  O13  1  0.48636900  0.90837200  0.39211800  1
  O  O14  1  0.04463000  0.93505100  0.39293800  1
  O  O15  1  0.51363100  0.09162800  0.60788200  1
  O  O16  1  0.95537000  0.06494900  0.60706200  1
  O  O17  1  0.26718400  0.11431800  0.59046700  1
  O  O18  1  0.84977300  0.29961000  0.53004800  1
  O  O19  1  0.64294200  0.30136400  0.53968200  1
  O  O20  1  0.74896100  0.53200200  0.46740300  1
  O  O21  1  0.92085200  0.55997800  0.39134500  1
  O  O22  1  0.57890700  0.56427500  0.39130200  1
  O  O23  1  0.12236200  0.50598100  0.36125400  1
  O  O24  1  0.37881800  0.50083700  0.35914300  1
  O  O25  1  0.97916200  0.27609300  0.37016000  1
  O  O26  1  0.52312400  0.28437600  0.36473600  1
  O  O27  1  0.83312400  0.11512600  0.40972600  1
  O  O28  1  0.65561500  0.10403700  0.44161300  1
  O  O29  1  0.73332100  0.92909900  0.13368500  1
  O  O30  1  0.23332100  0.07090100  0.36631500  1
  O  O31  1  0.15561500  0.89596300  0.05838700  1
  O  O32  1  0.33312400  0.88487400  0.09027400  1
  O  O33  1  0.47916200  0.72390700  0.12984000  1
  O  O34  1  0.02312400  0.71562400  0.13526400  1
  O  O35  1  0.87881800  0.49916300  0.14085700  1
  O  O36  1  0.62236200  0.49401900  0.13874600  1
  O  O37  1  0.07890700  0.43572500  0.10869800  1
  O  O38  1  0.42085200  0.44002200  0.10865500  1
  O  O39  1  0.24896100  0.46799800  0.03259700  1
  O  O40  1  0.34977300  0.70039000  0.96995200  1
  O  O41  1  0.14294200  0.69863600  0.96031800  1
  O  O42  1  0.76718400  0.88568200  0.90953300  1
  O  O43  1  0.45537000  0.93505100  0.89293800  1
  O  O44  1  0.01363100  0.90837200  0.89211800  1
  O  O45  1  0.98636900  0.09162800  0.10788200  1
  O  O46  1  0.54463000  0.06494900  0.10706200  1
  O  O47  1  0.23281600  0.11431800  0.09046700  1
  O  O48  1  0.85705800  0.30136400  0.03968200  1
  O  O49  1  0.65022700  0.29961000  0.03004800  1
  O  O50  1  0.75103900  0.53200200  0.96740300  1
  O  O51  1  0.92109300  0.56427500  0.89130200  1
  O  O52  1  0.57914800  0.55997800  0.89134500  1
  O  O53  1  0.37763800  0.50598100  0.86125400  1
  O  O54  1  0.12118200  0.50083700  0.85914300  1
  O  O55  1  0.97687600  0.28437600  0.86473600  1
  O  O56  1  0.52083800  0.27609300  0.87016000  1
  O  O57  1  0.84438500  0.10403700  0.94161300  1
  O  O58  1  0.66687600  0.11512600  0.90972600  1
  O  O59  1  0.26667900  0.07090100  0.86631500  1
loop_
_geom_bond_atom_site_label_1
_geom_bond_atom_site_label_2
_geom_bond_distance
_geom_bond_site_symmetry_2
Li0 O59 1.978562 1_555
Li0 O17 2.000981 1_555
Li0 O43 2.097188 1_545
Li0 O15 2.408352 1_555
Li1 O29 1.978562 1_555
Li1 O12 2.000981 1_555
Li1 O46 2.097188 1_565
Li1 O13 2.408352 1_555
Li2 O30 1.978562 1_555
Li2 O47 2.000981 1_555
Li2 O14 2.097188 1_545
Li2 O45 2.408352 1_455
Li3 O0 1.978562 1_555
Li3 O42 2.000981 1_555
Li3 O16 2.097188 1_565
Li3 O44 2.408352 1_655
O0 P0 1.479268 1_555
O1 P1 1.565137 1_555
O1 P9 1.661805 1_565
O2 P2 1.585884 1_555
O2 P9 1.686531 1_565
O3 P1 1.547670 1_555
O3 W1 2.003325 1_555
O4 P2 1.544220 1_555
O4 W0 2.034016 1_455
O5 P5 1.522070 1_555
O5 W0 2.066989 1_555
O6 P6 1.521374 1_555
O6 W1 2.064768 1_555
O7 P3 1.512583 1_555
O7 W1 2.130987 1_555
O8 P4 1.507064 1_555
O8 W0 2.112266 1_455
O9 P3 1.588751 1_555
O9 P4 1.590653 1_555
O10 P3 1.565948 1_555
O10 P1 1.668827 1_555
O11 P4 1.570037 1_555
O11 P2 1.675764 1_555
O12 P0 1.481549 1_555
O13 P1 1.465737 1_555
O14 P2 1.469929 1_555
O15 P8 1.465737 1_555
O16 P7 1.469929 1_555
O17 P9 1.481549 1_555
O18 P5 1.570037 1_555
O18 P7 1.675764 1_555
O19 P6 1.565948 1_555
O19 P8 1.668827 1_555
O20 P6 1.588751 1_555
O20 P5 1.590653 1_555
O21 P5 1.507064 1_555
O21 W2 2.112266 1_655
O22 P6 1.512583 1_555
O22 W3 2.130987 1_555
O23 P4 1.522070 1_555
O23 W2 2.066989 1_555
O24 P3 1.521374 1_555
O24 W3 2.064768 1_555
O25 P7 1.544220 1_555
O25 W2 2.034016 1_655
O26 P8 1.547670 1_555
O26 W3 2.003325 1_555
O27 P7 1.585884 1_555
O27 P0 1.686531 1_545
O28 P8 1.565137 1_555
O28 P0 1.661805 1_545
O29 P10 1.479268 1_554
O30 P9 1.479268 1_555
O31 P11 1.565137 1_555
O31 P19 1.661805 1_565
O32 P12 1.585884 1_555
O32 P19 1.686531 1_565
O33 P12 1.544220 1_555
O33 W3 2.034016 1_555
O34 P11 1.547670 1_555
O34 W2 2.003325 1_555
O35 P15 1.521374 1_555
O35 W2 2.064768 1_655
O36 P16 1.522070 1_555
O36 W3 2.066989 1_555
O37 P13 1.512583 1_554
O37 W2 2.130987 1_555
O38 P14 1.507064 1_554
O38 W3 2.112266 1_555
O39 P13 1.588751 1_554
O39 P14 1.590653 1_554
O40 P14 1.570037 1_555
O40 P12 1.675764 1_556
O41 P13 1.565948 1_555
O41 P11 1.668827 1_556
O42 P10 1.481549 1_555
O43 P12 1.469929 1_556
O44 P11 1.465737 1_556
O45 P17 1.465737 1_554
O46 P18 1.469929 1_554
O47 P19 1.481549 1_555
O48 P15 1.565948 1_555
O48 P17 1.668827 1_554
O49 P16 1.570037 1_555
O49 P18 1.675764 1_554
O50 P15 1.588751 1_556
O50 P16 1.590653 1_556
O51 P15 1.512583 1_556
O51 W0 2.130987 1_555
O52 P16 1.507064 1_556
O52 W1 2.112266 1_555
O53 P14 1.522070 1_555
O53 W1 2.066989 1_555
O54 P13 1.521374 1_555
O54 W0 2.064768 1_455
O55 P17 1.547670 1_555
O55 W0 2.003325 1_555
O56 P18 1.544220 1_555
O56 W1 2.034016 1_555
O57 P17 1.565137 1_555
O57 P10 1.661805 1_545
O58 P18 1.585884 1_555
O58 P10 1.686531 1_545
O59 P19 1.479268 1_556
