# generated using pymatgen
data_VCr2Ni3(PO4)6
_symmetry_space_group_name_H-M   'P 1'
_cell_length_a   8.36521304
_cell_length_b   8.36521304
_cell_length_c   8.36521319
_cell_angle_alpha   62.00391177
_cell_angle_beta   62.00391177
_cell_angle_gamma   62.00391190
_symmetry_Int_Tables_number   1
_chemical_formula_structural   VCr2Ni3(PO4)6
_chemical_formula_sum   'V1 Cr2 Ni3 P6 O24'
_cell_volume   432.47207588
_cell_formula_units_Z   1
loop_
 _symmetry_equiv_pos_site_id
 _symmetry_equiv_pos_as_xyz
  1  'x, y, z'
loop_
 _atom_site_type_symbol
 _atom_site_label
 _atom_site_symmetry_multiplicity
 _atom_site_fract_x
 _atom_site_fract_y
 _atom_site_fract_z
 _atom_site_occupancy
  V  V0  1  0.14618900  0.14618900  0.14618900  1
  Cr  Cr0  1  0.99900000  0.99900000  0.99900000  1
  Cr  Cr1  1  0.49771300  0.49771300  0.49771300  1
  Ni  Ni0  1  0.64226900  0.64226900  0.64226900  1
  Ni  Ni1  1  0.85544200  0.85544200  0.85544200  1
  Ni  Ni2  1  0.35755400  0.35755400  0.35755400  1
  P  P0  1  0.95219400  0.25266100  0.55058800  1
  P  P1  1  0.55058800  0.95219400  0.25266100  1
  P  P2  1  0.25266100  0.55058800  0.95219400  1
  P  P3  1  0.74959900  0.45307100  0.04721400  1
  P  P4  1  0.45307100  0.04721400  0.74959900  1
  P  P5  1  0.04721400  0.74959900  0.45307100  1
  O  O0  1  0.50546500  0.10412800  0.32788800  1
  O  O1  1  0.32788800  0.50546500  0.10412800  1
  O  O2  1  0.10412800  0.32788800  0.50546500  1
  O  O3  1  0.93770000  0.09573700  0.74914900  1
  O  O4  1  0.01516000  0.17340500  0.38070700  1
  O  O5  1  0.75191700  0.39921200  0.54884500  1
  O  O6  1  0.74914900  0.93770000  0.09573700  1
  O  O7  1  0.54884500  0.75191700  0.39921200  1
  O  O8  1  0.82785600  0.60196200  0.00877200  1
  O  O9  1  0.39921200  0.54884500  0.75191700  1
  O  O10  1  0.91239700  0.24405500  0.06829700  1
  O  O11  1  0.60196200  0.00877200  0.82785600  1
  O  O12  1  0.38070700  0.01516000  0.17340500  1
  O  O13  1  0.09573700  0.74914900  0.93770000  1
  O  O14  1  0.59989900  0.43291800  0.25206200  1
  O  O15  1  0.17340500  0.38070700  0.01516000  1
  O  O16  1  0.43291800  0.25206200  0.59989900  1
  O  O17  1  0.24405500  0.06829700  0.91239700  1
  O  O18  1  0.25206200  0.59989900  0.43291800  1
  O  O19  1  0.00877200  0.82785600  0.60196200  1
  O  O20  1  0.06829700  0.91239700  0.24405500  1
  O  O21  1  0.89312300  0.68551200  0.48034100  1
  O  O22  1  0.68551200  0.48034100  0.89312300  1
  O  O23  1  0.48034100  0.89312300  0.68551200  1
loop_
_geom_bond_atom_site_label_1
_geom_bond_atom_site_label_2
_geom_bond_distance
_geom_bond_site_symmetry_2
Cr0 O6 2.077232 1_556
Cr0 O13 2.077232 1_655
Cr0 O3 2.077232 1_565
Cr0 O17 2.095289 1_665
Cr0 O10 2.095289 1_566
Cr0 O20 2.095289 1_656
Cr1 O16 2.051533 1_555
Cr1 O18 2.051533 1_555
Cr1 O14 2.051533 1_555
Cr1 O7 2.064419 1_555
Cr1 O5 2.064419 1_555
Cr1 O9 2.064419 1_555
Ni0 O21 1.988270 1_555
Ni0 O23 1.988270 1_555
Ni0 O22 1.988270 1_555
Ni0 O9 2.157321 1_555
Ni0 O5 2.157321 1_555
Ni0 O7 2.157321 1_555
Ni1 O8 1.955180 1_556
Ni1 O11 1.955180 1_565
Ni1 O19 1.955180 1_655
Ni1 O3 2.085868 1_565
Ni1 O13 2.085868 1_655
Ni1 O6 2.085868 1_556
Ni2 O2 1.956993 1_555
Ni2 O0 1.956993 1_555
Ni2 O1 1.956993 1_555
Ni2 O14 2.069791 1_555
Ni2 O18 2.069791 1_555
Ni2 O16 2.069791 1_555
O0 P1 1.493755 1_545
O1 P2 1.493755 1_554
O2 P0 1.493755 1_455
O3 P0 1.552471 1_555
O4 P0 1.609488 1_455
O4 V0 1.807805 1_555
O5 P0 1.545276 1_555
O6 P1 1.552471 1_555
O7 P1 1.545276 1_555
O8 P3 1.508329 1_555
O9 P2 1.545276 1_555
O10 P3 1.625843 1_555
O10 V0 2.027817 1_655
O11 P4 1.508329 1_555
O12 P1 1.609488 1_545
O12 V0 1.807805 1_555
O13 P2 1.552471 1_555
O14 P3 1.563777 1_555
O15 P2 1.609488 1_554
O15 V0 1.807805 1_555
O16 P4 1.563777 1_555
O17 P4 1.625843 1_555
O17 V0 2.027817 1_556
O18 P5 1.563777 1_555
O19 P5 1.508329 1_555
O20 P5 1.625843 1_555
O20 V0 2.027817 1_565
O21 P5 1.502952 1_655
O22 P3 1.502952 1_556
O23 P4 1.502952 1_565
