# generated using pymatgen
data_Li7NiOF7
_symmetry_space_group_name_H-M   'P 1'
_cell_length_a   2.93214489
_cell_length_b   15.23845594
_cell_length_c   6.51074326
_cell_angle_alpha   92.25884617
_cell_angle_beta   103.01033870
_cell_angle_gamma   90.02196045
_symmetry_Int_Tables_number   1
_chemical_formula_structural   Li7NiOF7
_chemical_formula_sum   'Li14 Ni2 O2 F14'
_cell_volume   283.20803402
_cell_formula_units_Z   2
loop_
 _symmetry_equiv_pos_site_id
 _symmetry_equiv_pos_as_xyz
  1  'x, y, z'
loop_
 _atom_site_type_symbol
 _atom_site_label
 _atom_site_symmetry_multiplicity
 _atom_site_fract_x
 _atom_site_fract_y
 _atom_site_fract_z
 _atom_site_occupancy
  Li  Li0  1  0.06049400  0.18112800  0.12129300  1
  Li  Li1  1  0.56049200  0.68109800  0.12128200  1
  Li  Li2  1  0.12787900  0.36947800  0.25612300  1
  Li  Li3  1  0.62787800  0.86943400  0.25612600  1
  Li  Li4  1  0.68471600  0.07031800  0.36977900  1
  Li  Li5  1  0.18470000  0.57031200  0.36975500  1
  Li  Li6  1  0.80728900  0.43574000  0.61486400  1
  Li  Li7  1  0.30729700  0.93572200  0.61488800  1
  Li  Li8  1  0.74898300  0.24875500  0.49829000  1
  Li  Li9  1  0.24898300  0.74870600  0.49829600  1
  Li  Li10  1  0.43686600  0.30722200  0.87423800  1
  Li  Li11  1  0.93684600  0.80716500  0.87419400  1
  Li  Li12  1  0.38017700  0.12959800  0.76085100  1
  Li  Li13  1  0.88015800  0.62958000  0.76081300  1
  Ni  Ni0  1  0.50331200  0.50925300  0.00548400  1
  Ni  Ni1  1  0.00280800  0.00934400  0.00544800  1
  O  O0  1  0.53064300  0.09225400  0.06075100  1
  O  O1  1  0.03077100  0.59219400  0.06070700  1
  F  F0  1  0.65684400  0.46456200  0.31408400  1
  F  F1  1  0.15675000  0.96445800  0.31424800  1
  F  F2  1  0.59367700  0.28364800  0.18850600  1
  F  F3  1  0.09368700  0.78350500  0.18850000  1
  F  F4  1  0.28182900  0.34380200  0.56367800  1
  F  F5  1  0.78180600  0.84374700  0.56371600  1
  F  F6  1  0.22497200  0.15786200  0.44791700  1
  F  F7  1  0.72510600  0.65783000  0.44795200  1
  F  F8  1  0.96894900  0.40647000  0.93717900  1
  F  F9  1  0.46875700  0.90640800  0.93712300  1
  F  F10  1  0.90297900  0.22263400  0.80855100  1
  F  F11  1  0.40316600  0.72243300  0.80826500  1
  F  F12  1  0.84059100  0.02767100  0.67856600  1
  F  F13  1  0.34058600  0.52766700  0.67854100  1
loop_
_geom_bond_atom_site_label_1
_geom_bond_atom_site_label_2
_geom_bond_distance
_geom_bond_site_symmetry_2
Li0 O0 2.020831 1_455
Li0 O0 2.023340 1_555
Li1 O1 2.020856 1_555
Li1 O1 2.023989 1_655
Li4 O0 2.001962 1_555
Li5 O1 2.001918 1_555
Li12 O0 2.007717 1_556
Li13 O1 2.007887 1_656
Ni0 O1 1.957278 1_655
Ni0 O1 1.958645 1_555
Ni1 O0 1.957684 1_455
Ni1 O0 1.957791 1_555
F0 Li6 1.975203 1_555
F0 Li2 2.083042 1_555
F0 Li2 2.083861 1_655
F0 Ni0 2.098628 1_555
F0 Li5 2.196176 1_655
F0 Li5 2.196895 1_555
F1 Li7 1.973995 1_555
F1 Li3 2.082207 1_455
F1 Li3 2.083741 1_555
F1 Ni1 2.100905 1_565
F1 Li4 2.197630 1_565
F1 Li4 2.197647 1_465
F2 Li2 1.999133 1_555
F2 Li2 2.000123 1_655
F2 Li10 2.039983 1_554
F2 Li8 2.056515 1_555
F2 Li0 2.170815 1_555
F2 Li0 2.173270 1_655
F3 Li3 2.000152 1_455
F3 Li3 2.001073 1_555
F3 Li11 2.040503 1_454
F3 Li9 2.056163 1_555
F3 Li1 2.169615 1_455
F3 Li1 2.172032 1_555
F4 Li2 2.005347 1_555
F4 Li6 2.044023 1_555
F4 Li6 2.045328 1_455
F4 Li10 2.069044 1_555
F4 Li8 2.090509 1_455
F4 Li8 2.090632 1_555
F5 Li3 2.005604 1_555
F5 Li7 2.044474 1_655
F5 Li7 2.045619 1_555
F5 Li11 2.068552 1_555
F5 Li9 2.090401 1_555
F5 Li9 2.090684 1_655
F6 Li4 2.027887 1_555
F6 Li8 2.030372 1_555
F6 Li4 2.032213 1_455
F6 Li8 2.036084 1_455
F6 Li12 2.048312 1_555
F6 Li0 2.116212 1_555
F7 Li5 2.027457 1_655
F7 Li9 2.029920 1_655
F7 Li5 2.032294 1_555
F7 Li9 2.036139 1_555
F7 Li13 2.047807 1_555
F7 Li1 2.116507 1_555
F8 Li6 2.110318 1_555
F8 Li2 2.122216 1_656
F8 Li10 2.131552 1_655
F8 Li10 2.133252 1_555
F8 Ni0 2.176035 1_556
F8 Ni0 2.176088 1_656
F9 Li7 2.109990 1_555
F9 Li3 2.122493 1_556
F9 Li11 2.131820 1_555
F9 Li11 2.132852 1_455
F9 Ni1 2.177133 1_666
F9 Ni1 2.178352 1_566
F10 Li10 1.983272 1_555
F10 Li10 1.987093 1_655
F10 Li8 2.023779 1_555
F10 Li12 2.050743 1_555
F10 Li12 2.055884 1_655
F10 Li0 2.106586 1_656
F11 Li11 1.985672 1_455
F11 Li11 1.988070 1_555
F11 Li9 2.022510 1_555
F11 Li13 2.049336 1_455
F11 Li13 2.053099 1_555
F11 Li1 2.107369 1_556
F12 Li7 2.054001 1_645
F12 Li7 2.059347 1_545
F12 Li4 2.088676 1_555
F12 Ni1 2.103527 1_656
F12 Li12 2.180261 1_655
F12 Li12 2.187152 1_555
F13 Li6 2.053766 1_555
F13 Li6 2.059128 1_455
F13 Li5 2.088659 1_555
F13 Ni0 2.104138 1_556
F13 Li13 2.180079 1_555
F13 Li13 2.187000 1_455
