# generated using pymatgen
data_Li4Si2NiO7
_symmetry_space_group_name_H-M   'P 1'
_cell_length_a   7.18567291
_cell_length_b   7.18567291
_cell_length_c   8.01996211
_cell_angle_alpha   84.88556534
_cell_angle_beta   84.88556534
_cell_angle_gamma   44.66452571
_symmetry_Int_Tables_number   1
_chemical_formula_structural   Li4Si2NiO7
_chemical_formula_sum   'Li8 Si4 Ni2 O14'
_cell_volume   289.73979405
_cell_formula_units_Z   2
loop_
 _symmetry_equiv_pos_site_id
 _symmetry_equiv_pos_as_xyz
  1  'x, y, z'
loop_
 _atom_site_type_symbol
 _atom_site_label
 _atom_site_symmetry_multiplicity
 _atom_site_fract_x
 _atom_site_fract_y
 _atom_site_fract_z
 _atom_site_occupancy
  Li  Li0  1  0.41773200  0.73412100  0.12447500  1
  Li  Li1  1  0.73412100  0.41773200  0.62447500  1
  Li  Li2  1  0.53526400  0.88106700  0.40401400  1
  Li  Li3  1  0.88106700  0.53526400  0.90401400  1
  Li  Li4  1  0.42531900  0.13049300  0.05266600  1
  Li  Li5  1  0.13049300  0.42531900  0.55266600  1
  Li  Li6  1  0.81554900  0.19132400  0.97779300  1
  Li  Li7  1  0.19132400  0.81554900  0.47779300  1
  Si  Si0  1  0.96697900  0.30633900  0.25934200  1
  Si  Si1  1  0.30633900  0.96697900  0.75934200  1
  Si  Si2  1  0.59335500  0.25615100  0.33226100  1
  Si  Si3  1  0.25615100  0.59335500  0.83226100  1
  Ni  Ni0  1  0.01489800  0.69252900  0.20312800  1
  Ni  Ni1  1  0.69252900  0.01489800  0.70312800  1
  O  O0  1  0.83975600  0.21595800  0.39798800  1
  O  O1  1  0.21595800  0.83975600  0.89798800  1
  O  O2  1  0.79176600  0.42769300  0.09397100  1
  O  O3  1  0.42769300  0.79176600  0.59397100  1
  O  O4  1  0.28007800  0.04463400  0.22662000  1
  O  O5  1  0.04463400  0.28007800  0.72662000  1
  O  O6  1  0.91709200  0.53567300  0.35300300  1
  O  O7  1  0.53567300  0.91709200  0.85300300  1
  O  O8  1  0.52560000  0.14235400  0.48504500  1
  O  O9  1  0.14235400  0.52560000  0.98504500  1
  O  O10  1  0.70056500  0.08070700  0.16517400  1
  O  O11  1  0.08070700  0.70056500  0.66517400  1
  O  O12  1  0.33313500  0.57290000  0.29483900  1
  O  O13  1  0.57290000  0.33313500  0.79483900  1
loop_
_geom_bond_atom_site_label_1
_geom_bond_atom_site_label_2
_geom_bond_distance
_geom_bond_site_symmetry_2
Li0 O4 1.915711 1_565
Li0 O2 1.921582 1_555
Li0 O12 2.037122 1_555
Li0 O1 2.153121 1_554
Li1 O5 1.915711 1_655
Li1 O3 1.921582 1_555
Li1 O13 2.037122 1_555
Li1 O0 2.153121 1_555
Li2 O3 1.910876 1_555
Li2 O4 1.967017 1_565
Li2 O8 1.994059 1_565
Li2 O6 2.037038 1_555
Li3 O2 1.910876 1_556
Li3 O5 1.967017 1_655
Li3 O9 1.994059 1_655
Li3 O7 2.037038 1_555
Li4 O4 1.979653 1_555
Li4 O7 2.006506 1_544
Li4 O10 2.026843 1_555
Li4 O9 2.049260 1_554
Li5 O5 1.979653 1_555
Li5 O6 2.006506 1_455
Li5 O11 2.026843 1_555
Li5 O8 2.049260 1_555
Li6 O2 1.903424 1_556
Li6 O13 1.973227 1_555
Li6 O10 2.018091 1_556
Li6 O1 2.165773 1_645
Li7 O3 1.903424 1_555
Li7 O12 1.973227 1_555
Li7 O11 2.018091 1_555
Li7 O0 2.165773 1_465
Ni0 O9 1.965304 1_554
Ni0 O12 1.974869 1_555
Ni0 O6 1.985885 1_455
Ni0 O10 1.995993 1_465
Ni1 O8 1.965304 1_555
Ni1 O13 1.974869 1_555
Ni1 O7 1.985885 1_545
Ni1 O11 1.995993 1_645
O0 Si2 1.705289 1_555
O0 Si0 1.740250 1_555
O1 Si3 1.705289 1_555
O1 Si1 1.740250 1_555
O2 Si0 1.623066 1_555
O3 Si1 1.623066 1_555
O4 Si0 1.622166 1_455
O5 Si1 1.622166 1_545
O6 Si0 1.655526 1_555
O7 Si1 1.655526 1_555
O8 Si2 1.639634 1_555
O9 Si3 1.639634 1_555
O10 Si2 1.647460 1_555
O11 Si3 1.647460 1_555
O12 Si2 1.640501 1_555
O13 Si3 1.640501 1_555
