# generated using pymatgen
data_Sr4Hf3O10
_symmetry_space_group_name_H-M   'P 1'
_cell_length_a   15.02441556
_cell_length_b   15.02441556
_cell_length_c   5.72171056
_cell_angle_alpha   90.00000000
_cell_angle_beta   90.00000000
_cell_angle_gamma   158.04714325
_symmetry_Int_Tables_number   1
_chemical_formula_structural   Sr4Hf3O10
_chemical_formula_sum   'Sr8 Hf6 O20'
_cell_volume   482.84860475
_cell_formula_units_Z   2
loop_
 _symmetry_equiv_pos_site_id
 _symmetry_equiv_pos_as_xyz
  1  'x, y, z'
loop_
 _atom_site_type_symbol
 _atom_site_label
 _atom_site_symmetry_multiplicity
 _atom_site_fract_x
 _atom_site_fract_y
 _atom_site_fract_z
 _atom_site_occupancy
  Sr  Sr0  1  0.43035905  0.56964095  -0.00000000  1
  Sr  Sr1  1  0.70551374  0.29448626  -0.00000000  1
  Sr  Sr2  1  0.29448626  0.70551374  -0.00000000  1
  Sr  Sr3  1  0.56964095  0.43035905  -0.00000000  1
  Sr  Sr4  1  0.20551374  0.79448626  0.50000000  1
  Sr  Sr5  1  0.93035905  0.06964095  0.50000000  1
  Sr  Sr6  1  0.79448626  0.20551374  0.50000000  1
  Sr  Sr7  1  0.06964095  0.93035905  0.50000000  1
  Hf  Hf0  1  -0.00000000  -0.00000000  -0.00000000  1
  Hf  Hf1  1  0.85917874  0.14082126  -0.00000000  1
  Hf  Hf2  1  0.14082126  0.85917874  -0.00000000  1
  Hf  Hf3  1  0.64082126  0.35917874  0.50000000  1
  Hf  Hf4  1  0.50000000  0.50000000  0.50000000  1
  Hf  Hf5  1  0.35917874  0.64082126  0.50000000  1
  O  O0  1  0.92990538  0.07009462  -0.00000000  1
  O  O1  1  0.78887192  0.21112808  -0.00000000  1
  O  O2  1  0.21112808  0.78887192  -0.00000000  1
  O  O3  1  0.07009462  0.92990538  -0.00000000  1
  O  O4  1  0.30241337  0.30241337  0.80241865  1
  O  O5  1  0.84218589  0.56289263  0.79748375  1
  O  O6  1  0.56289263  0.84218589  0.79748375  1
  O  O7  1  0.06289263  0.34218589  0.70251625  1
  O  O8  1  0.34218589  0.06289263  0.70251625  1
  O  O9  1  0.80241337  0.80241337  0.69758135  1
  O  O10  1  0.42990538  0.57009462  0.50000000  1
  O  O11  1  0.71112808  0.28887192  0.50000000  1
  O  O12  1  0.28887192  0.71112808  0.50000000  1
  O  O13  1  0.57009462  0.42990538  0.50000000  1
  O  O14  1  0.19758663  0.19758663  0.30241865  1
  O  O15  1  0.65781411  0.93710737  0.29748375  1
  O  O16  1  0.93710737  0.65781411  0.29748375  1
  O  O17  1  0.15781411  0.43710737  0.20251625  1
  O  O18  1  0.43710737  0.15781411  0.20251625  1
  O  O19  1  0.69758663  0.69758663  0.19758135  1
loop_
_geom_bond_atom_site_label_1
_geom_bond_atom_site_label_2
_geom_bond_distance
_geom_bond_site_symmetry_2
Hf0 O19 2.066829 1_445
Hf0 O4 2.066829 1_554
Hf0 O9 2.066908 1_444
Hf0 O14 2.066908 1_555
Hf0 O3 2.067729 1_545
Hf0 O0 2.067729 1_455
Hf1 O17 2.059215 1_655
Hf1 O6 2.059215 1_544
Hf1 O7 2.059432 1_654
Hf1 O15 2.059432 1_545
Hf1 O1 2.073988 1_555
Hf1 O0 2.086373 1_555
Hf2 O18 2.059215 1_565
Hf2 O5 2.059215 1_454
Hf2 O8 2.059432 1_564
Hf2 O16 2.059432 1_455
Hf2 O2 2.073988 1_555
Hf2 O3 2.086373 1_555
Hf3 O16 2.059215 1_555
Hf3 O8 2.059215 1_555
Hf3 O18 2.059432 1_555
Hf3 O5 2.059432 1_555
Hf3 O11 2.073988 1_555
Hf3 O13 2.086373 1_555
Hf4 O9 2.066829 1_555
Hf4 O14 2.066829 1_555
Hf4 O4 2.066908 1_555
Hf4 O19 2.066908 1_555
Hf4 O10 2.067729 1_555
Hf4 O13 2.067729 1_555
Hf5 O15 2.059215 1_555
Hf5 O7 2.059215 1_555
Hf5 O17 2.059432 1_555
Hf5 O6 2.059432 1_555
Hf5 O12 2.073988 1_555
Hf5 O10 2.086373 1_555
O0 Sr0 2.860757 1_545
O0 Sr0 2.860757 1_655
O0 Sr5 2.860887 1_555
O0 Sr5 2.860887 1_554
O1 Sr1 2.458992 1_555
O1 Sr2 2.865516 1_545
O1 Sr2 2.865516 1_655
O1 Sr6 2.865645 1_554
O1 Sr6 2.865645 1_555
O2 Sr2 2.458992 1_555
O2 Sr1 2.865516 1_455
O2 Sr1 2.865516 1_565
O2 Sr4 2.865645 1_555
O2 Sr4 2.865645 1_554
O3 Sr3 2.860757 1_455
O3 Sr3 2.860757 1_565
O3 Sr7 2.860887 1_555
O3 Sr7 2.860887 1_554
O4 Sr3 2.603145 1_556
O4 Sr0 2.603145 1_556
O5 Sr1 2.541824 1_556
O5 Sr3 2.636322 1_556
O5 Sr4 3.093383 1_655
O6 Sr2 2.541824 1_556
O6 Sr0 2.636322 1_556
O6 Sr6 3.093383 1_565
O7 Sr6 2.541824 1_455
O7 Sr5 2.636322 1_455
O7 Sr2 3.093383 1_556
O8 Sr4 2.541824 1_545
O8 Sr7 2.636322 1_545
O8 Sr1 3.093383 1_556
O9 Sr7 2.603145 1_655
O9 Sr5 2.603145 1_565
O10 Sr5 2.860757 1_455
O10 Sr5 2.860757 1_565
O10 Sr0 2.860887 1_555
O10 Sr0 2.860887 1_556
O11 Sr6 2.458992 1_555
O11 Sr4 2.865516 1_655
O11 Sr4 2.865516 1_545
O11 Sr1 2.865645 1_555
O11 Sr1 2.865645 1_556
O12 Sr4 2.458992 1_555
O12 Sr6 2.865516 1_565
O12 Sr6 2.865516 1_455
O12 Sr2 2.865645 1_556
O12 Sr2 2.865645 1_555
O13 Sr7 2.860757 1_655
O13 Sr7 2.860757 1_545
O13 Sr3 2.860887 1_555
O13 Sr3 2.860887 1_556
O14 Sr5 2.603145 1_455
O14 Sr7 2.603145 1_545
O15 Sr6 2.541824 1_565
O15 Sr5 2.636322 1_565
O15 Sr2 3.093383 1_555
O16 Sr4 2.541824 1_655
O16 Sr7 2.636322 1_655
O16 Sr1 3.093383 1_555
O17 Sr2 2.541824 1_555
O17 Sr0 2.636322 1_555
O17 Sr6 3.093383 1_455
O18 Sr1 2.541824 1_555
O18 Sr3 2.636322 1_555
O18 Sr4 3.093383 1_545
O19 Sr3 2.603145 1_555
O19 Sr0 2.603145 1_555
