# generated using pymatgen
data_Li6V2O5F2
_symmetry_space_group_name_H-M   'P 1'
_cell_length_a   5.87825300
_cell_length_b   5.87935945
_cell_length_c   9.87122489
_cell_angle_alpha   90.32969774
_cell_angle_beta   99.12573705
_cell_angle_gamma   119.34122849
_symmetry_Int_Tables_number   1
_chemical_formula_structural   Li6V2O5F2
_chemical_formula_sum   'Li12 V4 O10 F4'
_cell_volume   292.24067688
_cell_formula_units_Z   2
loop_
 _symmetry_equiv_pos_site_id
 _symmetry_equiv_pos_as_xyz
  1  'x, y, z'
loop_
 _atom_site_type_symbol
 _atom_site_label
 _atom_site_symmetry_multiplicity
 _atom_site_fract_x
 _atom_site_fract_y
 _atom_site_fract_z
 _atom_site_occupancy
  Li  Li0  1  0.13826800  0.48236600  0.61057900  1
  Li  Li1  1  0.12160800  0.90282300  0.59281800  1
  Li  Li2  1  0.13772000  0.66577800  0.10382000  1
  Li  Li3  1  0.13924000  0.21690600  0.09959300  1
  Li  Li4  1  0.39180900  0.32972300  0.87942800  1
  Li  Li5  1  0.42127000  0.08036400  0.39298500  1
  Li  Li6  1  0.58454500  0.92133700  0.61129200  1
  Li  Li7  1  0.57938500  0.65634700  0.10727700  1
  Li  Li8  1  0.88296300  0.81783700  0.90328400  1
  Li  Li9  1  0.86718100  0.31233400  0.89000900  1
  Li  Li10  1  0.85649400  0.07412300  0.41003000  1
  Li  Li11  1  0.86110700  0.52472800  0.39067400  1
  V  V0  1  0.39498800  0.82483900  0.87480100  1
  V  V1  1  0.36267600  0.55131900  0.36880700  1
  V  V2  1  0.62601800  0.43758800  0.63465400  1
  V  V3  1  0.63239400  0.19085200  0.13143900  1
  O  O0  1  0.24407000  0.50824400  0.97474700  1
  O  O1  1  0.24456100  0.74229100  0.47303900  1
  O  O2  1  0.49873300  0.13757300  0.75540100  1
  O  O3  1  0.50438100  0.63414300  0.74697900  1
  O  O4  1  0.27321200  0.00389700  0.00476100  1
  O  O5  1  0.74819500  0.00430500  0.00670400  1
  O  O6  1  0.49935700  0.36529000  0.24971100  1
  O  O7  1  0.71991500  0.72035600  0.49791100  1
  O  O8  1  0.75864100  0.26017000  0.52822600  1
  O  O9  1  0.99573500  0.35384100  0.24884500  1
  F  F0  1  0.23970800  0.23855400  0.50156400  1
  F  F1  1  0.50644000  0.86588600  0.24777500  1
  F  F2  1  0.00646800  0.66315100  0.74912500  1
  F  F3  1  0.76292100  0.51303800  0.01372200  1
loop_
_geom_bond_atom_site_label_1
_geom_bond_atom_site_label_2
_geom_bond_distance
_geom_bond_site_symmetry_2
Li0 O8 1.975502 1_455
Li0 O1 1.981486 1_555
Li0 O3 2.103733 1_555
Li1 O1 1.933366 1_555
Li1 O7 2.099595 1_455
Li1 O2 2.289631 1_565
Li2 O0 1.917951 1_554
Li2 O4 2.063999 1_565
Li2 O9 2.240230 1_455
Li3 O0 2.015742 1_554
Li3 O5 2.046805 1_455
Li3 O4 2.061986 1_555
Li3 O9 2.139280 1_455
Li3 O6 2.149022 1_555
Li4 O0 1.970353 1_555
Li4 O2 2.023428 1_555
Li4 O3 2.119269 1_555
Li4 O4 2.162966 1_556
Li5 O1 1.977184 1_545
Li5 O8 1.980412 1_555
Li5 O6 2.120558 1_555
Li6 O8 1.993791 1_565
Li6 O1 2.005299 1_555
Li6 O3 2.076917 1_555
Li6 O7 2.114444 1_555
Li6 O2 2.174763 1_565
Li7 O0 1.960029 1_554
Li7 O5 2.121757 1_565
Li7 O6 2.138926 1_555
Li8 O5 1.991603 1_566
Li8 O4 2.064370 1_666
Li8 O3 2.244030 1_555
Li9 O0 1.958279 1_655
Li9 O5 2.033250 1_556
Li9 O2 2.098248 1_555
Li10 O8 1.924428 1_555
Li10 O7 2.080476 1_545
Li10 O9 2.242796 1_555
Li11 O1 1.989729 1_655
Li11 O8 1.997842 1_555
Li11 O7 2.081458 1_555
Li11 O6 2.104673 1_555
Li11 O9 2.170313 1_555
O0 V0 1.976247 1_555
O1 V1 1.943877 1_555
O2 V2 2.026205 1_555
O2 V0 2.072639 1_545
O3 V2 2.030420 1_555
O3 V0 2.051877 1_555
O4 V3 2.025345 1_555
O4 V0 2.068987 1_544
O5 V0 2.024632 1_544
O5 V3 2.040671 1_555
O6 V3 2.021943 1_555
O6 V1 2.090425 1_555
O7 V1 2.028010 1_555
O7 V2 2.062384 1_555
O8 V2 1.960527 1_555
O9 V3 2.004838 1_555
O9 V1 2.030389 1_655
F0 Li10 2.008844 1_455
F0 Li1 2.016301 1_545
F0 Li5 2.115892 1_555
F0 Li0 2.142860 1_555
F0 V1 2.155645 1_555
F0 V2 2.164198 1_555
F1 Li7 2.076462 1_555
F1 V1 2.091891 1_555
F1 V3 2.103793 1_565
F1 Li2 2.146145 1_555
F1 Li5 2.172770 1_565
F1 Li10 2.182078 1_565
F2 Li1 2.060577 1_555
F2 V2 2.076430 1_455
F2 V0 2.149088 1_555
F2 Li8 2.156719 1_455
F2 Li0 2.174116 1_555
F2 Li9 2.365971 1_455
F3 Li2 1.970197 1_655
F3 Li7 1.981080 1_555
F3 Li8 1.981150 1_554
F3 Li9 2.046685 1_554
F3 V3 2.100221 1_555
F3 Li4 2.107107 1_554
