# generated using pymatgen
data_Li2CuNiO4
_symmetry_space_group_name_H-M   'P 1'
_cell_length_a   4.09330097
_cell_length_b   8.36264300
_cell_length_c   4.09341559
_cell_angle_alpha   90.00134675
_cell_angle_beta   90.06858528
_cell_angle_gamma   89.99884914
_symmetry_Int_Tables_number   1
_chemical_formula_structural   Li2CuNiO4
_chemical_formula_sum   'Li4 Cu2 Ni2 O8'
_cell_volume   140.12085006
_cell_formula_units_Z   2
loop_
 _symmetry_equiv_pos_site_id
 _symmetry_equiv_pos_as_xyz
  1  'x, y, z'
loop_
 _atom_site_type_symbol
 _atom_site_label
 _atom_site_symmetry_multiplicity
 _atom_site_fract_x
 _atom_site_fract_y
 _atom_site_fract_z
 _atom_site_occupancy
  Li  Li0  1  0.50000100  0.74999000  0.00000000  1
  Li  Li1  1  0.00000000  0.25001000  0.50000100  1
  Li  Li2  1  0.99999700  0.50016100  0.99999800  1
  Li  Li3  1  0.49999800  0.99984000  0.49999900  1
  Cu  Cu0  1  0.99999300  0.75003500  0.49999300  1
  Cu  Cu1  1  0.49999400  0.24996600  0.99999500  1
  Ni  Ni0  1  0.49999200  0.49998500  0.49999900  1
  Ni  Ni1  1  0.00000600  0.00001500  0.99999300  1
  O  O0  1  0.00001500  0.97629500  0.50000200  1
  O  O1  1  0.50001600  0.47614300  0.00000200  1
  O  O2  1  0.99999900  0.52371400  0.50001500  1
  O  O3  1  0.50000000  0.02385000  0.00001700  1
  O  O4  1  0.99999500  0.76482700  0.99999500  1
  O  O5  1  0.49999700  0.26484000  0.49999900  1
  O  O6  1  0.99999800  0.23514700  0.99999700  1
  O  O7  1  0.49999700  0.73518200  0.49999700  1
loop_
_geom_bond_atom_site_label_1
_geom_bond_atom_site_label_2
_geom_bond_distance
_geom_bond_site_symmetry_2
Li0 O4 2.050386 1_554
Li0 O4 2.050430 1_454
Li0 O7 2.050441 1_555
Li0 O7 2.050460 1_554
Li0 O1 2.290085 1_555
Li0 O3 2.290193 1_565
Li1 O5 2.050395 1_555
Li1 O5 2.050414 1_455
Li1 O6 2.050465 1_455
Li1 O6 2.050492 1_454
Li1 O2 2.288889 1_455
Li1 O0 2.288981 1_545
Li2 O2 2.056099 1_555
Li2 O2 2.056228 1_556
Li2 O1 2.056409 1_556
Li2 O1 2.056556 1_656
Li2 O4 2.213307 1_555
Li2 O6 2.216217 1_555
Li3 O0 2.056035 1_555
Li3 O0 2.056165 1_655
Li3 O3 2.056464 1_565
Li3 O3 2.056602 1_566
Li3 O7 2.213240 1_555
Li3 O5 2.216100 1_565
Cu0 O0 1.892132 1_655
Cu0 O2 1.892642 1_555
Cu0 O7 2.050402 1_555
Cu0 O7 2.050430 1_655
Cu0 O4 2.050437 1_554
Cu0 O4 2.050448 1_555
Cu1 O3 1.890927 1_556
Cu1 O1 1.891438 1_556
Cu1 O6 2.050385 1_455
Cu1 O6 2.050413 1_555
Cu1 O5 2.050471 1_555
Cu1 O5 2.050497 1_556
Ni0 O5 1.966434 1_555
Ni0 O7 1.966869 1_555
Ni0 O2 2.056216 1_455
Ni0 O2 2.056280 1_555
Ni0 O1 2.056380 1_555
Ni0 O1 2.056413 1_556
Ni1 O6 1.966325 1_455
Ni1 O4 1.966793 1_445
Ni1 O0 2.056256 1_545
Ni1 O3 2.056313 1_556
Ni1 O0 2.056339 1_546
Ni1 O3 2.056354 1_456
