# generated using pymatgen
data_YTa3O9
_symmetry_space_group_name_H-M   'P 1'
_cell_length_a   5.56215800
_cell_length_b   8.82358703
_cell_length_c   8.86092124
_cell_angle_alpha   66.50666270
_cell_angle_beta   71.71290841
_cell_angle_gamma   71.65067260
_symmetry_Int_Tables_number   1
_chemical_formula_structural   YTa3O9
_chemical_formula_sum   'Y2 Ta6 O18'
_cell_volume   369.58952706
_cell_formula_units_Z   2
loop_
 _symmetry_equiv_pos_site_id
 _symmetry_equiv_pos_as_xyz
  1  'x, y, z'
loop_
 _atom_site_type_symbol
 _atom_site_label
 _atom_site_symmetry_multiplicity
 _atom_site_fract_x
 _atom_site_fract_y
 _atom_site_fract_z
 _atom_site_occupancy
  Y  Y0  1  0.68418800  0.64064100  0.99885300  1
  Y  Y1  1  0.33562500  0.35654000  0.00280400  1
  Ta  Ta0  1  0.92494200  0.40958200  0.74173700  1
  Ta  Ta1  1  0.41825200  0.91920900  0.24702900  1
  Ta  Ta2  1  0.75065100  0.23691300  0.26696600  1
  Ta  Ta3  1  0.58042100  0.08093200  0.75521200  1
  Ta  Ta4  1  0.25023400  0.76364500  0.73505800  1
  Ta  Ta5  1  0.07634600  0.59209700  0.25699000  1
  O  O0  1  0.42014900  0.90051600  0.77341500  1
  O  O1  1  0.99942800  0.50085200  0.50011200  1
  O  O2  1  0.49827000  0.00295400  0.00072800  1
  O  O3  1  0.80975300  0.35608500  0.00050000  1
  O  O4  1  0.90096900  0.89887500  0.77172900  1
  O  O5  1  0.42330000  0.42504800  0.22182700  1
  O  O6  1  0.24273600  0.24787800  0.77213700  1
  O  O7  1  0.27216800  0.74925800  0.22782800  1
  O  O8  1  0.07480200  0.57132700  0.78055900  1
  O  O9  1  0.17454200  0.64359300  0.99981600  1
  O  O10  1  0.66462800  0.16575000  0.50570300  1
  O  O11  1  0.33271800  0.83316100  0.49650400  1
  O  O12  1  0.74959100  0.74937200  0.22701600  1
  O  O13  1  0.57273400  0.57642400  0.77931900  1
  O  O14  1  0.71972800  0.25458200  0.77246000  1
  O  O15  1  0.09612600  0.10090500  0.22907200  1
  O  O16  1  0.92213900  0.42749300  0.21939900  1
  O  O17  1  0.57578100  0.09873100  0.23152600  1
loop_
_geom_bond_atom_site_label_1
_geom_bond_atom_site_label_2
_geom_bond_distance
_geom_bond_site_symmetry_2
O0 Ta4 1.927362 1_555
O0 Ta3 1.988333 1_565
O0 Y0 2.733859 1_555
O1 Ta0 1.919083 1_555
O1 Ta5 1.930756 1_655
O2 Ta3 1.948254 1_554
O2 Ta1 1.954210 1_545
O2 Y1 2.968291 1_555
O2 Y0 3.039722 1_544
O3 Ta0 2.072727 1_554
O3 Ta2 2.130675 1_555
O3 Y0 2.380174 1_554
O3 Y1 2.629589 1_555
O3 Y1 2.932728 1_655
O4 Ta4 1.938250 1_655
O4 Ta3 1.988420 1_565
O4 Y0 2.691995 1_555
O5 Ta5 2.047369 1_555
O5 Ta2 2.062887 1_555
O5 Y1 2.466696 1_555
O5 Y0 2.563256 1_554
O6 Ta0 1.907163 1_455
O6 Ta3 1.994390 1_555
O6 Y1 2.810849 1_556
O7 Ta5 1.914362 1_555
O7 Ta1 1.998812 1_555
O7 Y0 2.745274 1_554
O8 Ta0 2.042136 1_455
O8 Ta4 2.060210 1_555
O8 Y0 2.511011 1_455
O8 Y1 2.580832 1_556
O9 Ta5 2.060906 1_556
O9 Ta4 2.117237 1_555
O9 Y1 2.398192 1_556
O9 Y0 2.738452 1_455
O9 Y0 2.823998 1_555
O10 Ta2 1.895569 1_555
O10 Ta3 1.979675 1_555
O11 Ta4 1.894665 1_555
O11 Ta1 1.979582 1_555
O12 Ta5 1.928881 1_655
O12 Ta1 1.985335 1_555
O12 Y0 2.714394 1_554
O13 Ta4 2.039534 1_555
O13 Ta0 2.069196 1_555
O13 Y1 2.516732 1_556
O13 Y0 2.519168 1_555
O14 Ta0 1.933520 1_555
O14 Ta3 1.994983 1_555
O14 Y1 2.656495 1_556
O15 Ta2 1.926097 1_455
O15 Ta1 1.993187 1_545
O15 Y1 2.737208 1_555
O16 Ta2 2.026759 1_555
O16 Ta5 2.074959 1_655
O16 Y0 2.496696 1_554
O16 Y1 2.578024 1_655
O17 Ta2 1.942910 1_555
O17 Ta1 1.980047 1_545
O17 Y1 2.678902 1_555
