# generated using pymatgen
data_Mg3(AsO4)2
_symmetry_space_group_name_H-M   'P 1'
_cell_length_a   8.32481563
_cell_length_b   5.31943954
_cell_length_c   9.01368087
_cell_angle_alpha   59.65232390
_cell_angle_beta   90.00000000
_cell_angle_gamma   90.00000000
_symmetry_Int_Tables_number   1
_chemical_formula_structural   Mg3(AsO4)2
_chemical_formula_sum   'Mg6 As4 O16'
_cell_volume   344.46183501
_cell_formula_units_Z   2
loop_
 _symmetry_equiv_pos_site_id
 _symmetry_equiv_pos_as_xyz
  1  'x, y, z'
loop_
 _atom_site_type_symbol
 _atom_site_label
 _atom_site_symmetry_multiplicity
 _atom_site_fract_x
 _atom_site_fract_y
 _atom_site_fract_z
 _atom_site_occupancy
  Mg  Mg0  1  -0.00000000  0.50000000  0.50000000  1
  Mg  Mg1  1  0.35648368  0.49868888  0.60214061  1
  Mg  Mg2  1  0.85648368  0.50131112  0.89785939  1
  Mg  Mg3  1  0.50000000  0.50000000  -0.00000000  1
  Mg  Mg4  1  0.14351632  0.49868888  0.10214061  1
  Mg  Mg5  1  0.64351632  0.50131112  0.39785939  1
  As  As0  1  0.30429974  0.85002932  0.19447087  1
  As  As1  1  0.80429974  0.14997068  0.30552913  1
  As  As2  1  0.19570026  0.85002932  0.69447087  1
  As  As3  1  0.69570026  0.14997068  0.80552913  1
  O  O0  1  0.87549622  0.32857985  0.74095764  1
  O  O1  1  0.43591647  0.70242615  0.35982904  1
  O  O2  1  0.64737227  0.23319409  0.95870245  1
  O  O3  1  0.80154383  0.78806207  0.38469289  1
  O  O4  1  0.14737227  0.76680591  0.54129755  1
  O  O5  1  0.37549622  0.67142015  0.75904236  1
  O  O6  1  0.30154383  0.21193793  0.11530711  1
  O  O7  1  0.93591647  0.29757385  0.14017096  1
  O  O8  1  0.06408353  0.70242615  0.85982904  1
  O  O9  1  0.69845617  0.78806207  0.88469289  1
  O  O10  1  0.62450378  0.32857985  0.24095764  1
  O  O11  1  0.85262773  0.23319409  0.45870245  1
  O  O12  1  0.19845617  0.21193793  0.61530711  1
  O  O13  1  0.35262773  0.76680591  0.04129755  1
  O  O14  1  0.56408353  0.29757385  0.64017096  1
  O  O15  1  0.12450378  0.67142015  0.25904236  1
loop_
_geom_bond_atom_site_label_1
_geom_bond_atom_site_label_2
_geom_bond_distance
_geom_bond_site_symmetry_2
Mg0 O11 2.047404 1_455
Mg0 O4 2.047404 1_555
Mg0 O3 2.132700 1_455
Mg0 O12 2.132700 1_555
Mg0 O0 2.149818 1_455
Mg0 O15 2.149818 1_555
Mg1 O14 1.969321 1_555
Mg1 O12 1.971937 1_555
Mg1 O1 1.997570 1_555
Mg1 O5 2.045128 1_555
Mg1 O4 2.138915 1_555
Mg2 O8 1.969321 1_655
Mg2 O9 1.971937 1_555
Mg2 O7 1.997570 1_556
Mg2 O0 2.045128 1_555
Mg2 O2 2.138915 1_555
Mg3 O2 2.047404 1_554
Mg3 O13 2.047404 1_555
Mg3 O9 2.132700 1_554
Mg3 O6 2.132700 1_555
Mg3 O10 2.149818 1_555
Mg3 O5 2.149818 1_554
Mg4 O7 1.969321 1_455
Mg4 O6 1.971937 1_555
Mg4 O8 1.997570 1_554
Mg4 O15 2.045128 1_555
Mg4 O13 2.138915 1_555
Mg5 O1 1.969321 1_555
Mg5 O3 1.971937 1_555
Mg5 O14 1.997570 1_555
Mg5 O10 2.045128 1_555
Mg5 O11 2.138915 1_555
As0 O6 1.681600 1_565
As0 O1 1.689971 1_555
As0 O13 1.697554 1_555
As0 O15 1.709671 1_555
As1 O3 1.681600 1_545
As1 O7 1.689971 1_555
As1 O11 1.697554 1_555
As1 O10 1.709671 1_555
As2 O12 1.681600 1_565
As2 O8 1.689971 1_555
As2 O4 1.697554 1_555
As2 O5 1.709671 1_555
As3 O9 1.681600 1_545
As3 O14 1.689971 1_555
As3 O2 1.697554 1_555
As3 O0 1.709671 1_555
