# generated using pymatgen
data_LiFe2O2F3
_symmetry_space_group_name_H-M   'P 1'
_cell_length_a   5.11498500
_cell_length_b   5.93668303
_cell_length_c   7.10631888
_cell_angle_alpha   108.95949708
_cell_angle_beta   89.61353801
_cell_angle_gamma   115.25670778
_symmetry_Int_Tables_number   1
_chemical_formula_structural   LiFe2O2F3
_chemical_formula_sum   'Li2 Fe4 O4 F6'
_cell_volume   182.36729503
_cell_formula_units_Z   2
loop_
 _symmetry_equiv_pos_site_id
 _symmetry_equiv_pos_as_xyz
  1  'x, y, z'
loop_
 _atom_site_type_symbol
 _atom_site_label
 _atom_site_symmetry_multiplicity
 _atom_site_fract_x
 _atom_site_fract_y
 _atom_site_fract_z
 _atom_site_occupancy
  Li  Li0  1  0.11629900  0.56329000  0.01586000  1
  Li  Li1  1  0.06501900  0.46514600  0.52601700  1
  Fe  Fe0  1  0.67505600  0.89366000  0.87103800  1
  Fe  Fe1  1  0.70525100  0.88346200  0.36766800  1
  Fe  Fe2  1  0.27979800  0.10684700  0.62397800  1
  Fe  Fe3  1  0.32500300  0.12398500  0.12947800  1
  O  O0  1  0.86382000  0.90507300  0.63304200  1
  O  O1  1  0.50728600  0.89115300  0.13052500  1
  O  O2  1  0.45423700  0.09050400  0.85988500  1
  O  O3  1  0.11797700  0.11407500  0.36683400  1
  F  F0  1  0.63549600  0.50165200  0.24372200  1
  F  F1  1  0.29430300  0.75091000  0.45142400  1
  F  F2  1  0.93790900  0.75496500  0.96234400  1
  F  F3  1  0.04194800  0.24664200  0.04040000  1
  F  F4  1  0.67772500  0.24311700  0.53141300  1
  F  F5  1  0.32582600  0.50025700  0.75101300  1
loop_
_geom_bond_atom_site_label_1
_geom_bond_atom_site_label_2
_geom_bond_distance
_geom_bond_site_symmetry_2
Li0 O1 2.030197 1_555
Li1 O3 2.154650 1_555
Fe0 O0 1.947781 1_555
Fe0 O2 1.958415 1_565
Fe0 O1 2.030404 1_556
Fe1 O3 1.967184 1_665
Fe1 O1 1.994953 1_555
Fe1 O0 2.001322 1_555
Fe2 O2 1.953379 1_555
Fe2 O0 1.959481 1_445
Fe2 O3 2.031702 1_555
Fe3 O1 1.971432 1_545
Fe3 O3 1.989241 1_555
Fe3 O2 1.998601 1_554
F0 Fe3 2.001081 1_555
F0 Fe1 2.014386 1_555
F1 Li1 1.847326 1_555
F1 Fe1 2.065871 1_555
F1 Fe2 2.103119 1_565
F2 Li0 1.855797 1_656
F2 Fe0 2.051887 1_555
F2 Fe3 2.183989 1_666
F3 Li0 1.819586 1_555
F3 Fe3 2.058807 1_555
F3 Fe0 2.096990 1_444
F4 Li1 1.861943 1_655
F4 Fe2 2.037786 1_555
F4 Fe1 2.138370 1_545
F5 Li1 1.988580 1_555
F5 Fe2 2.118673 1_555
F5 Fe0 2.130493 1_555
F5 Li0 2.165239 1_556
