# generated using pymatgen
data_Li8Fe2O7
_symmetry_space_group_name_H-M   'P 1'
_cell_length_a   10.01925800
_cell_length_b   7.84505100
_cell_length_c   9.32621553
_cell_angle_alpha   71.99826939
_cell_angle_beta   90.00000000
_cell_angle_gamma   90.00000000
_symmetry_Int_Tables_number   1
_chemical_formula_structural   Li8Fe2O7
_chemical_formula_sum   'Li32 Fe8 O28'
_cell_volume   697.17024331
_cell_formula_units_Z   4
loop_
 _symmetry_equiv_pos_site_id
 _symmetry_equiv_pos_as_xyz
  1  'x, y, z'
loop_
 _atom_site_type_symbol
 _atom_site_label
 _atom_site_symmetry_multiplicity
 _atom_site_fract_x
 _atom_site_fract_y
 _atom_site_fract_z
 _atom_site_occupancy
  Li  Li0  1  0.52203700  0.86951800  0.93488100  1
  Li  Li1  1  0.53364300  0.91742700  0.63851000  1
  Li  Li2  1  0.26300600  0.89496200  0.53408500  1
  Li  Li3  1  0.97796300  0.86951800  0.43488100  1
  Li  Li4  1  0.04998900  0.74967800  0.70212200  1
  Li  Li5  1  0.96635700  0.91742700  0.13851000  1
  Li  Li6  1  0.74081300  0.71895200  0.56737300  1
  Li  Li7  1  0.23699400  0.89496200  0.03408500  1
  Li  Li8  1  0.52852900  0.56104000  0.84762200  1
  Li  Li9  1  0.49503900  0.65621200  0.52141400  1
  Li  Li10  1  0.45001100  0.74967800  0.20212200  1
  Li  Li11  1  0.76778300  0.49587000  0.87925100  1
  Li  Li12  1  0.75918700  0.71895200  0.06737300  1
  Li  Li13  1  0.26778300  0.50413000  0.62074900  1
  Li  Li14  1  0.97147100  0.56104000  0.34762200  1
  Li  Li15  1  0.99503900  0.34378800  0.97858600  1
  Li  Li16  1  0.00496100  0.65621200  0.02141400  1
  Li  Li17  1  0.02852900  0.43896000  0.65237800  1
  Li  Li18  1  0.73221700  0.49587000  0.37925100  1
  Li  Li19  1  0.24081300  0.28104800  0.93262700  1
  Li  Li20  1  0.23221700  0.50413000  0.12074900  1
  Li  Li21  1  0.54998900  0.25032200  0.79787800  1
  Li  Li22  1  0.50496100  0.34378800  0.47858600  1
  Li  Li23  1  0.47147100  0.43896000  0.15237800  1
  Li  Li24  1  0.76300600  0.10503800  0.96591500  1
  Li  Li25  1  0.25918700  0.28104800  0.43262700  1
  Li  Li26  1  0.03364300  0.08257300  0.86149000  1
  Li  Li27  1  0.95001100  0.25032200  0.29787800  1
  Li  Li28  1  0.02203700  0.13048200  0.56511900  1
  Li  Li29  1  0.73699400  0.10503800  0.46591500  1
  Li  Li30  1  0.46635700  0.08257300  0.36149000  1
  Li  Li31  1  0.47796300  0.13048200  0.06511900  1
  Fe  Fe0  1  0.79491500  0.89975600  0.77780100  1
  Fe  Fe1  1  0.70508500  0.89975600  0.27780100  1
  Fe  Fe2  1  0.28067000  0.68165500  0.85175000  1
  Fe  Fe3  1  0.21933000  0.68165500  0.35175000  1
  Fe  Fe4  1  0.78067000  0.31834500  0.64825000  1
  Fe  Fe5  1  0.71933000  0.31834500  0.14825000  1
  Fe  Fe6  1  0.29491500  0.10024400  0.72219900  1
  Fe  Fe7  1  0.20508500  0.10024400  0.22219900  1
  O  O0  1  0.89082800  0.89989600  0.95227100  1
  O  O1  1  0.17290300  0.89711300  0.78140500  1
  O  O2  1  0.89217800  0.89170800  0.60948100  1
  O  O3  1  0.60917200  0.89989600  0.45227100  1
  O  O4  1  0.66440400  0.72333100  0.82989400  1
  O  O5  1  0.32709700  0.89711300  0.28140500  1
  O  O6  1  0.60782200  0.89170800  0.10948100  1
  O  O7  1  0.38807500  0.66451700  0.69262000  1
  O  O8  1  0.83559600  0.72333100  0.32989400  1
  O  O9  1  0.13966300  0.51709300  0.91434400  1
  O  O10  1  0.11313600  0.67444500  0.52401800  1
  O  O11  1  0.11192500  0.66451700  0.19262000  1
  O  O12  1  0.36033700  0.51709300  0.41434400  1
  O  O13  1  0.61313600  0.32555500  0.97598200  1
  O  O14  1  0.38686400  0.67444500  0.02401800  1
  O  O15  1  0.63966300  0.48290700  0.58565600  1
  O  O16  1  0.88807500  0.33548300  0.80738000  1
  O  O17  1  0.88686400  0.32555500  0.47598200  1
  O  O18  1  0.86033700  0.48290700  0.08565600  1
  O  O19  1  0.16440400  0.27666900  0.67010600  1
  O  O20  1  0.61192500  0.33548300  0.30738000  1
  O  O21  1  0.39217800  0.10829200  0.89051900  1
  O  O22  1  0.67290300  0.10288700  0.71859500  1
  O  O23  1  0.33559600  0.27666900  0.17010600  1
  O  O24  1  0.39082800  0.10010400  0.54772900  1
  O  O25  1  0.10782200  0.10829200  0.39051900  1
  O  O26  1  0.82709700  0.10288700  0.21859500  1
  O  O27  1  0.10917200  0.10010400  0.04772900  1
loop_
_geom_bond_atom_site_label_1
_geom_bond_atom_site_label_2
_geom_bond_distance
_geom_bond_site_symmetry_2
Li0 O6 1.896261 1_556
Li0 O14 2.020137 1_556
Li0 O21 2.212204 1_565
Li0 O4 2.236663 1_555
Li1 O3 1.938057 1_555
Li1 O24 2.016962 1_565
Li1 O22 2.300692 1_565
Li1 O4 2.353930 1_555
Li1 O7 2.387381 1_555
Li2 O24 2.091152 1_565
Li2 O10 2.314466 1_555
Li2 O7 2.317866 1_555
Li2 O25 2.371936 1_565
Li2 O5 2.437493 1_555
Li2 O1 2.481843 1_555
Li3 O2 1.896261 1_555
Li3 O10 2.020137 1_655
Li3 O25 2.212204 1_665
Li3 O8 2.236663 1_555
Li4 O2 1.973068 1_455
Li4 O1 1.982360 1_555
Li4 O10 2.028208 1_555
Li4 O9 2.412828 1_555
Li5 O0 1.938057 1_554
Li5 O27 2.016962 1_665
Li5 O26 2.300692 1_565
Li5 O8 2.353930 1_555
Li5 O11 2.387381 1_655
Li6 O3 1.991261 1_555
Li6 O15 2.071255 1_555
Li6 O2 2.149404 1_555
Li6 O8 2.400260 1_555
Li6 O4 2.575570 1_555
Li7 O27 2.091152 1_565
Li7 O14 2.314466 1_555
Li7 O11 2.317866 1_555
Li7 O21 2.371936 1_564
Li7 O1 2.437493 1_554
Li7 O5 2.481843 1_555
Li8 O4 1.836174 1_555
Li8 O7 2.000927 1_555
Li8 O13 2.048804 1_555
Li8 O14 2.533211 1_556
Li9 O7 1.940760 1_555
Li9 O15 1.950290 1_555
Li9 O3 2.148528 1_555
Li9 O12 2.164100 1_555
Li10 O6 1.973068 1_555
Li10 O5 1.982360 1_555
Li10 O14 2.028208 1_555
Li10 O12 2.412828 1_555
Li11 O4 1.990293 1_555
Li11 O16 2.001585 1_555
Li11 O13 2.062729 1_555
Li11 O18 2.110642 1_556
Li12 O0 1.991261 1_554
Li12 O18 2.071255 1_555
Li12 O6 2.149404 1_555
Li12 O4 2.400260 1_554
Li12 O8 2.575570 1_555
Li13 O19 1.990293 1_555
Li13 O7 2.001585 1_555
Li13 O10 2.062729 1_555
Li13 O12 2.110642 1_555
Li14 O8 1.836174 1_555
Li14 O11 2.000927 1_655
Li14 O17 2.048804 1_555
Li14 O10 2.533211 1_655
Li15 O16 1.940760 1_555
Li15 O9 1.950290 1_655
Li15 O27 2.148528 1_656
Li15 O18 2.164100 1_556
Li16 O11 1.940760 1_555
Li16 O18 1.950290 1_455
Li16 O0 2.148528 1_454
Li16 O9 2.164100 1_554
Li17 O19 1.836174 1_555
Li17 O16 2.000927 1_455
Li17 O10 2.048804 1_555
Li17 O17 2.533211 1_455
Li18 O8 1.990293 1_555
Li18 O20 2.001585 1_555
Li18 O17 2.062729 1_555
Li18 O15 2.110642 1_555
Li19 O27 1.991261 1_556
Li19 O9 2.071255 1_555
Li19 O21 2.149404 1_555
Li19 O23 2.400260 1_556
Li19 O19 2.575570 1_555
Li20 O23 1.990293 1_555
Li20 O11 2.001585 1_555
Li20 O14 2.062729 1_555
Li20 O9 2.110642 1_554
Li21 O21 1.973068 1_555
Li21 O22 1.982360 1_555
Li21 O13 2.028208 1_555
Li21 O15 2.412828 1_555
Li22 O20 1.940760 1_555
Li22 O12 1.950290 1_555
Li22 O24 2.148528 1_555
Li22 O15 2.164100 1_555
Li23 O23 1.836174 1_555
Li23 O20 2.000927 1_555
Li23 O14 2.048804 1_555
Li23 O13 2.533211 1_554
Li24 O0 2.091152 1_545
Li24 O13 2.314466 1_555
Li24 O16 2.317866 1_555
Li24 O6 2.371936 1_546
Li24 O26 2.437493 1_556
Li24 O22 2.481843 1_555
Li25 O24 1.991261 1_555
Li25 O12 2.071255 1_555
Li25 O25 2.149404 1_555
Li25 O19 2.400260 1_555
Li25 O23 2.575570 1_555
Li26 O27 1.938057 1_556
Li26 O0 2.016962 1_445
Li26 O1 2.300692 1_545
Li26 O19 2.353930 1_555
Li26 O16 2.387381 1_455
Li27 O25 1.973068 1_655
Li27 O26 1.982360 1_555
Li27 O17 2.028208 1_555
Li27 O18 2.412828 1_555
Li28 O25 1.896261 1_555
Li28 O17 2.020137 1_455
Li28 O2 2.212204 1_445
Li28 O19 2.236663 1_555
Li29 O3 2.091152 1_545
Li29 O17 2.314466 1_555
Li29 O20 2.317866 1_555
Li29 O2 2.371936 1_545
Li29 O22 2.437493 1_555
Li29 O26 2.481843 1_555
Li30 O24 1.938057 1_555
Li30 O3 2.016962 1_545
Li30 O5 2.300692 1_545
Li30 O23 2.353930 1_555
Li30 O20 2.387381 1_555
Li31 O21 1.896261 1_554
Li31 O13 2.020137 1_554
Li31 O6 2.212204 1_545
Li31 O23 2.236663 1_555
Fe0 O4 1.856320 1_555
Fe0 O2 1.865245 1_555
Fe0 O0 1.890022 1_555
Fe0 O22 1.948057 1_565
Fe1 O8 1.856320 1_555
Fe1 O6 1.865245 1_555
Fe1 O3 1.890022 1_555
Fe1 O26 1.948057 1_565
Fe2 O7 1.871345 1_555
Fe2 O9 1.880851 1_555
Fe2 O14 1.913187 1_556
Fe2 O1 1.941105 1_555
Fe3 O11 1.871345 1_555
Fe3 O12 1.880851 1_555
Fe3 O10 1.913187 1_555
Fe3 O5 1.941105 1_555
Fe4 O16 1.871345 1_555
Fe4 O15 1.880851 1_555
Fe4 O17 1.913187 1_555
Fe4 O22 1.941105 1_555
Fe5 O20 1.871345 1_555
Fe5 O18 1.880851 1_555
Fe5 O13 1.913187 1_554
Fe5 O26 1.941105 1_555
Fe6 O19 1.856320 1_555
Fe6 O21 1.865245 1_555
Fe6 O24 1.890022 1_555
Fe6 O1 1.948057 1_545
Fe7 O23 1.856320 1_555
Fe7 O25 1.865245 1_555
Fe7 O27 1.890022 1_555
Fe7 O5 1.948057 1_545
