# generated using pymatgen
data_Dy(ClO4)3
_symmetry_space_group_name_H-M   'P 1'
_cell_length_a   9.36715553
_cell_length_b   9.36715553
_cell_length_c   9.36715680
_cell_angle_alpha   51.58874484
_cell_angle_beta   51.58874484
_cell_angle_gamma   51.58874837
_symmetry_Int_Tables_number   1
_chemical_formula_structural   Dy(ClO4)3
_chemical_formula_sum   'Dy2 Cl6 O24'
_cell_volume   466.11474949
_cell_formula_units_Z   2
loop_
 _symmetry_equiv_pos_site_id
 _symmetry_equiv_pos_as_xyz
  1  'x, y, z'
loop_
 _atom_site_type_symbol
 _atom_site_label
 _atom_site_symmetry_multiplicity
 _atom_site_fract_x
 _atom_site_fract_y
 _atom_site_fract_z
 _atom_site_occupancy
  Dy  Dy0  1  0.94110421  0.94110421  0.94110421  1
  Dy  Dy1  1  0.44110421  0.44110421  0.44110421  1
  Cl  Cl0  1  0.03321973  0.30925659  0.65714331  1
  Cl  Cl1  1  0.15714331  0.80925659  0.53321973  1
  Cl  Cl2  1  0.53321973  0.15714331  0.80925659  1
  Cl  Cl3  1  0.30925659  0.65714331  0.03321973  1
  Cl  Cl4  1  0.65714331  0.03321973  0.30925659  1
  Cl  Cl5  1  0.80925659  0.53321973  0.15714331  1
  O  O0  1  0.24935282  0.87024009  0.91978071  1
  O  O1  1  0.11830017  0.79366611  0.71789172  1
  O  O2  1  0.42875957  0.05049191  0.99926654  1
  O  O3  1  0.08037865  0.15774929  0.61089159  1
  O  O4  1  0.11089159  0.65774929  0.58037865  1
  O  O5  1  0.49926654  0.55049191  0.92875957  1
  O  O6  1  0.21789172  0.29366611  0.61830017  1
  O  O7  1  0.05049191  0.99926654  0.42875957  1
  O  O8  1  0.41978071  0.37024009  0.74935282  1
  O  O9  1  0.71789172  0.11830017  0.79366611  1
  O  O10  1  0.58037865  0.11089159  0.65774929  1
  O  O11  1  0.37024009  0.74935282  0.41978071  1
  O  O12  1  0.55049191  0.92875957  0.49926654  1
  O  O13  1  0.91978071  0.24935282  0.87024009  1
  O  O14  1  0.15774929  0.61089159  0.08037865  1
  O  O15  1  0.29366611  0.61830017  0.21789172  1
  O  O16  1  0.61830017  0.21789172  0.29366611  1
  O  O17  1  0.92875957  0.49926654  0.55049191  1
  O  O18  1  0.74935282  0.41978071  0.37024009  1
  O  O19  1  0.61089159  0.08037865  0.15774929  1
  O  O20  1  0.65774929  0.58037865  0.11089159  1
  O  O21  1  0.87024009  0.91978071  0.24935282  1
  O  O22  1  0.79366611  0.71789172  0.11830017  1
  O  O23  1  0.99926654  0.42875957  0.05049191  1
loop_
_geom_bond_atom_site_label_1
_geom_bond_atom_site_label_2
_geom_bond_distance
_geom_bond_site_symmetry_2
Dy0 O22 2.336967 1_556
Dy0 O9 2.336967 1_565
Dy0 O1 2.336967 1_655
Dy0 O3 2.421441 1_665
Dy0 O14 2.421441 1_656
Dy0 O19 2.421441 1_566
Dy0 O13 2.425724 1_565
Dy0 O0 2.425724 1_655
Dy0 O21 2.425724 1_556
Dy1 O6 2.336967 1_555
Dy1 O16 2.336967 1_555
Dy1 O15 2.336967 1_555
Dy1 O20 2.421441 1_555
Dy1 O4 2.421441 1_555
Dy1 O10 2.421441 1_555
Dy1 O18 2.425724 1_555
Dy1 O11 2.425724 1_555
Dy1 O8 2.425724 1_555
Cl0 O17 1.401601 1_455
Cl0 O6 1.454686 1_555
Cl0 O13 1.463522 1_455
Cl0 O3 1.464291 1_555
Cl1 O7 1.401601 1_555
Cl1 O1 1.454686 1_555
Cl1 O11 1.463522 1_555
Cl1 O4 1.464291 1_555
Cl2 O2 1.401601 1_555
Cl2 O9 1.454686 1_555
Cl2 O8 1.463522 1_555
Cl2 O10 1.464291 1_555
Cl3 O5 1.401601 1_554
Cl3 O15 1.454686 1_555
Cl3 O0 1.463522 1_554
Cl3 O14 1.464291 1_555
Cl4 O12 1.401601 1_545
Cl4 O16 1.454686 1_555
Cl4 O21 1.463522 1_545
Cl4 O19 1.464291 1_555
Cl5 O23 1.401601 1_555
Cl5 O22 1.454686 1_555
Cl5 O18 1.463522 1_555
Cl5 O20 1.464291 1_555
