# generated using pymatgen
data_NaLi7Fe8(SiO3)16
_symmetry_space_group_name_H-M   'P 1'
_cell_length_a   5.35966500
_cell_length_b   12.89298419
_cell_length_c   12.89965298
_cell_angle_alpha   86.11598644
_cell_angle_beta   81.16839379
_cell_angle_gamma   81.14888022
_symmetry_Int_Tables_number   1
_chemical_formula_structural   NaLi7Fe8(SiO3)16
_chemical_formula_sum   'Na1 Li7 Fe8 Si16 O48'
_cell_volume   869.44623931
_cell_formula_units_Z   1
loop_
 _symmetry_equiv_pos_site_id
 _symmetry_equiv_pos_as_xyz
  1  'x, y, z'
loop_
 _atom_site_type_symbol
 _atom_site_label
 _atom_site_symmetry_multiplicity
 _atom_site_fract_x
 _atom_site_fract_y
 _atom_site_fract_z
 _atom_site_occupancy
  Na  Na0  1  0.49495900  0.89688900  0.35609700  1
  Li  Li0  1  0.99869100  0.12357600  0.12593000  1
  Li  Li1  1  0.00270600  0.37766200  0.37412300  1
  Li  Li2  1  0.50054400  0.62328200  0.12725100  1
  Li  Li3  1  0.50335100  0.12278900  0.62702900  1
  Li  Li4  1  0.49817000  0.37672600  0.87304300  1
  Li  Li5  1  0.99808300  0.62365400  0.62605800  1
  Li  Li6  1  0.00138800  0.87604100  0.87258400  1
  Fe  Fe0  1  0.49730000  0.19955000  0.05026200  1
  Fe  Fe1  1  0.50597100  0.30202400  0.44935800  1
  Fe  Fe2  1  0.00581600  0.19912100  0.55226100  1
  Fe  Fe3  1  0.00086300  0.69778600  0.05092200  1
  Fe  Fe4  1  0.99708100  0.30104300  0.94880200  1
  Fe  Fe5  1  0.99713900  0.79981800  0.44991300  1
  Fe  Fe6  1  0.49683800  0.69897000  0.55110800  1
  Fe  Fe7  1  0.50103400  0.80038800  0.94800400  1
  Si  Si0  1  0.79307200  0.05928200  0.39869900  1
  Si  Si1  1  0.71732000  0.35291000  0.19261700  1
  Si  Si2  1  0.28999600  0.14864500  0.30752500  1
  Si  Si3  1  0.21706400  0.44242200  0.10314500  1
  Si  Si4  1  0.77931400  0.64540900  0.30809800  1
  Si  Si5  1  0.77622300  0.14670900  0.80764800  1
  Si  Si6  1  0.72436700  0.44259700  0.60413700  1
  Si  Si7  1  0.71615500  0.94248200  0.10074500  1
  Si  Si8  1  0.27817800  0.55685600  0.39633500  1
  Si  Si9  1  0.27616100  0.05739800  0.89694200  1
  Si  Si10  1  0.21279300  0.85191000  0.19020400  1
  Si  Si11  1  0.22445600  0.35287600  0.69317700  1
  Si  Si12  1  0.78262300  0.55663200  0.89726400  1
  Si  Si13  1  0.71493700  0.85337400  0.69343500  1
  Si  Si14  1  0.28264600  0.64592100  0.80725800  1
  Si  Si15  1  0.21341600  0.94185100  0.60494100  1
  O  O0  1  0.70341300  0.06226200  0.05400900  1
  O  O1  1  0.78199800  0.26433700  0.10107300  1
  O  O2  1  0.56657700  0.07699800  0.32243600  1
  O  O3  1  0.28102600  0.35089600  0.01465000  1
  O  O4  1  0.29010600  0.19374700  0.18758600  1
  O  O5  1  0.06812900  0.07127100  0.32622900  1
  O  O6  1  0.93974300  0.42956000  0.17283800  1
  O  O7  1  0.71761300  0.30675800  0.31252400  1
  O  O8  1  0.72272100  0.15156400  0.48554000  1
  O  O9  1  0.44006300  0.42280800  0.17960600  1
  O  O10  1  0.21546100  0.06135300  0.55652600  1
  O  O11  1  0.21632200  0.56232900  0.05703000  1
  O  O12  1  0.22276900  0.23611700  0.39939400  1
  O  O13  1  0.78475400  0.84998700  0.01400200  1
  O  O14  1  0.78919600  0.35101400  0.51575000  1
  O  O15  1  0.79393000  0.19432100  0.68795100  1
  O  O16  1  0.79389100  0.69473600  0.18866300  1
  O  O17  1  0.54382600  0.57493800  0.31956900  1
  O  O18  1  0.54131300  0.07623600  0.82028900  1
  O  O19  1  0.28867100  0.26474200  0.60133600  1
  O  O20  1  0.28374100  0.76469200  0.09830500  1
  O  O21  1  0.29542100  0.43755600  0.44538100  1
  O  O22  1  0.04443200  0.56725800  0.32518400  1
  O  O23  1  0.04172100  0.07032200  0.82628100  1
  O  O24  1  0.95876700  0.42928500  0.67496300  1
  O  O25  1  0.94685800  0.92941900  0.17367200  1
  O  O26  1  0.70738400  0.56217500  0.55688500  1
  O  O27  1  0.71252300  0.23491000  0.89936200  1
  O  O28  1  0.71740400  0.73078500  0.40199900  1
  O  O29  1  0.45917300  0.42337000  0.68071700  1
  O  O30  1  0.44684600  0.92423300  0.17599800  1
  O  O31  1  0.20736000  0.30497300  0.81276300  1
  O  O32  1  0.18989800  0.80236200  0.30885800  1
  O  O33  1  0.21218500  0.14934000  0.98505300  1
  O  O34  1  0.21363100  0.64880500  0.48404900  1
  O  O35  1  0.77945100  0.76520500  0.60183100  1
  O  O36  1  0.80321200  0.94081200  0.44836400  1
  O  O37  1  0.78274300  0.43675700  0.94358000  1
  O  O38  1  0.55991200  0.57608500  0.82077100  1
  O  O39  1  0.27593600  0.84792000  0.51952600  1
  O  O40  1  0.28256200  0.69130400  0.68742400  1
  O  O41  1  0.06034100  0.56910600  0.82783000  1
  O  O42  1  0.93698800  0.93047100  0.67653000  1
  O  O43  1  0.71475100  0.80582500  0.81288100  1
  O  O44  1  0.71810000  0.64818000  0.98576700  1
  O  O45  1  0.43774100  0.92382400  0.68108100  1
  O  O46  1  0.21789800  0.73478500  0.89843000  1
  O  O47  1  0.29284100  0.93766800  0.94459400  1
loop_
_geom_bond_atom_site_label_1
_geom_bond_atom_site_label_2
_geom_bond_distance
_geom_bond_site_symmetry_2
Na0 O36 2.334496 1_555
Na0 O39 2.347103 1_555
Na0 O32 2.355781 1_555
Na0 O28 2.370152 1_555
Na0 O30 2.373422 1_555
Na0 O2 2.411379 1_565
Li0 O33 2.029481 1_654
Li0 O1 2.032772 1_555
Li0 O4 2.191879 1_655
Li0 O0 2.219336 1_555
Li1 O14 2.039428 1_455
Li1 O12 2.050094 1_555
Li1 O7 2.168635 1_455
Li1 O21 2.194161 1_555
Li1 O22 2.517885 1_555
Li2 O44 2.043524 1_554
Li2 O20 2.050060 1_555
Li2 O11 2.155737 1_555
Li2 O16 2.208004 1_555
Li3 O19 2.042121 1_555
Li3 O8 2.057862 1_555
Li3 O10 2.177148 1_555
Li3 O15 2.193101 1_555
Li4 O27 2.041457 1_555
Li4 O3 2.046024 1_556
Li4 O37 2.153619 1_555
Li4 O31 2.191617 1_555
Li5 O35 2.044144 1_555
Li5 O34 2.044628 1_655
Li5 O40 2.141384 1_655
Li5 O26 2.180547 1_555
Li6 O46 2.039786 1_555
Li6 O13 2.043389 1_456
Li6 O43 2.158376 1_455
Li6 O47 2.204950 1_555
Fe0 O0 1.938774 1_555
Fe0 O4 1.944307 1_555
Fe0 O1 2.056492 1_555
Fe0 O33 2.057837 1_554
Fe0 O27 2.163256 1_554
Fe0 O3 2.169855 1_555
Fe1 O21 1.930893 1_555
Fe1 O7 1.948834 1_555
Fe1 O14 2.050431 1_555
Fe1 O12 2.052532 1_555
Fe1 O8 2.163530 1_555
Fe1 O19 2.185040 1_555
Fe2 O15 1.937480 1_455
Fe2 O10 1.952473 1_555
Fe2 O19 2.043720 1_555
Fe2 O8 2.043938 1_455
Fe2 O14 2.179032 1_455
Fe2 O12 2.192556 1_555
Fe3 O11 1.943831 1_555
Fe3 O16 1.946249 1_455
Fe3 O44 2.043150 1_454
Fe3 O20 2.043235 1_555
Fe3 O13 2.182305 1_455
Fe3 O46 2.188870 1_554
Fe4 O31 1.936621 1_655
Fe4 O37 1.942963 1_555
Fe4 O3 2.054893 1_656
Fe4 O27 2.057258 1_555
Fe4 O33 2.172807 1_655
Fe4 O1 2.181230 1_556
Fe5 O32 1.950472 1_655
Fe5 O36 1.950705 1_555
Fe5 O28 2.047381 1_555
Fe5 O39 2.048524 1_655
Fe5 O34 2.162548 1_655
Fe5 O35 2.177264 1_555
Fe6 O26 1.945542 1_555
Fe6 O40 1.952449 1_555
Fe6 O35 2.056650 1_555
Fe6 O34 2.061967 1_555
Fe6 O39 2.144326 1_555
Fe6 O28 2.146990 1_555
Fe7 O43 1.936556 1_555
Fe7 O47 1.943326 1_555
Fe7 O46 2.047792 1_555
Fe7 O13 2.053440 1_556
Fe7 O20 2.162851 1_556
Fe7 O44 2.187191 1_555
O0 Si7 1.614655 1_545
O1 Si1 1.659496 1_555
O2 Si2 1.652224 1_555
O2 Si0 1.656667 1_555
O3 Si3 1.658617 1_555
O4 Si2 1.615495 1_555
O5 Si0 1.642709 1_455
O5 Si2 1.646744 1_555
O6 Si3 1.640213 1_655
O6 Si1 1.642514 1_555
O7 Si1 1.619353 1_555
O8 Si0 1.650900 1_555
O9 Si1 1.640887 1_555
O9 Si3 1.643307 1_555
O10 Si15 1.623815 1_545
O11 Si3 1.618060 1_555
O12 Si2 1.652577 1_555
O13 Si7 1.651939 1_555
O14 Si6 1.658137 1_555
O15 Si5 1.616925 1_555
O16 Si4 1.621671 1_555
O17 Si8 1.643185 1_555
O17 Si4 1.648557 1_555
O18 Si9 1.642713 1_555
O18 Si5 1.645072 1_555
O19 Si11 1.658322 1_555
O20 Si10 1.650761 1_555
O21 Si8 1.617729 1_555
O22 Si4 1.645721 1_455
O22 Si8 1.647601 1_555
O23 Si5 1.641424 1_455
O23 Si9 1.644421 1_555
O24 Si11 1.641087 1_655
O24 Si6 1.645397 1_555
O25 Si10 1.643717 1_655
O25 Si7 1.647386 1_555
O26 Si6 1.613460 1_555
O27 Si5 1.657758 1_555
O28 Si4 1.653419 1_555
O29 Si6 1.643672 1_555
O29 Si11 1.644520 1_555
O30 Si7 1.650586 1_555
O30 Si10 1.656177 1_555
O31 Si11 1.616927 1_555
O32 Si10 1.612408 1_555
O33 Si9 1.659036 1_555
O34 Si8 1.655490 1_555
O35 Si13 1.656401 1_555
O36 Si0 1.612149 1_565
O37 Si12 1.618761 1_555
O38 Si14 1.641940 1_555
O38 Si12 1.642367 1_555
O39 Si15 1.653924 1_555
O40 Si14 1.615400 1_555
O41 Si12 1.639646 1_455
O41 Si14 1.643571 1_555
O42 Si15 1.642491 1_655
O42 Si13 1.645292 1_555
O43 Si13 1.619160 1_555
O44 Si12 1.658873 1_555
O45 Si13 1.641791 1_555
O45 Si15 1.646184 1_555
O46 Si14 1.658662 1_555
O47 Si9 1.616984 1_565
