# generated using pymatgen
data_Li2MnOF3
_symmetry_space_group_name_H-M   'P 1'
_cell_length_a   3.06420101
_cell_length_b   10.48193101
_cell_length_c   9.96074812
_cell_angle_alpha   74.34510544
_cell_angle_beta   89.99289573
_cell_angle_gamma   81.59214169
_symmetry_Int_Tables_number   1
_chemical_formula_structural   Li2MnOF3
_chemical_formula_sum   'Li8 Mn4 O4 F12'
_cell_volume   304.48803572
_cell_formula_units_Z   4
loop_
 _symmetry_equiv_pos_site_id
 _symmetry_equiv_pos_as_xyz
  1  'x, y, z'
loop_
 _atom_site_type_symbol
 _atom_site_label
 _atom_site_symmetry_multiplicity
 _atom_site_fract_x
 _atom_site_fract_y
 _atom_site_fract_z
 _atom_site_occupancy
  Li  Li0  1  0.37499700  0.25000500  0.87500000  1
  Li  Li1  1  0.87500000  0.25000100  0.37499800  1
  Li  Li2  1  0.12500400  0.74999700  0.62500200  1
  Li  Li3  1  0.62499500  0.75000800  0.12500000  1
  Li  Li4  1  0.06848700  0.86308500  0.34142700  1
  Li  Li5  1  0.56848800  0.86308300  0.84142900  1
  Li  Li6  1  0.68151000  0.63692000  0.40857900  1
  Li  Li7  1  0.18151000  0.63692300  0.90857500  1
  Mn  Mn0  1  0.81231400  0.37539300  0.06986600  1
  Mn  Mn1  1  0.93769600  0.12460200  0.68014200  1
  Mn  Mn2  1  0.31230800  0.37536300  0.56987500  1
  Mn  Mn3  1  0.43768200  0.12462700  0.18011800  1
  O  O0  1  0.39873400  0.20252500  0.54020300  1
  O  O1  1  0.89872100  0.20256300  0.04018900  1
  O  O2  1  0.85127900  0.29743200  0.70980400  1
  O  O3  1  0.35126800  0.29746300  0.20979200  1
  F  F0  1  0.14943000  0.70123300  0.27708800  1
  F  F1  1  0.64942900  0.70123100  0.77709100  1
  F  F2  1  0.60057100  0.79877500  0.47291400  1
  F  F3  1  0.10056600  0.79877600  0.97291200  1
  F  F4  1  0.22205300  0.55558100  0.57352500  1
  F  F5  1  0.72202900  0.55562400  0.07350900  1
  F  F6  1  0.52796000  0.94440600  0.17647000  1
  F  F7  1  0.02798000  0.94437400  0.67649400  1
  F  F8  1  0.46455500  0.07068300  0.82873700  1
  F  F9  1  0.96455100  0.07068500  0.32871700  1
  F  F10  1  0.78544100  0.42931600  0.42127600  1
  F  F11  1  0.28544100  0.42932700  0.92126600  1
loop_
_geom_bond_atom_site_label_1
_geom_bond_atom_site_label_2
_geom_bond_distance
_geom_bond_site_symmetry_2
Li0 O1 2.203308 1_456
Li0 O2 2.203349 1_555
Li0 O1 2.203568 1_556
Li0 O2 2.203616 1_455
Li1 O3 2.203432 1_655
Li1 O0 2.203439 1_555
Li1 O0 2.203669 1_655
Li1 O3 2.203684 1_555
Mn0 O1 1.894221 1_555
Mn0 O3 2.080438 1_555
Mn0 O3 2.080579 1_655
Mn1 O2 1.894159 1_555
Mn1 O0 2.080470 1_655
Mn1 O0 2.080663 1_555
Mn2 O0 1.894282 1_555
Mn2 O2 2.080419 1_455
Mn2 O2 2.080635 1_555
Mn3 O3 1.894270 1_555
Mn3 O1 2.080458 1_555
Mn3 O1 2.080618 1_455
F0 Li4 1.952968 1_555
F0 Li6 2.007660 1_555
F0 Li6 2.007824 1_455
F0 Li3 2.116407 1_555
F0 Li3 2.116851 1_455
F1 Li5 1.952963 1_555
F1 Li7 2.007621 1_655
F1 Li7 2.007769 1_555
F1 Li2 2.116422 1_655
F1 Li2 2.116841 1_555
F2 Li6 1.952975 1_555
F2 Li4 2.007645 1_555
F2 Li4 2.007784 1_655
F2 Li2 2.116416 1_555
F2 Li2 2.116844 1_655
F3 Li7 1.952967 1_555
F3 Li5 2.007608 1_455
F3 Li5 2.007767 1_555
F3 Li3 2.116409 1_456
F3 Li3 2.116842 1_556
F4 Mn2 1.878972 1_555
F4 Li2 2.211529 1_555
F4 Li6 2.236395 1_455
F4 Li6 2.236709 1_555
F5 Mn0 1.879087 1_555
F5 Li3 2.211273 1_555
F5 Li7 2.236238 1_554
F5 Li7 2.236569 1_654
F6 Mn3 1.878997 1_565
F6 Li3 2.211314 1_555
F6 Li4 2.236417 1_655
F6 Li4 2.236760 1_555
F7 Mn1 1.879070 1_465
F7 Li2 2.211207 1_555
F7 Li5 2.236215 1_555
F7 Li5 2.236575 1_455
F8 Li0 2.034032 1_555
F8 Mn1 2.097325 1_455
F8 Mn1 2.097550 1_555
F8 Li5 2.121668 1_545
F9 Li1 2.034057 1_555
F9 Mn3 2.097364 1_555
F9 Mn3 2.097596 1_655
F9 Li4 2.121629 1_645
F10 Li1 2.034033 1_555
F10 Mn2 2.097356 1_655
F10 Mn2 2.097622 1_555
F10 Li6 2.121699 1_555
F11 Li0 2.034047 1_555
F11 Mn0 2.097382 1_556
F11 Mn0 2.097578 1_456
F11 Li7 2.121629 1_555
