# generated using pymatgen
data_K(WO3)3
_symmetry_space_group_name_H-M   'P 1'
_cell_length_a   32.61674896
_cell_length_b   32.61674896
_cell_length_c   3.85342100
_cell_angle_alpha   90.00000000
_cell_angle_beta   90.00000000
_cell_angle_gamma   166.84402466
_symmetry_Int_Tables_number   1
_chemical_formula_structural   K(WO3)3
_chemical_formula_sum   'K5 W15 O45'
_cell_volume   933.05075020
_cell_formula_units_Z   5
loop_
 _symmetry_equiv_pos_site_id
 _symmetry_equiv_pos_as_xyz
  1  'x, y, z'
loop_
 _atom_site_type_symbol
 _atom_site_label
 _atom_site_symmetry_multiplicity
 _atom_site_fract_x
 _atom_site_fract_y
 _atom_site_fract_z
 _atom_site_occupancy
  K  K0  1  0.09991500  0.90008500  0.09985500  1
  K  K1  1  0.69981500  0.30018500  0.10013400  1
  K  K2  1  0.30018500  0.69981500  0.10013400  1
  K  K3  1  0.90008500  0.09991500  0.09985500  1
  K  K4  1  0.50000000  0.50000000  0.90040000  1
  W  W0  1  0.59978600  0.40021400  0.50159900  1
  W  W1  1  0.40017300  0.10054500  0.50115100  1
  W  W2  1  0.19980200  0.80019800  0.50111100  1
  W  W3  1  0.89945500  0.59982700  0.50115100  1
  W  W4  1  0.50000000  0.00000000  0.50104400  1
  W  W5  1  0.00000000  0.50000000  0.50104400  1
  W  W6  1  0.80019800  0.19980200  0.50111100  1
  W  W7  1  0.59982700  0.89945500  0.50115100  1
  W  W8  1  0.10054500  0.40017300  0.50115100  1
  W  W9  1  0.40021400  0.59978600  0.50159900  1
  W  W10  1  0.70010600  0.80036900  0.49997900  1
  W  W11  1  0.19963100  0.29989400  0.49997900  1
  W  W12  1  0.00000000  0.00000000  0.49802900  1
  W  W13  1  0.29989400  0.19963100  0.49997900  1
  W  W14  1  0.80036900  0.70010600  0.49997900  1
  O  O0  1  0.05758200  0.94241800  0.49894200  1
  O  O1  1  0.39531000  0.23782000  0.49924200  1
  O  O2  1  0.76218000  0.60469000  0.49924200  1
  O  O3  1  0.59986000  0.40014000  0.99982300  1
  O  O4  1  0.43785100  0.19577200  0.49958100  1
  O  O5  1  0.14210600  0.85789400  0.49964700  1
  O  O6  1  0.40009600  0.10037600  0.99997000  1
  O  O7  1  0.80422800  0.56214900  0.49958100  1
  O  O8  1  0.65757200  0.34242800  0.49962200  1
  O  O9  1  0.36193100  0.00452300  0.49960100  1
  O  O10  1  0.19986300  0.80013700  0.00005800  1
  O  O11  1  0.89962400  0.59990500  0.99997000  1
  O  O12  1  0.99547700  0.63806900  0.49960100  1
  O  O13  1  0.40477100  0.96288400  0.49962000  1
  O  O14  1  0.25759000  0.74241000  0.49959500  1
  O  O15  1  0.50000000  0.00000000  0.99992700  1
  O  O16  1  0.03711600  0.59522900  0.49962000  1
  O  O17  1  0.74241000  0.25759000  0.49959500  1
  O  O18  1  0.00000000  0.50000000  0.99992700  1
  O  O19  1  0.59522900  0.03711600  0.49962000  1
  O  O20  1  0.96288400  0.40477100  0.49962000  1
  O  O21  1  0.80013700  0.19986300  0.00005800  1
  O  O22  1  0.63806900  0.99547700  0.49960100  1
  O  O23  1  0.59990500  0.89962400  0.99997000  1
  O  O24  1  0.00452300  0.36193100  0.49960100  1
  O  O25  1  0.56214900  0.80422800  0.49958100  1
  O  O26  1  0.85789400  0.14210600  0.49964700  1
  O  O27  1  0.10037600  0.40009500  0.99997000  1
  O  O28  1  0.34242800  0.65757200  0.49962200  1
  O  O29  1  0.60469000  0.76218000  0.49924200  1
  O  O30  1  0.19577200  0.43785100  0.49958100  1
  O  O31  1  0.70002800  0.80032500  0.99996000  1
  O  O32  1  0.40014000  0.59986000  0.99982300  1
  O  O33  1  0.94241800  0.05758200  0.49894200  1
  O  O34  1  0.23782000  0.39531000  0.49924200  1
  O  O35  1  0.19967500  0.29997200  0.99996000  1
  O  O36  1  0.79532500  0.83783300  0.50079500  1
  O  O37  1  0.16216700  0.20467500  0.50079500  1
  O  O38  1  0.45758000  0.54242000  0.50101200  1
  O  O39  1  0.00000000  0.00000000  0.00031600  1
  O  O40  1  0.83783300  0.79532500  0.50079500  1
  O  O41  1  0.20467500  0.16216700  0.50079500  1
  O  O42  1  0.29997200  0.19967500  0.99996000  1
  O  O43  1  0.54242000  0.45758000  0.50101200  1
  O  O44  1  0.80032500  0.70002800  0.99996000  1
loop_
_geom_bond_atom_site_label_1
_geom_bond_atom_site_label_2
_geom_bond_distance
_geom_bond_site_symmetry_2
K0 O1 3.137982 1_565
K0 O2 3.137982 1_455
K0 O5 3.138298 1_555
K0 O4 3.138724 1_565
K0 O7 3.138724 1_455
K0 O0 3.144989 1_555
K1 O16 3.134783 1_655
K1 O13 3.134783 1_545
K1 O9 3.137636 1_555
K1 O12 3.137636 1_555
K1 O8 3.140659 1_555
K1 O17 3.160511 1_555
K2 O19 3.134783 1_565
K2 O20 3.134783 1_455
K2 O24 3.137636 1_555
K2 O22 3.137636 1_555
K2 O28 3.140659 1_555
K2 O14 3.160511 1_555
K3 O34 3.137982 1_655
K3 O29 3.137982 1_545
K3 O26 3.138298 1_555
K3 O30 3.138724 1_655
K3 O25 3.138724 1_545
K3 O33 3.144989 1_555
K4 O41 3.140856 1_555
K4 O37 3.140856 1_555
K4 O36 3.140856 1_555
K4 O40 3.140856 1_555
K4 O38 3.150474 1_555
K4 O43 3.150474 1_555
O0 W14 1.927882 1_455
O0 W13 1.927882 1_565
O1 W13 1.920295 1_555
O1 W0 1.933488 1_555
O2 W14 1.920295 1_555
O2 W0 1.933488 1_555
O3 W0 1.919873 1_555
O3 W0 1.933560 1_556
O4 W1 1.929705 1_555
O4 W0 1.941920 1_555
O5 W3 1.936440 1_455
O5 W1 1.936440 1_565
O6 W1 1.922162 1_555
O6 W1 1.931264 1_556
O7 W3 1.929705 1_555
O7 W0 1.941920 1_555
O8 W3 1.932097 1_555
O8 W1 1.932097 1_555
O9 W2 1.934982 1_545
O9 W1 1.938246 1_555
O10 W2 1.922657 1_554
O10 W2 1.930772 1_555
O11 W3 1.922162 1_555
O11 W3 1.931264 1_556
O12 W2 1.934982 1_655
O12 W3 1.938246 1_555
O13 W2 1.940150 1_555
O13 W4 1.946835 1_565
O14 W4 1.931886 1_565
O14 W5 1.931886 1_555
O15 W4 1.922406 1_555
O15 W4 1.931015 1_556
O16 W2 1.940150 1_555
O16 W5 1.946835 1_555
O17 W5 1.931886 1_655
O17 W4 1.931886 1_555
O18 W5 1.922406 1_555
O18 W5 1.931015 1_556
O19 W6 1.940150 1_555
O19 W4 1.946835 1_555
O20 W6 1.940150 1_555
O20 W5 1.946835 1_655
O21 W6 1.922657 1_554
O21 W6 1.930772 1_555
O22 W6 1.934982 1_565
O22 W7 1.938246 1_555
O23 W7 1.922162 1_555
O23 W7 1.931264 1_556
O24 W6 1.934982 1_455
O24 W8 1.938246 1_555
O25 W7 1.929705 1_555
O25 W9 1.941920 1_555
O26 W7 1.936440 1_545
O26 W8 1.936440 1_655
O27 W8 1.922162 1_555
O27 W8 1.931264 1_556
O28 W7 1.932097 1_555
O28 W8 1.932097 1_555
O29 W10 1.920295 1_555
O29 W9 1.933488 1_555
O30 W8 1.929705 1_555
O30 W9 1.941920 1_555
O31 W10 1.926638 1_555
O31 W10 1.926784 1_556
O32 W9 1.919873 1_555
O32 W9 1.933560 1_556
O33 W10 1.927882 1_545
O33 W11 1.927882 1_655
O34 W11 1.920295 1_555
O34 W9 1.933488 1_555
O35 W11 1.926638 1_555
O35 W11 1.926784 1_556
O36 W10 1.935936 1_555
O36 W12 1.943181 1_665
O37 W11 1.935936 1_555
O37 W12 1.943181 1_555
O38 W11 1.935616 1_555
O38 W10 1.935616 1_555
O39 W12 1.917898 1_555
O39 W12 1.935523 1_554
O40 W14 1.935936 1_555
O40 W12 1.943181 1_665
O41 W13 1.935936 1_555
O41 W12 1.943181 1_555
O42 W13 1.926638 1_555
O42 W13 1.926784 1_556
O43 W14 1.935616 1_555
O43 W13 1.935616 1_555
O44 W14 1.926638 1_555
O44 W14 1.926784 1_556
