# generated using pymatgen
data_Li2Cr2O7
_symmetry_space_group_name_H-M   'P 1'
_cell_length_a   6.44121562
_cell_length_b   6.44121562
_cell_length_c   13.92075400
_cell_angle_alpha   90.00000000
_cell_angle_beta   90.00000000
_cell_angle_gamma   117.60808351
_symmetry_Int_Tables_number   1
_chemical_formula_structural   Li2Cr2O7
_chemical_formula_sum   'Li8 Cr8 O28'
_cell_volume   511.79954568
_cell_formula_units_Z   4
loop_
 _symmetry_equiv_pos_site_id
 _symmetry_equiv_pos_as_xyz
  1  'x, y, z'
loop_
 _atom_site_type_symbol
 _atom_site_label
 _atom_site_symmetry_multiplicity
 _atom_site_fract_x
 _atom_site_fract_y
 _atom_site_fract_z
 _atom_site_occupancy
  Li  Li0  1  0.24498000  0.24498000  0.00000000  1
  Li  Li1  1  0.25502000  0.25502000  0.50000000  1
  Li  Li2  1  0.69054000  0.30946000  0.35751100  1
  Li  Li3  1  0.80946000  0.19054000  0.85751100  1
  Li  Li4  1  0.19054000  0.80946000  0.14248900  1
  Li  Li5  1  0.30946000  0.69054000  0.64248900  1
  Li  Li6  1  0.74498000  0.74498000  0.50000000  1
  Li  Li7  1  0.75502000  0.75502000  0.00000000  1
  Cr  Cr0  1  0.17316900  0.32683100  0.25000000  1
  Cr  Cr1  1  0.32683100  0.17316900  0.75000000  1
  Cr  Cr2  1  0.25179300  0.74820700  0.92052600  1
  Cr  Cr3  1  0.74820700  0.25179300  0.07947400  1
  Cr  Cr4  1  0.75179300  0.24820700  0.57947400  1
  Cr  Cr5  1  0.24820700  0.75179300  0.42052600  1
  Cr  Cr6  1  0.82683100  0.67316900  0.75000000  1
  Cr  Cr7  1  0.67316900  0.82683100  0.25000000  1
  O  O0  1  0.20866200  0.18276800  0.16129900  1
  O  O1  1  0.18276800  0.20866200  0.83870100  1
  O  O2  1  0.55778000  0.03572900  0.14875600  1
  O  O3  1  0.53572900  0.05778000  0.64875600  1
  O  O4  1  0.03572900  0.55778000  0.85124400  1
  O  O5  1  0.05778000  0.53572900  0.35124400  1
  O  O6  1  0.31723200  0.29133800  0.33870100  1
  O  O7  1  0.29133800  0.31723200  0.66129900  1
  O  O8  1  0.63842700  0.36157300  0.49866900  1
  O  O9  1  0.62546000  0.37454000  0.78347800  1
  O  O10  1  0.88444900  0.11555100  0.52482500  1
  O  O11  1  0.12546000  0.87454000  0.71652200  1
  O  O12  1  0.86157300  0.13842700  0.99866900  1
  O  O13  1  0.87454000  0.12546000  0.28347800  1
  O  O14  1  0.36157300  0.63842700  0.50133100  1
  O  O15  1  0.61555100  0.38444900  0.02482500  1
  O  O16  1  0.37454000  0.62546000  0.21652200  1
  O  O17  1  0.11555100  0.88444900  0.47517500  1
  O  O18  1  0.13842700  0.86157300  0.00133100  1
  O  O19  1  0.38444900  0.61555100  0.97517500  1
  O  O20  1  0.70866200  0.68276800  0.33870100  1
  O  O21  1  0.68276800  0.70866200  0.66129900  1
  O  O22  1  0.46427100  0.94222000  0.35124400  1
  O  O23  1  0.44222000  0.96427100  0.85124400  1
  O  O24  1  0.96427100  0.44222000  0.14875600  1
  O  O25  1  0.94222000  0.46427100  0.64875600  1
  O  O26  1  0.81723200  0.79133800  0.16129900  1
  O  O27  1  0.79133800  0.81723200  0.83870100  1
loop_
_geom_bond_atom_site_label_1
_geom_bond_atom_site_label_2
_geom_bond_distance
_geom_bond_site_symmetry_2
Li0 O15 2.153244 1_555
Li0 O19 2.153244 1_554
Li0 O18 2.235931 1_545
Li0 O12 2.235931 1_454
Li0 O0 2.273820 1_555
Li0 O1 2.273820 1_554
Li1 O10 2.153244 1_455
Li1 O17 2.153244 1_545
Li1 O14 2.235931 1_555
Li1 O8 2.235931 1_555
Li1 O6 2.273820 1_555
Li1 O7 2.273820 1_555
Li2 O8 2.047220 1_555
Li2 O5 2.128823 1_655
Li2 O22 2.128823 1_545
Li2 O13 2.274499 1_555
Li2 O20 2.367265 1_555
Li2 O6 2.367265 1_555
Li3 O12 2.047220 1_555
Li3 O4 2.128823 1_655
Li3 O23 2.128823 1_545
Li3 O9 2.274499 1_555
Li3 O1 2.367265 1_655
Li3 O27 2.367265 1_545
Li4 O18 2.047220 1_555
Li4 O24 2.128823 1_455
Li4 O2 2.128823 1_565
Li4 O16 2.274499 1_555
Li4 O0 2.367265 1_565
Li4 O26 2.367265 1_455
Li5 O14 2.047220 1_555
Li5 O3 2.128823 1_565
Li5 O25 2.128823 1_455
Li5 O11 2.274499 1_555
Li5 O21 2.367265 1_555
Li5 O7 2.367265 1_555
Li6 O10 2.153244 1_565
Li6 O17 2.153244 1_655
Li6 O14 2.235931 1_555
Li6 O8 2.235931 1_555
Li6 O20 2.273820 1_555
Li6 O21 2.273820 1_555
Li7 O15 2.153244 1_555
Li7 O19 2.153244 1_554
Li7 O18 2.235931 1_655
Li7 O12 2.235931 1_564
Li7 O26 2.273820 1_555
Li7 O27 2.273820 1_554
Cr0 O6 1.623163 1_555
Cr0 O0 1.623163 1_555
Cr0 O13 1.813046 1_455
Cr0 O16 1.813046 1_555
Cr0 O24 2.297007 1_455
Cr0 O5 2.297007 1_555
Cr1 O1 1.623163 1_555
Cr1 O7 1.623163 1_555
Cr1 O11 1.813046 1_545
Cr1 O9 1.813046 1_555
Cr1 O3 2.297007 1_555
Cr1 O23 2.297007 1_545
Cr2 O19 1.647929 1_555
Cr2 O4 1.670145 1_555
Cr2 O23 1.670145 1_555
Cr2 O18 1.681058 1_556
Cr3 O15 1.647929 1_555
Cr3 O2 1.670145 1_555
Cr3 O24 1.670145 1_555
Cr3 O12 1.681058 1_554
Cr4 O10 1.647929 1_555
Cr4 O3 1.670145 1_555
Cr4 O25 1.670145 1_555
Cr4 O8 1.681058 1_555
Cr5 O17 1.647929 1_555
Cr5 O5 1.670145 1_555
Cr5 O22 1.670145 1_555
Cr5 O14 1.681058 1_555
Cr6 O27 1.623163 1_555
Cr6 O21 1.623163 1_555
Cr6 O11 1.813046 1_655
Cr6 O9 1.813046 1_555
Cr6 O4 2.297007 1_655
Cr6 O25 2.297007 1_555
Cr7 O26 1.623163 1_555
Cr7 O20 1.623163 1_555
Cr7 O13 1.813046 1_565
Cr7 O16 1.813046 1_555
Cr7 O2 2.297007 1_565
Cr7 O22 2.297007 1_555
