# generated using pymatgen
data_MnFeCo(PO4)3
_symmetry_space_group_name_H-M   'P 1'
_cell_length_a   5.96539000
_cell_length_b   9.88691800
_cell_length_c   14.60070600
_cell_angle_alpha   90.00000000
_cell_angle_beta   90.00000000
_cell_angle_gamma   90.00000000
_symmetry_Int_Tables_number   1
_chemical_formula_structural   MnFeCo(PO4)3
_chemical_formula_sum   'Mn4 Fe4 Co4 P12 O48'
_cell_volume   861.13973721
_cell_formula_units_Z   4
loop_
 _symmetry_equiv_pos_site_id
 _symmetry_equiv_pos_as_xyz
  1  'x, y, z'
loop_
 _atom_site_type_symbol
 _atom_site_label
 _atom_site_symmetry_multiplicity
 _atom_site_fract_x
 _atom_site_fract_y
 _atom_site_fract_z
 _atom_site_occupancy
  Mn  Mn0  1  0.00000000  0.53262900  0.51966300  1
  Mn  Mn1  1  0.50000000  0.46737100  0.01966300  1
  Mn  Mn2  1  0.00000000  0.03230200  0.64761300  1
  Mn  Mn3  1  0.50000000  0.96769800  0.14761300  1
  Fe  Fe0  1  0.00000000  0.52340100  0.17823100  1
  Fe  Fe1  1  0.50000000  0.47659900  0.67823100  1
  Fe  Fe2  1  0.00000000  0.02470500  0.32318100  1
  Fe  Fe3  1  0.50000000  0.97529500  0.82318100  1
  Co  Co0  1  0.00000000  0.53068200  0.84867000  1
  Co  Co1  1  0.50000000  0.46931800  0.34867000  1
  Co  Co2  1  0.00000000  0.02006300  0.98961500  1
  Co  Co3  1  0.50000000  0.97993700  0.48961500  1
  P  P0  1  0.50000000  0.65145900  0.86160100  1
  P  P1  1  0.50000000  0.65516000  0.52446400  1
  P  P2  1  0.50000000  0.65021400  0.19466200  1
  P  P3  1  0.00000000  0.34978600  0.69466200  1
  P  P4  1  0.00000000  0.34854100  0.36160100  1
  P  P5  1  0.00000000  0.34484000  0.02446400  1
  P  P6  1  0.50000000  0.15030000  0.97308700  1
  P  P7  1  0.50000000  0.15318400  0.63857800  1
  P  P8  1  0.50000000  0.15079100  0.30478800  1
  P  P9  1  0.00000000  0.84920900  0.80478800  1
  P  P10  1  0.00000000  0.84970000  0.47308700  1
  P  P11  1  0.00000000  0.84681600  0.13857800  1
  O  O0  1  0.00000000  0.69820600  0.78211400  1
  O  O1  1  0.00000000  0.69666900  0.45218200  1
  O  O2  1  0.00000000  0.69646900  0.11498700  1
  O  O3  1  0.50000000  0.63139900  0.75773500  1
  O  O4  1  0.50000000  0.63535200  0.42159100  1
  O  O5  1  0.50000000  0.63099700  0.08941100  1
  O  O6  1  0.70606100  0.57738100  0.90786600  1
  O  O7  1  0.69773600  0.57986200  0.57598300  1
  O  O8  1  0.70248800  0.57839700  0.24232000  1
  O  O9  1  0.29393900  0.57738100  0.90786600  1
  O  O10  1  0.30226400  0.57986200  0.57598300  1
  O  O11  1  0.29751200  0.57839700  0.24232000  1
  O  O12  1  0.20248800  0.42160300  0.74232000  1
  O  O13  1  0.20606100  0.42261900  0.40786600  1
  O  O14  1  0.19773600  0.42013800  0.07598300  1
  O  O15  1  0.79751200  0.42160300  0.74232000  1
  O  O16  1  0.79393900  0.42261900  0.40786600  1
  O  O17  1  0.80226400  0.42013800  0.07598300  1
  O  O18  1  0.00000000  0.36464800  0.92159100  1
  O  O19  1  0.00000000  0.36900300  0.58941100  1
  O  O20  1  0.00000000  0.36860100  0.25773500  1
  O  O21  1  0.50000000  0.30333100  0.95218200  1
  O  O22  1  0.50000000  0.30353100  0.61498700  1
  O  O23  1  0.50000000  0.30179400  0.28211400  1
  O  O24  1  0.00000000  0.19725000  0.71550900  1
  O  O25  1  0.00000000  0.19875600  0.38615900  1
  O  O26  1  0.00000000  0.19282500  0.04851800  1
  O  O27  1  0.50000000  0.13124300  0.74163000  1
  O  O28  1  0.50000000  0.12854000  0.41053600  1
  O  O29  1  0.50000000  0.13184700  0.07825100  1
  O  O30  1  0.70041800  0.07945900  0.92368500  1
  O  O31  1  0.69988200  0.07800400  0.58891600  1
  O  O32  1  0.70473600  0.07804100  0.25984400  1
  O  O33  1  0.29958200  0.07945900  0.92368500  1
  O  O34  1  0.30011800  0.07800400  0.58891600  1
  O  O35  1  0.29526400  0.07804100  0.25984400  1
  O  O36  1  0.20473600  0.92195900  0.75984400  1
  O  O37  1  0.20041800  0.92054100  0.42368500  1
  O  O38  1  0.19988200  0.92199600  0.08891600  1
  O  O39  1  0.79526400  0.92195900  0.75984400  1
  O  O40  1  0.79958200  0.92054100  0.42368500  1
  O  O41  1  0.80011800  0.92199600  0.08891600  1
  O  O42  1  0.00000000  0.87146000  0.91053600  1
  O  O43  1  0.00000000  0.86815300  0.57825100  1
  O  O44  1  0.00000000  0.86875700  0.24163000  1
  O  O45  1  0.50000000  0.80124400  0.88615900  1
  O  O46  1  0.50000000  0.80717500  0.54851800  1
  O  O47  1  0.50000000  0.80275000  0.21550900  1
loop_
_geom_bond_atom_site_label_1
_geom_bond_atom_site_label_2
_geom_bond_distance
_geom_bond_site_symmetry_2
Mn0 O1 1.897671 1_555
Mn0 O19 1.911600 1_555
Mn0 O10 2.036057 1_555
Mn0 O7 2.036057 1_455
Mn0 O16 2.314838 1_455
Mn0 O13 2.314838 1_555
Mn1 O21 1.897671 1_554
Mn1 O5 1.911600 1_555
Mn1 O14 2.036057 1_555
Mn1 O17 2.036057 1_555
Mn1 O9 2.314838 1_554
Mn1 O6 2.314838 1_554
Mn2 O24 1.908489 1_555
Mn2 O43 1.912988 1_545
Mn2 O31 2.035657 1_455
Mn2 O34 2.035657 1_555
Mn2 O36 2.316679 1_545
Mn2 O39 2.316679 1_445
Mn3 O47 1.908489 1_555
Mn3 O29 1.912988 1_565
Mn3 O38 2.035657 1_555
Mn3 O41 2.035657 1_555
Mn3 O35 2.316679 1_565
Mn3 O32 2.316679 1_565
Fe0 O20 1.920913 1_555
Fe0 O2 1.944370 1_555
Fe0 O8 2.078725 1_455
Fe0 O11 2.078725 1_555
Fe0 O17 2.159274 1_455
Fe0 O14 2.159274 1_555
Fe1 O3 1.920913 1_555
Fe1 O22 1.944370 1_555
Fe1 O12 2.078725 1_555
Fe1 O15 2.078725 1_555
Fe1 O10 2.159274 1_555
Fe1 O7 2.159274 1_555
Fe2 O44 1.948091 1_545
Fe2 O25 1.951095 1_555
Fe2 O32 2.058075 1_455
Fe2 O35 2.058075 1_555
Fe2 O40 2.154844 1_445
Fe2 O37 2.154844 1_545
Fe3 O27 1.948091 1_565
Fe3 O45 1.951095 1_555
Fe3 O39 2.058075 1_555
Fe3 O36 2.058075 1_555
Fe3 O30 2.154844 1_565
Fe3 O33 2.154844 1_565
Co0 O0 1.920324 1_555
Co0 O18 1.956608 1_555
Co0 O6 2.008686 1_455
Co0 O9 2.008686 1_555
Co0 O15 2.243497 1_455
Co0 O12 2.243497 1_555
Co1 O23 1.920324 1_555
Co1 O4 1.956608 1_555
Co1 O16 2.008686 1_555
Co1 O13 2.008686 1_555
Co1 O11 2.243497 1_555
Co1 O8 2.243497 1_555
Co2 O42 1.868622 1_545
Co2 O26 1.912379 1_556
Co2 O41 2.112806 1_446
Co2 O38 2.112806 1_546
Co2 O30 2.113128 1_455
Co2 O33 2.113128 1_555
Co3 O28 1.868622 1_565
Co3 O46 1.912379 1_555
Co3 O34 2.112806 1_565
Co3 O31 2.112806 1_565
Co3 O40 2.113128 1_555
Co3 O37 2.113128 1_555
O0 P9 1.529219 1_555
O1 P10 1.543486 1_555
O2 P11 1.525854 1_555
O3 P0 1.529431 1_555
O4 P1 1.514732 1_555
O5 P2 1.548440 1_555
O6 P0 1.582319 1_555
O7 P1 1.584754 1_555
O8 P2 1.564428 1_555
O9 P0 1.582319 1_555
O10 P1 1.584754 1_555
O11 P2 1.564428 1_555
O12 P3 1.564428 1_555
O13 P4 1.582319 1_555
O14 P5 1.584754 1_555
O15 P3 1.564428 1_655
O16 P4 1.582319 1_655
O17 P5 1.584754 1_655
O18 P5 1.514732 1_556
O19 P3 1.548440 1_555
O20 P4 1.529431 1_555
O21 P6 1.543486 1_555
O22 P7 1.525854 1_555
O23 P8 1.529219 1_555
O24 P3 1.538521 1_555
O25 P4 1.523702 1_555
O26 P5 1.543449 1_555
O27 P7 1.520189 1_555
O28 P8 1.559589 1_555
O29 P6 1.546270 1_554
O30 P6 1.562124 1_555
O31 P7 1.581145 1_555
O32 P8 1.561928 1_555
O33 P6 1.562124 1_555
O34 P7 1.581145 1_555
O35 P8 1.561928 1_555
O36 P9 1.561928 1_555
O37 P10 1.562124 1_555
O38 P11 1.581145 1_555
O39 P9 1.561928 1_655
O40 P10 1.562124 1_655
O41 P11 1.581145 1_655
O42 P9 1.559589 1_555
O43 P10 1.546270 1_555
O44 P11 1.520189 1_555
O45 P0 1.523702 1_555
O46 P1 1.543449 1_555
O47 P2 1.538521 1_555
