# generated using pymatgen
data_VOF
_symmetry_space_group_name_H-M   'P 1'
_cell_length_a   4.61990061
_cell_length_b   4.61989310
_cell_length_c   12.31402708
_cell_angle_alpha   89.99971938
_cell_angle_beta   89.99981608
_cell_angle_gamma   90.22415120
_symmetry_Int_Tables_number   1
_chemical_formula_structural   VOF
_chemical_formula_sum   'V8 O8 F8'
_cell_volume   262.82177229
_cell_formula_units_Z   8
loop_
 _symmetry_equiv_pos_site_id
 _symmetry_equiv_pos_as_xyz
  1  'x, y, z'
loop_
 _atom_site_type_symbol
 _atom_site_label
 _atom_site_symmetry_multiplicity
 _atom_site_fract_x
 _atom_site_fract_y
 _atom_site_fract_z
 _atom_site_occupancy
  V  V0  1  0.97030347  0.97027424  0.00001674  1
  V  V1  1  0.01880836  0.04196980  0.25001145  1
  V  V2  1  0.97027640  0.97030122  0.49998022  1
  V  V3  1  0.04195780  0.01879592  0.74998744  1
  V  V4  1  0.52936848  0.47074554  0.12457907  1
  V  V5  1  0.47074185  0.52934515  0.62453953  1
  V  V6  1  0.47075047  0.52934981  0.87544570  1
  V  V7  1  0.52934780  0.47075724  0.37543844  1
  O  O0  1  0.18545885  0.81624163  0.87488910  1
  O  O1  1  0.18544476  0.81625100  0.62509162  1
  O  O2  1  0.32127262  0.30664661  0.25001535  1
  O  O3  1  0.30666139  0.32129311  0.74998752  1
  O  O4  1  0.68444312  0.68442528  0.00001042  1
  O  O5  1  0.68441403  0.68445877  0.49999061  1
  O  O6  1  0.81626247  0.18543463  0.12513087  1
  O  O7  1  0.81625358  0.18546303  0.37488878  1
  F  F0  1  0.20651295  0.79033241  0.12525899  1
  F  F1  1  0.20650109  0.79032489  0.37476542  1
  F  F2  1  0.29126551  0.29125701  0.00001491  1
  F  F3  1  0.29124443  0.29125566  0.49998589  1
  F  F4  1  0.73077415  0.69131310  0.25002253  1
  F  F5  1  0.69129783  0.73074333  0.74997793  1
  F  F6  1  0.79030815  0.20653448  0.62520517  1
  F  F7  1  0.79033546  0.20648913  0.87476932  1
loop_
_geom_bond_atom_site_label_1
_geom_bond_atom_site_label_2
_geom_bond_distance
_geom_bond_site_symmetry_2
O0 V6 1.872859 1_555
O0 V3 1.919797 1_565
O0 V0 1.968274 1_456
O1 V5 1.872922 1_555
O1 V3 1.919700 1_565
O1 V2 1.968177 1_455
O2 V1 1.853219 1_555
O2 V7 1.969412 1_555
O2 V4 1.969555 1_555
O3 V3 1.853414 1_555
O3 V5 1.969536 1_555
O3 V6 1.969671 1_555
O4 V0 1.863980 1_555
O4 V4 1.958370 1_555
O4 V6 1.958374 1_554
O5 V2 1.863966 1_555
O5 V5 1.958228 1_555
O5 V7 1.958258 1_555
O6 V4 1.872929 1_555
O6 V1 1.919514 1_655
O6 V0 1.968171 1_545
O7 V7 1.872913 1_555
O7 V1 1.919548 1_655
O7 V2 1.967921 1_545
F0 V0 2.065799 1_455
F0 V4 2.102850 1_555
F0 V1 2.114548 1_565
F1 V2 2.065650 1_455
F1 V7 2.102758 1_555
F1 V1 2.114554 1_565
F2 V4 2.059933 1_555
F2 V6 2.059935 1_554
F2 V0 2.092974 1_445
F3 V7 2.059793 1_555
F3 V5 2.059819 1_555
F3 V2 2.092901 1_445
F4 V7 2.069265 1_555
F4 V4 2.069514 1_555
F4 V1 2.092428 1_665
F5 V5 2.069426 1_555
F5 V6 2.069655 1_555
F5 V3 2.092494 1_665
F6 V2 2.065750 1_545
F6 V5 2.102635 1_555
F6 V3 2.114908 1_655
F7 V0 2.065907 1_546
F7 V6 2.102861 1_555
F7 V3 2.114750 1_655
