# generated using pymatgen
data_TmAlO3
_symmetry_space_group_name_H-M   'P 1'
_cell_length_a   5.09801477
_cell_length_b   5.31393680
_cell_length_c   7.30343534
_cell_angle_alpha   90.00000000
_cell_angle_beta   90.00000000
_cell_angle_gamma   90.00000000
_symmetry_Int_Tables_number   1
_chemical_formula_structural   TmAlO3
_chemical_formula_sum   'Tm4 Al4 O12'
_cell_volume   197.85392172
_cell_formula_units_Z   4
loop_
 _symmetry_equiv_pos_site_id
 _symmetry_equiv_pos_as_xyz
  1  'x, y, z'
loop_
 _atom_site_type_symbol
 _atom_site_label
 _atom_site_symmetry_multiplicity
 _atom_site_fract_x
 _atom_site_fract_y
 _atom_site_fract_z
 _atom_site_occupancy
  Tm  Tm0  1  0.01559734  0.93884347  0.75000000  1
  Tm  Tm1  1  0.48440266  0.43884347  0.75000000  1
  Tm  Tm2  1  0.51559734  0.56115653  0.25000000  1
  Tm  Tm3  1  0.98440266  0.06115653  0.25000000  1
  Al  Al0  1  -0.00000000  0.50000000  -0.00000000  1
  Al  Al1  1  -0.00000000  0.50000000  0.50000000  1
  Al  Al2  1  0.50000000  -0.00000000  -0.00000000  1
  Al  Al3  1  0.50000000  -0.00000000  0.50000000  1
  O  O0  1  0.09502940  0.47226653  0.25000000  1
  O  O1  1  0.20075517  0.20218169  0.54950360  1
  O  O2  1  0.20075517  0.20218169  0.95049640  1
  O  O3  1  0.29924483  0.70218169  0.95049640  1
  O  O4  1  0.29924483  0.70218169  0.54950360  1
  O  O5  1  0.40497060  0.97226653  0.25000000  1
  O  O6  1  0.59502940  0.02773347  0.75000000  1
  O  O7  1  0.70075517  0.29781831  0.04950360  1
  O  O8  1  0.70075517  0.29781831  0.45049640  1
  O  O9  1  0.79924483  0.79781831  0.04950360  1
  O  O10  1  0.79924483  0.79781831  0.45049640  1
  O  O11  1  0.90497060  0.52773347  0.75000000  1
loop_
_geom_bond_atom_site_label_1
_geom_bond_atom_site_label_2
_geom_bond_distance
_geom_bond_site_symmetry_2
Al0 O11 1.894778 1_454
Al0 O0 1.894778 1_555
Al0 O3 1.900612 1_554
Al0 O7 1.900612 1_455
Al0 O2 1.919051 1_554
Al0 O9 1.919051 1_455
Al1 O11 1.894778 1_455
Al1 O0 1.894778 1_555
Al1 O4 1.900612 1_555
Al1 O8 1.900612 1_455
Al1 O10 1.919051 1_455
Al1 O1 1.919051 1_555
Al2 O5 1.894778 1_545
Al2 O6 1.894778 1_554
Al2 O2 1.900612 1_554
Al2 O9 1.900612 1_545
Al2 O7 1.919051 1_555
Al2 O3 1.919051 1_544
Al3 O5 1.894778 1_545
Al3 O6 1.894778 1_555
Al3 O1 1.900612 1_555
Al3 O10 1.900612 1_545
Al3 O8 1.919051 1_555
Al3 O4 1.919051 1_545
O0 Tm2 2.195477 1_555
O0 Tm3 2.256236 1_455
O1 Tm0 2.234602 1_545
O1 Tm1 2.411807 1_555
O1 Tm3 2.561812 1_455
O2 Tm0 2.234602 1_545
O2 Tm1 2.411807 1_555
O2 Tm3 2.561812 1_456
O3 Tm1 2.234602 1_555
O3 Tm0 2.411807 1_555
O3 Tm2 2.561812 1_556
O4 Tm1 2.234602 1_555
O4 Tm0 2.411807 1_555
O4 Tm2 2.561812 1_555
O5 Tm3 2.195477 1_465
O5 Tm2 2.256236 1_555
O6 Tm0 2.195477 1_645
O6 Tm1 2.256236 1_555
O7 Tm2 2.234602 1_555
O7 Tm3 2.411807 1_555
O7 Tm1 2.561812 1_554
O8 Tm2 2.234602 1_555
O8 Tm3 2.411807 1_555
O8 Tm1 2.561812 1_555
O9 Tm3 2.234602 1_565
O9 Tm2 2.411807 1_555
O9 Tm0 2.561812 1_654
O10 Tm3 2.234602 1_565
O10 Tm2 2.411807 1_555
O10 Tm0 2.561812 1_655
O11 Tm1 2.195477 1_555
O11 Tm0 2.256236 1_655
