# generated using pymatgen
data_LiV2P4(HO8)2
_symmetry_space_group_name_H-M   'P 1'
_cell_length_a   7.75520600
_cell_length_b   7.89535783
_cell_length_c   13.62152117
_cell_angle_alpha   90.05606249
_cell_angle_beta   98.59589122
_cell_angle_gamma   90.06336722
_symmetry_Int_Tables_number   1
_chemical_formula_structural   LiV2P4(HO8)2
_chemical_formula_sum   'Li3 V6 P12 H6 O48'
_cell_volume   824.67763682
_cell_formula_units_Z   3
loop_
 _symmetry_equiv_pos_site_id
 _symmetry_equiv_pos_as_xyz
  1  'x, y, z'
loop_
 _atom_site_type_symbol
 _atom_site_label
 _atom_site_symmetry_multiplicity
 _atom_site_fract_x
 _atom_site_fract_y
 _atom_site_fract_z
 _atom_site_occupancy
  Li  Li0  1  0.03255400  0.13341800  0.18191100  1
  Li  Li1  1  0.62761000  0.86699900  0.48188700  1
  Li  Li2  1  0.20871500  0.37025000  0.85189400  1
  V  V0  1  0.16912500  0.50656000  0.16604700  1
  V  V1  1  0.65490500  0.99502600  0.16617300  1
  V  V2  1  0.50093200  0.49311300  0.49918200  1
  V  V3  1  0.00898900  0.00612600  0.50287200  1
  V  V4  1  0.33168000  0.99253300  0.83218500  1
  V  V5  1  0.82524900  0.50457400  0.83328400  1
  P  P0  1  0.27807000  0.15503200  0.04568500  1
  P  P1  1  0.77992100  0.35244100  0.04808100  1
  P  P2  1  0.04949900  0.84773300  0.28875800  1
  P  P3  1  0.11131700  0.35243500  0.38064000  1
  P  P4  1  0.56019500  0.64289800  0.28556700  1
  P  P5  1  0.61263800  0.14776600  0.37939500  1
  P  P6  1  0.38596700  0.84141800  0.62125100  1
  P  P7  1  0.44812000  0.34185400  0.71109200  1
  P  P8  1  0.88964600  0.64565400  0.61845900  1
  P  P9  1  0.94245900  0.14559300  0.71602600  1
  P  P10  1  0.21984800  0.65198000  0.95439800  1
  P  P11  1  0.72030800  0.85357300  0.95229300  1
  H  H0  1  0.51261800  0.48991400  0.00588800  1
  H  H1  1  0.31603300  0.99102500  0.32719700  1
  H  H2  1  0.84627300  0.49452500  0.33871600  1
  H  H3  1  0.17095200  0.50103400  0.66665900  1
  H  H4  1  0.66663100  0.00366000  0.66808800  1
  H  H5  1  0.98610300  0.98912100  0.99204800  1
  O  O0  1  0.11893100  0.05483300  0.06360000  1
  O  O1  1  0.19353400  0.67259000  0.06434600  1
  O  O2  1  0.27883700  0.32948700  0.09428400  1
  O  O3  1  0.44905400  0.05801200  0.09533700  1
  O  O4  1  0.61643500  0.45040800  0.06286200  1
  O  O5  1  0.06291700  0.67104600  0.24730700  1
  O  O6  1  0.70365100  0.83739600  0.06407400  1
  O  O7  1  0.12649800  0.32425000  0.27001100  1
  O  O8  1  0.78040600  0.17393200  0.09665100  1
  O  O9  1  0.20703700  0.95961800  0.27142800  1
  O  O10  1  0.94572500  0.44322300  0.10068900  1
  O  O11  1  0.38992500  0.55912100  0.23388600  1
  O  O12  1  0.56537200  0.82607200  0.23523600  1
  O  O13  1  0.03241800  0.83989600  0.40093700  1
  O  O14  1  0.63369700  0.15644800  0.26607500  1
  O  O15  1  0.72188200  0.54990700  0.27034300  1
  O  O16  1  0.10358600  0.17289800  0.43184500  1
  O  O17  1  0.89078700  0.94673200  0.23255600  1
  O  O18  1  0.27860600  0.43988300  0.43164500  1
  O  O19  1  0.45864200  0.03686100  0.39431500  1
  O  O20  1  0.53904800  0.67290800  0.39594000  1
  O  O21  1  0.60494700  0.32745100  0.41861300  1
  O  O22  1  0.05553100  0.55197400  0.60810100  1
  O  O23  1  0.77835600  0.05364400  0.43379200  1
  O  O24  1  0.21701800  0.94004900  0.56983400  1
  O  O25  1  0.94947900  0.44900000  0.39819300  1
  O  O26  1  0.38914700  0.66834400  0.57169100  1
  O  O27  1  0.47179200  0.32546100  0.60140900  1
  O  O28  1  0.54662900  0.94219500  0.60353200  1
  O  O29  1  0.72405300  0.55363800  0.56523800  1
  O  O30  1  0.10664900  0.05207100  0.76653500  1
  O  O31  1  0.88573500  0.82526700  0.57006600  1
  O  O32  1  0.28597500  0.44182200  0.72817900  1
  O  O33  1  0.36466600  0.82522900  0.73110700  1
  O  O34  1  0.96498600  0.16093000  0.60338400  1
  O  O35  1  0.44152400  0.16873200  0.76013100  1
  O  O36  1  0.61487200  0.43975900  0.76495700  1
  O  O37  1  0.05309800  0.55459500  0.89910500  1
  O  O38  1  0.77522700  0.05220700  0.72640600  1
  O  O39  1  0.22599800  0.82901400  0.90920400  1
  O  O40  1  0.86400100  0.65947200  0.73073200  1
  O  O41  1  0.29602200  0.17218700  0.93436700  1
  O  O42  1  0.94664700  0.32423600  0.76554200  1
  O  O43  1  0.37367500  0.54268500  0.93763200  1
  O  O44  1  0.55708300  0.94185000  0.89969800  1
  O  O45  1  0.72978500  0.67226200  0.90588000  1
  O  O46  1  0.79729800  0.33932700  0.93540500  1
  O  O47  1  0.88440900  0.95005900  0.93547200  1
loop_
_geom_bond_atom_site_label_1
_geom_bond_atom_site_label_2
_geom_bond_distance
_geom_bond_site_symmetry_2
Li0 O0 1.937148 1_555
Li0 O7 1.993417 1_555
Li0 O17 2.020477 1_445
Li0 O8 2.144333 1_455
Li0 O9 2.171400 1_545
Li1 O28 1.949996 1_555
Li1 O20 1.986058 1_555
Li1 O23 2.048051 1_565
Li1 O19 2.116221 1_565
Li1 O31 2.200457 1_555
Li2 O32 1.954769 1_555
Li2 O41 1.986024 1_555
Li2 O37 2.054865 1_555
Li2 O43 2.097731 1_555
Li2 O42 2.220150 1_455
H0 O4 1.077984 1_555
H0 O43 1.378905 1_554
H1 O9 1.077170 1_555
H1 O19 1.373384 1_565
H2 O25 1.110652 1_555
H2 O15 1.312387 1_555
H3 O22 1.177804 1_555
H3 O32 1.222596 1_555
H4 O38 1.133989 1_555
H4 O28 1.276083 1_545
H5 O47 1.062221 1_555
H5 O0 1.406393 1_666
O0 P0 1.515516 1_555
O1 P10 1.549859 1_554
O1 V0 1.937709 1_555
O2 P0 1.527245 1_555
O2 V0 1.970434 1_555
O3 P0 1.593012 1_555
O3 V1 1.808067 1_545
O4 P1 1.524624 1_555
O5 P2 1.513941 1_555
O5 V0 1.965264 1_555
O6 P11 1.552590 1_554
O6 V1 1.944425 1_555
O7 P3 1.544885 1_555
O7 V0 2.080750 1_555
O8 P1 1.557307 1_555
O8 V1 2.028403 1_545
O9 P2 1.553368 1_555
O10 P1 1.549892 1_555
O10 V0 1.892195 1_655
O11 P4 1.547914 1_555
O11 V0 1.866262 1_555
O12 P4 1.604133 1_555
O12 V1 1.828172 1_555
O13 P2 1.554665 1_555
O13 V3 1.938005 1_565
O14 P5 1.577842 1_555
O14 V1 1.888693 1_545
O15 P4 1.494598 1_555
O16 P3 1.585454 1_555
O16 V3 1.849469 1_555
O17 P2 1.560009 1_655
O17 V1 1.953758 1_555
O18 P3 1.539539 1_555
O18 V2 1.875965 1_555
O19 P5 1.518194 1_555
O20 P4 1.554505 1_555
O20 V2 2.051207 1_555
O21 P5 1.519806 1_555
O21 V2 1.957055 1_555
O22 P8 1.509351 1_455
O23 P5 1.572095 1_555
O23 V3 1.929862 1_655
O24 P6 1.594575 1_555
O24 V3 1.808262 1_565
O25 P3 1.518273 1_655
O26 P6 1.525405 1_555
O26 V2 1.974107 1_555
O27 P7 1.537628 1_555
O27 V2 1.959391 1_555
O28 P6 1.527042 1_555
O29 P8 1.556005 1_555
O29 V2 1.887853 1_555
O30 P9 1.543092 1_455
O30 V4 1.897991 1_545
O31 P8 1.562827 1_555
O31 V3 2.012837 1_665
O32 P7 1.532218 1_555
O33 P6 1.535278 1_555
O33 V4 1.951521 1_555
O34 P9 1.574762 1_555
O34 V3 1.903188 1_655
O35 P7 1.526098 1_555
O35 V4 1.968318 1_545
O36 P7 1.587850 1_555
O36 V5 1.825722 1_555
O37 P10 1.592574 1_555
O37 V5 1.899041 1_455
O38 P9 1.516090 1_555
O39 P10 1.531425 1_555
O39 V4 1.922627 1_555
O40 P8 1.575102 1_555
O40 V5 1.914518 1_555
O41 P0 1.549329 1_556
O41 V4 2.034158 1_545
O42 P9 1.561039 1_555
O42 V5 2.006293 1_555
O43 P10 1.517656 1_555
O44 P11 1.527494 1_555
O44 V4 1.892944 1_555
O45 P11 1.570569 1_555
O45 V5 1.870102 1_555
O46 P1 1.564001 1_556
O46 V5 1.943515 1_555
O47 P11 1.528985 1_555
