# generated using pymatgen
data_Li4Nb3V5O16
_symmetry_space_group_name_H-M   'P 1'
_cell_length_a   6.06278011
_cell_length_b   6.05487280
_cell_length_c   9.85537978
_cell_angle_alpha   90.00566847
_cell_angle_beta   88.83178373
_cell_angle_gamma   119.95844953
_symmetry_Int_Tables_number   1
_chemical_formula_structural   Li4Nb3V5O16
_chemical_formula_sum   'Li4 Nb3 V5 O16'
_cell_volume   313.35946748
_cell_formula_units_Z   1
loop_
 _symmetry_equiv_pos_site_id
 _symmetry_equiv_pos_as_xyz
  1  'x, y, z'
loop_
 _atom_site_type_symbol
 _atom_site_label
 _atom_site_symmetry_multiplicity
 _atom_site_fract_x
 _atom_site_fract_y
 _atom_site_fract_z
 _atom_site_occupancy
  Li  Li0  1  0.33298300  0.66651300  0.89829200  1
  Li  Li1  1  0.01683800  0.00843100  0.99460900  1
  Li  Li2  1  0.01815900  0.00908400  0.49459300  1
  Li  Li3  1  0.66912500  0.33460300  0.38673500  1
  Nb  Nb0  1  0.66099200  0.83054500  0.21490500  1
  Nb  Nb1  1  0.82196900  0.64900900  0.71381000  1
  Nb  Nb2  1  0.82201000  0.17306800  0.71380400  1
  V  V0  1  0.16968700  0.82846000  0.21337100  1
  V  V1  1  0.32121900  0.66061900  0.48550500  1
  V  V2  1  0.16974700  0.34118600  0.21336900  1
  V  V3  1  0.34543800  0.17273700  0.71095400  1
  V  V4  1  0.65833100  0.32918200  0.99366500  1
  O  O0  1  0.15511900  0.82344300  0.59948000  1
  O  O1  1  0.03677500  0.51838700  0.33408500  1
  O  O2  1  0.34670300  0.67335500  0.10041600  1
  O  O3  1  0.99363300  0.99677900  0.31254600  1
  O  O4  1  0.99484900  0.99747500  0.81078300  1
  O  O5  1  0.15513200  0.33171400  0.59949000  1
  O  O6  1  0.48121200  0.95896400  0.34106000  1
  O  O7  1  0.48118500  0.52224900  0.34104900  1
  O  O8  1  0.32751500  0.16372600  0.10281600  1
  O  O9  1  0.67264500  0.83633600  0.60133500  1
  O  O10  1  0.52614000  0.48901300  0.84434200  1
  O  O11  1  0.52613900  0.03717800  0.84433400  1
  O  O12  1  0.67169200  0.33584800  0.58691400  1
  O  O13  1  0.83057500  0.67207800  0.10292100  1
  O  O14  1  0.96350000  0.48180300  0.84973200  1
  O  O15  1  0.83068300  0.15851700  0.10292700  1
loop_
_geom_bond_atom_site_label_1
_geom_bond_atom_site_label_2
_geom_bond_distance
_geom_bond_site_symmetry_2
Li0 O2 1.995002 1_556
Li0 O14 2.009804 1_455
Li0 O10 2.010144 1_555
Li0 O11 2.010245 1_565
Li1 O4 1.818057 1_445
Li1 O8 1.970293 1_556
Li1 O15 2.052856 1_456
Li1 O13 2.053454 1_446
Li2 O3 1.801776 1_445
Li2 O5 1.997214 1_555
Li2 O0 1.997220 1_545
Li2 O9 2.076258 1_445
Li3 O12 1.973203 1_555
Li3 O1 1.987859 1_655
Li3 O7 2.026310 1_555
Li3 O6 2.026432 1_545
Nb0 O3 2.014421 1_555
Nb0 O2 2.021377 1_555
Nb0 O6 2.032102 1_555
Nb0 O7 2.032556 1_555
Nb0 O15 2.033109 1_565
Nb0 O13 2.033355 1_555
Nb1 O10 1.995262 1_555
Nb1 O0 2.059514 1_655
Nb1 O4 2.072549 1_555
Nb1 O12 2.076075 1_555
Nb1 O9 2.097992 1_555
Nb1 O14 2.114346 1_555
Nb2 O11 1.995404 1_555
Nb2 O5 2.059313 1_655
Nb2 O4 2.072600 1_545
Nb2 O12 2.075975 1_555
Nb2 O9 2.098121 1_545
Nb2 O14 2.114173 1_555
O0 V1 2.047683 1_555
O0 V3 2.150639 1_565
O1 V0 2.009946 1_555
O1 V2 2.010229 1_555
O1 V1 2.136351 1_555
O2 V0 2.056871 1_555
O2 V2 2.057181 1_555
O3 V0 2.043771 1_655
O3 V2 2.044045 1_665
O4 V3 2.067412 1_665
O5 V1 2.047780 1_555
O5 V3 2.150731 1_555
O6 V0 2.093180 1_555
O6 V1 2.103523 1_555
O7 V2 2.092775 1_555
O7 V1 2.103411 1_555
O8 V4 2.022119 1_554
O8 V2 2.059203 1_555
O8 V0 2.059500 1_545
O9 V1 2.193073 1_555
O10 V3 2.135068 1_555
O10 V4 2.137189 1_555
O11 V3 2.135157 1_555
O11 V4 2.136963 1_555
O12 V3 2.081560 1_555
O13 V4 2.107252 1_554
O13 V0 2.110734 1_655
O14 V4 2.115403 1_555
O15 V4 2.108026 1_554
O15 V2 2.110456 1_655
