# generated using pymatgen
data_LiMn2F7
_symmetry_space_group_name_H-M   'P 1'
_cell_length_a   4.89962804
_cell_length_b   7.31919770
_cell_length_c   12.67862145
_cell_angle_alpha   84.67563794
_cell_angle_beta   90.00545516
_cell_angle_gamma   90.00540137
_symmetry_Int_Tables_number   1
_chemical_formula_structural   LiMn2F7
_chemical_formula_sum   'Li4 Mn8 F28'
_cell_volume   452.71067030
_cell_formula_units_Z   4
loop_
 _symmetry_equiv_pos_site_id
 _symmetry_equiv_pos_as_xyz
  1  'x, y, z'
loop_
 _atom_site_type_symbol
 _atom_site_label
 _atom_site_symmetry_multiplicity
 _atom_site_fract_x
 _atom_site_fract_y
 _atom_site_fract_z
 _atom_site_occupancy
  Li  Li0  1  0.24668185  0.17217806  0.08458999  1
  Li  Li1  1  0.25328812  0.67215763  0.08458559  1
  Li  Li2  1  0.74671315  0.32783516  0.91543602  1
  Li  Li3  1  0.75330628  0.82781480  0.91542255  1
  Mn  Mn0  1  0.75146888  0.35278525  0.17790329  1
  Mn  Mn1  1  0.74857895  0.85277171  0.17790245  1
  Mn  Mn2  1  0.24349866  0.27965354  0.39099039  1
  Mn  Mn3  1  0.25647848  0.77965074  0.39101506  1
  Mn  Mn4  1  0.74351662  0.22036162  0.60893169  1
  Mn  Mn5  1  0.75650720  0.72035979  0.60896351  1
  Mn  Mn6  1  0.25143020  0.14721186  0.82212715  1
  Mn  Mn7  1  0.24854628  0.64721032  0.82212319  1
  F  F0  1  0.05881466  0.43795209  0.10980600  1
  F  F1  1  0.57549144  0.31552378  0.05013103  1
  F  F2  1  0.91773856  0.10093810  0.17400570  1
  F  F3  1  0.44125502  0.93801699  0.10979032  1
  F  F4  1  0.92457138  0.81546342  0.05009882  1
  F  F5  1  0.58224918  0.60113931  0.17399131  1
  F  F6  1  0.93092476  0.36597804  0.31153770  1
  F  F7  1  0.44758649  0.25391548  0.24852774  1
  F  F8  1  0.56897171  0.86599570  0.31155217  1
  F  F9  1  0.05231180  0.75388733  0.24853317  1
  F  F10  1  0.37087536  0.52899719  0.38773531  1
  F  F11  1  0.12911126  0.02903397  0.38773911  1
  F  F12  1  0.54484335  0.19950743  0.47154627  1
  F  F13  1  0.04485285  0.30054314  0.52837656  1
  F  F14  1  0.95513577  0.69947662  0.47157959  1
  F  F15  1  0.45519590  0.80049430  0.52841169  1
  F  F16  1  0.87088017  0.97097660  0.61222168  1
  F  F17  1  0.62915343  0.47102392  0.61222928  1
  F  F18  1  0.94763074  0.24612692  0.75145854  1
  F  F19  1  0.43099907  0.13403116  0.68841093  1
  F  F20  1  0.55246319  0.74609474  0.75148402  1
  F  F21  1  0.06913152  0.63403895  0.68841629  1
  F  F22  1  0.41778147  0.39883567  0.82604167  1
  F  F23  1  0.07539737  0.18452048  0.94996116  1
  F  F24  1  0.55874078  0.06194808  0.89024793  1
  F  F25  1  0.08222654  0.89906692  0.82601856  1
  F  F26  1  0.42450520  0.68446640  0.94993123  1
  F  F27  1  0.94114633  0.56201675  0.89022532  1
loop_
_geom_bond_atom_site_label_1
_geom_bond_atom_site_label_2
_geom_bond_distance
_geom_bond_site_symmetry_2
F0 Mn0 1.817101 1_455
F0 Li1 1.961290 1_555
F0 Li0 2.202116 1_555
F1 Mn0 1.877183 1_555
F1 Li2 1.897369 1_554
F1 Li0 1.949835 1_555
F2 Mn1 1.992908 1_545
F2 Li0 2.011254 1_655
F2 Mn0 2.020182 1_555
F3 Mn1 1.817229 1_555
F3 Li0 1.961355 1_565
F3 Li1 2.202669 1_555
F4 Mn1 1.877808 1_555
F4 Li3 1.897104 1_554
F4 Li1 1.949464 1_655
F5 Mn0 1.994407 1_555
F5 Li1 2.010826 1_555
F5 Mn1 2.018737 1_555
F6 Mn2 1.908195 1_655
F6 Mn0 1.919154 1_555
F7 Mn0 1.849890 1_555
F7 Mn2 2.088394 1_555
F7 Li0 2.424319 1_555
F8 Mn3 1.908042 1_555
F8 Mn1 1.919852 1_555
F9 Mn1 1.849346 1_455
F9 Mn3 2.088642 1_555
F9 Li1 2.424759 1_555
F10 Mn3 1.922483 1_555
F10 Mn2 1.925519 1_555
F11 Mn2 1.922089 1_555
F11 Mn3 1.925869 1_545
F12 Mn2 1.859007 1_555
F12 Mn4 2.013433 1_555
F13 Mn4 1.859104 1_455
F13 Mn2 2.013591 1_555
F14 Mn3 1.859177 1_655
F14 Mn5 2.013518 1_555
F15 Mn5 1.858828 1_555
F15 Mn3 2.013650 1_555
F16 Mn5 1.922059 1_555
F16 Mn4 1.925864 1_565
F17 Mn4 1.922521 1_555
F17 Mn5 1.925420 1_555
F18 Mn6 1.849901 1_655
F18 Mn4 2.089019 1_555
F18 Li2 2.424925 1_555
F19 Mn4 1.908211 1_555
F19 Mn6 1.920472 1_555
F20 Mn7 1.850147 1_555
F20 Mn5 2.088928 1_555
F20 Li3 2.424163 1_555
F21 Mn5 1.908386 1_455
F21 Mn7 1.919856 1_555
F22 Mn7 1.994570 1_555
F22 Li2 2.010606 1_555
F22 Mn6 2.018727 1_555
F23 Mn6 1.878237 1_555
F23 Li0 1.896609 1_556
F23 Li2 1.949451 1_455
F24 Mn6 1.817264 1_555
F24 Li3 1.961135 1_545
F24 Li2 2.202814 1_555
F25 Mn6 1.992859 1_565
F25 Li3 2.011102 1_455
F25 Mn7 2.020341 1_555
F26 Mn7 1.877530 1_555
F26 Li1 1.896898 1_556
F26 Li3 1.949920 1_555
F27 Mn7 1.817407 1_655
F27 Li2 1.961034 1_555
F27 Li3 2.202164 1_555
