# generated using pymatgen
data_ScCrO4
_symmetry_space_group_name_H-M   'P 1'
_cell_length_a   5.14650764
_cell_length_b   9.55057661
_cell_length_c   6.63242010
_cell_angle_alpha   90.06583651
_cell_angle_beta   89.92997035
_cell_angle_gamma   96.92462914
_symmetry_Int_Tables_number   1
_chemical_formula_structural   ScCrO4
_chemical_formula_sum   'Sc4 Cr4 O16'
_cell_volume   323.61911863
_cell_formula_units_Z   4
loop_
 _symmetry_equiv_pos_site_id
 _symmetry_equiv_pos_as_xyz
  1  'x, y, z'
loop_
 _atom_site_type_symbol
 _atom_site_label
 _atom_site_symmetry_multiplicity
 _atom_site_fract_x
 _atom_site_fract_y
 _atom_site_fract_z
 _atom_site_occupancy
  Sc  Sc0  1  0.00198500  0.00019500  0.99891300  1
  Sc  Sc1  1  0.49775000  0.50203000  0.99943600  1
  Sc  Sc2  1  0.00273800  0.99866900  0.49990800  1
  Sc  Sc3  1  0.50074400  0.49994400  0.50150500  1
  Cr  Cr0  1  0.03586900  0.67865700  0.24993800  1
  Cr  Cr1  1  0.46892800  0.82312000  0.74989500  1
  Cr  Cr2  1  0.53866900  0.17945100  0.24971500  1
  Cr  Cr3  1  0.96188200  0.32035500  0.75037300  1
  O  O0  1  0.66044200  0.39186400  0.75194200  1
  O  O1  1  0.16304800  0.89622600  0.75079700  1
  O  O2  1  0.58224000  0.36597300  0.24866700  1
  O  O3  1  0.07602100  0.86651400  0.24758400  1
  O  O4  1  0.84012000  0.10770500  0.25073200  1
  O  O5  1  0.33755400  0.60527300  0.25342500  1
  O  O6  1  0.91606800  0.13329700  0.74831700  1
  O  O7  1  0.42807800  0.63411700  0.74912900  1
  O  O8  1  0.35843700  0.11934600  0.04840700  1
  O  O9  1  0.85898000  0.62457500  0.04559300  1
  O  O10  1  0.35891100  0.11789200  0.45048200  1
  O  O11  1  0.86611600  0.61882600  0.45517600  1
  O  O12  1  0.14302400  0.37985300  0.54939800  1
  O  O13  1  0.63232800  0.87551300  0.53971200  1
  O  O14  1  0.14034600  0.38195300  0.95129200  1
  O  O15  1  0.62972100  0.87865100  0.95966400  1
loop_
_geom_bond_atom_site_label_1
_geom_bond_atom_site_label_2
_geom_bond_distance
_geom_bond_site_symmetry_2
Cr0 O9 1.679408 1_455
Cr0 O11 1.679643 1_455
Cr0 O5 1.779015 1_555
Cr0 O3 1.781166 1_555
Cr1 O15 1.672426 1_555
Cr1 O13 1.672762 1_555
Cr1 O7 1.791938 1_555
Cr1 O1 1.797406 1_555
Cr2 O10 1.685892 1_555
Cr2 O8 1.686838 1_555
Cr2 O2 1.768444 1_555
Cr2 O4 1.769982 1_555
Cr3 O14 1.684144 1_655
Cr3 O12 1.685144 1_655
Cr3 O0 1.768808 1_555
Cr3 O6 1.773636 1_555
O0 Sc1 2.169711 1_555
O0 Sc3 2.170660 1_555
O1 Sc0 2.138336 1_565
O1 Sc2 2.146758 1_555
O2 Sc3 2.178961 1_555
O2 Sc1 2.180123 1_554
O3 Sc0 2.149199 1_564
O3 Sc2 2.155071 1_555
O4 Sc2 2.175673 1_645
O4 Sc0 2.176375 1_654
O5 Sc3 2.153009 1_555
O5 Sc1 2.162991 1_554
O6 Sc2 2.167541 1_645
O6 Sc0 2.171656 1_655
O7 Sc3 2.142064 1_555
O7 Sc1 2.142750 1_555
O8 Sc0 2.065256 1_554
O9 Sc1 2.096561 1_554
O10 Sc2 2.064014 1_545
O11 Sc3 2.098567 1_555
O12 Sc3 2.072665 1_555
O13 Sc2 2.132143 1_655
O14 Sc1 2.071812 1_555
O15 Sc0 2.133083 1_665
