# generated using pymatgen
data_Li2TiSn3(PO4)6
_symmetry_space_group_name_H-M   'P 1'
_cell_length_a   8.86718566
_cell_length_b   8.86718566
_cell_length_c   8.86718510
_cell_angle_alpha   58.91085907
_cell_angle_beta   58.91085907
_cell_angle_gamma   58.91085502
_symmetry_Int_Tables_number   1
_chemical_formula_structural   Li2TiSn3(PO4)6
_chemical_formula_sum   'Li2 Ti1 Sn3 P6 O24'
_cell_volume   480.74060467
_cell_formula_units_Z   1
loop_
 _symmetry_equiv_pos_site_id
 _symmetry_equiv_pos_as_xyz
  1  'x, y, z'
loop_
 _atom_site_type_symbol
 _atom_site_label
 _atom_site_symmetry_multiplicity
 _atom_site_fract_x
 _atom_site_fract_y
 _atom_site_fract_z
 _atom_site_occupancy
  Li  Li0  1  0.00317300  0.00317300  0.00317300  1
  Li  Li1  1  0.49973700  0.49973700  0.49973700  1
  Ti  Ti0  1  0.14448200  0.14448200  0.14448200  1
  Sn  Sn0  1  0.85486300  0.85486300  0.85486300  1
  Sn  Sn1  1  0.64348300  0.64348300  0.64348300  1
  Sn  Sn2  1  0.35478500  0.35478500  0.35478500  1
  P  P0  1  0.54095200  0.95688900  0.24941300  1
  P  P1  1  0.24941300  0.54095200  0.95688900  1
  P  P2  1  0.95688900  0.24941300  0.54095200  1
  P  P3  1  0.04538400  0.75211900  0.45283000  1
  P  P4  1  0.75211900  0.45283000  0.04538400  1
  P  P5  1  0.45283000  0.04538400  0.75211900  1
  O  O0  1  0.47915300  0.88026300  0.71485900  1
  O  O1  1  0.88026300  0.71485900  0.47915300  1
  O  O2  1  0.72905600  0.93529500  0.08471500  1
  O  O3  1  0.71485900  0.47915300  0.88026300  1
  O  O4  1  0.55021600  0.77039000  0.41845600  1
  O  O5  1  0.37560100  0.00479100  0.19827500  1
  O  O6  1  0.08471500  0.72905600  0.93529500  1
  O  O7  1  0.41845600  0.55021600  0.77039000  1
  O  O8  1  0.77039000  0.41845600  0.55021600  1
  O  O9  1  0.01557900  0.78743800  0.61972000  1
  O  O10  1  0.06950100  0.92171400  0.26917800  1
  O  O11  1  0.78743800  0.61972000  0.01557900  1
  O  O12  1  0.19827500  0.37560100  0.00479100  1
  O  O13  1  0.93529500  0.08471500  0.72905600  1
  O  O14  1  0.00479100  0.19827500  0.37560100  1
  O  O15  1  0.23261400  0.58592300  0.43185100  1
  O  O16  1  0.58592300  0.43185100  0.23261400  1
  O  O17  1  0.92171400  0.26917800  0.06950100  1
  O  O18  1  0.61972000  0.01557900  0.78743800  1
  O  O19  1  0.43185100  0.23261400  0.58592300  1
  O  O20  1  0.29662200  0.51710100  0.11358200  1
  O  O21  1  0.26917800  0.06950100  0.92171400  1
  O  O22  1  0.11358200  0.29662200  0.51710100  1
  O  O23  1  0.51710100  0.11358200  0.29662200  1
loop_
_geom_bond_atom_site_label_1
_geom_bond_atom_site_label_2
_geom_bond_distance
_geom_bond_site_symmetry_2
Li0 O10 2.380257 1_545
Li0 O17 2.380257 1_455
Li0 O21 2.380257 1_554
Li0 O13 2.457544 1_454
Li0 O6 2.457544 1_544
Li0 O2 2.457544 1_445
Li1 O7 2.338666 1_555
Li1 O8 2.338666 1_555
Li1 O4 2.338666 1_555
Li1 O16 2.384274 1_555
Li1 O15 2.384274 1_555
Li1 O19 2.384275 1_555
O0 P5 1.540909 1_565
O0 Sn1 2.047535 1_555
O1 P3 1.540909 1_655
O1 Sn1 2.047535 1_555
O2 P0 1.547525 1_555
O2 Sn0 2.058780 1_554
O3 P4 1.540909 1_556
O3 Sn1 2.047535 1_555
O4 P0 1.554103 1_555
O4 Sn1 2.087082 1_555
O5 P0 1.542825 1_545
O5 Ti0 1.933781 1_555
O6 P1 1.547525 1_555
O6 Sn0 2.058780 1_455
O7 P1 1.554103 1_555
O7 Sn1 2.087083 1_555
O8 P2 1.554103 1_555
O8 Sn1 2.087082 1_555
O9 P3 1.532029 1_555
O9 Sn0 2.018564 1_455
O10 P3 1.550003 1_555
O10 Ti0 1.976872 1_565
O11 P4 1.532029 1_555
O11 Sn0 2.018564 1_554
O12 P1 1.542825 1_554
O12 Ti0 1.933781 1_555
O13 P2 1.547525 1_555
O13 Sn0 2.058780 1_545
O14 P2 1.542825 1_455
O14 Ti0 1.933781 1_555
O15 P3 1.549219 1_555
O15 Sn2 2.056716 1_555
O16 P4 1.549219 1_555
O16 Sn2 2.056716 1_555
O17 P4 1.550003 1_555
O17 Ti0 1.976872 1_655
O18 P5 1.532029 1_555
O18 Sn0 2.018564 1_545
O19 P5 1.549219 1_555
O19 Sn2 2.056716 1_555
O20 P1 1.535004 1_554
O20 Sn2 2.026183 1_555
O21 P5 1.550003 1_555
O21 Ti0 1.976872 1_556
O22 P2 1.535004 1_455
O22 Sn2 2.026183 1_555
O23 P0 1.535004 1_545
O23 Sn2 2.026183 1_555
