# generated using pymatgen
data_TiCo5O12
_symmetry_space_group_name_H-M   'P 1'
_cell_length_a   4.94651997
_cell_length_b   4.95256191
_cell_length_c   19.50329255
_cell_angle_alpha   89.96643148
_cell_angle_beta   89.97619633
_cell_angle_gamma   119.95796815
_symmetry_Int_Tables_number   1
_chemical_formula_structural   TiCo5O12
_chemical_formula_sum   'Ti2 Co10 O24'
_cell_volume   413.95374217
_cell_formula_units_Z   2
loop_
 _symmetry_equiv_pos_site_id
 _symmetry_equiv_pos_as_xyz
  1  'x, y, z'
loop_
 _atom_site_type_symbol
 _atom_site_label
 _atom_site_symmetry_multiplicity
 _atom_site_fract_x
 _atom_site_fract_y
 _atom_site_fract_z
 _atom_site_occupancy
  Ti  Ti0  1  0.00006000  0.00004000  0.99976100  1
  Ti  Ti1  1  0.99994700  0.99998900  0.50007400  1
  Co  Co0  1  0.50000900  0.99999000  0.25002000  1
  Co  Co1  1  0.50001400  0.99997400  0.74999300  1
  Co  Co2  1  0.83332300  0.66660100  0.74999300  1
  Co  Co3  1  0.16668500  0.33334200  0.25001900  1
  Co  Co4  1  0.16669400  0.33335200  0.74999100  1
  Co  Co5  1  0.83332000  0.66661600  0.25002000  1
  Co  Co6  1  0.33343100  0.66677400  0.00010600  1
  Co  Co7  1  0.33328500  0.66674400  0.49993200  1
  Co  Co8  1  0.66654900  0.33323000  0.49993300  1
  Co  Co9  1  0.66670500  0.33333800  0.00010500  1
  O  O0  1  0.16577600  0.99929500  0.29766500  1
  O  O1  1  0.16621300  0.99976100  0.79787800  1
  O  O2  1  0.83374200  0.99970000  0.20237700  1
  O  O3  1  0.83378600  0.00018200  0.70210600  1
  O  O4  1  0.34488400  0.99984900  0.05020000  1
  O  O5  1  0.34496200  0.99973300  0.55017800  1
  O  O6  1  0.65501900  0.00023300  0.44979600  1
  O  O7  1  0.65495000  0.00026700  0.94983100  1
  O  O8  1  0.65517100  0.65511100  0.05015500  1
  O  O9  1  0.65477100  0.65488400  0.55009400  1
  O  O10  1  0.00017800  0.65544200  0.44983900  1
  O  O11  1  0.00023500  0.65523500  0.94988800  1
  O  O12  1  0.99991400  0.34456900  0.05015200  1
  O  O13  1  0.99961900  0.34466100  0.55010100  1
  O  O14  1  0.34489300  0.34495900  0.44984100  1
  O  O15  1  0.34527800  0.34530600  0.94989200  1
  O  O16  1  0.50058000  0.33384200  0.20248800  1
  O  O17  1  0.50012400  0.33336300  0.70221200  1
  O  O18  1  0.16652200  0.66703400  0.20249100  1
  O  O19  1  0.16693100  0.66700700  0.70220900  1
  O  O20  1  0.83308500  0.33342100  0.29755400  1
  O  O21  1  0.83309500  0.33293400  0.79777700  1
  O  O22  1  0.50033200  0.66661700  0.29755100  1
  O  O23  1  0.49991400  0.66660700  0.79777600  1
loop_
_geom_bond_atom_site_label_1
_geom_bond_atom_site_label_2
_geom_bond_distance
_geom_bond_site_symmetry_2
Co0 O18 1.893664 1_555
Co0 O22 1.893716 1_555
Co0 O20 1.893854 1_565
Co0 O16 1.893868 1_565
Co0 O2 1.894650 1_555
Co0 O0 1.894701 1_555
Co1 O23 1.895188 1_555
Co1 O21 1.895242 1_565
Co1 O17 1.895242 1_565
Co1 O19 1.895261 1_555
Co1 O3 1.896081 1_565
Co1 O1 1.896176 1_555
Co2 O19 1.893961 1_655
Co2 O23 1.893981 1_555
Co2 O17 1.896068 1_555
Co2 O21 1.896216 1_555
Co2 O1 1.896235 1_655
Co2 O3 1.896327 1_565
Co3 O16 1.892575 1_555
Co3 O20 1.892589 1_455
Co3 O18 1.894720 1_555
Co3 O22 1.894727 1_555
Co3 O2 1.895060 1_445
Co3 O0 1.895073 1_545
Co4 O21 1.893915 1_455
Co4 O17 1.893997 1_555
Co4 O19 1.896126 1_555
Co4 O23 1.896188 1_555
Co4 O3 1.896295 1_455
Co4 O1 1.896332 1_545
Co5 O22 1.889744 1_555
Co5 O18 1.889744 1_655
Co5 O16 1.891688 1_555
Co5 O20 1.891774 1_555
Co5 O2 1.891934 1_555
Co5 O0 1.891955 1_655
Co6 O8 1.892626 1_555
Co6 O11 1.893751 1_554
Co6 O4 1.894052 1_555
Co6 O12 1.894298 1_455
Co6 O7 1.895285 1_564
Co6 O15 1.895323 1_554
Co7 O10 1.892589 1_555
Co7 O9 1.893128 1_555
Co7 O6 1.894308 1_565
Co7 O5 1.894772 1_555
Co7 O14 1.894895 1_555
Co7 O13 1.895619 1_455
Co8 O14 1.892850 1_555
Co8 O13 1.892930 1_555
Co8 O6 1.894000 1_555
Co8 O10 1.895043 1_655
Co8 O5 1.895128 1_545
Co8 O9 1.895423 1_555
Co9 O12 1.892700 1_555
Co9 O15 1.893634 1_554
Co9 O4 1.894070 1_545
Co9 O8 1.894267 1_555
Co9 O7 1.895246 1_554
Co9 O11 1.895425 1_654
O4 Ti0 1.969788 1_564
O5 Ti1 1.967490 1_455
O6 Ti1 1.968780 1_545
O7 Ti0 1.966151 1_655
O8 Ti0 1.969942 1_664
O9 Ti1 1.967314 1_555
O10 Ti1 1.968649 1_455
O11 Ti0 1.966132 1_565
O12 Ti0 1.969908 1_654
O13 Ti1 1.967377 1_545
O14 Ti1 1.968590 1_445
O15 Ti0 1.966295 1_555
