# generated using pymatgen
data_Li4Fe7O12
_symmetry_space_group_name_H-M   'P 1'
_cell_length_a   9.01641300
_cell_length_b   5.18540800
_cell_length_c   9.83936393
_cell_angle_alpha   79.23901606
_cell_angle_beta   90.00000000
_cell_angle_gamma   90.00000000
_symmetry_Int_Tables_number   1
_chemical_formula_structural   Li4Fe7O12
_chemical_formula_sum   'Li8 Fe14 O24'
_cell_volume   451.93770098
_cell_formula_units_Z   2
loop_
 _symmetry_equiv_pos_site_id
 _symmetry_equiv_pos_as_xyz
  1  'x, y, z'
loop_
 _atom_site_type_symbol
 _atom_site_label
 _atom_site_symmetry_multiplicity
 _atom_site_fract_x
 _atom_site_fract_y
 _atom_site_fract_z
 _atom_site_occupancy
  Li  Li0  1  0.91625800  0.00428200  0.74442800  1
  Li  Li1  1  0.92018200  0.49180200  0.25828300  1
  Li  Li2  1  0.58236900  0.75731500  0.50315800  1
  Li  Li3  1  0.58337500  0.49672400  0.25556600  1
  Li  Li4  1  0.41625800  0.99571800  0.25557200  1
  Li  Li5  1  0.42018200  0.50819800  0.74171700  1
  Li  Li6  1  0.08236900  0.24268500  0.49684200  1
  Li  Li7  1  0.08337500  0.50327600  0.74443400  1
  Fe  Fe0  1  0.92052700  0.25280800  0.00406700  1
  Fe  Fe1  1  0.74773300  0.23854200  0.50732500  1
  Fe  Fe2  1  0.92365600  0.74893000  0.49564800  1
  Fe  Fe3  1  0.75145900  0.98908900  0.25714600  1
  Fe  Fe4  1  0.74700700  0.75500200  0.99239200  1
  Fe  Fe5  1  0.57829900  0.24215500  0.99674600  1
  Fe  Fe6  1  0.74179400  0.51331400  0.74150200  1
  Fe  Fe7  1  0.42365600  0.25107000  0.50435200  1
  Fe  Fe8  1  0.24700700  0.24499800  0.00760800  1
  Fe  Fe9  1  0.42052700  0.74719200  0.99593300  1
  Fe  Fe10  1  0.25145900  0.01091100  0.74285400  1
  Fe  Fe11  1  0.24773300  0.76145800  0.49267500  1
  Fe  Fe12  1  0.24179400  0.48668600  0.25849800  1
  Fe  Fe13  1  0.07829900  0.75784500  0.00325400  1
  O  O0  1  0.89770000  0.11454200  0.38165800  1
  O  O1  1  0.91063200  0.88840000  0.11550500  1
  O  O2  1  0.76673100  0.86485400  0.62106300  1
  O  O3  1  0.75629300  0.15595300  0.88177100  1
  O  O4  1  0.90173400  0.38790000  0.62323000  1
  O  O5  1  0.91976700  0.61221600  0.87950300  1
  O  O6  1  0.59095500  0.12860300  0.38205000  1
  O  O7  1  0.76021100  0.63353800  0.37276300  1
  O  O8  1  0.58137900  0.88319900  0.12198100  1
  O  O9  1  0.74878800  0.35066200  0.12197200  1
  O  O10  1  0.58051600  0.60109800  0.87925600  1
  O  O11  1  0.59058700  0.38914900  0.61493900  1
  O  O12  1  0.39770000  0.88545800  0.61834200  1
  O  O13  1  0.41063200  0.11160000  0.88449500  1
  O  O14  1  0.26673100  0.13514600  0.37893700  1
  O  O15  1  0.40173400  0.61210000  0.37677000  1
  O  O16  1  0.25629300  0.84404700  0.11822900  1
  O  O17  1  0.41976700  0.38778400  0.12049700  1
  O  O18  1  0.26021100  0.36646200  0.62723700  1
  O  O19  1  0.24878800  0.64933800  0.87802800  1
  O  O20  1  0.08137900  0.11680100  0.87801900  1
  O  O21  1  0.09095500  0.87139700  0.61795000  1
  O  O22  1  0.09058700  0.61085100  0.38506100  1
  O  O23  1  0.08051600  0.39890200  0.12074400  1
loop_
_geom_bond_atom_site_label_1
_geom_bond_atom_site_label_2
_geom_bond_distance
_geom_bond_site_symmetry_2
Li0 O2 2.035057 1_545
Li0 O4 2.123767 1_555
Li0 O20 2.138016 1_655
Li0 O21 2.196538 1_645
Li0 O5 2.211689 1_545
Li0 O3 2.218531 1_555
Li1 O7 2.049031 1_555
Li1 O23 2.096850 1_655
Li1 O0 2.110647 1_555
Li1 O22 2.141339 1_655
Li1 O9 2.255919 1_555
Li1 O1 2.265266 1_555
Li2 O11 2.018839 1_555
Li2 O6 2.067837 1_565
Li2 O2 2.159068 1_555
Li2 O12 2.186228 1_555
Li2 O7 2.221882 1_555
Li2 O15 2.261807 1_555
Li3 O6 2.076085 1_555
Li3 O17 2.131143 1_555
Li3 O7 2.163499 1_555
Li3 O15 2.174583 1_555
Li3 O8 2.181847 1_555
Li3 O9 2.213061 1_555
Li4 O14 2.035057 1_565
Li4 O15 2.123767 1_555
Li4 O8 2.138016 1_555
Li4 O6 2.196538 1_565
Li4 O17 2.211689 1_565
Li4 O16 2.218531 1_555
Li5 O18 2.049031 1_555
Li5 O10 2.096850 1_555
Li5 O12 2.110647 1_555
Li5 O11 2.141339 1_555
Li5 O19 2.255919 1_555
Li5 O13 2.265266 1_555
Li6 O22 2.018839 1_555
Li6 O21 2.067837 1_545
Li6 O14 2.159068 1_555
Li6 O0 2.186228 1_455
Li6 O18 2.221882 1_555
Li6 O4 2.261807 1_455
Li7 O21 2.076085 1_555
Li7 O5 2.131143 1_455
Li7 O18 2.163499 1_555
Li7 O4 2.174583 1_455
Li7 O20 2.181847 1_555
Li7 O19 2.213061 1_555
Fe0 O1 2.001781 1_545
Fe0 O3 2.029447 1_554
Fe0 O5 2.030404 1_554
Fe0 O9 2.054483 1_555
Fe0 O23 2.073044 1_655
Fe0 O20 2.113191 1_654
Fe1 O11 2.011827 1_555
Fe1 O0 2.016821 1_555
Fe1 O6 2.026069 1_555
Fe1 O4 2.039183 1_555
Fe1 O2 2.055905 1_545
Fe1 O7 2.224446 1_555
Fe2 O0 2.028037 1_565
Fe2 O2 2.040354 1_555
Fe2 O4 2.059623 1_555
Fe2 O22 2.062264 1_655
Fe2 O7 2.064436 1_555
Fe2 O21 2.100509 1_655
Fe3 O7 1.978963 1_555
Fe3 O0 1.990058 1_565
Fe3 O9 2.086532 1_565
Fe3 O6 2.111883 1_565
Fe3 O1 2.132209 1_555
Fe3 O8 2.166697 1_555
Fe4 O1 2.106015 1_556
Fe4 O10 2.112173 1_555
Fe4 O5 2.124956 1_555
Fe4 O8 2.148112 1_556
Fe4 O3 2.160856 1_565
Fe4 O9 2.241342 1_556
Fe5 O10 1.999405 1_555
Fe5 O8 2.031562 1_546
Fe5 O13 2.059804 1_555
Fe5 O3 2.060104 1_555
Fe5 O17 2.106985 1_556
Fe5 O9 2.111072 1_556
Fe6 O2 1.992762 1_555
Fe6 O11 2.030621 1_555
Fe6 O4 2.034547 1_555
Fe6 O10 2.095063 1_555
Fe6 O3 2.097791 1_555
Fe6 O5 2.223011 1_555
Fe7 O12 2.028037 1_545
Fe7 O14 2.040354 1_555
Fe7 O15 2.059623 1_555
Fe7 O11 2.062264 1_555
Fe7 O18 2.064436 1_555
Fe7 O6 2.100509 1_555
Fe8 O13 2.106015 1_554
Fe8 O23 2.112173 1_555
Fe8 O17 2.124956 1_555
Fe8 O20 2.148112 1_554
Fe8 O16 2.160856 1_545
Fe8 O19 2.241342 1_554
Fe9 O13 2.001781 1_565
Fe9 O16 2.029447 1_556
Fe9 O17 2.030404 1_556
Fe9 O19 2.054483 1_555
Fe9 O10 2.073044 1_555
Fe9 O8 2.113191 1_556
Fe10 O18 1.978963 1_555
Fe10 O12 1.990058 1_545
Fe10 O19 2.086532 1_545
Fe10 O21 2.111883 1_545
Fe10 O13 2.132209 1_555
Fe10 O20 2.166697 1_555
Fe11 O22 2.011827 1_555
Fe11 O12 2.016821 1_555
Fe11 O21 2.026069 1_555
Fe11 O15 2.039183 1_555
Fe11 O14 2.055905 1_565
Fe11 O18 2.224446 1_555
Fe12 O14 1.992762 1_555
Fe12 O22 2.030621 1_555
Fe12 O15 2.034547 1_555
Fe12 O23 2.095063 1_555
Fe12 O16 2.097791 1_555
Fe12 O17 2.223011 1_555
Fe13 O23 1.999405 1_555
Fe13 O20 2.031562 1_564
Fe13 O1 2.059804 1_455
Fe13 O16 2.060104 1_555
Fe13 O5 2.106985 1_454
Fe13 O19 2.111072 1_554
