# generated using pymatgen
data_Li3Cr4P2O8F9
_symmetry_space_group_name_H-M   'P 1'
_cell_length_a   14.37121000
_cell_length_b   6.94415800
_cell_length_c   7.16433843
_cell_angle_alpha   76.45030662
_cell_angle_beta   90.00000000
_cell_angle_gamma   90.00000000
_symmetry_Int_Tables_number   1
_chemical_formula_structural   Li3Cr4P2O8F9
_chemical_formula_sum   'Li6 Cr8 P4 O16 F18'
_cell_volume   695.07222535
_cell_formula_units_Z   2
loop_
 _symmetry_equiv_pos_site_id
 _symmetry_equiv_pos_as_xyz
  1  'x, y, z'
loop_
 _atom_site_type_symbol
 _atom_site_label
 _atom_site_symmetry_multiplicity
 _atom_site_fract_x
 _atom_site_fract_y
 _atom_site_fract_z
 _atom_site_occupancy
  Li  Li0  1  0.75000000  0.03252400  0.44617500  1
  Li  Li1  1  0.50489700  0.78457600  0.67598400  1
  Li  Li2  1  0.99510300  0.78457600  0.67598400  1
  Li  Li3  1  0.49510300  0.21542400  0.32401600  1
  Li  Li4  1  0.00489700  0.21542400  0.32401600  1
  Li  Li5  1  0.25000000  0.96747600  0.55382500  1
  Cr  Cr0  1  0.75000000  0.96287700  0.06680000  1
  Cr  Cr1  1  0.25000000  0.52516000  0.93175600  1
  Cr  Cr2  1  0.38127500  0.68986000  0.31278200  1
  Cr  Cr3  1  0.11872500  0.68986000  0.31278200  1
  Cr  Cr4  1  0.88127500  0.31014000  0.68721800  1
  Cr  Cr5  1  0.61872500  0.31014000  0.68721800  1
  Cr  Cr6  1  0.75000000  0.47484000  0.06824400  1
  Cr  Cr7  1  0.25000000  0.03712300  0.93320000  1
  P  P0  1  0.89917700  0.66741600  0.31385300  1
  P  P1  1  0.60082300  0.66741600  0.31385300  1
  P  P2  1  0.10082300  0.33258400  0.68614700  1
  P  P3  1  0.39917700  0.33258400  0.68614700  1
  O  O0  1  0.84092700  0.86101300  0.27481300  1
  O  O1  1  0.65907300  0.86101300  0.27481300  1
  O  O2  1  0.50656800  0.71665200  0.21121300  1
  O  O3  1  0.99343200  0.71665200  0.21121300  1
  O  O4  1  0.35236000  0.49916300  0.76071500  1
  O  O5  1  0.14764000  0.49916300  0.76071500  1
  O  O6  1  0.91190200  0.59272500  0.53576300  1
  O  O7  1  0.58809800  0.59272500  0.53576300  1
  O  O8  1  0.08809800  0.40727500  0.46423700  1
  O  O9  1  0.41190200  0.40727500  0.46423700  1
  O  O10  1  0.85236000  0.50083700  0.23928500  1
  O  O11  1  0.64764000  0.50083700  0.23928500  1
  O  O12  1  0.49343200  0.28334800  0.78878700  1
  O  O13  1  0.00656800  0.28334800  0.78878700  1
  O  O14  1  0.34092700  0.13898700  0.72518700  1
  O  O15  1  0.15907300  0.13898700  0.72518700  1
  F  F0  1  0.25000000  0.80905600  0.81613600  1
  F  F1  1  0.75000000  0.74900700  0.93982700  1
  F  F2  1  0.41331100  0.86440400  0.48489000  1
  F  F3  1  0.08668900  0.86440400  0.48489000  1
  F  F4  1  0.34900400  0.93806600  0.12216000  1
  F  F5  1  0.15099600  0.93806600  0.12216000  1
  F  F6  1  0.25000000  0.70288500  0.40735300  1
  F  F7  1  0.84714100  0.44845500  0.88405500  1
  F  F8  1  0.65285900  0.44845500  0.88405500  1
  F  F9  1  0.34714100  0.55154500  0.11594500  1
  F  F10  1  0.15285900  0.55154500  0.11594500  1
  F  F11  1  0.75000000  0.29711500  0.59264700  1
  F  F12  1  0.84900400  0.06193400  0.87784000  1
  F  F13  1  0.65099600  0.06193400  0.87784000  1
  F  F14  1  0.91331100  0.13559600  0.51511000  1
  F  F15  1  0.58668900  0.13559600  0.51511000  1
  F  F16  1  0.25000000  0.25099300  0.06017300  1
  F  F17  1  0.75000000  0.19094400  0.18386400  1
loop_
_geom_bond_atom_site_label_1
_geom_bond_atom_site_label_2
_geom_bond_distance
_geom_bond_site_symmetry_2
Li0 O0 2.306167 1_545
Li0 O1 2.306167 1_545
Li1 O7 2.200204 1_555
Li2 O6 2.200204 1_555
Li3 O9 2.200204 1_555
Li4 O8 2.200204 1_555
Li5 O14 2.306167 1_565
Li5 O15 2.306167 1_565
Cr0 F1 1.914739 1_554
Cr0 F17 1.958059 1_565
Cr0 F12 1.973296 1_564
Cr0 F13 1.973296 1_564
Cr0 O0 1.983650 1_555
Cr0 O1 1.983650 1_555
Cr1 F16 1.910593 1_556
Cr1 O5 1.949818 1_555
Cr1 O4 1.949818 1_555
Cr1 F0 1.951269 1_555
Cr1 F9 1.958851 1_556
Cr1 F10 1.958851 1_556
Cr2 O2 1.934655 1_555
Cr2 F9 1.945899 1_555
Cr2 F2 1.975283 1_555
Cr2 F4 1.986942 1_555
Cr2 F6 2.013738 1_555
Cr2 O9 2.055255 1_555
Cr3 O3 1.934655 1_455
Cr3 F10 1.945899 1_555
Cr3 F3 1.975283 1_555
Cr3 F5 1.986942 1_555
Cr3 F6 2.013738 1_555
Cr3 O8 2.055255 1_555
Cr4 O13 1.934655 1_655
Cr4 F7 1.945899 1_555
Cr4 F14 1.975283 1_555
Cr4 F12 1.986942 1_555
Cr4 F11 2.013738 1_555
Cr4 O6 2.055255 1_555
Cr5 O12 1.934655 1_555
Cr5 F8 1.945899 1_555
Cr5 F15 1.975283 1_555
Cr5 F13 1.986942 1_555
Cr5 F11 2.013738 1_555
Cr5 O7 2.055255 1_555
Cr6 F1 1.910593 1_554
Cr6 O11 1.949818 1_555
Cr6 O10 1.949818 1_555
Cr6 F17 1.951269 1_555
Cr6 F7 1.958851 1_554
Cr6 F8 1.958851 1_554
Cr7 F16 1.914739 1_556
Cr7 F0 1.958059 1_545
Cr7 F4 1.973296 1_546
Cr7 F5 1.973296 1_546
Cr7 O14 1.983650 1_555
Cr7 O15 1.983650 1_555
O0 P0 1.552462 1_555
O1 P1 1.552462 1_555
O2 P1 1.540991 1_555
O3 P0 1.540991 1_555
O4 P3 1.538091 1_555
O5 P2 1.538091 1_555
O6 P0 1.563220 1_555
O7 P1 1.563220 1_555
O8 P2 1.563220 1_555
O9 P3 1.563220 1_555
O10 P0 1.538091 1_555
O11 P1 1.538091 1_555
O12 P3 1.540991 1_555
O13 P2 1.540991 1_555
O14 P3 1.552462 1_555
O15 P2 1.552462 1_555
F0 Li5 1.942469 1_555
F2 Li1 1.886371 1_555
F2 Li5 2.535773 1_555
F3 Li2 1.886371 1_455
F3 Li5 2.535773 1_555
F6 Li5 2.319599 1_555
F11 Li0 2.319599 1_555
F14 Li4 1.886371 1_655
F14 Li0 2.535773 1_555
F15 Li3 1.886371 1_555
F15 Li0 2.535773 1_555
F17 Li0 1.942469 1_555
