# generated using pymatgen
data_Li3Fe(BO3)2
_symmetry_space_group_name_H-M   'P 1'
_cell_length_a   6.37590700
_cell_length_b   8.17763700
_cell_length_c   9.82683781
_cell_angle_alpha   63.18306379
_cell_angle_beta   90.00000000
_cell_angle_gamma   90.00000000
_symmetry_Int_Tables_number   1
_chemical_formula_structural   Li3Fe(BO3)2
_chemical_formula_sum   'Li12 Fe4 B8 O24'
_cell_volume   457.26578078
_cell_formula_units_Z   4
loop_
 _symmetry_equiv_pos_site_id
 _symmetry_equiv_pos_as_xyz
  1  'x, y, z'
loop_
 _atom_site_type_symbol
 _atom_site_label
 _atom_site_symmetry_multiplicity
 _atom_site_fract_x
 _atom_site_fract_y
 _atom_site_fract_z
 _atom_site_occupancy
  Li  Li0  1  0.25338600  0.42407000  0.98224900  1
  Li  Li1  1  0.94973500  0.27031300  0.17755600  1
  Li  Li2  1  0.75338600  0.57593000  0.51775100  1
  Li  Li3  1  0.72275000  0.16293500  0.03428000  1
  Li  Li4  1  0.55026500  0.27031300  0.67755600  1
  Li  Li5  1  0.22275000  0.83706500  0.46572000  1
  Li  Li6  1  0.77725000  0.16293500  0.53428000  1
  Li  Li7  1  0.44973500  0.72968700  0.32244400  1
  Li  Li8  1  0.27725000  0.83706500  0.96572000  1
  Li  Li9  1  0.24661400  0.42407000  0.48224900  1
  Li  Li10  1  0.05026500  0.72968700  0.82244400  1
  Li  Li11  1  0.74661400  0.57593000  0.01775100  1
  Fe  Fe0  1  0.45848300  0.18275700  0.31990300  1
  Fe  Fe1  1  0.04151700  0.18275700  0.81990300  1
  Fe  Fe2  1  0.95848300  0.81724300  0.18009700  1
  Fe  Fe3  1  0.54151700  0.81724300  0.68009700  1
  B  B0  1  0.34175800  0.53845800  0.68652600  1
  B  B1  1  0.84175800  0.46154200  0.81347400  1
  B  B2  1  0.83255500  0.92628100  0.38418600  1
  B  B3  1  0.33255500  0.07371900  0.11581400  1
  B  B4  1  0.66744500  0.92628100  0.88418600  1
  B  B5  1  0.16744500  0.07371900  0.61581400  1
  B  B6  1  0.15824200  0.53845800  0.18652600  1
  B  B7  1  0.65824200  0.46154200  0.31347400  1
  O  O0  1  0.78107100  0.63715100  0.78251400  1
  O  O1  1  0.30596300  0.62310700  0.77919400  1
  O  O2  1  0.45312800  0.64783600  0.55369600  1
  O  O3  1  0.95312800  0.35216400  0.94630400  1
  O  O4  1  0.80596300  0.37689300  0.72080600  1
  O  O5  1  0.69539300  0.99138300  0.45976600  1
  O  O6  1  0.44787300  0.22923900  0.04785400  1
  O  O7  1  0.28107100  0.36284900  0.71748600  1
  O  O8  1  0.85204500  0.02231800  0.22606100  1
  O  O9  1  0.35204500  0.97768200  0.27393900  1
  O  O10  1  0.94787300  0.77076100  0.45214600  1
  O  O11  1  0.19539300  0.00861700  0.04023400  1
  O  O12  1  0.80460700  0.99138300  0.95976600  1
  O  O13  1  0.05212700  0.22923900  0.54785400  1
  O  O14  1  0.64795500  0.02231800  0.72606100  1
  O  O15  1  0.14795500  0.97768200  0.77393900  1
  O  O16  1  0.71892900  0.63715100  0.28251400  1
  O  O17  1  0.55212700  0.77076100  0.95214600  1
  O  O18  1  0.30460700  0.00861700  0.54023400  1
  O  O19  1  0.19403700  0.62310700  0.27919400  1
  O  O20  1  0.04687200  0.64783600  0.05369600  1
  O  O21  1  0.54687200  0.35216400  0.44630400  1
  O  O22  1  0.69403700  0.37689300  0.22080600  1
  O  O23  1  0.21892900  0.36284900  0.21748600  1
loop_
_geom_bond_atom_site_label_1
_geom_bond_atom_site_label_2
_geom_bond_distance
_geom_bond_site_symmetry_2
Li0 O6 1.888117 1_556
Li0 O1 1.952632 1_555
Li0 O3 2.079168 1_455
Li0 O23 2.144377 1_556
Li1 O8 1.963618 1_555
Li1 O22 1.983029 1_555
Li1 O23 1.985042 1_655
Li1 O3 2.059175 1_554
Li2 O10 1.888117 1_555
Li2 O4 1.952632 1_555
Li2 O2 2.079168 1_555
Li2 O16 2.144377 1_555
Li3 O6 1.857045 1_555
Li3 O8 1.896906 1_555
Li3 O12 1.924456 1_544
Li3 O3 2.022990 1_554
Li4 O14 1.963618 1_555
Li4 O4 1.983029 1_555
Li4 O7 1.985042 1_555
Li4 O21 2.059175 1_555
Li5 O10 1.857045 1_455
Li5 O9 1.896906 1_555
Li5 O18 1.924456 1_565
Li5 O2 2.022990 1_555
Li6 O13 1.857045 1_655
Li6 O14 1.896906 1_555
Li6 O5 1.924456 1_545
Li6 O21 2.022990 1_555
Li7 O9 1.963618 1_555
Li7 O19 1.983029 1_555
Li7 O16 1.985042 1_555
Li7 O2 2.059175 1_555
Li8 O17 1.857045 1_555
Li8 O15 1.896906 1_555
Li8 O11 1.924456 1_566
Li8 O20 2.022990 1_556
Li9 O13 1.888117 1_555
Li9 O19 1.952632 1_555
Li9 O21 2.079168 1_555
Li9 O7 2.144377 1_555
Li10 O15 1.963618 1_555
Li10 O1 1.983029 1_555
Li10 O0 1.985042 1_455
Li10 O20 2.059175 1_556
Li11 O17 1.888117 1_554
Li11 O22 1.952632 1_555
Li11 O20 2.079168 1_655
Li11 O0 2.144377 1_554
Fe0 O9 2.039719 1_545
Fe0 O23 2.043854 1_555
Fe0 O22 2.080718 1_555
Fe0 O5 2.163122 1_545
Fe0 O18 2.212777 1_555
Fe0 O21 2.309174 1_555
Fe0 O6 2.525696 1_555
Fe1 O15 2.039719 1_545
Fe1 O7 2.043854 1_555
Fe1 O4 2.080718 1_455
Fe1 O12 2.163122 1_445
Fe1 O11 2.212777 1_556
Fe1 O3 2.309174 1_455
Fe1 O13 2.525696 1_555
Fe2 O8 2.039719 1_565
Fe2 O16 2.043854 1_555
Fe2 O19 2.080718 1_655
Fe2 O11 2.163122 1_665
Fe2 O12 2.212777 1_554
Fe2 O20 2.309174 1_655
Fe2 O10 2.525696 1_555
Fe3 O14 2.039719 1_565
Fe3 O0 2.043854 1_555
Fe3 O1 2.080718 1_555
Fe3 O18 2.163122 1_565
Fe3 O5 2.212777 1_555
Fe3 O2 2.309174 1_555
Fe3 O17 2.525696 1_555
B0 O7 1.382155 1_555
B0 O1 1.388989 1_555
B0 O2 1.398081 1_555
B1 O0 1.382155 1_555
B1 O4 1.388989 1_555
B1 O3 1.398081 1_555
B2 O10 1.355617 1_555
B2 O8 1.394863 1_565
B2 O5 1.398794 1_555
B3 O6 1.355617 1_555
B3 O9 1.394863 1_545
B3 O11 1.398794 1_555
B4 O17 1.355617 1_555
B4 O14 1.394863 1_565
B4 O12 1.398794 1_555
B5 O13 1.355617 1_555
B5 O15 1.394863 1_545
B5 O18 1.398794 1_555
B6 O23 1.382155 1_555
B6 O19 1.388989 1_555
B6 O20 1.398081 1_555
B7 O16 1.382155 1_555
B7 O22 1.388989 1_555
B7 O21 1.398081 1_555
