# generated using pymatgen
data_Fe(PO3)3
_symmetry_space_group_name_H-M   'P 1'
_cell_length_a   6.37030600
_cell_length_b   9.95154800
_cell_length_c   10.99601900
_cell_angle_alpha   90.00000000
_cell_angle_beta   90.00000000
_cell_angle_gamma   90.00000000
_symmetry_Int_Tables_number   1
_chemical_formula_structural   Fe(PO3)3
_chemical_formula_sum   'Fe4 P12 O36'
_cell_volume   697.08609214
_cell_formula_units_Z   4
loop_
 _symmetry_equiv_pos_site_id
 _symmetry_equiv_pos_as_xyz
  1  'x, y, z'
loop_
 _atom_site_type_symbol
 _atom_site_label
 _atom_site_symmetry_multiplicity
 _atom_site_fract_x
 _atom_site_fract_y
 _atom_site_fract_z
 _atom_site_occupancy
  Fe  Fe0  1  0.00000000  0.00000000  0.00000000  1
  Fe  Fe1  1  0.50000000  0.00000000  0.50000000  1
  Fe  Fe2  1  0.00000000  0.50000000  0.50000000  1
  Fe  Fe3  1  0.50000000  0.50000000  0.00000000  1
  P  P0  1  0.75000000  0.91866400  0.75000000  1
  P  P1  1  0.36276500  0.78935500  0.86607200  1
  P  P2  1  0.13723500  0.78935500  0.63392800  1
  P  P3  1  0.86276500  0.71064500  0.13392800  1
  P  P4  1  0.63723500  0.71064500  0.36607200  1
  P  P5  1  0.25000000  0.58133600  0.25000000  1
  P  P6  1  0.75000000  0.41866400  0.75000000  1
  P  P7  1  0.36276500  0.28935500  0.63392800  1
  P  P8  1  0.13723500  0.28935500  0.86607200  1
  P  P9  1  0.63723500  0.21064500  0.13392800  1
  P  P10  1  0.86276500  0.21064500  0.36607200  1
  P  P11  1  0.25000000  0.08133600  0.25000000  1
  O  O0  1  0.15012700  0.99689800  0.15335600  1
  O  O1  1  0.34987300  0.99689800  0.34664400  1
  O  O2  1  0.24273200  0.91780300  0.59731200  1
  O  O3  1  0.25726800  0.91780300  0.90268800  1
  O  O4  1  0.61406500  0.81634500  0.46286600  1
  O  O5  1  0.88593500  0.81634500  0.03713400  1
  O  O6  1  0.59210200  0.81465500  0.80994000  1
  O  O7  1  0.90789800  0.81465500  0.69006000  1
  O  O8  1  0.75000000  0.77953200  0.25000000  1
  O  O9  1  0.25000000  0.72046800  0.75000000  1
  O  O10  1  0.09210200  0.68534500  0.19006000  1
  O  O11  1  0.40789800  0.68534500  0.30994000  1
  O  O12  1  0.11406500  0.68365500  0.53713400  1
  O  O13  1  0.38593500  0.68365500  0.96286600  1
  O  O14  1  0.75726800  0.58219700  0.09731200  1
  O  O15  1  0.74273200  0.58219700  0.40268800  1
  O  O16  1  0.84987300  0.50310200  0.65335600  1
  O  O17  1  0.65012700  0.50310200  0.84664400  1
  O  O18  1  0.34987300  0.49689800  0.15335600  1
  O  O19  1  0.15012700  0.49689800  0.34664400  1
  O  O20  1  0.25726800  0.41780300  0.59731200  1
  O  O21  1  0.24273200  0.41780300  0.90268800  1
  O  O22  1  0.61406500  0.31634500  0.03713400  1
  O  O23  1  0.88593500  0.31634500  0.46286600  1
  O  O24  1  0.59210200  0.31465500  0.69006000  1
  O  O25  1  0.90789800  0.31465500  0.80994000  1
  O  O26  1  0.75000000  0.27953200  0.25000000  1
  O  O27  1  0.25000000  0.22046800  0.75000000  1
  O  O28  1  0.40789800  0.18534500  0.19006000  1
  O  O29  1  0.09210200  0.18534500  0.30994000  1
  O  O30  1  0.38593500  0.18365500  0.53713400  1
  O  O31  1  0.11406500  0.18365500  0.96286600  1
  O  O32  1  0.74273200  0.08219700  0.09731200  1
  O  O33  1  0.75726800  0.08219700  0.40268800  1
  O  O34  1  0.65012700  0.00310200  0.65335600  1
  O  O35  1  0.84987300  0.00310200  0.84664400  1
loop_
_geom_bond_atom_site_label_1
_geom_bond_atom_site_label_2
_geom_bond_distance
_geom_bond_site_symmetry_2
Fe0 O0 1.938864 1_545
Fe0 O35 1.938864 1_454
Fe0 O5 2.008738 1_445
Fe0 O31 2.008738 1_554
Fe0 O3 2.121323 1_544
Fe0 O32 2.121323 1_455
Fe1 O1 1.938864 1_545
Fe1 O34 1.938864 1_555
Fe1 O4 2.008738 1_545
Fe1 O30 2.008738 1_555
Fe1 O2 2.121323 1_545
Fe1 O33 2.121323 1_555
Fe2 O19 1.938864 1_555
Fe2 O16 1.938864 1_455
Fe2 O23 2.008738 1_455
Fe2 O12 2.008738 1_555
Fe2 O20 2.121323 1_555
Fe2 O15 2.121323 1_455
Fe3 O18 1.938864 1_555
Fe3 O17 1.938864 1_554
Fe3 O22 2.008738 1_555
Fe3 O13 2.008738 1_554
Fe3 O21 2.121323 1_554
Fe3 O14 2.121323 1_555
O0 P11 1.496727 1_565
O1 P11 1.496727 1_565
O2 P2 1.499233 1_555
O3 P1 1.499233 1_555
O4 P4 1.503686 1_555
O5 P3 1.503686 1_555
O6 P0 1.586662 1_555
O6 P1 1.605842 1_555
O7 P0 1.586662 1_555
O7 P2 1.605842 1_655
O8 P4 1.617095 1_555
O8 P3 1.617095 1_555
O9 P1 1.617095 1_555
O9 P2 1.617095 1_555
O10 P5 1.586662 1_555
O10 P3 1.605842 1_455
O11 P5 1.586662 1_555
O11 P4 1.605842 1_555
O12 P2 1.503686 1_555
O13 P1 1.503686 1_555
O14 P3 1.499233 1_555
O15 P4 1.499233 1_555
O16 P6 1.496727 1_555
O17 P6 1.496727 1_555
O18 P5 1.496727 1_555
O19 P5 1.496727 1_555
O20 P7 1.499233 1_555
O21 P8 1.499233 1_555
O22 P9 1.503686 1_555
O23 P10 1.503686 1_555
O24 P6 1.586662 1_555
O24 P7 1.605842 1_555
O25 P6 1.586662 1_555
O25 P8 1.605842 1_655
O26 P10 1.617095 1_555
O26 P9 1.617095 1_555
O27 P7 1.617095 1_555
O27 P8 1.617095 1_555
O28 P11 1.586662 1_555
O28 P9 1.605842 1_555
O29 P11 1.586662 1_555
O29 P10 1.605842 1_455
O30 P7 1.503686 1_555
O31 P8 1.503686 1_555
O32 P9 1.499233 1_555
O33 P10 1.499233 1_555
O34 P0 1.496727 1_545
O35 P0 1.496727 1_545
