# generated using pymatgen
data_Na2SnO2
_symmetry_space_group_name_H-M   'P 1'
_cell_length_a   5.73947944
_cell_length_b   6.74726154
_cell_length_c   16.75978064
_cell_angle_alpha   90.00000000
_cell_angle_beta   90.00000000
_cell_angle_gamma   90.00000000
_symmetry_Int_Tables_number   1
_chemical_formula_structural   Na2SnO2
_chemical_formula_sum   'Na16 Sn8 O16'
_cell_volume   649.03539163
_cell_formula_units_Z   8
loop_
 _symmetry_equiv_pos_site_id
 _symmetry_equiv_pos_as_xyz
  1  'x, y, z'
loop_
 _atom_site_type_symbol
 _atom_site_label
 _atom_site_symmetry_multiplicity
 _atom_site_fract_x
 _atom_site_fract_y
 _atom_site_fract_z
 _atom_site_occupancy
  Na  Na0  1  0.25000000  0.11222452  0.00000000  1
  Na  Na1  1  0.25000000  0.62981430  0.00000000  1
  Na  Na2  1  0.75000000  0.37018570  0.00000000  1
  Na  Na3  1  0.75000000  0.88777548  0.00000000  1
  Na  Na4  1  0.58118324  0.12572087  0.14812415  1
  Na  Na5  1  0.08118324  0.87427913  0.14812415  1
  Na  Na6  1  0.08118324  0.37427913  0.35187585  1
  Na  Na7  1  0.58118324  0.62572087  0.35187585  1
  Na  Na8  1  0.25000000  0.12981430  0.50000000  1
  Na  Na9  1  0.75000000  0.38777548  0.50000000  1
  Na  Na10  1  0.25000000  0.61222452  0.50000000  1
  Na  Na11  1  0.75000000  0.87018570  0.50000000  1
  Na  Na12  1  0.41881676  0.37427913  0.64812415  1
  Na  Na13  1  0.91881676  0.62572087  0.64812415  1
  Na  Na14  1  0.91881676  0.12572087  0.85187585  1
  Na  Na15  1  0.41881676  0.87427913  0.85187585  1
  Sn  Sn0  1  0.06813995  0.36677017  0.15789155  1
  Sn  Sn1  1  0.56813995  0.63322983  0.15789155  1
  Sn  Sn2  1  0.56813995  0.13322983  0.34210845  1
  Sn  Sn3  1  0.06813995  0.86677017  0.34210845  1
  Sn  Sn4  1  0.93186005  0.13322983  0.65789155  1
  Sn  Sn5  1  0.43186005  0.86677017  0.65789155  1
  Sn  Sn6  1  0.43186005  0.36677017  0.84210845  1
  Sn  Sn7  1  0.93186005  0.63322983  0.84210845  1
  O  O0  1  0.43985971  0.85016980  0.08782067  1
  O  O1  1  0.93985971  0.14983020  0.08782067  1
  O  O2  1  0.38754497  0.40363616  0.09705775  1
  O  O3  1  0.88754497  0.59636384  0.09705775  1
  O  O4  1  0.88754497  0.09636384  0.40294225  1
  O  O5  1  0.38754497  0.90363616  0.40294225  1
  O  O6  1  0.43985971  0.35016980  0.41217933  1
  O  O7  1  0.93985971  0.64983020  0.41217933  1
  O  O8  1  0.06014029  0.35016980  0.58782067  1
  O  O9  1  0.56014029  0.64983020  0.58782067  1
  O  O10  1  0.61245503  0.09636384  0.59705775  1
  O  O11  1  0.11245503  0.90363616  0.59705775  1
  O  O12  1  0.11245503  0.40363616  0.90294225  1
  O  O13  1  0.61245503  0.59636384  0.90294225  1
  O  O14  1  0.56014029  0.14983020  0.91217933  1
  O  O15  1  0.06014029  0.85016980  0.91217933  1
loop_
_geom_bond_atom_site_label_1
_geom_bond_atom_site_label_2
_geom_bond_distance
_geom_bond_site_symmetry_2
Na0 O1 2.323638 1_455
Na0 O14 2.323638 1_554
Na0 O0 2.545615 1_545
Na0 O15 2.545615 1_544
Na0 O2 2.671201 1_555
Na0 O12 2.671201 1_554
Na1 O0 2.358889 1_555
Na1 O15 2.358889 1_554
Na1 O2 2.366048 1_555
Na1 O12 2.366048 1_554
Na1 O3 2.650405 1_455
Na1 O13 2.650405 1_554
Na2 O1 2.358889 1_555
Na2 O14 2.358889 1_554
Na2 O3 2.366048 1_555
Na2 O13 2.366048 1_554
Na2 O2 2.650405 1_555
Na2 O12 2.650405 1_654
Na3 O0 2.323638 1_555
Na3 O15 2.323638 1_654
Na3 O1 2.545615 1_565
Na3 O14 2.545615 1_564
Na3 O3 2.671201 1_555
Na3 O13 2.671201 1_554
Na4 O0 2.266288 1_545
Na4 O1 2.299092 1_555
Na4 O2 2.341778 1_555
Na5 O1 2.266288 1_465
Na5 O0 2.299092 1_555
Na5 O3 2.341778 1_455
Na6 O7 2.266288 1_455
Na6 O6 2.299092 1_555
Na6 O4 2.341778 1_455
Na7 O6 2.266288 1_555
Na7 O7 2.299092 1_555
Na7 O5 2.341778 1_555
Na8 O6 2.358889 1_555
Na8 O8 2.358889 1_555
Na8 O5 2.366048 1_545
Na8 O11 2.366048 1_545
Na8 O4 2.650405 1_455
Na8 O10 2.650405 1_555
Na9 O6 2.323638 1_555
Na9 O8 2.323638 1_655
Na9 O7 2.545615 1_555
Na9 O9 2.545615 1_555
Na9 O4 2.671201 1_555
Na9 O10 2.671201 1_555
Na10 O7 2.323638 1_455
Na10 O9 2.323638 1_555
Na10 O6 2.545615 1_555
Na10 O8 2.545615 1_555
Na10 O5 2.671201 1_555
Na10 O11 2.671201 1_555
Na11 O7 2.358889 1_555
Na11 O9 2.358889 1_555
Na11 O4 2.366048 1_565
Na11 O10 2.366048 1_565
Na11 O5 2.650405 1_555
Na11 O11 2.650405 1_655
Na12 O9 2.266288 1_555
Na12 O8 2.299092 1_555
Na12 O10 2.341778 1_555
Na13 O8 2.266288 1_655
Na13 O9 2.299092 1_555
Na13 O11 2.341778 1_655
Na14 O15 2.266288 1_645
Na14 O14 2.299092 1_555
Na14 O12 2.341778 1_655
Na15 O14 2.266288 1_565
Na15 O15 2.299092 1_555
Na15 O13 2.341778 1_555
O0 Sn1 2.015887 1_555
O1 Sn0 2.015887 1_655
O2 Sn0 2.112361 1_555
O2 Sn1 2.124542 1_555
O3 Sn1 2.112361 1_555
O3 Sn0 2.124542 1_655
O4 Sn2 2.112361 1_555
O4 Sn3 2.124542 1_645
O5 Sn3 2.112361 1_555
O5 Sn2 2.124542 1_565
O6 Sn2 2.015887 1_555
O7 Sn3 2.015887 1_655
O8 Sn4 2.015887 1_455
O9 Sn5 2.015887 1_555
O10 Sn4 2.112361 1_555
O10 Sn5 2.124542 1_545
O11 Sn5 2.112361 1_555
O11 Sn4 2.124542 1_465
O12 Sn6 2.112361 1_555
O12 Sn7 2.124542 1_455
O13 Sn7 2.112361 1_555
O13 Sn6 2.124542 1_555
O14 Sn6 2.015887 1_555
O15 Sn7 2.015887 1_455
