# generated using pymatgen
data_Bi2B2O7
_symmetry_space_group_name_H-M   'P 1'
_cell_length_a   6.53247300
_cell_length_b   6.58365301
_cell_length_c   8.06039206
_cell_angle_alpha   110.16883916
_cell_angle_beta   110.86966514
_cell_angle_gamma   91.08939553
_symmetry_Int_Tables_number   1
_chemical_formula_structural   Bi2B2O7
_chemical_formula_sum   'Bi4 B4 O14'
_cell_volume   300.05014500
_cell_formula_units_Z   2
loop_
 _symmetry_equiv_pos_site_id
 _symmetry_equiv_pos_as_xyz
  1  'x, y, z'
loop_
 _atom_site_type_symbol
 _atom_site_label
 _atom_site_symmetry_multiplicity
 _atom_site_fract_x
 _atom_site_fract_y
 _atom_site_fract_z
 _atom_site_occupancy
  Bi  Bi0  1  0.24377000  0.78151500  0.86472300  1
  Bi  Bi1  1  0.29255200  0.64467600  0.28753000  1
  Bi  Bi2  1  0.70744800  0.35532400  0.71247000  1
  Bi  Bi3  1  0.75623000  0.21848500  0.13527700  1
  B  B0  1  0.32098600  0.33726000  0.87215100  1
  B  B1  1  0.30819300  0.15577900  0.26640200  1
  B  B2  1  0.69180700  0.84422100  0.73359800  1
  B  B3  1  0.67901400  0.66274000  0.12784900  1
  O  O0  1  0.18471700  0.47908000  0.93731400  1
  O  O1  1  0.38579000  0.17447600  0.94136600  1
  O  O2  1  0.00192100  0.02309600  0.43183900  1
  O  O3  1  0.47136300  0.77825000  0.61539300  1
  O  O4  1  0.16048200  0.30559600  0.25922500  1
  O  O5  1  0.22034300  0.93441500  0.14928700  1
  O  O6  1  0.38572300  0.38747700  0.74200700  1
  O  O7  1  0.61427700  0.61252300  0.25799300  1
  O  O8  1  0.77965700  0.06558500  0.85071300  1
  O  O9  1  0.83951800  0.69440400  0.74077500  1
  O  O10  1  0.52863700  0.22175000  0.38460700  1
  O  O11  1  0.99807900  0.97690400  0.56816100  1
  O  O12  1  0.61421000  0.82552400  0.05863400  1
  O  O13  1  0.81528300  0.52092000  0.06268600  1
loop_
_geom_bond_atom_site_label_1
_geom_bond_atom_site_label_2
_geom_bond_distance
_geom_bond_site_symmetry_2
Bi0 O5 2.227457 1_556
Bi0 O12 2.312792 1_556
Bi0 O0 2.321798 1_555
Bi0 O9 2.442997 1_455
Bi0 O1 2.516704 1_565
Bi1 O7 2.203890 1_555
Bi1 O4 2.283688 1_555
Bi1 O3 2.297965 1_555
Bi1 O0 2.466828 1_554
Bi1 O5 2.495660 1_555
Bi2 O6 2.203890 1_555
Bi2 O9 2.283688 1_555
Bi2 O10 2.297965 1_555
Bi2 O13 2.466828 1_556
Bi2 O8 2.495660 1_555
Bi3 O8 2.227457 1_554
Bi3 O1 2.312792 1_554
Bi3 O13 2.321798 1_555
Bi3 O4 2.442997 1_655
Bi3 O12 2.516704 1_545
B0 O1 1.378518 1_555
B0 O6 1.392293 1_555
B0 O0 1.402363 1_555
B1 O10 1.372389 1_555
B1 O4 1.393934 1_555
B1 O5 1.406397 1_545
B2 O3 1.372389 1_555
B2 O9 1.393934 1_555
B2 O8 1.406397 1_565
B3 O12 1.378518 1_555
B3 O7 1.392293 1_555
B3 O13 1.402363 1_555
O11 O2 1.245103 1_665
