# generated using pymatgen
data_NaNbN2
_symmetry_space_group_name_H-M   'P 1'
_cell_length_a   5.92898129
_cell_length_b   5.92898129
_cell_length_c   5.92898172
_cell_angle_alpha   30.75167410
_cell_angle_beta   30.75167410
_cell_angle_gamma   30.75167689
_symmetry_Int_Tables_number   1
_chemical_formula_structural   NaNbN2
_chemical_formula_sum   'Na1 Nb1 N2'
_cell_volume   48.32136866
_cell_formula_units_Z   1
loop_
 _symmetry_equiv_pos_site_id
 _symmetry_equiv_pos_as_xyz
  1  'x, y, z'
loop_
 _atom_site_type_symbol
 _atom_site_label
 _atom_site_symmetry_multiplicity
 _atom_site_fract_x
 _atom_site_fract_y
 _atom_site_fract_z
 _atom_site_occupancy
  Na  Na0  1  0.50000000  0.50000000  0.50000000  1
  Nb  Nb0  1  0.00000000  0.00000000  -0.00000000  1
  N  N0  1  0.73214882  0.73214882  0.73214882  1
  N  N1  1  0.26785118  0.26785118  0.26785118  1
loop_
_geom_bond_atom_site_label_1
_geom_bond_atom_site_label_2
_geom_bond_distance
_geom_bond_site_symmetry_2
N0 Nb0 2.127114 1_566
N0 Nb0 2.127114 1_656
N0 Nb0 2.127115 1_665
N0 Na0 2.496138 1_655
N0 Na0 2.496138 1_565
N0 Na0 2.496138 1_556
N1 Nb0 2.127114 1_655
N1 Nb0 2.127114 1_565
N1 Nb0 2.127115 1_556
N1 Na0 2.496138 1_545
N1 Na0 2.496138 1_455
N1 Na0 2.496138 1_554
