# generated using pymatgen
data_LiSb(PO3)4
_symmetry_space_group_name_H-M   'P 1'
_cell_length_a   9.05751700
_cell_length_b   7.02380300
_cell_length_c   7.52704414
_cell_angle_alpha   85.91345746
_cell_angle_beta   90.00000000
_cell_angle_gamma   90.00000000
_symmetry_Int_Tables_number   1
_chemical_formula_structural   LiSb(PO3)4
_chemical_formula_sum   'Li2 Sb2 P8 O24'
_cell_volume   477.63964231
_cell_formula_units_Z   2
loop_
 _symmetry_equiv_pos_site_id
 _symmetry_equiv_pos_as_xyz
  1  'x, y, z'
loop_
 _atom_site_type_symbol
 _atom_site_label
 _atom_site_symmetry_multiplicity
 _atom_site_fract_x
 _atom_site_fract_y
 _atom_site_fract_z
 _atom_site_occupancy
  Li  Li0  1  0.98153500  0.79512500  0.80359800  1
  Li  Li1  1  0.48153500  0.20487500  0.19640200  1
  Sb  Sb0  1  0.62717800  0.74879300  0.28068200  1
  Sb  Sb1  1  0.12717800  0.25120700  0.71931800  1
  P  P0  1  0.63462500  0.99650400  0.57914900  1
  P  P1  1  0.43478700  0.89216100  0.88296500  1
  P  P2  1  0.26586800  0.61414100  0.40931100  1
  P  P3  1  0.61884200  0.55125000  0.91337900  1
  P  P4  1  0.11884200  0.44875000  0.08662100  1
  P  P5  1  0.76586800  0.38585900  0.59068900  1
  P  P6  1  0.93478700  0.10783900  0.11703500  1
  P  P7  1  0.13462500  0.00349600  0.42085100  1
  O  O0  1  0.05639700  0.98240600  0.23523900  1
  O  O1  1  0.47270600  0.92348000  0.07609500  1
  O  O2  1  0.03232700  0.97472000  0.58154000  1
  O  O3  1  0.28534800  0.94748800  0.81591200  1
  O  O4  1  0.25353600  0.84061200  0.41101300  1
  O  O5  1  0.71509300  0.80846300  0.56832600  1
  O  O6  1  0.47362600  0.67637000  0.83940100  1
  O  O7  1  0.74160900  0.68646500  0.95226900  1
  O  O8  1  0.21655300  0.52983000  0.58834900  1
  O  O9  1  0.14995900  0.56677800  0.25985900  1
  O  O10  1  0.06882800  0.58526200  0.93893200  1
  O  O11  1  0.42447500  0.58371600  0.35311000  1
  O  O12  1  0.92447500  0.41628400  0.64689000  1
  O  O13  1  0.56882800  0.41473800  0.06106800  1
  O  O14  1  0.64995900  0.43322200  0.74014100  1
  O  O15  1  0.71655300  0.47017000  0.41165100  1
  O  O16  1  0.24160900  0.31353500  0.04773100  1
  O  O17  1  0.97362600  0.32363000  0.16059900  1
  O  O18  1  0.21509300  0.19153700  0.43167400  1
  O  O19  1  0.75353600  0.15938800  0.58898700  1
  O  O20  1  0.78534800  0.05251200  0.18408800  1
  O  O21  1  0.53232700  0.02528000  0.41846000  1
  O  O22  1  0.97270600  0.07652000  0.92390500  1
  O  O23  1  0.55639700  0.01759400  0.76476100  1
loop_
_geom_bond_atom_site_label_1
_geom_bond_atom_site_label_2
_geom_bond_distance
_geom_bond_site_symmetry_2
Li0 O10 1.903048 1_655
Li0 O2 2.072700 1_655
Li0 O22 2.233367 1_565
Li0 O7 2.536838 1_555
Li1 O13 1.903048 1_555
Li1 O21 2.072700 1_555
Li1 O1 2.233367 1_545
Li1 O16 2.536838 1_555
O0 P7 1.582846 1_565
O0 P6 1.633815 1_465
O1 P1 1.524849 1_554
O1 Sb0 2.359052 1_555
O2 P7 1.525600 1_565
O2 Sb1 2.423209 1_565
O3 P1 1.486567 1_555
O3 Sb1 2.628839 1_565
O4 P7 1.576850 1_565
O4 P2 1.595566 1_555
O5 P0 1.515782 1_555
O5 Sb0 2.372080 1_555
O6 P1 1.612259 1_555
O6 P3 1.656094 1_555
O7 P3 1.504577 1_555
O7 Sb0 2.744234 1_556
O8 P2 1.500851 1_555
O8 Sb1 2.276399 1_555
O9 P2 1.591118 1_555
O9 P4 1.618979 1_555
O10 P4 1.486084 1_556
O11 P2 1.516998 1_555
O11 Sb0 2.218632 1_555
O12 P5 1.516998 1_555
O12 Sb1 2.218632 1_655
O13 P3 1.486084 1_554
O14 P5 1.591118 1_555
O14 P3 1.618979 1_555
O15 P5 1.500851 1_555
O15 Sb0 2.276399 1_555
O16 P4 1.504577 1_555
O16 Sb1 2.744234 1_554
O17 P6 1.612259 1_555
O17 P4 1.656094 1_655
O18 P7 1.515782 1_555
O18 Sb1 2.372080 1_555
O19 P0 1.576850 1_545
O19 P5 1.595566 1_555
O20 P6 1.486567 1_555
O20 Sb0 2.628839 1_545
O21 P0 1.525600 1_545
O21 Sb0 2.423209 1_545
O22 P6 1.524849 1_556
O22 Sb1 2.359052 1_655
O23 P0 1.582846 1_545
O23 P1 1.633815 1_545
