# generated using pymatgen
data_Li4Mn2Fe3Te3O16
_symmetry_space_group_name_H-M   'P 1'
_cell_length_a   6.24299700
_cell_length_b   6.26048580
_cell_length_c   9.97393459
_cell_angle_alpha   90.48222187
_cell_angle_beta   92.36241523
_cell_angle_gamma   119.22083998
_symmetry_Int_Tables_number   1
_chemical_formula_structural   Li4Mn2Fe3Te3O16
_chemical_formula_sum   'Li4 Mn2 Fe3 Te3 O16'
_cell_volume   339.74482066
_cell_formula_units_Z   1
loop_
 _symmetry_equiv_pos_site_id
 _symmetry_equiv_pos_as_xyz
  1  'x, y, z'
loop_
 _atom_site_type_symbol
 _atom_site_label
 _atom_site_symmetry_multiplicity
 _atom_site_fract_x
 _atom_site_fract_y
 _atom_site_fract_z
 _atom_site_occupancy
  Li  Li0  1  0.34869800  0.65558900  0.87855800  1
  Li  Li1  1  0.98423500  0.97623000  0.99277100  1
  Li  Li2  1  0.00664100  0.99901800  0.50537500  1
  Li  Li3  1  0.66483300  0.31020600  0.39690000  1
  Mn  Mn0  1  0.31316400  0.67965200  0.51163900  1
  Mn  Mn1  1  0.69630100  0.36449500  0.97479400  1
  Fe  Fe0  1  0.14604800  0.82262800  0.21327200  1
  Fe  Fe1  1  0.33843700  0.16986100  0.71890700  1
  Fe  Fe2  1  0.83823700  0.67171900  0.71496500  1
  Te  Te0  1  0.15132700  0.32679000  0.21293700  1
  Te  Te1  1  0.63442600  0.81702300  0.21922000  1
  Te  Te2  1  0.84009000  0.17816200  0.71435500  1
  O  O0  1  0.14034600  0.31422600  0.60816400  1
  O  O1  1  0.47559000  0.50358400  0.32834000  1
  O  O2  1  0.30830500  0.63205900  0.10419000  1
  O  O3  1  0.02446100  0.03452300  0.32252200  1
  O  O4  1  0.00751000  0.02973300  0.81517100  1
  O  O5  1  0.68786200  0.87234100  0.60560500  1
  O  O6  1  0.03007900  0.48723200  0.32898100  1
  O  O7  1  0.47771300  0.95230600  0.33356900  1
  O  O8  1  0.85686700  0.19426800  0.08904900  1
  O  O9  1  0.16348100  0.86112800  0.61220000  1
  O  O10  1  0.55597900  0.05686700  0.83994600  1
  O  O11  1  0.98756100  0.47406600  0.82761200  1
  O  O12  1  0.66494000  0.31313300  0.60615700  1
  O  O13  1  0.28634100  0.16602800  0.10738300  1
  O  O14  1  0.53351800  0.47524100  0.84037500  1
  O  O15  1  0.83671100  0.66159300  0.08488300  1
loop_
_geom_bond_atom_site_label_1
_geom_bond_atom_site_label_2
_geom_bond_distance
_geom_bond_site_symmetry_2
Li0 O11 2.006748 1_455
Li0 O14 2.012979 1_555
Li0 O10 2.239941 1_565
Li0 O2 2.272853 1_556
Li1 O4 1.804092 1_665
Li1 O13 1.971584 1_666
Li1 O15 1.975163 1_556
Li1 O8 2.125633 1_566
Li2 O3 1.840463 1_565
Li2 O9 1.895764 1_555
Li2 O0 1.982194 1_565
Li2 O5 2.055565 1_455
Li3 O7 2.035640 1_545
Li3 O12 2.087012 1_555
Li3 O6 2.135236 1_655
Li3 O1 2.161683 1_555
Mn0 O9 2.065108 1_555
Mn0 O5 2.202429 1_555
Mn0 O0 2.244432 1_555
Mn0 O6 2.347879 1_555
Mn0 O7 2.369124 1_555
Mn0 O1 2.606880 1_555
Mn1 O15 1.930794 1_556
Mn1 O14 1.975390 1_555
Mn1 O8 2.099634 1_556
Mn1 O10 2.120723 1_555
Mn1 O11 2.225096 1_555
Mn1 O13 2.654225 1_556
Fe0 O15 2.063773 1_455
Fe0 O7 2.126866 1_555
Fe0 O3 2.133143 1_565
Fe0 O13 2.186421 1_565
Fe0 O2 2.209557 1_555
Fe0 O6 2.211422 1_555
Fe1 O9 1.967192 1_545
Fe1 O14 2.042581 1_555
Fe1 O4 2.089942 1_555
Fe1 O0 2.135817 1_555
Fe1 O10 2.149307 1_555
Fe1 O12 2.155212 1_555
Fe2 O9 2.102572 1_655
Fe2 O14 2.152667 1_555
Fe2 O4 2.168390 1_665
Fe2 O11 2.173907 1_555
Fe2 O5 2.176798 1_555
Fe2 O12 2.208797 1_555
O0 Te2 1.995244 1_455
O1 Te1 2.059968 1_555
O1 Te0 2.060780 1_555
O2 Te0 2.020683 1_555
O2 Te1 2.070168 1_555
O3 Te0 1.964680 1_555
O3 Te1 2.318876 1_445
O4 Te2 1.960711 1_455
O5 Te2 1.961854 1_565
O6 Te0 1.927820 1_555
O7 Te1 1.964687 1_555
O8 Te0 1.975078 1_655
O8 Te1 2.487966 1_545
O10 Te2 2.043501 1_555
O11 Te2 1.941458 1_555
O12 Te2 1.973428 1_555
O13 Te0 1.927526 1_555
O15 Te1 2.377873 1_555
