# generated using pymatgen
data_Rb3LuO3
_symmetry_space_group_name_H-M   'P 1'
_cell_length_a   7.24481456
_cell_length_b   7.71862640
_cell_length_c   11.54512992
_cell_angle_alpha   86.07086219
_cell_angle_beta   90.00190102
_cell_angle_gamma   89.99082527
_symmetry_Int_Tables_number   1
_chemical_formula_structural   Rb3LuO3
_chemical_formula_sum   'Rb12 Lu4 O12'
_cell_volume   644.08639852
_cell_formula_units_Z   4
loop_
 _symmetry_equiv_pos_site_id
 _symmetry_equiv_pos_as_xyz
  1  'x, y, z'
loop_
 _atom_site_type_symbol
 _atom_site_label
 _atom_site_symmetry_multiplicity
 _atom_site_fract_x
 _atom_site_fract_y
 _atom_site_fract_z
 _atom_site_occupancy
  Rb  Rb0  1  0.33610719  0.35862414  0.07796176  1
  Rb  Rb1  1  0.62195499  0.93368843  0.15707249  1
  Rb  Rb2  1  0.80497828  0.37539563  0.18978576  1
  Rb  Rb3  1  0.30498683  0.62459774  0.31022359  1
  Rb  Rb4  1  0.12217242  0.06632006  0.34299890  1
  Rb  Rb5  1  0.83621911  0.64140724  0.42203511  1
  Rb  Rb6  1  0.16378089  0.35859276  0.57796489  1
  Rb  Rb7  1  0.87782758  0.93367994  0.65700110  1
  Rb  Rb8  1  0.69501317  0.37540226  0.68977641  1
  Rb  Rb9  1  0.19502172  0.62460437  0.81021424  1
  Rb  Rb10  1  0.37804501  0.06631157  0.84292751  1
  Rb  Rb11  1  0.66389281  0.64137586  0.92203824  1
  Lu  Lu0  1  0.08796799  0.84154453  0.06836639  1
  Lu  Lu1  1  0.58797214  0.15847686  0.43160733  1
  Lu  Lu2  1  0.41202786  0.84152314  0.56839267  1
  Lu  Lu3  1  0.91203201  0.15845547  0.93163361  1
  O  O0  1  0.34972598  0.74707395  0.04625267  1
  O  O1  1  0.05112377  0.11083612  0.09212375  1
  O  O2  1  0.94503749  0.69874900  0.19288514  1
  O  O3  1  0.44492583  0.30122189  0.30710780  1
  O  O4  1  0.55115662  0.88911465  0.40788504  1
  O  O5  1  0.84973974  0.25295815  0.45382637  1
  O  O6  1  0.15026026  0.74704185  0.54617363  1
  O  O7  1  0.44884338  0.11088535  0.59211496  1
  O  O8  1  0.55507417  0.69877811  0.69289220  1
  O  O9  1  0.05496251  0.30125100  0.80711486  1
  O  O10  1  0.94887623  0.88916388  0.90787625  1
  O  O11  1  0.65027402  0.25292605  0.95374733  1
loop_
_geom_bond_atom_site_label_1
_geom_bond_atom_site_label_2
_geom_bond_distance
_geom_bond_site_symmetry_2
Lu0 O2 2.033974 1_455
Lu0 O0 2.053845 1_555
Lu0 O10 2.118993 1_454
Lu0 O1 2.131867 1_565
Lu1 O3 2.033833 1_555
Lu1 O5 2.054320 1_555
Lu1 O7 2.119385 1_555
Lu1 O4 2.132379 1_545
Lu2 O8 2.033833 1_555
Lu2 O6 2.054320 1_555
Lu2 O4 2.119385 1_555
Lu2 O7 2.132379 1_565
Lu3 O9 2.033974 1_655
Lu3 O11 2.053845 1_555
Lu3 O1 2.118993 1_656
Lu3 O10 2.131867 1_545
O0 Rb1 2.802638 1_555
O0 Rb11 2.839484 1_554
O0 Rb0 2.997202 1_555
O0 Rb3 3.145125 1_555
O0 Rb9 3.151047 1_554
O0 Rb10 3.291142 1_564
O1 Rb0 2.811748 1_555
O1 Rb4 2.938626 1_555
O1 Rb2 2.989281 1_455
O1 Rb1 3.458367 1_445
O2 Rb2 2.696885 1_555
O2 Rb5 2.766988 1_555
O2 Rb1 2.972201 1_555
O2 Rb3 2.975942 1_655
O3 Rb3 2.696433 1_555
O3 Rb0 2.766899 1_555
O3 Rb4 2.970716 1_555
O3 Rb2 2.976781 1_555
O4 Rb5 2.811289 1_555
O4 Rb1 2.937677 1_555
O4 Rb3 2.989496 1_555
O4 Rb4 3.456759 1_565
O5 Rb4 2.803555 1_655
O5 Rb6 2.838269 1_655
O5 Rb5 2.997192 1_555
O5 Rb2 3.145782 1_555
O5 Rb8 3.150087 1_555
O5 Rb7 3.290050 1_545
O6 Rb7 2.803555 1_455
O6 Rb5 2.838269 1_455
O6 Rb6 2.997192 1_555
O6 Rb9 3.145782 1_555
O6 Rb3 3.150087 1_555
O6 Rb4 3.290050 1_565
O7 Rb6 2.811289 1_555
O7 Rb10 2.937677 1_555
O7 Rb8 2.989496 1_555
O7 Rb7 3.456759 1_545
O8 Rb8 2.696433 1_555
O8 Rb11 2.766899 1_555
O8 Rb7 2.970716 1_555
O8 Rb9 2.976781 1_555
O9 Rb9 2.696885 1_555
O9 Rb6 2.766988 1_555
O9 Rb10 2.972201 1_555
O9 Rb8 2.975942 1_455
O10 Rb11 2.811748 1_555
O10 Rb7 2.938626 1_555
O10 Rb9 2.989281 1_655
O10 Rb10 3.458367 1_665
O11 Rb10 2.802638 1_555
O11 Rb0 2.839484 1_556
O11 Rb11 2.997202 1_555
O11 Rb8 3.145125 1_555
O11 Rb2 3.151047 1_556
O11 Rb1 3.291142 1_546
