# generated using pymatgen
data_Li3Si2Bi3O10
_symmetry_space_group_name_H-M   'P 1'
_cell_length_a   6.90548200
_cell_length_b   5.45506400
_cell_length_c   12.90988434
_cell_angle_alpha   88.27163554
_cell_angle_beta   90.00000000
_cell_angle_gamma   90.00000000
_symmetry_Int_Tables_number   1
_chemical_formula_structural   Li3Si2Bi3O10
_chemical_formula_sum   'Li6 Si4 Bi6 O20'
_cell_volume   486.09211052
_cell_formula_units_Z   2
loop_
 _symmetry_equiv_pos_site_id
 _symmetry_equiv_pos_as_xyz
  1  'x, y, z'
loop_
 _atom_site_type_symbol
 _atom_site_label
 _atom_site_symmetry_multiplicity
 _atom_site_fract_x
 _atom_site_fract_y
 _atom_site_fract_z
 _atom_site_occupancy
  Li  Li0  1  0.26915600  0.01629700  0.46303100  1
  Li  Li1  1  0.51733500  0.97999600  0.26584000  1
  Li  Li2  1  0.48266500  0.97999600  0.76584000  1
  Li  Li3  1  0.73084400  0.01629700  0.96303100  1
  Li  Li4  1  0.96162000  0.47377900  0.05801400  1
  Li  Li5  1  0.03838000  0.47377900  0.55801400  1
  Si  Si0  1  0.26203800  0.53217500  0.34184400  1
  Si  Si1  1  0.21221500  0.00481800  0.00251600  1
  Si  Si2  1  0.73796200  0.53217500  0.84184400  1
  Si  Si3  1  0.78778500  0.00481800  0.50251600  1
  Bi  Bi0  1  0.25742900  0.44669200  0.82499000  1
  Bi  Bi1  1  0.49202600  0.49028700  0.59467600  1
  Bi  Bi2  1  0.50797400  0.49028700  0.09467600  1
  Bi  Bi3  1  0.74257100  0.44669200  0.32499000  1
  Bi  Bi4  1  0.03308000  0.95088600  0.71199300  1
  Bi  Bi5  1  0.96692000  0.95088600  0.21199300  1
  O  O0  1  0.32109500  0.81850200  0.34578600  1
  O  O1  1  0.25624200  0.39204000  0.45781100  1
  O  O2  1  0.22063500  0.01550300  0.87353800  1
  O  O3  1  0.19807600  0.28988700  0.04164400  1
  O  O4  1  0.29961300  0.73823500  0.69852100  1
  O  O5  1  0.23592900  0.25452400  0.67717700  1
  O  O6  1  0.41132100  0.88199700  0.05089000  1
  O  O7  1  0.41777900  0.37311100  0.26953600  1
  O  O8  1  0.58222100  0.37311100  0.76953600  1
  O  O9  1  0.58867900  0.88199700  0.55089000  1
  O  O10  1  0.67890500  0.81850200  0.84578600  1
  O  O11  1  0.77936500  0.01550300  0.37353800  1
  O  O12  1  0.80192400  0.28988700  0.54164400  1
  O  O13  1  0.74375800  0.39204000  0.95781100  1
  O  O14  1  0.76407100  0.25452400  0.17717700  1
  O  O15  1  0.70038700  0.73823500  0.19852100  1
  O  O16  1  0.98771600  0.85461000  0.54163600  1
  O  O17  1  0.94841800  0.51671700  0.78051200  1
  O  O18  1  0.05158200  0.51671700  0.28051200  1
  O  O19  1  0.01228400  0.85461000  0.04163600  1
loop_
_geom_bond_atom_site_label_1
_geom_bond_atom_site_label_2
_geom_bond_distance
_geom_bond_site_symmetry_2
Li0 O0 1.918960 1_545
Li0 O1 2.050717 1_555
Li0 O16 2.351775 1_445
Li0 O9 2.577128 1_545
Li1 O0 1.903377 1_555
Li1 O15 2.039996 1_555
Li1 O7 2.253846 1_565
Li1 O11 2.293681 1_565
Li1 O14 2.520421 1_565
Li2 O10 1.903377 1_555
Li2 O4 2.039996 1_555
Li2 O8 2.253846 1_565
Li2 O2 2.293681 1_565
Li2 O5 2.520421 1_565
Li3 O10 1.918960 1_545
Li3 O13 2.050717 1_555
Li3 O19 2.351775 1_646
Li3 O6 2.577128 1_546
Li4 O3 1.931300 1_655
Li4 O13 2.042152 1_554
Li4 O19 2.111028 1_655
Li4 O14 2.355233 1_555
Li5 O12 1.931300 1_455
Li5 O1 2.042152 1_555
Li5 O16 2.111028 1_455
Li5 O5 2.355233 1_555
Bi0 O5 2.209759 1_555
Bi0 O17 2.239598 1_455
Bi0 O4 2.263462 1_555
Bi0 O8 2.391928 1_555
Bi0 O2 2.429221 1_555
Bi1 O9 2.293048 1_555
Bi1 O4 2.345543 1_555
Bi1 O8 2.409445 1_555
Bi1 O5 2.415227 1_555
Bi1 O1 2.473333 1_555
Bi1 O12 2.507694 1_555
Bi2 O6 2.293048 1_555
Bi2 O15 2.345543 1_555
Bi2 O7 2.409445 1_555
Bi2 O14 2.415227 1_555
Bi2 O13 2.473333 1_554
Bi2 O3 2.507694 1_555
Bi3 O14 2.209759 1_555
Bi3 O18 2.239598 1_655
Bi3 O15 2.263462 1_555
Bi3 O7 2.391928 1_555
Bi3 O11 2.429221 1_555
Bi4 O4 2.185328 1_555
Bi4 O5 2.205179 1_565
Bi4 O16 2.297935 1_455
Bi4 O2 2.489066 1_565
Bi4 O17 2.570466 1_455
Bi5 O15 2.185328 1_555
Bi5 O14 2.205179 1_565
Bi5 O19 2.297935 1_655
Bi5 O11 2.489066 1_565
Bi5 O18 2.570466 1_655
O0 Si0 1.616580 1_555
O1 Si0 1.660817 1_555
O2 Si1 1.665368 1_556
O3 Si1 1.652369 1_555
O6 Si1 1.644406 1_565
O7 Si0 1.682201 1_555
O8 Si2 1.682201 1_555
O9 Si3 1.644406 1_565
O10 Si2 1.616580 1_555
O11 Si3 1.665368 1_555
O12 Si3 1.652369 1_555
O13 Si2 1.660817 1_555
O16 Si3 1.675594 1_565
O17 Si2 1.658357 1_555
O18 Si0 1.658357 1_555
O19 Si1 1.675594 1_565
