# generated using pymatgen
data_Li4Mn3(NiO4)3
_symmetry_space_group_name_H-M   'P 1'
_cell_length_a   5.85963000
_cell_length_b   5.94019122
_cell_length_c   6.53449124
_cell_angle_alpha   104.06934089
_cell_angle_beta   102.80195374
_cell_angle_gamma   91.65175057
_symmetry_Int_Tables_number   1
_chemical_formula_structural   Li4Mn3(NiO4)3
_chemical_formula_sum   'Li4 Mn3 Ni3 O12'
_cell_volume   214.31719711
_cell_formula_units_Z   1
loop_
 _symmetry_equiv_pos_site_id
 _symmetry_equiv_pos_as_xyz
  1  'x, y, z'
loop_
 _atom_site_type_symbol
 _atom_site_label
 _atom_site_symmetry_multiplicity
 _atom_site_fract_x
 _atom_site_fract_y
 _atom_site_fract_z
 _atom_site_occupancy
  Li  Li0  1  0.17597700  0.65871900  0.65396000  1
  Li  Li1  1  0.50000000  0.00000000  0.00000000  1
  Li  Li2  1  0.00000000  0.00000000  0.00000000  1
  Li  Li3  1  0.82402300  0.34128100  0.34604000  1
  Mn  Mn0  1  0.83595500  0.82825200  0.34047900  1
  Mn  Mn1  1  0.16404500  0.17174800  0.65952100  1
  Mn  Mn2  1  0.50000000  0.50000000  0.00000000  1
  Ni  Ni0  1  0.33690400  0.83108000  0.33685300  1
  Ni  Ni1  1  0.66309600  0.16892000  0.66314700  1
  Ni  Ni2  1  0.00000000  0.50000000  0.00000000  1
  O  O0  1  0.40279300  0.95244100  0.64655300  1
  O  O1  1  0.93518500  0.93094000  0.65497300  1
  O  O2  1  0.27431500  0.73467500  0.02355000  1
  O  O3  1  0.59720700  0.04755900  0.35344700  1
  O  O4  1  0.74550200  0.74297600  0.02852800  1
  O  O5  1  0.06481500  0.06906000  0.34502700  1
  O  O6  1  0.25449800  0.25702400  0.97147200  1
  O  O7  1  0.59833200  0.58790900  0.30992000  1
  O  O8  1  0.72568500  0.26532500  0.97645000  1
  O  O9  1  0.07610900  0.62044900  0.33112100  1
  O  O10  1  0.40166800  0.41209100  0.69008000  1
  O  O11  1  0.92389100  0.37955100  0.66887900  1
loop_
_geom_bond_atom_site_label_1
_geom_bond_atom_site_label_2
_geom_bond_distance
_geom_bond_site_symmetry_2
Li0 O9 2.014092 1_555
Li0 O10 2.022963 1_555
Li0 O1 2.176265 1_455
Li0 O0 2.179180 1_555
Li0 O11 2.223200 1_455
Li0 O2 2.281828 1_556
Li1 O8 2.084343 1_554
Li1 O2 2.084343 1_545
Li1 O6 2.140412 1_554
Li1 O4 2.140412 1_545
Li1 O0 2.197494 1_544
Li1 O3 2.197494 1_555
Li2 O1 2.134834 1_444
Li2 O5 2.134834 1_555
Li2 O6 2.172549 1_554
Li2 O4 2.172549 1_445
Li2 O8 2.290359 1_454
Li2 O2 2.290359 1_545
Li3 O11 2.014092 1_555
Li3 O7 2.022963 1_555
Li3 O5 2.176265 1_655
Li3 O3 2.179180 1_555
Li3 O9 2.223200 1_655
Li3 O8 2.281828 1_554
Mn0 O9 1.899811 1_655
Mn0 O7 1.907999 1_555
Mn0 O4 1.922615 1_555
Mn0 O5 1.922632 1_665
Mn0 O3 1.940447 1_565
Mn0 O1 1.942672 1_555
Mn1 O11 1.899811 1_455
Mn1 O10 1.907999 1_555
Mn1 O6 1.922615 1_555
Mn1 O1 1.922632 1_445
Mn1 O0 1.940447 1_545
Mn1 O5 1.942672 1_555
Mn2 O10 1.912424 1_554
Mn2 O7 1.912424 1_555
Mn2 O2 1.951395 1_555
Mn2 O8 1.951395 1_554
Mn2 O4 1.953973 1_555
Mn2 O6 1.953973 1_554
Ni0 O0 1.921624 1_555
Ni0 O3 1.933308 1_565
Ni0 O2 1.933630 1_555
Ni0 O9 1.934885 1_555
Ni0 O7 2.141862 1_555
Ni0 O5 2.161974 1_565
Ni1 O3 1.921624 1_555
Ni1 O0 1.933308 1_545
Ni1 O8 1.933630 1_555
Ni1 O11 1.934885 1_555
Ni1 O10 2.141862 1_555
Ni1 O1 2.161974 1_545
Ni2 O9 2.047862 1_555
Ni2 O11 2.047862 1_454
Ni2 O2 2.051231 1_555
Ni2 O8 2.051231 1_454
Ni2 O4 2.111461 1_455
Ni2 O6 2.111461 1_554
