# generated using pymatgen
data_Li3VOF6
_symmetry_space_group_name_H-M   'P 1'
_cell_length_a   5.20371000
_cell_length_b   5.21601000
_cell_length_c   16.12737500
_cell_angle_alpha   90.00000000
_cell_angle_beta   90.00000000
_cell_angle_gamma   90.00000000
_symmetry_Int_Tables_number   1
_chemical_formula_structural   Li3VOF6
_chemical_formula_sum   'Li12 V4 O4 F24'
_cell_volume   437.73894346
_cell_formula_units_Z   4
loop_
 _symmetry_equiv_pos_site_id
 _symmetry_equiv_pos_as_xyz
  1  'x, y, z'
loop_
 _atom_site_type_symbol
 _atom_site_label
 _atom_site_symmetry_multiplicity
 _atom_site_fract_x
 _atom_site_fract_y
 _atom_site_fract_z
 _atom_site_occupancy
  Li  Li0  1  0.20078300  0.49151800  0.99959400  1
  Li  Li1  1  0.23301600  0.99136900  0.87640800  1
  Li  Li2  1  0.23506700  0.46859500  0.25534600  1
  Li  Li3  1  0.26493300  0.53140500  0.75534600  1
  Li  Li4  1  0.26698400  0.00863100  0.37640800  1
  Li  Li5  1  0.29921700  0.50848200  0.49959400  1
  Li  Li6  1  0.70078300  0.00848200  0.00040600  1
  Li  Li7  1  0.73301600  0.50863100  0.12359200  1
  Li  Li8  1  0.73506700  0.03140500  0.74465400  1
  Li  Li9  1  0.76493300  0.96859500  0.24465400  1
  Li  Li10  1  0.76698400  0.49136900  0.62359200  1
  Li  Li11  1  0.79921700  0.99151800  0.50040600  1
  V  V0  1  0.24545700  0.00416500  0.62443300  1
  V  V1  1  0.25454300  0.99583500  0.12443300  1
  V  V2  1  0.74545700  0.49583500  0.37556700  1
  V  V3  1  0.75454300  0.50416500  0.87556700  1
  O  O0  1  0.01371700  0.33979200  0.39089800  1
  O  O1  1  0.48628300  0.66020800  0.89089800  1
  O  O2  1  0.51371700  0.16020800  0.60910200  1
  O  O3  1  0.98628300  0.83979200  0.10910200  1
  F  F0  1  0.04297400  0.26169700  0.55669500  1
  F  F1  1  0.09620500  0.33144900  0.86234600  1
  F  F2  1  0.08075500  0.24163800  0.69947800  1
  F  F3  1  0.12455100  0.34253200  0.12327600  1
  F  F4  1  0.13622300  0.08645400  0.24109700  1
  F  F5  1  0.21333200  0.87852100  0.50895400  1
  F  F6  1  0.28666800  0.12147900  0.00895400  1
  F  F7  1  0.36377700  0.91354600  0.74109700  1
  F  F8  1  0.37544900  0.65746800  0.62327600  1
  F  F9  1  0.41924500  0.75836200  0.19947800  1
  F  F10  1  0.40379500  0.66855100  0.36234600  1
  F  F11  1  0.45702600  0.73830300  0.05669500  1
  F  F12  1  0.54297400  0.23830300  0.44330500  1
  F  F13  1  0.59620500  0.16855100  0.13765400  1
  F  F14  1  0.58075500  0.25836200  0.30052200  1
  F  F15  1  0.62455100  0.15746800  0.87672400  1
  F  F16  1  0.63622300  0.41354600  0.75890300  1
  F  F17  1  0.71333200  0.62147900  0.49104600  1
  F  F18  1  0.78666800  0.37852100  0.99104600  1
  F  F19  1  0.86377700  0.58645400  0.25890300  1
  F  F20  1  0.87544900  0.84253200  0.37672400  1
  F  F21  1  0.91924500  0.74163800  0.80052200  1
  F  F22  1  0.90379500  0.83144900  0.63765400  1
  F  F23  1  0.95702600  0.76169700  0.94330500  1
loop_
_geom_bond_atom_site_label_1
_geom_bond_atom_site_label_2
_geom_bond_distance
_geom_bond_site_symmetry_2
Li0 O1 2.460555 1_555
Li1 O1 2.185233 1_555
Li2 O0 2.560689 1_555
Li3 O1 2.560689 1_555
Li4 O0 2.185233 1_555
Li5 O0 2.460555 1_555
Li6 O3 2.460555 1_545
Li7 O3 2.185233 1_555
Li8 O2 2.560689 1_555
Li9 O3 2.560689 1_555
Li10 O2 2.185233 1_555
Li11 O2 2.460555 1_565
O0 V2 1.634708 1_455
O1 V3 1.634708 1_555
O2 V0 1.634708 1_555
O3 V1 1.634708 1_655
F0 V0 2.026832 1_555
F0 Li5 2.069541 1_555
F0 Li11 2.102150 1_445
F0 Li10 2.159095 1_455
F1 Li1 1.924798 1_545
F1 V3 2.004502 1_455
F1 Li3 2.199203 1_555
F1 Li0 2.427468 1_555
F2 V0 1.932256 1_555
F2 Li3 2.003689 1_555
F2 Li8 2.229169 1_455
F2 Li10 2.420848 1_455
F3 V1 1.930839 1_545
F3 Li0 2.177145 1_554
F3 Li7 2.213994 1_455
F3 Li2 2.302119 1_555
F4 Li9 2.028341 1_445
F4 V1 2.035311 1_545
F4 Li2 2.071333 1_555
F4 Li4 2.321599 1_555
F5 V0 1.981382 1_565
F5 Li5 1.986936 1_555
F5 Li11 2.238332 1_455
F5 Li4 2.260074 1_565
F6 V1 1.981382 1_545
F6 Li0 1.986936 1_554
F6 Li6 2.238332 1_555
F6 Li1 2.260074 1_544
F7 Li8 2.028341 1_565
F7 V0 2.035311 1_565
F7 Li3 2.071333 1_555
F7 Li1 2.321599 1_555
F8 V0 1.930839 1_565
F8 Li5 2.177145 1_555
F8 Li10 2.213994 1_555
F8 Li3 2.302119 1_555
F9 V1 1.932256 1_555
F9 Li2 2.003689 1_555
F9 Li9 2.229169 1_555
F9 Li7 2.420848 1_555
F10 Li4 1.924798 1_565
F10 V2 2.004502 1_555
F10 Li2 2.199203 1_555
F10 Li5 2.427468 1_555
F11 V1 2.026832 1_555
F11 Li0 2.069541 1_554
F11 Li6 2.102150 1_565
F11 Li7 2.159095 1_555
F12 V2 2.026832 1_555
F12 Li11 2.069541 1_545
F12 Li5 2.102150 1_555
F12 Li4 2.159095 1_555
F13 Li7 1.924798 1_555
F13 V1 2.004502 1_545
F13 Li9 2.199203 1_545
F13 Li6 2.427468 1_555
F14 V2 1.932256 1_555
F14 Li9 2.003689 1_545
F14 Li2 2.229169 1_555
F14 Li4 2.420848 1_555
F15 V3 1.930839 1_555
F15 Li6 2.177145 1_556
F15 Li1 2.213994 1_545
F15 Li8 2.302119 1_555
F16 Li3 2.028341 1_555
F16 V3 2.035311 1_555
F16 Li8 2.071333 1_555
F16 Li10 2.321599 1_555
F17 V2 1.981382 1_555
F17 Li11 1.986936 1_555
F17 Li5 2.238332 1_555
F17 Li10 2.260074 1_555
F18 V3 1.981382 1_555
F18 Li6 1.986936 1_556
F18 Li0 2.238332 1_655
F18 Li7 2.260074 1_556
F19 Li2 2.028341 1_655
F19 V2 2.035311 1_555
F19 Li9 2.071333 1_555
F19 Li7 2.321599 1_555
F20 V2 1.930839 1_555
F20 Li11 2.177145 1_555
F20 Li4 2.213994 1_665
F20 Li9 2.302119 1_555
F21 V3 1.932256 1_555
F21 Li8 2.003689 1_565
F21 Li3 2.229169 1_655
F21 Li1 2.420848 1_655
F22 Li10 1.924798 1_555
F22 V0 2.004502 1_665
F22 Li8 2.199203 1_565
F22 Li11 2.427468 1_555
F23 V3 2.026832 1_555
F23 Li6 2.069541 1_566
F23 Li0 2.102150 1_655
F23 Li1 2.159095 1_655
