# generated using pymatgen
data_Fe5(OF4)2
_symmetry_space_group_name_H-M   'P 1'
_cell_length_a   4.84766800
_cell_length_b   7.96787894
_cell_length_c   10.13270720
_cell_angle_alpha   71.10086499
_cell_angle_beta   88.10222184
_cell_angle_gamma   89.11385846
_symmetry_Int_Tables_number   1
_chemical_formula_structural   Fe5(OF4)2
_chemical_formula_sum   'Fe10 O4 F16'
_cell_volume   370.07515166
_cell_formula_units_Z   2
loop_
 _symmetry_equiv_pos_site_id
 _symmetry_equiv_pos_as_xyz
  1  'x, y, z'
loop_
 _atom_site_type_symbol
 _atom_site_label
 _atom_site_symmetry_multiplicity
 _atom_site_fract_x
 _atom_site_fract_y
 _atom_site_fract_z
 _atom_site_occupancy
  Fe  Fe0  1  0.50166900  0.69847300  0.89475300  1
  Fe  Fe1  1  0.48825200  0.90967300  0.30601400  1
  Fe  Fe2  1  0.50420800  0.09796400  0.69653300  1
  Fe  Fe3  1  0.46830700  0.31095600  0.10831300  1
  Fe  Fe4  1  0.48917300  0.49416300  0.51108600  1
  Fe  Fe5  1  0.02770700  0.39255800  0.78641600  1
  Fe  Fe6  1  0.97541000  0.80272900  0.61057200  1
  Fe  Fe7  1  0.01748000  0.19326700  0.39314600  1
  Fe  Fe8  1  0.01905800  0.59808300  0.19156100  1
  Fe  Fe9  1  0.99437300  0.00655100  0.00140900  1
  O  O0  1  0.32128400  0.31321600  0.68004100  1
  O  O1  1  0.30418300  0.54813300  0.07298700  1
  O  O2  1  0.30885400  0.15080500  0.26850500  1
  O  O3  1  0.67771900  0.86099400  0.73639000  1
  F  F0  1  0.21362900  0.24388700  0.97999400  1
  F  F1  1  0.21168300  0.03562500  0.58260900  1
  F  F2  1  0.18427500  0.45664100  0.36714300  1
  F  F3  1  0.20799600  0.63676700  0.78576800  1
  F  F4  1  0.18267300  0.82788500  0.18292600  1
  F  F5  1  0.29639200  0.93377400  0.88642500  1
  F  F6  1  0.29126100  0.73877300  0.48625100  1
  F  F7  1  0.71189500  0.24604600  0.51806700  1
  F  F8  1  0.70028800  0.65837700  0.31785800  1
  F  F9  1  0.69991400  0.08240300  0.11247500  1
  F  F10  1  0.69973700  0.46240100  0.92248700  1
  F  F11  1  0.80678500  0.55823300  0.62154500  1
  F  F12  1  0.80724200  0.95503600  0.42013000  1
  F  F13  1  0.79447500  0.15505100  0.81958700  1
  F  F14  1  0.79631900  0.75183600  0.02962900  1
  F  F15  1  0.79775800  0.37969800  0.20937800  1
loop_
_geom_bond_atom_site_label_1
_geom_bond_atom_site_label_2
_geom_bond_distance
_geom_bond_site_symmetry_2
Fe0 O3 1.891430 1_555
Fe0 O1 2.032872 1_556
Fe1 O2 2.022217 1_565
Fe2 O0 1.879612 1_555
Fe2 O3 1.978658 1_545
Fe3 O2 1.861762 1_555
Fe3 O1 1.966372 1_555
Fe4 O0 2.004238 1_555
Fe5 O0 1.974550 1_555
Fe6 O3 2.040644 1_555
Fe7 O2 1.961759 1_555
Fe8 O1 1.922280 1_555
F0 Fe3 2.019212 1_556
F0 Fe9 2.129318 1_456
F0 Fe5 2.154484 1_555
F1 Fe2 2.022824 1_555
F1 Fe6 2.130580 1_445
F1 Fe7 2.161149 1_555
F2 Fe8 1.960720 1_555
F2 Fe7 2.192539 1_555
F2 Fe4 2.200056 1_555
F3 Fe0 1.991348 1_555
F3 Fe5 2.143380 1_555
F3 Fe6 2.176469 1_455
F4 Fe8 1.981407 1_555
F4 Fe9 2.148845 1_465
F4 Fe1 2.203035 1_555
F5 Fe9 2.033641 1_466
F5 Fe0 2.087535 1_555
F5 Fe2 2.170335 1_565
F6 Fe1 2.101239 1_555
F6 Fe4 2.103072 1_555
F6 Fe6 2.110666 1_455
F7 Fe7 2.043260 1_655
F7 Fe2 2.051796 1_555
F7 Fe4 2.219810 1_555
F8 Fe8 2.121501 1_655
F8 Fe4 2.200452 1_555
F8 Fe1 2.206575 1_555
F9 Fe9 1.994220 1_555
F9 Fe3 2.113963 1_555
F9 Fe1 2.225932 1_545
F10 Fe0 2.039267 1_555
F10 Fe3 2.165693 1_556
F10 Fe5 2.250098 1_655
F11 Fe5 2.080044 1_655
F11 Fe6 2.092519 1_555
F11 Fe4 2.095836 1_555
F12 Fe1 2.065276 1_555
F12 Fe6 2.101808 1_555
F12 Fe7 2.102800 1_665
F13 Fe2 2.060334 1_555
F13 Fe9 2.098555 1_556
F13 Fe5 2.145120 1_655
F14 Fe8 2.033036 1_655
F14 Fe0 2.147855 1_554
F14 Fe9 2.188315 1_565
F15 Fe8 2.013133 1_655
F15 Fe3 2.097160 1_555
F15 Fe7 2.258093 1_655
