# generated using pymatgen
data_Li3Cr(BO3)2
_symmetry_space_group_name_H-M   'P 1'
_cell_length_a   8.70554600
_cell_length_b   5.26296800
_cell_length_c   10.77113024
_cell_angle_alpha   63.55560201
_cell_angle_beta   90.00000000
_cell_angle_gamma   90.00000000
_symmetry_Int_Tables_number   1
_chemical_formula_structural   Li3Cr(BO3)2
_chemical_formula_sum   'Li12 Cr4 B8 O24'
_cell_volume   441.86446778
_cell_formula_units_Z   4
loop_
 _symmetry_equiv_pos_site_id
 _symmetry_equiv_pos_as_xyz
  1  'x, y, z'
loop_
 _atom_site_type_symbol
 _atom_site_label
 _atom_site_symmetry_multiplicity
 _atom_site_fract_x
 _atom_site_fract_y
 _atom_site_fract_z
 _atom_site_occupancy
  Li  Li0  1  0.95751400  0.52285200  0.85250700  1
  Li  Li1  1  0.65215500  0.44057200  0.87641400  1
  Li  Li2  1  0.15215500  0.55942800  0.62358600  1
  Li  Li3  1  0.96923700  0.92308700  0.38655400  1
  Li  Li4  1  0.45751400  0.47714800  0.64749300  1
  Li  Li5  1  0.46923700  0.07691300  0.11344600  1
  Li  Li6  1  0.53076300  0.92308700  0.88655400  1
  Li  Li7  1  0.54248600  0.52285200  0.35250700  1
  Li  Li8  1  0.03076300  0.07691300  0.61344600  1
  Li  Li9  1  0.84784500  0.44057200  0.37641400  1
  Li  Li10  1  0.34784500  0.55942800  0.12358600  1
  Li  Li11  1  0.04248600  0.47714800  0.14749300  1
  Cr  Cr0  1  0.29013800  0.01383100  0.37567000  1
  Cr  Cr1  1  0.20986200  0.01383100  0.87567000  1
  Cr  Cr2  1  0.79013800  0.98616900  0.12433000  1
  Cr  Cr3  1  0.70986200  0.98616900  0.62433000  1
  B  B0  1  0.30485700  0.45139700  0.88209500  1
  B  B1  1  0.64301600  0.97043100  0.36535600  1
  B  B2  1  0.80485700  0.54860300  0.61790500  1
  B  B3  1  0.14301600  0.02956900  0.13464400  1
  B  B4  1  0.85698400  0.97043100  0.86535600  1
  B  B5  1  0.19514300  0.45139700  0.38209500  1
  B  B6  1  0.35698400  0.02956900  0.63464400  1
  B  B7  1  0.69514300  0.54860300  0.11790500  1
  O  O0  1  0.32507000  0.83364500  0.58475400  1
  O  O1  1  0.91064900  0.75826000  0.60727800  1
  O  O2  1  0.65595100  0.32676500  0.09045600  1
  O  O3  1  0.65908100  0.59222100  0.65659900  1
  O  O4  1  0.26229000  0.16699400  0.16755800  1
  O  O5  1  0.15908100  0.40777900  0.84340100  1
  O  O6  1  0.99666900  0.10822000  0.15274900  1
  O  O7  1  0.49666900  0.89178000  0.34725100  1
  O  O8  1  0.41064900  0.24174000  0.89272200  1
  O  O9  1  0.76229000  0.83300600  0.33244200  1
  O  O10  1  0.82507000  0.16635500  0.91524600  1
  O  O11  1  0.15595100  0.67323500  0.40954400  1
  O  O12  1  0.84404900  0.32676500  0.59045600  1
  O  O13  1  0.17493000  0.83364500  0.08475400  1
  O  O14  1  0.23771000  0.16699400  0.66755800  1
  O  O15  1  0.58935100  0.75826000  0.10727800  1
  O  O16  1  0.50333100  0.10822000  0.65274900  1
  O  O17  1  0.00333100  0.89178000  0.84725100  1
  O  O18  1  0.84091900  0.59222100  0.15659900  1
  O  O19  1  0.73771000  0.83300600  0.83244200  1
  O  O20  1  0.34091900  0.40777900  0.34340100  1
  O  O21  1  0.34404900  0.67323500  0.90954400  1
  O  O22  1  0.08935100  0.24174000  0.39272200  1
  O  O23  1  0.67493000  0.16635500  0.41524600  1
loop_
_geom_bond_atom_site_label_1
_geom_bond_atom_site_label_2
_geom_bond_distance
_geom_bond_site_symmetry_2
Li0 O5 1.873088 1_655
Li0 O17 1.958168 1_655
Li0 O10 2.043783 1_555
Li0 O1 2.400767 1_555
Li0 O19 2.461410 1_555
Li1 O10 1.996524 1_555
Li1 O19 2.042925 1_555
Li1 O2 2.108354 1_556
Li1 O3 2.136205 1_555
Li1 O8 2.320011 1_555
Li2 O0 1.996524 1_555
Li2 O14 2.042925 1_555
Li2 O11 2.108354 1_555
Li2 O5 2.136205 1_555
Li2 O1 2.320011 1_455
Li3 O22 2.002394 1_665
Li3 O9 2.014026 1_555
Li3 O11 2.035315 1_655
Li3 O1 2.197279 1_555
Li3 O6 2.272222 1_565
Li4 O3 1.873088 1_555
Li4 O16 1.958168 1_555
Li4 O0 2.043783 1_555
Li4 O8 2.400767 1_555
Li4 O14 2.461410 1_555
Li5 O15 2.002394 1_545
Li5 O4 2.014026 1_555
Li5 O2 2.035315 1_555
Li5 O8 2.197279 1_554
Li5 O7 2.272222 1_545
Li6 O8 2.002394 1_565
Li6 O19 2.014026 1_555
Li6 O21 2.035315 1_555
Li6 O15 2.197279 1_556
Li6 O16 2.272222 1_565
Li7 O20 1.873088 1_555
Li7 O7 1.958168 1_555
Li7 O23 2.043783 1_555
Li7 O15 2.400767 1_555
Li7 O9 2.461410 1_555
Li8 O1 2.002394 1_445
Li8 O14 2.014026 1_555
Li8 O12 2.035315 1_455
Li8 O22 2.197279 1_555
Li8 O17 2.272222 1_545
Li9 O23 1.996524 1_555
Li9 O9 2.042925 1_555
Li9 O12 2.108354 1_555
Li9 O18 2.136205 1_555
Li9 O22 2.320011 1_655
Li10 O13 1.996524 1_555
Li10 O4 2.042925 1_555
Li10 O21 2.108354 1_554
Li10 O20 2.136205 1_555
Li10 O15 2.320011 1_555
Li11 O18 1.873088 1_455
Li11 O6 1.958168 1_455
Li11 O13 2.043783 1_555
Li11 O22 2.400767 1_555
Li11 O4 2.461410 1_555
Cr0 O7 1.978413 1_545
Cr0 O20 1.993268 1_555
Cr0 O4 2.030756 1_555
Cr0 O11 2.031859 1_545
Cr0 O0 2.039963 1_545
Cr0 O22 2.173492 1_555
Cr1 O17 1.978413 1_545
Cr1 O5 1.993268 1_555
Cr1 O14 2.030756 1_555
Cr1 O21 2.031859 1_545
Cr1 O13 2.039963 1_546
Cr1 O8 2.173492 1_555
Cr2 O6 1.978413 1_565
Cr2 O18 1.993268 1_555
Cr2 O9 2.030756 1_555
Cr2 O2 2.031859 1_565
Cr2 O10 2.039963 1_564
Cr2 O15 2.173492 1_555
Cr3 O16 1.978413 1_565
Cr3 O3 1.993268 1_555
Cr3 O19 2.030756 1_555
Cr3 O12 2.031859 1_565
Cr3 O23 2.039963 1_565
Cr3 O1 2.173492 1_555
B0 O21 1.369081 1_555
B0 O5 1.386409 1_555
B0 O8 1.402263 1_555
B1 O7 1.380009 1_555
B1 O23 1.386625 1_565
B1 O9 1.398332 1_555
B2 O12 1.369081 1_555
B2 O3 1.386409 1_555
B2 O1 1.402263 1_555
B3 O6 1.380009 1_455
B3 O13 1.386625 1_545
B3 O4 1.398332 1_555
B4 O17 1.380009 1_655
B4 O10 1.386625 1_565
B4 O19 1.398332 1_555
B5 O11 1.369081 1_555
B5 O20 1.386409 1_555
B5 O22 1.402263 1_555
B6 O16 1.380009 1_555
B6 O0 1.386625 1_545
B6 O14 1.398332 1_555
B7 O2 1.369081 1_555
B7 O18 1.386409 1_555
B7 O15 1.402263 1_555
