# generated using pymatgen
data_Li3VF6
_symmetry_space_group_name_H-M   'P 1'
_cell_length_a   5.54950323
_cell_length_b   5.54950323
_cell_length_c   10.09357857
_cell_angle_alpha   83.93344150
_cell_angle_beta   83.93344150
_cell_angle_gamma   58.52811401
_symmetry_Int_Tables_number   1
_chemical_formula_structural   Li3VF6
_chemical_formula_sum   'Li6 V2 F12'
_cell_volume   263.17171687
_cell_formula_units_Z   2
loop_
 _symmetry_equiv_pos_site_id
 _symmetry_equiv_pos_as_xyz
  1  'x, y, z'
loop_
 _atom_site_type_symbol
 _atom_site_label
 _atom_site_symmetry_multiplicity
 _atom_site_fract_x
 _atom_site_fract_y
 _atom_site_fract_z
 _atom_site_occupancy
  Li  Li0  1  0.67882300  0.11003000  0.05078700  1
  Li  Li1  1  0.11003000  0.67882300  0.55078700  1
  Li  Li2  1  0.46625200  0.71520300  0.94747300  1
  Li  Li3  1  0.00484800  0.36601500  0.17842600  1
  Li  Li4  1  0.36601500  0.00484800  0.67842600  1
  Li  Li5  1  0.71520300  0.46625200  0.44747300  1
  V  V0  1  0.04170800  0.63747600  0.85088100  1
  V  V1  1  0.63747600  0.04170800  0.35088100  1
  F  F0  1  0.42498400  0.39674600  0.93006600  1
  F  F1  1  0.56490800  0.84884300  0.51365100  1
  F  F2  1  0.10568600  0.38567000  0.71076300  1
  F  F3  1  0.38567000  0.10568600  0.21076300  1
  F  F4  1  0.17546900  0.80393100  0.70299000  1
  F  F5  1  0.04355300  0.92151400  0.95397300  1
  F  F6  1  0.92151400  0.04355300  0.45397300  1
  F  F7  1  0.80393100  0.17546900  0.20299000  1
  F  F8  1  0.63243400  0.86083900  0.80643700  1
  F  F9  1  0.86083900  0.63243400  0.30643700  1
  F  F10  1  0.84884300  0.56490800  0.01365100  1
  F  F11  1  0.39674600  0.42498400  0.43006600  1
loop_
_geom_bond_atom_site_label_1
_geom_bond_atom_site_label_2
_geom_bond_distance
_geom_bond_site_symmetry_2
F0 Li0 1.900913 1_556
F0 Li2 1.924406 1_555
F0 V0 2.028365 1_555
F1 Li4 1.911149 1_565
F1 V1 1.986328 1_565
F1 Li5 1.995675 1_555
F2 Li4 1.875673 1_555
F2 V0 1.967879 1_555
F2 Li1 2.175331 1_555
F3 Li3 1.875673 1_555
F3 V1 1.967879 1_555
F3 Li0 2.175331 1_555
F4 Li4 1.881513 1_565
F4 Li1 1.892271 1_555
F4 V0 1.955232 1_555
F5 Li0 1.932158 1_466
F5 V0 1.983256 1_555
F5 Li2 1.999202 1_555
F6 Li1 1.932158 1_645
F6 V1 1.983256 1_555
F6 Li5 1.999202 1_555
F7 Li3 1.881513 1_655
F7 Li0 1.892271 1_555
F7 V1 1.955232 1_555
F8 Li4 1.856310 1_565
F8 Li2 1.946229 1_555
F8 V0 2.013587 1_655
F9 Li3 1.856310 1_655
F9 Li5 1.946229 1_555
F9 V1 2.013587 1_565
F10 Li3 1.911149 1_655
F10 V0 1.986328 1_654
F10 Li2 1.995675 1_554
F11 Li1 1.900913 1_555
F11 Li5 1.924406 1_555
F11 V1 2.028365 1_555
