# generated using pymatgen
data_Zn3P3H10C2NO13
_symmetry_space_group_name_H-M   'P 1'
_cell_length_a   5.33591400
_cell_length_b   13.14525000
_cell_length_c   21.79381513
_cell_angle_alpha   85.57286276
_cell_angle_beta   90.00000000
_cell_angle_gamma   90.00000000
_symmetry_Int_Tables_number   1
_chemical_formula_structural   Zn3P3H10C2NO13
_chemical_formula_sum   'Zn12 P12 H40 C8 N4 O52'
_cell_volume   1524.09905597
_cell_formula_units_Z   4
loop_
 _symmetry_equiv_pos_site_id
 _symmetry_equiv_pos_as_xyz
  1  'x, y, z'
loop_
 _atom_site_type_symbol
 _atom_site_label
 _atom_site_symmetry_multiplicity
 _atom_site_fract_x
 _atom_site_fract_y
 _atom_site_fract_z
 _atom_site_occupancy
  Zn  Zn0  1  0.72176000  0.99305000  0.56549400  1
  Zn  Zn1  1  0.22176000  0.00695000  0.93450600  1
  Zn  Zn2  1  0.27824000  0.00695000  0.43450600  1
  Zn  Zn3  1  0.77824000  0.99305000  0.06549400  1
  Zn  Zn4  1  0.23174000  0.99762700  0.66537800  1
  Zn  Zn5  1  0.73174000  0.00237300  0.83462200  1
  Zn  Zn6  1  0.76826000  0.00237300  0.33462200  1
  Zn  Zn7  1  0.26826000  0.99762700  0.16537800  1
  Zn  Zn8  1  0.27903500  0.61097100  0.54738500  1
  Zn  Zn9  1  0.77903500  0.38902900  0.95261500  1
  Zn  Zn10  1  0.72096500  0.38902900  0.45261500  1
  Zn  Zn11  1  0.22096500  0.61097100  0.04738500  1
  P  P0  1  0.23797800  0.86094300  0.55286500  1
  P  P1  1  0.73797800  0.13905700  0.94713500  1
  P  P2  1  0.76202200  0.13905700  0.44713500  1
  P  P3  1  0.26202200  0.86094300  0.05286500  1
  P  P4  1  0.73314500  0.10929100  0.69353100  1
  P  P5  1  0.23314500  0.89070900  0.80646900  1
  P  P6  1  0.26685500  0.89070900  0.30646900  1
  P  P7  1  0.76685500  0.10929100  0.19353100  1
  P  P8  1  0.19488400  0.51243300  0.41960900  1
  P  P9  1  0.69488400  0.48756700  0.08039100  1
  P  P10  1  0.80511600  0.48756700  0.58039100  1
  P  P11  1  0.30511600  0.51243300  0.91960900  1
  H  H0  1  0.71691900  0.25096300  0.63984900  1
  H  H1  1  0.21691900  0.74903700  0.86015100  1
  H  H2  1  0.28308100  0.74903700  0.36015100  1
  H  H3  1  0.78308100  0.25096300  0.13984900  1
  H  H4  1  0.22543900  0.62139800  0.33929500  1
  H  H5  1  0.72543900  0.37860200  0.16070500  1
  H  H6  1  0.77456100  0.37860200  0.66070500  1
  H  H7  1  0.27456100  0.62139800  0.83929500  1
  H  H8  1  0.46121800  0.72598200  0.65210700  1
  H  H9  1  0.96121800  0.27401800  0.84789300  1
  H  H10  1  0.53878200  0.27401800  0.34789300  1
  H  H11  1  0.03878200  0.72598200  0.15210700  1
  H  H12  1  0.45009600  0.76780700  0.72223100  1
  H  H13  1  0.95009600  0.23219300  0.77776900  1
  H  H14  1  0.54990400  0.23219300  0.27776900  1
  H  H15  1  0.04990400  0.76780700  0.22223100  1
  H  H16  1  0.27716600  0.59828700  0.72466400  1
  H  H17  1  0.77716600  0.40171300  0.77533600  1
  H  H18  1  0.72283400  0.40171300  0.27533600  1
  H  H19  1  0.22283400  0.59828700  0.22466400  1
  H  H20  1  0.55922200  0.60042400  0.77005400  1
  H  H21  1  0.05922200  0.39957600  0.72994600  1
  H  H22  1  0.44077800  0.39957600  0.22994600  1
  H  H23  1  0.94077800  0.60042400  0.27005400  1
  H  H24  1  0.56457400  0.55425400  0.69451500  1
  H  H25  1  0.06457400  0.44574600  0.80548500  1
  H  H26  1  0.43542600  0.44574600  0.30548500  1
  H  H27  1  0.93542600  0.55425400  0.19451500  1
  H  H28  1  0.83852400  0.81516800  0.67677500  1
  H  H29  1  0.33852400  0.18483200  0.82322500  1
  H  H30  1  0.16147600  0.18483200  0.32322500  1
  H  H31  1  0.66147600  0.81516800  0.17677500  1
  H  H32  1  0.90178400  0.68426200  0.66504700  1
  H  H33  1  0.40178400  0.31573800  0.83495300  1
  H  H34  1  0.09821600  0.31573800  0.33495300  1
  H  H35  1  0.59821600  0.68426200  0.16504700  1
  H  H36  1  0.88382000  0.72585100  0.74214900  1
  H  H37  1  0.38382000  0.27414900  0.75785100  1
  H  H38  1  0.11618000  0.27414900  0.25785100  1
  H  H39  1  0.61618000  0.72585100  0.24214900  1
  C  C0  1  0.48043300  0.60949500  0.72351300  1
  C  C1  1  0.98043300  0.39050500  0.77648700  1
  C  C2  1  0.51956700  0.39050500  0.27648700  1
  C  C3  1  0.01956700  0.60949500  0.22351300  1
  C  C4  1  0.81097300  0.73635900  0.69504800  1
  C  C5  1  0.31097300  0.26364100  0.80495200  1
  C  C6  1  0.18902700  0.26364100  0.30495200  1
  C  C7  1  0.68902700  0.73635900  0.19504800  1
  N  N0  1  0.53667000  0.71453900  0.69670500  1
  N  N1  1  0.03667000  0.28546100  0.80329500  1
  N  N2  1  0.46333000  0.28546100  0.30329500  1
  N  N3  1  0.96333000  0.71453900  0.19670500  1
  O  O0  1  0.95732900  0.88555200  0.55811700  1
  O  O1  1  0.45732900  0.11444800  0.94188300  1
  O  O2  1  0.04267100  0.11444800  0.44188300  1
  O  O3  1  0.54267100  0.88555200  0.05811700  1
  O  O4  1  0.34189200  0.88556400  0.48710300  1
  O  O5  1  0.84189200  0.11443600  0.01289700  1
  O  O6  1  0.65810800  0.11443600  0.51289700  1
  O  O7  1  0.15810800  0.88556400  0.98710300  1
  O  O8  1  0.87232600  0.03295600  0.65306600  1
  O  O9  1  0.37232600  0.96704400  0.84693400  1
  O  O10  1  0.12767400  0.96704400  0.34693400  1
  O  O11  1  0.62767400  0.03295600  0.15306600  1
  O  O12  1  0.38952400  0.93372500  0.59639200  1
  O  O13  1  0.88952400  0.06627500  0.90360800  1
  O  O14  1  0.61047600  0.06627500  0.40360800  1
  O  O15  1  0.11047600  0.93372500  0.09639200  1
  O  O16  1  0.81618700  0.09430600  0.76061400  1
  O  O17  1  0.31618700  0.90569400  0.73938600  1
  O  O18  1  0.18381300  0.90569400  0.23938600  1
  O  O19  1  0.68381300  0.09430600  0.26061400  1
  O  O20  1  0.45292300  0.11054800  0.68002500  1
  O  O21  1  0.95292300  0.88945200  0.81997500  1
  O  O22  1  0.54707700  0.88945200  0.31997500  1
  O  O23  1  0.04707700  0.11054800  0.18002500  1
  O  O24  1  0.15639600  0.59439400  0.46522200  1
  O  O25  1  0.65639600  0.40560600  0.03477800  1
  O  O26  1  0.84360400  0.40560600  0.53477800  1
  O  O27  1  0.34360400  0.59439400  0.96522200  1
  O  O28  1  0.37304600  0.42576300  0.43995800  1
  O  O29  1  0.87304600  0.57423700  0.06004200  1
  O  O30  1  0.62695400  0.57423700  0.56004200  1
  O  O31  1  0.12695400  0.42576300  0.93995800  1
  O  O32  1  0.94524000  0.47175500  0.39560600  1
  O  O33  1  0.44524000  0.52824500  0.10439400  1
  O  O34  1  0.05476000  0.52824500  0.60439400  1
  O  O35  1  0.55476000  0.47175500  0.89560600  1
  O  O36  1  0.29275100  0.75108700  0.57837900  1
  O  O37  1  0.79275100  0.24891300  0.92162100  1
  O  O38  1  0.70724900  0.24891300  0.42162100  1
  O  O39  1  0.20724900  0.75108700  0.07837900  1
  O  O40  1  0.82552200  0.22378800  0.67365000  1
  O  O41  1  0.32552200  0.77621200  0.82635000  1
  O  O42  1  0.17447800  0.77621200  0.32635000  1
  O  O43  1  0.67447800  0.22378800  0.17365000  1
  O  O44  1  0.33475900  0.57032200  0.35953000  1
  O  O45  1  0.83475900  0.42967800  0.14047000  1
  O  O46  1  0.66524100  0.42967800  0.64047000  1
  O  O47  1  0.16524100  0.57032200  0.85953000  1
  O  O48  1  0.74294300  0.73051200  0.43963300  1
  O  O49  1  0.24294300  0.26948800  0.06036700  1
  O  O50  1  0.25705700  0.26948800  0.56036700  1
  O  O51  1  0.75705700  0.73051200  0.93963300  1
loop_
_geom_bond_atom_site_label_1
_geom_bond_atom_site_label_2
_geom_bond_distance
_geom_bond_site_symmetry_2
H0 O40 0.982576 1_555
H1 O41 0.982576 1_555
H2 O42 0.982576 1_555
H3 O43 0.982576 1_555
H4 O44 0.969443 1_555
H5 O45 0.969443 1_555
H6 O46 0.969443 1_555
H7 O47 0.969443 1_555
H8 N0 1.052071 1_555
H9 N1 1.052071 1_655
H10 N2 1.052071 1_555
H11 N3 1.052071 1_455
H12 N0 1.036015 1_555
H13 N1 1.036015 1_655
H14 N2 1.036015 1_555
H15 N3 1.036015 1_455
C0 H16 1.094603 1_555
C0 H24 1.095044 1_555
C0 H20 1.095951 1_555
C0 N0 1.487795 1_555
C1 H17 1.094603 1_555
C1 H25 1.095044 1_655
C1 H21 1.095951 1_655
C1 N1 1.487795 1_655
C2 H18 1.094603 1_555
C2 H26 1.095044 1_555
C2 H22 1.095951 1_555
C2 N2 1.487795 1_555
C3 H19 1.094603 1_555
C3 H27 1.095044 1_455
C3 H23 1.095951 1_455
C3 N3 1.487795 1_455
C4 H28 1.090750 1_555
C4 H32 1.095635 1_555
C4 H36 1.096360 1_555
C4 N0 1.491398 1_555
C5 H29 1.090750 1_555
C5 H33 1.095635 1_555
C5 H37 1.096360 1_555
C5 N1 1.491398 1_555
C6 H30 1.090750 1_555
C6 H34 1.095635 1_555
C6 H38 1.096360 1_555
C6 N2 1.491398 1_555
C7 H31 1.090750 1_555
C7 H35 1.095635 1_555
C7 H39 1.096360 1_555
C7 N3 1.491398 1_555
O0 P0 1.538190 1_655
O0 Zn0 1.907283 1_555
O1 P1 1.538190 1_555
O1 Zn1 1.907283 1_555
O2 P2 1.538190 1_455
O2 Zn2 1.907283 1_555
O3 P3 1.538190 1_555
O3 Zn3 1.907283 1_555
O4 P0 1.547468 1_555
O4 Zn2 1.921732 1_565
O5 P1 1.547468 1_554
O5 Zn3 1.921732 1_545
O6 P2 1.547468 1_555
O6 Zn0 1.921732 1_545
O7 P3 1.547468 1_556
O7 Zn1 1.921732 1_565
O8 P4 1.572507 1_555
O8 Zn4 1.986555 1_645
O8 Zn0 2.172023 1_545
O9 P5 1.572507 1_555
O9 Zn5 1.986555 1_565
O9 Zn1 2.172023 1_565
O10 P6 1.572507 1_555
O10 Zn6 1.986555 1_465
O10 Zn2 2.172023 1_565
O11 P7 1.572507 1_555
O11 Zn7 1.986555 1_545
O11 Zn3 2.172023 1_545
O12 P0 1.615312 1_555
O12 Zn4 1.967190 1_555
O12 Zn0 2.030588 1_555
O13 P1 1.615312 1_555
O13 Zn5 1.967190 1_555
O13 Zn1 2.030588 1_655
O14 P2 1.615312 1_555
O14 Zn6 1.967190 1_555
O14 Zn2 2.030588 1_555
O15 P3 1.615312 1_555
O15 Zn7 1.967190 1_555
O15 Zn3 2.030588 1_455
O16 P4 1.525815 1_555
O16 Zn5 1.990993 1_555
O17 P5 1.525815 1_555
O17 Zn4 1.990993 1_555
O18 P6 1.525815 1_555
O18 Zn7 1.990993 1_555
O19 P7 1.525815 1_555
O19 Zn6 1.990993 1_555
O20 P4 1.523780 1_555
O20 Zn4 1.941989 1_545
O21 P5 1.523780 1_655
O21 Zn5 1.941989 1_565
O22 P6 1.523780 1_555
O22 Zn6 1.941989 1_565
O23 P7 1.523780 1_455
O23 Zn7 1.941989 1_545
O24 P8 1.535092 1_555
O24 Zn8 1.934519 1_555
O25 P9 1.535092 1_555
O25 Zn9 1.934519 1_554
O26 P10 1.535092 1_555
O26 Zn10 1.934519 1_555
O27 P11 1.535092 1_555
O27 Zn11 1.934519 1_556
O28 P8 1.523294 1_555
O28 Zn10 1.932657 1_555
O29 P9 1.523294 1_555
O29 Zn11 1.932657 1_655
O30 P10 1.523294 1_555
O30 Zn8 1.932657 1_555
O31 P11 1.523294 1_555
O31 Zn9 1.932657 1_455
O32 P8 1.541816 1_655
O32 Zn10 1.987399 1_555
O33 P9 1.541816 1_555
O33 Zn11 1.987399 1_555
O34 P10 1.541816 1_455
O34 Zn8 1.987399 1_555
O35 P11 1.541816 1_555
O35 Zn9 1.987399 1_555
O36 P0 1.534934 1_555
O36 Zn8 2.011504 1_555
O37 P1 1.534934 1_555
O37 Zn9 2.011504 1_555
O38 P2 1.534934 1_555
O38 Zn10 2.011504 1_555
O39 P3 1.534934 1_555
O39 Zn11 2.011504 1_555
O40 P4 1.611001 1_555
O41 P5 1.611001 1_555
O42 P6 1.611001 1_555
O43 P7 1.611001 1_555
O44 P8 1.642163 1_555
O45 P9 1.642163 1_555
O46 P10 1.642163 1_555
O47 P11 1.642163 1_555
