# generated using pymatgen
data_LiCoSiO4
_symmetry_space_group_name_H-M   'P 1'
_cell_length_a   10.08304100
_cell_length_b   5.08608000
_cell_length_c   8.44482438
_cell_angle_alpha   53.46327611
_cell_angle_beta   90.00000000
_cell_angle_gamma   90.00000000
_symmetry_Int_Tables_number   1
_chemical_formula_structural   LiCoSiO4
_chemical_formula_sum   'Li4 Co4 Si4 O16'
_cell_volume   347.96691243
_cell_formula_units_Z   4
loop_
 _symmetry_equiv_pos_site_id
 _symmetry_equiv_pos_as_xyz
  1  'x, y, z'
loop_
 _atom_site_type_symbol
 _atom_site_label
 _atom_site_symmetry_multiplicity
 _atom_site_fract_x
 _atom_site_fract_y
 _atom_site_fract_z
 _atom_site_occupancy
  Li  Li0  1  0.14048700  0.79303800  0.50840500  1
  Li  Li1  1  0.64048700  0.20696200  0.99159500  1
  Li  Li2  1  0.35951300  0.79303800  0.00840500  1
  Li  Li3  1  0.85951300  0.20696200  0.49159500  1
  Co  Co0  1  0.17639100  0.30107500  0.00447300  1
  Co  Co1  1  0.67639100  0.69892500  0.49552700  1
  Co  Co2  1  0.32360900  0.30107500  0.50447300  1
  Co  Co3  1  0.82360900  0.69892500  0.99552700  1
  Si  Si0  1  0.40718100  0.02933900  0.27209900  1
  Si  Si1  1  0.90718100  0.97066100  0.22790100  1
  Si  Si2  1  0.09281900  0.02933900  0.77209900  1
  Si  Si3  1  0.59281900  0.97066100  0.72790100  1
  O  O0  1  0.62422800  0.65960600  0.72081800  1
  O  O1  1  0.82502400  0.28920100  0.04720800  1
  O  O2  1  0.85023200  0.87055400  0.44039900  1
  O  O3  1  0.06633800  0.03706300  0.22253100  1
  O  O4  1  0.56633800  0.96293700  0.27746900  1
  O  O5  1  0.35023200  0.12944600  0.05960100  1
  O  O6  1  0.32502400  0.71079900  0.45279200  1
  O  O7  1  0.12422800  0.34039400  0.77918200  1
  O  O8  1  0.87577200  0.65960600  0.22081800  1
  O  O9  1  0.67497600  0.28920100  0.54720800  1
  O  O10  1  0.64976800  0.87055400  0.94039900  1
  O  O11  1  0.43366200  0.03706300  0.72253100  1
  O  O12  1  0.93366200  0.96293700  0.77746900  1
  O  O13  1  0.14976800  0.12944600  0.55960100  1
  O  O14  1  0.17497600  0.71079900  0.95279200  1
  O  O15  1  0.37577200  0.34039400  0.27918200  1
loop_
_geom_bond_atom_site_label_1
_geom_bond_atom_site_label_2
_geom_bond_distance
_geom_bond_site_symmetry_2
Li0 O13 2.000993 1_565
Li0 O6 2.022769 1_555
Li0 O7 2.070666 1_555
Li0 O3 2.088044 1_565
Li1 O10 2.000993 1_545
Li1 O1 2.022769 1_556
Li1 O0 2.070666 1_555
Li1 O4 2.088044 1_546
Li2 O5 2.000993 1_565
Li2 O14 2.022769 1_554
Li2 O15 2.070666 1_555
Li2 O11 2.088044 1_564
Li3 O2 2.000993 1_545
Li3 O9 2.022769 1_555
Li3 O8 2.070666 1_555
Li3 O12 2.088044 1_545
Co0 O14 1.857517 1_554
Co0 O3 1.865811 1_555
Co0 O7 1.866355 1_554
Co0 O5 1.888734 1_555
Co1 O9 1.857517 1_555
Co1 O4 1.865811 1_555
Co1 O0 1.866355 1_555
Co1 O2 1.888734 1_555
Co2 O6 1.857517 1_555
Co2 O11 1.865811 1_555
Co2 O15 1.866355 1_555
Co2 O13 1.888734 1_555
Co3 O1 1.857517 1_556
Co3 O12 1.865811 1_555
Co3 O8 1.866355 1_556
Co3 O10 1.888734 1_555
O0 Si3 1.649070 1_555
O1 Si1 1.641919 1_545
O2 Si1 1.649645 1_555
O3 Si1 1.634998 1_445
O4 Si0 1.634998 1_565
O5 Si0 1.649645 1_555
O6 Si0 1.641919 1_565
O7 Si2 1.649070 1_555
O8 Si1 1.649070 1_555
O9 Si3 1.641919 1_545
O10 Si3 1.649645 1_555
O11 Si3 1.634998 1_545
O12 Si2 1.634998 1_665
O13 Si2 1.649645 1_555
O14 Si2 1.641919 1_565
O15 Si0 1.649070 1_555
