# generated using pymatgen
data_LiMn2(PO4)3
_symmetry_space_group_name_H-M   'P 1'
_cell_length_a   8.48962600
_cell_length_b   8.50129185
_cell_length_c   11.82747724
_cell_angle_alpha   89.90903450
_cell_angle_beta   89.98634393
_cell_angle_gamma   89.96219053
_symmetry_Int_Tables_number   1
_chemical_formula_structural   LiMn2(PO4)3
_chemical_formula_sum   'Li4 Mn8 P12 O48'
_cell_volume   853.62072557
_cell_formula_units_Z   4
loop_
 _symmetry_equiv_pos_site_id
 _symmetry_equiv_pos_as_xyz
  1  'x, y, z'
loop_
 _atom_site_type_symbol
 _atom_site_label
 _atom_site_symmetry_multiplicity
 _atom_site_fract_x
 _atom_site_fract_y
 _atom_site_fract_z
 _atom_site_occupancy
  Li  Li0  1  0.28707700  0.72419400  0.31862400  1
  Li  Li1  1  0.78770700  0.77427500  0.81852000  1
  Li  Li2  1  0.93680700  0.08291600  0.28907800  1
  Li  Li3  1  0.93855200  0.41604400  0.71099100  1
  Mn  Mn0  1  0.25001000  0.53157500  0.11652200  1
  Mn  Mn1  1  0.25185800  0.96527200  0.87923700  1
  Mn  Mn2  1  0.25513800  0.04033900  0.38388500  1
  Mn  Mn3  1  0.25786900  0.46545000  0.61841400  1
  Mn  Mn4  1  0.75060600  0.53602600  0.37920400  1
  Mn  Mn5  1  0.74892800  0.96718600  0.61661600  1
  Mn  Mn6  1  0.74461100  0.03498800  0.11424900  1
  Mn  Mn7  1  0.74190400  0.45899500  0.88788600  1
  P  P0  1  0.03799600  0.74920800  0.50169300  1
  P  P1  1  0.10936600  0.60796400  0.85428500  1
  P  P2  1  0.10676000  0.89587900  0.14403100  1
  P  P3  1  0.39896000  0.39115800  0.35455200  1
  P  P4  1  0.39589900  0.10782200  0.64684900  1
  P  P5  1  0.45779000  0.24779600  0.00040000  1
  P  P6  1  0.53484100  0.75044200  0.00149600  1
  P  P7  1  0.60973300  0.89311800  0.35372800  1
  P  P8  1  0.60802000  0.60356800  0.64466300  1
  P  P9  1  0.89451100  0.39534800  0.14710100  1
  P  P10  1  0.89768100  0.10637100  0.85442700  1
  P  P11  1  0.95934400  0.25162200  0.50015100  1
  O  O0  1  0.05893200  0.35555700  0.57925600  1
  O  O1  1  0.05712400  0.14381600  0.42119300  1
  O  O2  1  0.07506700  0.40390700  0.15966600  1
  O  O3  1  0.07665700  0.09882300  0.83970300  1
  O  O4  1  0.15731000  0.93440800  0.02454700  1
  O  O5  1  0.15784200  0.56569100  0.97411200  1
  O  O6  1  0.14978100  0.84243300  0.42020300  1
  O  O7  1  0.14569000  0.65413500  0.58100200  1
  O  O8  1  0.15925600  0.72814300  0.17983000  1
  O  O9  1  0.15063600  0.77709200  0.82163100  1
  O  O10  1  0.17223500  0.01812500  0.23039900  1
  O  O11  1  0.17207800  0.48210600  0.77055700  1
  O  O12  1  0.31994500  0.51364100  0.27414800  1
  O  O13  1  0.31867700  0.98525000  0.72565800  1
  O  O14  1  0.34966100  0.27733400  0.67857500  1
  O  O15  1  0.34967500  0.22359200  0.32136400  1
  O  O16  1  0.35158300  0.34112900  0.08168400  1
  O  O17  1  0.35073900  0.15599500  0.91989800  1
  O  O18  1  0.34470700  0.43581200  0.47364700  1
  O  O19  1  0.34587500  0.06799500  0.52558700  1
  O  O20  1  0.42725600  0.90285700  0.33821700  1
  O  O21  1  0.42818400  0.59747700  0.66263800  1
  O  O22  1  0.44058300  0.64144400  0.07851900  1
  O  O23  1  0.44090800  0.85637200  0.92154300  1
  O  O24  1  0.55453500  0.35529000  0.92087600  1
  O  O25  1  0.55832500  0.14402400  0.07862700  1
  O  O26  1  0.57848700  0.39938200  0.34035300  1
  O  O27  1  0.57688000  0.09859600  0.65922800  1
  O  O28  1  0.65636900  0.93335700  0.47458800  1
  O  O29  1  0.65576200  0.56635500  0.52395300  1
  O  O30  1  0.64661800  0.84233400  0.08034100  1
  O  O31  1  0.64807600  0.65806700  0.92036000  1
  O  O32  1  0.64858300  0.72270600  0.32156200  1
  O  O33  1  0.65903400  0.77251000  0.67989500  1
  O  O34  1  0.69214300  0.01526500  0.27630700  1
  O  O35  1  0.69369200  0.48457200  0.72394300  1
  O  O36  1  0.81720100  0.51701700  0.22576400  1
  O  O37  1  0.81832600  0.98518000  0.77422200  1
  O  O38  1  0.85053300  0.22330200  0.17745000  1
  O  O39  1  0.85042800  0.27661500  0.82305600  1
  O  O40  1  0.85346000  0.34321500  0.41838900  1
  O  O41  1  0.85310700  0.15914300  0.58189000  1
  O  O42  1  0.84362400  0.43246500  0.02597900  1
  O  O43  1  0.84293700  0.06406200  0.97337400  1
  O  O44  1  0.92559500  0.90768200  0.16126300  1
  O  O45  1  0.92539600  0.59517900  0.83935600  1
  O  O46  1  0.94058800  0.64492900  0.42205500  1
  O  O47  1  0.94128800  0.85806500  0.57797000  1
loop_
_geom_bond_atom_site_label_1
_geom_bond_atom_site_label_2
_geom_bond_distance
_geom_bond_site_symmetry_2
Li0 O12 1.887019 1_555
Li0 O20 1.944364 1_555
Li0 O6 1.952956 1_555
Li0 O8 1.968274 1_555
Li1 O37 1.885303 1_555
Li1 O45 1.934392 1_555
Li1 O31 1.956814 1_555
Li1 O33 1.970462 1_555
Li2 O38 1.923083 1_555
Li2 O1 1.938324 1_655
Li2 O44 2.126275 1_545
Li2 O34 2.161007 1_555
Li2 O10 2.186079 1_655
Li3 O39 1.928012 1_555
Li3 O0 1.933290 1_655
Li3 O45 2.154926 1_555
Li3 O35 2.163950 1_555
Li3 O11 2.178449 1_655
Mn0 O5 1.879414 1_554
Mn0 O16 1.880095 1_555
Mn0 O2 1.908976 1_555
Mn0 O22 1.921545 1_555
Mn0 O12 1.962381 1_555
Mn0 O8 1.987158 1_555
Mn1 O17 1.889274 1_565
Mn1 O13 1.910181 1_555
Mn1 O4 1.914441 1_556
Mn1 O23 1.918416 1_555
Mn1 O3 1.927802 1_565
Mn1 O9 1.941006 1_555
Mn2 O19 1.860022 1_555
Mn2 O15 1.901492 1_555
Mn2 O20 1.947386 1_545
Mn2 O1 1.947683 1_555
Mn2 O6 1.953128 1_545
Mn2 O10 1.956629 1_555
Mn3 O18 1.881284 1_555
Mn3 O21 1.904835 1_555
Mn3 O14 1.914713 1_555
Mn3 O7 1.916179 1_555
Mn3 O11 1.946446 1_555
Mn3 O0 1.985826 1_555
Mn4 O36 1.907775 1_555
Mn4 O29 1.909523 1_555
Mn4 O40 1.913097 1_555
Mn4 O26 1.923543 1_555
Mn4 O46 1.928528 1_555
Mn4 O32 1.930973 1_555
Mn5 O28 1.877359 1_555
Mn5 O41 1.900940 1_565
Mn5 O27 1.906501 1_565
Mn5 O47 1.932715 1_555
Mn5 O37 1.961342 1_555
Mn5 O33 1.969530 1_555
Mn6 O43 1.879471 1_554
Mn6 O25 1.880165 1_555
Mn6 O30 1.881327 1_545
Mn6 O44 1.958977 1_545
Mn6 O34 1.974608 1_555
Mn6 O38 1.984021 1_555
Mn7 O24 1.860182 1_555
Mn7 O42 1.861048 1_556
Mn7 O31 1.909526 1_555
Mn7 O39 1.960175 1_555
Mn7 O35 1.993383 1_555
Mn7 O45 2.023942 1_555
O0 P11 1.541067 1_455
O1 P11 1.550004 1_455
O2 P9 1.541852 1_455
O3 P10 1.530660 1_455
O4 P2 1.512284 1_555
O5 P1 1.518415 1_555
O6 P0 1.567104 1_555
O7 P0 1.538209 1_555
O8 P2 1.551977 1_555
O9 P1 1.529066 1_555
O10 P2 1.561062 1_545
O11 P1 1.552834 1_555
O12 P3 1.560387 1_555
O13 P4 1.543359 1_565
O14 P4 1.540286 1_555
O15 P3 1.536576 1_555
O16 P5 1.538791 1_555
O17 P5 1.531436 1_556
O18 P3 1.530210 1_555
O19 P4 1.534280 1_555
O20 P7 1.562156 1_555
O21 P8 1.542313 1_555
O22 P6 1.525394 1_555
O23 P6 1.529006 1_556
O24 P5 1.546688 1_556
O25 P5 1.536092 1_555
O26 P3 1.534929 1_555
O27 P4 1.545384 1_555
O28 P7 1.522878 1_555
O29 P8 1.517782 1_555
O30 P6 1.544057 1_555
O31 P6 1.569300 1_556
O32 P7 1.534071 1_555
O33 P8 1.557806 1_555
O34 P7 1.550453 1_545
O35 P8 1.558192 1_555
O36 P9 1.538871 1_555
O37 P10 1.555490 1_565
O38 P9 1.551280 1_555
O39 P10 1.546240 1_555
O40 P11 1.531869 1_555
O41 P11 1.537623 1_555
O42 P9 1.528768 1_555
O43 P10 1.524099 1_555
O44 P2 1.554617 1_655
O45 P1 1.575672 1_655
O46 P0 1.536538 1_655
O47 P0 1.531559 1_655
