# generated using pymatgen
data_Li6MnV3(PO4)6
_symmetry_space_group_name_H-M   'P 1'
_cell_length_a   8.99750723
_cell_length_b   8.45606921
_cell_length_c   14.57644128
_cell_angle_alpha   89.74242108
_cell_angle_beta   74.44085127
_cell_angle_gamma   61.98595244
_symmetry_Int_Tables_number   1
_chemical_formula_structural   Li6MnV3(PO4)6
_chemical_formula_sum   'Li12 Mn2 V6 P12 O48'
_cell_volume   933.53275489
_cell_formula_units_Z   2
loop_
 _symmetry_equiv_pos_site_id
 _symmetry_equiv_pos_as_xyz
  1  'x, y, z'
loop_
 _atom_site_type_symbol
 _atom_site_label
 _atom_site_symmetry_multiplicity
 _atom_site_fract_x
 _atom_site_fract_y
 _atom_site_fract_z
 _atom_site_occupancy
  Li  Li0  1  0.15131300  0.25378500  0.33082500  1
  Li  Li1  1  0.15142600  0.79438500  0.13173100  1
  Li  Li2  1  0.15045100  0.29510700  0.63260500  1
  Li  Li3  1  0.15058100  0.72527500  0.46128500  1
  Li  Li4  1  0.15073600  0.22513000  0.96054000  1
  Li  Li5  1  0.14883200  0.75344800  0.83192900  1
  Li  Li6  1  0.84884800  0.24671600  0.16839700  1
  Li  Li7  1  0.84840300  0.77606200  0.03821400  1
  Li  Li8  1  0.84943600  0.27454500  0.53898100  1
  Li  Li9  1  0.84975500  0.70487300  0.36820500  1
  Li  Li10  1  0.84881600  0.20544200  0.86857800  1
  Li  Li11  1  0.84928200  0.74622400  0.66904200  1
  Mn  Mn0  1  0.04272100  0.47893700  0.82639600  1
  Mn  Mn1  1  0.56139300  0.21751600  0.07197700  1
  V  V0  1  0.04602000  0.97728500  0.32524500  1
  V  V1  1  0.43705900  0.28137200  0.42615500  1
  V  V2  1  0.56014300  0.71929400  0.57491900  1
  V  V3  1  0.43843700  0.78176600  0.92809100  1
  V  V4  1  0.95355900  0.52359900  0.17386300  1
  V  V5  1  0.95355200  0.02199900  0.67503500  1
  P  P0  1  0.24994900  0.08334700  0.12537600  1
  P  P1  1  0.25010900  0.01901000  0.47962300  1
  P  P2  1  0.25059000  0.52178700  0.27040800  1
  P  P3  1  0.25163600  0.01883200  0.76875800  1
  P  P4  1  0.25065900  0.58397600  0.62552700  1
  P  P5  1  0.25234800  0.51760800  0.97959500  1
  P  P6  1  0.75119600  0.47878300  0.02086100  1
  P  P7  1  0.74907700  0.41691400  0.37496100  1
  P  P8  1  0.74833900  0.98046200  0.22934400  1
  P  P9  1  0.74923500  0.47933300  0.73008700  1
  P  P10  1  0.74955700  0.98069000  0.52068600  1
  P  P11  1  0.74984900  0.91772600  0.87478700  1
  O  O0  1  0.09650100  0.26120100  0.10484600  1
  O  O1  1  0.19061100  0.06667000  0.23435100  1
  O  O2  1  0.09855000  0.61487500  0.07849400  1
  O  O3  1  0.09766900  0.11405600  0.57813300  1
  O  O4  1  0.09658500  0.47913700  0.26886700  1
  O  O5  1  0.42084000  0.08817200  0.09971500  1
  O  O6  1  0.26604800  0.17659400  0.43134400  1
  O  O7  1  0.18950300  0.72323800  0.25493600  1
  O  O8  1  0.19873300  0.21316000  0.74972700  1
  O  O9  1  0.26402300  0.49842500  0.37477200  1
  O  O10  1  0.42069500  0.39543100  0.19569600  1
  O  O11  1  0.09769400  0.76109000  0.60390700  1
  O  O12  1  0.26411200  0.92579500  0.06252200  1
  O  O13  1  0.26738800  0.42584800  0.56165500  1
  O  O14  1  0.57746700  0.10899300  0.30778600  1
  O  O15  1  0.19610200  0.56676400  0.73306400  1
  O  O16  1  0.19303400  0.92313400  0.41697600  1
  O  O17  1  0.19538600  0.42244900  0.91713300  1
  O  O18  1  0.73155600  0.00415500  0.12692500  1
  O  O19  1  0.57826400  0.61816600  0.00292700  1
  O  O20  1  0.57768500  0.11683300  0.50238300  1
  O  O21  1  0.09965000  0.97418600  0.76776600  1
  O  O22  1  0.73602600  0.32390400  0.06971400  1
  O  O23  1  0.57823400  0.40803600  0.40117000  1
  O  O24  1  0.42243800  0.59317500  0.59772400  1
  O  O25  1  0.26948700  0.67679900  0.93235500  1
  O  O26  1  0.90103300  0.02335100  0.23164800  1
  O  O27  1  0.42179800  0.88342900  0.49773500  1
  O  O28  1  0.42394900  0.38246700  0.99670800  1
  O  O29  1  0.26897400  0.99425600  0.87194400  1
  O  O30  1  0.80740500  0.57811800  0.08324100  1
  O  O31  1  0.80708400  0.07644500  0.58317500  1
  O  O32  1  0.80753400  0.43406300  0.26665900  1
  O  O33  1  0.42494800  0.88521900  0.69216300  1
  O  O34  1  0.73280200  0.57485700  0.43856200  1
  O  O35  1  0.73443400  0.07754800  0.93408800  1
  O  O36  1  0.90228600  0.23937900  0.39568600  1
  O  O37  1  0.57907600  0.60838700  0.80669300  1
  O  O38  1  0.73139900  0.50398400  0.62669400  1
  O  O39  1  0.80622500  0.78067900  0.24608400  1
  O  O40  1  0.80741400  0.27900800  0.74611100  1
  O  O41  1  0.73340700  0.82307300  0.56854900  1
  O  O42  1  0.57823100  0.90651600  0.90056600  1
  O  O43  1  0.90287700  0.52089500  0.72879900  1
  O  O44  1  0.90157800  0.88588900  0.42208300  1
  O  O45  1  0.90266000  0.38288100  0.92283500  1
  O  O46  1  0.80636200  0.93223300  0.76522200  1
  O  O47  1  0.90092600  0.74580400  0.89784600  1
loop_
_geom_bond_atom_site_label_1
_geom_bond_atom_site_label_2
_geom_bond_distance
_geom_bond_site_symmetry_2
Li0 O6 1.951529 1_555
Li0 O1 1.958011 1_555
Li0 O4 2.007744 1_555
Li0 O36 2.246779 1_455
Li1 O12 1.944233 1_555
Li1 O7 1.957367 1_555
Li1 O2 2.004926 1_555
Li1 O26 2.261206 1_465
Li2 O8 1.920405 1_555
Li2 O13 1.974204 1_555
Li2 O3 2.023882 1_555
Li2 O43 2.219614 1_455
Li3 O9 1.950325 1_555
Li3 O16 1.954639 1_555
Li3 O11 1.994906 1_555
Li3 O44 2.238751 1_455
Li4 O17 1.956934 1_555
Li4 O29 1.986343 1_545
Li4 O0 2.017680 1_556
Li4 O45 2.217694 1_455
Li5 O15 1.952082 1_555
Li5 O25 1.981036 1_555
Li5 O21 1.996264 1_555
Li5 O47 2.210839 1_455
Li6 O22 1.917841 1_555
Li6 O32 1.970032 1_555
Li6 O26 2.005372 1_555
Li6 O0 2.232999 1_655
Li7 O30 1.951614 1_555
Li7 O47 1.961525 1_554
Li7 O18 1.971245 1_565
Li7 O2 2.255694 1_655
Li8 O31 1.955647 1_555
Li8 O38 1.971052 1_555
Li8 O36 2.004311 1_555
Li8 O3 2.232797 1_655
Li9 O39 1.964928 1_555
Li9 O34 1.966086 1_555
Li9 O44 2.013677 1_555
Li9 O4 2.233828 1_655
Li10 O35 1.910402 1_555
Li10 O40 1.959981 1_555
Li10 O45 2.002635 1_555
Li10 O21 2.275477 1_645
Li11 O46 1.935834 1_555
Li11 O41 1.956861 1_555
Li11 O43 1.992257 1_555
Li11 O11 2.244392 1_655
Mn0 O17 2.053506 1_555
Mn0 O45 2.055454 1_455
Mn0 O15 2.062379 1_555
Mn0 O43 2.066225 1_455
Mn0 O47 2.099675 1_455
Mn0 O8 2.118445 1_555
Mn1 O28 1.942264 1_554
Mn1 O5 1.995011 1_555
Mn1 O10 2.031934 1_555
Mn1 O18 2.071414 1_555
Mn1 O35 2.115727 1_554
Mn1 O22 2.139872 1_555
O0 P0 1.588918 1_555
O0 V4 2.057851 1_455
O1 P0 1.562661 1_555
O1 V0 2.002301 1_545
O2 P5 1.594021 1_554
O2 V4 2.047783 1_455
O3 P1 1.583463 1_555
O3 V5 2.058701 1_455
O4 P2 1.592748 1_555
O4 V4 2.052313 1_455
O5 P0 1.502007 1_555
O6 P1 1.551908 1_555
O6 V1 2.091852 1_555
O7 P2 1.561516 1_555
O7 V0 2.009154 1_555
O8 P3 1.528324 1_555
O9 P2 1.562485 1_555
O9 V1 2.069428 1_555
O10 P2 1.500077 1_555
O11 P4 1.590196 1_555
O11 V5 2.058125 1_465
O12 P0 1.555456 1_565
O12 V3 2.088391 1_554
O13 P4 1.557037 1_555
O13 V1 2.091957 1_555
O14 P8 1.533223 1_545
O14 V1 1.954774 1_555
O15 P4 1.539967 1_555
O16 P1 1.550552 1_565
O16 V0 2.030170 1_555
O17 P5 1.543844 1_555
O18 P8 1.543223 1_545
O19 P6 1.539879 1_555
O19 V3 1.942753 1_554
O20 P10 1.527789 1_545
O20 V1 1.964181 1_555
O21 P3 1.583796 1_565
O21 V5 2.041450 1_465
O22 P6 1.532431 1_555
O23 P7 1.519065 1_555
O23 V1 1.979814 1_555
O24 P4 1.528314 1_555
O24 V2 1.949385 1_555
O25 P5 1.561955 1_555
O25 V3 2.078173 1_555
O26 P8 1.585271 1_545
O26 V0 2.046342 1_645
O27 P1 1.524082 1_565
O27 V2 1.963648 1_555
O28 P5 1.516120 1_555
O29 P3 1.556407 1_565
O29 V3 2.075060 1_555
O30 P6 1.562293 1_555
O30 V4 2.010878 1_555
O31 P10 1.551282 1_545
O31 V5 2.027987 1_555
O32 P7 1.553699 1_555
O32 V4 2.025076 1_555
O33 P3 1.541764 1_565
O33 V2 1.916256 1_555
O34 P7 1.555399 1_555
O34 V2 2.106810 1_555
O35 P11 1.537201 1_545
O36 P7 1.587636 1_555
O36 V0 2.062605 1_645
O37 P9 1.518593 1_555
O37 V3 1.990314 1_555
O38 P9 1.560789 1_555
O38 V2 2.057879 1_555
O39 P8 1.556515 1_555
O39 V4 2.038668 1_555
O40 P9 1.557928 1_555
O40 V5 2.032367 1_555
O41 P10 1.550308 1_555
O41 V2 2.101378 1_555
O42 P11 1.536372 1_555
O42 V3 1.956452 1_555
O43 P9 1.573942 1_555
O44 P10 1.582718 1_555
O44 V0 2.056298 1_655
O45 P6 1.576118 1_556
O46 P11 1.563780 1_555
O46 V5 2.014851 1_565
O47 P11 1.567982 1_555
