# generated using pymatgen
data_Mg10FeO11
_symmetry_space_group_name_H-M   'P 1'
_cell_length_a   6.76158000
_cell_length_b   6.76643581
_cell_length_c   5.22244840
_cell_angle_alpha   104.98229575
_cell_angle_beta   97.68925098
_cell_angle_gamma   107.45998433
_symmetry_Int_Tables_number   1
_chemical_formula_structural   Mg10FeO11
_chemical_formula_sum   'Mg10 Fe1 O11'
_cell_volume   214.30930123
_cell_formula_units_Z   1
loop_
 _symmetry_equiv_pos_site_id
 _symmetry_equiv_pos_as_xyz
  1  'x, y, z'
loop_
 _atom_site_type_symbol
 _atom_site_label
 _atom_site_symmetry_multiplicity
 _atom_site_fract_x
 _atom_site_fract_y
 _atom_site_fract_z
 _atom_site_occupancy
  Mg  Mg0  1  0.81622600  0.95302100  0.09116200  1
  Mg  Mg1  1  0.18377400  0.04697900  0.90883800  1
  Mg  Mg2  1  0.63853800  0.40912700  0.18198700  1
  Mg  Mg3  1  0.45686100  0.86400400  0.27365300  1
  Mg  Mg4  1  0.09082600  0.77336300  0.45406500  1
  Mg  Mg5  1  0.27312800  0.32076300  0.36382800  1
  Mg  Mg6  1  0.72687200  0.67923700  0.63617200  1
  Mg  Mg7  1  0.90917400  0.22663700  0.54593500  1
  Mg  Mg8  1  0.36146200  0.59087300  0.81801300  1
  Mg  Mg9  1  0.54313900  0.13599600  0.72634700  1
  Fe  Fe0  1  0.00000000  0.50000000  0.00000000  1
  O  O0  1  0.67425100  0.54637600  0.90599700  1
  O  O1  1  0.13718200  0.91109900  0.18169100  1
  O  O2  1  0.50000000  0.00000000  0.00000000  1
  O  O3  1  0.77346300  0.81774100  0.36353500  1
  O  O4  1  0.32574900  0.45362400  0.09400300  1
  O  O5  1  0.95335800  0.35900700  0.27843000  1
  O  O6  1  0.40895000  0.72825000  0.54415200  1
  O  O7  1  0.04664200  0.64099300  0.72157000  1
  O  O8  1  0.59105000  0.27175000  0.45584800  1
  O  O9  1  0.86281800  0.08890100  0.81830900  1
  O  O10  1  0.22653700  0.18225900  0.63646500  1
loop_
_geom_bond_atom_site_label_1
_geom_bond_atom_site_label_2
_geom_bond_distance
_geom_bond_site_symmetry_2
Mg0 O3 1.889267 1_555
Mg0 O9 1.897054 1_564
Mg0 O2 2.261252 1_565
Mg0 O1 2.275480 1_655
Mg0 O5 2.490461 1_565
Mg0 O0 2.493677 1_554
Mg1 O10 1.889267 1_555
Mg1 O1 1.897054 1_546
Mg1 O2 2.261252 1_556
Mg1 O9 2.275480 1_455
Mg1 O7 2.490461 1_545
Mg1 O4 2.493677 1_556
Mg2 O8 1.908897 1_555
Mg2 O0 1.910209 1_554
Mg2 O4 2.228988 1_555
Mg2 O5 2.265962 1_555
Mg2 O3 2.505035 1_555
Mg2 O2 2.507926 1_555
Mg3 O6 1.886577 1_555
Mg3 O2 1.898618 1_565
Mg3 O3 2.260587 1_555
Mg3 O1 2.284536 1_555
Mg3 O8 2.500015 1_565
Mg3 O4 2.515955 1_555
Mg4 O7 1.855063 1_555
Mg4 O1 1.902547 1_555
Mg4 O3 2.259880 1_455
Mg4 O6 2.266909 1_555
Mg4 O10 2.506856 1_565
Mg4 O5 2.538594 1_455
Mg5 O4 1.875554 1_555
Mg5 O10 1.907261 1_555
Mg5 O5 2.253473 1_455
Mg5 O8 2.279411 1_555
Mg5 O6 2.497826 1_555
Mg5 O1 2.511424 1_545
Mg6 O0 1.875554 1_555
Mg6 O3 1.907261 1_555
Mg6 O7 2.253473 1_655
Mg6 O6 2.279411 1_555
Mg6 O8 2.497826 1_555
Mg6 O9 2.511424 1_565
Mg7 O5 1.855063 1_555
Mg7 O9 1.902547 1_555
Mg7 O10 2.259880 1_655
Mg7 O8 2.266909 1_555
Mg7 O3 2.506856 1_545
Mg7 O7 2.538594 1_655
Mg8 O6 1.908897 1_555
Mg8 O4 1.910209 1_556
Mg8 O0 2.228988 1_555
Mg8 O7 2.265962 1_555
Mg8 O10 2.505035 1_555
Mg8 O2 2.507926 1_566
Mg9 O8 1.886577 1_555
Mg9 O2 1.898618 1_556
Mg9 O10 2.260587 1_555
Mg9 O9 2.284536 1_555
Mg9 O6 2.500015 1_545
Mg9 O0 2.515955 1_555
Fe0 O7 1.945098 1_554
Fe0 O5 1.945098 1_455
Fe0 O0 2.322903 1_454
Fe0 O4 2.322903 1_555
Fe0 O9 2.519901 1_454
Fe0 O1 2.519901 1_555
