# generated using pymatgen
data_TiFe3Cu2(PO4)6
_symmetry_space_group_name_H-M   'P 1'
_cell_length_a   8.54587588
_cell_length_b   8.54587588
_cell_length_c   8.54587627
_cell_angle_alpha   60.58865673
_cell_angle_beta   60.58865673
_cell_angle_gamma   60.58865606
_symmetry_Int_Tables_number   1
_chemical_formula_structural   TiFe3Cu2(PO4)6
_chemical_formula_sum   'Ti1 Fe3 Cu2 P6 O24'
_cell_volume   447.18891206
_cell_formula_units_Z   1
loop_
 _symmetry_equiv_pos_site_id
 _symmetry_equiv_pos_as_xyz
  1  'x, y, z'
loop_
 _atom_site_type_symbol
 _atom_site_label
 _atom_site_symmetry_multiplicity
 _atom_site_fract_x
 _atom_site_fract_y
 _atom_site_fract_z
 _atom_site_occupancy
  Ti  Ti0  1  0.85629000  0.85629000  0.85629000  1
  Fe  Fe0  1  0.14445700  0.14445700  0.14445700  1
  Fe  Fe1  1  0.35620200  0.35620200  0.35620200  1
  Fe  Fe2  1  0.64409500  0.64409500  0.64409500  1
  Cu  Cu0  1  0.00076600  0.00076600  0.00076600  1
  Cu  Cu1  1  0.50059800  0.50059800  0.50059800  1
  P  P0  1  0.04458900  0.45478800  0.74937000  1
  P  P1  1  0.45478800  0.74937000  0.04458900  1
  P  P2  1  0.74937000  0.04458900  0.45478800  1
  P  P3  1  0.95573900  0.54337100  0.25081200  1
  P  P4  1  0.25081200  0.95573900  0.54337100  1
  P  P5  1  0.54337100  0.25081200  0.95573900  1
  O  O0  1  0.50676300  0.31325900  0.11295200  1
  O  O1  1  0.11295200  0.50676300  0.31325900  1
  O  O2  1  0.25932300  0.91167900  0.06015700  1
  O  O3  1  0.31325900  0.11295200  0.50676300  1
  O  O4  1  0.61791100  0.81611200  0.99512700  1
  O  O5  1  0.44764300  0.58739300  0.24024500  1
  O  O6  1  0.91167900  0.06015600  0.25932300  1
  O  O7  1  0.58739300  0.24024500  0.44764300  1
  O  O8  1  0.99491600  0.38737200  0.18513100  1
  O  O9  1  0.24024500  0.44764300  0.58739300  1
  O  O10  1  0.93863000  0.74121000  0.08674400  1
  O  O11  1  0.18513100  0.99491600  0.38737200  1
  O  O12  1  0.81611200  0.99512700  0.61791100  1
  O  O13  1  0.06015700  0.25932300  0.91167900  1
  O  O14  1  0.75783100  0.55962600  0.41189200  1
  O  O15  1  0.99512700  0.61791100  0.81611200  1
  O  O16  1  0.41189200  0.75783100  0.55962600  1
  O  O17  1  0.08674400  0.93863000  0.74121000  1
  O  O18  1  0.55962600  0.41189200  0.75783100  1
  O  O19  1  0.38737200  0.18513100  0.99491600  1
  O  O20  1  0.68440600  0.88814000  0.49446300  1
  O  O21  1  0.74121000  0.08674400  0.93863000  1
  O  O22  1  0.88814000  0.49446300  0.68440600  1
  O  O23  1  0.49446300  0.68440600  0.88814000  1
loop_
_geom_bond_atom_site_label_1
_geom_bond_atom_site_label_2
_geom_bond_distance
_geom_bond_site_symmetry_2
Fe0 O8 1.931392 1_455
Fe0 O19 1.931392 1_554
Fe0 O11 1.931392 1_545
Fe0 O2 2.057903 1_545
Fe0 O13 2.057903 1_554
Fe0 O6 2.057908 1_455
Fe1 O1 1.941669 1_555
Fe1 O3 1.941669 1_555
Fe1 O0 1.941669 1_555
Fe1 O5 2.080637 1_555
Fe1 O7 2.080637 1_555
Fe1 O9 2.080637 1_555
Fe2 O22 1.938340 1_555
Fe2 O20 1.938340 1_555
Fe2 O23 1.938340 1_555
Fe2 O18 2.055968 1_555
Fe2 O16 2.055968 1_555
Fe2 O14 2.055968 1_555
Cu0 O6 2.188439 1_455
Cu0 O13 2.188443 1_554
Cu0 O2 2.188443 1_545
Cu0 O10 2.216952 1_445
Cu0 O21 2.216952 1_454
Cu0 O17 2.216952 1_544
Cu1 O14 2.176789 1_555
Cu1 O16 2.176789 1_555
Cu1 O18 2.176789 1_555
Cu1 O9 2.178008 1_555
Cu1 O7 2.178008 1_555
Cu1 O5 2.178008 1_555
O0 P5 1.521554 1_554
O1 P3 1.521554 1_455
O2 P1 1.555412 1_555
O3 P4 1.521554 1_545
O4 P1 1.553289 1_556
O4 Ti0 1.894361 1_555
O5 P1 1.557282 1_555
O6 P2 1.555412 1_555
O7 P2 1.557282 1_555
O8 P3 1.521983 1_555
O9 P0 1.557282 1_555
O10 P3 1.573557 1_555
O10 Ti0 2.029809 1_554
O11 P4 1.521983 1_555
O12 P2 1.553289 1_565
O12 Ti0 1.894361 1_555
O13 P0 1.555412 1_555
O14 P3 1.563698 1_555
O15 P0 1.553289 1_655
O15 Ti0 1.894361 1_555
O16 P4 1.563698 1_555
O17 P4 1.573557 1_555
O17 Ti0 2.029809 1_455
O18 P5 1.563698 1_555
O19 P5 1.521983 1_555
O20 P2 1.519751 1_565
O21 P5 1.573557 1_555
O21 Ti0 2.029809 1_545
O22 P0 1.519751 1_655
O23 P1 1.519751 1_556
