# generated using pymatgen
data_Li2Bi(BO3)2
_symmetry_space_group_name_H-M   'P 1'
_cell_length_a   6.39880000
_cell_length_b   8.63821400
_cell_length_c   10.51484719
_cell_angle_alpha   63.50795054
_cell_angle_beta   90.00000000
_cell_angle_gamma   90.00000000
_symmetry_Int_Tables_number   1
_chemical_formula_structural   Li2Bi(BO3)2
_chemical_formula_sum   'Li8 Bi4 B8 O24'
_cell_volume   520.17165760
_cell_formula_units_Z   4
loop_
 _symmetry_equiv_pos_site_id
 _symmetry_equiv_pos_as_xyz
  1  'x, y, z'
loop_
 _atom_site_type_symbol
 _atom_site_label
 _atom_site_symmetry_multiplicity
 _atom_site_fract_x
 _atom_site_fract_y
 _atom_site_fract_z
 _atom_site_occupancy
  Li  Li0  1  0.22029100  0.40422200  0.98461500  1
  Li  Li1  1  0.72029100  0.59577800  0.51538500  1
  Li  Li2  1  0.73859000  0.17192700  0.04845300  1
  Li  Li3  1  0.23859000  0.82807300  0.45154700  1
  Li  Li4  1  0.76141000  0.17192700  0.54845300  1
  Li  Li5  1  0.26141000  0.82807300  0.95154700  1
  Li  Li6  1  0.27970900  0.40422200  0.48461500  1
  Li  Li7  1  0.77970900  0.59577800  0.01538500  1
  Bi  Bi0  1  0.47641800  0.19526100  0.29082900  1
  Bi  Bi1  1  0.02358200  0.19526100  0.79082900  1
  Bi  Bi2  1  0.97641800  0.80473900  0.20917100  1
  Bi  Bi3  1  0.52358200  0.80473900  0.70917100  1
  B  B0  1  0.34040900  0.53353000  0.68730600  1
  B  B1  1  0.84040900  0.46647000  0.81269400  1
  B  B2  1  0.82146700  0.94126700  0.38983800  1
  B  B3  1  0.32146700  0.05873300  0.11016200  1
  B  B4  1  0.67853300  0.94126700  0.88983800  1
  B  B5  1  0.17853300  0.05873300  0.61016200  1
  B  B6  1  0.15959100  0.53353000  0.18730600  1
  B  B7  1  0.65959100  0.46647000  0.31269400  1
  O  O0  1  0.77255500  0.61091900  0.82247500  1
  O  O1  1  0.30962500  0.57269600  0.80015100  1
  O  O2  1  0.44896200  0.65932600  0.57101600  1
  O  O3  1  0.94896200  0.34067400  0.92898400  1
  O  O4  1  0.80962500  0.42730400  0.69984900  1
  O  O5  1  0.71191100  0.99319300  0.47845900  1
  O  O6  1  0.43926400  0.20838100  0.05988800  1
  O  O7  1  0.27255500  0.38908100  0.67752500  1
  O  O8  1  0.79713600  0.03869600  0.24467100  1
  O  O9  1  0.29713600  0.96130400  0.25532900  1
  O  O10  1  0.93926400  0.79161900  0.44011200  1
  O  O11  1  0.21191100  0.00680700  0.02154100  1
  O  O12  1  0.78808900  0.99319300  0.97845900  1
  O  O13  1  0.06073600  0.20838100  0.55988800  1
  O  O14  1  0.70286400  0.03869600  0.74467100  1
  O  O15  1  0.20286400  0.96130400  0.75532900  1
  O  O16  1  0.72744500  0.61091900  0.32247500  1
  O  O17  1  0.56073600  0.79161900  0.94011200  1
  O  O18  1  0.28808900  0.00680700  0.52154100  1
  O  O19  1  0.19037500  0.57269600  0.30015100  1
  O  O20  1  0.05103800  0.65932600  0.07101600  1
  O  O21  1  0.55103800  0.34067400  0.42898400  1
  O  O22  1  0.69037500  0.42730400  0.19984900  1
  O  O23  1  0.22744500  0.38908100  0.17752500  1
loop_
_geom_bond_atom_site_label_1
_geom_bond_atom_site_label_2
_geom_bond_distance
_geom_bond_site_symmetry_2
Li0 O1 1.920544 1_555
Li0 O23 1.974082 1_556
Li0 O3 1.986026 1_455
Li0 O6 2.063264 1_556
Li1 O4 1.920544 1_555
Li1 O16 1.974082 1_555
Li1 O2 1.986026 1_555
Li1 O10 2.063264 1_555
Li2 O8 1.898228 1_555
Li2 O6 1.953426 1_555
Li2 O3 1.970094 1_554
Li2 O12 2.009849 1_544
Li3 O9 1.898228 1_555
Li3 O10 1.953426 1_455
Li3 O2 1.970094 1_555
Li3 O18 2.009849 1_565
Li4 O14 1.898228 1_555
Li4 O13 1.953426 1_655
Li4 O21 1.970094 1_555
Li4 O5 2.009849 1_545
Li5 O15 1.898228 1_555
Li5 O17 1.953426 1_555
Li5 O20 1.970094 1_556
Li5 O11 2.009849 1_566
Li6 O19 1.920544 1_555
Li6 O7 1.974082 1_555
Li6 O21 1.986026 1_555
Li6 O13 2.063264 1_555
Li7 O22 1.920544 1_555
Li7 O0 1.974082 1_554
Li7 O20 1.986026 1_655
Li7 O17 2.063264 1_554
Bi0 O23 2.231823 1_555
Bi0 O22 2.257556 1_555
Bi0 O21 2.354568 1_555
Bi0 O6 2.391762 1_555
Bi0 O5 2.477397 1_545
Bi0 O9 2.492533 1_545
Bi0 O18 2.542455 1_555
Bi0 O8 2.619510 1_555
Bi1 O7 2.231823 1_555
Bi1 O4 2.257556 1_455
Bi1 O3 2.354568 1_455
Bi1 O13 2.391762 1_555
Bi1 O12 2.477397 1_445
Bi1 O15 2.492533 1_545
Bi1 O11 2.542455 1_556
Bi1 O14 2.619510 1_455
Bi2 O16 2.231823 1_555
Bi2 O19 2.257556 1_655
Bi2 O20 2.354568 1_655
Bi2 O10 2.391762 1_555
Bi2 O11 2.477397 1_665
Bi2 O8 2.492533 1_565
Bi2 O12 2.542455 1_554
Bi2 O9 2.619510 1_655
Bi3 O0 2.231823 1_555
Bi3 O1 2.257556 1_555
Bi3 O2 2.354568 1_555
Bi3 O17 2.391762 1_555
Bi3 O18 2.477397 1_565
Bi3 O14 2.492533 1_565
Bi3 O5 2.542455 1_555
Bi3 O15 2.619510 1_555
B0 O7 1.367677 1_555
B0 O1 1.385389 1_555
B0 O2 1.404651 1_555
B1 O0 1.367677 1_555
B1 O4 1.385389 1_555
B1 O3 1.404651 1_555
B2 O10 1.381666 1_555
B2 O8 1.384335 1_565
B2 O5 1.390628 1_555
B3 O6 1.381666 1_555
B3 O9 1.384335 1_545
B3 O11 1.390628 1_555
B4 O17 1.381666 1_555
B4 O14 1.384335 1_565
B4 O12 1.390628 1_555
B5 O13 1.381666 1_555
B5 O15 1.384335 1_545
B5 O18 1.390628 1_555
B6 O23 1.367677 1_555
B6 O19 1.385389 1_555
B6 O20 1.404651 1_555
B7 O16 1.367677 1_555
B7 O22 1.385389 1_555
B7 O21 1.404651 1_555
