# generated using pymatgen
data_LiMn2(BO3)2
_symmetry_space_group_name_H-M   'P 1'
_cell_length_a   5.35171900
_cell_length_b   10.20806866
_cell_length_c   13.95870797
_cell_angle_alpha   90.41237040
_cell_angle_beta   100.42435574
_cell_angle_gamma   91.90733808
_symmetry_Int_Tables_number   1
_chemical_formula_structural   LiMn2(BO3)2
_chemical_formula_sum   'Li6 Mn12 B12 O36'
_cell_volume   749.50432864
_cell_formula_units_Z   6
loop_
 _symmetry_equiv_pos_site_id
 _symmetry_equiv_pos_as_xyz
  1  'x, y, z'
loop_
 _atom_site_type_symbol
 _atom_site_label
 _atom_site_symmetry_multiplicity
 _atom_site_fract_x
 _atom_site_fract_y
 _atom_site_fract_z
 _atom_site_occupancy
  Li  Li0  1  0.15167500  0.14619000  0.99388500  1
  Li  Li1  1  0.46841400  0.66494500  0.67329400  1
  Li  Li2  1  0.47807100  0.16911800  0.65537100  1
  Li  Li3  1  0.81307100  0.67056300  0.34110100  1
  Li  Li4  1  0.80208800  0.16020600  0.32232000  1
  Li  Li5  1  0.87035900  0.41427100  0.00925500  1
  Mn  Mn0  1  0.27935800  0.87759400  0.88269700  1
  Mn  Mn1  1  0.60837700  0.63353300  0.90421000  1
  Mn  Mn2  1  0.04726000  0.13086600  0.76904700  1
  Mn  Mn3  1  0.73253600  0.38038300  0.78144400  1
  Mn  Mn4  1  0.62668200  0.88177300  0.56083300  1
  Mn  Mn5  1  0.06743600  0.38146500  0.43743300  1
  Mn  Mn6  1  0.92096400  0.62947400  0.54997700  1
  Mn  Mn7  1  0.37359600  0.12704300  0.44665100  1
  Mn  Mn8  1  0.26190000  0.63500900  0.21727200  1
  Mn  Mn9  1  0.95703700  0.87954600  0.21807100  1
  Mn  Mn10  1  0.40897500  0.37544000  0.11952000  1
  Mn  Mn11  1  0.70894500  0.11960900  0.10151200  1
  B  B0  1  0.27653000  0.37358300  0.89152500  1
  B  B1  1  0.04508600  0.62993900  0.77477300  1
  B  B2  1  0.60719900  0.13284700  0.88196100  1
  B  B3  1  0.72298200  0.87177100  0.78971100  1
  B  B4  1  0.06734200  0.87186200  0.44897900  1
  B  B5  1  0.61518700  0.37337300  0.55089300  1
  B  B6  1  0.38484100  0.63308100  0.44379200  1
  B  B7  1  0.94288100  0.12970700  0.54795400  1
  B  B8  1  0.27427800  0.12086400  0.22186000  1
  B  B9  1  0.39343600  0.87353100  0.11112500  1
  B  B10  1  0.94153400  0.37374300  0.21347400  1
  B  B11  1  0.73812100  0.62581800  0.12144500  1
  O  O0  1  0.20072500  0.35906900  0.97926000  1
  O  O1  1  0.19881000  0.68577700  0.85813100  1
  O  O2  1  0.36155900  0.07680100  0.87993000  1
  O  O3  1  0.78381500  0.14036400  0.96356600  1
  O  O4  1  0.52402500  0.42286600  0.88701900  1
  O  O5  1  0.11167200  0.33657400  0.80594400  1
  O  O6  1  0.63395500  0.83455700  0.87470600  1
  O  O7  1  0.12042300  0.62927100  0.68741900  1
  O  O8  1  0.65879400  0.18494800  0.79271500  1
  O  O9  1  0.80389600  0.57361300  0.78603900  1
  O  O10  1  0.12015300  0.13046400  0.63004300  1
  O  O11  1  0.58448000  0.84703200  0.70029400  1
  O  O12  1  0.96121100  0.93479500  0.80223000  1
  O  O13  1  0.56743800  0.35587800  0.64159900  1
  O  O14  1  0.00390100  0.16536900  0.45776100  1
  O  O15  1  0.53894800  0.66845600  0.53424600  1
  O  O16  1  0.68822300  0.09097200  0.55015600  1
  O  O17  1  0.13134600  0.59133900  0.44532700  1
  O  O18  1  0.82732200  0.44399700  0.53121100  1
  O  O19  1  0.30067400  0.94175100  0.46708700  1
  O  O20  1  0.44876100  0.31739500  0.46964000  1
  O  O21  1  0.98382100  0.81822100  0.53169100  1
  O  O22  1  0.47177000  0.63693700  0.35917200  1
  O  O23  1  0.01992600  0.07121400  0.21802200  1
  O  O24  1  0.44056200  0.12547600  0.30735100  1
  O  O25  1  0.92819100  0.85454900  0.35955500  1
  O  O26  1  0.15951200  0.44866800  0.20362400  1
  O  O27  1  0.31157500  0.82449800  0.19637100  1
  O  O28  1  0.88189800  0.34372700  0.30023100  1
  O  O29  1  0.33784600  0.16538700  0.13462000  1
  O  O30  1  0.89152800  0.68388900  0.20709600  1
  O  O31  1  0.50028100  0.58130800  0.13375800  1
  O  O32  1  0.23816000  0.88503600  0.02574700  1
  O  O33  1  0.64691400  0.91893600  0.12528500  1
  O  O34  1  0.79084500  0.32753400  0.12627000  1
  O  O35  1  0.82578800  0.60604900  0.03857200  1
loop_
_geom_bond_atom_site_label_1
_geom_bond_atom_site_label_2
_geom_bond_distance
_geom_bond_site_symmetry_2
Li0 O3 1.936156 1_455
Li0 O29 2.040450 1_556
Li0 O0 2.195605 1_555
Li0 O2 2.230900 1_555
Li1 O7 1.930959 1_555
Li1 O11 1.952228 1_555
Li1 O15 2.043579 1_555
Li1 O9 2.383174 1_555
Li2 O10 1.911114 1_555
Li2 O13 1.969298 1_555
Li2 O8 1.987746 1_555
Li2 O16 2.167676 1_555
Li3 O22 1.908919 1_555
Li3 O25 1.957529 1_555
Li3 O30 1.994439 1_555
Li3 O17 2.209937 1_655
Li4 O24 1.928658 1_555
Li4 O28 1.946746 1_555
Li4 O14 1.999859 1_655
Li4 O23 2.229252 1_655
Li5 O34 1.969830 1_555
Li5 O0 1.987350 1_654
Li5 O35 2.027748 1_555
Li5 O4 2.285378 1_554
Mn0 O12 1.971063 1_455
Mn0 O6 1.984469 1_555
Mn0 O1 2.004532 1_555
Mn0 O32 2.049345 1_556
Mn0 O2 2.068320 1_565
Mn1 O35 2.046873 1_556
Mn1 O6 2.100760 1_555
Mn1 O4 2.185128 1_555
Mn1 O9 2.200587 1_555
Mn1 O1 2.252792 1_555
Mn2 O10 2.047175 1_555
Mn2 O12 2.112303 1_445
Mn2 O2 2.159041 1_555
Mn2 O5 2.159998 1_555
Mn2 O8 2.249074 1_455
Mn3 O9 1.994971 1_555
Mn3 O13 2.001970 1_555
Mn3 O8 2.033508 1_555
Mn3 O4 2.055032 1_555
Mn3 O5 2.060438 1_655
Mn4 O11 2.032268 1_555
Mn4 O19 2.094676 1_555
Mn4 O21 2.144652 1_555
Mn4 O16 2.160242 1_565
Mn4 O15 2.226473 1_555
Mn5 O28 2.019394 1_455
Mn5 O18 2.103229 1_455
Mn5 O20 2.134381 1_555
Mn5 O17 2.157133 1_555
Mn5 O14 2.248604 1_555
Mn6 O18 1.945965 1_555
Mn6 O21 1.971206 1_555
Mn6 O7 2.019717 1_655
Mn6 O17 2.041873 1_655
Mn6 O15 2.068639 1_555
Mn7 O19 1.951989 1_545
Mn7 O20 1.983131 1_555
Mn7 O24 2.040020 1_555
Mn7 O16 2.055910 1_555
Mn7 O14 2.062348 1_555
Mn8 O26 1.960221 1_555
Mn8 O31 1.965335 1_555
Mn8 O27 1.974673 1_555
Mn8 O30 2.040330 1_455
Mn8 O22 2.092397 1_555
Mn9 O33 1.966664 1_555
Mn9 O23 1.974252 1_665
Mn9 O30 2.016198 1_555
Mn9 O25 2.025899 1_555
Mn9 O27 2.069807 1_655
Mn10 O0 2.072794 1_554
Mn10 O26 2.083355 1_555
Mn10 O34 2.102875 1_555
Mn10 O31 2.141290 1_555
Mn10 O29 2.183640 1_555
Mn11 O3 2.047582 1_554
Mn11 O33 2.102615 1_545
Mn11 O34 2.165480 1_555
Mn11 O23 2.178453 1_655
Mn11 O29 2.183352 1_555
B0 O0 1.365557 1_555
B0 O5 1.392162 1_555
B0 O4 1.413386 1_555
B1 O7 1.351807 1_555
B1 O1 1.403011 1_555
B1 O9 1.430665 1_455
B2 O3 1.342062 1_555
B2 O2 1.411561 1_555
B2 O8 1.426626 1_555
B3 O11 1.348802 1_555
B3 O12 1.390344 1_555
B3 O6 1.406379 1_555
B4 O25 1.339999 1_455
B4 O19 1.398598 1_555
B4 O21 1.418512 1_455
B5 O13 1.348185 1_555
B5 O18 1.394755 1_555
B5 O20 1.413304 1_555
B6 O22 1.345913 1_555
B6 O17 1.412321 1_555
B6 O15 1.414774 1_555
B7 O10 1.348738 1_655
B7 O14 1.404157 1_655
B7 O16 1.412139 1_555
B8 O24 1.352894 1_555
B8 O29 1.397435 1_555
B8 O23 1.428273 1_555
B9 O32 1.332209 1_555
B9 O33 1.397822 1_555
B9 O27 1.428637 1_555
B10 O28 1.342013 1_555
B10 O26 1.401750 1_655
B10 O34 1.402051 1_555
B11 O35 1.341035 1_555
B11 O31 1.377655 1_555
B11 O30 1.434237 1_555
