# generated using pymatgen
data_WOF4
_symmetry_space_group_name_H-M   'P 1'
_cell_length_a   17.60980200
_cell_length_b   5.68591400
_cell_length_c   8.10748237
_cell_angle_alpha   88.42618767
_cell_angle_beta   90.00000000
_cell_angle_gamma   90.00000000
_symmetry_Int_Tables_number   1
_chemical_formula_structural   WOF4
_chemical_formula_sum   'W8 O8 F32'
_cell_volume   811.47830528
_cell_formula_units_Z   8
loop_
 _symmetry_equiv_pos_site_id
 _symmetry_equiv_pos_as_xyz
  1  'x, y, z'
loop_
 _atom_site_type_symbol
 _atom_site_label
 _atom_site_symmetry_multiplicity
 _atom_site_fract_x
 _atom_site_fract_y
 _atom_site_fract_z
 _atom_site_occupancy
  W  W0  1  0.14139400  0.74477500  0.98266300  1
  W  W1  1  0.61246600  0.73698000  0.90009700  1
  W  W2  1  0.35860600  0.74477500  0.48266300  1
  W  W3  1  0.88753400  0.73698000  0.40009700  1
  W  W4  1  0.11246600  0.26302000  0.59990300  1
  W  W5  1  0.64139400  0.25522500  0.51733700  1
  W  W6  1  0.38753400  0.26302000  0.09990300  1
  W  W7  1  0.85860600  0.25522500  0.01733700  1
  O  O0  1  0.92110400  0.89920500  0.55872800  1
  O  O1  1  0.57889600  0.89920500  0.05872800  1
  O  O2  1  0.36347200  0.56386300  0.65418200  1
  O  O3  1  0.13652800  0.56386300  0.15418200  1
  O  O4  1  0.86347200  0.43613700  0.84581800  1
  O  O5  1  0.63652800  0.43613700  0.34581800  1
  O  O6  1  0.42110400  0.10079500  0.94127200  1
  O  O7  1  0.07889600  0.10079500  0.44127200  1
  F  F0  1  0.65065100  0.99538500  0.75306700  1
  F  F1  1  0.84934900  0.99538500  0.25306700  1
  F  F2  1  0.87193100  0.96356200  0.91933600  1
  F  F3  1  0.62806900  0.96356200  0.41933600  1
  F  F4  1  0.24710800  0.79375500  0.96197600  1
  F  F5  1  0.25289200  0.79375500  0.46197600  1
  F  F6  1  0.04031700  0.74412900  0.90571700  1
  F  F7  1  0.52831600  0.74118000  0.75566900  1
  F  F8  1  0.45968300  0.74412900  0.40571700  1
  F  F9  1  0.97168400  0.74118000  0.25566900  1
  F  F10  1  0.71530400  0.69951400  0.96042500  1
  F  F11  1  0.78469600  0.69951400  0.46042500  1
  F  F12  1  0.08711100  0.56669900  0.52133900  1
  F  F13  1  0.41288900  0.56669900  0.02133900  1
  F  F14  1  0.15751000  0.50140900  0.81453100  1
  F  F15  1  0.65751000  0.49859100  0.68546900  1
  F  F16  1  0.34249000  0.50140900  0.31453100  1
  F  F17  1  0.84249000  0.49859100  0.18546900  1
  F  F18  1  0.58711100  0.43330100  0.97866100  1
  F  F19  1  0.91288900  0.43330100  0.47866100  1
  F  F20  1  0.21530400  0.30048600  0.53957500  1
  F  F21  1  0.28469600  0.30048600  0.03957500  1
  F  F22  1  0.02831600  0.25882000  0.74433100  1
  F  F23  1  0.54031700  0.25587100  0.59428300  1
  F  F24  1  0.47168400  0.25882000  0.24433100  1
  F  F25  1  0.95968300  0.25587100  0.09428300  1
  F  F26  1  0.74710800  0.20624500  0.53802400  1
  F  F27  1  0.75289200  0.20624500  0.03802400  1
  F  F28  1  0.37193100  0.03643800  0.58066400  1
  F  F29  1  0.12806900  0.03643800  0.08066400  1
  F  F30  1  0.15065100  0.00461500  0.74693300  1
  F  F31  1  0.34934900  0.00461500  0.24693300  1
loop_
_geom_bond_atom_site_label_1
_geom_bond_atom_site_label_2
_geom_bond_distance
_geom_bond_site_symmetry_2
O0 W3 1.708654 1_555
O1 W1 1.708654 1_554
O2 W2 1.708983 1_555
O3 W0 1.708983 1_554
O4 W7 1.708983 1_556
O5 W5 1.708983 1_555
O6 W6 1.708654 1_556
O7 W4 1.708654 1_555
F0 W1 1.983853 1_555
F0 W5 2.388904 1_565
F1 W3 1.983853 1_555
F1 W7 2.388904 1_565
F2 W7 1.873213 1_566
F3 W5 1.873213 1_565
F4 W0 1.889097 1_555
F5 W2 1.889097 1_555
F6 W0 1.886139 1_555
F7 W1 1.888406 1_555
F8 W2 1.886139 1_555
F9 W3 1.888406 1_555
F10 W1 1.886385 1_555
F11 W3 1.886385 1_555
F12 W4 1.877798 1_555
F13 W6 1.877798 1_555
F14 W0 1.989235 1_555
F14 W4 2.371485 1_555
F15 W5 1.989235 1_555
F15 W1 2.371485 1_555
F16 W2 1.989235 1_555
F16 W6 2.371485 1_555
F17 W7 1.989235 1_555
F17 W3 2.371485 1_555
F18 W1 1.877798 1_555
F19 W3 1.877798 1_555
F20 W4 1.886385 1_555
F21 W6 1.886385 1_555
F22 W4 1.888406 1_555
F23 W5 1.886139 1_555
F24 W6 1.888406 1_555
F25 W7 1.886139 1_555
F26 W5 1.889097 1_555
F27 W7 1.889097 1_555
F28 W2 1.873213 1_545
F29 W0 1.873213 1_544
F30 W4 1.983853 1_555
F30 W0 2.388904 1_545
F31 W6 1.983853 1_555
F31 W2 2.388904 1_545
