# generated using pymatgen
data_Rb2S
_symmetry_space_group_name_H-M   'P 1'
_cell_length_a   5.56044917
_cell_length_b   5.56044917
_cell_length_c   7.75674600
_cell_angle_alpha   90.00000000
_cell_angle_beta   90.00000000
_cell_angle_gamma   119.99999014
_symmetry_Int_Tables_number   1
_chemical_formula_structural   Rb2S
_chemical_formula_sum   'Rb4 S2'
_cell_volume   207.69689098
_cell_formula_units_Z   2
loop_
 _symmetry_equiv_pos_site_id
 _symmetry_equiv_pos_as_xyz
  1  'x, y, z'
loop_
 _atom_site_type_symbol
 _atom_site_label
 _atom_site_symmetry_multiplicity
 _atom_site_fract_x
 _atom_site_fract_y
 _atom_site_fract_z
 _atom_site_occupancy
  Rb  Rb0  1  0.00000000  0.00000000  0.50000000  1
  Rb  Rb1  1  0.00000000  0.00000000  0.00000000  1
  Rb  Rb2  1  0.33333300  0.66666700  0.75000000  1
  Rb  Rb3  1  0.66666700  0.33333300  0.25000000  1
  S  S0  1  0.33333300  0.66666700  0.25000000  1
  S  S1  1  0.66666700  0.33333300  0.75000000  1
loop_
_geom_bond_atom_site_label_1
_geom_bond_atom_site_label_2
_geom_bond_distance
_geom_bond_site_symmetry_2
Rb0 S1 3.750549 1_455
Rb0 S0 3.750549 1_545
Rb0 S0 3.750554 1_555
Rb0 S0 3.750554 1_445
Rb0 S1 3.750554 1_555
Rb0 S1 3.750554 1_445
Rb1 S1 3.750549 1_454
Rb1 S0 3.750549 1_545
Rb1 S0 3.750554 1_555
Rb1 S0 3.750554 1_445
Rb1 S1 3.750554 1_444
Rb1 S1 3.750554 1_554
Rb2 S1 3.210324 1_455
Rb2 S1 3.210324 1_565
Rb2 S1 3.210333 1_555
Rb2 S0 3.878373 1_555
Rb2 S0 3.878373 1_556
Rb3 S0 3.210324 1_545
Rb3 S0 3.210324 1_655
Rb3 S0 3.210333 1_555
Rb3 S1 3.878373 1_555
Rb3 S1 3.878373 1_554
