# generated using pymatgen
data_LiNi4(PO4)3
_symmetry_space_group_name_H-M   'P 1'
_cell_length_a   6.24392000
_cell_length_b   9.77029800
_cell_length_c   14.17130400
_cell_angle_alpha   90.00000000
_cell_angle_beta   90.00000000
_cell_angle_gamma   90.00000000
_symmetry_Int_Tables_number   1
_chemical_formula_structural   LiNi4(PO4)3
_chemical_formula_sum   'Li4 Ni16 P12 O48'
_cell_volume   864.51982075
_cell_formula_units_Z   4
loop_
 _symmetry_equiv_pos_site_id
 _symmetry_equiv_pos_as_xyz
  1  'x, y, z'
loop_
 _atom_site_type_symbol
 _atom_site_label
 _atom_site_symmetry_multiplicity
 _atom_site_fract_x
 _atom_site_fract_y
 _atom_site_fract_z
 _atom_site_occupancy
  Li  Li0  1  0.05723500  0.74638400  0.25000000  1
  Li  Li1  1  0.44276500  0.24638400  0.75000000  1
  Li  Li2  1  0.55723500  0.75361600  0.25000000  1
  Li  Li3  1  0.94276500  0.25361600  0.75000000  1
  Ni  Ni0  1  0.14707100  0.45784900  0.59629800  1
  Ni  Ni1  1  0.14707100  0.45784900  0.90370200  1
  Ni  Ni2  1  0.13647100  0.85195600  0.61636600  1
  Ni  Ni3  1  0.13647100  0.85195600  0.88363400  1
  Ni  Ni4  1  0.36352900  0.35195600  0.11636600  1
  Ni  Ni5  1  0.36352900  0.35195600  0.38363400  1
  Ni  Ni6  1  0.35292900  0.95784900  0.09629800  1
  Ni  Ni7  1  0.35292900  0.95784900  0.40370200  1
  Ni  Ni8  1  0.64707100  0.04215100  0.59629800  1
  Ni  Ni9  1  0.64707100  0.04215100  0.90370200  1
  Ni  Ni10  1  0.63647100  0.64804400  0.61636600  1
  Ni  Ni11  1  0.63647100  0.64804400  0.88363400  1
  Ni  Ni12  1  0.86352900  0.14804400  0.11636600  1
  Ni  Ni13  1  0.86352900  0.14804400  0.38363400  1
  Ni  Ni14  1  0.85292900  0.54215100  0.40370200  1
  Ni  Ni15  1  0.85292900  0.54215100  0.09629800  1
  P  P0  1  0.99189500  0.40285300  0.25000000  1
  P  P1  1  0.13743900  0.13084200  0.57416600  1
  P  P2  1  0.13743900  0.13084200  0.92583400  1
  P  P3  1  0.36256100  0.63084200  0.07416600  1
  P  P4  1  0.36256100  0.63084200  0.42583400  1
  P  P5  1  0.50810500  0.90285300  0.75000000  1
  P  P6  1  0.49189500  0.09714700  0.25000000  1
  P  P7  1  0.63743900  0.36915800  0.57416600  1
  P  P8  1  0.63743900  0.36915800  0.92583400  1
  P  P9  1  0.86256100  0.86915800  0.42583400  1
  P  P10  1  0.86256100  0.86915800  0.07416600  1
  P  P11  1  0.00810500  0.59714700  0.75000000  1
  O  O0  1  0.03512700  0.96679400  0.11810600  1
  O  O1  1  0.03512700  0.96679400  0.38189400  1
  O  O2  1  0.06107600  0.44344000  0.75000000  1
  O  O3  1  0.10583300  0.65460200  0.65791200  1
  O  O4  1  0.10583300  0.65460200  0.84208800  1
  O  O5  1  0.06018400  0.20635500  0.01388300  1
  O  O6  1  0.06018400  0.20635500  0.48611700  1
  O  O7  1  0.17875200  0.52096500  0.05067600  1
  O  O8  1  0.17875200  0.52096500  0.44932400  1
  O  O9  1  0.21279100  0.23820400  0.64490000  1
  O  O10  1  0.21279100  0.23820400  0.85510000  1
  O  O11  1  0.23701100  0.37959000  0.25000000  1
  O  O12  1  0.26298900  0.87959000  0.75000000  1
  O  O13  1  0.28720900  0.73820400  0.35510000  1
  O  O14  1  0.28720900  0.73820400  0.14490000  1
  O  O15  1  0.32124800  0.02096500  0.55067600  1
  O  O16  1  0.32124800  0.02096500  0.94932400  1
  O  O17  1  0.43981600  0.70635500  0.51388300  1
  O  O18  1  0.43981600  0.70635500  0.98611700  1
  O  O19  1  0.39416700  0.15460200  0.15791200  1
  O  O20  1  0.39416700  0.15460200  0.34208800  1
  O  O21  1  0.43892400  0.94344000  0.25000000  1
  O  O22  1  0.46487300  0.46679400  0.61810600  1
  O  O23  1  0.46487300  0.46679400  0.88189400  1
  O  O24  1  0.53512700  0.53320600  0.11810600  1
  O  O25  1  0.53512700  0.53320600  0.38189400  1
  O  O26  1  0.56107600  0.05656000  0.75000000  1
  O  O27  1  0.60583300  0.84539800  0.65791200  1
  O  O28  1  0.60583300  0.84539800  0.84208800  1
  O  O29  1  0.56018400  0.29364500  0.01388300  1
  O  O30  1  0.56018400  0.29364500  0.48611700  1
  O  O31  1  0.67875200  0.97903500  0.44932400  1
  O  O32  1  0.67875200  0.97903500  0.05067600  1
  O  O33  1  0.71279100  0.26179600  0.64490000  1
  O  O34  1  0.71279100  0.26179600  0.85510000  1
  O  O35  1  0.73701100  0.12041000  0.25000000  1
  O  O36  1  0.76298900  0.62041000  0.75000000  1
  O  O37  1  0.78720900  0.76179600  0.14490000  1
  O  O38  1  0.78720900  0.76179600  0.35510000  1
  O  O39  1  0.82124800  0.47903500  0.55067600  1
  O  O40  1  0.82124800  0.47903500  0.94932400  1
  O  O41  1  0.93981600  0.79364500  0.51388300  1
  O  O42  1  0.93981600  0.79364500  0.98611700  1
  O  O43  1  0.89416700  0.34539800  0.15791200  1
  O  O44  1  0.89416700  0.34539800  0.34208800  1
  O  O45  1  0.93892400  0.55656000  0.25000000  1
  O  O46  1  0.96487300  0.03320600  0.61810600  1
  O  O47  1  0.96487300  0.03320600  0.88189400  1
loop_
_geom_bond_atom_site_label_1
_geom_bond_atom_site_label_2
_geom_bond_distance
_geom_bond_site_symmetry_2
Li0 O45 1.996345 1_455
Li0 O13 2.070419 1_555
Li0 O14 2.070419 1_555
Li0 O37 2.254698 1_455
Li0 O38 2.254698 1_455
Li1 O26 1.996345 1_555
Li1 O9 2.070419 1_555
Li1 O10 2.070419 1_555
Li1 O33 2.254698 1_555
Li1 O34 2.254698 1_555
Li2 O21 1.996345 1_555
Li2 O38 2.070419 1_555
Li2 O37 2.070419 1_555
Li2 O14 2.254698 1_555
Li2 O13 2.254698 1_555
Li3 O2 1.996345 1_655
Li3 O33 2.070419 1_555
Li3 O34 2.070419 1_555
Li3 O9 2.254698 1_655
Li3 O10 2.254698 1_655
Ni0 O22 2.010153 1_555
Ni0 O3 2.126985 1_555
Ni0 O39 2.144685 1_455
Ni0 O8 2.181172 1_555
Ni0 O2 2.247777 1_555
Ni0 O9 2.290867 1_555
Ni1 O23 2.010153 1_555
Ni1 O4 2.126985 1_555
Ni1 O40 2.144685 1_455
Ni1 O7 2.181172 1_556
Ni1 O2 2.247777 1_555
Ni1 O10 2.290867 1_555
Ni2 O41 1.985330 1_455
Ni2 O3 2.025147 1_555
Ni2 O12 2.069614 1_555
Ni2 O46 2.069920 1_465
Ni2 O15 2.219096 1_565
Ni3 O42 1.985330 1_455
Ni3 O4 2.025147 1_555
Ni3 O12 2.069614 1_555
Ni3 O47 2.069920 1_465
Ni3 O16 2.219096 1_565
Ni4 O29 1.985330 1_555
Ni4 O19 2.025147 1_555
Ni4 O11 2.069614 1_555
Ni4 O24 2.069920 1_555
Ni4 O7 2.219096 1_555
Ni5 O30 1.985330 1_555
Ni5 O20 2.025147 1_555
Ni5 O11 2.069614 1_555
Ni5 O25 2.069920 1_555
Ni5 O8 2.219096 1_555
Ni6 O0 2.010153 1_555
Ni6 O19 2.126985 1_565
Ni6 O32 2.144685 1_555
Ni6 O16 2.181172 1_564
Ni6 O21 2.247777 1_555
Ni6 O14 2.290867 1_555
Ni7 O1 2.010153 1_555
Ni7 O20 2.126985 1_565
Ni7 O31 2.144685 1_555
Ni7 O15 2.181172 1_565
Ni7 O21 2.247777 1_555
Ni7 O13 2.290867 1_555
Ni8 O46 2.010153 1_555
Ni8 O27 2.126985 1_545
Ni8 O15 2.144685 1_555
Ni8 O31 2.181172 1_545
Ni8 O26 2.247777 1_555
Ni8 O33 2.290867 1_555
Ni9 O47 2.010153 1_555
Ni9 O28 2.126985 1_545
Ni9 O16 2.144685 1_555
Ni9 O32 2.181172 1_546
Ni9 O26 2.247777 1_555
Ni9 O34 2.290867 1_555
Ni10 O17 1.985330 1_555
Ni10 O27 2.025147 1_555
Ni10 O36 2.069614 1_555
Ni10 O22 2.069920 1_555
Ni10 O39 2.219096 1_555
Ni11 O18 1.985330 1_555
Ni11 O28 2.025147 1_555
Ni11 O36 2.069614 1_555
Ni11 O23 2.069920 1_555
Ni11 O40 2.219096 1_555
Ni12 O5 1.985330 1_655
Ni12 O43 2.025147 1_555
Ni12 O35 2.069614 1_555
Ni12 O0 2.069920 1_645
Ni12 O32 2.219096 1_545
Ni13 O6 1.985330 1_655
Ni13 O44 2.025147 1_555
Ni13 O35 2.069614 1_555
Ni13 O1 2.069920 1_645
Ni13 O31 2.219096 1_545
Ni14 O25 2.010153 1_555
Ni14 O44 2.126985 1_555
Ni14 O8 2.144685 1_655
Ni14 O39 2.181172 1_555
Ni14 O45 2.247777 1_555
Ni14 O38 2.290867 1_555
Ni15 O24 2.010153 1_555
Ni15 O43 2.126985 1_555
Ni15 O7 2.144685 1_655
Ni15 O40 2.181172 1_554
Ni15 O45 2.247777 1_555
Ni15 O37 2.290867 1_555
O0 P10 1.568027 1_455
O1 P9 1.568027 1_455
O2 P11 1.537754 1_555
O3 P11 1.546128 1_555
O4 P11 1.546128 1_555
O5 P2 1.527723 1_554
O6 P1 1.527723 1_555
O7 P3 1.606384 1_555
O8 P4 1.606384 1_555
O9 P1 1.525277 1_555
O10 P2 1.525277 1_555
O11 P0 1.547269 1_455
O12 P5 1.547269 1_555
O13 P4 1.525277 1_555
O14 P3 1.525277 1_555
O15 P1 1.606384 1_555
O16 P2 1.606384 1_555
O17 P4 1.527723 1_555
O18 P3 1.527723 1_556
O19 P6 1.546128 1_555
O20 P6 1.546128 1_555
O21 P6 1.537754 1_565
O22 P7 1.568027 1_555
O23 P8 1.568027 1_555
O24 P3 1.568027 1_555
O25 P4 1.568027 1_555
O26 P5 1.537754 1_545
O27 P5 1.546128 1_555
O28 P5 1.546128 1_555
O29 P8 1.527723 1_554
O30 P7 1.527723 1_555
O31 P9 1.606384 1_555
O32 P10 1.606384 1_555
O33 P7 1.525277 1_555
O34 P8 1.525277 1_555
O35 P6 1.547269 1_555
O36 P11 1.547269 1_655
O37 P10 1.525277 1_555
O38 P9 1.525277 1_555
O39 P7 1.606384 1_555
O40 P8 1.606384 1_555
O41 P9 1.527723 1_555
O42 P10 1.527723 1_556
O43 P0 1.546128 1_555
O44 P0 1.546128 1_555
O45 P0 1.537754 1_555
O46 P1 1.568027 1_655
O47 P2 1.568027 1_655
