# generated using pymatgen
data_CdH2SeO5
_symmetry_space_group_name_H-M   'P 1'
_cell_length_a   7.81794400
_cell_length_b   7.93896700
_cell_length_c   8.56871503
_cell_angle_alpha   57.23817760
_cell_angle_beta   90.00000000
_cell_angle_gamma   90.00000000
_symmetry_Int_Tables_number   1
_chemical_formula_structural   CdH2SeO5
_chemical_formula_sum   'Cd4 H8 Se4 O20'
_cell_volume   447.22980614
_cell_formula_units_Z   4
loop_
 _symmetry_equiv_pos_site_id
 _symmetry_equiv_pos_as_xyz
  1  'x, y, z'
loop_
 _atom_site_type_symbol
 _atom_site_label
 _atom_site_symmetry_multiplicity
 _atom_site_fract_x
 _atom_site_fract_y
 _atom_site_fract_z
 _atom_site_occupancy
  Cd  Cd0  1  0.73730000  0.78874900  0.75750900  1
  Cd  Cd1  1  0.23730000  0.21125100  0.74249100  1
  Cd  Cd2  1  0.26270000  0.21125100  0.24249100  1
  Cd  Cd3  1  0.76270000  0.78874900  0.25750900  1
  H  H0  1  0.49448100  0.79727600  0.01379200  1
  H  H1  1  0.99448100  0.20272400  0.48620800  1
  H  H2  1  0.50551900  0.20272400  0.98620800  1
  H  H3  1  0.00551900  0.79727600  0.51379200  1
  H  H4  1  0.57580800  0.58182300  0.11741400  1
  H  H5  1  0.07580800  0.41817700  0.38258600  1
  H  H6  1  0.42419200  0.41817700  0.88258600  1
  H  H7  1  0.92419200  0.58182300  0.61741400  1
  Se  Se0  1  0.11734800  0.73672800  0.01655300  1
  Se  Se1  1  0.61734800  0.26327200  0.48344700  1
  Se  Se2  1  0.88265200  0.26327200  0.98344700  1
  Se  Se3  1  0.38265200  0.73672800  0.51655300  1
  O  O0  1  0.99024200  0.88170100  0.83481200  1
  O  O1  1  0.49024200  0.11829900  0.66518800  1
  O  O2  1  0.00975800  0.11829900  0.16518800  1
  O  O3  1  0.50975800  0.88170100  0.33481200  1
  O  O4  1  0.00924500  0.65293300  0.21670900  1
  O  O5  1  0.50924500  0.34706700  0.28329100  1
  O  O6  1  0.99075500  0.34706700  0.78329100  1
  O  O7  1  0.49075500  0.65293300  0.71670900  1
  O  O8  1  0.19791500  0.54323500  0.01631200  1
  O  O9  1  0.69791500  0.45676500  0.48368800  1
  O  O10  1  0.80208500  0.45676500  0.98368800  1
  O  O11  1  0.30208500  0.54323500  0.51631200  1
  O  O12  1  0.27660400  0.89106300  0.99684000  1
  O  O13  1  0.77660400  0.10893700  0.50316000  1
  O  O14  1  0.72339600  0.10893700  0.00316000  1
  O  O15  1  0.22339600  0.89106300  0.49684000  1
  O  O16  1  0.60700600  0.72746500  0.03965100  1
  O  O17  1  0.10700600  0.27253500  0.46034900  1
  O  O18  1  0.39299400  0.27253500  0.96034900  1
  O  O19  1  0.89299400  0.72746500  0.53965100  1
loop_
_geom_bond_atom_site_label_1
_geom_bond_atom_site_label_2
_geom_bond_distance
_geom_bond_site_symmetry_2
Cd0 O13 2.304339 1_565
Cd0 O7 2.325502 1_555
Cd0 O0 2.328691 1_555
Cd0 O10 2.330389 1_555
Cd0 O16 2.417861 1_556
Cd0 O19 2.487186 1_555
Cd1 O12 2.304339 1_545
Cd1 O6 2.325502 1_455
Cd1 O1 2.328691 1_555
Cd1 O11 2.330389 1_555
Cd1 O17 2.417861 1_555
Cd1 O18 2.487186 1_555
Cd2 O15 2.304339 1_545
Cd2 O5 2.325502 1_555
Cd2 O2 2.328691 1_555
Cd2 O8 2.330389 1_555
Cd2 O18 2.417861 1_554
Cd2 O17 2.487186 1_555
Cd3 O14 2.304339 1_565
Cd3 O4 2.325502 1_655
Cd3 O3 2.328691 1_555
Cd3 O9 2.330389 1_555
Cd3 O19 2.417861 1_555
Cd3 O16 2.487186 1_555
H0 O16 0.998624 1_555
H1 O17 0.998624 1_655
H2 O18 0.998624 1_555
H3 O19 0.998624 1_455
H4 O16 1.003267 1_555
H4 O5 1.702202 1_555
H5 O17 1.003267 1_555
H5 O4 1.702202 1_555
H6 O18 1.003267 1_555
H6 O7 1.702202 1_555
H7 O19 1.003267 1_555
H7 O6 1.702202 1_555
O0 Se0 1.672546 1_656
O1 Se1 1.672546 1_555
O2 Se2 1.672546 1_454
O3 Se3 1.672546 1_555
O4 Se0 1.692180 1_555
O5 Se1 1.692180 1_555
O6 Se2 1.692180 1_555
O7 Se3 1.692180 1_555
O8 Se0 1.661289 1_555
O9 Se1 1.661289 1_555
O10 Se2 1.661289 1_555
O11 Se3 1.661289 1_555
O12 Se0 1.689958 1_556
O13 Se1 1.689958 1_555
O14 Se2 1.689958 1_554
O15 Se3 1.689958 1_555
