# generated using pymatgen
data_Li6MnV3(PO4)6
_symmetry_space_group_name_H-M   'P 1'
_cell_length_a   9.86197505
_cell_length_b   9.86197505
_cell_length_c   9.89201011
_cell_angle_alpha   86.96288146
_cell_angle_beta   86.96288146
_cell_angle_gamma   87.57421703
_symmetry_Int_Tables_number   1
_chemical_formula_structural   Li6MnV3(PO4)6
_chemical_formula_sum   'Li12 Mn2 V6 P12 O48'
_cell_volume   958.62818957
_cell_formula_units_Z   2
loop_
 _symmetry_equiv_pos_site_id
 _symmetry_equiv_pos_as_xyz
  1  'x, y, z'
loop_
 _atom_site_type_symbol
 _atom_site_label
 _atom_site_symmetry_multiplicity
 _atom_site_fract_x
 _atom_site_fract_y
 _atom_site_fract_z
 _atom_site_occupancy
  Li  Li0  1  0.52095200  0.95084300  0.24481600  1
  Li  Li1  1  0.35595400  0.26405300  0.18860400  1
  Li  Li2  1  0.77143900  0.92827200  0.11270700  1
  Li  Li3  1  0.85457200  0.44032000  0.01856400  1
  Li  Li4  1  0.55968000  0.14542800  0.98143600  1
  Li  Li5  1  0.07172800  0.22856100  0.88729300  1
  Li  Li6  1  0.73594700  0.64404600  0.81139600  1
  Li  Li7  1  0.04915700  0.47904800  0.75518400  1
  Li  Li8  1  0.94152100  0.76722100  0.60851600  1
  Li  Li9  1  0.14216600  0.53757600  0.48217700  1
  Li  Li10  1  0.46242400  0.85783400  0.51782300  1
  Li  Li11  1  0.23277900  0.05847900  0.39148400  1
  Mn  Mn0  1  0.75643100  0.03161800  0.72250000  1
  Mn  Mn1  1  0.96838200  0.24356900  0.27750000  1
  V  V0  1  0.02891400  0.74592200  0.21677100  1
  V  V1  1  0.24991900  0.75008100  0.00000000  1
  V  V2  1  0.46387400  0.53612600  0.00000000  1
  V  V3  1  0.25407800  0.97108600  0.78322900  1
  V  V4  1  0.53200300  0.46799700  0.50000000  1
  V  V5  1  0.75144900  0.24855100  0.50000000  1
  P  P0  1  0.64060100  0.33133700  0.19907200  1
  P  P1  1  0.16793400  0.04606700  0.10128100  1
  P  P2  1  0.14689500  0.44979600  0.07750200  1
  P  P3  1  0.55020400  0.85310500  0.92249800  1
  P  P4  1  0.95393300  0.83206600  0.89871900  1
  P  P5  1  0.66866300  0.35939900  0.80092800  1
  P  P6  1  0.32342800  0.65305200  0.69981500  1
  P  P7  1  0.05051700  0.17805600  0.60713000  1
  P  P8  1  0.45325200  0.15216000  0.57782400  1
  P  P9  1  0.84784000  0.54674800  0.42217600  1
  P  P10  1  0.82194400  0.94948300  0.39287000  1
  P  P11  1  0.34694800  0.67657200  0.30018500  1
  O  O0  1  0.10244000  0.38516000  0.21713300  1
  O  O1  1  0.27389100  0.09368900  0.19384500  1
  O  O2  1  0.37663900  0.67063800  0.14056600  1
  O  O3  1  0.16829900  0.88544300  0.12753400  1
  O  O4  1  0.79305700  0.30964800  0.15926900  1
  O  O5  1  0.02464500  0.10866400  0.13261800  1
  O  O6  1  0.55049100  0.21861600  0.15793200  1
  O  O7  1  0.59321700  0.47011500  0.13474800  1
  O  O8  1  0.12137700  0.61040900  0.07973800  1
  O  O9  1  0.30179400  0.41445400  0.05690200  1
  O  O10  1  0.91705400  0.79698100  0.05233200  1
  O  O11  1  0.59356600  0.93975100  0.03654600  1
  O  O12  1  0.38959100  0.87862300  0.92026200  1
  O  O13  1  0.06024900  0.40643400  0.96345400  1
  O  O14  1  0.20301900  0.08294600  0.94766800  1
  O  O15  1  0.58554600  0.69820600  0.94309800  1
  O  O16  1  0.11455700  0.83170100  0.87246600  1
  O  O17  1  0.32936200  0.62336100  0.85943400  1
  O  O18  1  0.89133600  0.97535500  0.86738200  1
  O  O19  1  0.52988500  0.40678300  0.86525200  1
  O  O20  1  0.78138400  0.44950900  0.84206800  1
  O  O21  1  0.90631100  0.72610900  0.80615500  1
  O  O22  1  0.69035200  0.20694300  0.84073100  1
  O  O23  1  0.61484000  0.89756000  0.78286700  1
  O  O24  1  0.38917100  0.11263700  0.71780700  1
  O  O25  1  0.32577500  0.81081500  0.66813000  1
  O  O26  1  0.19689800  0.58963000  0.65487200  1
  O  O27  1  0.08596700  0.29420500  0.69239200  1
  O  O28  1  0.45752900  0.59421500  0.63239100  1
  O  O29  1  0.11369800  0.03992800  0.66438900  1
  O  O30  1  0.66332500  0.37831700  0.63946800  1
  O  O31  1  0.88959200  0.16744900  0.62691300  1
  O  O32  1  0.80899400  0.90751100  0.54539400  1
  O  O33  1  0.42776800  0.31153600  0.54731800  1
  O  O34  1  0.93392000  0.59663400  0.53271800  1
  O  O35  1  0.61176300  0.12322200  0.57839100  1
  O  O36  1  0.40336600  0.06608000  0.46728200  1
  O  O37  1  0.68846400  0.57223200  0.45268200  1
  O  O38  1  0.09248900  0.19100600  0.45460600  1
  O  O39  1  0.87677800  0.38823700  0.42160900  1
  O  O40  1  0.40578500  0.54247100  0.36760900  1
  O  O41  1  0.41037000  0.80310200  0.34512800  1
  O  O42  1  0.96007200  0.88630200  0.33561100  1
  O  O43  1  0.18918500  0.67422500  0.33187000  1
  O  O44  1  0.83255100  0.11040800  0.37308700  1
  O  O45  1  0.70579500  0.91403300  0.30760800  1
  O  O46  1  0.62168300  0.33667500  0.36053200  1
  O  O47  1  0.88736300  0.61082900  0.28219300  1
loop_
_geom_bond_atom_site_label_1
_geom_bond_atom_site_label_2
_geom_bond_distance
_geom_bond_site_symmetry_2
Li0 O45 1.969948 1_555
Li0 O41 2.040461 1_555
Li0 O11 2.151782 1_555
Li1 O1 1.892593 1_555
Li1 O6 1.963037 1_555
Li1 O9 1.996124 1_555
Li2 O11 1.942098 1_555
Li2 O10 1.982188 1_555
Li2 O45 2.000652 1_555
Li3 O20 1.920566 1_554
Li3 O4 1.937173 1_555
Li3 O13 2.089963 1_654
Li4 O6 1.920566 1_556
Li4 O22 1.937173 1_555
Li4 O11 2.089963 1_546
Li5 O13 1.942098 1_555
Li5 O14 1.982188 1_555
Li5 O27 2.000652 1_555
Li6 O21 1.892593 1_555
Li6 O20 1.963037 1_555
Li6 O15 1.996124 1_555
Li7 O27 1.969948 1_555
Li7 O26 2.040461 1_555
Li7 O13 2.151782 1_555
Li8 O34 1.883699 1_555
Li8 O32 1.963189 1_555
Li8 O21 1.990768 1_555
Li9 O26 1.920225 1_555
Li9 O43 2.002330 1_555
Li9 O34 2.151216 1_455
Li10 O41 1.920225 1_555
Li10 O25 2.002330 1_555
Li10 O36 2.151216 1_565
Li11 O36 1.883699 1_555
Li11 O38 1.963189 1_555
Li11 O1 1.990768 1_555
Mn0 O23 2.009620 1_545
Mn0 O18 2.046265 1_545
Mn0 O31 2.072722 1_555
Mn0 O22 2.195509 1_555
Mn0 O35 2.203113 1_555
Mn0 O32 2.216595 1_545
Mn1 O0 2.009620 1_655
Mn1 O5 2.046265 1_655
Mn1 O44 2.072722 1_555
Mn1 O4 2.195509 1_555
Mn1 O39 2.203113 1_555
Mn1 O38 2.216595 1_655
O0 P2 1.540301 1_555
O1 P1 1.529504 1_555
O2 P11 1.594241 1_555
O2 V1 2.023572 1_555
O2 V2 2.098905 1_555
O3 P1 1.591464 1_565
O3 V1 2.000355 1_555
O3 V0 2.113017 1_555
O4 P0 1.542826 1_555
O5 P1 1.540808 1_555
O6 P0 1.536551 1_555
O7 P0 1.543199 1_555
O7 V2 1.961000 1_555
O8 P2 1.594407 1_555
O8 V1 2.013265 1_555
O8 V0 2.100673 1_555
O9 P2 1.557584 1_555
O9 V2 2.075350 1_555
O10 P4 1.567603 1_554
O10 V0 2.042739 1_655
O11 P3 1.539482 1_554
O12 P3 1.594407 1_555
O12 V1 2.013265 1_556
O12 V3 2.100673 1_555
O13 P2 1.539482 1_556
O14 P1 1.567603 1_556
O14 V3 2.042739 1_545
O15 P3 1.557584 1_555
O15 V2 2.075350 1_556
O16 P4 1.591464 1_455
O16 V1 2.000355 1_556
O16 V3 2.113017 1_555
O17 P6 1.594241 1_555
O17 V1 2.023572 1_556
O17 V2 2.098905 1_556
O18 P4 1.540808 1_555
O19 P5 1.543199 1_555
O19 V2 1.961000 1_556
O20 P5 1.536551 1_555
O21 P4 1.529504 1_555
O22 P5 1.542826 1_555
O23 P3 1.540301 1_555
O24 P8 1.529596 1_555
O24 V3 2.028021 1_545
O25 P6 1.571643 1_555
O25 V3 2.074926 1_555
O26 P6 1.516664 1_555
O27 P7 1.520908 1_555
O28 P6 1.553420 1_555
O28 V4 1.948684 1_555
O29 P7 1.564760 1_555
O29 V3 1.941092 1_545
O30 P5 1.601566 1_555
O30 V5 2.064531 1_555
O30 V4 2.079879 1_555
O31 P7 1.595902 1_655
O31 V5 2.013564 1_555
O32 P10 1.543343 1_555
O33 P8 1.596559 1_555
O33 V4 1.914012 1_555
O34 P9 1.532688 1_555
O35 P8 1.577392 1_555
O35 V5 1.988992 1_555
O36 P8 1.532688 1_555
O37 P9 1.596559 1_555
O37 V4 1.914012 1_555
O38 P7 1.543343 1_555
O39 P9 1.577392 1_555
O39 V5 1.988992 1_555
O40 P11 1.553420 1_555
O40 V4 1.948684 1_555
O41 P11 1.516664 1_555
O42 P10 1.564760 1_555
O42 V0 1.941092 1_655
O43 P11 1.571643 1_555
O43 V0 2.074926 1_555
O44 P10 1.595902 1_545
O44 V5 2.013564 1_555
O45 P10 1.520908 1_555
O46 P0 1.601566 1_555
O46 V5 2.064531 1_555
O46 V4 2.079879 1_555
O47 P9 1.529596 1_555
O47 V0 2.028021 1_655
