# generated using pymatgen
data_InPH5NO5
_symmetry_space_group_name_H-M   'P 1'
_cell_length_a   9.48500800
_cell_length_b   9.48500800
_cell_length_c   11.42407100
_cell_angle_alpha   90.00000000
_cell_angle_beta   90.00000000
_cell_angle_gamma   90.00000000
_symmetry_Int_Tables_number   1
_chemical_formula_structural   InPH5NO5
_chemical_formula_sum   'In8 P8 H40 N8 O40'
_cell_volume   1027.77085165
_cell_formula_units_Z   8
loop_
 _symmetry_equiv_pos_site_id
 _symmetry_equiv_pos_as_xyz
  1  'x, y, z'
loop_
 _atom_site_type_symbol
 _atom_site_label
 _atom_site_symmetry_multiplicity
 _atom_site_fract_x
 _atom_site_fract_y
 _atom_site_fract_z
 _atom_site_occupancy
  In  In0  1  0.09475100  0.09475100  0.00000000  1
  In  In1  1  0.15200200  0.84799800  0.25000000  1
  In  In2  1  0.34799800  0.34799800  0.50000000  1
  In  In3  1  0.40524900  0.59475100  0.75000000  1
  In  In4  1  0.59475100  0.40524900  0.25000000  1
  In  In5  1  0.65200200  0.65200200  0.00000000  1
  In  In6  1  0.84799800  0.15200200  0.75000000  1
  In  In7  1  0.90524900  0.90524900  0.50000000  1
  P  P0  1  0.16562300  0.30668800  0.75684500  1
  P  P1  1  0.19331200  0.66562300  0.50684500  1
  P  P2  1  0.30668800  0.16562300  0.24315500  1
  P  P3  1  0.33437700  0.80668800  0.99315500  1
  P  P4  1  0.66562300  0.19331200  0.49315500  1
  P  P5  1  0.69331200  0.83437700  0.74315500  1
  P  P6  1  0.80668800  0.33437700  0.00684500  1
  P  P7  1  0.83437700  0.69331200  0.25684500  1
  H  H0  1  0.01017300  0.55822000  0.77749400  1
  H  H1  1  0.01928100  0.71740600  0.71364700  1
  H  H2  1  0.06227600  0.11337600  0.59990100  1
  H  H3  1  0.07496700  0.29966700  0.33634300  1
  H  H4  1  0.05822000  0.48982700  0.02749400  1
  H  H5  1  0.10919900  0.68517300  0.83869500  1
  H  H6  1  0.11337600  0.06227600  0.40009900  1
  H  H7  1  0.18517300  0.39080100  0.08869500  1
  H  H8  1  0.20033300  0.57496700  0.08634300  1
  H  H9  1  0.21740600  0.48071900  0.96364700  1
  H  H10  1  0.28259400  0.98071900  0.78635300  1
  H  H11  1  0.29966700  0.07496700  0.66365700  1
  H  H12  1  0.31482700  0.89080100  0.66130500  1
  H  H13  1  0.38662400  0.56227600  0.34990100  1
  H  H14  1  0.39080100  0.18517300  0.91130500  1
  H  H15  1  0.44178000  0.98982700  0.72250600  1
  H  H16  1  0.42503300  0.79966700  0.41365700  1
  H  H17  1  0.43772400  0.61337600  0.15009900  1
  H  H18  1  0.48071900  0.21740600  0.03635300  1
  H  H19  1  0.48982700  0.05822000  0.97250600  1
  H  H20  1  0.51017300  0.94178000  0.47250600  1
  H  H21  1  0.51928100  0.78259400  0.53635300  1
  H  H22  1  0.56227600  0.38662400  0.65009900  1
  H  H23  1  0.57496700  0.20033300  0.91365700  1
  H  H24  1  0.55822000  0.01017300  0.22250600  1
  H  H25  1  0.60919900  0.81482700  0.41130500  1
  H  H26  1  0.61337600  0.43772400  0.84990100  1
  H  H27  1  0.68517300  0.10919900  0.16130500  1
  H  H28  1  0.70033300  0.92503300  0.16365700  1
  H  H29  1  0.71740600  0.01928100  0.28635300  1
  H  H30  1  0.78259400  0.51928100  0.46364700  1
  H  H31  1  0.79966700  0.42503300  0.58634300  1
  H  H32  1  0.81482700  0.60919900  0.58869500  1
  H  H33  1  0.88662400  0.93772400  0.90009900  1
  H  H34  1  0.89080100  0.31482700  0.33869500  1
  H  H35  1  0.94178000  0.51017300  0.52749400  1
  H  H36  1  0.92503300  0.70033300  0.83634300  1
  H  H37  1  0.93772400  0.88662400  0.09990100  1
  H  H38  1  0.98071900  0.28259400  0.21364700  1
  H  H39  1  0.98982700  0.44178000  0.27749400  1
  N  N0  1  0.01591700  0.66522100  0.79317900  1
  N  N1  1  0.16522100  0.48408300  0.04317900  1
  N  N2  1  0.33477900  0.98408300  0.70682100  1
  N  N3  1  0.48408300  0.16522100  0.95682100  1
  N  N4  1  0.51591700  0.83477900  0.45682100  1
  N  N5  1  0.66522100  0.01591700  0.20682100  1
  N  N6  1  0.83477900  0.51591700  0.54317900  1
  N  N7  1  0.98408300  0.33477900  0.29317900  1
  O  O0  1  0.00300900  0.32506900  0.74998700  1
  O  O1  1  0.01159100  0.95140700  0.12620600  1
  O  O2  1  0.04711200  0.72933800  0.53167600  1
  O  O3  1  0.04859300  0.98840900  0.37379400  1
  O  O4  1  0.17493100  0.50300900  0.49998700  1
  O  O5  1  0.20806800  0.20527400  0.85874100  1
  O  O6  1  0.20527400  0.20806800  0.14125900  1
  O  O7  1  0.22933800  0.45288800  0.78167600  1
  O  O8  1  0.22444200  0.24054100  0.63975100  1
  O  O9  1  0.24054100  0.22444200  0.36024900  1
  O  O10  1  0.25945900  0.72444200  0.38975100  1
  O  O11  1  0.27555800  0.74054100  0.11024900  1
  O  O12  1  0.27066200  0.95288800  0.96832400  1
  O  O13  1  0.29472600  0.70806800  0.60874100  1
  O  O14  1  0.29193200  0.70527400  0.89125900  1
  O  O15  1  0.32506900  0.00300900  0.25001300  1
  O  O16  1  0.45140700  0.48840900  0.37620600  1
  O  O17  1  0.45288800  0.22933800  0.21832400  1
  O  O18  1  0.48840900  0.45140700  0.62379400  1
  O  O19  1  0.49699100  0.82506900  0.00001300  1
  O  O20  1  0.50300900  0.17493100  0.50001300  1
  O  O21  1  0.51159100  0.54859300  0.12379400  1
  O  O22  1  0.54711200  0.77066200  0.71832400  1
  O  O23  1  0.54859300  0.51159100  0.87620600  1
  O  O24  1  0.67493100  0.99699100  0.75001300  1
  O  O25  1  0.70806800  0.29472600  0.39125900  1
  O  O26  1  0.70527400  0.29193200  0.10874100  1
  O  O27  1  0.72933800  0.04711200  0.46832400  1
  O  O28  1  0.72444200  0.25945900  0.61024900  1
  O  O29  1  0.74054100  0.27555800  0.88975100  1
  O  O30  1  0.75945900  0.77555800  0.86024900  1
  O  O31  1  0.77555800  0.75945900  0.13975100  1
  O  O32  1  0.77066200  0.54711200  0.28167600  1
  O  O33  1  0.79472600  0.79193200  0.64125900  1
  O  O34  1  0.79193200  0.79472600  0.35874100  1
  O  O35  1  0.82506900  0.49699100  0.99998700  1
  O  O36  1  0.95140700  0.01159100  0.87379400  1
  O  O37  1  0.95288800  0.27066200  0.03167600  1
  O  O38  1  0.98840900  0.04859300  0.62620600  1
  O  O39  1  0.99699100  0.67493100  0.24998700  1
loop_
_geom_bond_atom_site_label_1
_geom_bond_atom_site_label_2
_geom_bond_distance
_geom_bond_site_symmetry_2
In0 O1 2.132950 1_545
In0 O36 2.132950 1_454
In0 O37 2.173813 1_455
In0 O12 2.173813 1_544
In0 O5 2.204173 1_554
In0 O6 2.204173 1_555
In1 O3 2.176184 1_555
In1 O1 2.176184 1_555
In1 O39 2.203721 1_455
In1 O15 2.203721 1_565
In1 O11 2.227362 1_555
In1 O10 2.227362 1_555
In2 O18 2.176184 1_555
In2 O16 2.176184 1_555
In2 O20 2.203721 1_555
In2 O4 2.203721 1_555
In2 O8 2.227362 1_555
In2 O9 2.227362 1_555
In3 O23 2.132950 1_555
In3 O18 2.132950 1_555
In3 O7 2.173813 1_555
In3 O22 2.173813 1_555
In3 O13 2.204173 1_555
In3 O14 2.204173 1_555
In4 O16 2.132950 1_555
In4 O21 2.132950 1_555
In4 O17 2.173813 1_555
In4 O32 2.173813 1_555
In4 O25 2.204173 1_555
In4 O26 2.204173 1_555
In5 O21 2.176184 1_555
In5 O23 2.176184 1_554
In5 O19 2.203721 1_555
In5 O35 2.203721 1_554
In5 O31 2.227362 1_555
In5 O30 2.227362 1_554
In6 O36 2.176184 1_555
In6 O38 2.176184 1_555
In6 O24 2.203721 1_545
In6 O0 2.203721 1_655
In6 O29 2.227362 1_555
In6 O28 2.227362 1_555
In7 O38 2.132950 1_565
In7 O3 2.132950 1_655
In7 O2 2.173813 1_655
In7 O27 2.173813 1_565
In7 O33 2.204173 1_555
In7 O34 2.204173 1_555
H0 N0 1.032041 1_555
H1 N0 1.035150 1_555
H2 O38 0.979162 1_455
H3 N7 1.047461 1_455
H3 O9 1.746442 1_555
H4 N1 1.032041 1_555
H5 N0 1.043565 1_555
H6 O3 0.979162 1_545
H7 N1 1.043565 1_555
H8 N1 1.047461 1_555
H8 O11 1.746442 1_555
H9 N1 1.035150 1_556
H10 N2 1.035150 1_555
H11 N2 1.047461 1_545
H11 O8 1.746442 1_555
H12 N2 1.043565 1_555
H13 O16 0.979162 1_555
H14 N3 1.043565 1_555
H15 N2 1.032041 1_555
H16 N4 1.047461 1_555
H16 O10 1.746442 1_555
H17 O21 0.979162 1_555
H18 N3 1.035150 1_554
H19 N3 1.032041 1_555
H20 N4 1.032041 1_555
H21 N4 1.035150 1_555
H22 O18 0.979162 1_555
H23 N3 1.047461 1_555
H23 O29 1.746442 1_555
H24 N5 1.032041 1_555
H25 N4 1.043565 1_555
H26 O23 0.979162 1_555
H27 N5 1.043565 1_555
H28 N5 1.047461 1_565
H28 O31 1.746442 1_555
H29 N5 1.035150 1_555
H30 N6 1.035150 1_555
H31 N6 1.047461 1_555
H31 O28 1.746442 1_555
H32 N6 1.043565 1_555
H33 O36 0.979162 1_565
H34 N7 1.043565 1_555
H35 N6 1.032041 1_555
H36 N0 1.047461 1_655
H36 O30 1.746442 1_555
H37 O1 0.979162 1_655
H38 N7 1.035150 1_555
H39 N7 1.032041 1_555
O0 P0 1.554193 1_555
O2 P1 1.539043 1_555
O4 P1 1.554193 1_555
O5 P0 1.562820 1_555
O6 P2 1.562820 1_555
O7 P0 1.539043 1_555
O8 P0 1.579336 1_555
O9 P2 1.579336 1_555
O10 P1 1.579336 1_555
O11 P3 1.579336 1_554
O12 P3 1.539043 1_555
O13 P1 1.562820 1_555
O14 P3 1.562820 1_555
O15 P2 1.554193 1_555
O17 P2 1.539043 1_555
O19 P3 1.554193 1_554
O20 P4 1.554193 1_555
O22 P5 1.539043 1_555
O24 P5 1.554193 1_555
O25 P4 1.562820 1_555
O26 P6 1.562820 1_555
O27 P4 1.539043 1_555
O28 P4 1.579336 1_555
O29 P6 1.579336 1_556
O30 P5 1.579336 1_555
O31 P7 1.579336 1_555
O32 P7 1.539043 1_555
O33 P5 1.562820 1_555
O34 P7 1.562820 1_555
O35 P6 1.554193 1_556
O37 P6 1.539043 1_555
O39 P7 1.554193 1_555
