# generated using pymatgen
data_Li4V2Si(PO6)2
_symmetry_space_group_name_H-M   'P 1'
_cell_length_a   9.00667000
_cell_length_b   8.48671400
_cell_length_c   12.38991557
_cell_angle_alpha   85.07795538
_cell_angle_beta   90.00000000
_cell_angle_gamma   90.00000000
_symmetry_Int_Tables_number   1
_chemical_formula_structural   Li4V2Si(PO6)2
_chemical_formula_sum   'Li16 V8 Si4 P8 O48'
_cell_volume   943.55600250
_cell_formula_units_Z   4
loop_
 _symmetry_equiv_pos_site_id
 _symmetry_equiv_pos_as_xyz
  1  'x, y, z'
loop_
 _atom_site_type_symbol
 _atom_site_label
 _atom_site_symmetry_multiplicity
 _atom_site_fract_x
 _atom_site_fract_y
 _atom_site_fract_z
 _atom_site_occupancy
  Li  Li0  1  0.21480200  0.44394300  0.70019500  1
  Li  Li1  1  0.99045000  0.75720500  0.75016000  1
  Li  Li2  1  0.90400800  0.76192200  0.50868400  1
  Li  Li3  1  0.00955000  0.75720500  0.25016000  1
  Li  Li4  1  0.70103300  0.54392500  0.79298800  1
  Li  Li5  1  0.21500400  0.04366100  0.29783800  1
  Li  Li6  1  0.09599200  0.76192200  0.00868400  1
  Li  Li7  1  0.78499600  0.04366100  0.79783800  1
  Li  Li8  1  0.69217400  0.97950800  0.19647500  1
  Li  Li9  1  0.41598100  0.22981800  0.00298900  1
  Li  Li10  1  0.78519800  0.44394300  0.20019500  1
  Li  Li11  1  0.30782600  0.97950800  0.69647500  1
  Li  Li12  1  0.50717100  0.24161900  0.74901700  1
  Li  Li13  1  0.58401900  0.22981800  0.50298900  1
  Li  Li14  1  0.49282900  0.24161900  0.24901700  1
  Li  Li15  1  0.29896700  0.54392500  0.29298800  1
  V  V0  1  0.99796700  0.46512100  0.89122200  1
  V  V1  1  0.49942100  0.96796800  0.89228400  1
  V  V2  1  0.00203300  0.46512100  0.39122200  1
  V  V3  1  0.00163800  0.03715100  0.61131700  1
  V  V4  1  0.50057900  0.96796800  0.39228400  1
  V  V5  1  0.99836200  0.03715100  0.11131700  1
  V  V6  1  0.50338900  0.53250900  0.60694900  1
  V  V7  1  0.49661100  0.53250900  0.10694900  1
  Si  Si0  1  0.70404000  0.25201600  0.99901600  1
  Si  Si1  1  0.64775700  0.89589400  0.64822800  1
  Si  Si2  1  0.35224300  0.89589400  0.14822800  1
  Si  Si3  1  0.29596000  0.25201600  0.49901600  1
  P  P0  1  0.19990400  0.75076500  0.49908900  1
  P  P1  1  0.14659000  0.09956200  0.85239400  1
  P  P2  1  0.80009600  0.75076500  0.99908900  1
  P  P3  1  0.85305300  0.39941600  0.64878800  1
  P  P4  1  0.14694700  0.39941600  0.14878800  1
  P  P5  1  0.85341000  0.09956200  0.35239400  1
  P  P6  1  0.35068900  0.60015800  0.85158900  1
  P  P7  1  0.64931100  0.60015800  0.35158900  1
  O  O0  1  0.17871200  0.59558500  0.83163500  1
  O  O1  1  0.09749500  0.27379500  0.83485300  1
  O  O2  1  0.09568000  0.81900100  0.58543100  1
  O  O3  1  0.91005600  0.68623800  0.91487400  1
  O  O4  1  0.09951000  0.02193800  0.96358800  1
  O  O5  1  0.19610800  0.12442800  0.57369400  1
  O  O6  1  0.08994400  0.68623800  0.41487400  1
  O  O7  1  0.70705900  0.87637600  0.93377700  1
  O  O8  1  0.19597300  0.38371400  0.42828200  1
  O  O9  1  0.17081400  0.90193900  0.16922300  1
  O  O10  1  0.08026400  0.99171400  0.76843100  1
  O  O11  1  0.92094200  0.50784100  0.73272700  1
  O  O12  1  0.82918600  0.90193900  0.66922300  1
  O  O13  1  0.80402700  0.38371400  0.92828200  1
  O  O14  1  0.90001900  0.47691400  0.53781400  1
  O  O15  1  0.07905800  0.50784100  0.23272700  1
  O  O16  1  0.57318900  0.00601500  0.73767400  1
  O  O17  1  0.90054500  0.22493100  0.66615400  1
  O  O18  1  0.60629200  0.70874400  0.66314300  1
  O  O19  1  0.09945500  0.22493100  0.16615400  1
  O  O20  1  0.59457000  0.18048100  0.90817300  1
  O  O21  1  0.09998100  0.47691400  0.03781400  1
  O  O22  1  0.59280600  0.98085700  0.53244400  1
  O  O23  1  0.68182900  0.39565000  0.67016700  1
  O  O24  1  0.82128800  0.59558500  0.33163500  1
  O  O25  1  0.90049000  0.02193800  0.46358800  1
  O  O26  1  0.39848100  0.52013000  0.96210600  1
  O  O27  1  0.90432000  0.81900100  0.08543100  1
  O  O28  1  0.90250500  0.27379500  0.33485300  1
  O  O29  1  0.39415600  0.77552300  0.83855100  1
  O  O30  1  0.60584400  0.77552300  0.33855100  1
  O  O31  1  0.41865500  0.49614900  0.76514400  1
  O  O32  1  0.91973600  0.99171400  0.26843100  1
  O  O33  1  0.60151900  0.52013000  0.46210600  1
  O  O34  1  0.70403400  0.62454000  0.06288000  1
  O  O35  1  0.68207400  0.10371600  0.33062800  1
  O  O36  1  0.58134500  0.49614900  0.26514400  1
  O  O37  1  0.42681100  0.00601500  0.23767400  1
  O  O38  1  0.31792600  0.10371600  0.83062800  1
  O  O39  1  0.29596600  0.62454000  0.56288000  1
  O  O40  1  0.80389200  0.12442800  0.07369400  1
  O  O41  1  0.40931700  0.32158400  0.58983900  1
  O  O42  1  0.29294100  0.87637600  0.43377700  1
  O  O43  1  0.40719400  0.98085700  0.03244400  1
  O  O44  1  0.59068300  0.32158400  0.08983900  1
  O  O45  1  0.40543000  0.18048100  0.40817300  1
  O  O46  1  0.39370800  0.70874400  0.16314300  1
  O  O47  1  0.31817100  0.39565000  0.17016700  1
loop_
_geom_bond_atom_site_label_1
_geom_bond_atom_site_label_2
_geom_bond_distance
_geom_bond_site_symmetry_2
Li0 O31 2.067867 1_555
Li0 O0 2.184865 1_555
Li0 O39 2.308790 1_555
Li0 O1 2.360416 1_555
Li0 O41 2.502150 1_555
Li1 O12 2.100623 1_555
Li1 O10 2.178040 1_655
Li1 O3 2.200216 1_555
Li1 O11 2.235097 1_555
Li1 O2 2.270513 1_655
Li1 O0 2.353270 1_655
Li2 O2 2.048925 1_655
Li2 O6 2.167050 1_655
Li2 O25 2.229587 1_565
Li2 O14 2.415006 1_555
Li2 O12 2.495621 1_555
Li3 O9 2.100623 1_555
Li3 O32 2.178040 1_455
Li3 O6 2.200216 1_555
Li3 O15 2.235097 1_555
Li3 O27 2.270513 1_455
Li3 O24 2.353270 1_455
Li4 O23 2.063420 1_555
Li4 O11 2.147891 1_555
Li4 O18 2.210581 1_555
Li4 O13 2.264509 1_555
Li4 O31 2.603021 1_555
Li5 O37 2.082746 1_555
Li5 O9 2.115007 1_545
Li5 O42 2.221427 1_545
Li5 O19 2.383479 1_555
Li5 O45 2.535951 1_555
Li6 O27 2.048925 1_455
Li6 O3 2.167050 1_454
Li6 O4 2.229587 1_564
Li6 O21 2.415006 1_555
Li6 O9 2.495621 1_555
Li7 O16 2.082746 1_555
Li7 O12 2.115007 1_545
Li7 O7 2.221427 1_545
Li7 O17 2.383479 1_555
Li7 O20 2.535951 1_555
Li8 O35 2.045195 1_565
Li8 O40 2.125611 1_565
Li8 O32 2.241018 1_555
Li8 O37 2.458282 1_565
Li8 O30 2.485409 1_555
Li9 O20 2.055976 1_554
Li9 O44 2.093821 1_555
Li9 O43 2.114548 1_545
Li9 O26 2.477408 1_554
Li10 O36 2.067867 1_555
Li10 O24 2.184865 1_555
Li10 O34 2.308790 1_555
Li10 O28 2.360416 1_555
Li10 O44 2.502150 1_555
Li11 O38 2.045195 1_565
Li11 O5 2.125611 1_565
Li11 O10 2.241018 1_555
Li11 O16 2.458282 1_565
Li11 O29 2.485409 1_555
Li12 O16 2.102270 1_555
Li12 O20 2.145178 1_555
Li12 O41 2.212966 1_555
Li12 O23 2.217813 1_555
Li12 O38 2.257049 1_555
Li12 O31 2.327167 1_555
Li13 O45 2.055976 1_555
Li13 O41 2.093821 1_555
Li13 O22 2.114548 1_545
Li13 O33 2.477408 1_555
Li14 O37 2.102270 1_555
Li14 O45 2.145178 1_555
Li14 O44 2.212966 1_555
Li14 O47 2.217813 1_555
Li14 O35 2.257049 1_555
Li14 O36 2.327167 1_555
Li15 O47 2.063420 1_555
Li15 O15 2.147891 1_555
Li15 O46 2.210581 1_555
Li15 O8 2.264509 1_555
Li15 O36 2.603021 1_555
O0 P6 1.569551 1_555
O0 V0 2.069007 1_455
O1 P1 1.540800 1_555
O1 V0 2.030377 1_455
O2 P0 1.570748 1_555
O2 V3 2.085611 1_565
O3 P2 1.570828 1_555
O3 V0 2.080536 1_555
O4 P1 1.534946 1_555
O4 V5 2.058479 1_456
O5 Si3 1.632617 1_555
O5 V3 1.942812 1_555
O6 P0 1.570828 1_555
O6 V2 2.080536 1_555
O7 P2 1.531459 1_555
O7 V1 2.072996 1_555
O8 Si3 1.631004 1_555
O8 V2 1.919599 1_555
O9 Si2 1.656133 1_555
O9 V5 2.025516 1_465
O10 P1 1.562111 1_565
O10 V3 2.076232 1_565
O11 P3 1.570479 1_555
O11 V0 2.084903 1_555
O12 Si1 1.656133 1_555
O12 V3 2.025516 1_665
O13 Si0 1.631004 1_555
O13 V0 1.919599 1_555
O14 P3 1.531940 1_555
O14 V2 2.045538 1_655
O15 P4 1.570479 1_555
O15 V2 2.084903 1_555
O16 Si1 1.652383 1_545
O16 V1 2.027090 1_545
O17 P3 1.538625 1_555
O17 V3 2.004027 1_655
O18 Si1 1.626628 1_555
O18 V6 1.938920 1_555
O19 P4 1.538625 1_555
O19 V5 2.004027 1_455
O20 Si0 1.650689 1_555
O20 V1 2.021592 1_545
O21 P4 1.531940 1_555
O21 V0 2.045538 1_454
O22 Si1 1.626443 1_555
O22 V4 1.936552 1_555
O23 P3 1.564603 1_555
O23 V6 2.095082 1_555
O24 P7 1.569551 1_555
O24 V2 2.069007 1_655
O25 P5 1.534946 1_555
O25 V3 2.058479 1_655
O26 P6 1.536863 1_555
O26 V7 2.011243 1_556
O27 P2 1.570748 1_554
O27 V5 2.085611 1_565
O28 P5 1.540800 1_555
O28 V2 2.030377 1_655
O29 P6 1.533969 1_555
O29 V1 2.048438 1_555
O30 P7 1.533969 1_555
O30 V4 2.048438 1_555
O31 P6 1.569473 1_555
O31 V6 2.101321 1_555
O32 P5 1.562111 1_565
O32 V5 2.076232 1_565
O33 P7 1.536863 1_555
O33 V6 2.011243 1_555
O34 P2 1.541267 1_554
O34 V7 2.079690 1_555
O35 P5 1.566430 1_555
O35 V4 2.105209 1_545
O36 P7 1.569473 1_555
O36 V7 2.101321 1_555
O37 Si2 1.652383 1_545
O37 V4 2.027090 1_545
O38 P1 1.566430 1_555
O38 V1 2.105209 1_545
O39 P0 1.541267 1_555
O39 V6 2.079690 1_555
O40 Si0 1.632617 1_554
O40 V5 1.942812 1_555
O41 Si3 1.664703 1_555
O41 V6 2.008046 1_555
O42 P0 1.531459 1_555
O42 V4 2.072996 1_555
O43 Si2 1.626443 1_555
O43 V1 1.936552 1_554
O44 Si0 1.664703 1_554
O44 V7 2.008046 1_555
O45 Si3 1.650689 1_555
O45 V4 2.021592 1_545
O46 Si2 1.626628 1_555
O46 V7 1.938920 1_555
O47 P4 1.564603 1_555
O47 V7 2.095082 1_555
