# generated using pymatgen
data_Li3Fe3O8
_symmetry_space_group_name_H-M   'P 1'
_cell_length_a   5.89777759
_cell_length_b   5.89777759
_cell_length_c   5.89777717
_cell_angle_alpha   59.58105856
_cell_angle_beta   59.58105856
_cell_angle_gamma   59.58106105
_symmetry_Int_Tables_number   1
_chemical_formula_structural   Li3Fe3O8
_chemical_formula_sum   'Li3 Fe3 O8'
_cell_volume   143.67939166
_cell_formula_units_Z   1
loop_
 _symmetry_equiv_pos_site_id
 _symmetry_equiv_pos_as_xyz
  1  'x, y, z'
loop_
 _atom_site_type_symbol
 _atom_site_label
 _atom_site_symmetry_multiplicity
 _atom_site_fract_x
 _atom_site_fract_y
 _atom_site_fract_z
 _atom_site_occupancy
  Li  Li0  1  0.00000000  0.00000000  0.00000000  1
  Li  Li1  1  0.38161700  0.38161700  0.38161700  1
  Li  Li2  1  0.61838300  0.61838300  0.61838300  1
  Fe  Fe0  1  0.00000000  0.50000000  0.00000000  1
  Fe  Fe1  1  0.50000000  0.00000000  0.00000000  1
  Fe  Fe2  1  0.00000000  0.00000000  0.50000000  1
  O  O0  1  0.24759800  0.24759800  0.79529100  1
  O  O1  1  0.79529100  0.24759800  0.24759800  1
  O  O2  1  0.24759800  0.79529100  0.24759800  1
  O  O3  1  0.75557400  0.75557400  0.75557400  1
  O  O4  1  0.75240200  0.75240200  0.20470900  1
  O  O5  1  0.20470900  0.75240200  0.75240200  1
  O  O6  1  0.75240200  0.20470900  0.75240200  1
  O  O7  1  0.24442600  0.24442600  0.24442600  1
loop_
_geom_bond_atom_site_label_1
_geom_bond_atom_site_label_2
_geom_bond_distance
_geom_bond_site_symmetry_2
Li0 O1 2.076341 1_455
Li0 O2 2.076341 1_545
Li0 O5 2.076341 1_544
Li0 O6 2.076341 1_454
Li0 O0 2.076342 1_554
Li0 O4 2.076342 1_445
Li1 O0 1.982169 1_555
Li1 O2 1.982169 1_555
Li1 O1 1.982169 1_555
Li1 O7 1.988188 1_555
Li2 O4 1.982169 1_555
Li2 O5 1.982169 1_555
Li2 O6 1.982169 1_555
Li2 O3 1.988188 1_555
Fe0 O5 1.907720 1_554
Fe0 O1 1.907720 1_455
Fe0 O4 1.907720 1_455
Fe0 O0 1.907720 1_554
Fe0 O7 2.032711 1_555
Fe0 O3 2.032711 1_454
Fe1 O6 1.907720 1_554
Fe1 O2 1.907720 1_545
Fe1 O4 1.907720 1_545
Fe1 O0 1.907720 1_554
Fe1 O7 2.032711 1_555
Fe1 O3 2.032711 1_544
Fe2 O6 1.907720 1_455
Fe2 O5 1.907720 1_545
Fe2 O2 1.907720 1_545
Fe2 O1 1.907720 1_455
Fe2 O7 2.032711 1_555
Fe2 O3 2.032711 1_445
