# generated using pymatgen
data_DyTiO3
_symmetry_space_group_name_H-M   'P 1'
_cell_length_a   5.33560000
_cell_length_b   5.71698500
_cell_length_c   7.69290300
_cell_angle_alpha   90.00000000
_cell_angle_beta   90.00000000
_cell_angle_gamma   90.00000000
_symmetry_Int_Tables_number   1
_chemical_formula_structural   DyTiO3
_chemical_formula_sum   'Dy4 Ti4 O12'
_cell_volume   234.66081412
_cell_formula_units_Z   4
loop_
 _symmetry_equiv_pos_site_id
 _symmetry_equiv_pos_as_xyz
  1  'x, y, z'
loop_
 _atom_site_type_symbol
 _atom_site_label
 _atom_site_symmetry_multiplicity
 _atom_site_fract_x
 _atom_site_fract_y
 _atom_site_fract_z
 _atom_site_occupancy
  Dy  Dy0  1  0.47809200  0.42744100  0.75000000  1
  Dy  Dy1  1  0.02190800  0.92744100  0.75000000  1
  Dy  Dy2  1  0.97809200  0.07255900  0.25000000  1
  Dy  Dy3  1  0.52190800  0.57255900  0.25000000  1
  Ti  Ti0  1  0.50000000  0.00000000  0.00000000  1
  Ti  Ti1  1  0.50000000  0.00000000  0.50000000  1
  Ti  Ti2  1  0.00000000  0.50000000  0.00000000  1
  Ti  Ti3  1  0.00000000  0.50000000  0.50000000  1
  O  O0  1  0.62167400  0.04519300  0.75000000  1
  O  O1  1  0.68914600  0.30332400  0.05819600  1
  O  O2  1  0.68914600  0.30332400  0.44180400  1
  O  O3  1  0.81085400  0.80332400  0.44180400  1
  O  O4  1  0.81085400  0.80332400  0.05819600  1
  O  O5  1  0.87832600  0.54519300  0.75000000  1
  O  O6  1  0.12167400  0.45480700  0.25000000  1
  O  O7  1  0.18914600  0.19667600  0.94180400  1
  O  O8  1  0.18914600  0.19667600  0.55819600  1
  O  O9  1  0.31085400  0.69667600  0.55819600  1
  O  O10  1  0.31085400  0.69667600  0.94180400  1
  O  O11  1  0.37832600  0.95480700  0.25000000  1
loop_
_geom_bond_atom_site_label_1
_geom_bond_atom_site_label_2
_geom_bond_distance
_geom_bond_site_symmetry_2
Dy0 O5 2.239083 1_555
Dy0 O10 2.311404 1_555
Dy0 O9 2.311404 1_555
Dy0 O0 2.315700 1_555
Dy0 O7 2.508890 1_555
Dy0 O8 2.508890 1_555
Dy0 O1 2.718983 1_556
Dy0 O2 2.718983 1_555
Dy1 O0 2.239083 1_465
Dy1 O7 2.311404 1_565
Dy1 O8 2.311404 1_565
Dy1 O5 2.315700 1_455
Dy1 O10 2.508890 1_555
Dy1 O9 2.508890 1_555
Dy1 O4 2.718983 1_456
Dy1 O3 2.718983 1_455
Dy2 O11 2.239083 1_645
Dy2 O3 2.311404 1_545
Dy2 O4 2.311404 1_545
Dy2 O6 2.315700 1_655
Dy2 O1 2.508890 1_555
Dy2 O2 2.508890 1_555
Dy2 O7 2.718983 1_654
Dy2 O8 2.718983 1_655
Dy3 O6 2.239083 1_555
Dy3 O2 2.311404 1_555
Dy3 O1 2.311404 1_555
Dy3 O11 2.315700 1_555
Dy3 O4 2.508890 1_555
Dy3 O3 2.508890 1_555
Dy3 O9 2.718983 1_555
Dy3 O10 2.718983 1_554
O0 Ti1 2.046220 1_555
O0 Ti0 2.046220 1_556
O1 Ti2 2.053198 1_655
O1 Ti0 2.055731 1_555
O2 Ti3 2.053198 1_655
O2 Ti1 2.055731 1_555
O3 Ti1 2.053198 1_565
O3 Ti3 2.055731 1_655
O4 Ti0 2.053198 1_565
O4 Ti2 2.055731 1_655
O5 Ti2 2.046220 1_656
O5 Ti3 2.046220 1_655
O6 Ti3 2.046220 1_555
O6 Ti2 2.046220 1_555
O7 Ti0 2.053198 1_556
O7 Ti2 2.055731 1_556
O8 Ti1 2.053198 1_555
O8 Ti3 2.055731 1_555
O9 Ti3 2.053198 1_555
O9 Ti1 2.055731 1_565
O10 Ti2 2.053198 1_556
O10 Ti0 2.055731 1_566
O11 Ti1 2.046220 1_565
O11 Ti0 2.046220 1_565
