# generated using pymatgen
data_Li24Mn11CrO36
_symmetry_space_group_name_H-M   'P 1'
_cell_length_a   8.66795111
_cell_length_b   8.66795111
_cell_length_c   11.66429451
_cell_angle_alpha   60.48697163
_cell_angle_beta   60.48697163
_cell_angle_gamma   59.82775144
_symmetry_Int_Tables_number   1
_chemical_formula_structural   Li24Mn11CrO36
_chemical_formula_sum   'Li24 Mn11 Cr1 O36'
_cell_volume   623.38658834
_cell_formula_units_Z   1
loop_
 _symmetry_equiv_pos_site_id
 _symmetry_equiv_pos_as_xyz
  1  'x, y, z'
loop_
 _atom_site_type_symbol
 _atom_site_label
 _atom_site_symmetry_multiplicity
 _atom_site_fract_x
 _atom_site_fract_y
 _atom_site_fract_z
 _atom_site_occupancy
  Li  Li0  1  0.99116100  0.00449700  0.25246800  1
  Li  Li1  1  0.99740500  0.33360000  0.99966100  1
  Li  Li2  1  0.66734000  0.99988000  0.75013800  1
  Li  Li3  1  0.66035500  0.66960400  0.74968100  1
  Li  Li4  1  0.66491200  0.99909800  0.50217000  1
  Li  Li5  1  0.33039600  0.33964500  0.25031900  1
  Li  Li6  1  0.67382700  0.32779600  0.24818700  1
  Li  Li7  1  0.66270500  0.00331400  0.25166500  1
  Li  Li8  1  0.33283400  0.66716600  0.00000000  1
  Li  Li9  1  0.33775300  0.99628100  0.75148000  1
  Li  Li10  1  0.33452800  0.66601300  0.75169700  1
  Li  Li11  1  0.32845700  0.33640800  0.75093200  1
  Li  Li12  1  0.33398700  0.66547200  0.24830300  1
  Li  Li13  1  0.00512800  0.66335900  0.74908200  1
  Li  Li14  1  0.99668600  0.33729500  0.74833500  1
  Li  Li15  1  0.99550300  0.00883900  0.74753200  1
  Li  Li16  1  0.00090200  0.33508800  0.49783000  1
  Li  Li17  1  0.66359200  0.67154300  0.24906800  1
  Li  Li18  1  0.00371900  0.66224700  0.24852000  1
  Li  Li19  1  0.00012000  0.33266000  0.24986200  1
  Li  Li20  1  0.66640000  0.00259500  0.00033900  1
  Li  Li21  1  0.67220400  0.32617300  0.75181300  1
  Li  Li22  1  0.33017700  0.66982300  0.50000000  1
  Li  Li23  1  0.33664100  0.99487200  0.25091800  1
  Mn  Mn0  1  0.66537800  0.66664900  0.00007500  1
  Mn  Mn1  1  0.66510400  0.33489600  0.00000000  1
  Mn  Mn2  1  0.33088700  0.00080200  0.00101300  1
  Mn  Mn3  1  0.33335100  0.33462200  0.99992500  1
  Mn  Mn4  1  0.33088000  0.33139700  0.50253200  1
  Mn  Mn5  1  0.33138800  0.00115200  0.50046600  1
  Mn  Mn6  1  0.99940400  0.00059600  0.00000000  1
  Mn  Mn7  1  0.99919800  0.66911300  0.99898700  1
  Mn  Mn8  1  0.99884800  0.66861200  0.49953400  1
  Mn  Mn9  1  0.99970100  0.00029900  0.50000000  1
  Mn  Mn10  1  0.66860300  0.66912000  0.49746800  1
  Cr  Cr0  1  0.66195000  0.33805000  0.50000000  1
  O  O0  1  0.82833700  0.16440000  0.11408200  1
  O  O1  1  0.80902200  0.50296500  0.88790300  1
  O  O2  1  0.85462000  0.83221100  0.61159600  1
  O  O3  1  0.52046200  0.49816800  0.11215500  1
  O  O4  1  0.83779100  0.17019500  0.38550100  1
  O  O5  1  0.49703500  0.19097700  0.11209700  1
  O  O6  1  0.50104400  0.83726200  0.88703100  1
  O  O7  1  0.50183200  0.47953800  0.88784500  1
  O  O8  1  0.49355400  0.18655100  0.61424600  1
  O  O9  1  0.49594100  0.83067800  0.61424800  1
  O  O10  1  0.18702600  0.16528500  0.11256200  1
  O  O11  1  0.50312800  0.47373500  0.38900400  1
  O  O12  1  0.16286600  0.85582600  0.11273600  1
  O  O13  1  0.16273800  0.49895600  0.11296900  1
  O  O14  1  0.47573600  0.16961600  0.38894400  1
  O  O15  1  0.16600200  0.14531600  0.88914600  1
  O  O16  1  0.16784400  0.50413400  0.88660700  1
  O  O17  1  0.14417400  0.83713400  0.88726400  1
  O  O18  1  0.18559500  0.16503600  0.61288300  1
  O  O19  1  0.16232000  0.49721000  0.61523400  1
  O  O20  1  0.16511600  0.85453300  0.61200700  1
  O  O21  1  0.85468400  0.83399800  0.11085400  1
  O  O22  1  0.16932200  0.50405900  0.38575200  1
  O  O23  1  0.16778900  0.14538000  0.38840400  1
  O  O24  1  0.83031900  0.52123200  0.11213900  1
  O  O25  1  0.14546700  0.83488400  0.38799300  1
  O  O26  1  0.83560000  0.17166300  0.88591800  1
  O  O27  1  0.83471500  0.81297400  0.88743800  1
  O  O28  1  0.83038400  0.52426400  0.61105600  1
  O  O29  1  0.82980500  0.16220900  0.61449900  1
  O  O30  1  0.83496400  0.81440500  0.38711700  1
  O  O31  1  0.49586600  0.83215600  0.11339300  1
  O  O32  1  0.81344900  0.50644600  0.38575400  1
  O  O33  1  0.47876800  0.16968100  0.88786100  1
  O  O34  1  0.52626500  0.49687200  0.61099600  1
  O  O35  1  0.50279000  0.83768000  0.38476600  1
loop_
_geom_bond_atom_site_label_1
_geom_bond_atom_site_label_2
_geom_bond_distance
_geom_bond_site_symmetry_2
Li0 O25 2.065449 1_645
Li0 O12 2.069718 1_645
Li0 O4 2.117100 1_555
Li0 O0 2.143004 1_555
Li0 O30 2.147667 1_545
Li0 O10 2.212652 1_655
Li1 O15 2.068867 1_655
Li1 O1 2.079160 1_555
Li1 O24 2.080007 1_556
Li1 O0 2.093986 1_556
Li1 O10 2.096059 1_656
Li1 O16 2.112293 1_655
Li2 O29 2.017285 1_565
Li2 O6 2.042416 1_555
Li2 O27 2.159760 1_555
Li2 O2 2.171792 1_555
Li2 O33 2.177806 1_565
Li2 O8 2.185235 1_565
Li3 O28 2.041195 1_555
Li3 O1 2.056175 1_555
Li3 O9 2.126226 1_555
Li3 O7 2.162725 1_555
Li3 O6 2.163906 1_555
Li3 O2 2.212057 1_555
Li4 O2 2.069627 1_555
Li4 O8 2.075813 1_565
Li4 O30 2.081434 1_555
Li4 O9 2.089945 1_555
Li4 O14 2.095682 1_565
Li4 O4 2.129143 1_565
Li5 O14 2.041195 1_555
Li5 O5 2.056180 1_555
Li5 O22 2.126226 1_555
Li5 O3 2.162725 1_555
Li5 O13 2.163906 1_555
Li5 O23 2.212057 1_555
Li6 O11 2.063640 1_555
Li6 O3 2.064437 1_555
Li6 O0 2.111506 1_555
Li6 O4 2.141691 1_555
Li6 O24 2.171053 1_555
Li6 O14 2.212431 1_555
Li7 O35 2.019176 1_545
Li7 O0 2.030660 1_555
Li7 O14 2.153487 1_555
Li7 O5 2.169007 1_555
Li7 O30 2.173623 1_545
Li7 O21 2.201793 1_545
Li8 O3 2.077406 1_555
Li8 O7 2.077406 1_554
Li8 O12 2.088553 1_555
Li8 O17 2.088553 1_554
Li8 O13 2.095202 1_555
Li8 O6 2.095202 1_554
Li9 O15 2.054009 1_565
Li9 O18 2.079486 1_565
Li9 O6 2.121260 1_555
Li9 O8 2.148050 1_565
Li9 O9 2.150760 1_555
Li9 O17 2.186937 1_555
Li10 O9 2.026800 1_555
Li10 O16 2.038375 1_555
Li10 O7 2.149744 1_555
Li10 O17 2.168682 1_555
Li10 O20 2.191696 1_555
Li10 O34 2.199789 1_555
Li11 O8 2.049655 1_555
Li11 O33 2.054369 1_555
Li11 O19 2.139237 1_555
Li11 O16 2.148929 1_555
Li11 O15 2.191460 1_555
Li11 O34 2.223003 1_555
Li12 O22 2.026800 1_555
Li12 O31 2.038375 1_555
Li12 O3 2.149744 1_555
Li12 O12 2.168682 1_555
Li12 O25 2.191696 1_555
Li12 O11 2.199789 1_555
Li13 O2 2.060414 1_455
Li13 O27 2.062995 1_455
Li13 O19 2.124853 1_555
Li13 O16 2.135051 1_555
Li13 O20 2.177267 1_555
Li13 O1 2.211341 1_455
Li14 O19 2.019176 1_655
Li14 O26 2.030660 1_555
Li14 O28 2.153487 1_555
Li14 O1 2.169007 1_555
Li14 O18 2.173623 1_655
Li14 O15 2.201793 1_655
Li15 O20 2.065449 1_645
Li15 O17 2.069718 1_645
Li15 O29 2.117100 1_555
Li15 O26 2.143004 1_555
Li15 O18 2.147667 1_655
Li15 O27 2.212652 1_545
Li16 O23 2.069627 1_555
Li16 O32 2.075813 1_455
Li16 O18 2.081434 1_555
Li16 O22 2.089945 1_555
Li16 O28 2.095682 1_455
Li16 O29 2.129143 1_455
Li17 O32 2.049655 1_555
Li17 O24 2.054369 1_555
Li17 O35 2.139237 1_555
Li17 O31 2.148929 1_555
Li17 O21 2.191460 1_555
Li17 O11 2.223003 1_555
Li18 O21 2.054009 1_455
Li18 O30 2.079486 1_455
Li18 O13 2.121260 1_555
Li18 O32 2.148050 1_455
Li18 O22 2.150760 1_555
Li18 O12 2.186937 1_555
Li19 O4 2.017285 1_455
Li19 O13 2.042416 1_555
Li19 O10 2.159760 1_555
Li19 O23 2.171792 1_555
Li19 O24 2.177806 1_455
Li19 O32 2.185235 1_455
Li20 O21 2.068867 1_545
Li20 O5 2.079154 1_555
Li20 O33 2.080007 1_554
Li20 O26 2.093986 1_554
Li20 O27 2.096059 1_544
Li20 O31 2.112293 1_545
Li21 O34 2.063640 1_555
Li21 O7 2.064437 1_555
Li21 O26 2.111506 1_555
Li21 O29 2.141691 1_555
Li21 O33 2.171053 1_555
Li21 O28 2.212431 1_555
Li22 O20 2.057648 1_555
Li22 O25 2.057648 1_555
Li22 O19 2.107675 1_555
Li22 O35 2.107675 1_555
Li22 O34 2.122981 1_555
Li22 O11 2.122981 1_555
Li23 O23 2.060414 1_565
Li23 O10 2.062995 1_565
Li23 O35 2.124853 1_555
Li23 O31 2.135051 1_555
Li23 O25 2.177267 1_555
Li23 O5 2.211335 1_565
Mn0 O1 1.929609 1_554
Mn0 O24 1.935959 1_555
Mn0 O3 1.940280 1_555
Mn0 O6 1.940747 1_554
Mn0 O31 1.949363 1_555
Mn0 O27 1.954191 1_554
Mn1 O7 1.926329 1_554
Mn1 O3 1.926329 1_555
Mn1 O1 1.931623 1_554
Mn1 O5 1.931629 1_555
Mn1 O0 1.942235 1_555
Mn1 O26 1.942235 1_554
Mn2 O10 1.929423 1_555
Mn2 O15 1.934372 1_554
Mn2 O12 1.937735 1_545
Mn2 O31 1.938507 1_545
Mn2 O6 1.943110 1_544
Mn2 O33 1.960524 1_554
Mn3 O5 1.929608 1_556
Mn3 O33 1.935959 1_555
Mn3 O7 1.940280 1_555
Mn3 O13 1.940747 1_556
Mn3 O16 1.949363 1_555
Mn3 O10 1.954191 1_556
Mn4 O8 1.918694 1_555
Mn4 O14 1.928740 1_555
Mn4 O18 1.929179 1_555
Mn4 O19 1.945992 1_555
Mn4 O11 1.949095 1_555
Mn4 O22 1.954610 1_555
Mn5 O23 1.927847 1_555
Mn5 O18 1.931949 1_555
Mn5 O20 1.936412 1_545
Mn5 O14 1.936864 1_555
Mn5 O9 1.947723 1_545
Mn5 O35 1.956752 1_545
Mn6 O15 1.927171 1_654
Mn6 O21 1.927171 1_545
Mn6 O12 1.932378 1_645
Mn6 O17 1.932378 1_644
Mn6 O0 1.945905 1_555
Mn6 O26 1.945905 1_554
Mn7 O27 1.929423 1_555
Mn7 O21 1.934372 1_556
Mn7 O17 1.937735 1_655
Mn7 O16 1.938507 1_655
Mn7 O13 1.943110 1_656
Mn7 O24 1.960524 1_556
Mn8 O2 1.927847 1_555
Mn8 O30 1.931949 1_555
Mn8 O25 1.936412 1_655
Mn8 O28 1.936864 1_555
Mn8 O22 1.947723 1_655
Mn8 O19 1.956752 1_655
Mn9 O4 1.937371 1_555
Mn9 O29 1.937371 1_555
Mn9 O20 1.938380 1_645
Mn9 O25 1.938380 1_645
Mn9 O23 1.938828 1_655
Mn9 O2 1.938828 1_545
Mn10 O32 1.918694 1_555
Mn10 O28 1.928740 1_555
Mn10 O30 1.929179 1_555
Mn10 O35 1.945992 1_555
Mn10 O34 1.949095 1_555
Mn10 O9 1.954610 1_555
Cr0 O34 1.892867 1_555
Cr0 O11 1.892867 1_555
Cr0 O29 1.975724 1_555
Cr0 O4 1.975724 1_555
Cr0 O32 1.979158 1_555
Cr0 O8 1.979158 1_555
