# generated using pymatgen
data_Mn2CrO6
_symmetry_space_group_name_H-M   'P 1'
_cell_length_a   5.07693485
_cell_length_b   5.07693485
_cell_length_c   9.61052300
_cell_angle_alpha   90.00000000
_cell_angle_beta   90.00000000
_cell_angle_gamma   120.19455249
_symmetry_Int_Tables_number   1
_chemical_formula_structural   Mn2CrO6
_chemical_formula_sum   'Mn4 Cr2 O12'
_cell_volume   214.10464216
_cell_formula_units_Z   2
loop_
 _symmetry_equiv_pos_site_id
 _symmetry_equiv_pos_as_xyz
  1  'x, y, z'
loop_
 _atom_site_type_symbol
 _atom_site_label
 _atom_site_symmetry_multiplicity
 _atom_site_fract_x
 _atom_site_fract_y
 _atom_site_fract_z
 _atom_site_occupancy
  Mn  Mn0  1  0.33295800  0.66704200  0.00000000  1
  Mn  Mn1  1  0.16704200  0.83295800  0.50000000  1
  Mn  Mn2  1  0.83295800  0.16704200  0.50000000  1
  Mn  Mn3  1  0.66704200  0.33295800  0.00000000  1
  Cr  Cr0  1  0.50000000  0.50000000  0.50000000  1
  Cr  Cr1  1  0.00000000  0.00000000  0.00000000  1
  O  O0  1  0.16534900  0.50064500  0.60001500  1
  O  O1  1  0.83465100  0.49935500  0.39998500  1
  O  O2  1  0.00064500  0.66534900  0.89998500  1
  O  O3  1  0.33465100  0.99935500  0.10001500  1
  O  O4  1  0.66619300  0.66619300  0.09933500  1
  O  O5  1  0.83380700  0.83380700  0.59933500  1
  O  O6  1  0.16619300  0.16619300  0.40066500  1
  O  O7  1  0.49935500  0.83465100  0.39998500  1
  O  O8  1  0.33380700  0.33380700  0.90066500  1
  O  O9  1  0.66534900  0.00064500  0.89998500  1
  O  O10  1  0.99935500  0.33465100  0.10001500  1
  O  O11  1  0.50064500  0.16534900  0.60001500  1
loop_
_geom_bond_atom_site_label_1
_geom_bond_atom_site_label_2
_geom_bond_distance
_geom_bond_site_symmetry_2
Mn0 O3 1.937988 1_555
Mn0 O2 1.937988 1_554
Mn0 O10 1.940432 1_455
Mn0 O9 1.940432 1_564
Mn0 O4 1.944469 1_555
Mn0 O8 1.944469 1_554
Mn1 O0 1.937988 1_555
Mn1 O7 1.937988 1_555
Mn1 O11 1.940432 1_565
Mn1 O1 1.940432 1_455
Mn1 O6 1.944469 1_565
Mn1 O5 1.944469 1_455
Mn2 O11 1.937988 1_555
Mn2 O1 1.937988 1_555
Mn2 O0 1.940432 1_655
Mn2 O7 1.940432 1_545
Mn2 O6 1.944469 1_655
Mn2 O5 1.944469 1_545
Mn3 O10 1.937988 1_555
Mn3 O9 1.937988 1_554
Mn3 O3 1.940432 1_545
Mn3 O2 1.940432 1_654
Mn3 O4 1.944469 1_555
Mn3 O8 1.944469 1_554
Cr0 O5 1.940765 1_555
Cr0 O6 1.940765 1_555
Cr0 O7 1.953487 1_555
Cr0 O1 1.953487 1_555
Cr0 O0 1.953487 1_555
Cr0 O11 1.953487 1_555
Cr1 O4 1.940765 1_445
Cr1 O8 1.940765 1_554
Cr1 O10 1.953487 1_455
Cr1 O3 1.953487 1_545
Cr1 O2 1.953487 1_544
Cr1 O9 1.953487 1_454
