# generated using pymatgen
data_Na2CoO3
_symmetry_space_group_name_H-M   'P 1'
_cell_length_a   7.95955084
_cell_length_b   7.95955084
_cell_length_c   10.56049088
_cell_angle_alpha   79.28922613
_cell_angle_beta   79.28922613
_cell_angle_gamma   41.49777493
_symmetry_Int_Tables_number   1
_chemical_formula_structural   Na2CoO3
_chemical_formula_sum   'Na8 Co4 O12'
_cell_volume   434.46605079
_cell_formula_units_Z   4
loop_
 _symmetry_equiv_pos_site_id
 _symmetry_equiv_pos_as_xyz
  1  'x, y, z'
loop_
 _atom_site_type_symbol
 _atom_site_label
 _atom_site_symmetry_multiplicity
 _atom_site_fract_x
 _atom_site_fract_y
 _atom_site_fract_z
 _atom_site_occupancy
  Na  Na0  1  0.60990100  0.24734500  0.66164200  1
  Na  Na1  1  0.48711000  0.16300000  0.37711800  1
  Na  Na2  1  0.16300000  0.48711000  0.87711800  1
  Na  Na3  1  0.24734500  0.60990100  0.16164200  1
  Na  Na4  1  0.75265500  0.39009900  0.83835800  1
  Na  Na5  1  0.83700000  0.51289000  0.12288200  1
  Na  Na6  1  0.51289000  0.83700000  0.62288200  1
  Na  Na7  1  0.39009900  0.75265500  0.33835800  1
  Co  Co0  1  0.28412300  0.96301800  0.97374000  1
  Co  Co1  1  0.96301800  0.28412300  0.47374000  1
  Co  Co2  1  0.03698200  0.71587700  0.52626000  1
  Co  Co3  1  0.71587700  0.03698200  0.02626000  1
  O  O0  1  0.59408100  0.22859900  0.88828000  1
  O  O1  1  0.60403200  0.17099300  0.16524400  1
  O  O2  1  0.28172600  0.05461400  0.44270800  1
  O  O3  1  0.05461400  0.28172600  0.94270800  1
  O  O4  1  0.17099300  0.60403200  0.66524400  1
  O  O5  1  0.77140100  0.40591900  0.61172000  1
  O  O6  1  0.22859900  0.59408100  0.38828000  1
  O  O7  1  0.82900700  0.39596800  0.33475600  1
  O  O8  1  0.94538600  0.71827400  0.05729200  1
  O  O9  1  0.71827400  0.94538600  0.55729200  1
  O  O10  1  0.39596800  0.82900700  0.83475600  1
  O  O11  1  0.40591900  0.77140100  0.11172000  1
loop_
_geom_bond_atom_site_label_1
_geom_bond_atom_site_label_2
_geom_bond_distance
_geom_bond_site_symmetry_2
Na0 O9 2.293601 1_545
Na0 O4 2.323758 1_555
Na0 O5 2.335518 1_555
Na0 O0 2.355823 1_555
Na1 O1 2.266783 1_555
Na1 O9 2.303970 1_545
Na1 O2 2.316482 1_555
Na1 O6 2.346330 1_555
Na2 O4 2.266783 1_555
Na2 O8 2.303970 1_456
Na2 O3 2.316482 1_555
Na2 O0 2.346330 1_555
Na3 O8 2.293601 1_455
Na3 O1 2.323758 1_555
Na3 O11 2.335518 1_555
Na3 O6 2.355823 1_555
Na4 O3 2.293601 1_655
Na4 O10 2.323758 1_555
Na4 O0 2.335518 1_555
Na4 O5 2.355823 1_555
Na5 O7 2.266783 1_555
Na5 O3 2.303970 1_654
Na5 O8 2.316482 1_555
Na5 O11 2.346330 1_555
Na6 O10 2.266783 1_555
Na6 O2 2.303970 1_565
Na6 O9 2.316482 1_555
Na6 O5 2.346330 1_555
Na7 O2 2.293601 1_565
Na7 O7 2.323758 1_555
Na7 O6 2.335518 1_555
Na7 O11 2.355823 1_555
Co0 O10 1.660834 1_555
Co0 O3 1.688639 1_565
Co0 O11 1.695109 1_556
Co1 O7 1.660834 1_555
Co1 O2 1.688639 1_655
Co1 O5 1.695109 1_555
Co2 O4 1.660834 1_555
Co2 O9 1.688639 1_455
Co2 O6 1.695109 1_555
Co3 O1 1.660834 1_555
Co3 O8 1.688639 1_545
Co3 O0 1.695109 1_554
