# generated using pymatgen
data_Li5V3P8O29
_symmetry_space_group_name_H-M   'P 1'
_cell_length_a   9.78766300
_cell_length_b   9.82130409
_cell_length_c   14.07200899
_cell_angle_alpha   89.53350531
_cell_angle_beta   89.45027083
_cell_angle_gamma   60.33291192
_symmetry_Int_Tables_number   1
_chemical_formula_structural   Li5V3P8O29
_chemical_formula_sum   'Li10 V6 P16 O58'
_cell_volume   1175.32709755
_cell_formula_units_Z   2
loop_
 _symmetry_equiv_pos_site_id
 _symmetry_equiv_pos_as_xyz
  1  'x, y, z'
loop_
 _atom_site_type_symbol
 _atom_site_label
 _atom_site_symmetry_multiplicity
 _atom_site_fract_x
 _atom_site_fract_y
 _atom_site_fract_z
 _atom_site_occupancy
  Li  Li0  1  0.69128400  0.08345000  0.44107700  1
  Li  Li1  1  0.22837200  0.67838400  0.43881600  1
  Li  Li2  1  0.09531700  0.67814200  0.94296200  1
  Li  Li3  1  0.22528300  0.08959700  0.94026400  1
  Li  Li4  1  0.09216400  0.22805200  0.44011700  1
  Li  Li5  1  0.77764400  0.91714700  0.06104100  1
  Li  Li6  1  0.91769900  0.30432900  0.05779300  1
  Li  Li7  1  0.66183000  0.66348200  0.88824200  1
  Li  Li8  1  0.76805800  0.32190500  0.56222300  1
  Li  Li9  1  0.31822900  0.90814500  0.55809900  1
  V  V0  1  0.99972000  0.57260600  0.74363000  1
  V  V1  1  0.00032100  0.43576700  0.25050800  1
  V  V2  1  0.56738600  0.00223500  0.25098800  1
  V  V3  1  0.43214800  0.99936900  0.74765200  1
  V  V4  1  0.56426100  0.43024800  0.75672300  1
  V  V5  1  0.43685100  0.56697000  0.24471400  1
  P  P0  1  0.68399100  0.23107500  0.16089600  1
  P  P1  1  0.68412700  0.08697900  0.65903200  1
  P  P2  1  0.23740200  0.67977700  0.65658700  1
  P  P3  1  0.32318600  0.33619500  0.87155300  1
  P  P4  1  0.33259000  0.33459600  0.37012700  1
  P  P5  1  0.08929100  0.68237100  0.15746800  1
  P  P6  1  0.91382900  0.76991200  0.34074500  1
  P  P7  1  0.23080100  0.09236200  0.15831200  1
  P  P8  1  0.77036200  0.90658100  0.84139200  1
  P  P9  1  0.08614600  0.23296000  0.65898400  1
  P  P10  1  0.90976600  0.32239600  0.84204300  1
  P  P11  1  0.66650600  0.66258800  0.62868700  1
  P  P12  1  0.67230800  0.66628400  0.12789000  1
  P  P13  1  0.76547100  0.32131100  0.34323700  1
  P  P14  1  0.31826500  0.91219700  0.33944100  1
  P  P15  1  0.31661500  0.77114500  0.83986600  1
  O  O0  1  0.76065400  0.24264300  0.43450300  1
  O  O1  1  0.66533200  0.25181800  0.66378800  1
  O  O2  1  0.76686000  0.98397200  0.93188000  1
  O  O3  1  0.66624100  0.08131900  0.16333200  1
  O  O4  1  0.52047800  0.37605300  0.17615900  1
  O  O5  1  0.47193000  0.34010500  0.82808100  1
  O  O6  1  0.38359900  0.52099900  0.67285100  1
  O  O7  1  0.22757700  0.76347200  0.92299100  1
  O  O8  1  0.25369900  0.65989500  0.16065900  1
  O  O9  1  0.48615600  0.18637200  0.33304700  1
  O  O10  1  0.52242500  0.09537300  0.68148500  1
  O  O11  1  0.32993300  0.48576500  0.33096200  1
  O  O12  1  0.31130100  0.35258700  0.97662400  1
  O  O13  1  0.31926000  0.33264200  0.47587800  1
  O  O14  1  0.17705100  0.48559000  0.82494300  1
  O  O15  1  0.37759400  0.10531600  0.17726400  1
  O  O16  1  0.32621200  0.18594400  0.83424700  1
  O  O17  1  0.08729100  0.66196800  0.66489500  1
  O  O18  1  0.99104200  0.79425500  0.24418000  1
  O  O19  1  0.01050200  0.75577700  0.42440800  1
  O  O20  1  0.99999300  0.75068600  0.06745200  1
  O  O21  1  0.09645700  0.52150200  0.17934000  1
  O  O22  1  0.18226700  0.33083400  0.32701500  1
  O  O23  1  0.92202100  0.74002900  0.83551000  1
  O  O24  1  0.09683700  0.38311400  0.67707800  1
  O  O25  1  0.25037400  0.08482100  0.65830000  1
  O  O26  1  0.78973100  0.99611500  0.75037800  1
  O  O27  1  0.75245500  0.00576000  0.56815000  1
  O  O28  1  0.24344900  0.00252600  0.42918800  1
  O  O29  1  0.74764700  0.91490900  0.34188300  1
  O  O30  1  0.90313900  0.61796600  0.32222000  1
  O  O31  1  0.07937600  0.25907600  0.16620600  1
  O  O32  1  0.81562800  0.66369500  0.67474200  1
  O  O33  1  0.89448600  0.48646600  0.82393000  1
  O  O34  1  0.00394200  0.24549400  0.92917900  1
  O  O35  1  0.99723300  0.24648900  0.56969300  1
  O  O36  1  0.99849800  0.21364500  0.75048800  1
  O  O37  1  0.91565100  0.33901000  0.33949400  1
  O  O38  1  0.67519000  0.81392200  0.16333700  1
  O  O39  1  0.62756900  0.88186100  0.82423800  1
  O  O40  1  0.82046700  0.51382800  0.17050500  1
  O  O41  1  0.68197000  0.65352500  0.02147000  1
  O  O42  1  0.67704500  0.65635300  0.52318700  1
  O  O43  1  0.66892100  0.51312800  0.67194500  1
  O  O44  1  0.48010900  0.90195500  0.32083500  1
  O  O45  1  0.51393100  0.81327900  0.66514400  1
  O  O46  1  0.74501900  0.34314500  0.84255500  1
  O  O47  1  0.78700900  0.20734000  0.25637900  1
  O  O48  1  0.77226400  0.23581100  0.07613200  1
  O  O49  1  0.61766100  0.47975900  0.32683000  1
  O  O50  1  0.52408300  0.66495100  0.17039300  1
  O  O51  1  0.48538400  0.62857900  0.82771500  1
  O  O52  1  0.33557200  0.92037800  0.83873500  1
  O  O53  1  0.22802700  0.01886200  0.06725100  1
  O  O54  1  0.20978600  0.00122400  0.24918300  1
  O  O55  1  0.33500400  0.74881200  0.33977200  1
  O  O56  1  0.24023300  0.75853800  0.56560000  1
  O  O57  1  0.21875500  0.79355300  0.74319600  1
loop_
_geom_bond_atom_site_label_1
_geom_bond_atom_site_label_2
_geom_bond_distance
_geom_bond_site_symmetry_2
Li0 O27 1.919458 1_555
Li0 O0 1.990310 1_555
Li0 O29 2.027717 1_545
Li0 O9 2.321265 1_555
Li1 O19 1.888759 1_555
Li1 O56 1.983314 1_555
Li1 O55 2.044812 1_555
Li1 O11 2.242020 1_555
Li2 O7 1.876220 1_555
Li2 O20 1.943687 1_456
Li2 O23 2.132238 1_455
Li2 O14 2.345731 1_555
Li3 O53 1.907567 1_556
Li3 O34 1.944476 1_555
Li3 O52 2.049805 1_545
Li3 O16 2.229578 1_555
Li4 O28 1.968944 1_555
Li4 O35 2.006788 1_455
Li4 O37 2.082158 1_455
Li4 O22 2.271125 1_555
Li5 O2 1.913392 1_554
Li5 O20 1.973934 1_555
Li5 O3 2.031743 1_565
Li5 O38 2.249552 1_555
Li6 O48 1.866568 1_555
Li6 O34 1.956242 1_654
Li6 O31 2.090009 1_655
Li6 O40 2.395969 1_555
Li7 O41 1.883684 1_556
Li7 O51 2.108194 1_555
Li7 O39 2.187703 1_555
Li7 O33 2.256997 1_555
Li8 O0 1.980549 1_555
Li8 O35 1.987383 1_555
Li8 O1 2.041800 1_555
Li8 O43 2.251025 1_555
Li9 O56 1.964479 1_555
Li9 O28 2.003035 1_565
Li9 O25 2.078755 1_565
Li9 O45 2.252108 1_555
O0 P13 1.505764 1_555
O1 P1 1.538174 1_555
O1 V4 2.014016 1_555
O2 P8 1.479677 1_555
O3 P0 1.564168 1_555
O3 V2 1.940719 1_555
O4 P0 1.541893 1_555
O4 V5 1.900386 1_555
O5 P3 1.591567 1_555
O5 V4 1.835459 1_555
O6 P2 1.524222 1_555
O6 V4 1.943424 1_555
O7 P15 1.475616 1_555
O8 P5 1.513197 1_555
O8 V5 1.961907 1_555
O9 P4 1.575421 1_555
O9 V2 1.956815 1_555
O10 P1 1.572636 1_555
O10 V3 1.825208 1_545
O11 P4 1.567615 1_555
O11 V5 1.997566 1_555
O12 P3 1.485808 1_555
O13 P4 1.493388 1_555
O14 P3 1.598028 1_555
O14 V0 1.898939 1_455
O15 P7 1.529852 1_555
O15 V2 1.926182 1_555
O16 P3 1.556630 1_555
O16 V3 2.012219 1_545
O17 P2 1.566421 1_555
O17 V0 1.855560 1_455
O18 P5 1.604493 1_655
O18 P6 1.621317 1_555
O19 P6 1.479630 1_455
O20 P5 1.498505 1_655
O21 P5 1.574379 1_555
O21 V1 1.830261 1_555
O22 P4 1.614150 1_555
O22 V1 1.895906 1_555
O23 P8 1.575496 1_555
O23 V0 1.931752 1_555
O24 P9 1.552394 1_555
O24 V0 1.871966 1_455
O25 P9 1.544506 1_555
O25 V3 1.999575 1_545
O26 P8 1.609821 1_555
O26 P1 1.615787 1_565
O27 P1 1.480278 1_555
O28 P14 1.508522 1_545
O29 P6 1.542969 1_555
O29 V2 2.002994 1_565
O30 P6 1.570768 1_555
O30 V1 1.857748 1_655
O31 P7 1.577155 1_555
O31 V1 1.924606 1_555
O32 P11 1.607611 1_555
O32 V0 1.846714 1_555
O33 P10 1.561847 1_555
O33 V0 1.969309 1_555
O34 P10 1.497012 1_455
O35 P9 1.502528 1_655
O36 P9 1.601835 1_655
O36 P10 1.624071 1_555
O37 P13 1.563627 1_555
O37 V1 1.974369 1_655
O38 P12 1.550689 1_555
O38 V2 2.033623 1_565
O39 P8 1.553657 1_555
O39 V3 1.996494 1_555
O40 P12 1.599093 1_555
O40 V1 1.908408 1_655
O41 P12 1.501962 1_555
O42 P11 1.486845 1_555
O43 P11 1.573910 1_555
O43 V4 1.980235 1_555
O44 P14 1.556502 1_555
O44 V2 1.861920 1_565
O45 P11 1.579066 1_555
O45 V3 1.974229 1_555
O46 P10 1.521911 1_555
O46 V4 1.961296 1_555
O47 P13 1.604697 1_555
O47 P0 1.632361 1_555
O48 P0 1.480037 1_555
O49 P13 1.529662 1_555
O49 V5 1.929604 1_555
O50 P12 1.569928 1_555
O50 V5 1.878455 1_555
O51 P15 1.557970 1_555
O51 V4 1.979005 1_555
O52 P15 1.565763 1_555
O52 V3 1.955674 1_555
O53 P7 1.482894 1_555
O54 P14 1.610531 1_545
O54 P7 1.623958 1_555
O55 P14 1.530170 1_555
O55 V5 2.055122 1_555
O56 P2 1.497625 1_555
O57 P2 1.607284 1_555
O57 P15 1.621062 1_555
