# generated using pymatgen
data_Ca4Zr3TaO12
_symmetry_space_group_name_H-M   'P 1'
_cell_length_a   5.62979000
_cell_length_b   5.79975127
_cell_length_c   8.06478324
_cell_angle_alpha   90.45980080
_cell_angle_beta   90.04461590
_cell_angle_gamma   90.11293687
_symmetry_Int_Tables_number   1
_chemical_formula_structural   Ca4Zr3TaO12
_chemical_formula_sum   'Ca4 Zr3 Ta1 O12'
_cell_volume   263.31724174
_cell_formula_units_Z   1
loop_
 _symmetry_equiv_pos_site_id
 _symmetry_equiv_pos_as_xyz
  1  'x, y, z'
loop_
 _atom_site_type_symbol
 _atom_site_label
 _atom_site_symmetry_multiplicity
 _atom_site_fract_x
 _atom_site_fract_y
 _atom_site_fract_z
 _atom_site_occupancy
  Ca  Ca0  1  0.98788700  0.94720800  0.74808600  1
  Ca  Ca1  1  0.49005100  0.55069600  0.25195100  1
  Ca  Ca2  1  0.50994900  0.44930400  0.74804900  1
  Ca  Ca3  1  0.01211300  0.05279200  0.25191400  1
  Zr  Zr0  1  0.50000000  0.00000000  0.00000000  1
  Zr  Zr1  1  0.50000000  0.00000000  0.50000000  1
  Zr  Zr2  1  0.00000000  0.50000000  0.00000000  1
  Ta  Ta0  1  0.00000000  0.50000000  0.50000000  1
  O  O0  1  0.60715100  0.96142000  0.25097600  1
  O  O1  1  0.19331700  0.78812000  0.44653000  1
  O  O2  1  0.19293600  0.80341800  0.05637600  1
  O  O3  1  0.69346700  0.69498000  0.94282500  1
  O  O4  1  0.70733300  0.69659800  0.55143200  1
  O  O5  1  0.09957700  0.53560700  0.74242800  1
  O  O6  1  0.90042300  0.46439300  0.25757200  1
  O  O7  1  0.29266700  0.30340200  0.44856800  1
  O  O8  1  0.30653300  0.30502000  0.05717500  1
  O  O9  1  0.80706400  0.19658200  0.94362400  1
  O  O10  1  0.80668300  0.21188000  0.55347000  1
  O  O11  1  0.39284900  0.03858000  0.74902400  1
loop_
_geom_bond_atom_site_label_1
_geom_bond_atom_site_label_2
_geom_bond_distance
_geom_bond_site_symmetry_2
Ca0 O11 2.339606 1_665
Ca0 O9 2.363611 1_565
Ca0 O10 2.429568 1_565
Ca0 O5 2.469882 1_655
Ca0 O4 2.659444 1_555
Ca0 O3 2.717585 1_555
Ca0 O1 2.841830 1_655
Ca0 O2 2.870944 1_656
Ca1 O8 2.349660 1_555
Ca1 O6 2.365349 1_555
Ca1 O7 2.416446 1_555
Ca1 O0 2.470460 1_555
Ca1 O1 2.669802 1_555
Ca1 O2 2.734355 1_555
Ca1 O4 2.829194 1_555
Ca1 O3 2.874210 1_554
Ca2 O3 2.349660 1_555
Ca2 O5 2.365349 1_555
Ca2 O4 2.416446 1_555
Ca2 O11 2.470460 1_555
Ca2 O10 2.669802 1_555
Ca2 O9 2.734355 1_555
Ca2 O7 2.829194 1_555
Ca2 O8 2.874210 1_556
Ca3 O0 2.339606 1_445
Ca3 O2 2.363611 1_545
Ca3 O1 2.429568 1_545
Ca3 O6 2.469882 1_455
Ca3 O7 2.659444 1_555
Ca3 O8 2.717585 1_555
Ca3 O10 2.841830 1_455
Ca3 O9 2.870944 1_454
O0 Zr1 2.107732 1_565
O0 Zr0 2.125255 1_565
O1 Ta0 2.041537 1_555
O1 Zr1 2.158475 1_565
O2 Zr2 2.112367 1_555
O2 Zr0 2.120567 1_565
O3 Zr2 2.117623 1_656
O3 Zr0 2.126903 1_566
O4 Ta0 2.046410 1_655
O4 Zr1 2.156374 1_565
O5 Ta0 2.042255 1_555
O5 Zr2 2.163372 1_556
O6 Ta0 2.042255 1_655
O6 Zr2 2.163372 1_655
O7 Ta0 2.046410 1_555
O7 Zr1 2.156374 1_555
O8 Zr2 2.117623 1_555
O8 Zr0 2.126903 1_555
O9 Zr2 2.112367 1_656
O9 Zr0 2.120567 1_556
O10 Ta0 2.041537 1_655
O10 Zr1 2.158475 1_555
O11 Zr1 2.107732 1_555
O11 Zr0 2.125255 1_556
