# generated using pymatgen
data_TiSnSb
_symmetry_space_group_name_H-M   'P 1'
_cell_length_a   5.48336295
_cell_length_b   5.61937691
_cell_length_c   10.12472437
_cell_angle_alpha   82.40799438
_cell_angle_beta   74.28867667
_cell_angle_gamma   60.79750584
_symmetry_Int_Tables_number   1
_chemical_formula_structural   TiSnSb
_chemical_formula_sum   'Ti4 Sn4 Sb4'
_cell_volume   262.14790445
_cell_formula_units_Z   4
loop_
 _symmetry_equiv_pos_site_id
 _symmetry_equiv_pos_as_xyz
  1  'x, y, z'
loop_
 _atom_site_type_symbol
 _atom_site_label
 _atom_site_symmetry_multiplicity
 _atom_site_fract_x
 _atom_site_fract_y
 _atom_site_fract_z
 _atom_site_occupancy
  Ti  Ti0  1  0.00146065  0.25000000  0.99707971  1
  Ti  Ti1  1  0.74853935  0.25000000  0.50292029  1
  Ti  Ti2  1  0.99853935  0.75000000  0.00292029  1
  Ti  Ti3  1  0.25146065  0.75000000  0.49707971  1
  Sn  Sn0  1  0.70815870  0.58368360  0.25000000  1
  Sn  Sn1  1  0.04184130  0.91631640  0.25000000  1
  Sn  Sn2  1  0.29184130  0.41631640  0.75000000  1
  Sn  Sn3  1  0.95815870  0.08368360  0.75000000  1
  Sb  Sb0  1  0.45247281  0.25000000  0.09505537  1
  Sb  Sb1  1  0.29752719  0.25000000  0.40494463  1
  Sb  Sb2  1  0.54752719  0.75000000  0.90494463  1
  Sb  Sb3  1  0.70247281  0.75000000  0.59505537  1
loop_
_geom_bond_atom_site_label_1
_geom_bond_atom_site_label_2
_geom_bond_distance
_geom_bond_site_symmetry_2
Ti0 Ti2 2.810262 1_456
Ti0 Ti2 2.810268 1_446
Ti1 Ti3 2.810263 1_555
Ti1 Ti3 2.810268 1_645
Sn0 Ti2 2.888584 1_555
Sn0 Ti3 2.888586 1_555
Sn0 Ti0 2.958988 1_654
Sn0 Ti1 2.958988 1_555
Sn1 Ti2 2.888586 1_455
Sn1 Ti3 2.888589 1_555
Sn1 Ti1 2.958988 1_465
Sn1 Ti0 2.958988 1_564
Sn2 Ti0 2.888584 1_555
Sn2 Ti1 2.888586 1_555
Sn2 Ti2 2.958988 1_456
Sn2 Ti3 2.958988 1_555
Sn3 Ti0 2.888586 1_655
Sn3 Ti1 2.888589 1_555
Sn3 Ti3 2.958988 1_645
Sn3 Ti2 2.958988 1_546
Sb0 Ti0 2.903219 1_554
Sb0 Ti0 2.903219 1_654
Sb0 Ti2 2.949698 1_545
Sb0 Ti2 2.949704 1_455
Sb1 Ti1 2.903219 1_555
Sb1 Ti1 2.903219 1_455
Sb1 Ti3 2.949698 1_545
Sb1 Ti3 2.949703 1_555
Sb2 Ti2 2.903219 1_556
Sb2 Ti2 2.903219 1_456
Sb2 Ti0 2.949698 1_565
Sb2 Ti0 2.949704 1_655
Sb3 Ti3 2.903219 1_555
Sb3 Ti3 2.903219 1_655
Sb3 Ti1 2.949698 1_565
Sb3 Ti1 2.949703 1_555
