# generated using pymatgen
data_Ga3NO3
_symmetry_space_group_name_H-M   'P 1'
_cell_length_a   6.40986100
_cell_length_b   8.12794600
_cell_length_c   8.22971347
_cell_angle_alpha   60.70255747
_cell_angle_beta   90.00000000
_cell_angle_gamma   90.00000000
_symmetry_Int_Tables_number   1
_chemical_formula_structural   Ga3NO3
_chemical_formula_sum   'Ga12 N4 O12'
_cell_volume   373.91767819
_cell_formula_units_Z   4
loop_
 _symmetry_equiv_pos_site_id
 _symmetry_equiv_pos_as_xyz
  1  'x, y, z'
loop_
 _atom_site_type_symbol
 _atom_site_label
 _atom_site_symmetry_multiplicity
 _atom_site_fract_x
 _atom_site_fract_y
 _atom_site_fract_z
 _atom_site_occupancy
  Ga  Ga0  1  0.00000000  0.59653100  0.16249200  1
  Ga  Ga1  1  0.50000000  0.58929700  0.17400000  1
  Ga  Ga2  1  0.00000000  0.17464300  0.22767100  1
  Ga  Ga3  1  0.50000000  0.16540800  0.22160800  1
  Ga  Ga4  1  0.00000000  0.22935000  0.59924900  1
  Ga  Ga5  1  0.50000000  0.24109900  0.59057100  1
  Ga  Ga6  1  0.74248600  0.75877000  0.40587400  1
  Ga  Ga7  1  0.25751400  0.75877000  0.40587400  1
  Ga  Ga8  1  0.75702600  0.83389200  0.76060600  1
  Ga  Ga9  1  0.24297400  0.83389200  0.76060600  1
  Ga  Ga10  1  0.24982100  0.39971600  0.84206700  1
  Ga  Ga11  1  0.75017900  0.39971600  0.84206700  1
  N  N0  1  0.50000000  0.69513300  0.32812700  1
  N  N1  1  0.00000000  0.97178000  0.70376600  1
  N  N2  1  0.00000000  0.33336800  0.97229600  1
  N  N3  1  0.50000000  0.33138600  0.96992300  1
  O  O0  1  0.74838800  0.66622000  0.02769700  1
  O  O1  1  0.25161200  0.66622000  0.02769700  1
  O  O2  1  0.50000000  0.32301300  0.33483800  1
  O  O3  1  0.00000000  0.33916500  0.33437300  1
  O  O4  1  0.75243800  0.02524800  0.32033000  1
  O  O5  1  0.24756200  0.02524800  0.32033000  1
  O  O6  1  0.25084700  0.31625600  0.65377400  1
  O  O7  1  0.74915300  0.31625600  0.65377400  1
  O  O8  1  0.00000000  0.70672100  0.32206600  1
  O  O9  1  0.50000000  0.96990400  0.70839400  1
  O  O10  1  0.25074300  0.66659700  0.66486400  1
  O  O11  1  0.74925700  0.66659700  0.66486400  1
loop_
_geom_bond_atom_site_label_1
_geom_bond_atom_site_label_2
_geom_bond_distance
_geom_bond_site_symmetry_2
Ga0 O3 1.865699 1_555
Ga0 O0 1.880850 1_455
Ga0 O1 1.880850 1_555
Ga0 O8 1.917773 1_555
Ga1 N0 1.848449 1_555
Ga1 O2 1.905952 1_555
Ga1 O1 1.907548 1_555
Ga1 O0 1.907548 1_555
Ga2 N2 1.851427 1_554
Ga2 O4 1.915148 1_455
Ga2 O5 1.915148 1_555
Ga2 O3 1.925748 1_555
Ga3 N3 1.837248 1_554
Ga3 O5 1.915797 1_555
Ga3 O4 1.915797 1_555
Ga3 O2 1.917702 1_555
Ga4 N1 1.833114 1_545
Ga4 O6 1.896271 1_555
Ga4 O7 1.896271 1_455
Ga4 O3 1.908989 1_555
Ga5 O2 1.871174 1_555
Ga5 O7 1.872219 1_555
Ga5 O6 1.872219 1_555
Ga5 O9 1.925401 1_545
Ga6 N0 1.848424 1_555
Ga6 O11 1.882366 1_555
Ga6 O8 1.914373 1_655
Ga6 O4 1.923169 1_565
Ga7 N0 1.848424 1_555
Ga7 O10 1.882366 1_555
Ga7 O8 1.914373 1_555
Ga7 O5 1.923169 1_565
Ga8 N1 1.840486 1_655
Ga8 O11 1.876389 1_555
Ga8 O9 1.912099 1_555
Ga8 O0 1.939116 1_556
Ga9 N1 1.840486 1_555
Ga9 O10 1.876389 1_555
Ga9 O9 1.912099 1_555
Ga9 O1 1.939116 1_556
Ga10 N3 1.848042 1_555
Ga10 N2 1.854193 1_555
Ga10 O10 1.932922 1_555
Ga10 O6 1.972370 1_555
Ga11 N3 1.848042 1_555
Ga11 N2 1.854193 1_655
Ga11 O11 1.932922 1_555
Ga11 O7 1.972370 1_555
