# generated using pymatgen
data_SrEu4O5
_symmetry_space_group_name_H-M   'P 1'
_cell_length_a   6.22551327
_cell_length_b   6.22550161
_cell_length_c   6.22573915
_cell_angle_alpha   99.58927147
_cell_angle_beta   99.59257555
_cell_angle_gamma   131.81694519
_symmetry_Int_Tables_number   1
_chemical_formula_structural   SrEu4O5
_chemical_formula_sum   'Sr1 Eu4 O5'
_cell_volume   164.16688854
_cell_formula_units_Z   1
loop_
 _symmetry_equiv_pos_site_id
 _symmetry_equiv_pos_as_xyz
  1  'x, y, z'
loop_
 _atom_site_type_symbol
 _atom_site_label
 _atom_site_symmetry_multiplicity
 _atom_site_fract_x
 _atom_site_fract_y
 _atom_site_fract_z
 _atom_site_occupancy
  Sr  Sr0  1  -0.00000386  0.00001317  0.00000931  1
  Eu  Eu0  1  0.80060578  0.60009283  0.40070103  1
  Eu  Eu1  1  0.39994631  0.80059649  0.20054262  1
  Eu  Eu2  1  0.60008329  0.19937852  0.79946204  1
  Eu  Eu3  1  0.19937103  0.39991193  0.59928036  1
  O  O0  1  0.49999344  0.50001089  0.00000433  1
  O  O1  1  0.30348001  0.10160612  0.40508797  1
  O  O2  1  0.89840163  0.30348599  0.20188728  1
  O  O3  1  0.10161287  0.69650924  0.79812252  1
  O  O4  1  0.69650949  0.89839482  0.59490255  1
loop_
_geom_bond_atom_site_label_1
_geom_bond_atom_site_label_2
_geom_bond_distance
_geom_bond_site_symmetry_2
Eu0 O2 2.510224 1_555
Eu0 O4 2.539378 1_555
Eu0 O3 2.540422 1_655
Eu0 O1 2.541356 1_555
Eu0 O1 2.541360 1_665
Eu0 O0 2.546577 1_555
Eu1 O4 2.509890 1_555
Eu1 O3 2.539614 1_554
Eu1 O1 2.540573 1_565
Eu1 O2 2.541360 1_455
Eu1 O2 2.541361 1_565
Eu1 O0 2.546263 1_555
Eu2 O1 2.510130 1_555
Eu2 O2 2.539553 1_556
Eu2 O4 2.540276 1_545
Eu2 O3 2.541358 1_655
Eu2 O3 2.541359 1_545
Eu2 O0 2.546728 1_556
Eu3 O3 2.510057 1_555
Eu3 O1 2.539440 1_555
Eu3 O2 2.540156 1_455
Eu3 O4 2.541355 1_555
Eu3 O4 2.541360 1_445
Eu3 O0 2.546698 1_556
O0 Sr0 2.541224 1_555
O0 Sr0 2.541224 1_665
O1 Sr0 2.572312 1_555
O2 Sr0 2.572212 1_655
O3 Sr0 2.572506 1_566
O4 Sr0 2.572398 1_666
