# generated using pymatgen
data_Li8VNi3(PO4)6
_symmetry_space_group_name_H-M   'P 1'
_cell_length_a   8.54238768
_cell_length_b   8.54238768
_cell_length_c   8.54238789
_cell_angle_alpha   61.95681242
_cell_angle_beta   61.95681242
_cell_angle_gamma   61.95681302
_symmetry_Int_Tables_number   1
_chemical_formula_structural   Li8VNi3(PO4)6
_chemical_formula_sum   'Li8 V1 Ni3 P6 O24'
_cell_volume   460.07961486
_cell_formula_units_Z   1
loop_
 _symmetry_equiv_pos_site_id
 _symmetry_equiv_pos_as_xyz
  1  'x, y, z'
loop_
 _atom_site_type_symbol
 _atom_site_label
 _atom_site_symmetry_multiplicity
 _atom_site_fract_x
 _atom_site_fract_y
 _atom_site_fract_z
 _atom_site_occupancy
  Li  Li0  1  0.29124700  0.84356500  0.64349600  1
  Li  Li1  1  0.84356500  0.64349600  0.29124700  1
  Li  Li2  1  0.64349600  0.29124700  0.84356500  1
  Li  Li3  1  0.49954100  0.49954100  0.49954100  1
  Li  Li4  1  0.98206400  0.98206400  0.98206400  1
  Li  Li5  1  0.35614300  0.69774800  0.15870200  1
  Li  Li6  1  0.15870200  0.35614300  0.69774800  1
  Li  Li7  1  0.69774800  0.15870200  0.35614300  1
  V  V0  1  0.14402900  0.14402900  0.14402900  1
  Ni  Ni0  1  0.64740100  0.64740100  0.64740100  1
  Ni  Ni1  1  0.85349000  0.85349000  0.85349000  1
  Ni  Ni2  1  0.35407700  0.35407700  0.35407700  1
  P  P0  1  0.54637600  0.95523900  0.25178600  1
  P  P1  1  0.25178600  0.54637600  0.95523900  1
  P  P2  1  0.95523900  0.25178600  0.54637600  1
  P  P3  1  0.04712600  0.75387300  0.45282100  1
  P  P4  1  0.75387300  0.45282100  0.04712600  1
  P  P5  1  0.45282100  0.04712600  0.75387300  1
  O  O0  1  0.29260400  0.53173300  0.11837500  1
  O  O1  1  0.11837500  0.29260400  0.53173300  1
  O  O2  1  0.53173300  0.11837500  0.29260400  1
  O  O3  1  0.17501900  0.38602400  0.01666200  1
  O  O4  1  0.01666200  0.17501900  0.38602400  1
  O  O5  1  0.74560000  0.89706300  0.11465700  1
  O  O6  1  0.38602400  0.01666200  0.17501900  1
  O  O7  1  0.52249700  0.77949900  0.42795600  1
  O  O8  1  0.11465700  0.74560000  0.89706300  1
  O  O9  1  0.42795600  0.52249700  0.77949900  1
  O  O10  1  0.00357900  0.82917700  0.60131200  1
  O  O11  1  0.10647100  0.89524900  0.24712200  1
  O  O12  1  0.77949900  0.42795600  0.52249700  1
  O  O13  1  0.82917700  0.60131200  0.00357900  1
  O  O14  1  0.89706300  0.11465700  0.74560000  1
  O  O15  1  0.22603300  0.57780400  0.46064100  1
  O  O16  1  0.57780400  0.46064100  0.22603300  1
  O  O17  1  0.89524900  0.24712200  0.10647100  1
  O  O18  1  0.46064100  0.22603300  0.57780400  1
  O  O19  1  0.60131200  0.00357900  0.82917700  1
  O  O20  1  0.24712200  0.10647100  0.89524900  1
  O  O21  1  0.46235300  0.88146800  0.71850600  1
  O  O22  1  0.88146800  0.71850600  0.46235300  1
  O  O23  1  0.71850600  0.46235300  0.88146800  1
loop_
_geom_bond_atom_site_label_1
_geom_bond_atom_site_label_2
_geom_bond_distance
_geom_bond_site_symmetry_2
Li0 O8 2.019398 1_555
Li0 O7 2.025564 1_555
Li0 O21 2.042683 1_555
Li0 O9 2.346027 1_555
Li1 O5 2.019398 1_555
Li1 O12 2.025564 1_555
Li1 O22 2.042683 1_555
Li1 O7 2.346027 1_555
Li2 O14 2.019398 1_555
Li2 O9 2.025564 1_555
Li2 O23 2.042683 1_555
Li2 O12 2.346027 1_555
Li3 O18 2.251357 1_555
Li3 O15 2.251357 1_555
Li3 O16 2.251357 1_555
Li3 O7 2.254960 1_555
Li3 O12 2.254960 1_555
Li3 O9 2.254960 1_555
Li4 O5 2.084452 1_556
Li4 O8 2.084452 1_655
Li4 O14 2.084452 1_565
Li5 O0 1.945100 1_555
Li5 O11 2.065387 1_555
Li5 O16 2.083547 1_555
Li5 O15 2.197312 1_555
Li6 O1 1.945100 1_555
Li6 O20 2.065387 1_555
Li6 O15 2.083547 1_555
Li6 O18 2.197312 1_555
Li7 O2 1.945100 1_555
Li7 O17 2.065387 1_555
Li7 O18 2.083547 1_555
Li7 O16 2.197312 1_555
Ni0 O22 2.032957 1_555
Ni0 O21 2.032957 1_555
Ni0 O23 2.032957 1_555
Ni0 O9 2.164589 1_555
Ni0 O12 2.164589 1_555
Ni0 O7 2.164589 1_555
Ni1 O13 1.975063 1_556
Ni1 O19 1.975063 1_565
Ni1 O10 1.975063 1_655
Ni1 O14 2.119003 1_565
Ni1 O8 2.119003 1_655
Ni1 O5 2.119003 1_556
Ni2 O1 2.001149 1_555
Ni2 O2 2.001149 1_555
Ni2 O0 2.001149 1_555
Ni2 O16 2.100392 1_555
Ni2 O15 2.100392 1_555
Ni2 O18 2.100392 1_555
O0 P1 1.526841 1_554
O1 P2 1.526841 1_455
O2 P0 1.526841 1_545
O3 P1 1.557870 1_554
O3 V0 1.912106 1_555
O4 P2 1.557870 1_455
O4 V0 1.912106 1_555
O5 P0 1.546965 1_555
O6 P0 1.557870 1_545
O6 V0 1.912106 1_555
O7 P0 1.560477 1_555
O8 P1 1.546965 1_555
O9 P1 1.560477 1_555
O10 P3 1.503246 1_555
O11 P3 1.595571 1_555
O11 V0 2.002630 1_565
O12 P2 1.560477 1_555
O13 P4 1.503246 1_555
O14 P2 1.546965 1_555
O15 P3 1.562847 1_555
O16 P4 1.562847 1_555
O17 P4 1.595571 1_555
O17 V0 2.002630 1_655
O18 P5 1.562847 1_555
O19 P5 1.503246 1_555
O20 P5 1.595571 1_555
O20 V0 2.002630 1_556
O21 P5 1.539798 1_565
O22 P3 1.539798 1_655
O23 P4 1.539798 1_556
