# generated using pymatgen
data_Sr2U4O11
_symmetry_space_group_name_H-M   'P 1'
_cell_length_a   10.21915728
_cell_length_b   10.21915728
_cell_length_c   6.82425199
_cell_angle_alpha   70.76190490
_cell_angle_beta   70.76190490
_cell_angle_gamma   21.70976969
_symmetry_Int_Tables_number   1
_chemical_formula_structural   Sr2U4O11
_chemical_formula_sum   'Sr2 U4 O11'
_cell_volume   248.33932543
_cell_formula_units_Z   1
loop_
 _symmetry_equiv_pos_site_id
 _symmetry_equiv_pos_as_xyz
  1  'x, y, z'
loop_
 _atom_site_type_symbol
 _atom_site_label
 _atom_site_symmetry_multiplicity
 _atom_site_fract_x
 _atom_site_fract_y
 _atom_site_fract_z
 _atom_site_occupancy
  Sr  Sr0  1  0.83498000  0.83498000  0.50375600  1
  Sr  Sr1  1  0.15948700  0.15948700  0.51185900  1
  U  U0  1  0.99738600  0.99738600  0.00398600  1
  U  U1  1  0.50019800  0.50019800  0.49121300  1
  U  U2  1  0.66677600  0.66677600  0.99530200  1
  U  U3  1  0.33574100  0.33574100  0.97100200  1
  O  O0  1  0.11750600  0.11750600  0.91607500  1
  O  O1  1  0.70499500  0.70499500  0.66572000  1
  O  O2  1  0.38260100  0.38260100  0.62267800  1
  O  O3  1  0.96791300  0.96791300  0.35512900  1
  O  O4  1  0.53474500  0.53474500  0.11287000  1
  O  O5  1  0.21903100  0.21903100  0.11020000  1
  O  O6  1  0.79487000  0.79487000  0.88208100  1
  O  O7  1  0.45526700  0.45526700  0.88305400  1
  O  O8  1  0.03057600  0.03057600  0.64168400  1
  O  O9  1  0.61558600  0.61558600  0.34470100  1
  O  O10  1  0.87105600  0.87105600  0.11999800  1
loop_
_geom_bond_atom_site_label_1
_geom_bond_atom_site_label_2
_geom_bond_distance
_geom_bond_site_symmetry_2
O0 U0 2.280972 1_446
O0 U2 2.309298 1_545
O0 U2 2.309298 1_455
O0 Sr1 2.599912 1_555
O1 U2 2.118830 1_555
O1 Sr0 2.468647 1_555
O1 Sr1 2.506818 1_655
O1 Sr1 2.506818 1_565
O2 U1 2.226157 1_555
O2 U3 2.243848 1_555
O2 Sr0 2.407597 1_455
O2 Sr0 2.407597 1_545
O3 U0 2.267368 1_555
O3 U1 2.321613 1_565
O3 U1 2.321613 1_655
O3 Sr0 2.516479 1_555
O4 U0 2.278602 1_545
O4 U0 2.278602 1_455
O4 U1 2.438392 1_555
O4 U2 2.498114 1_554
O5 U3 2.212979 1_554
O5 U2 2.443462 1_544
O5 U2 2.443462 1_454
O5 Sr1 2.596822 1_555
O6 U3 2.253660 1_655
O6 U3 2.253660 1_565
O6 U2 2.423830 1_555
O6 Sr0 2.432914 1_555
O7 U3 2.269400 1_555
O7 U0 2.359593 1_546
O7 U0 2.359593 1_456
O7 U1 2.519043 1_555
O8 U0 2.334857 1_446
O8 U1 2.355855 1_455
O8 U1 2.355855 1_545
O8 Sr1 2.437673 1_555
O9 U1 2.193242 1_555
O9 U2 2.257688 1_554
O9 Sr1 2.540859 1_655
O9 Sr1 2.540859 1_565
O10 U0 2.389533 1_555
O10 U3 2.392415 1_564
O10 U3 2.392415 1_654
O10 Sr0 2.471907 1_555
