# generated using pymatgen
data_CoH2(SN)4
_symmetry_space_group_name_H-M   'P 1'
_cell_length_a   16.94511900
_cell_length_b   8.81505400
_cell_length_c   13.02930679
_cell_angle_alpha   85.77913908
_cell_angle_beta   90.00000000
_cell_angle_gamma   90.00000000
_symmetry_Int_Tables_number   1
_chemical_formula_structural   CoH2(SN)4
_chemical_formula_sum   'Co8 H16 S32 N32'
_cell_volume   1940.93679454
_cell_formula_units_Z   8
loop_
 _symmetry_equiv_pos_site_id
 _symmetry_equiv_pos_as_xyz
  1  'x, y, z'
loop_
 _atom_site_type_symbol
 _atom_site_label
 _atom_site_symmetry_multiplicity
 _atom_site_fract_x
 _atom_site_fract_y
 _atom_site_fract_z
 _atom_site_occupancy
  Co  Co0  1  0.37847800  0.30033400  0.89275700  1
  Co  Co1  1  0.87847800  0.19966600  0.10724300  1
  Co  Co2  1  0.62152200  0.69966600  0.10724300  1
  Co  Co3  1  0.12152200  0.80033400  0.89275700  1
  Co  Co4  1  0.36537700  0.92035200  0.37406200  1
  Co  Co5  1  0.86537700  0.57964800  0.62593800  1
  Co  Co6  1  0.63462300  0.07964800  0.62593800  1
  Co  Co7  1  0.13462300  0.42035200  0.37406200  1
  H  H0  1  0.35357400  0.20960800  0.67812200  1
  H  H1  1  0.85357400  0.29039200  0.32187800  1
  H  H2  1  0.64642600  0.79039200  0.32187800  1
  H  H3  1  0.14642600  0.70960800  0.67812200  1
  H  H4  1  0.31589900  0.87506400  0.27883100  1
  H  H5  1  0.81589900  0.62493600  0.72116900  1
  H  H6  1  0.68410100  0.12493600  0.72116900  1
  H  H7  1  0.18410100  0.37506400  0.27883100  1
  H  H8  1  0.46317700  0.28794100  0.91192700  1
  H  H9  1  0.96317700  0.21205900  0.08807300  1
  H  H10  1  0.53682300  0.71205900  0.08807300  1
  H  H11  1  0.03682300  0.78794100  0.91192700  1
  H  H12  1  0.31980300  0.97045800  0.06755600  1
  H  H13  1  0.81980300  0.52954200  0.93244400  1
  H  H14  1  0.68019700  0.02954200  0.93244400  1
  H  H15  1  0.18019700  0.47045800  0.06755600  1
  S  S0  1  0.39206600  0.52891100  0.91973900  1
  S  S1  1  0.89206600  0.97108900  0.08026100  1
  S  S2  1  0.60793400  0.47108900  0.08026100  1
  S  S3  1  0.10793400  0.02891100  0.91973900  1
  S  S4  1  0.37563700  0.52274600  0.71375500  1
  S  S5  1  0.87563700  0.97725400  0.28624500  1
  S  S6  1  0.62436300  0.47725400  0.28624500  1
  S  S7  1  0.12436300  0.02274600  0.71375500  1
  S  S8  1  0.36237500  0.22855400  0.05276200  1
  S  S9  1  0.86237500  0.27144600  0.94723800  1
  S  S10  1  0.63762500  0.77144600  0.94723800  1
  S  S11  1  0.13762500  0.72855400  0.05276200  1
  S  S12  1  0.34880700  0.05505900  0.89089600  1
  S  S13  1  0.84880700  0.44494100  0.10910400  1
  S  S14  1  0.65119300  0.94494100  0.10910400  1
  S  S15  1  0.15119300  0.55505900  0.89089600  1
  S  S16  1  0.30277700  0.91265100  0.51181000  1
  S  S17  1  0.80277700  0.58734900  0.48819000  1
  S  S18  1  0.69722300  0.08734900  0.48819000  1
  S  S19  1  0.19722300  0.41265100  0.51181000  1
  S  S20  1  0.38923900  0.15523900  0.37676300  1
  S  S21  1  0.88923900  0.34476100  0.62323700  1
  S  S22  1  0.61076100  0.84476100  0.62323700  1
  S  S23  1  0.11076100  0.65523900  0.37676300  1
  S  S24  1  0.42713600  0.60886700  0.35370300  1
  S  S25  1  0.92713600  0.89113300  0.64629700  1
  S  S26  1  0.57286400  0.39113300  0.64629700  1
  S  S27  1  0.07286400  0.10886700  0.35370300  1
  S  S28  1  0.31929000  0.69118100  0.18641900  1
  S  S29  1  0.81929000  0.80881900  0.81358100  1
  S  S30  1  0.68071000  0.30881900  0.81358100  1
  S  S31  1  0.18071000  0.19118100  0.18641900  1
  N  N0  1  0.37014200  0.35015000  0.75441900  1
  N  N1  1  0.87014200  0.14985000  0.24558100  1
  N  N2  1  0.62985800  0.64985000  0.24558100  1
  N  N3  1  0.12985800  0.85015000  0.75441900  1
  N  N4  1  0.38965700  0.62684800  0.80824700  1
  N  N5  1  0.88965700  0.87315200  0.19175300  1
  N  N6  1  0.61034300  0.37315200  0.19175300  1
  N  N7  1  0.11034300  0.12684800  0.80824700  1
  N  N8  1  0.46407600  0.23961300  0.35622200  1
  N  N9  1  0.96407600  0.26038700  0.64377800  1
  N  N10  1  0.53592400  0.76038700  0.64377800  1
  N  N11  1  0.03592400  0.73961300  0.35622200  1
  N  N12  1  0.34313400  0.05529900  0.01829800  1
  N  N13  1  0.84313400  0.44470100  0.98170200  1
  N  N14  1  0.65686600  0.94470100  0.98170200  1
  N  N15  1  0.15686600  0.55529900  0.01829800  1
  N  N16  1  0.33751300  0.09675400  0.65569000  1
  N  N17  1  0.83751300  0.40324600  0.34431000  1
  N  N18  1  0.66248700  0.90324600  0.34431000  1
  N  N19  1  0.16248700  0.59675400  0.65569000  1
  N  N20  1  0.33696300  0.08779700  0.56275700  1
  N  N21  1  0.83696300  0.41220300  0.43724300  1
  N  N22  1  0.66303700  0.91220300  0.43724300  1
  N  N23  1  0.16303700  0.58779700  0.56275700  1
  N  N24  1  0.43599300  0.78048200  0.37237500  1
  N  N25  1  0.93599300  0.71951800  0.62762500  1
  N  N26  1  0.56400700  0.21951800  0.62762500  1
  N  N27  1  0.06400700  0.28048200  0.37237500  1
  N  N28  1  0.37492300  0.57371900  0.25015200  1
  N  N29  1  0.87492300  0.92628100  0.74984800  1
  N  N30  1  0.62507700  0.42628100  0.74984800  1
  N  N31  1  0.12507700  0.07371900  0.25015200  1
loop_
_geom_bond_atom_site_label_1
_geom_bond_atom_site_label_2
_geom_bond_distance
_geom_bond_site_symmetry_2
Co0 H8 1.459521 1_555
Co0 N0 1.828960 1_555
Co0 S0 2.083453 1_555
Co0 S8 2.151010 1_556
Co0 S12 2.221671 1_555
Co1 H9 1.459521 1_555
Co1 N1 1.828960 1_555
Co1 S1 2.083453 1_545
Co1 S9 2.151010 1_554
Co1 S13 2.221671 1_555
Co2 H10 1.459521 1_555
Co2 N2 1.828960 1_555
Co2 S2 2.083453 1_555
Co2 S10 2.151010 1_554
Co2 S14 2.221671 1_555
Co3 H11 1.459521 1_555
Co3 N3 1.828960 1_555
Co3 S3 2.083453 1_565
Co3 S11 2.151010 1_556
Co3 S15 2.221671 1_555
Co4 H4 1.573147 1_555
Co4 N24 1.719451 1_555
Co4 S16 2.081601 1_555
Co4 S20 2.112487 1_565
Co5 H5 1.573147 1_555
Co5 N25 1.719451 1_555
Co5 S17 2.081601 1_555
Co5 S21 2.112487 1_555
Co6 H6 1.573147 1_555
Co6 N26 1.719451 1_555
Co6 S18 2.081601 1_555
Co6 S22 2.112487 1_545
Co7 H7 1.573147 1_555
Co7 N27 1.719451 1_555
Co7 S19 2.081601 1_555
Co7 S23 2.112487 1_555
H0 N16 1.091764 1_555
H0 N0 1.668285 1_555
H1 N17 1.091764 1_555
H1 N1 1.668285 1_555
H2 N18 1.091764 1_555
H2 N2 1.668285 1_555
H3 N19 1.091764 1_555
H3 N3 1.668285 1_555
H12 N12 1.028041 1_565
H13 N13 1.028041 1_555
H14 N14 1.028041 1_545
H15 N15 1.028041 1_555
N0 S4 1.576551 1_555
N1 S5 1.576551 1_545
N2 S6 1.576551 1_555
N3 S7 1.576551 1_565
N4 S4 1.606432 1_555
N4 S0 1.634812 1_555
N5 S5 1.606432 1_555
N5 S1 1.634812 1_555
N6 S6 1.606432 1_555
N6 S2 1.634812 1_555
N7 S7 1.606432 1_555
N7 S3 1.634812 1_555
N8 S20 1.484467 1_555
N9 S21 1.484467 1_555
N10 S22 1.484467 1_555
N11 S23 1.484467 1_555
N12 S8 1.655715 1_555
N12 S12 1.662898 1_554
N13 S9 1.655715 1_555
N13 S13 1.662898 1_556
N14 S10 1.655715 1_555
N14 S14 1.662898 1_556
N15 S11 1.655715 1_555
N15 S15 1.662898 1_554
N16 N20 1.219245 1_555
N17 N21 1.219245 1_555
N18 N22 1.219245 1_555
N19 N23 1.219245 1_555
N20 S16 1.819550 1_545
N21 S17 1.819550 1_555
N22 S18 1.819550 1_565
N23 S19 1.819550 1_555
N24 S24 1.557061 1_555
N25 S25 1.557061 1_555
N26 S26 1.557061 1_555
N27 S27 1.557061 1_555
N28 S28 1.588651 1_555
N28 S24 1.661522 1_555
N29 S29 1.588651 1_555
N29 S25 1.661522 1_555
N30 S30 1.588651 1_555
N30 S26 1.661522 1_555
N31 S31 1.588651 1_555
N31 S27 1.661522 1_555
