# generated using pymatgen
data_Li7Mn7P6(O8F)3
_symmetry_space_group_name_H-M   'P 1'
_cell_length_a   13.60388748
_cell_length_b   13.60388748
_cell_length_c   6.51217200
_cell_angle_alpha   90.00000000
_cell_angle_beta   90.00000000
_cell_angle_gamma   119.99999748
_symmetry_Int_Tables_number   1
_chemical_formula_structural   Li7Mn7P6(O8F)3
_chemical_formula_sum   'Li14 Mn14 P12 O48 F6'
_cell_volume   1043.71654463
_cell_formula_units_Z   2
loop_
 _symmetry_equiv_pos_site_id
 _symmetry_equiv_pos_as_xyz
  1  'x, y, z'
loop_
 _atom_site_type_symbol
 _atom_site_label
 _atom_site_symmetry_multiplicity
 _atom_site_fract_x
 _atom_site_fract_y
 _atom_site_fract_z
 _atom_site_occupancy
  Li  Li0  1  0.13082900  0.70739500  0.99792300  1
  Li  Li1  1  0.12685600  0.70995700  0.52429300  1
  Li  Li2  1  0.42343400  0.13082900  0.49792300  1
  Li  Li3  1  0.41689800  0.12685600  0.02429300  1
  Li  Li4  1  0.70995700  0.58310200  0.02429300  1
  Li  Li5  1  0.70739500  0.57656600  0.49792300  1
  Li  Li6  1  0.00000000  0.00000000  0.99845700  1
  Li  Li7  1  0.00000000  0.00000000  0.49845700  1
  Li  Li8  1  0.29260500  0.42343400  0.99792300  1
  Li  Li9  1  0.29004300  0.41689800  0.52429300  1
  Li  Li10  1  0.58310200  0.87314400  0.52429300  1
  Li  Li11  1  0.57656600  0.86917100  0.99792300  1
  Li  Li12  1  0.87314400  0.29004300  0.02429300  1
  Li  Li13  1  0.86917100  0.29260500  0.49792300  1
  Mn  Mn0  1  0.25580400  0.18987000  0.25559900  1
  Mn  Mn1  1  0.18987000  0.93406600  0.75559900  1
  Mn  Mn2  1  0.50041300  0.39430600  0.75578000  1
  Mn  Mn3  1  0.10610700  0.50041300  0.25578000  1
  Mn  Mn4  1  0.06593400  0.25580400  0.75559900  1
  Mn  Mn5  1  0.39430600  0.89389300  0.25578000  1
  Mn  Mn6  1  0.33333300  0.66666700  0.49605100  1
  Mn  Mn7  1  0.66666700  0.33333300  0.99605100  1
  Mn  Mn8  1  0.60569400  0.10610700  0.75578000  1
  Mn  Mn9  1  0.93406600  0.74419600  0.25559900  1
  Mn  Mn10  1  0.89389300  0.49958700  0.75578000  1
  Mn  Mn11  1  0.49958700  0.60569400  0.25578000  1
  Mn  Mn12  1  0.81013000  0.06593400  0.25559900  1
  Mn  Mn13  1  0.74419600  0.81013000  0.75559900  1
  P  P0  1  0.25062400  0.18570400  0.75491800  1
  P  P1  1  0.18570400  0.93508000  0.25491800  1
  P  P2  1  0.48848400  0.36931300  0.26127400  1
  P  P3  1  0.11917100  0.48848400  0.76127400  1
  P  P4  1  0.36931300  0.88082900  0.76127400  1
  P  P5  1  0.06492000  0.25062400  0.25491800  1
  P  P6  1  0.93508000  0.74937600  0.75491800  1
  P  P7  1  0.63068700  0.11917100  0.26127400  1
  P  P8  1  0.88082900  0.51151600  0.26127400  1
  P  P9  1  0.51151600  0.63068700  0.76127400  1
  P  P10  1  0.81429600  0.06492000  0.75491800  1
  P  P11  1  0.74937600  0.81429600  0.25491800  1
  O  O0  1  0.11900900  0.13317600  0.75526600  1
  O  O1  1  0.13317600  0.01416700  0.25526600  1
  O  O2  1  0.00073100  0.68152000  0.75092400  1
  O  O3  1  0.37651100  0.37463500  0.24461500  1
  O  O4  1  0.28374900  0.14095300  0.56422200  1
  O  O5  1  0.14095300  0.85720400  0.06422200  1
  O  O6  1  0.28448100  0.14378300  0.94886800  1
  O  O7  1  0.14378300  0.85930100  0.44886800  1
  O  O8  1  0.31921100  0.00073100  0.25092400  1
  O  O9  1  0.00187600  0.37651100  0.74461500  1
  O  O10  1  0.55395600  0.43852000  0.45234700  1
  O  O11  1  0.11543600  0.55395600  0.95234700  1
  O  O12  1  0.45915600  0.24499000  0.26755700  1
  O  O13  1  0.13973200  0.56496200  0.56542400  1
  O  O14  1  0.56496200  0.42523000  0.06542400  1
  O  O15  1  0.68152000  0.68078900  0.25092400  1
  O  O16  1  0.24499000  0.78583400  0.76755700  1
  O  O17  1  0.37463500  0.99812400  0.74461500  1
  O  O18  1  0.98583300  0.11900900  0.25526600  1
  O  O19  1  0.21416600  0.45915600  0.76755700  1
  O  O20  1  0.14069900  0.28448100  0.44886800  1
  O  O21  1  0.43852000  0.88456400  0.95234700  1
  O  O22  1  0.14279600  0.28374900  0.06422200  1
  O  O23  1  0.57477000  0.13973200  0.06542400  1
  O  O24  1  0.42523000  0.86026800  0.56542400  1
  O  O25  1  0.85720400  0.71625100  0.56422200  1
  O  O26  1  0.56148000  0.11543600  0.45234700  1
  O  O27  1  0.85930100  0.71551900  0.94886800  1
  O  O28  1  0.78583400  0.54084400  0.26755700  1
  O  O29  1  0.01416700  0.88099100  0.75526600  1
  O  O30  1  0.62536500  0.00187600  0.24461500  1
  O  O31  1  0.75501000  0.21416600  0.26755700  1
  O  O32  1  0.31848000  0.31921100  0.75092400  1
  O  O33  1  0.43503800  0.57477000  0.56542400  1
  O  O34  1  0.86026800  0.43503800  0.06542400  1
  O  O35  1  0.54084400  0.75501000  0.76755700  1
  O  O36  1  0.88456400  0.44604400  0.45234700  1
  O  O37  1  0.44604400  0.56148000  0.95234700  1
  O  O38  1  0.99812400  0.62348900  0.24461500  1
  O  O39  1  0.68078900  0.99926900  0.75092400  1
  O  O40  1  0.85621700  0.14069900  0.94886800  1
  O  O41  1  0.71551900  0.85621700  0.44886800  1
  O  O42  1  0.85904700  0.14279600  0.56422200  1
  O  O43  1  0.71625100  0.85904700  0.06422200  1
  O  O44  1  0.62348900  0.62536500  0.74461500  1
  O  O45  1  0.99926900  0.31848000  0.25092400  1
  O  O46  1  0.86682400  0.98583300  0.75526600  1
  O  O47  1  0.88099100  0.86682400  0.25526600  1
  F  F0  1  0.25000900  0.72694600  0.28279100  1
  F  F1  1  0.52306300  0.25000900  0.78279100  1
  F  F2  1  0.72694600  0.47693700  0.78279100  1
  F  F3  1  0.27305400  0.52306300  0.28279100  1
  F  F4  1  0.47693700  0.74999100  0.28279100  1
  F  F5  1  0.74999100  0.27305400  0.78279100  1
loop_
_geom_bond_atom_site_label_1
_geom_bond_atom_site_label_2
_geom_bond_distance
_geom_bond_site_symmetry_2
Li0 O11 2.012942 1_555
Li0 O5 2.019425 1_556
Li0 O16 2.035659 1_555
Li0 O38 2.254376 1_456
Li0 O2 2.284846 1_555
Li1 O7 1.988488 1_555
Li1 O13 2.082949 1_555
Li1 O16 2.121072 1_555
Li1 O2 2.146624 1_555
Li1 O38 2.389090 1_455
Li2 O26 2.012942 1_555
Li2 O4 2.019425 1_555
Li2 O12 2.035659 1_555
Li2 O17 2.254376 1_545
Li2 O8 2.284846 1_555
Li3 O6 1.988488 1_554
Li3 O23 2.082962 1_555
Li3 O12 2.121070 1_555
Li3 O8 2.146621 1_555
Li3 O17 2.389092 1_544
Li4 O27 1.988488 1_554
Li4 O14 2.082956 1_555
Li4 O28 2.121079 1_555
Li4 O15 2.146614 1_555
Li4 O44 2.389083 1_554
Li5 O10 2.012942 1_555
Li5 O25 2.019425 1_555
Li5 O28 2.035659 1_555
Li5 O44 2.254376 1_555
Li5 O15 2.284846 1_555
Li6 O29 2.340596 1_545
Li6 O46 2.340596 1_445
Li6 O0 2.340596 1_555
Li6 O18 2.401488 1_456
Li6 O1 2.401488 1_556
Li6 O47 2.401488 1_446
Li7 O18 2.340596 1_455
Li7 O1 2.340596 1_555
Li7 O47 2.340596 1_445
Li7 O29 2.401488 1_545
Li7 O46 2.401488 1_445
Li7 O0 2.401488 1_555
Li8 O37 2.012942 1_555
Li8 O22 2.019425 1_556
Li8 O19 2.035659 1_555
Li8 O3 2.254376 1_556
Li8 O32 2.284846 1_555
Li9 O20 1.988488 1_555
Li9 O33 2.082956 1_555
Li9 O19 2.121079 1_555
Li9 O32 2.146614 1_555
Li9 O3 2.389083 1_555
Li10 O41 1.988488 1_555
Li10 O24 2.082962 1_555
Li10 O35 2.121070 1_555
Li10 O39 2.146621 1_555
Li10 O30 2.389092 1_565
Li11 O21 2.012942 1_555
Li11 O43 2.019425 1_556
Li11 O35 2.035659 1_555
Li11 O30 2.254376 1_566
Li11 O39 2.284846 1_555
Li12 O40 1.988488 1_554
Li12 O34 2.082949 1_555
Li12 O31 2.121072 1_555
Li12 O45 2.146624 1_555
Li12 O9 2.389090 1_654
Li13 O36 2.012942 1_555
Li13 O42 2.019425 1_555
Li13 O31 2.035659 1_555
Li13 O9 2.254376 1_655
Li13 O45 2.284846 1_555
Mn0 O1 2.123387 1_555
Mn0 O6 2.186278 1_554
Mn0 O4 2.208996 1_555
Mn0 O3 2.211772 1_555
Mn0 O12 2.479278 1_555
Mn0 O22 2.740632 1_555
Mn0 O20 2.776331 1_555
Mn1 O29 2.123387 1_555
Mn1 O7 2.186282 1_555
Mn1 O5 2.208996 1_556
Mn1 O17 2.211772 1_555
Mn1 O16 2.479278 1_555
Mn1 O4 2.740632 1_565
Mn1 O6 2.776342 1_565
Mn2 O10 2.087781 1_555
Mn2 O32 2.154489 1_555
Mn2 O14 2.155167 1_556
Mn2 O44 2.725084 1_555
Mn3 O11 2.087781 1_554
Mn3 O45 2.154489 1_455
Mn3 O13 2.155167 1_555
Mn3 O38 2.725083 1_455
Mn4 O0 2.123387 1_555
Mn4 O20 2.186283 1_555
Mn4 O22 2.208996 1_556
Mn4 O9 2.211772 1_555
Mn4 O19 2.479278 1_555
Mn4 O42 2.740632 1_455
Mn4 O40 2.776341 1_455
Mn5 O21 2.087781 1_554
Mn5 O8 2.154489 1_565
Mn5 O24 2.155167 1_555
Mn5 O30 2.725084 1_565
Mn6 O24 2.326141 1_555
Mn6 O13 2.326141 1_555
Mn6 O33 2.326152 1_555
Mn7 O23 2.326141 1_556
Mn7 O34 2.326141 1_556
Mn7 O14 2.326152 1_556
Mn8 O26 2.087781 1_555
Mn8 O39 2.154489 1_545
Mn8 O23 2.155167 1_556
Mn8 O17 2.725084 1_545
Mn9 O47 2.123387 1_555
Mn9 O27 2.186283 1_554
Mn9 O25 2.208996 1_555
Mn9 O38 2.211772 1_555
Mn9 O28 2.479278 1_555
Mn9 O5 2.740632 1_655
Mn9 O7 2.776341 1_655
Mn10 O36 2.087781 1_555
Mn10 O2 2.154489 1_655
Mn10 O34 2.155167 1_556
Mn10 O9 2.725083 1_655
Mn11 O37 2.087781 1_554
Mn11 O15 2.154489 1_555
Mn11 O33 2.155167 1_555
Mn11 O3 2.725084 1_555
Mn12 O18 2.123387 1_555
Mn12 O40 2.186282 1_554
Mn12 O42 2.208996 1_555
Mn12 O30 2.211772 1_555
Mn12 O31 2.479278 1_555
Mn12 O43 2.740632 1_545
Mn12 O41 2.776342 1_545
Mn13 O46 2.123387 1_555
Mn13 O41 2.186278 1_555
Mn13 O43 2.208996 1_556
Mn13 O44 2.211772 1_555
Mn13 O35 2.479278 1_555
Mn13 O25 2.740632 1_555
Mn13 O27 2.776331 1_555
O0 P0 1.561087 1_555
O1 P1 1.561087 1_545
O2 P6 1.573174 1_455
O3 P2 1.564494 1_555
O4 P0 1.546029 1_555
O5 P1 1.546029 1_555
O6 P0 1.547674 1_555
O7 P1 1.547681 1_555
O8 P1 1.573174 1_545
O9 P3 1.564494 1_555
O10 P2 1.545775 1_555
O11 P3 1.545775 1_555
O12 P2 1.531827 1_555
O13 P3 1.579976 1_555
O14 P2 1.579976 1_555
O15 P11 1.573174 1_555
O16 P4 1.531827 1_555
O17 P4 1.564494 1_555
O18 P5 1.561087 1_655
O19 P3 1.531827 1_555
O20 P5 1.547681 1_555
O21 P4 1.545775 1_555
O22 P5 1.546029 1_555
O23 P7 1.579976 1_555
O24 P4 1.579976 1_555
O25 P6 1.546029 1_555
O26 P7 1.545775 1_555
O27 P6 1.547681 1_555
O28 P8 1.531827 1_555
O29 P6 1.561087 1_455
O30 P7 1.564494 1_555
O31 P7 1.531827 1_555
O32 P0 1.573174 1_555
O33 P9 1.579976 1_555
O34 P8 1.579976 1_555
O35 P9 1.531827 1_555
O36 P8 1.545775 1_555
O37 P9 1.545775 1_555
O38 P8 1.564494 1_555
O39 P10 1.573174 1_565
O40 P10 1.547681 1_555
O41 P11 1.547674 1_555
O42 P10 1.546029 1_555
O43 P11 1.546029 1_555
O44 P9 1.564494 1_555
O45 P5 1.573174 1_655
O46 P10 1.561087 1_565
O47 P11 1.561087 1_555
F0 Mn5 2.141053 1_555
F0 Mn6 2.194446 1_555
F0 Li1 2.224058 1_555
F0 Li0 2.389477 1_554
F1 Mn2 2.141053 1_555
F1 Mn7 2.194454 1_555
F1 Li3 2.224062 1_556
F1 Li2 2.389477 1_555
F2 Mn10 2.141053 1_555
F2 Mn7 2.194455 1_555
F2 Li4 2.224068 1_556
F2 Li5 2.389477 1_555
F3 Mn3 2.141053 1_555
F3 Mn6 2.194455 1_555
F3 Li9 2.224068 1_555
F3 Li8 2.389477 1_554
F4 Mn11 2.141053 1_555
F4 Mn6 2.194454 1_555
F4 Li10 2.224062 1_555
F4 Li11 2.389477 1_554
F5 Mn8 2.141053 1_555
F5 Mn7 2.194446 1_555
F5 Li12 2.224058 1_556
F5 Li13 2.389477 1_555
