# generated using pymatgen
data_Li4V3CoO10
_symmetry_space_group_name_H-M   'P 1'
_cell_length_a   4.65871826
_cell_length_b   6.64887024
_cell_length_c   6.64899556
_cell_angle_alpha   90.11929699
_cell_angle_beta   89.69696840
_cell_angle_gamma   90.30288584
_symmetry_Int_Tables_number   1
_chemical_formula_structural   Li4V3CoO10
_chemical_formula_sum   'Li4 V3 Co1 O10'
_cell_volume   205.94786200
_cell_formula_units_Z   1
loop_
 _symmetry_equiv_pos_site_id
 _symmetry_equiv_pos_as_xyz
  1  'x, y, z'
loop_
 _atom_site_type_symbol
 _atom_site_label
 _atom_site_symmetry_multiplicity
 _atom_site_fract_x
 _atom_site_fract_y
 _atom_site_fract_z
 _atom_site_occupancy
  Li  Li0  1  0.03359200  0.99066500  0.96613100  1
  Li  Li1  1  0.00002900  0.48183200  0.98178900  1
  Li  Li2  1  0.96642300  0.46617400  0.49066400  1
  Li  Li3  1  0.99995200  0.00769100  0.50767500  1
  V  V0  1  0.60192000  0.74750400  0.75200500  1
  V  V1  1  0.50006000  0.74661700  0.24665000  1
  V  V2  1  0.39821500  0.25201300  0.24745100  1
  Co  Co0  1  0.49997200  0.24553500  0.74549200  1
  O  O0  1  0.28094000  0.95729600  0.24689500  1
  O  O1  1  0.24113700  0.75549100  0.77169700  1
  O  O2  1  0.71901500  0.74691100  0.45734500  1
  O  O3  1  0.73285900  0.74627800  0.04087300  1
  O  O4  1  0.26717400  0.54081500  0.24626800  1
  O  O5  1  0.73370400  0.47619800  0.74520300  1
  O  O6  1  0.26627500  0.24518400  0.97616400  1
  O  O7  1  0.26045900  0.24613000  0.51850100  1
  O  O8  1  0.75871900  0.27158900  0.25546300  1
  O  O9  1  0.73951400  0.01854400  0.74615700  1
loop_
_geom_bond_atom_site_label_1
_geom_bond_atom_site_label_2
_geom_bond_distance
_geom_bond_site_symmetry_2
Li0 O6 2.006034 1_565
Li0 O9 2.018801 1_465
Li0 O3 2.195922 1_456
Li0 O0 2.211153 1_556
Li0 O1 2.246221 1_555
Li1 O5 2.008792 1_455
Li1 O6 2.008861 1_555
Li1 O3 2.193200 1_456
Li1 O4 2.193221 1_556
Li1 O1 2.548740 1_555
Li1 O8 2.549779 1_456
Li2 O5 2.006258 1_555
Li2 O7 2.018958 1_655
Li2 O4 2.195888 1_655
Li2 O2 2.211081 1_555
Li2 O8 2.247250 1_555
Li3 O7 1.992867 1_655
Li3 O9 1.992927 1_555
Li3 O2 2.193073 1_545
Li3 O0 2.193302 1_645
Co0 O6 1.876169 1_555
Co0 O5 1.876193 1_555
Co0 O7 1.881711 1_555
Co0 O9 1.881770 1_555
O0 V1 1.737625 1_555
O0 V2 2.031493 1_565
O1 V0 1.686296 1_555
O2 V1 1.737279 1_555
O2 V0 2.030941 1_555
O3 V1 1.741424 1_555
O3 V0 2.018343 1_554
O4 V1 1.741788 1_555
O4 V2 2.018032 1_555
O5 V0 1.908933 1_555
O6 V2 1.909088 1_556
O7 V2 1.910275 1_555
O8 V2 1.684951 1_555
O9 V0 1.909927 1_545
