# generated using pymatgen
data_V2OF5
_symmetry_space_group_name_H-M   'P 1'
_cell_length_a   4.63930800
_cell_length_b   8.47752193
_cell_length_c   8.54404088
_cell_angle_alpha   60.75596034
_cell_angle_beta   89.67454583
_cell_angle_gamma   89.43723329
_symmetry_Int_Tables_number   1
_chemical_formula_structural   V2OF5
_chemical_formula_sum   'V6 O3 F15'
_cell_volume   293.19261058
_cell_formula_units_Z   3
loop_
 _symmetry_equiv_pos_site_id
 _symmetry_equiv_pos_as_xyz
  1  'x, y, z'
loop_
 _atom_site_type_symbol
 _atom_site_label
 _atom_site_symmetry_multiplicity
 _atom_site_fract_x
 _atom_site_fract_y
 _atom_site_fract_z
 _atom_site_occupancy
  V  V0  1  0.00496100  0.66246300  0.33794300  1
  V  V1  1  0.00491600  0.32742900  0.00589200  1
  V  V2  1  0.47950800  0.01695200  0.32768500  1
  V  V3  1  0.47890000  0.35284300  0.65740000  1
  V  V4  1  0.99367300  0.99587200  0.67347000  1
  V  V5  1  0.52217600  0.67512700  0.98387800  1
  O  O0  1  0.26548500  0.19961400  0.21956000  1
  O  O1  1  0.26236500  0.53521400  0.55105300  1
  O  O2  1  0.73309700  0.78138000  0.80147900  1
  F  F0  1  0.75380900  0.11588500  0.11797900  1
  F  F1  1  0.25505900  0.87858800  0.24042500  1
  F  F2  1  0.74761700  0.79497100  0.41959900  1
  F  F3  1  0.74919500  0.44669700  0.10276600  1
  F  F4  1  0.75717300  0.09151000  0.45238000  1
  F  F5  1  0.24787700  0.89823700  0.55145300  1
  F  F6  1  0.25564400  0.23282700  0.88434700  1
  F  F7  1  0.74649600  0.42796500  0.78488700  1
  F  F8  1  0.25659900  0.58169000  0.20340600  1
  F  F9  1  0.74157000  0.76161300  0.12097200  1
  F  F10  1  0.75474900  0.44874600  0.45090500  1
  F  F11  1  0.26558300  0.21113500  0.57117800  1
  F  F12  1  0.24418900  0.54796700  0.90809300  1
  F  F13  1  0.74528000  0.12924600  0.75272400  1
  F  F14  1  0.24434200  0.88563400  0.88320100  1
loop_
_geom_bond_atom_site_label_1
_geom_bond_atom_site_label_2
_geom_bond_distance
_geom_bond_site_symmetry_2
O0 V2 1.679204 1_555
O0 V1 2.008680 1_555
O1 V3 1.682959 1_555
O1 V0 1.996345 1_555
O2 V5 1.681070 1_555
O2 V4 2.012233 1_555
F0 V1 1.959783 1_655
F0 V2 2.014936 1_555
F1 V2 1.975676 1_565
F1 V0 1.984100 1_555
F2 V0 1.975846 1_655
F2 V2 2.055817 1_565
F3 V1 1.974293 1_655
F3 V5 1.985273 1_554
F4 V2 1.970664 1_555
F4 V4 1.984735 1_545
F5 V2 1.985156 1_565
F5 V4 1.993167 1_455
F6 V1 1.963769 1_556
F6 V3 1.984475 1_555
F7 V3 1.960088 1_555
F7 V1 2.040227 1_656
F8 V0 1.972616 1_555
F8 V5 2.050573 1_554
F9 V5 1.952664 1_554
F9 V0 2.029626 1_655
F10 V0 1.970185 1_655
F10 V3 2.001199 1_555
F11 V3 1.965105 1_555
F11 V4 2.039550 1_445
F12 V1 1.982358 1_556
F12 V5 1.990829 1_555
F13 V4 1.943849 1_545
F13 V3 2.059292 1_555
F14 V4 1.950115 1_455
F14 V5 2.013356 1_555
