# generated using pymatgen
data_FeP3(H2O3)3
_symmetry_space_group_name_H-M   'P 1'
_cell_length_a   7.61364924
_cell_length_b   7.61364924
_cell_length_c   9.88071456
_cell_angle_alpha   75.68117731
_cell_angle_beta   75.68117731
_cell_angle_gamma   50.30726399
_symmetry_Int_Tables_number   1
_chemical_formula_structural   FeP3(H2O3)3
_chemical_formula_sum   'Fe2 P6 H12 O18'
_cell_volume   423.95915680
_cell_formula_units_Z   2
loop_
 _symmetry_equiv_pos_site_id
 _symmetry_equiv_pos_as_xyz
  1  'x, y, z'
loop_
 _atom_site_type_symbol
 _atom_site_label
 _atom_site_symmetry_multiplicity
 _atom_site_fract_x
 _atom_site_fract_y
 _atom_site_fract_z
 _atom_site_occupancy
  Fe  Fe0  1  0.29622400  0.09692200  0.35694100  1
  Fe  Fe1  1  0.09692200  0.29622400  0.85694100  1
  P  P0  1  0.61111500  0.78775600  0.93527100  1
  P  P1  1  0.78775600  0.61111500  0.43527100  1
  P  P2  1  0.13620800  0.95244100  0.68003100  1
  P  P3  1  0.95244100  0.13620800  0.18003100  1
  P  P4  1  0.38860500  0.32896700  0.55394300  1
  P  P5  1  0.32896700  0.38860500  0.05394300  1
  H  H0  1  0.72294300  0.84880700  0.98236100  1
  H  H1  1  0.84880700  0.72294300  0.48236100  1
  H  H2  1  0.34377800  0.79318800  0.73848200  1
  H  H3  1  0.79318800  0.34377800  0.23848200  1
  H  H4  1  0.60395800  0.21950300  0.59530500  1
  H  H5  1  0.21950300  0.60395800  0.09530500  1
  H  H6  1  0.40475500  0.80146300  0.13768900  1
  H  H7  1  0.80146300  0.40475500  0.63768900  1
  H  H8  1  0.72220000  0.04523400  0.22189300  1
  H  H9  1  0.04523400  0.72220000  0.72189300  1
  H  H10  1  0.67139600  0.29484700  0.95747200  1
  H  H11  1  0.29484700  0.67139600  0.45747200  1
  O  O0  1  0.41148100  0.00324100  0.85939800  1
  O  O1  1  0.00324100  0.41148100  0.35939800  1
  O  O2  1  0.59651000  0.78281900  0.34140600  1
  O  O3  1  0.78281900  0.59651000  0.84140600  1
  O  O4  1  0.52315000  0.68678500  0.06886100  1
  O  O5  1  0.68678500  0.52315000  0.56886100  1
  O  O6  1  0.17908900  0.94964600  0.51989400  1
  O  O7  1  0.94964600  0.17908900  0.01989400  1
  O  O8  1  0.18802300  0.01359100  0.22623300  1
  O  O9  1  0.01359100  0.18802300  0.72623300  1
  O  O10  1  0.87408100  0.98084100  0.24726500  1
  O  O11  1  0.98084100  0.87408100  0.74726500  1
  O  O12  1  0.43519800  0.20280800  0.18039200  1
  O  O13  1  0.20280800  0.43519800  0.68039200  1
  O  O14  1  0.52835900  0.34087800  0.93107600  1
  O  O15  1  0.34087800  0.52835900  0.43107600  1
  O  O16  1  0.41069000  0.15089800  0.49198400  1
  O  O17  1  0.15089800  0.41069000  0.99198400  1
loop_
_geom_bond_atom_site_label_1
_geom_bond_atom_site_label_2
_geom_bond_distance
_geom_bond_site_symmetry_2
Fe0 O1 1.972366 1_555
Fe0 O2 1.998448 1_545
Fe0 O16 2.003177 1_555
Fe0 O12 2.072083 1_555
Fe0 O6 2.078259 1_545
Fe0 O8 2.085259 1_555
Fe1 O0 1.972366 1_555
Fe1 O3 1.998448 1_455
Fe1 O17 2.003177 1_555
Fe1 O13 2.072083 1_555
Fe1 O7 2.078259 1_456
Fe1 O9 2.085259 1_555
H0 P0 1.402107 1_555
H1 P1 1.402107 1_555
H2 P2 1.399542 1_555
H3 P3 1.399542 1_555
H4 P4 1.402665 1_555
H5 P5 1.402665 1_555
H6 O4 1.011208 1_555
H6 O8 1.636277 1_565
H7 O5 1.011208 1_555
H7 O9 1.636277 1_655
H8 O10 0.999417 1_545
H9 O11 0.999417 1_455
H10 O14 0.992272 1_555
H11 O15 0.992272 1_555
O0 P0 1.527711 1_545
O1 P1 1.527711 1_455
O2 P1 1.525176 1_555
O3 P0 1.525176 1_555
O4 P0 1.581235 1_554
O5 P1 1.581235 1_555
O6 P2 1.537165 1_555
O7 P3 1.537165 1_555
O8 P3 1.533758 1_455
O9 P2 1.533758 1_545
O10 P3 1.585324 1_565
O11 P2 1.585324 1_655
O12 P5 1.542866 1_555
O13 P4 1.542866 1_555
O14 P5 1.585075 1_556
O15 P4 1.585075 1_555
O16 P4 1.519726 1_555
O17 P5 1.519726 1_556
