# generated using pymatgen
data_NiH20S2(NO7)2
_symmetry_space_group_name_H-M   'P 1'
_cell_length_a   12.80656700
_cell_length_b   6.54334200
_cell_length_c   9.13660418
_cell_angle_alpha   71.54218441
_cell_angle_beta   90.00000000
_cell_angle_gamma   90.00000000
_symmetry_Int_Tables_number   1
_chemical_formula_structural   NiH20S2(NO7)2
_chemical_formula_sum   'Ni2 H40 S4 N4 O28'
_cell_volume   726.24072247
_cell_formula_units_Z   2
loop_
 _symmetry_equiv_pos_site_id
 _symmetry_equiv_pos_as_xyz
  1  'x, y, z'
loop_
 _atom_site_type_symbol
 _atom_site_label
 _atom_site_symmetry_multiplicity
 _atom_site_fract_x
 _atom_site_fract_y
 _atom_site_fract_z
 _atom_site_occupancy
  Ni  Ni0  1  0.00000000  0.00000000  0.00000000  1
  Ni  Ni1  1  0.50000000  0.00000000  0.50000000  1
  H  H0  1  0.55209500  0.30659400  0.61209600  1
  H  H1  1  0.05209500  0.69340600  0.88790400  1
  H  H2  1  0.44790500  0.69340600  0.38790400  1
  H  H3  1  0.94790500  0.30659400  0.11209600  1
  H  H4  1  0.04595900  0.34857000  0.00985300  1
  H  H5  1  0.54595900  0.65143000  0.49014700  1
  H  H6  1  0.95404100  0.65143000  0.99014700  1
  H  H7  1  0.45404100  0.34857000  0.50985300  1
  H  H8  1  0.59002300  0.69409500  0.73170500  1
  H  H9  1  0.09002300  0.30590500  0.76829500  1
  H  H10  1  0.40997700  0.30590500  0.26829500  1
  H  H11  1  0.90997700  0.69409500  0.23170500  1
  H  H12  1  0.62560300  0.91485300  0.75684900  1
  H  H13  1  0.12560300  0.08514700  0.74315100  1
  H  H14  1  0.37439700  0.08514700  0.24315100  1
  H  H15  1  0.87439700  0.91485300  0.25684900  1
  H  H16  1  0.80897100  0.03311200  0.86222600  1
  H  H17  1  0.30897100  0.96688800  0.63777400  1
  H  H18  1  0.19102900  0.96688800  0.13777400  1
  H  H19  1  0.69102900  0.03311200  0.36222600  1
  H  H20  1  0.89608100  0.07988900  0.73069300  1
  H  H21  1  0.39608100  0.92011100  0.76930700  1
  H  H22  1  0.10391900  0.92011100  0.26930700  1
  H  H23  1  0.60391900  0.07988900  0.23069300  1
  H  H24  1  0.84704500  0.52727600  0.57750700  1
  H  H25  1  0.34704500  0.47272400  0.92249300  1
  H  H26  1  0.15295500  0.47272400  0.42249300  1
  H  H27  1  0.65295500  0.52727600  0.07750700  1
  H  H28  1  0.80366600  0.57982800  0.73500600  1
  H  H29  1  0.30366600  0.42017200  0.76499400  1
  H  H30  1  0.19633400  0.42017200  0.26499400  1
  H  H31  1  0.69633400  0.57982800  0.23500600  1
  H  H32  1  0.83302700  0.78630600  0.56842100  1
  H  H33  1  0.33302700  0.21369400  0.93157900  1
  H  H34  1  0.16697300  0.21369400  0.43157900  1
  H  H35  1  0.66697300  0.78630600  0.06842100  1
  H  H36  1  0.93067100  0.63631200  0.67531600  1
  H  H37  1  0.43067100  0.36368800  0.82468400  1
  H  H38  1  0.06932900  0.36368800  0.32468400  1
  H  H39  1  0.56932900  0.63631200  0.17531600  1
  S  S0  1  0.86169600  0.26495000  0.40450500  1
  S  S1  1  0.36169600  0.73505000  0.09549500  1
  S  S2  1  0.13830400  0.73505000  0.59549500  1
  S  S3  1  0.63830400  0.26495000  0.90450500  1
  N  N0  1  0.85314300  0.63395900  0.63977000  1
  N  N1  1  0.35314300  0.36604100  0.86023000  1
  N  N2  1  0.14685700  0.36604100  0.36023000  1
  N  N3  1  0.64685700  0.63395900  0.13977000  1
  O  O0  1  0.82258700  0.05682600  0.38662000  1
  O  O1  1  0.32258700  0.94317400  0.11338000  1
  O  O2  1  0.17741300  0.94317400  0.61338000  1
  O  O3  1  0.67741300  0.05682600  0.88662000  1
  O  O4  1  0.77385200  0.41209200  0.40467300  1
  O  O5  1  0.27385200  0.58790800  0.09532700  1
  O  O6  1  0.22614800  0.58790800  0.59532700  1
  O  O7  1  0.72614800  0.41209200  0.90467300  1
  O  O8  1  0.92389800  0.22141900  0.54808600  1
  O  O9  1  0.42389800  0.77858100  0.95191400  1
  O  O10  1  0.07610200  0.77858100  0.45191400  1
  O  O11  1  0.57610200  0.22141900  0.04808600  1
  O  O12  1  0.93269800  0.37367800  0.26958400  1
  O  O13  1  0.43269800  0.62632200  0.23041600  1
  O  O14  1  0.06730200  0.62632200  0.73041600  1
  O  O15  1  0.56730200  0.37367800  0.76958400  1
  O  O16  1  0.52629100  0.30014800  0.50968300  1
  O  O17  1  0.02629100  0.69985200  0.99031700  1
  O  O18  1  0.47370900  0.69985200  0.49031700  1
  O  O19  1  0.97370900  0.30014800  0.00968300  1
  O  O20  1  0.60698700  0.84606000  0.67799700  1
  O  O21  1  0.10698700  0.15394000  0.82200300  1
  O  O22  1  0.39301300  0.15394000  0.32200300  1
  O  O23  1  0.89301300  0.84606000  0.17799700  1
  O  O24  1  0.88200400  0.99845900  0.84115300  1
  O  O25  1  0.38200400  0.00154100  0.65884700  1
  O  O26  1  0.11799600  0.00154100  0.15884700  1
  O  O27  1  0.61799600  0.99845900  0.34115300  1
loop_
_geom_bond_atom_site_label_1
_geom_bond_atom_site_label_2
_geom_bond_distance
_geom_bond_site_symmetry_2
Ni0 O19 2.021978 1_455
Ni0 O17 2.021978 1_544
Ni0 O26 2.097427 1_555
Ni0 O24 2.097427 1_444
Ni0 O23 2.121183 1_445
Ni0 O21 2.121183 1_554
Ni1 O16 2.021978 1_555
Ni1 O18 2.021978 1_545
Ni1 O25 2.097427 1_555
Ni1 O27 2.097427 1_545
Ni1 O20 2.121183 1_545
Ni1 O22 2.121183 1_555
H0 O16 1.005744 1_555
H0 O15 1.643473 1_555
H1 O17 1.005744 1_555
H1 O14 1.643473 1_555
H2 O18 1.005744 1_555
H2 O13 1.643473 1_555
H3 O19 1.005744 1_555
H3 O12 1.643473 1_555
H4 O19 0.978180 1_455
H5 O18 0.978180 1_555
H6 O17 0.978180 1_655
H7 O16 0.978180 1_555
H8 O20 0.983754 1_555
H9 O21 0.983754 1_555
H10 O22 0.983754 1_555
H11 O23 0.983754 1_555
H12 O20 0.991888 1_555
H13 O21 0.991888 1_555
H14 O22 0.991888 1_555
H15 O23 0.991888 1_555
H16 O24 0.995449 1_545
H17 O25 0.995449 1_565
H18 O26 0.995449 1_565
H19 O27 0.995449 1_545
H20 O24 0.997216 1_545
H20 O8 1.670255 1_555
H21 O25 0.997216 1_565
H21 O9 1.670255 1_555
H22 O26 0.997216 1_565
H22 O10 1.670255 1_555
H23 O27 0.997216 1_545
H23 O11 1.670255 1_555
H24 N0 1.033664 1_555
H25 N1 1.033664 1_555
H26 N2 1.033664 1_555
H27 N3 1.033664 1_555
H28 N0 1.043514 1_555
H29 N1 1.043514 1_555
H30 N2 1.043514 1_555
H31 N3 1.043514 1_555
H32 N0 1.036129 1_555
H33 N1 1.036129 1_555
H34 N2 1.036129 1_555
H35 N3 1.036129 1_555
H36 N0 1.046262 1_555
H37 N1 1.046262 1_555
H38 N2 1.046262 1_555
H39 N3 1.046262 1_555
O0 S0 1.507660 1_555
O1 S1 1.507660 1_555
O2 S2 1.507660 1_555
O3 S3 1.507660 1_555
O4 S0 1.481048 1_555
O5 S1 1.481048 1_555
O6 S2 1.481048 1_555
O7 S3 1.481048 1_555
O8 S0 1.483246 1_555
O9 S1 1.483246 1_556
O10 S2 1.483246 1_555
O11 S3 1.483246 1_554
O12 S0 1.515661 1_555
O13 S1 1.515661 1_555
O14 S2 1.515661 1_555
O15 S3 1.515661 1_555
