# generated using pymatgen
data_Li2CoH12(SO7)2
_symmetry_space_group_name_H-M   'P 1'
_cell_length_a   12.12637400
_cell_length_b   5.73253500
_cell_length_c   8.61304948
_cell_angle_alpha   79.84644217
_cell_angle_beta   90.00000000
_cell_angle_gamma   90.00000000
_symmetry_Int_Tables_number   1
_chemical_formula_structural   Li2CoH12(SO7)2
_chemical_formula_sum   'Li4 Co2 H24 S4 O28'
_cell_volume   589.35806458
_cell_formula_units_Z   2
loop_
 _symmetry_equiv_pos_site_id
 _symmetry_equiv_pos_as_xyz
  1  'x, y, z'
loop_
 _atom_site_type_symbol
 _atom_site_label
 _atom_site_symmetry_multiplicity
 _atom_site_fract_x
 _atom_site_fract_y
 _atom_site_fract_z
 _atom_site_occupancy
  Li  Li0  1  0.38225600  0.64998200  0.17155200  1
  Li  Li1  1  0.88225600  0.35001800  0.32844800  1
  Li  Li2  1  0.11774400  0.64998200  0.67155200  1
  Li  Li3  1  0.61774400  0.35001800  0.82844800  1
  Co  Co0  1  0.00000000  0.00000000  0.00000000  1
  Co  Co1  1  0.50000000  0.00000000  0.50000000  1
  H  H0  1  0.06820800  0.34871800  0.11240100  1
  H  H1  1  0.80521300  0.04215900  0.14444900  1
  H  H2  1  0.84899900  0.65027100  0.03687500  1
  H  H3  1  0.38766900  0.07564700  0.22358200  1
  H  H4  1  0.62846100  0.08852700  0.24109400  1
  H  H5  1  0.08715600  0.66947100  0.21813300  1
  H  H6  1  0.58715600  0.33052900  0.28186700  1
  H  H7  1  0.12846100  0.91147300  0.25890600  1
  H  H8  1  0.88766900  0.92435300  0.27641800  1
  H  H9  1  0.34899900  0.34972900  0.46312500  1
  H  H10  1  0.30521300  0.95784100  0.35555100  1
  H  H11  1  0.56820800  0.65128200  0.38759900  1
  H  H12  1  0.43179200  0.34871800  0.61240100  1
  H  H13  1  0.69478700  0.04215900  0.64444900  1
  H  H14  1  0.65100100  0.65027100  0.53687500  1
  H  H15  1  0.11233100  0.07564700  0.72358200  1
  H  H16  1  0.87153900  0.08852700  0.74109400  1
  H  H17  1  0.41284400  0.66947100  0.71813300  1
  H  H18  1  0.91284400  0.33052900  0.78186700  1
  H  H19  1  0.37153900  0.91147300  0.75890600  1
  H  H20  1  0.61233100  0.92435300  0.77641800  1
  H  H21  1  0.15100100  0.34972900  0.96312500  1
  H  H22  1  0.19478700  0.95784100  0.85555100  1
  H  H23  1  0.93179200  0.65128200  0.88759900  1
  S  S0  1  0.63947700  0.71496600  0.07735100  1
  S  S1  1  0.13947700  0.28503400  0.42264900  1
  S  S2  1  0.86052300  0.71496600  0.57735100  1
  S  S3  1  0.36052300  0.28503400  0.92264900  1
  O  O0  1  0.07491300  0.30844500  0.00539900  1
  O  O1  1  0.39534900  0.32177000  0.08253800  1
  O  O2  1  0.87775300  0.06758500  0.19212600  1
  O  O3  1  0.73818400  0.56668900  0.12944200  1
  O  O4  1  0.66339700  0.97153800  0.07451800  1
  O  O5  1  0.11169500  0.83007600  0.16880200  1
  O  O6  1  0.54816400  0.63612900  0.19323500  1
  O  O7  1  0.04816400  0.36387100  0.30676500  1
  O  O8  1  0.61169500  0.16992400  0.33119800  1
  O  O9  1  0.16339700  0.02846200  0.42548200  1
  O  O10  1  0.23818400  0.43331100  0.37055800  1
  O  O11  1  0.37775300  0.93241500  0.30787400  1
  O  O12  1  0.42508700  0.30844500  0.50539900  1
  O  O13  1  0.89534900  0.67823000  0.41746200  1
  O  O14  1  0.10465100  0.32177000  0.58253800  1
  O  O15  1  0.57491300  0.69155500  0.49460100  1
  O  O16  1  0.62224700  0.06758500  0.69212600  1
  O  O17  1  0.76181600  0.56668900  0.62944200  1
  O  O18  1  0.83660300  0.97153800  0.57451800  1
  O  O19  1  0.38830500  0.83007600  0.66880200  1
  O  O20  1  0.95183600  0.63612900  0.69323500  1
  O  O21  1  0.45183600  0.36387100  0.80676500  1
  O  O22  1  0.88830500  0.16992400  0.83119800  1
  O  O23  1  0.33660300  0.02846200  0.92548200  1
  O  O24  1  0.26181600  0.43331100  0.87055800  1
  O  O25  1  0.12224700  0.93241500  0.80787400  1
  O  O26  1  0.60465100  0.67823000  0.91746200  1
  O  O27  1  0.92508700  0.69155500  0.99460100  1
loop_
_geom_bond_atom_site_label_1
_geom_bond_atom_site_label_2
_geom_bond_distance
_geom_bond_site_symmetry_2
Li0 O6 2.020779 1_555
Li0 O1 2.159072 1_555
Li0 O11 2.161758 1_555
Li1 O7 2.020779 1_655
Li1 O13 2.159072 1_555
Li1 O2 2.161758 1_555
Li2 O20 2.020779 1_455
Li2 O14 2.159072 1_555
Li2 O25 2.161758 1_555
Li3 O21 2.020779 1_555
Li3 O26 2.159072 1_555
Li3 O16 2.161758 1_555
Co0 O27 1.995699 1_444
Co0 O0 1.995699 1_555
Co0 O22 2.097119 1_454
Co0 O5 2.097119 1_545
Co0 O2 2.304784 1_455
Co0 O25 2.304784 1_544
Co1 O15 1.995699 1_545
Co1 O12 1.995699 1_555
Co1 O19 2.097119 1_545
Co1 O8 2.097119 1_555
Co1 O11 2.304784 1_545
Co1 O16 2.304784 1_555
H0 O0 0.992118 1_555
H0 O7 1.708916 1_555
H1 O2 0.992348 1_555
H2 O27 1.004751 1_554
H2 O3 1.592578 1_555
H3 O11 1.002773 1_545
H3 O1 1.694347 1_555
H4 O8 0.994496 1_555
H5 O5 0.989342 1_555
H6 O8 0.989342 1_555
H7 O5 0.994496 1_555
H8 O2 1.002773 1_565
H8 O13 1.694347 1_555
H9 O12 1.004751 1_555
H9 O10 1.592578 1_555
H10 O11 0.992348 1_555
H11 O15 0.992118 1_555
H11 O6 1.708916 1_555
H12 O12 0.992118 1_555
H12 O21 1.708916 1_555
H13 O16 0.992348 1_555
H14 O15 1.004751 1_555
H14 O17 1.592578 1_555
H15 O25 1.002773 1_545
H15 O14 1.694347 1_555
H16 O22 0.994496 1_555
H17 O19 0.989342 1_555
H18 O22 0.989342 1_555
H19 O19 0.994496 1_555
H20 O16 1.002773 1_565
H20 O26 1.694347 1_555
H21 O0 1.004751 1_556
H21 O24 1.592578 1_555
H22 O25 0.992348 1_555
H23 O27 0.992118 1_555
H23 O20 1.708916 1_555
O1 S3 1.490449 1_554
O3 S0 1.490655 1_555
O4 S0 1.495110 1_555
O6 S0 1.505836 1_555
O7 S1 1.505836 1_555
O9 S1 1.495110 1_555
O10 S1 1.490655 1_555
O13 S2 1.490449 1_555
O14 S1 1.490449 1_555
O17 S2 1.490655 1_555
O18 S2 1.495110 1_555
O20 S2 1.505836 1_555
O21 S3 1.505836 1_555
O23 S3 1.495110 1_555
O24 S3 1.490655 1_555
O26 S0 1.490449 1_556
