# generated using pymatgen
data_Li2CuF5
_symmetry_space_group_name_H-M   'P 1'
_cell_length_a   7.16756996
_cell_length_b   5.36089500
_cell_length_c   9.49517425
_cell_angle_alpha   90.00000603
_cell_angle_beta   90.12050434
_cell_angle_gamma   90.00000000
_symmetry_Int_Tables_number   1
_chemical_formula_structural   Li2CuF5
_chemical_formula_sum   'Li8 Cu4 F20'
_cell_volume   364.84737039
_cell_formula_units_Z   4
loop_
 _symmetry_equiv_pos_site_id
 _symmetry_equiv_pos_as_xyz
  1  'x, y, z'
loop_
 _atom_site_type_symbol
 _atom_site_label
 _atom_site_symmetry_multiplicity
 _atom_site_fract_x
 _atom_site_fract_y
 _atom_site_fract_z
 _atom_site_occupancy
  Li  Li0  1  0.04970400  0.25000000  0.72895400  1
  Li  Li1  1  0.10139900  0.25000000  0.43161300  1
  Li  Li2  1  0.39813300  0.75000000  0.93199200  1
  Li  Li3  1  0.45069100  0.75000000  0.22868900  1
  Li  Li4  1  0.54910500  0.25000000  0.77109900  1
  Li  Li5  1  0.60136900  0.25000000  0.06836800  1
  Li  Li6  1  0.89850600  0.75000000  0.56816800  1
  Li  Li7  1  0.95054500  0.75000000  0.27121300  1
  Cu  Cu0  1  0.18266100  0.25000000  0.04912000  1
  Cu  Cu1  1  0.31801700  0.75000000  0.54880100  1
  Cu  Cu2  1  0.68191400  0.25000000  0.45118200  1
  Cu  Cu3  1  0.81710800  0.75000000  0.95106000  1
  F  F0  1  0.99986000  0.99988400  0.99993300  1
  F  F1  1  0.99986000  0.50011600  0.99993200  1
  F  F2  1  0.09735800  0.25000000  0.23273200  1
  F  F3  1  0.13529300  0.49461600  0.58850700  1
  F  F4  1  0.13529300  0.00538400  0.58850700  1
  F  F5  1  0.23682000  0.75000000  0.35834900  1
  F  F6  1  0.26415200  0.25000000  0.85701600  1
  F  F7  1  0.36463400  0.50485600  0.08849500  1
  F  F8  1  0.36463400  0.99514400  0.08849500  1
  F  F9  1  0.40252900  0.75000000  0.73140200  1
  F  F10  1  0.49990300  0.99980600  0.50005100  1
  F  F11  1  0.49990200  0.50019400  0.50005100  1
  F  F12  1  0.59756100  0.25000000  0.26840100  1
  F  F13  1  0.63567900  0.00475700  0.91146500  1
  F  F14  1  0.63567900  0.49524300  0.91146500  1
  F  F15  1  0.73610100  0.75000000  0.14262900  1
  F  F16  1  0.76334400  0.25000000  0.64198800  1
  F  F17  1  0.86480100  0.50577100  0.41148800  1
  F  F18  1  0.86480100  0.99422900  0.41148800  1
  F  F19  1  0.90264500  0.75000000  0.76734600  1
loop_
_geom_bond_atom_site_label_1
_geom_bond_atom_site_label_2
_geom_bond_distance
_geom_bond_site_symmetry_2
Cu0 F2 1.848744 1_555
Cu0 F6 1.916467 1_554
Cu0 F7 1.924992 1_555
Cu0 F8 1.924992 1_545
Cu0 F0 1.931358 1_444
Cu0 F1 1.931361 1_454
Cu1 F9 1.835394 1_555
Cu1 F5 1.898552 1_555
Cu1 F11 1.926080 1_555
Cu1 F10 1.926085 1_555
Cu1 F4 1.932329 1_565
Cu1 F3 1.932329 1_555
Cu2 F12 1.836634 1_555
Cu2 F16 1.902260 1_555
Cu2 F10 1.928411 1_545
Cu2 F11 1.928416 1_555
Cu2 F18 1.934569 1_545
Cu2 F17 1.934569 1_555
Cu3 F19 1.850216 1_555
Cu3 F15 1.910565 1_556
Cu3 F14 1.922381 1_555
Cu3 F13 1.922381 1_565
Cu3 F1 1.929540 1_555
Cu3 F0 1.929542 1_555
F2 Li1 1.888571 1_555
F3 Li0 1.969227 1_555
F3 Li1 1.999119 1_555
F3 Li6 2.188781 1_455
F4 Li0 1.969226 1_555
F4 Li1 1.999119 1_555
F4 Li6 2.188781 1_445
F5 Li3 1.968133 1_555
F5 Li7 2.210810 1_455
F6 Li0 1.957884 1_555
F6 Li4 2.200912 1_555
F7 Li3 1.968785 1_555
F7 Li2 1.998629 1_554
F7 Li5 2.187172 1_555
F8 Li3 1.968785 1_555
F8 Li2 1.998628 1_554
F8 Li5 2.187172 1_565
F9 Li2 1.904964 1_555
F12 Li5 1.899602 1_555
F13 Li4 1.971401 1_555
F13 Li5 2.002518 1_556
F13 Li2 2.191696 1_545
F14 Li4 1.971401 1_555
F14 Li5 2.002518 1_556
F14 Li2 2.191696 1_555
F15 Li7 1.960936 1_555
F15 Li3 2.204461 1_555
F16 Li4 1.966929 1_555
F16 Li0 2.210775 1_655
F17 Li7 1.967087 1_555
F17 Li6 1.996082 1_555
F17 Li1 2.188855 1_655
F18 Li7 1.967086 1_555
F18 Li6 1.996082 1_555
F18 Li1 2.188855 1_665
F19 Li6 1.891400 1_555
