# generated using pymatgen
data_ZnCoO3
_symmetry_space_group_name_H-M   'P 1'
_cell_length_a   6.42081517
_cell_length_b   6.42081517
_cell_length_c   5.09103003
_cell_angle_alpha   84.76825136
_cell_angle_beta   84.76825136
_cell_angle_gamma   83.87081622
_symmetry_Int_Tables_number   1
_chemical_formula_structural   ZnCoO3
_chemical_formula_sum   'Zn4 Co4 O12'
_cell_volume   207.11374487
_cell_formula_units_Z   4
loop_
 _symmetry_equiv_pos_site_id
 _symmetry_equiv_pos_as_xyz
  1  'x, y, z'
loop_
 _atom_site_type_symbol
 _atom_site_label
 _atom_site_symmetry_multiplicity
 _atom_site_fract_x
 _atom_site_fract_y
 _atom_site_fract_z
 _atom_site_occupancy
  Zn  Zn0  1  0.78101200  0.58838100  0.19880200  1
  Zn  Zn1  1  0.58838100  0.78101200  0.69880200  1
  Zn  Zn2  1  0.41161900  0.21898800  0.30119800  1
  Zn  Zn3  1  0.21898800  0.41161900  0.80119800  1
  Co  Co0  1  0.91142900  0.08857100  0.25000000  1
  Co  Co1  1  0.74591900  0.25408100  0.75000000  1
  Co  Co2  1  0.25408100  0.74591900  0.25000000  1
  Co  Co3  1  0.08857100  0.91142900  0.75000000  1
  O  O0  1  0.98105700  0.81636400  0.10753600  1
  O  O1  1  0.87028800  0.33314400  0.40808500  1
  O  O2  1  0.81636400  0.98105700  0.60753600  1
  O  O3  1  0.73470800  0.51977800  0.84769400  1
  O  O4  1  0.51977800  0.73470800  0.34769400  1
  O  O5  1  0.66685600  0.12971200  0.09191500  1
  O  O6  1  0.33314400  0.87028800  0.90808500  1
  O  O7  1  0.48022200  0.26529200  0.65230600  1
  O  O8  1  0.26529200  0.48022200  0.15230600  1
  O  O9  1  0.18363600  0.01894300  0.39246400  1
  O  O10  1  0.12971200  0.66685600  0.59191500  1
  O  O11  1  0.01894300  0.18363600  0.89246400  1
loop_
_geom_bond_atom_site_label_1
_geom_bond_atom_site_label_2
_geom_bond_distance
_geom_bond_site_symmetry_2
Co0 O5 1.812916 1_555
Co0 O1 1.812916 1_555
Co0 O0 1.945733 1_545
Co0 O9 1.945733 1_655
Co0 O2 1.954625 1_545
Co0 O11 1.954625 1_654
Co1 O3 1.812442 1_555
Co1 O7 1.812442 1_555
Co1 O1 1.896665 1_555
Co1 O5 1.896665 1_556
Co1 O11 1.951024 1_655
Co1 O2 1.951024 1_545
Co2 O4 1.812442 1_555
Co2 O8 1.812442 1_555
Co2 O10 1.896665 1_555
Co2 O6 1.896665 1_554
Co2 O9 1.951024 1_565
Co2 O0 1.951024 1_455
Co3 O10 1.812916 1_555
Co3 O6 1.812916 1_555
Co3 O2 1.945733 1_455
Co3 O11 1.945733 1_565
Co3 O0 1.954625 1_456
Co3 O9 1.954625 1_565
O0 Zn0 2.043808 1_555
O1 Zn0 1.934401 1_555
O2 Zn1 2.043808 1_555
O3 Zn0 1.935474 1_556
O3 Zn1 1.957615 1_555
O4 Zn1 1.935474 1_555
O4 Zn0 1.957615 1_555
O5 Zn2 1.934401 1_555
O6 Zn1 1.934401 1_555
O7 Zn2 1.935474 1_555
O7 Zn3 1.957615 1_555
O8 Zn3 1.935474 1_554
O8 Zn2 1.957615 1_555
O9 Zn2 2.043808 1_555
O10 Zn3 1.934401 1_555
O11 Zn3 2.043808 1_555
