# generated using pymatgen
data_Li4Ti11O24
_symmetry_space_group_name_H-M   'P 1'
_cell_length_a   5.05666300
_cell_length_b   8.91622845
_cell_length_c   9.64578982
_cell_angle_alpha   89.95523325
_cell_angle_beta   89.88364763
_cell_angle_gamma   89.95753049
_symmetry_Int_Tables_number   1
_chemical_formula_structural   Li4Ti11O24
_chemical_formula_sum   'Li4 Ti11 O24'
_cell_volume   434.89242808
_cell_formula_units_Z   1
loop_
 _symmetry_equiv_pos_site_id
 _symmetry_equiv_pos_as_xyz
  1  'x, y, z'
loop_
 _atom_site_type_symbol
 _atom_site_label
 _atom_site_symmetry_multiplicity
 _atom_site_fract_x
 _atom_site_fract_y
 _atom_site_fract_z
 _atom_site_occupancy
  Li  Li0  1  0.52393400  0.08284800  0.64797100  1
  Li  Li1  1  0.43678000  0.25227300  0.03468600  1
  Li  Li2  1  0.06633900  0.25070200  0.53853600  1
  Li  Li3  1  0.06620600  0.91547000  0.53861900  1
  Ti  Ti0  1  0.97723000  0.75023500  0.13657100  1
  Ti  Ti1  1  0.97370200  0.41927300  0.14109200  1
  Ti  Ti2  1  0.98666200  0.07920200  0.14040900  1
  Ti  Ti3  1  0.53422600  0.75600900  0.64416500  1
  Ti  Ti4  1  0.52268600  0.41179500  0.64201100  1
  Ti  Ti5  1  0.49295100  0.24642300  0.36993200  1
  Ti  Ti6  1  0.49290700  0.91716500  0.36532800  1
  Ti  Ti7  1  0.47089700  0.58471300  0.36376200  1
  Ti  Ti8  1  0.00601300  0.24688400  0.85137000  1
  Ti  Ti9  1  0.03283200  0.92098900  0.85822500  1
  Ti  Ti10  1  0.04245200  0.58319200  0.86258000  1
  O  O0  1  0.83056100  0.08073300  0.77967000  1
  O  O1  1  0.81295000  0.74905700  0.77799900  1
  O  O2  1  0.80376500  0.41839300  0.77938900  1
  O  O3  1  0.81457400  0.58135900  0.04053100  1
  O  O4  1  0.81562500  0.91927100  0.04067900  1
  O  O5  1  0.80447300  0.24944100  0.03996300  1
  O  O6  1  0.67376300  0.58327000  0.53729600  1
  O  O7  1  0.69813700  0.90744300  0.53140300  1
  O  O8  1  0.69978600  0.25949300  0.53362400  1
  O  O9  1  0.69683000  0.08451000  0.27740400  1
  O  O10  1  0.68210600  0.41898700  0.27523100  1
  O  O11  1  0.67872800  0.74687700  0.27465300  1
  O  O12  1  0.27807300  0.26674400  0.71539000  1
  O  O13  1  0.28334600  0.90057200  0.71517000  1
  O  O14  1  0.31195100  0.58346800  0.72521800  1
  O  O15  1  0.29920100  0.75638600  0.45948100  1
  O  O16  1  0.29730100  0.40952300  0.45990000  1
  O  O17  1  0.29092300  0.08466800  0.44965700  1
  O  O18  1  0.19519500  0.41336100  0.96323000  1
  O  O19  1  0.19256000  0.74777500  0.96341500  1
  O  O20  1  0.20415600  0.08876600  0.96134800  1
  O  O21  1  0.20532600  0.25153800  0.21048300  1
  O  O22  1  0.18455300  0.91485200  0.22323400  1
  O  O23  1  0.18012100  0.58300700  0.22781400  1
loop_
_geom_bond_atom_site_label_1
_geom_bond_atom_site_label_2
_geom_bond_distance
_geom_bond_site_symmetry_2
Li0 O0 2.006519 1_555
Li0 O7 2.117272 1_545
Li0 O8 2.117376 1_555
Li0 O13 2.130634 1_545
Li0 O12 2.156938 1_555
Li0 O17 2.248733 1_555
Li1 O5 1.860252 1_555
Li1 O20 2.004248 1_554
Li1 O18 2.007393 1_554
Li1 O21 2.058441 1_555
Li2 O8 1.855833 1_455
Li2 O16 1.985393 1_555
Li2 O12 2.021113 1_555
Li2 O17 2.052262 1_555
Li3 O7 1.864073 1_455
Li3 O15 1.994569 1_555
Li3 O13 2.032339 1_555
Li3 O17 2.073650 1_565
O0 Ti8 1.861760 1_655
O0 Ti9 1.910045 1_645
O1 Ti3 1.914141 1_555
O1 Ti9 2.047683 1_655
O1 Ti10 2.049131 1_655
O2 Ti4 1.946138 1_555
O2 Ti8 1.966059 1_655
O2 Ti10 2.065954 1_655
O3 Ti1 1.917342 1_555
O3 Ti0 1.951676 1_555
O3 Ti10 2.065506 1_654
O4 Ti2 1.927221 1_565
O4 Ti0 1.947802 1_555
O4 Ti9 2.072683 1_654
O5 Ti1 1.996103 1_555
O5 Ti2 2.022550 1_555
O5 Ti8 2.083472 1_654
O6 Ti7 1.965007 1_555
O6 Ti3 1.982562 1_555
O6 Ti4 1.984334 1_555
O7 Ti6 1.912345 1_555
O7 Ti3 1.920631 1_555
O8 Ti5 1.899394 1_555
O8 Ti4 1.932789 1_555
O9 Ti2 1.971919 1_555
O9 Ti5 1.984849 1_555
O9 Ti6 2.001412 1_545
O10 Ti1 1.959728 1_555
O10 Ti7 2.012278 1_555
O10 Ti5 2.028075 1_555
O11 Ti7 1.982545 1_555
O11 Ti6 1.987418 1_555
O11 Ti0 2.011239 1_555
O12 Ti8 1.907093 1_555
O12 Ti4 1.923797 1_555
O13 Ti9 1.880119 1_555
O13 Ti3 1.932695 1_555
O14 Ti10 1.898772 1_555
O14 Ti4 2.029457 1_555
O14 Ti3 2.058734 1_555
O15 Ti6 1.958494 1_555
O15 Ti7 1.986503 1_555
O15 Ti3 2.143469 1_555
O16 Ti5 1.960368 1_555
O16 Ti7 2.016658 1_555
O16 Ti4 2.095996 1_555
O17 Ti5 1.926745 1_555
O17 Ti6 1.982833 1_545
O18 Ti10 1.957313 1_555
O18 Ti1 2.047636 1_456
O18 Ti8 2.071574 1_555
O19 Ti10 1.918980 1_555
O19 Ti0 1.992077 1_456
O19 Ti9 2.016460 1_555
O20 Ti9 1.996380 1_545
O20 Ti8 2.028966 1_555
O20 Ti2 2.047481 1_456
O21 Ti2 2.011899 1_455
O21 Ti1 2.013840 1_455
O21 Ti5 2.119382 1_555
O22 Ti2 1.945813 1_465
O22 Ti0 1.989958 1_455
O22 Ti6 2.078221 1_555
O23 Ti7 1.972219 1_555
O23 Ti1 1.981976 1_455
O23 Ti0 2.012394 1_455
