# generated using pymatgen
data_Mn2FeO6
_symmetry_space_group_name_H-M   'P 1'
_cell_length_a   5.12214610
_cell_length_b   5.12214610
_cell_length_c   9.82167700
_cell_angle_alpha   90.00000000
_cell_angle_beta   90.00000000
_cell_angle_gamma   120.19318770
_symmetry_Int_Tables_number   1
_chemical_formula_structural   Mn2FeO6
_chemical_formula_sum   'Mn4 Fe2 O12'
_cell_volume   222.72628385
_cell_formula_units_Z   2
loop_
 _symmetry_equiv_pos_site_id
 _symmetry_equiv_pos_as_xyz
  1  'x, y, z'
loop_
 _atom_site_type_symbol
 _atom_site_label
 _atom_site_symmetry_multiplicity
 _atom_site_fract_x
 _atom_site_fract_y
 _atom_site_fract_z
 _atom_site_occupancy
  Mn  Mn0  1  0.33249000  0.66751000  0.00000000  1
  Mn  Mn1  1  0.16751000  0.83249000  0.50000000  1
  Mn  Mn2  1  0.83249000  0.16751000  0.50000000  1
  Mn  Mn3  1  0.66751000  0.33249000  0.00000000  1
  Fe  Fe0  1  0.50000000  0.50000000  0.50000000  1
  Fe  Fe1  1  0.00000000  0.00000000  0.00000000  1
  O  O0  1  0.15950900  0.50040000  0.59806100  1
  O  O1  1  0.84049100  0.49960000  0.40193900  1
  O  O2  1  0.00040000  0.65950900  0.90193900  1
  O  O3  1  0.34049100  0.99960000  0.09806100  1
  O  O4  1  0.66279300  0.66279300  0.09699400  1
  O  O5  1  0.83720700  0.83720700  0.59699400  1
  O  O6  1  0.16279300  0.16279300  0.40300600  1
  O  O7  1  0.49960000  0.84049100  0.40193900  1
  O  O8  1  0.33720700  0.33720700  0.90300600  1
  O  O9  1  0.65950900  0.00040000  0.90193900  1
  O  O10  1  0.99960000  0.34049100  0.09806100  1
  O  O11  1  0.50040000  0.15950900  0.59806100  1
loop_
_geom_bond_atom_site_label_1
_geom_bond_atom_site_label_2
_geom_bond_distance
_geom_bond_site_symmetry_2
Mn0 O3 1.937167 1_555
Mn0 O2 1.937167 1_554
Mn0 O10 1.941127 1_455
Mn0 O9 1.941127 1_564
Mn0 O4 1.952337 1_555
Mn0 O8 1.952337 1_554
Mn1 O0 1.937167 1_555
Mn1 O7 1.937167 1_555
Mn1 O11 1.941127 1_565
Mn1 O1 1.941127 1_455
Mn1 O6 1.952337 1_565
Mn1 O5 1.952337 1_455
Mn2 O11 1.937167 1_555
Mn2 O1 1.937167 1_555
Mn2 O0 1.941127 1_655
Mn2 O7 1.941127 1_545
Mn2 O6 1.952337 1_655
Mn2 O5 1.952337 1_545
Mn3 O10 1.937167 1_555
Mn3 O9 1.937167 1_554
Mn3 O3 1.941127 1_545
Mn3 O2 1.941127 1_654
Mn3 O4 1.952337 1_555
Mn3 O8 1.952337 1_554
Fe0 O5 1.968102 1_555
Fe0 O6 1.968102 1_555
Fe0 O1 1.993213 1_555
Fe0 O7 1.993213 1_555
Fe0 O11 1.993213 1_555
Fe0 O0 1.993213 1_555
Fe1 O8 1.968102 1_554
Fe1 O4 1.968102 1_445
Fe1 O10 1.993213 1_455
Fe1 O3 1.993213 1_545
Fe1 O2 1.993213 1_544
Fe1 O9 1.993213 1_454
