# generated using pymatgen
data_Li4Cr3Ni3(SbO8)2
_symmetry_space_group_name_H-M   'P 1'
_cell_length_a   5.91227400
_cell_length_b   5.92674702
_cell_length_c   9.62448865
_cell_angle_alpha   90.77786048
_cell_angle_beta   90.30481927
_cell_angle_gamma   119.74081760
_symmetry_Int_Tables_number   1
_chemical_formula_structural   Li4Cr3Ni3(SbO8)2
_chemical_formula_sum   'Li4 Cr3 Ni3 Sb2 O16'
_cell_volume   292.76939662
_cell_formula_units_Z   1
loop_
 _symmetry_equiv_pos_site_id
 _symmetry_equiv_pos_as_xyz
  1  'x, y, z'
loop_
 _atom_site_type_symbol
 _atom_site_label
 _atom_site_symmetry_multiplicity
 _atom_site_fract_x
 _atom_site_fract_y
 _atom_site_fract_z
 _atom_site_occupancy
  Li  Li0  1  0.33604300  0.67615300  0.09999600  1
  Li  Li1  1  0.00385000  0.00261700  0.01183300  1
  Li  Li2  1  0.00160200  0.99845000  0.50688100  1
  Li  Li3  1  0.66189600  0.33280000  0.59824700  1
  Cr  Cr0  1  0.16238100  0.81740300  0.78148300  1
  Cr  Cr1  1  0.66026900  0.82992800  0.78624100  1
  Cr  Cr2  1  0.82316400  0.65372600  0.28059100  1
  Ni  Ni0  1  0.17198000  0.34029100  0.78824700  1
  Ni  Ni1  1  0.34091000  0.16940900  0.28831300  1
  Ni  Ni2  1  0.83121800  0.17169900  0.28829900  1
  Sb  Sb0  1  0.33107200  0.65979900  0.50974100  1
  Sb  Sb1  1  0.66729600  0.32853000  0.01139300  1
  O  O0  1  0.15907700  0.82336500  0.40396100  1
  O  O1  1  0.47732300  0.96217300  0.65742200  1
  O  O2  1  0.33545300  0.69053300  0.89204700  1
  O  O3  1  0.00132200  0.98521000  0.69682700  1
  O  O4  1  0.98777900  0.98401300  0.20229900  1
  O  O5  1  0.66492500  0.82401300  0.40516800  1
  O  O6  1  0.03254000  0.52727500  0.65504000  1
  O  O7  1  0.48249300  0.52039600  0.65471200  1
  O  O8  1  0.83367400  0.66510700  0.90132200  1
  O  O9  1  0.15775600  0.32105700  0.40615000  1
  O  O10  1  0.53154900  0.49911100  0.15245900  1
  O  O11  1  0.96756200  0.49715200  0.15296300  1
  O  O12  1  0.68554900  0.35844500  0.38943000  1
  O  O13  1  0.32810400  0.15663900  0.90677000  1
  O  O14  1  0.52594800  0.04294900  0.15737900  1
  O  O15  1  0.83696800  0.16175500  0.90694600  1
loop_
_geom_bond_atom_site_label_1
_geom_bond_atom_site_label_2
_geom_bond_distance
_geom_bond_site_symmetry_2
Li0 O14 1.957206 1_565
Li0 O11 1.965937 1_455
Li0 O10 1.975735 1_555
Li0 O2 2.004430 1_554
Li1 O4 1.838077 1_445
Li1 O15 1.954647 1_454
Li1 O13 1.959688 1_554
Li1 O8 2.019641 1_444
Li2 O3 1.830855 1_555
Li2 O9 1.938173 1_565
Li2 O0 1.966025 1_555
Li2 O5 1.974686 1_455
Li3 O7 1.953542 1_555
Li3 O6 1.973192 1_655
Li3 O1 2.000657 1_545
Li3 O12 2.017914 1_555
Cr0 O3 1.874317 1_555
Cr0 O2 1.875713 1_555
Cr0 O6 1.910654 1_555
Cr0 O1 2.023704 1_555
Cr0 O8 2.057566 1_455
Cr0 O13 2.103212 1_565
Cr1 O3 1.962707 1_655
Cr1 O2 1.969013 1_555
Cr1 O7 2.020498 1_555
Cr1 O1 2.043185 1_555
Cr1 O15 2.048252 1_565
Cr1 O8 2.059856 1_555
Cr2 O12 1.862285 1_555
Cr2 O4 1.872047 1_555
Cr2 O10 1.926718 1_555
Cr2 O11 1.965974 1_555
Cr2 O5 2.060896 1_555
Cr2 O0 2.079987 1_655
Ni0 O3 2.013602 1_545
Ni0 O2 2.045483 1_555
Ni0 O7 2.068711 1_555
Ni0 O15 2.079755 1_455
Ni0 O13 2.087423 1_555
Ni0 O6 2.117828 1_555
Ni1 O4 1.983040 1_445
Ni1 O12 2.009602 1_555
Ni1 O14 2.036945 1_555
Ni1 O9 2.053684 1_555
Ni1 O0 2.118501 1_545
Ni1 O10 2.167543 1_555
Ni2 O4 1.945243 1_545
Ni2 O12 1.959466 1_555
Ni2 O14 2.002673 1_555
Ni2 O9 2.012748 1_655
Ni2 O5 2.131361 1_545
Ni2 O11 2.145622 1_555
O0 Sb0 2.001031 1_555
O1 Sb0 2.088026 1_555
O5 Sb0 1.999490 1_555
O6 Sb0 2.090075 1_555
O7 Sb0 2.045170 1_555
O8 Sb1 2.047137 1_556
O9 Sb0 1.992071 1_555
O10 Sb1 2.070965 1_555
O11 Sb1 2.045448 1_555
O13 Sb1 1.999273 1_556
O14 Sb1 2.052071 1_555
O15 Sb1 1.990313 1_556
