# generated using pymatgen
data_K2ZrSi3O10
_symmetry_space_group_name_H-M   'P 1'
_cell_length_a   11.86530500
_cell_length_b   6.67879000
_cell_length_c   13.37149652
_cell_angle_alpha   74.58652696
_cell_angle_beta   90.00000000
_cell_angle_gamma   90.00000000
_symmetry_Int_Tables_number   1
_chemical_formula_structural   K2ZrSi3O10
_chemical_formula_sum   'K8 Zr4 Si12 O40'
_cell_volume   1021.52401354
_cell_formula_units_Z   4
loop_
 _symmetry_equiv_pos_site_id
 _symmetry_equiv_pos_as_xyz
  1  'x, y, z'
loop_
 _atom_site_type_symbol
 _atom_site_label
 _atom_site_symmetry_multiplicity
 _atom_site_fract_x
 _atom_site_fract_y
 _atom_site_fract_z
 _atom_site_occupancy
  K  K0  1  0.95062800  0.17769600  0.59454900  1
  K  K1  1  0.45062800  0.82230400  0.90545100  1
  K  K2  1  0.04937200  0.82230400  0.40545100  1
  K  K3  1  0.54937200  0.17769600  0.09454900  1
  K  K4  1  0.61412300  0.32511600  0.37671300  1
  K  K5  1  0.11412300  0.67488400  0.12328700  1
  K  K6  1  0.38587700  0.67488400  0.62328700  1
  K  K7  1  0.88587700  0.32511600  0.87671300  1
  Zr  Zr0  1  0.71357500  0.87144300  0.72136200  1
  Zr  Zr1  1  0.21357500  0.12855700  0.77863800  1
  Zr  Zr2  1  0.28642500  0.12855700  0.27863800  1
  Zr  Zr3  1  0.78642500  0.87144300  0.22136200  1
  Si  Si0  1  0.47184700  0.16037100  0.65428100  1
  Si  Si1  1  0.97184700  0.83962900  0.84571900  1
  Si  Si2  1  0.52815300  0.83962900  0.34571900  1
  Si  Si3  1  0.02815300  0.16037100  0.15428100  1
  Si  Si4  1  0.68581300  0.40754000  0.65166300  1
  Si  Si5  1  0.18581300  0.59246000  0.84833700  1
  Si  Si6  1  0.31418700  0.59246000  0.34833700  1
  Si  Si7  1  0.81418700  0.40754000  0.15166300  1
  Si  Si8  1  0.26249200  0.21176800  0.51698300  1
  Si  Si9  1  0.76249200  0.78823200  0.98301700  1
  Si  Si10  1  0.73750800  0.78823200  0.48301700  1
  Si  Si11  1  0.23750800  0.21176800  0.01698300  1
  O  O0  1  0.75239200  0.19234000  0.70072600  1
  O  O1  1  0.25239200  0.80766000  0.79927400  1
  O  O2  1  0.24760800  0.80766000  0.29927400  1
  O  O3  1  0.74760800  0.19234000  0.20072600  1
  O  O4  1  0.54261400  0.94603800  0.69252100  1
  O  O5  1  0.04261400  0.05396200  0.80747900  1
  O  O6  1  0.45738600  0.05396200  0.30747900  1
  O  O7  1  0.95738600  0.94603800  0.19252100  1
  O  O8  1  0.68045200  0.55863200  0.72921000  1
  O  O9  1  0.18045200  0.44136800  0.77079000  1
  O  O10  1  0.31954800  0.44136800  0.27079000  1
  O  O11  1  0.81954800  0.55863200  0.22921000  1
  O  O12  1  0.68371000  0.83256800  0.88054200  1
  O  O13  1  0.18371000  0.16743200  0.61945800  1
  O  O14  1  0.31629000  0.16743200  0.11945800  1
  O  O15  1  0.81629000  0.83256800  0.38054200  1
  O  O16  1  0.88728400  0.79984000  0.75694700  1
  O  O17  1  0.38728400  0.20016000  0.74305300  1
  O  O18  1  0.11271600  0.20016000  0.24305300  1
  O  O19  1  0.61271600  0.79984000  0.25694700  1
  O  O20  1  0.76720200  0.92113300  0.56475300  1
  O  O21  1  0.26720200  0.07886700  0.93524700  1
  O  O22  1  0.23279800  0.07886700  0.43524700  1
  O  O23  1  0.73279800  0.92113300  0.06475300  1
  O  O24  1  0.55629300  0.36198900  0.61644000  1
  O  O25  1  0.05629300  0.63801100  0.88356000  1
  O  O26  1  0.44370700  0.63801100  0.38356000  1
  O  O27  1  0.94370700  0.36198900  0.11644000  1
  O  O28  1  0.39593700  0.15234000  0.55179400  1
  O  O29  1  0.89593700  0.84766000  0.94820600  1
  O  O30  1  0.60406300  0.84766000  0.44820600  1
  O  O31  1  0.10406300  0.15234000  0.05179400  1
  O  O32  1  0.74583500  0.53401400  0.54024500  1
  O  O33  1  0.24583500  0.46598600  0.95975500  1
  O  O34  1  0.25416500  0.46598600  0.45975500  1
  O  O35  1  0.75416500  0.53401400  0.04024500  1
  O  O36  1  0.00603100  0.60162600  0.64486800  1
  O  O37  1  0.50603100  0.39837400  0.85513200  1
  O  O38  1  0.99396900  0.39837400  0.35513200  1
  O  O39  1  0.49396900  0.60162600  0.14486800  1
loop_
_geom_bond_atom_site_label_1
_geom_bond_atom_site_label_2
_geom_bond_distance
_geom_bond_site_symmetry_2
K0 O0 2.762530 1_555
K0 O13 2.784238 1_655
K0 O20 2.862615 1_545
K0 O5 2.954650 1_655
K0 O16 2.955669 1_545
K0 O36 3.148649 1_655
K0 O38 3.190193 1_555
K0 O32 3.343141 1_555
K1 O1 2.762530 1_555
K1 O12 2.784238 1_555
K1 O21 2.862615 1_565
K1 O4 2.954650 1_555
K1 O17 2.955669 1_565
K1 O37 3.148649 1_555
K1 O39 3.190193 1_556
K1 O33 3.343141 1_555
K2 O2 2.762530 1_555
K2 O15 2.784238 1_455
K2 O22 2.862615 1_565
K2 O7 2.954650 1_455
K2 O18 2.955669 1_565
K2 O38 3.148649 1_455
K2 O36 3.190193 1_555
K2 O34 3.343141 1_555
K3 O3 2.762530 1_555
K3 O14 2.784238 1_555
K3 O23 2.862615 1_545
K3 O6 2.954650 1_555
K3 O19 2.955669 1_545
K3 O39 3.148649 1_555
K3 O37 3.190193 1_554
K3 O35 3.343141 1_555
K4 O6 2.913156 1_555
K4 O26 2.926742 1_555
K4 O30 3.078362 1_545
K4 O19 3.149361 1_555
K4 O3 3.153061 1_555
K4 O11 3.260124 1_555
K4 O32 3.285136 1_555
K4 O24 3.350580 1_555
K5 O7 2.913156 1_455
K5 O27 2.926742 1_455
K5 O31 3.078362 1_565
K5 O18 3.149361 1_555
K5 O2 3.153061 1_555
K5 O10 3.260124 1_555
K5 O33 3.285136 1_554
K5 O25 3.350580 1_554
K6 O4 2.913156 1_555
K6 O24 2.926742 1_555
K6 O28 3.078362 1_565
K6 O17 3.149361 1_555
K6 O1 3.153061 1_555
K6 O9 3.260124 1_555
K6 O34 3.285136 1_555
K6 O26 3.350580 1_555
K7 O5 2.913156 1_655
K7 O25 2.926742 1_655
K7 O29 3.078362 1_545
K7 O16 3.149361 1_555
K7 O0 3.153061 1_555
K7 O8 3.260124 1_555
K7 O35 3.285136 1_556
K7 O27 3.350580 1_556
O0 Si4 1.618333 1_555
O0 Zr0 2.137108 1_545
O1 Si5 1.618333 1_555
O1 Zr1 2.137108 1_565
O2 Si6 1.618333 1_555
O2 Zr2 2.137108 1_565
O3 Si7 1.618333 1_555
O3 Zr3 2.137108 1_545
O4 Si0 1.620670 1_565
O4 Zr0 2.099912 1_555
O5 Si1 1.620670 1_445
O5 Zr1 2.099912 1_555
O6 Si2 1.620670 1_545
O6 Zr2 2.099912 1_555
O7 Si3 1.620670 1_665
O7 Zr3 2.099912 1_555
O8 Si4 1.629039 1_555
O8 Zr0 2.100877 1_555
O9 Si5 1.629039 1_555
O9 Zr1 2.100877 1_555
O10 Si6 1.629039 1_555
O10 Zr2 2.100877 1_555
O11 Si7 1.629039 1_555
O11 Zr3 2.100877 1_555
O12 Si9 1.619682 1_555
O12 Zr0 2.104668 1_555
O13 Si8 1.619682 1_555
O13 Zr1 2.104668 1_555
O14 Si11 1.619682 1_555
O14 Zr2 2.104668 1_555
O15 Si10 1.619682 1_555
O15 Zr3 2.104668 1_555
O16 Si1 1.629123 1_555
O16 Zr0 2.140636 1_555
O17 Si0 1.629123 1_555
O17 Zr1 2.140636 1_555
O18 Si3 1.629123 1_555
O18 Zr2 2.140636 1_555
O19 Si2 1.629123 1_555
O19 Zr3 2.140636 1_555
O20 Si10 1.619314 1_555
O20 Zr0 2.128576 1_555
O21 Si11 1.619314 1_556
O21 Zr1 2.128576 1_555
O22 Si8 1.619314 1_555
O22 Zr2 2.128576 1_555
O23 Si9 1.619314 1_554
O23 Zr3 2.128576 1_555
O24 Si0 1.646523 1_555
O24 Si4 1.659000 1_555
O25 Si1 1.646523 1_455
O25 Si5 1.659000 1_555
O26 Si2 1.646523 1_555
O26 Si6 1.659000 1_555
O27 Si3 1.646523 1_655
O27 Si7 1.659000 1_555
O28 Si0 1.652637 1_555
O28 Si8 1.668245 1_555
O29 Si1 1.652637 1_555
O29 Si9 1.668245 1_555
O30 Si2 1.652637 1_555
O30 Si10 1.668245 1_555
O31 Si3 1.652637 1_555
O31 Si11 1.668245 1_555
O32 Si4 1.664734 1_555
O32 Si10 1.669566 1_555
O33 Si5 1.664734 1_555
O33 Si11 1.669566 1_556
O34 Si6 1.664734 1_555
O34 Si8 1.669566 1_555
O35 Si7 1.664734 1_555
O35 Si9 1.669566 1_554
