# generated using pymatgen
data_Na2Mn(H2N)4
_symmetry_space_group_name_H-M   'P 1'
_cell_length_a   14.40847200
_cell_length_b   6.39862000
_cell_length_c   6.95983215
_cell_angle_alpha   64.22907742
_cell_angle_beta   90.00000000
_cell_angle_gamma   90.00000000
_symmetry_Int_Tables_number   1
_chemical_formula_structural   Na2Mn(H2N)4
_chemical_formula_sum   'Na8 Mn4 H32 N16'
_cell_volume   577.83759604
_cell_formula_units_Z   4
loop_
 _symmetry_equiv_pos_site_id
 _symmetry_equiv_pos_as_xyz
  1  'x, y, z'
loop_
 _atom_site_type_symbol
 _atom_site_label
 _atom_site_symmetry_multiplicity
 _atom_site_fract_x
 _atom_site_fract_y
 _atom_site_fract_z
 _atom_site_occupancy
  Na  Na0  1  0.55882200  0.24935700  0.45778400  1
  Na  Na1  1  0.05882200  0.75064300  0.04221600  1
  Na  Na2  1  0.44117800  0.75064300  0.54221600  1
  Na  Na3  1  0.94117800  0.24935700  0.95778400  1
  Na  Na4  1  0.64628200  0.78357200  0.35735000  1
  Na  Na5  1  0.14628200  0.21642800  0.14265000  1
  Na  Na6  1  0.35371800  0.21642800  0.64265000  1
  Na  Na7  1  0.85371800  0.78357200  0.85735000  1
  Mn  Mn0  1  0.61738300  0.75178300  0.83036100  1
  Mn  Mn1  1  0.11738300  0.24821700  0.66963900  1
  Mn  Mn2  1  0.38261700  0.24821700  0.16963900  1
  Mn  Mn3  1  0.88261700  0.75178300  0.33036100  1
  H  H0  1  0.66699800  0.38429500  0.15543300  1
  H  H1  1  0.16699800  0.61570500  0.34456700  1
  H  H2  1  0.33300200  0.61570500  0.84456700  1
  H  H3  1  0.83300200  0.38429500  0.65543300  1
  H  H4  1  0.71793900  0.59935400  0.17261100  1
  H  H5  1  0.21793900  0.40064600  0.32738900  1
  H  H6  1  0.28206100  0.40064600  0.82738900  1
  H  H7  1  0.78206100  0.59935400  0.67261100  1
  H  H8  1  0.63806200  0.38861300  0.75668300  1
  H  H9  1  0.13806200  0.61138700  0.74331700  1
  H  H10  1  0.36193800  0.61138700  0.24331700  1
  H  H11  1  0.86193800  0.38861300  0.25668300  1
  H  H12  1  0.52788000  0.41551700  0.77835500  1
  H  H13  1  0.02788000  0.58448300  0.72164500  1
  H  H14  1  0.47212000  0.58448300  0.22164500  1
  H  H15  1  0.97212000  0.41551700  0.27835500  1
  H  H16  1  0.77860400  0.15200900  0.15252900  1
  H  H17  1  0.27860400  0.84799100  0.34747100  1
  H  H18  1  0.22139600  0.84799100  0.84747100  1
  H  H19  1  0.72139600  0.15200900  0.65252900  1
  H  H20  1  0.75869800  0.00136800  0.02095100  1
  H  H21  1  0.25869800  0.99863200  0.47904900  1
  H  H22  1  0.24130200  0.99863200  0.97904900  1
  H  H23  1  0.74130200  0.00136800  0.52095100  1
  H  H24  1  0.49501700  0.95165200  0.15795500  1
  H  H25  1  0.99501700  0.04834800  0.34204500  1
  H  H26  1  0.50498300  0.04834800  0.84204500  1
  H  H27  1  0.00498300  0.95165200  0.65795500  1
  H  H28  1  0.55126800  0.18567800  0.10783400  1
  H  H29  1  0.05126800  0.81432200  0.39216600  1
  H  H30  1  0.44873200  0.81432200  0.89216600  1
  H  H31  1  0.94873200  0.18567800  0.60783400  1
  N  N0  1  0.65500600  0.55363500  0.12803600  1
  N  N1  1  0.15500600  0.44636500  0.37196400  1
  N  N2  1  0.34499400  0.44636500  0.87196400  1
  N  N3  1  0.84499400  0.55363500  0.62803600  1
  N  N4  1  0.58660500  0.51245000  0.71147900  1
  N  N5  1  0.08660500  0.48755000  0.78852100  1
  N  N6  1  0.41339500  0.48755000  0.28852100  1
  N  N7  1  0.91339500  0.51245000  0.21147900  1
  N  N8  1  0.70835700  0.99291700  0.65559400  1
  N  N9  1  0.20835700  0.00708300  0.84440600  1
  N  N10  1  0.29164300  0.00708300  0.34440600  1
  N  N11  1  0.79164300  0.99291700  0.15559400  1
  N  N12  1  0.50546300  0.07248500  0.21764800  1
  N  N13  1  0.00546300  0.92751500  0.28235200  1
  N  N14  1  0.49453700  0.92751500  0.78235200  1
  N  N15  1  0.99453700  0.07248500  0.71764800  1
loop_
_geom_bond_atom_site_label_1
_geom_bond_atom_site_label_2
_geom_bond_distance
_geom_bond_site_symmetry_2
Mn0 N0 1.977248 1_556
Mn0 N8 1.986554 1_555
Mn0 N14 2.045066 1_555
Mn0 N4 2.080438 1_555
Mn1 N1 1.977248 1_555
Mn1 N9 1.986554 1_555
Mn1 N15 2.045066 1_455
Mn1 N5 2.080438 1_555
Mn2 N2 1.977248 1_554
Mn2 N10 1.986554 1_555
Mn2 N12 2.045066 1_555
Mn2 N6 2.080438 1_555
Mn3 N3 1.977248 1_555
Mn3 N11 1.986554 1_555
Mn3 N13 2.045066 1_655
Mn3 N7 2.080438 1_555
H0 N0 1.029865 1_555
H0 Na0 2.454207 1_555
H1 N1 1.029865 1_555
H1 Na1 2.454207 1_555
H2 N2 1.029865 1_555
H2 Na2 2.454207 1_555
H3 N3 1.029865 1_555
H3 Na3 2.454207 1_555
H4 N0 1.040658 1_555
H4 Na4 2.329472 1_555
H5 N1 1.040658 1_555
H5 Na5 2.329472 1_555
H6 N2 1.040658 1_555
H6 Na6 2.329472 1_555
H7 N3 1.040658 1_555
H7 Na7 2.329472 1_555
H8 N4 1.029457 1_555
H9 N5 1.029457 1_555
H10 N6 1.029457 1_555
H11 N7 1.029457 1_555
H12 N4 1.032597 1_555
H12 Na2 2.407365 1_555
H13 N5 1.032597 1_555
H13 Na3 2.407365 1_455
H14 N6 1.032597 1_555
H14 Na0 2.407365 1_555
H15 N7 1.032597 1_555
H15 Na1 2.407365 1_655
H16 N11 1.026221 1_545
H16 Na3 2.641589 1_554
H17 N10 1.026221 1_565
H17 Na2 2.641589 1_555
H18 N9 1.026221 1_565
H18 Na1 2.641589 1_556
H19 N8 1.026221 1_545
H19 Na0 2.641589 1_555
H20 N11 1.030695 1_545
H20 Na7 2.548098 1_544
H21 N10 1.030695 1_565
H21 Na6 2.548098 1_565
H22 N9 1.030695 1_565
H22 Na5 2.548098 1_566
H23 N8 1.030695 1_545
H23 Na4 2.548098 1_545
H24 N12 1.035543 1_565
H24 Na2 2.533253 1_555
H24 Na4 2.556351 1_555
H25 N13 1.035543 1_645
H25 Na3 2.533253 1_554
H25 Na5 2.556351 1_655
H26 N14 1.035543 1_545
H26 Na0 2.533253 1_555
H26 Na6 2.556351 1_555
H27 N15 1.035543 1_465
H27 Na1 2.533253 1_556
H27 Na7 2.556351 1_455
H28 N12 1.030992 1_555
H29 N13 1.030992 1_555
H30 N14 1.030992 1_555
H31 N15 1.030992 1_555
N0 Na4 2.601819 1_555
N0 Na0 2.663248 1_555
N1 Na5 2.601819 1_555
N1 Na1 2.663248 1_555
N2 Na6 2.601819 1_555
N2 Na2 2.663248 1_555
N3 Na7 2.601819 1_555
N3 Na3 2.663248 1_555
N4 Na4 2.470947 1_555
N4 Na2 2.557355 1_555
N5 Na5 2.470947 1_556
N5 Na3 2.557355 1_455
N6 Na6 2.470947 1_555
N6 Na0 2.557355 1_555
N7 Na7 2.470947 1_554
N7 Na1 2.557355 1_655
N8 Na7 2.552866 1_555
N8 Na0 2.695487 1_565
N9 Na6 2.552866 1_555
N9 Na1 2.695487 1_546
N10 Na5 2.552866 1_555
N10 Na2 2.695487 1_545
N11 Na4 2.552866 1_555
N11 Na3 2.695487 1_564
N12 Na2 2.481242 1_545
N12 Na0 2.511954 1_555
N12 Na4 2.629959 1_545
N13 Na3 2.481242 1_464
N13 Na1 2.511954 1_555
N13 Na5 2.629959 1_565
N14 Na0 2.481242 1_565
N14 Na2 2.511954 1_555
N14 Na6 2.629959 1_565
N15 Na1 2.481242 1_646
N15 Na3 2.511954 1_555
N15 Na7 2.629959 1_545
