# generated using pymatgen
data_Mn3(OF2)2
_symmetry_space_group_name_H-M   'P 1'
_cell_length_a   4.83727800
_cell_length_b   5.78563551
_cell_length_c   7.94437082
_cell_angle_alpha   85.65385175
_cell_angle_beta   86.54237890
_cell_angle_gamma   85.30911516
_symmetry_Int_Tables_number   1
_chemical_formula_structural   Mn3(OF2)2
_chemical_formula_sum   'Mn6 O4 F8'
_cell_volume   220.62719402
_cell_formula_units_Z   2
loop_
 _symmetry_equiv_pos_site_id
 _symmetry_equiv_pos_as_xyz
  1  'x, y, z'
loop_
 _atom_site_type_symbol
 _atom_site_label
 _atom_site_symmetry_multiplicity
 _atom_site_fract_x
 _atom_site_fract_y
 _atom_site_fract_z
 _atom_site_occupancy
  Mn  Mn0  1  0.51516600  0.15335100  0.83267500  1
  Mn  Mn1  1  0.50000000  0.50000000  0.50000000  1
  Mn  Mn2  1  0.48483400  0.84664900  0.16732500  1
  Mn  Mn3  1  0.00000000  0.00000000  0.50000000  1
  Mn  Mn4  1  0.01870800  0.32196600  0.15853100  1
  Mn  Mn5  1  0.98129200  0.67803400  0.84146900  1
  O  O0  1  0.68742200  0.87039600  0.94237800  1
  O  O1  1  0.69856500  0.20000700  0.60294000  1
  O  O2  1  0.30143500  0.79999300  0.39706000  1
  O  O3  1  0.31257800  0.12960400  0.05762200  1
  F  F0  1  0.81299700  0.03965700  0.27256700  1
  F  F1  1  0.80463200  0.70026600  0.60124500  1
  F  F2  1  0.80479700  0.37538900  0.93423300  1
  F  F3  1  0.70319500  0.53779400  0.25786100  1
  F  F4  1  0.29680500  0.46220600  0.74213900  1
  F  F5  1  0.19536800  0.29973400  0.39875500  1
  F  F6  1  0.19520300  0.62461100  0.06576700  1
  F  F7  1  0.18700300  0.96034300  0.72743300  1
loop_
_geom_bond_atom_site_label_1
_geom_bond_atom_site_label_2
_geom_bond_distance
_geom_bond_site_symmetry_2
Mn0 O0 1.944764 1_545
Mn0 O3 1.986552 1_556
Mn0 O1 1.989998 1_555
Mn1 O2 2.052023 1_555
Mn1 O1 2.052023 1_555
Mn2 O3 1.944764 1_565
Mn2 O0 1.986552 1_554
Mn2 O2 1.989998 1_555
Mn3 O2 1.964070 1_545
Mn3 O1 1.964070 1_455
Mn4 O3 1.908150 1_555
Mn5 O0 1.908150 1_555
F0 Mn3 2.058119 1_655
F0 Mn4 2.100366 1_655
F0 Mn2 2.248867 1_545
F1 Mn3 2.124218 1_665
F1 Mn5 2.128482 1_555
F1 Mn1 2.173567 1_555
F2 Mn5 2.076298 1_555
F2 Mn4 2.104291 1_656
F2 Mn0 2.202705 1_555
F3 Mn4 2.050288 1_655
F3 Mn2 2.101012 1_555
F3 Mn1 2.111317 1_555
F4 Mn5 2.050288 1_455
F4 Mn0 2.101012 1_555
F4 Mn1 2.111317 1_555
F5 Mn3 2.124218 1_555
F5 Mn4 2.128482 1_555
F5 Mn1 2.173567 1_555
F6 Mn4 2.076298 1_555
F6 Mn5 2.104291 1_454
F6 Mn2 2.202705 1_555
F7 Mn3 2.058119 1_565
F7 Mn5 2.100366 1_455
F7 Mn0 2.248867 1_565
