# generated using pymatgen
data_Li2VCrP2(O4F)2
_symmetry_space_group_name_H-M   'P 1'
_cell_length_a   6.96240900
_cell_length_b   7.34337982
_cell_length_c   7.98553713
_cell_angle_alpha   90.67940018
_cell_angle_beta   91.61927748
_cell_angle_gamma   117.58633000
_symmetry_Int_Tables_number   1
_chemical_formula_structural   Li2VCrP2(O4F)2
_chemical_formula_sum   'Li4 V2 Cr2 P4 O16 F4'
_cell_volume   361.57771585
_cell_formula_units_Z   2
loop_
 _symmetry_equiv_pos_site_id
 _symmetry_equiv_pos_as_xyz
  1  'x, y, z'
loop_
 _atom_site_type_symbol
 _atom_site_label
 _atom_site_symmetry_multiplicity
 _atom_site_fract_x
 _atom_site_fract_y
 _atom_site_fract_z
 _atom_site_occupancy
  Li  Li0  1  0.44162500  0.18843100  0.82811400  1
  Li  Li1  1  0.94307900  0.18840200  0.32705800  1
  Li  Li2  1  0.05692100  0.81159800  0.67294200  1
  Li  Li3  1  0.55837500  0.81156900  0.17188600  1
  V  V0  1  0.00000000  0.50000000  0.00000000  1
  V  V1  1  0.50000000  0.00000000  0.50000000  1
  Cr  Cr0  1  0.00000000  0.00000000  0.00000000  1
  Cr  Cr1  1  0.50000000  0.50000000  0.50000000  1
  P  P0  1  0.48347000  0.76215700  0.84100800  1
  P  P1  1  0.98023500  0.76134400  0.34062200  1
  P  P2  1  0.01976500  0.23865600  0.65937800  1
  P  P3  1  0.51653000  0.23784300  0.15899200  1
  O  O0  1  0.98095000  0.39196900  0.76678300  1
  O  O1  1  0.80872800  0.08584700  0.56095500  1
  O  O2  1  0.69232800  0.91656400  0.93987700  1
  O  O3  1  0.32489000  0.65532300  0.98318800  1
  O  O4  1  0.51976900  0.60861900  0.73267900  1
  O  O5  1  0.82323200  0.65731900  0.48373300  1
  O  O6  1  0.10442100  0.11306200  0.77028500  1
  O  O7  1  0.60302400  0.11182000  0.26899400  1
  O  O8  1  0.39697600  0.88818000  0.73100600  1
  O  O9  1  0.89557900  0.88693800  0.22971500  1
  O  O10  1  0.17676800  0.34268100  0.51626700  1
  O  O11  1  0.48023100  0.39138100  0.26732100  1
  O  O12  1  0.67511000  0.34467700  0.01681200  1
  O  O13  1  0.30767200  0.08343600  0.06012300  1
  O  O14  1  0.19127200  0.91415300  0.43904500  1
  O  O15  1  0.01905000  0.60803100  0.23321700  1
  F  F0  1  0.97141400  0.74129200  0.89995400  1
  F  F1  1  0.52855800  0.26723200  0.59991800  1
  F  F2  1  0.47144200  0.73276800  0.40008200  1
  F  F3  1  0.02858600  0.25870800  0.10004600  1
loop_
_geom_bond_atom_site_label_1
_geom_bond_atom_site_label_2
_geom_bond_distance
_geom_bond_site_symmetry_2
Li0 O12 2.079132 1_556
Li0 O13 2.088631 1_556
Li0 O6 2.181908 1_555
Li0 O8 2.206896 1_545
Li1 O10 2.080133 1_655
Li1 O1 2.100108 1_555
Li1 O7 2.198954 1_555
Li1 O9 2.209291 1_545
Li2 O5 2.080133 1_455
Li2 O14 2.100108 1_555
Li2 O8 2.198954 1_555
Li2 O6 2.209291 1_565
Li3 O3 2.079132 1_554
Li3 O2 2.088631 1_554
Li3 O9 2.181908 1_555
Li3 O7 2.206896 1_565
Cr0 F3 1.972794 1_555
Cr0 F0 1.972794 1_444
Cr0 O13 1.978378 1_555
Cr0 O2 1.978378 1_444
Cr0 O6 2.033554 1_554
Cr0 O9 2.033554 1_445
Cr1 F2 1.983947 1_555
Cr1 F1 1.983947 1_555
Cr1 O11 1.989043 1_555
Cr1 O4 1.989043 1_555
Cr1 O5 2.007057 1_555
Cr1 O10 2.007057 1_555
O0 P2 1.532369 1_655
O0 V0 1.992206 1_656
O1 P2 1.556472 1_655
O1 V1 1.983239 1_555
O2 P0 1.552536 1_555
O3 P0 1.553492 1_555
O3 V0 2.016665 1_556
O4 P0 1.528586 1_555
O5 P1 1.549970 1_555
O6 P2 1.573445 1_555
O7 P3 1.579953 1_555
O7 V1 2.038851 1_555
O8 P0 1.579953 1_555
O8 V1 2.038851 1_565
O9 P1 1.573445 1_555
O10 P2 1.549970 1_555
O11 P3 1.528586 1_555
O12 P3 1.553492 1_555
O12 V0 2.016665 1_655
O13 P3 1.552536 1_555
O14 P1 1.556472 1_455
O14 V1 1.983239 1_565
O15 P1 1.532369 1_455
O15 V0 1.992206 1_555
F0 Li2 1.925041 1_655
F0 V0 2.041743 1_656
F1 Li0 1.945459 1_555
F1 V1 2.029694 1_555
F2 Li3 1.945459 1_555
F2 V1 2.029694 1_565
F3 Li1 1.925041 1_455
F3 V0 2.041743 1_555
