# generated using pymatgen
data_NaLi2FePCO7
_symmetry_space_group_name_H-M   'P 1'
_cell_length_a   8.28104691
_cell_length_b   8.37077386
_cell_length_c   8.67550854
_cell_angle_alpha   88.72949546
_cell_angle_beta   86.86559158
_cell_angle_gamma   103.71065347
_symmetry_Int_Tables_number   1
_chemical_formula_structural   NaLi2FePCO7
_chemical_formula_sum   'Na4 Li8 Fe4 P4 C4 O28'
_cell_volume   582.98269783
_cell_formula_units_Z   4
loop_
 _symmetry_equiv_pos_site_id
 _symmetry_equiv_pos_as_xyz
  1  'x, y, z'
loop_
 _atom_site_type_symbol
 _atom_site_label
 _atom_site_symmetry_multiplicity
 _atom_site_fract_x
 _atom_site_fract_y
 _atom_site_fract_z
 _atom_site_occupancy
  Na  Na0  1  0.50304600  0.25464600  0.08717900  1
  Na  Na1  1  0.00321800  0.75471500  0.08717700  1
  Na  Na2  1  0.62578500  0.12222100  0.74360200  1
  Na  Na3  1  0.12577900  0.62223500  0.74359200  1
  Li  Li0  1  0.13247100  0.10359100  0.28194000  1
  Li  Li1  1  0.63271400  0.60351100  0.28212400  1
  Li  Li2  1  0.36513200  0.88392400  0.27544600  1
  Li  Li3  1  0.86497800  0.38384400  0.27556800  1
  Li  Li4  1  0.86361200  0.89329200  0.71971500  1
  Li  Li5  1  0.36350500  0.39346100  0.71953200  1
  Li  Li6  1  0.50701500  0.72363900  0.90509900  1
  Li  Li7  1  0.00699900  0.22363000  0.90502400  1
  Fe  Fe0  1  0.27034500  0.52183400  0.33989600  1
  Fe  Fe1  1  0.72936900  0.49010800  0.65581700  1
  Fe  Fe2  1  0.77019900  0.02203900  0.34006100  1
  Fe  Fe3  1  0.22984400  0.99002100  0.65549600  1
  P  P0  1  0.48382400  0.24161700  0.41685600  1
  P  P1  1  0.98384300  0.74154300  0.41686500  1
  P  P2  1  0.52274800  0.77226200  0.58243400  1
  P  P3  1  0.02271600  0.27227900  0.58242100  1
  C  C0  1  0.72748100  0.96855600  0.04073500  1
  C  C1  1  0.22754100  0.46844700  0.04067200  1
  C  C2  1  0.26471300  0.01605000  0.95735000  1
  C  C3  1  0.76477300  0.51615100  0.95740800  1
  O  O0  1  0.27328500  0.01989600  0.10680000  1
  O  O1  1  0.77347300  0.52003200  0.10682500  1
  O  O2  1  0.84942900  0.09197400  0.06938400  1
  O  O3  1  0.34937100  0.59196800  0.06934000  1
  O  O4  1  0.63051400  0.88979700  0.15609500  1
  O  O5  1  0.13074800  0.38950900  0.15607200  1
  O  O6  1  0.44431700  0.38238800  0.31599400  1
  O  O7  1  0.94413000  0.88219600  0.31600000  1
  O  O8  1  0.63691700  0.20005000  0.32847800  1
  O  O9  1  0.13689400  0.69999300  0.32842200  1
  O  O10  1  0.33263200  0.08735400  0.42508900  1
  O  O11  1  0.83265700  0.58718400  0.42519800  1
  O  O12  1  0.47127200  0.71530400  0.41994800  1
  O  O13  1  0.97109300  0.21530400  0.41994500  1
  O  O14  1  0.52415400  0.29756800  0.58160900  1
  O  O15  1  0.02422600  0.79754200  0.58156400  1
  O  O16  1  0.68536800  0.91227500  0.56579400  1
  O  O17  1  0.18527300  0.41235300  0.56568400  1
  O  O18  1  0.38476900  0.83291000  0.67559500  1
  O  O19  1  0.88473300  0.33287900  0.67569100  1
  O  O20  1  0.55140900  0.62735400  0.68736400  1
  O  O21  1  0.05151900  0.12739500  0.68726400  1
  O  O22  1  0.36599900  0.12524300  0.86672000  1
  O  O23  1  0.86590700  0.62533500  0.86667100  1
  O  O24  1  0.15372300  0.90409900  0.89449700  1
  O  O25  1  0.65373800  0.40411900  0.89464500  1
  O  O26  1  0.70039500  0.92219500  0.90067900  1
  O  O27  1  0.20041000  0.42216800  0.90062300  1
loop_
_geom_bond_atom_site_label_1
_geom_bond_atom_site_label_2
_geom_bond_distance
_geom_bond_site_symmetry_2
Na0 O25 2.202720 1_554
Na0 O6 2.357025 1_555
Na0 O0 2.384930 1_555
Na0 O22 2.421946 1_554
Na0 O8 2.504326 1_555
Na0 O1 2.771158 1_555
Na1 O24 2.202711 1_554
Na1 O7 2.356743 1_455
Na1 O1 2.384498 1_455
Na1 O23 2.423102 1_454
Na1 O9 2.503351 1_555
Na1 O0 2.768232 1_565
Na2 O14 2.336929 1_555
Na2 O26 2.350226 1_545
Na2 O22 2.354847 1_555
Na2 O19 2.465393 1_555
Na2 O16 2.481837 1_545
Na2 O25 2.692625 1_555
Na2 O18 2.845585 1_545
Na3 O15 2.336529 1_555
Na3 O27 2.350337 1_555
Na3 O23 2.355501 1_455
Na3 O18 2.465834 1_555
Na3 O17 2.481724 1_555
Na3 O24 2.691774 1_555
Na3 O19 2.845728 1_455
Li0 O0 2.097610 1_555
Li0 O7 2.123564 1_445
Li0 O13 2.135621 1_455
Li0 O10 2.152355 1_555
Li1 O1 2.097436 1_555
Li1 O6 2.122091 1_555
Li1 O12 2.135552 1_555
Li1 O11 2.150654 1_555
Li2 O0 2.114905 1_565
Li2 O9 2.155967 1_555
Li2 O10 2.221410 1_565
Li2 O12 2.228574 1_555
Li2 O4 2.366822 1_555
Li3 O1 2.115109 1_555
Li3 O8 2.154287 1_555
Li3 O11 2.220333 1_555
Li3 O13 2.227359 1_555
Li3 O5 2.370563 1_655
Li4 O15 2.054637 1_655
Li4 O26 2.071218 1_555
Li4 O16 2.074711 1_555
Li4 O21 2.196103 1_665
Li4 O23 2.559864 1_555
Li5 O14 2.054409 1_555
Li5 O27 2.070899 1_555
Li5 O17 2.074028 1_555
Li5 O20 2.194653 1_555
Li5 O22 2.563122 1_555
Li6 O3 1.998542 1_556
Li6 O26 2.014234 1_555
Li6 O20 2.117773 1_555
Li6 O18 2.530687 1_555
Li7 O2 1.998885 1_456
Li7 O27 2.014298 1_555
Li7 O21 2.118006 1_555
Li7 O19 2.529507 1_455
Fe0 O9 2.059599 1_555
Fe0 O6 2.063076 1_555
Fe0 O17 2.153276 1_555
Fe0 O12 2.184599 1_555
Fe0 O5 2.186208 1_555
Fe0 O3 2.423038 1_555
Fe1 O19 2.057689 1_555
Fe1 O20 2.083017 1_555
Fe1 O14 2.183419 1_555
Fe1 O25 2.186689 1_555
Fe1 O11 2.192293 1_555
Fe1 O23 2.370077 1_555
Fe2 O8 2.057610 1_555
Fe2 O7 2.065338 1_545
Fe2 O16 2.153282 1_545
Fe2 O13 2.182912 1_555
Fe2 O4 2.187207 1_545
Fe2 O2 2.424044 1_555
Fe3 O18 2.054276 1_555
Fe3 O21 2.086505 1_565
Fe3 O15 2.184357 1_555
Fe3 O24 2.188581 1_555
Fe3 O10 2.190184 1_565
Fe3 O22 2.371372 1_565
C0 O26 1.298742 1_554
C0 O2 1.301218 1_565
C0 O4 1.308798 1_555
C1 O27 1.298550 1_554
C1 O3 1.301205 1_555
C1 O5 1.308910 1_555
C2 O24 1.299792 1_545
C2 O22 1.299907 1_555
C2 O0 1.303059 1_556
C3 O23 1.299821 1_555
C3 O25 1.300012 1_555
C3 O1 1.302892 1_556
O6 P0 1.558710 1_555
O7 P1 1.558658 1_555
O8 P0 1.559107 1_555
O9 P1 1.559009 1_455
O10 P0 1.568396 1_555
O11 P1 1.568861 1_555
O12 P2 1.547680 1_555
O13 P3 1.547944 1_655
O14 P0 1.543236 1_555
O15 P1 1.542989 1_455
O16 P2 1.559175 1_555
O17 P3 1.559122 1_555
O18 P2 1.551995 1_555
O19 P3 1.552276 1_655
O20 P2 1.570828 1_555
O21 P3 1.570668 1_555
