# generated using pymatgen
data_Li2Fe(PO4)2
_symmetry_space_group_name_H-M   'P 1'
_cell_length_a   4.82500700
_cell_length_b   5.91240984
_cell_length_c   10.22978276
_cell_angle_alpha   89.91065463
_cell_angle_beta   89.74294678
_cell_angle_gamma   88.64764435
_symmetry_Int_Tables_number   1
_chemical_formula_structural   Li2Fe(PO4)2
_chemical_formula_sum   'Li4 Fe2 P4 O16'
_cell_volume   291.74476731
_cell_formula_units_Z   2
loop_
 _symmetry_equiv_pos_site_id
 _symmetry_equiv_pos_as_xyz
  1  'x, y, z'
loop_
 _atom_site_type_symbol
 _atom_site_label
 _atom_site_symmetry_multiplicity
 _atom_site_fract_x
 _atom_site_fract_y
 _atom_site_fract_z
 _atom_site_occupancy
  Li  Li0  1  0.00000000  0.00000000  0.00000000  1
  Li  Li1  1  0.53126300  0.25289000  0.77431700  1
  Li  Li2  1  0.50000000  0.50000000  0.50000000  1
  Li  Li3  1  0.46873700  0.74711000  0.22568300  1
  Fe  Fe0  1  0.01611500  0.74685700  0.72112200  1
  Fe  Fe1  1  0.98388500  0.25314300  0.27887800  1
  P  P0  1  0.58407600  0.75108200  0.89730000  1
  P  P1  1  0.06767000  0.24878100  0.59363200  1
  P  P2  1  0.93233000  0.75121900  0.40636800  1
  P  P3  1  0.41592400  0.24891800  0.10270000  1
  O  O0  1  0.34125300  0.24815800  0.95744600  1
  O  O1  1  0.26757600  0.76176100  0.87719700  1
  O  O2  1  0.73815300  0.95486600  0.83066200  1
  O  O3  1  0.72887400  0.55252500  0.82020400  1
  O  O4  1  0.18861500  0.03675100  0.66465200  1
  O  O5  1  0.20519600  0.45614900  0.66256900  1
  O  O6  1  0.75250600  0.26528100  0.59555900  1
  O  O7  1  0.81366400  0.74709400  0.54976100  1
  O  O8  1  0.18633600  0.25290600  0.45023900  1
  O  O9  1  0.24749400  0.73471900  0.40444100  1
  O  O10  1  0.81138500  0.96324900  0.33534800  1
  O  O11  1  0.79480400  0.54385100  0.33743100  1
  O  O12  1  0.27112600  0.44747500  0.17979600  1
  O  O13  1  0.26184700  0.04513400  0.16933800  1
  O  O14  1  0.73242400  0.23823900  0.12280300  1
  O  O15  1  0.65874700  0.75184200  0.04255400  1
loop_
_geom_bond_atom_site_label_1
_geom_bond_atom_site_label_2
_geom_bond_distance
_geom_bond_site_symmetry_2
Li0 O13 2.169158 1_555
Li0 O2 2.169158 1_444
Li0 O14 2.265871 1_455
Li0 O1 2.265871 1_544
Li0 O0 2.271330 1_554
Li0 O15 2.271330 1_445
Li1 O0 2.082416 1_555
Li1 O2 2.086261 1_545
Li1 O3 2.086683 1_555
Li1 O6 2.115339 1_555
Li1 O5 2.269101 1_555
Li1 O4 2.397029 1_555
Li2 O6 2.071828 1_555
Li2 O9 2.071828 1_555
Li2 O8 2.190316 1_555
Li2 O7 2.190316 1_555
Li2 O5 2.202518 1_555
Li2 O11 2.202518 1_555
Li3 O15 2.082416 1_555
Li3 O13 2.086261 1_565
Li3 O12 2.086683 1_555
Li3 O9 2.115339 1_555
Li3 O11 2.269101 1_555
Li3 O10 2.397029 1_555
Fe0 O4 2.006013 1_565
Fe0 O7 2.010583 1_455
Fe0 O1 2.012935 1_555
Fe0 O5 2.017329 1_555
Fe0 O3 2.080204 1_455
Fe0 O2 2.116568 1_455
Fe1 O10 2.006013 1_545
Fe1 O8 2.010583 1_655
Fe1 O14 2.012935 1_555
Fe1 O11 2.017329 1_555
Fe1 O12 2.080204 1_655
Fe1 O13 2.116568 1_655
O0 P3 1.530581 1_556
O1 P0 1.541617 1_555
O2 P0 1.582475 1_555
O3 P0 1.564452 1_555
O4 P1 1.551238 1_555
O5 P1 1.576744 1_555
O6 P1 1.521536 1_655
O7 P2 1.572632 1_555
O8 P1 1.572632 1_555
O9 P2 1.521536 1_455
O10 P2 1.551238 1_555
O11 P2 1.576744 1_555
O12 P3 1.564452 1_555
O13 P3 1.582475 1_555
O14 P3 1.541617 1_555
O15 P0 1.530581 1_554
