# generated using pymatgen
data_LiMnPO4
_symmetry_space_group_name_H-M   'P 1'
_cell_length_a   7.94657100
_cell_length_b   8.86922900
_cell_length_c   17.70286119
_cell_angle_alpha   60.54053209
_cell_angle_beta   90.00000000
_cell_angle_gamma   90.00000000
_symmetry_Int_Tables_number   1
_chemical_formula_structural   LiMnPO4
_chemical_formula_sum   'Li12 Mn12 P12 O48'
_cell_volume   1086.37447758
_cell_formula_units_Z   12
loop_
 _symmetry_equiv_pos_site_id
 _symmetry_equiv_pos_as_xyz
  1  'x, y, z'
loop_
 _atom_site_type_symbol
 _atom_site_label
 _atom_site_symmetry_multiplicity
 _atom_site_fract_x
 _atom_site_fract_y
 _atom_site_fract_z
 _atom_site_occupancy
  Li  Li0  1  0.46122400  0.20015100  0.06328500  1
  Li  Li1  1  0.54390200  0.85463000  0.40738300  1
  Li  Li2  1  0.34428600  0.50191100  0.74948700  1
  Li  Li3  1  0.84428600  0.49808900  0.75051300  1
  Li  Li4  1  0.04390200  0.14537000  0.09261700  1
  Li  Li5  1  0.96122400  0.79984900  0.43671500  1
  Li  Li6  1  0.03877600  0.20015100  0.56328500  1
  Li  Li7  1  0.95609800  0.85463000  0.90738300  1
  Li  Li8  1  0.15571400  0.50191100  0.24948700  1
  Li  Li9  1  0.65571400  0.49808900  0.25051300  1
  Li  Li10  1  0.45609800  0.14537000  0.59261700  1
  Li  Li11  1  0.53877600  0.79984900  0.93671500  1
  Mn  Mn0  1  0.76634200  0.85884000  0.59600200  1
  Mn  Mn1  1  0.72565300  0.18129700  0.22965800  1
  Mn  Mn2  1  0.77122600  0.45969600  0.92697200  1
  Mn  Mn3  1  0.27122600  0.54030400  0.57302800  1
  Mn  Mn4  1  0.22565300  0.81870300  0.27034200  1
  Mn  Mn5  1  0.26634200  0.14116000  0.90399800  1
  Mn  Mn6  1  0.73365800  0.85884000  0.09600200  1
  Mn  Mn7  1  0.77434700  0.18129700  0.72965800  1
  Mn  Mn8  1  0.72877400  0.45969600  0.42697200  1
  Mn  Mn9  1  0.22877400  0.54030400  0.07302800  1
  Mn  Mn10  1  0.27434700  0.81870300  0.77034200  1
  Mn  Mn11  1  0.23365800  0.14116000  0.40399800  1
  P  P0  1  0.17505000  0.85916000  0.59132300  1
  P  P1  1  0.32467100  0.18531300  0.22465500  1
  P  P2  1  0.17634600  0.45929700  0.92683600  1
  P  P3  1  0.67634600  0.54070300  0.57316400  1
  P  P4  1  0.82467100  0.81468700  0.27534500  1
  P  P5  1  0.67505000  0.14084000  0.90867700  1
  P  P6  1  0.32495000  0.85916000  0.09132300  1
  P  P7  1  0.17532900  0.18531300  0.72465500  1
  P  P8  1  0.32365400  0.45929700  0.42683600  1
  P  P9  1  0.82365400  0.54070300  0.07316400  1
  P  P10  1  0.67532900  0.81468700  0.77534500  1
  P  P11  1  0.82495000  0.14084000  0.40867700  1
  O  O0  1  0.98915100  0.07665400  0.38611100  1
  O  O1  1  0.86317300  0.34373200  0.12165700  1
  O  O2  1  0.71224100  0.97947300  0.46435300  1
  O  O3  1  0.76485700  0.64406000  0.79300200  1
  O  O4  1  0.29343100  0.41075800  0.00654400  1
  O  O5  1  0.48999000  0.23194700  0.17115800  1
  O  O6  1  0.36341500  0.07094800  0.32376300  1
  O  O7  1  0.27008600  0.73395400  0.67688600  1
  O  O8  1  0.01106400  0.35306600  0.96085300  1
  O  O9  1  0.13319000  0.76242900  0.53983300  1
  O  O10  1  0.26692400  0.40697500  0.86474000  1
  O  O11  1  0.20910000  0.08439600  0.19387900  1
  O  O12  1  0.76692400  0.59302500  0.63526000  1
  O  O13  1  0.70910000  0.91560400  0.30612100  1
  O  O14  1  0.63319000  0.23757100  0.96016700  1
  O  O15  1  0.51106400  0.64693400  0.53914700  1
  O  O16  1  0.77008600  0.26604600  0.82311400  1
  O  O17  1  0.86341500  0.92905200  0.17623700  1
  O  O18  1  0.98999000  0.76805300  0.32884200  1
  O  O19  1  0.26485700  0.35594000  0.70699800  1
  O  O20  1  0.79343100  0.58924200  0.49345600  1
  O  O21  1  0.21224100  0.02052700  0.03564700  1
  O  O22  1  0.36317300  0.65626800  0.37834300  1
  O  O23  1  0.48915100  0.92334600  0.11388900  1
  O  O24  1  0.51084900  0.07665400  0.88611100  1
  O  O25  1  0.63682700  0.34373200  0.62165700  1
  O  O26  1  0.78775900  0.97947300  0.96435300  1
  O  O27  1  0.20656900  0.41075800  0.50654400  1
  O  O28  1  0.73514300  0.64406000  0.29300200  1
  O  O29  1  0.01001000  0.23194700  0.67115800  1
  O  O30  1  0.13658500  0.07094800  0.82376300  1
  O  O31  1  0.22991400  0.73395400  0.17688600  1
  O  O32  1  0.48893600  0.35306600  0.46085300  1
  O  O33  1  0.36681000  0.76242900  0.03983300  1
  O  O34  1  0.29090000  0.08439600  0.69387900  1
  O  O35  1  0.23307600  0.40697500  0.36474000  1
  O  O36  1  0.79090000  0.91560400  0.80612100  1
  O  O37  1  0.73307600  0.59302500  0.13526000  1
  O  O38  1  0.86681000  0.23757100  0.46016700  1
  O  O39  1  0.98893600  0.64693400  0.03914700  1
  O  O40  1  0.72991400  0.26604600  0.32311400  1
  O  O41  1  0.63658500  0.92905200  0.67623700  1
  O  O42  1  0.51001000  0.76805300  0.82884200  1
  O  O43  1  0.70656900  0.58924200  0.99345600  1
  O  O44  1  0.23514300  0.35594000  0.20699800  1
  O  O45  1  0.28775900  0.02052700  0.53564700  1
  O  O46  1  0.13682700  0.65626800  0.87834300  1
  O  O47  1  0.01084900  0.92334600  0.61388900  1
loop_
_geom_bond_atom_site_label_1
_geom_bond_atom_site_label_2
_geom_bond_distance
_geom_bond_site_symmetry_2
Li0 O5 2.075644 1_555
Li0 O4 2.104866 1_555
Li0 O14 2.171185 1_554
Li0 O23 2.171576 1_545
Li1 O13 2.067788 1_555
Li1 O15 2.162400 1_555
Li1 O2 2.265185 1_555
Li1 O6 2.266225 1_565
Li1 O22 2.512314 1_555
Li2 O10 1.886785 1_555
Li2 O19 1.896876 1_555
Li2 O7 1.906125 1_555
Li3 O12 1.886785 1_555
Li3 O3 1.896876 1_555
Li3 O16 1.906125 1_555
Li4 O11 2.067788 1_555
Li4 O8 2.162400 1_554
Li4 O21 2.265185 1_555
Li4 O17 2.266225 1_445
Li4 O1 2.512314 1_455
Li5 O18 2.075644 1_555
Li5 O20 2.104866 1_555
Li5 O9 2.171185 1_655
Li5 O0 2.171576 1_565
Li6 O29 2.075644 1_555
Li6 O27 2.104866 1_555
Li6 O38 2.171185 1_455
Li6 O47 2.171576 1_545
Li7 O36 2.067788 1_555
Li7 O39 2.162400 1_556
Li7 O26 2.265185 1_555
Li7 O30 2.266225 1_665
Li7 O46 2.512314 1_655
Li8 O35 1.886785 1_555
Li8 O44 1.896876 1_555
Li8 O31 1.906125 1_555
Li9 O37 1.886785 1_555
Li9 O28 1.896876 1_555
Li9 O40 1.906125 1_555
Li10 O34 2.067788 1_555
Li10 O32 2.162400 1_555
Li10 O45 2.265185 1_555
Li10 O41 2.266225 1_545
Li10 O25 2.512314 1_555
Li11 O42 2.075644 1_555
Li11 O43 2.104866 1_555
Li11 O33 2.171185 1_556
Li11 O24 2.171576 1_565
Mn0 O2 2.075674 1_555
Mn0 O41 2.082914 1_555
Mn0 O47 2.093084 1_655
Mn0 O12 2.104651 1_555
Mn1 O1 2.053268 1_555
Mn1 O13 2.065214 1_545
Mn1 O5 2.079364 1_555
Mn1 O40 2.127557 1_555
Mn2 O14 2.071476 1_555
Mn2 O43 2.073522 1_555
Mn2 O8 2.080533 1_655
Mn2 O3 2.118150 1_555
Mn3 O9 2.071476 1_555
Mn3 O27 2.073522 1_555
Mn3 O15 2.080533 1_555
Mn3 O19 2.118150 1_555
Mn4 O22 2.053268 1_555
Mn4 O11 2.065214 1_565
Mn4 O18 2.079364 1_455
Mn4 O31 2.127557 1_555
Mn5 O21 2.075674 1_556
Mn5 O30 2.082914 1_555
Mn5 O24 2.093084 1_555
Mn5 O10 2.104651 1_555
Mn6 O26 2.075674 1_554
Mn6 O17 2.082914 1_555
Mn6 O23 2.093084 1_555
Mn6 O37 2.104651 1_555
Mn7 O25 2.053268 1_555
Mn7 O36 2.065214 1_545
Mn7 O29 2.079364 1_655
Mn7 O16 2.127557 1_555
Mn8 O38 2.071476 1_555
Mn8 O20 2.073522 1_555
Mn8 O32 2.080533 1_555
Mn8 O28 2.118150 1_555
Mn9 O33 2.071476 1_555
Mn9 O4 2.073522 1_555
Mn9 O39 2.080533 1_455
Mn9 O44 2.118150 1_555
Mn10 O46 2.053268 1_555
Mn10 O34 2.065214 1_565
Mn10 O42 2.079364 1_555
Mn10 O7 2.127557 1_555
Mn11 O45 2.075674 1_555
Mn11 O6 2.082914 1_555
Mn11 O0 2.093084 1_455
Mn11 O35 2.104651 1_555
O0 P11 1.552402 1_555
O1 P9 1.553183 1_555
O2 P11 1.560278 1_565
O3 P10 1.558440 1_555
O4 P2 1.563521 1_554
O5 P1 1.551948 1_555
O6 P1 1.565705 1_555
O7 P0 1.563125 1_555
O8 P2 1.554785 1_555
O9 P0 1.564216 1_555
O10 P2 1.563207 1_555
O11 P1 1.555976 1_555
O12 P3 1.563207 1_555
O13 P4 1.555976 1_555
O14 P5 1.564216 1_555
O15 P3 1.554785 1_555
O16 P5 1.563125 1_555
O17 P4 1.565705 1_555
O18 P4 1.551948 1_555
O19 P7 1.558440 1_555
O20 P3 1.563521 1_555
O21 P6 1.560278 1_545
O22 P8 1.553183 1_555
O23 P6 1.552402 1_555
O24 P5 1.552402 1_555
O25 P3 1.553183 1_555
O26 P5 1.560278 1_565
O27 P8 1.563521 1_555
O28 P4 1.558440 1_555
O29 P7 1.551948 1_555
O30 P7 1.565705 1_555
O31 P6 1.563125 1_555
O32 P8 1.554785 1_555
O33 P6 1.564216 1_555
O34 P7 1.555976 1_555
O35 P8 1.563207 1_555
O36 P10 1.555976 1_555
O37 P9 1.563207 1_555
O38 P11 1.564216 1_555
O39 P9 1.554785 1_555
O40 P11 1.563125 1_555
O41 P10 1.565705 1_555
O42 P10 1.551948 1_555
O43 P9 1.563521 1_556
O44 P1 1.558440 1_555
O45 P0 1.560278 1_545
O46 P2 1.553183 1_555
O47 P0 1.552402 1_555
