# generated using pymatgen
data_NaLi3Fe4(SiO3)8
_symmetry_space_group_name_H-M   'P 1'
_cell_length_a   5.36610100
_cell_length_b   6.60034292
_cell_length_c   25.56865966
_cell_angle_alpha   86.84573200
_cell_angle_beta   87.05604590
_cell_angle_gamma   75.34244924
_symmetry_Int_Tables_number   1
_chemical_formula_structural   NaLi3Fe4(SiO3)8
_chemical_formula_sum   'Na2 Li6 Fe8 Si16 O48'
_cell_volume   874.13694928
_cell_formula_units_Z   2
loop_
 _symmetry_equiv_pos_site_id
 _symmetry_equiv_pos_as_xyz
  1  'x, y, z'
loop_
 _atom_site_type_symbol
 _atom_site_label
 _atom_site_symmetry_multiplicity
 _atom_site_fract_x
 _atom_site_fract_y
 _atom_site_fract_z
 _atom_site_occupancy
  Na  Na0  1  0.82400000  0.70940300  0.57182400  1
  Na  Na1  1  0.07200600  0.70878000  0.82304500  1
  Li  Li0  1  0.30929500  0.74969900  0.06402500  1
  Li  Li1  1  0.93605200  0.25041900  0.18775100  1
  Li  Li2  1  0.18943700  0.25212200  0.43678900  1
  Li  Li3  1  0.56170500  0.74933900  0.31304400  1
  Li  Li4  1  0.43804200  0.25207800  0.68651600  1
  Li  Li5  1  0.68410100  0.25072800  0.93754100  1
  Fe  Fe0  1  0.47369200  0.10294900  0.22454900  1
  Fe  Fe1  1  0.77090600  0.89812800  0.02678200  1
  Fe  Fe2  1  0.02487500  0.89777500  0.27526300  1
  Fe  Fe3  1  0.72904500  0.10175700  0.47325600  1
  Fe  Fe4  1  0.27977200  0.89795700  0.52405200  1
  Fe  Fe5  1  0.97475200  0.10198900  0.72422900  1
  Fe  Fe6  1  0.21920500  0.10332400  0.97543200  1
  Fe  Fe7  1  0.52568300  0.89857700  0.77559300  1
  Si  Si0  1  0.32692900  0.20764900  0.09681800  1
  Si  Si1  1  0.78228700  0.38603900  0.05201100  1
  Si  Si2  1  0.03463900  0.38654100  0.30096400  1
  Si  Si3  1  0.46501900  0.61504400  0.19822600  1
  Si  Si4  1  0.57905000  0.20869200  0.34561700  1
  Si  Si5  1  0.91993100  0.79357300  0.15395300  1
  Si  Si6  1  0.17096300  0.79397100  0.40245900  1
  Si  Si7  1  0.30235500  0.38239200  0.55035800  1
  Si  Si8  1  0.71437300  0.61642000  0.44653700  1
  Si  Si9  1  0.84406500  0.20589500  0.59519500  1
  Si  Si10  1  0.09188100  0.20510500  0.84639500  1
  Si  Si11  1  0.40603700  0.79695900  0.65389200  1
  Si  Si12  1  0.55012600  0.38212400  0.80142300  1
  Si  Si13  1  0.95304700  0.61692700  0.69832800  1
  Si  Si14  1  0.20404000  0.61580500  0.94982100  1
  Si  Si15  1  0.65523700  0.79702500  0.90532400  1
  O  O0  1  0.39690700  0.03105100  0.05102200  1
  O  O1  1  0.85352200  0.20294600  0.00779300  1
  O  O2  1  0.03356400  0.35450200  0.08840400  1
  O  O3  1  0.32354200  0.11322800  0.15642800  1
  O  O4  1  0.53347000  0.35374200  0.08862200  1
  O  O5  1  0.69443800  0.62524100  0.02850100  1
  O  O6  1  0.10749200  0.20228400  0.25711800  1
  O  O7  1  0.21480400  0.64750600  0.16121900  1
  O  O8  1  0.64960300  0.03170100  0.29983100  1
  O  O9  1  0.55237200  0.37551600  0.22142500  1
  O  O10  1  0.71413600  0.64682700  0.16140100  1
  O  O11  1  0.92262000  0.88885200  0.09417400  1
  O  O12  1  0.28572200  0.35576100  0.33732600  1
  O  O13  1  0.57486600  0.11567400  0.40533700  1
  O  O14  1  0.39203100  0.79877400  0.24209600  1
  O  O15  1  0.78527300  0.35501100  0.33747400  1
  O  O16  1  0.94731800  0.62544100  0.27723200  1
  O  O17  1  0.84875100  0.96979900  0.19961500  1
  O  O18  1  0.36605500  0.19804900  0.50705400  1
  O  O19  1  0.17300000  0.89058300  0.34287500  1
  O  O20  1  0.46567400  0.64699200  0.40919800  1
  O  O21  1  0.90833700  0.03722600  0.54804900  1
  O  O22  1  0.80332500  0.37776200  0.47044300  1
  O  O23  1  0.96458500  0.64789300  0.40995400  1
  O  O24  1  0.05214600  0.35319700  0.58803900  1
  O  O25  1  0.22392100  0.61828400  0.52504700  1
  O  O26  1  0.10183100  0.96968200  0.44836500  1
  O  O27  1  0.55103900  0.35666800  0.58737500  1
  O  O28  1  0.83375800  0.11218700  0.65498500  1
  O  O29  1  0.64057100  0.80326300  0.48944400  1
  O  O30  1  0.15551300  0.03657500  0.79930000  1
  O  O31  1  0.04476400  0.37882900  0.72210900  1
  O  O32  1  0.20060900  0.64933100  0.66089600  1
  O  O33  1  0.61209300  0.19886600  0.75776800  1
  O  O34  1  0.40106600  0.89687500  0.59484500  1
  O  O35  1  0.70080300  0.64685700  0.66162300  1
  O  O36  1  0.08201300  0.10993400  0.90605800  1
  O  O37  1  0.30033700  0.35207200  0.83921400  1
  O  O38  1  0.47124000  0.61837300  0.77642100  1
  O  O39  1  0.34629900  0.97063100  0.70013900  1
  O  O40  1  0.79892300  0.35577300  0.83848800  1
  O  O41  1  0.88457400  0.80460300  0.74085900  1
  O  O42  1  0.29361000  0.37679100  0.97286500  1
  O  O43  1  0.45114200  0.64812200  0.91233100  1
  O  O44  1  0.64992500  0.89638600  0.84618800  1
  O  O45  1  0.95073000  0.64823200  0.91326100  1
  O  O46  1  0.13594500  0.80010700  0.99335500  1
  O  O47  1  0.59319100  0.97081100  0.95142300  1
loop_
_geom_bond_atom_site_label_1
_geom_bond_atom_site_label_2
_geom_bond_distance
_geom_bond_site_symmetry_2
Na0 O34 2.355838 1_555
Na0 O29 2.355863 1_555
Na0 O25 2.357945 1_655
Na0 O21 2.361926 1_565
Na0 O24 2.384632 1_655
Na0 O35 2.399407 1_555
Na1 O38 2.352823 1_555
Na1 O44 2.353077 1_455
Na1 O30 2.359776 1_565
Na1 O41 2.361426 1_455
Na1 O37 2.387537 1_555
Na1 O45 2.404179 1_455
Li0 O0 2.034188 1_565
Li0 O46 2.047164 1_554
Li0 O11 2.166177 1_455
Li0 O5 2.191170 1_555
Li1 O6 2.012629 1_655
Li1 O17 2.026024 1_545
Li1 O9 2.167446 1_555
Li1 O3 2.177333 1_655
Li2 O26 2.037731 1_545
Li2 O18 2.046086 1_555
Li2 O13 2.168330 1_555
Li2 O22 2.178719 1_455
Li3 O8 2.041848 1_565
Li3 O14 2.044598 1_555
Li3 O19 2.175386 1_555
Li3 O16 2.195529 1_555
Li4 O39 2.046593 1_545
Li4 O33 2.062290 1_555
Li4 O28 2.219319 1_555
Li4 O31 2.230422 1_555
Li5 O1 2.028001 1_556
Li5 O47 2.035577 1_545
Li5 O42 2.214672 1_555
Li5 O36 2.229882 1_655
Fe0 O9 1.945839 1_555
Fe0 O3 1.947051 1_555
Fe0 O6 2.055429 1_555
Fe0 O17 2.064970 1_545
Fe0 O8 2.163251 1_555
Fe0 O14 2.179430 1_545
Fe1 O11 1.934668 1_555
Fe1 O5 1.943684 1_555
Fe1 O0 2.054887 1_565
Fe1 O46 2.057575 1_654
Fe1 O47 2.169729 1_554
Fe1 O1 2.191303 1_565
Fe2 O19 1.932779 1_555
Fe2 O16 1.942477 1_455
Fe2 O8 2.064333 1_465
Fe2 O14 2.065345 1_555
Fe2 O17 2.172466 1_455
Fe2 O6 2.185985 1_565
Fe3 O13 1.949427 1_555
Fe3 O22 1.957769 1_555
Fe3 O18 2.050813 1_555
Fe3 O26 2.052891 1_645
Fe3 O29 2.154460 1_545
Fe3 O21 2.157805 1_555
Fe4 O25 1.942160 1_555
Fe4 O34 1.953799 1_555
Fe4 O29 2.048063 1_555
Fe4 O21 2.050206 1_465
Fe4 O18 2.162218 1_565
Fe4 O26 2.177414 1_555
Fe5 O28 1.951986 1_555
Fe5 O31 1.953793 1_655
Fe5 O39 2.040583 1_645
Fe5 O33 2.047094 1_555
Fe5 O41 2.153010 1_545
Fe5 O30 2.167884 1_655
Fe6 O42 1.941815 1_555
Fe6 O36 1.949257 1_555
Fe6 O1 2.051265 1_456
Fe6 O47 2.052681 1_545
Fe6 O0 2.174845 1_556
Fe6 O46 2.178423 1_545
Fe7 O38 1.942867 1_555
Fe7 O44 1.954136 1_555
Fe7 O41 2.040279 1_555
Fe7 O30 2.040627 1_565
Fe7 O33 2.166812 1_565
Fe7 O39 2.175523 1_555
O0 Si0 1.659602 1_555
O1 Si1 1.660411 1_555
O2 Si1 1.640988 1_455
O2 Si0 1.644263 1_555
O3 Si0 1.615582 1_555
O4 Si0 1.642210 1_555
O4 Si1 1.642593 1_555
O5 Si1 1.619948 1_555
O6 Si2 1.659251 1_555
O7 Si5 1.645046 1_455
O7 Si3 1.645182 1_555
O8 Si4 1.661230 1_555
O9 Si3 1.619056 1_555
O10 Si5 1.641136 1_555
O10 Si3 1.645736 1_555
O11 Si5 1.621251 1_555
O12 Si2 1.640226 1_555
O12 Si4 1.644126 1_555
O13 Si4 1.615343 1_555
O14 Si3 1.657226 1_555
O15 Si4 1.641856 1_555
O15 Si2 1.642123 1_655
O16 Si2 1.619912 1_655
O17 Si5 1.655509 1_555
O18 Si7 1.649883 1_555
O19 Si6 1.619460 1_555
O20 Si6 1.644676 1_555
O20 Si8 1.645169 1_555
O21 Si9 1.649887 1_555
O22 Si8 1.620580 1_555
O23 Si6 1.640431 1_655
O23 Si8 1.646692 1_555
O24 Si9 1.653581 1_455
O24 Si7 1.657017 1_555
O25 Si7 1.614179 1_555
O26 Si6 1.657616 1_555
O27 Si7 1.644026 1_555
O27 Si9 1.649624 1_555
O28 Si9 1.620881 1_555
O29 Si8 1.654798 1_555
O30 Si10 1.648293 1_555
O31 Si13 1.617344 1_455
O32 Si11 1.643411 1_555
O32 Si13 1.648387 1_455
O33 Si12 1.651189 1_555
O34 Si11 1.612651 1_555
O35 Si13 1.651274 1_555
O35 Si11 1.655301 1_555
O36 Si10 1.620997 1_555
O37 Si10 1.653594 1_555
O37 Si12 1.658339 1_555
O38 Si12 1.613502 1_555
O39 Si11 1.655072 1_555
O40 Si12 1.644723 1_555
O40 Si10 1.649390 1_655
O41 Si13 1.651931 1_555
O42 Si14 1.615543 1_555
O43 Si15 1.643979 1_555
O43 Si14 1.647009 1_555
O44 Si15 1.613375 1_555
O45 Si14 1.651838 1_655
O45 Si15 1.656193 1_555
O46 Si14 1.653654 1_555
O47 Si15 1.652598 1_555
