# generated using pymatgen
data_LiLa20Cu9O40
_symmetry_space_group_name_H-M   'P 1'
_cell_length_a   8.95596200
_cell_length_b   10.37588342
_cell_length_c   11.71472292
_cell_angle_alpha   100.33086830
_cell_angle_beta   109.26689700
_cell_angle_gamma   103.36471582
_symmetry_Int_Tables_number   1
_chemical_formula_structural   LiLa20Cu9O40
_chemical_formula_sum   'Li1 La20 Cu9 O40'
_cell_volume   960.30205874
_cell_formula_units_Z   1
loop_
 _symmetry_equiv_pos_site_id
 _symmetry_equiv_pos_as_xyz
  1  'x, y, z'
loop_
 _atom_site_type_symbol
 _atom_site_label
 _atom_site_symmetry_multiplicity
 _atom_site_fract_x
 _atom_site_fract_y
 _atom_site_fract_z
 _atom_site_occupancy
  Li  Li0  1  0.50000000  0.50000000  0.50000000  1
  La  La0  1  0.27672200  0.78401800  0.71055600  1
  La  La1  1  0.07703300  0.38592200  0.91067500  1
  La  La2  1  0.12359000  0.01445600  0.88914800  1
  La  La3  1  0.32576900  0.41529800  0.68484900  1
  La  La4  1  0.92296700  0.61407800  0.08932500  1
  La  La5  1  0.70669500  0.70518300  0.77460000  1
  La  La6  1  0.50830600  0.30989900  0.97912200  1
  La  La7  1  0.11481100  0.50897400  0.38070300  1
  La  La8  1  0.90746000  0.10936000  0.57872200  1
  La  La9  1  0.30978900  0.91066800  0.18027800  1
  La  La10  1  0.49169400  0.69010100  0.02087800  1
  La  La11  1  0.29330500  0.29481700  0.22540000  1
  La  La12  1  0.09254000  0.89064000  0.42127800  1
  La  La13  1  0.88518900  0.49102600  0.61929700  1
  La  La14  1  0.69021100  0.08933200  0.81972200  1
  La  La15  1  0.67423100  0.58470200  0.31515100  1
  La  La16  1  0.87641000  0.98554400  0.11085200  1
  La  La17  1  0.47739400  0.19154200  0.51167200  1
  La  La18  1  0.52260600  0.80845800  0.48832800  1
  La  La19  1  0.72327800  0.21598200  0.28944400  1
  Cu  Cu0  1  0.29954300  0.09934600  0.69973900  1
  Cu  Cu1  1  0.10021100  0.69971600  0.90048800  1
  Cu  Cu2  1  0.90072300  0.79989300  0.60057400  1
  Cu  Cu3  1  0.29927300  0.60025000  0.19962300  1
  Cu  Cu4  1  0.70072700  0.39975000  0.80037700  1
  Cu  Cu5  1  0.09927700  0.20010700  0.39942600  1
  Cu  Cu6  1  0.50000000  0.00000000  0.00000000  1
  Cu  Cu7  1  0.70045700  0.90065400  0.30026100  1
  Cu  Cu8  1  0.89978900  0.30028400  0.09951200  1
  O  O0  1  0.09189200  0.95472900  0.65456600  1
  O  O1  1  0.99484400  0.75710900  0.75490000  1
  O  O2  1  0.18521100  0.54320500  0.76999900  1
  O  O3  1  0.98158500  0.14134500  0.96924200  1
  O  O4  1  0.41528400  0.65288700  0.62524800  1
  O  O5  1  0.21573200  0.25542300  0.83049200  1
  O  O6  1  0.01841500  0.85865500  0.03075800  1
  O  O7  1  0.10452600  0.44316500  0.14439800  1
  O  O8  1  0.40488200  0.04223800  0.84535600  1
  O  O9  1  0.00515600  0.24289100  0.24510000  1
  O  O10  1  0.20703700  0.64239000  0.04670700  1
  O  O11  1  0.60645600  0.44324600  0.64707600  1
  O  O12  1  0.90810800  0.04527100  0.34543400  1
  O  O13  1  0.30687200  0.84374100  0.94542200  1
  O  O14  1  0.50465000  0.24250400  0.74462100  1
  O  O15  1  0.76138500  0.94009900  0.69288400  1
  O  O16  1  0.36185200  0.14059900  0.09477300  1
  O  O17  1  0.95714600  0.33897200  0.49266800  1
  O  O18  1  0.56102300  0.53920400  0.89407900  1
  O  O19  1  0.16021700  0.74104400  0.29192400  1
  O  O20  1  0.04285400  0.66102800  0.50733200  1
  O  O21  1  0.43897700  0.46079600  0.10592100  1
  O  O22  1  0.83978300  0.25895600  0.70807600  1
  O  O23  1  0.23861500  0.05990100  0.30711600  1
  O  O24  1  0.63814800  0.85940100  0.90522700  1
  O  O25  1  0.89547400  0.55683500  0.85560200  1
  O  O26  1  0.49535000  0.75749600  0.25537900  1
  O  O27  1  0.69312800  0.15625900  0.05457800  1
  O  O28  1  0.39354400  0.55675400  0.35292400  1
  O  O29  1  0.59511800  0.95776200  0.15464400  1
  O  O30  1  0.29202400  0.35462200  0.45366700  1
  O  O31  1  0.19467200  0.15700700  0.55545800  1
  O  O32  1  0.79296300  0.35761000  0.95329300  1
  O  O33  1  0.78426800  0.74457700  0.16950800  1
  O  O34  1  0.38290500  0.93899800  0.57152300  1
  O  O35  1  0.58471600  0.34711300  0.37475200  1
  O  O36  1  0.81478900  0.45679500  0.23000100  1
  O  O37  1  0.61709500  0.06100200  0.42847700  1
  O  O38  1  0.70797600  0.64537800  0.54633300  1
  O  O39  1  0.80532800  0.84299300  0.44454200  1
loop_
_geom_bond_atom_site_label_1
_geom_bond_atom_site_label_2
_geom_bond_distance
_geom_bond_site_symmetry_2
Li0 O28 1.940032 1_555
Li0 O11 1.940032 1_555
Li0 O30 1.944118 1_555
Li0 O38 1.944118 1_555
Li0 O35 2.387714 1_555
Li0 O4 2.387714 1_555
La0 O4 2.345470 1_555
La0 O20 2.463174 1_555
La0 O13 2.616849 1_555
La0 O8 2.618061 1_565
La0 O1 2.704160 1_455
La0 O0 2.713560 1_555
La0 O34 2.719843 1_555
La0 O2 2.730173 1_555
La0 O24 3.099742 1_555
La1 O5 2.313047 1_555
La1 O22 2.477848 1_455
La1 O10 2.607429 1_556
La1 O7 2.610413 1_556
La1 O25 2.693731 1_455
La1 O32 2.711722 1_455
La1 O2 2.757732 1_555
La1 O3 2.765873 1_455
La1 O21 3.106168 1_556
La2 O3 2.312949 1_455
La2 O16 2.500969 1_556
La2 O1 2.608943 1_445
La2 O0 2.609503 1_545
La2 O8 2.695008 1_555
La2 O13 2.704704 1_545
La2 O5 2.727809 1_555
La2 O6 2.746219 1_546
La2 O15 3.112728 1_445
La3 O2 2.338207 1_555
La3 O18 2.511815 1_555
La3 O30 2.565655 1_555
La3 O31 2.602374 1_555
La3 O11 2.653736 1_555
La3 O4 2.698238 1_555
La3 O14 2.703543 1_555
La3 O5 2.828948 1_555
La3 O17 3.137137 1_455
La4 O33 2.313047 1_555
La4 O19 2.477848 1_655
La4 O32 2.607429 1_554
La4 O25 2.610413 1_554
La4 O7 2.693731 1_655
La4 O10 2.711722 1_655
La4 O36 2.757732 1_555
La4 O6 2.765873 1_655
La4 O18 3.106168 1_554
La5 O24 2.339851 1_555
La5 O4 2.481602 1_555
La5 O25 2.606982 1_555
La5 O1 2.607327 1_555
La5 O11 2.637236 1_555
La5 O38 2.638997 1_555
La5 O18 2.767301 1_555
La5 O15 2.773427 1_555
La5 O6 3.168094 1_656
La6 O21 2.295062 1_556
La6 O5 2.483639 1_555
La6 O32 2.610612 1_555
La6 O27 2.611944 1_556
La6 O14 2.697733 1_555
La6 O8 2.705268 1_555
La6 O18 2.741803 1_555
La6 O16 2.757328 1_556
La6 O36 3.103292 1_556
La7 O20 2.316567 1_555
La7 O36 2.546346 1_455
La7 O30 2.566174 1_555
La7 O28 2.570048 1_555
La7 O9 2.693366 1_555
La7 O7 2.694925 1_555
La7 O17 2.779622 1_455
La7 O19 2.787432 1_555
La7 O4 3.032946 1_555
La8 O22 2.295733 1_555
La8 O37 2.484285 1_555
La8 O31 2.618830 1_655
La8 O0 2.619138 1_645
La8 O39 2.696351 1_545
La8 O12 2.696560 1_555
La8 O15 2.742135 1_545
La8 O17 2.749106 1_555
La8 O5 3.115591 1_655
La9 O23 2.295191 1_565
La9 O6 2.482420 1_555
La9 O26 2.611389 1_555
La9 O29 2.615489 1_555
La9 O13 2.703950 1_554
La9 O10 2.710554 1_555
La9 O19 2.737615 1_555
La9 O16 2.750193 1_565
La9 O37 3.093462 1_565
La10 O18 2.295062 1_554
La10 O33 2.483639 1_555
La10 O10 2.610612 1_555
La10 O13 2.611944 1_554
La10 O26 2.697733 1_555
La10 O29 2.705268 1_555
La10 O21 2.741803 1_555
La10 O24 2.757328 1_554
La10 O2 3.103292 1_554
La11 O16 2.339851 1_555
La11 O35 2.481602 1_555
La11 O7 2.606982 1_555
La11 O9 2.607327 1_555
La11 O28 2.637236 1_555
La11 O30 2.638997 1_555
La11 O21 2.767301 1_555
La11 O23 2.773427 1_555
La11 O3 3.168094 1_454
La12 O19 2.295733 1_555
La12 O34 2.484285 1_555
La12 O39 2.618830 1_455
La12 O12 2.619138 1_465
La12 O31 2.696351 1_565
La12 O0 2.696560 1_555
La12 O23 2.742135 1_565
La12 O20 2.749106 1_555
La12 O33 3.115591 1_455
La13 O17 2.316567 1_555
La13 O2 2.546346 1_655
La13 O38 2.566174 1_555
La13 O11 2.570048 1_555
La13 O1 2.693366 1_555
La13 O25 2.694925 1_555
La13 O20 2.779622 1_655
La13 O22 2.787432 1_555
La13 O35 3.032946 1_555
La14 O15 2.295191 1_545
La14 O3 2.482420 1_555
La14 O14 2.611389 1_555
La14 O8 2.615489 1_555
La14 O27 2.703950 1_556
La14 O32 2.710554 1_555
La14 O22 2.737615 1_555
La14 O24 2.750193 1_545
La14 O34 3.093462 1_545
La15 O36 2.338207 1_555
La15 O21 2.511815 1_555
La15 O38 2.565655 1_555
La15 O39 2.602374 1_555
La15 O28 2.653736 1_555
La15 O35 2.698238 1_555
La15 O26 2.703543 1_555
La15 O33 2.828948 1_555
La15 O20 3.137137 1_655
La16 O6 2.312949 1_655
La16 O24 2.500969 1_554
La16 O9 2.608943 1_665
La16 O12 2.609503 1_565
La16 O29 2.695008 1_555
La16 O27 2.704704 1_565
La16 O33 2.727809 1_555
La16 O3 2.746219 1_564
La16 O23 3.112728 1_665
La17 O37 2.337632 1_555
La17 O23 2.504995 1_555
La17 O11 2.565445 1_555
La17 O14 2.601813 1_555
La17 O30 2.654746 1_555
La17 O31 2.703030 1_555
La17 O35 2.707581 1_555
La17 O34 2.845949 1_545
La17 O22 3.124392 1_555
La18 O34 2.337632 1_555
La18 O15 2.504995 1_555
La18 O28 2.565445 1_555
La18 O26 2.601813 1_555
La18 O38 2.654746 1_555
La18 O39 2.703030 1_555
La18 O4 2.707581 1_555
La18 O37 2.845949 1_565
La18 O19 3.124392 1_555
La19 O35 2.345470 1_555
La19 O17 2.463174 1_555
La19 O27 2.616849 1_555
La19 O29 2.618061 1_545
La19 O9 2.704160 1_655
La19 O12 2.713560 1_555
La19 O37 2.719843 1_555
La19 O36 2.730173 1_555
La19 O16 3.099742 1_555
Cu0 O31 1.916174 1_555
Cu0 O14 1.917874 1_555
Cu0 O8 1.926140 1_555
Cu0 O0 1.940573 1_545
Cu0 O5 2.441971 1_555
Cu0 O34 2.449387 1_545
Cu1 O25 1.914137 1_455
Cu1 O1 1.927659 1_455
Cu1 O13 1.931881 1_555
Cu1 O10 1.936546 1_556
Cu1 O6 2.445162 1_556
Cu1 O2 2.450011 1_555
Cu2 O0 1.887243 1_655
Cu2 O38 1.893490 1_555
Cu2 O1 1.905572 1_555
Cu2 O39 1.926199 1_555
Cu2 O15 2.451241 1_555
Cu2 O20 2.467892 1_655
Cu3 O10 1.885178 1_555
Cu3 O28 1.899449 1_555
Cu3 O7 1.918356 1_555
Cu3 O26 1.925789 1_555
Cu3 O19 2.453051 1_555
Cu3 O21 2.457178 1_555
Cu4 O32 1.885178 1_555
Cu4 O11 1.899449 1_555
Cu4 O25 1.918356 1_555
Cu4 O14 1.925789 1_555
Cu4 O22 2.453051 1_555
Cu4 O18 2.457178 1_555
Cu5 O12 1.887243 1_455
Cu5 O30 1.893490 1_555
Cu5 O9 1.905572 1_555
Cu5 O31 1.926199 1_555
Cu5 O23 2.451241 1_555
Cu5 O17 2.467892 1_455
Cu6 O27 1.905551 1_555
Cu6 O13 1.905551 1_544
Cu6 O8 1.907509 1_554
Cu6 O29 1.907509 1_545
Cu6 O16 2.460010 1_555
Cu6 O24 2.460010 1_544
Cu7 O39 1.916174 1_555
Cu7 O26 1.917874 1_555
Cu7 O29 1.926140 1_555
Cu7 O12 1.940573 1_565
Cu7 O33 2.441971 1_555
Cu7 O37 2.449387 1_565
Cu8 O7 1.914137 1_655
Cu8 O9 1.927659 1_655
Cu8 O27 1.931881 1_555
Cu8 O32 1.936546 1_554
Cu8 O3 2.445162 1_554
Cu8 O36 2.450011 1_555
