# generated using pymatgen
data_KLi(WO3)3
_symmetry_space_group_name_H-M   'P 1'
_cell_length_a   7.58282493
_cell_length_b   7.64889727
_cell_length_c   7.91890251
_cell_angle_alpha   90.23726823
_cell_angle_beta   89.84257259
_cell_angle_gamma   120.08029728
_symmetry_Int_Tables_number   1
_chemical_formula_structural   KLi(WO3)3
_chemical_formula_sum   'K2 Li2 W6 O18'
_cell_volume   397.43824958
_cell_formula_units_Z   2
loop_
 _symmetry_equiv_pos_site_id
 _symmetry_equiv_pos_as_xyz
  1  'x, y, z'
loop_
 _atom_site_type_symbol
 _atom_site_label
 _atom_site_symmetry_multiplicity
 _atom_site_fract_x
 _atom_site_fract_y
 _atom_site_fract_z
 _atom_site_occupancy
  K  K0  1  0.00786300  0.00382700  0.26917300  1
  K  K1  1  0.00318700  0.99593700  0.76764300  1
  Li  Li0  1  0.40708800  0.70061300  0.25038300  1
  Li  Li1  1  0.70105800  0.30299100  0.74928400  1
  W  W0  1  0.00498900  0.50177200  0.49817300  1
  W  W1  1  0.00465400  0.50286900  0.00211900  1
  W  W2  1  0.50274300  0.49782800  0.50154300  1
  W  W3  1  0.50118800  0.49641700  0.99776300  1
  W  W4  1  0.49875200  0.99958600  0.00013000  1
  W  W5  1  0.49794700  0.99993600  0.50018100  1
  O  O0  1  0.00177500  0.50218700  0.74991600  1
  O  O1  1  0.21201600  0.79182400  0.00614200  1
  O  O2  1  0.21552500  0.79537900  0.49270900  1
  O  O3  1  0.21414300  0.42277300  0.49577500  1
  O  O4  1  0.50006700  0.99696600  0.74590000  1
  O  O5  1  0.21749900  0.42337500  0.00424500  1
  O  O6  1  0.57362700  0.78220600  0.01329200  1
  O  O7  1  0.57361600  0.79095100  0.48650100  1
  O  O8  1  0.50379200  0.50270400  0.75441400  1
  O  O9  1  0.49960100  0.49572100  0.24629600  1
  O  O10  1  0.41962500  0.21360200  0.99140500  1
  O  O11  1  0.42000300  0.20443500  0.50832800  1
  O  O12  1  0.78855700  0.57655000  0.50426000  1
  O  O13  1  0.50144700  0.00288300  0.25361100  1
  O  O14  1  0.78441100  0.57624900  0.99534900  1
  O  O15  1  0.78545800  0.21312000  0.98826900  1
  O  O16  1  0.78181200  0.20877900  0.51122100  1
  O  O17  1  0.00239300  0.49852000  0.24975800  1
loop_
_geom_bond_atom_site_label_1
_geom_bond_atom_site_label_2
_geom_bond_distance
_geom_bond_site_symmetry_2
K0 O2 3.272700 1_545
K0 O3 3.298271 1_555
K0 O11 3.302931 1_555
K0 O7 3.327645 1_445
K1 O10 3.258746 1_565
K1 O14 3.316888 1_455
K1 O1 3.321307 1_556
K1 O15 3.353694 1_465
Li0 O9 2.012660 1_555
Li0 O13 2.049248 1_565
Li0 O7 2.166969 1_555
Li0 O6 2.171610 1_555
Li1 O0 2.009584 1_655
Li1 O4 2.055777 1_545
Li1 O16 2.207480 1_555
Li1 O15 2.218584 1_555
O0 W0 1.993619 1_555
O0 W1 1.997307 1_556
O1 W4 1.947189 1_555
O1 W1 1.968333 1_555
O2 W5 1.918044 1_555
O2 W0 2.000120 1_555
O3 W0 1.959901 1_555
O3 W2 1.965126 1_555
O4 W5 1.946256 1_555
O4 W4 2.013286 1_556
O5 W3 1.933173 1_554
O5 W1 1.989688 1_555
O6 W3 1.972259 1_554
O6 W4 2.011450 1_555
O7 W5 1.952903 1_555
O7 W2 2.030735 1_555
O8 W3 1.927656 1_555
O8 W2 2.002617 1_555
O9 W3 1.968125 1_554
O9 W2 2.021384 1_555
O10 W3 1.929430 1_555
O10 W4 2.007550 1_546
O11 W5 1.930252 1_545
O11 W2 2.005511 1_555
O12 W2 1.937036 1_555
O12 W0 1.990781 1_655
O13 W5 1.952741 1_545
O13 W4 2.007377 1_545
O14 W3 1.915942 1_555
O14 W1 2.011816 1_656
O15 W4 1.960515 1_546
O15 W1 1.998211 1_656
O16 W5 1.935390 1_545
O16 W0 2.023899 1_655
O17 W1 1.961331 1_555
O17 W0 1.967256 1_555
