# generated using pymatgen
data_KLi(WO3)6
_symmetry_space_group_name_H-M   'P 1'
_cell_length_a   7.53365233
_cell_length_b   7.53365233
_cell_length_c   7.76985718
_cell_angle_alpha   89.98943359
_cell_angle_beta   89.98943359
_cell_angle_gamma   60.28941259
_symmetry_Int_Tables_number   1
_chemical_formula_structural   KLi(WO3)6
_chemical_formula_sum   'K1 Li1 W6 O18'
_cell_volume   383.01340266
_cell_formula_units_Z   1
loop_
 _symmetry_equiv_pos_site_id
 _symmetry_equiv_pos_as_xyz
  1  'x, y, z'
loop_
 _atom_site_type_symbol
 _atom_site_label
 _atom_site_symmetry_multiplicity
 _atom_site_fract_x
 _atom_site_fract_y
 _atom_site_fract_z
 _atom_site_occupancy
  K  K0  1  0.00005300  0.00005300  0.73331500  1
  Li  Li0  1  0.29625700  0.29625700  0.24920500  1
  W  W0  1  0.50774100  0.99624900  0.50198300  1
  W  W1  1  0.49759800  0.99494300  0.99740000  1
  W  W2  1  0.49934700  0.49934700  0.50044500  1
  W  W3  1  0.49929500  0.49929500  0.99955900  1
  W  W4  1  0.99494300  0.49759800  0.99740000  1
  W  W5  1  0.99624900  0.50774100  0.50198300  1
  O  O0  1  0.50457300  0.99251000  0.24997800  1
  O  O1  1  0.78843000  0.78843000  0.98991200  1
  O  O2  1  0.78872300  0.78872300  0.51010500  1
  O  O3  1  0.42512100  0.78906600  0.50851900  1
  O  O4  1  0.99251000  0.50457300  0.24997800  1
  O  O5  1  0.42494400  0.78504300  0.99124100  1
  O  O6  1  0.78504300  0.42494400  0.99124100  1
  O  O7  1  0.78906600  0.42512100  0.50851900  1
  O  O8  1  0.50285800  0.50285800  0.25020300  1
  O  O9  1  0.49424300  0.49424300  0.74986400  1
  O  O10  1  0.21484900  0.57208000  0.00638900  1
  O  O11  1  0.21097600  0.57329800  0.49393100  1
  O  O12  1  0.57329800  0.21097600  0.49393100  1
  O  O13  1  0.01008900  0.49375200  0.75001100  1
  O  O14  1  0.57208000  0.21484900  0.00638900  1
  O  O15  1  0.21571600  0.21571600  0.01122800  1
  O  O16  1  0.21556400  0.21556400  0.48892800  1
  O  O17  1  0.49375200  0.01008900  0.75001100  1
loop_
_geom_bond_atom_site_label_1
_geom_bond_atom_site_label_2
_geom_bond_distance
_geom_bond_site_symmetry_2
K0 O2 3.254517 1_445
K0 O3 3.284134 1_545
K0 O7 3.284134 1_455
K0 O11 3.355298 1_545
K0 O12 3.355298 1_455
K0 O16 3.389447 1_555
K0 O1 3.402298 1_445
K0 O5 3.427520 1_545
K0 O6 3.427520 1_455
Li0 O4 2.034608 1_455
Li0 O0 2.034608 1_545
Li0 O15 2.126283 1_555
Li0 O16 2.138675 1_555
O0 W0 1.958571 1_555
O0 W1 1.963047 1_554
O1 W4 1.961007 1_555
O1 W1 1.961007 1_555
O2 W0 1.910166 1_555
O2 W5 1.910166 1_555
O3 W0 1.946586 1_555
O3 W2 1.967428 1_555
O4 W5 1.958571 1_555
O4 W4 1.963047 1_554
O5 W1 1.913223 1_555
O5 W3 1.938264 1_555
O6 W4 1.913223 1_555
O6 W3 1.938264 1_555
O7 W5 1.946586 1_555
O7 W2 1.967428 1_555
O8 W2 1.944873 1_555
O8 W3 1.948031 1_554
O9 W2 1.939077 1_555
O9 W3 1.941225 1_555
O10 W3 1.931530 1_554
O10 W4 1.996471 1_454
O11 W5 1.912228 1_455
O11 W2 1.957790 1_555
O12 W0 1.912228 1_545
O12 W2 1.957790 1_555
O13 W4 1.924912 1_455
O13 W5 1.930016 1_455
O14 W3 1.931530 1_554
O14 W1 1.996471 1_544
O15 W1 1.945879 1_544
O15 W4 1.945879 1_454
O16 W5 1.995078 1_455
O16 W0 1.995078 1_545
O17 W1 1.924912 1_545
O17 W0 1.930016 1_545
