# generated using pymatgen
data_LiVF4
_symmetry_space_group_name_H-M   'P 1'
_cell_length_a   4.59372800
_cell_length_b   4.95880800
_cell_length_c   11.68201000
_cell_angle_alpha   90.00000000
_cell_angle_beta   90.00000000
_cell_angle_gamma   90.00000000
_symmetry_Int_Tables_number   1
_chemical_formula_structural   LiVF4
_chemical_formula_sum   'Li4 V4 F16'
_cell_volume   266.10935565
_cell_formula_units_Z   4
loop_
 _symmetry_equiv_pos_site_id
 _symmetry_equiv_pos_as_xyz
  1  'x, y, z'
loop_
 _atom_site_type_symbol
 _atom_site_label
 _atom_site_symmetry_multiplicity
 _atom_site_fract_x
 _atom_site_fract_y
 _atom_site_fract_z
 _atom_site_occupancy
  Li  Li0  1  0.00000000  0.25000000  0.05413800  1
  Li  Li1  1  0.00000000  0.75000000  0.94586200  1
  Li  Li2  1  0.50000000  0.25000000  0.55413800  1
  Li  Li3  1  0.50000000  0.75000000  0.44586200  1
  V  V0  1  0.00000000  0.25000000  0.32089500  1
  V  V1  1  0.00000000  0.75000000  0.67910500  1
  V  V2  1  0.50000000  0.25000000  0.82089500  1
  V  V3  1  0.50000000  0.75000000  0.17910500  1
  F  F0  1  0.22903300  0.42153300  0.19239100  1
  F  F1  1  0.22903300  0.92153300  0.80760900  1
  F  F2  1  0.24985700  0.91532800  0.06781900  1
  F  F3  1  0.24985700  0.41532800  0.93218100  1
  F  F4  1  0.25014300  0.91532800  0.56781900  1
  F  F5  1  0.25014300  0.41532800  0.43218100  1
  F  F6  1  0.27096700  0.92153300  0.30760900  1
  F  F7  1  0.27096700  0.42153300  0.69239100  1
  F  F8  1  0.72903300  0.07846700  0.69239100  1
  F  F9  1  0.72903300  0.57846700  0.30760900  1
  F  F10  1  0.74985700  0.08467200  0.43218100  1
  F  F11  1  0.74985700  0.58467200  0.56781900  1
  F  F12  1  0.75014300  0.58467200  0.06781900  1
  F  F13  1  0.75014300  0.08467200  0.93218100  1
  F  F14  1  0.77096700  0.07846700  0.19239100  1
  F  F15  1  0.77096700  0.57846700  0.80760900  1
loop_
_geom_bond_atom_site_label_1
_geom_bond_atom_site_label_2
_geom_bond_distance
_geom_bond_site_symmetry_2
F0 V0 2.020896 1_555
F0 V3 2.055844 1_555
F0 Li0 2.106876 1_555
F1 V1 2.020896 1_555
F1 V2 2.055844 1_565
F1 Li1 2.106876 1_555
F2 V3 1.919021 1_555
F2 Li1 2.004816 1_554
F2 Li0 2.024134 1_565
F3 V2 1.919021 1_555
F3 Li0 2.004816 1_556
F3 Li1 2.024134 1_555
F4 V1 1.919021 1_555
F4 Li3 2.004816 1_555
F4 Li2 2.024134 1_565
F5 V0 1.919021 1_555
F5 Li2 2.004816 1_555
F5 Li3 2.024134 1_555
F6 V3 2.020896 1_555
F6 V0 2.055844 1_565
F6 Li3 2.106876 1_555
F7 V2 2.020896 1_555
F7 V1 2.055844 1_555
F7 Li2 2.106876 1_555
F8 V2 2.020896 1_555
F8 V1 2.055844 1_645
F8 Li2 2.106876 1_555
F9 V3 2.020896 1_555
F9 V0 2.055844 1_655
F9 Li3 2.106876 1_555
F10 V0 1.919021 1_655
F10 Li2 2.004816 1_555
F10 Li3 2.024134 1_545
F11 V1 1.919021 1_655
F11 Li3 2.004816 1_555
F11 Li2 2.024134 1_555
F12 V3 1.919021 1_555
F12 Li1 2.004816 1_654
F12 Li0 2.024134 1_655
F13 V2 1.919021 1_555
F13 Li0 2.004816 1_656
F13 Li1 2.024134 1_645
F14 V0 2.020896 1_655
F14 V3 2.055844 1_545
F14 Li0 2.106876 1_655
F15 V1 2.020896 1_655
F15 V2 2.055844 1_555
F15 Li1 2.106876 1_655
