# generated using pymatgen
data_Li3V3P8O29
_symmetry_space_group_name_H-M   'P 1'
_cell_length_a   9.76514032
_cell_length_b   9.76514032
_cell_length_c   14.35830078
_cell_angle_alpha   89.44053795
_cell_angle_beta   89.44053795
_cell_angle_gamma   60.33746669
_symmetry_Int_Tables_number   1
_chemical_formula_structural   Li3V3P8O29
_chemical_formula_sum   'Li6 V6 P16 O58'
_cell_volume   1189.67892455
_cell_formula_units_Z   2
loop_
 _symmetry_equiv_pos_site_id
 _symmetry_equiv_pos_as_xyz
  1  'x, y, z'
loop_
 _atom_site_type_symbol
 _atom_site_label
 _atom_site_symmetry_multiplicity
 _atom_site_fract_x
 _atom_site_fract_y
 _atom_site_fract_z
 _atom_site_occupancy
  Li  Li0  1  0.91809200  0.29788500  0.19658800  1
  Li  Li1  1  0.30755200  0.91891000  0.68403300  1
  Li  Li2  1  0.30723000  0.77703700  0.20077200  1
  Li  Li3  1  0.70211500  0.08190800  0.80341200  1
  Li  Li4  1  0.22296300  0.69277000  0.79922800  1
  Li  Li5  1  0.08109000  0.69244800  0.31596700  1
  V  V0  1  0.57349900  0.42650100  0.50000000  1
  V  V1  1  0.43762700  0.56237300  0.00000000  1
  V  V2  1  0.56941600  0.99405300  0.00601600  1
  V  V3  1  0.43096700  0.00605600  0.49182300  1
  V  V4  1  0.99394400  0.56903300  0.50817700  1
  V  V5  1  0.00594700  0.43058400  0.99398400  1
  P  P0  1  0.91494400  0.77348100  0.91560600  1
  P  P1  1  0.77524500  0.91191300  0.41074200  1
  P  P2  1  0.91510200  0.31684800  0.40935800  1
  P  P3  1  0.65478400  0.67034900  0.61814600  1
  P  P4  1  0.66875800  0.65891800  0.11741100  1
  P  P5  1  0.77214600  0.31336300  0.90900700  1
  P  P6  1  0.68663700  0.22785400  0.09099300  1
  P  P7  1  0.32416000  0.90907900  0.90493000  1
  P  P8  1  0.68315200  0.08489800  0.59064200  1
  P  P9  1  0.32154200  0.76666400  0.41104700  1
  P  P10  1  0.23333600  0.67845800  0.58895300  1
  P  P11  1  0.32965100  0.34521600  0.38185400  1
  P  P12  1  0.34108200  0.33124200  0.88258900  1
  P  P13  1  0.09092100  0.67584000  0.09507000  1
  P  P14  1  0.22651900  0.08505600  0.08439400  1
  P  P15  1  0.08808700  0.22475500  0.58925800  1
  O  O0  1  0.01969200  0.73608200  0.18722600  1
  O  O1  1  0.91685400  0.73991800  0.41675900  1
  O  O2  1  0.74647700  0.00852800  0.68151400  1
  O  O3  1  0.74565500  0.91736700  0.91429300  1
  O  O4  1  0.90585900  0.61815800  0.92871100  1
  O  O5  1  0.80914500  0.66676500  0.57584500  1
  O  O6  1  0.90411400  0.47776800  0.43196200  1
  O  O7  1  0.00374600  0.22449300  0.67513800  1
  O  O8  1  0.91430100  0.34257500  0.91669400  1
  O  O9  1  0.66799800  0.81098600  0.07407200  1
  O  O10  1  0.61846400  0.90582800  0.42774200  1
  O  O11  1  0.81777400  0.51195600  0.07764500  1
  O  O12  1  0.65400700  0.66870800  0.72132200  1
  O  O13  1  0.65525000  0.66526000  0.22026300  1
  O  O14  1  0.65852300  0.52152100  0.57329200  1
  O  O15  1  0.48200800  0.90143900  0.93127000  1
  O  O16  1  0.50814400  0.81937400  0.57661500  1
  O  O17  1  0.74637600  0.33935500  0.41932100  1
  O  O18  1  0.79364600  0.20635400  0.00000000  1
  O  O19  1  0.76429700  0.23605100  0.17555900  1
  O  O20  1  0.76394900  0.23570300  0.82444100  1
  O  O21  1  0.61953200  0.47476000  0.92857900  1
  O  O22  1  0.51669500  0.66463100  0.07370200  1
  O  O23  1  0.66064500  0.25362400  0.58067900  1
  O  O24  1  0.47984900  0.61574000  0.42632000  1
  O  O25  1  0.34385000  0.91279500  0.41423800  1
  O  O26  1  0.79684700  0.98747700  0.50598800  1
  O  O27  1  0.77550700  0.99625400  0.32486200  1
  O  O28  1  0.23269400  0.98723700  0.16560500  1
  O  O29  1  0.65742500  0.08569900  0.08330600  1
  O  O30  1  0.52524000  0.38046800  0.07142100  1
  O  O31  1  0.34073500  0.74194600  0.91567000  1
  O  O32  1  0.47847900  0.34147700  0.42670800  1
  O  O33  1  0.38426000  0.52015100  0.57368000  1
  O  O34  1  0.23761600  0.75948500  0.67543100  1
  O  O35  1  0.24051500  0.76238400  0.32456900  1
  O  O36  1  0.21095200  0.78904800  0.50000000  1
  O  O37  1  0.25805400  0.65926500  0.08433000  1
  O  O38  1  0.48804400  0.18222600  0.92235500  1
  O  O39  1  0.52223200  0.09588600  0.56803800  1
  O  O40  1  0.33536900  0.48330500  0.92629800  1
  O  O41  1  0.33474000  0.34475000  0.77973700  1
  O  O42  1  0.33129200  0.34599300  0.27867800  1
  O  O43  1  0.18062600  0.49185600  0.42338400  1
  O  O44  1  0.38184200  0.09414100  0.07128900  1
  O  O45  1  0.33323500  0.19085500  0.42415500  1
  O  O46  1  0.08720500  0.65615000  0.58576200  1
  O  O47  1  0.98758200  0.79447700  0.01193000  1
  O  O48  1  0.01276300  0.76730600  0.83439500  1
  O  O49  1  0.09856100  0.51799200  0.06873000  1
  O  O50  1  0.18901400  0.33200200  0.92592800  1
  O  O51  1  0.09417200  0.38153600  0.57225800  1
  O  O52  1  0.26008200  0.08314600  0.58324100  1
  O  O53  1  0.26391800  0.98030800  0.81277400  1
  O  O54  1  0.20552300  0.01241800  0.98807000  1
  O  O55  1  0.08263300  0.25434500  0.08570700  1
  O  O56  1  0.99147200  0.25352300  0.31848600  1
  O  O57  1  0.01252300  0.20315300  0.49401200  1
loop_
_geom_bond_atom_site_label_1
_geom_bond_atom_site_label_2
_geom_bond_distance
_geom_bond_site_symmetry_2
Li0 O56 1.861972 1_555
Li0 O19 1.902955 1_555
Li0 O55 2.141080 1_655
Li0 O11 2.486416 1_555
Li1 O53 1.926497 1_555
Li1 O34 1.990739 1_555
Li1 O52 2.028138 1_565
Li1 O16 2.290480 1_555
Li2 O28 1.872491 1_555
Li2 O35 1.915501 1_555
Li2 O37 2.224495 1_555
Li2 O22 2.541955 1_555
Li3 O2 1.861972 1_555
Li3 O20 1.902955 1_555
Li3 O3 2.141080 1_545
Li3 O38 2.486416 1_555
Li4 O48 1.872491 1_555
Li4 O34 1.915501 1_555
Li4 O31 2.224495 1_555
Li4 O40 2.541955 1_555
Li5 O0 1.926497 1_555
Li5 O35 1.990739 1_555
Li5 O1 2.028138 1_455
Li5 O43 2.290471 1_555
O0 P13 1.474099 1_555
O1 P1 1.562461 1_555
O1 V4 1.951258 1_555
O2 P8 1.476914 1_555
O3 P0 1.551927 1_555
O3 V2 1.989086 1_556
O4 P0 1.571972 1_555
O4 V5 1.844210 1_655
O5 P3 1.603923 1_555
O5 V4 1.841354 1_555
O6 P2 1.558383 1_555
O6 V4 1.890201 1_555
O7 P15 1.476831 1_555
O8 P5 1.554381 1_555
O8 V5 1.889538 1_655
O9 P4 1.601106 1_555
O9 V2 1.832560 1_555
O10 P1 1.577815 1_555
O10 V3 1.835162 1_565
O11 P4 1.560717 1_555
O11 V5 1.995301 1_654
O12 P3 1.481348 1_555
O13 P4 1.480544 1_555
O14 P3 1.579101 1_555
O14 V0 1.859142 1_555
O15 P7 1.556133 1_555
O15 V2 1.870609 1_556
O16 P3 1.568763 1_555
O16 V3 1.997046 1_565
O17 P2 1.555973 1_555
O17 V0 1.864174 1_555
O18 P6 1.613852 1_555
O18 P5 1.613852 1_554
O19 P6 1.461445 1_555
O20 P5 1.461445 1_555
O21 P5 1.568313 1_555
O21 V1 1.848317 1_556
O22 P4 1.592946 1_555
O22 V1 1.874263 1_555
O23 P8 1.555973 1_555
O23 V0 1.864174 1_555
O24 P9 1.534667 1_555
O24 V0 1.917927 1_555
O25 P9 1.547580 1_555
O25 V3 1.897159 1_565
O26 P8 1.601842 1_565
O26 P1 1.624389 1_555
O27 P1 1.476831 1_555
O28 P14 1.482687 1_565
O29 P6 1.554381 1_555
O29 V2 1.889538 1_545
O30 P6 1.568313 1_555
O30 V1 1.848317 1_555
O31 P7 1.564533 1_555
O31 V1 1.942941 1_556
O32 P11 1.579101 1_555
O32 V0 1.859142 1_555
O33 P10 1.534667 1_555
O33 V0 1.917927 1_555
O34 P10 1.490806 1_555
O35 P9 1.490806 1_555
O36 P10 1.609401 1_555
O36 P9 1.609401 1_555
O37 P13 1.564533 1_555
O37 V1 1.942941 1_555
O38 P12 1.560717 1_555
O38 V2 1.995301 1_546
O39 P8 1.558383 1_555
O39 V3 1.890201 1_555
O40 P12 1.592946 1_555
O40 V1 1.874263 1_556
O41 P12 1.480544 1_555
O42 P11 1.481348 1_555
O43 P11 1.568757 1_555
O43 V4 1.997055 1_455
O44 P14 1.571972 1_555
O44 V2 1.844210 1_545
O45 P11 1.603923 1_555
O45 V3 1.841354 1_555
O46 P10 1.547580 1_555
O46 V4 1.897159 1_455
O47 P13 1.620151 1_655
O47 P0 1.620690 1_554
O48 P0 1.482687 1_455
O49 P13 1.556133 1_555
O49 V5 1.870609 1_554
O50 P12 1.601106 1_555
O50 V5 1.832560 1_555
O51 P15 1.577815 1_555
O51 V4 1.835162 1_455
O52 P15 1.562461 1_555
O52 V3 1.951258 1_555
O53 P7 1.474099 1_555
O54 P7 1.620151 1_545
O54 P14 1.620690 1_556
O55 P14 1.551927 1_555
O55 V5 1.989086 1_554
O56 P2 1.476914 1_555
O57 P2 1.601842 1_455
O57 P15 1.624389 1_555
