# generated using pymatgen
data_ZrBiO4
_symmetry_space_group_name_H-M   'P 1'
_cell_length_a   5.49952700
_cell_length_b   7.84413995
_cell_length_c   7.85883555
_cell_angle_alpha   97.83928705
_cell_angle_beta   91.37850480
_cell_angle_gamma   92.80524760
_symmetry_Int_Tables_number   1
_chemical_formula_structural   ZrBiO4
_chemical_formula_sum   'Zr4 Bi4 O16'
_cell_volume   335.29014107
_cell_formula_units_Z   4
loop_
 _symmetry_equiv_pos_site_id
 _symmetry_equiv_pos_as_xyz
  1  'x, y, z'
loop_
 _atom_site_type_symbol
 _atom_site_label
 _atom_site_symmetry_multiplicity
 _atom_site_fract_x
 _atom_site_fract_y
 _atom_site_fract_z
 _atom_site_occupancy
  Zr  Zr0  1  0.77894100  0.32854200  0.64005500  1
  Zr  Zr1  1  0.74288900  0.82727300  0.67017000  1
  Zr  Zr2  1  0.25711100  0.17272700  0.32983000  1
  Zr  Zr3  1  0.22105900  0.67145800  0.35994500  1
  Bi  Bi0  1  0.27674500  0.15054600  0.82186700  1
  Bi  Bi1  1  0.24523800  0.63851700  0.86336400  1
  Bi  Bi2  1  0.75476200  0.36148300  0.13663600  1
  Bi  Bi3  1  0.72325500  0.84945400  0.17813300  1
  O  O0  1  0.99147300  0.31784900  0.88748200  1
  O  O1  1  0.49977000  0.38710000  0.81503700  1
  O  O2  1  0.58927700  0.82833300  0.92005900  1
  O  O3  1  0.59731600  0.07308400  0.68071800  1
  O  O4  1  0.08198100  0.90939700  0.80868200  1
  O  O5  1  0.89811900  0.58214400  0.67758300  1
  O  O6  1  0.09463900  0.18471600  0.57205900  1
  O  O7  1  0.58466400  0.30755700  0.40999600  1
  O  O8  1  0.41533600  0.69244300  0.59000400  1
  O  O9  1  0.90536100  0.81528400  0.42794100  1
  O  O10  1  0.10188100  0.41785600  0.32241700  1
  O  O11  1  0.91801900  0.09060300  0.19131800  1
  O  O12  1  0.40268400  0.92691600  0.31928200  1
  O  O13  1  0.41072300  0.17166700  0.07994100  1
  O  O14  1  0.50023000  0.61290000  0.18496300  1
  O  O15  1  0.00852700  0.68215100  0.11251800  1
loop_
_geom_bond_atom_site_label_1
_geom_bond_atom_site_label_2
_geom_bond_distance
_geom_bond_site_symmetry_2
Bi0 O4 2.116379 1_545
Bi0 O0 2.122578 1_455
Bi0 O13 2.123269 1_556
Bi0 O3 2.173221 1_555
Bi0 O1 2.181270 1_555
Bi0 O6 2.237010 1_555
Bi1 O2 2.344792 1_555
Bi1 O5 2.361906 1_455
Bi1 O15 2.372607 1_556
Bi1 O4 2.433702 1_555
Bi1 O8 2.444386 1_555
Bi1 O1 2.466688 1_555
Bi2 O13 2.344792 1_555
Bi2 O10 2.361906 1_655
Bi2 O0 2.372607 1_554
Bi2 O11 2.433702 1_555
Bi2 O7 2.444386 1_555
Bi2 O14 2.466688 1_555
Bi3 O11 2.116379 1_565
Bi3 O15 2.122578 1_655
Bi3 O2 2.123269 1_554
Bi3 O12 2.173221 1_555
Bi3 O14 2.181270 1_555
Bi3 O9 2.237010 1_555
O0 Zr0 2.258087 1_555
O1 Zr0 2.111283 1_555
O2 Zr1 2.155564 1_555
O3 Zr1 2.115740 1_545
O3 Zr0 2.260389 1_555
O4 Zr1 2.161252 1_455
O5 Zr0 2.043739 1_555
O5 Zr1 2.149019 1_555
O6 Zr2 2.114778 1_555
O6 Zr0 2.155140 1_455
O7 Zr0 2.060618 1_555
O7 Zr2 2.082697 1_555
O8 Zr3 2.060618 1_555
O8 Zr1 2.082697 1_555
O9 Zr1 2.114778 1_555
O9 Zr3 2.155140 1_655
O10 Zr3 2.043739 1_555
O10 Zr2 2.149019 1_555
O11 Zr2 2.161252 1_655
O12 Zr2 2.115740 1_565
O12 Zr3 2.260389 1_555
O13 Zr2 2.155564 1_555
O14 Zr3 2.111283 1_555
O15 Zr3 2.258087 1_555
