# generated using pymatgen
data_Li2Ni3WO8
_symmetry_space_group_name_H-M   'P 1'
_cell_length_a   5.87699801
_cell_length_b   5.87764176
_cell_length_c   9.59690001
_cell_angle_alpha   89.99625755
_cell_angle_beta   90.00187176
_cell_angle_gamma   120.00362809
_symmetry_Int_Tables_number   1
_chemical_formula_structural   Li2Ni3WO8
_chemical_formula_sum   'Li4 Ni6 W2 O16'
_cell_volume   287.08095207
_cell_formula_units_Z   2
loop_
 _symmetry_equiv_pos_site_id
 _symmetry_equiv_pos_as_xyz
  1  'x, y, z'
loop_
 _atom_site_type_symbol
 _atom_site_label
 _atom_site_symmetry_multiplicity
 _atom_site_fract_x
 _atom_site_fract_y
 _atom_site_fract_z
 _atom_site_occupancy
  Li  Li0  1  0.33331800  0.66663400  0.90299000  1
  Li  Li1  1  0.99999900  0.00003800  0.99001100  1
  Li  Li2  1  0.00000100  0.00003800  0.49001100  1
  Li  Li3  1  0.66668200  0.33331600  0.40299000  1
  Ni  Ni0  1  0.16975100  0.83024100  0.21451400  1
  Ni  Ni1  1  0.16975200  0.33958900  0.21448700  1
  Ni  Ni2  1  0.66042700  0.83027200  0.21449400  1
  Ni  Ni3  1  0.33957300  0.16984400  0.71449400  1
  Ni  Ni4  1  0.83024900  0.66048900  0.71451400  1
  Ni  Ni5  1  0.83024800  0.16983700  0.71448700  1
  W  W0  1  0.33335600  0.66677100  0.48718800  1
  W  W1  1  0.66664400  0.33341500  0.98718800  1
  O  O0  1  0.17028600  0.82990700  0.58825700  1
  O  O1  1  0.03457100  0.51717200  0.35007900  1
  O  O2  1  0.33352000  0.66649900  0.11618800  1
  O  O3  1  0.99983700  0.00018300  0.29899200  1
  O  O4  1  0.00016300  0.00034600  0.79899200  1
  O  O5  1  0.17024900  0.34038300  0.58833500  1
  O  O6  1  0.48285200  0.96545100  0.35007000  1
  O  O7  1  0.48275900  0.51730500  0.35000900  1
  O  O8  1  0.34036100  0.17022400  0.08830600  1
  O  O9  1  0.65963900  0.82986300  0.58830600  1
  O  O10  1  0.51714800  0.48260000  0.85007000  1
  O  O11  1  0.51724100  0.03454600  0.85000900  1
  O  O12  1  0.66648000  0.33297800  0.61618800  1
  O  O13  1  0.82971400  0.65962000  0.08825700  1
  O  O14  1  0.96542900  0.48260200  0.85007900  1
  O  O15  1  0.82975100  0.17013400  0.08833500  1
loop_
_geom_bond_atom_site_label_1
_geom_bond_atom_site_label_2
_geom_bond_distance
_geom_bond_site_symmetry_2
Li0 O14 1.939984 1_455
Li0 O10 1.940110 1_555
Li0 O11 1.940443 1_565
Li0 O2 2.046041 1_556
Li1 O4 1.833191 1_655
Li1 O8 1.972452 1_656
Li1 O13 1.972597 1_546
Li1 O15 1.972718 1_556
Li2 O3 1.833191 1_455
Li2 O9 1.972452 1_445
Li2 O0 1.972589 1_545
Li2 O5 1.972723 1_555
Li3 O1 1.939984 1_655
Li3 O6 1.940115 1_545
Li3 O7 1.940443 1_555
Li3 O12 2.046041 1_555
Ni0 O3 1.910466 1_465
Ni0 O2 1.915620 1_555
Ni0 O6 2.060915 1_555
Ni0 O1 2.060941 1_555
Ni0 O8 2.112220 1_565
Ni0 O13 2.112616 1_455
Ni1 O3 1.908419 1_455
Ni1 O2 1.912738 1_555
Ni1 O1 2.059969 1_555
Ni1 O7 2.060304 1_555
Ni1 O15 2.111887 1_455
Ni1 O8 2.112146 1_555
Ni2 O3 1.908279 1_565
Ni2 O2 1.912646 1_555
Ni2 O6 2.059802 1_555
Ni2 O7 2.060157 1_555
Ni2 O15 2.111446 1_565
Ni2 O13 2.112310 1_555
Ni3 O4 1.908279 1_555
Ni3 O12 1.912646 1_555
Ni3 O10 2.059809 1_555
Ni3 O11 2.060153 1_555
Ni3 O5 2.111450 1_555
Ni3 O0 2.112301 1_545
Ni4 O4 1.910470 1_665
Ni4 O12 1.915620 1_555
Ni4 O10 2.060914 1_555
Ni4 O14 2.060933 1_555
Ni4 O9 2.112224 1_555
Ni4 O0 2.112616 1_655
Ni5 O4 1.908419 1_655
Ni5 O12 1.912734 1_555
Ni5 O14 2.059973 1_555
Ni5 O11 2.060304 1_555
Ni5 O5 2.111887 1_655
Ni5 O9 2.112146 1_545
O0 W0 1.922986 1_555
O1 W0 2.010911 1_555
O5 W0 1.924069 1_555
O6 W0 2.010633 1_555
O7 W0 2.011856 1_555
O8 W1 1.923357 1_554
O9 W0 1.923357 1_555
O10 W1 2.010636 1_555
O11 W1 2.011856 1_555
O13 W1 1.922982 1_554
O14 W1 2.010911 1_555
O15 W1 1.924069 1_554
