# generated using pymatgen
data_LiV9O22
_symmetry_space_group_name_H-M   'P 1'
_cell_length_a   3.68096600
_cell_length_b   10.30663100
_cell_length_c   21.81035110
_cell_angle_alpha   76.41705136
_cell_angle_beta   90.00000000
_cell_angle_gamma   90.00000000
_symmetry_Int_Tables_number   1
_chemical_formula_structural   LiV9O22
_chemical_formula_sum   'Li2 V18 O44'
_cell_volume   804.30594294
_cell_formula_units_Z   2
loop_
 _symmetry_equiv_pos_site_id
 _symmetry_equiv_pos_as_xyz
  1  'x, y, z'
loop_
 _atom_site_type_symbol
 _atom_site_label
 _atom_site_symmetry_multiplicity
 _atom_site_fract_x
 _atom_site_fract_y
 _atom_site_fract_z
 _atom_site_occupancy
  Li  Li0  1  0.25000000  0.58912500  0.48655100  1
  Li  Li1  1  0.75000000  0.41087500  0.51344900  1
  V  V0  1  0.25000000  0.59480500  0.02584400  1
  V  V1  1  0.75000000  0.13413600  0.09264400  1
  V  V2  1  0.25000000  0.90893700  0.05986900  1
  V  V3  1  0.25000000  0.15606000  0.28543000  1
  V  V4  1  0.75000000  0.93264000  0.25333000  1
  V  V5  1  0.25000000  0.47647900  0.31124300  1
  V  V6  1  0.75000000  0.65723100  0.36433500  1
  V  V7  1  0.25000000  0.21334900  0.43016500  1
  V  V8  1  0.75000000  0.97798200  0.40435600  1
  V  V9  1  0.25000000  0.02201800  0.59564400  1
  V  V10  1  0.75000000  0.78665100  0.56983500  1
  V  V11  1  0.25000000  0.34276900  0.63566500  1
  V  V12  1  0.75000000  0.52352100  0.68875700  1
  V  V13  1  0.25000000  0.06736000  0.74667000  1
  V  V14  1  0.75000000  0.84394000  0.71457000  1
  V  V15  1  0.75000000  0.09106300  0.94013100  1
  V  V16  1  0.25000000  0.86586400  0.90735600  1
  V  V17  1  0.75000000  0.40519500  0.97415600  1
  O  O0  1  0.75000000  0.57562300  0.00329900  1
  O  O1  1  0.25000000  0.78190400  0.00743000  1
  O  O2  1  0.25000000  0.08999900  0.08123200  1
  O  O3  1  0.75000000  0.28556900  0.10162300  1
  O  O4  1  0.75000000  0.95520100  0.04494400  1
  O  O5  1  0.25000000  0.55475900  0.10086200  1
  O  O6  1  0.75000000  0.02776300  0.17328500  1
  O  O7  1  0.25000000  0.81093200  0.12876900  1
  O  O8  1  0.25000000  0.24709300  0.21511600  1
  O  O9  1  0.25000000  0.51174500  0.23626600  1
  O  O10  1  0.75000000  0.10782900  0.30263800  1
  O  O11  1  0.75000000  0.77577700  0.25025000  1
  O  O12  1  0.25000000  0.28771300  0.33323100  1
  O  O13  1  0.25000000  0.97370800  0.26707200  1
  O  O14  1  0.75000000  0.49171000  0.33223800  1
  O  O15  1  0.25000000  0.02656500  0.39315100  1
  O  O16  1  0.25000000  0.64326400  0.34075200  1
  O  O17  1  0.75000000  0.85441600  0.35686600  1
  O  O18  1  0.75000000  0.15591000  0.42644200  1
  O  O19  1  0.25000000  0.36757700  0.44111400  1
  O  O20  1  0.75000000  0.59649000  0.44392300  1
  O  O21  1  0.25000000  0.12195200  0.52242600  1
  O  O22  1  0.75000000  0.87804800  0.47757400  1
  O  O23  1  0.25000000  0.40351000  0.55607700  1
  O  O24  1  0.75000000  0.63242300  0.55888600  1
  O  O25  1  0.25000000  0.84409000  0.57355800  1
  O  O26  1  0.25000000  0.14558400  0.64313400  1
  O  O27  1  0.75000000  0.35673600  0.65924800  1
  O  O28  1  0.75000000  0.97343500  0.60684900  1
  O  O29  1  0.25000000  0.50829000  0.66776200  1
  O  O30  1  0.75000000  0.02629200  0.73292800  1
  O  O31  1  0.75000000  0.71228700  0.66676900  1
  O  O32  1  0.25000000  0.22422300  0.74975000  1
  O  O33  1  0.25000000  0.89217100  0.69736200  1
  O  O34  1  0.75000000  0.48825500  0.76373400  1
  O  O35  1  0.75000000  0.75290700  0.78488400  1
  O  O36  1  0.75000000  0.18906800  0.87123100  1
  O  O37  1  0.25000000  0.97223700  0.82671500  1
  O  O38  1  0.75000000  0.44524100  0.89913800  1
  O  O39  1  0.25000000  0.04479900  0.95505600  1
  O  O40  1  0.25000000  0.71443100  0.89837700  1
  O  O41  1  0.75000000  0.91000100  0.91876800  1
  O  O42  1  0.75000000  0.21809600  0.99257000  1
  O  O43  1  0.25000000  0.42437700  0.99670100  1
loop_
_geom_bond_atom_site_label_1
_geom_bond_atom_site_label_2
_geom_bond_distance
_geom_bond_site_symmetry_2
Li0 O20 2.055332 1_455
Li0 O20 2.055332 1_555
Li0 O23 2.143981 1_555
Li0 O24 2.531047 1_555
Li0 O24 2.531047 1_455
Li1 O23 2.055332 1_555
Li1 O23 2.055332 1_655
Li1 O20 2.143981 1_555
Li1 O19 2.531047 1_555
Li1 O19 2.531047 1_655
O0 V0 1.927150 1_655
O0 V0 1.927150 1_555
O0 V17 2.003462 1_554
O1 V0 1.875127 1_555
O1 V2 1.930196 1_555
O1 V16 2.150727 1_554
O2 V1 1.925993 1_555
O2 V1 1.925993 1_455
O2 V2 2.026815 1_545
O3 V1 1.617993 1_555
O4 V2 1.909921 1_655
O4 V2 1.909921 1_555
O4 V1 2.320489 1_565
O4 V15 2.383918 1_564
O5 V0 1.590662 1_555
O6 V4 1.790276 1_545
O6 V1 1.841105 1_555
O7 V2 1.601730 1_555
O8 V3 1.598845 1_555
O9 V5 1.589671 1_555
O10 V3 1.920342 1_655
O10 V3 1.920342 1_555
O10 V8 2.306127 1_545
O10 V4 2.308426 1_545
O11 V4 1.633811 1_555
O11 V6 2.501230 1_555
O12 V5 1.891262 1_555
O12 V3 1.895406 1_555
O12 V7 2.072685 1_555
O13 V4 1.927682 1_455
O13 V4 1.927682 1_555
O13 V3 2.011480 1_565
O14 V5 1.911927 1_555
O14 V5 1.911927 1_655
O14 V6 1.990308 1_555
O15 V8 1.907970 1_445
O15 V8 1.907970 1_545
O15 V7 2.255606 1_555
O15 V3 2.414186 1_555
O16 V6 1.925471 1_555
O16 V6 1.925471 1_455
O16 V5 1.972007 1_555
O17 V8 1.820535 1_555
O17 V6 2.000332 1_555
O17 V4 2.212269 1_555
O18 V7 1.940881 1_655
O18 V7 1.940881 1_555
O18 V8 2.002479 1_545
O19 V7 1.661944 1_555
O20 V6 1.701364 1_555
O21 V9 1.684761 1_555
O21 V7 2.011503 1_555
O22 V8 1.684761 1_555
O22 V10 2.011503 1_555
O23 V11 1.701364 1_555
O24 V10 1.661944 1_555
O25 V10 1.940881 1_455
O25 V10 1.940881 1_555
O25 V9 2.002479 1_565
O26 V9 1.820535 1_555
O26 V11 2.000332 1_555
O26 V13 2.212269 1_555
O27 V11 1.925471 1_555
O27 V11 1.925471 1_655
O27 V12 1.972007 1_555
O28 V9 1.907970 1_665
O28 V9 1.907970 1_565
O28 V10 2.255606 1_555
O28 V14 2.414186 1_555
O29 V12 1.911927 1_555
O29 V12 1.911927 1_455
O29 V11 1.990308 1_555
O30 V13 1.927682 1_555
O30 V13 1.927682 1_655
O30 V14 2.011480 1_545
O31 V12 1.891262 1_555
O31 V14 1.895406 1_555
O31 V10 2.072685 1_555
O32 V13 1.633811 1_555
O32 V11 2.501230 1_555
O33 V14 1.920342 1_555
O33 V14 1.920342 1_455
O33 V9 2.306127 1_565
O33 V13 2.308426 1_565
O34 V12 1.589671 1_555
O35 V14 1.598845 1_555
O36 V15 1.601730 1_555
O37 V13 1.790276 1_565
O37 V16 1.841105 1_555
O38 V17 1.590662 1_555
O39 V15 1.909921 1_555
O39 V15 1.909921 1_455
O39 V16 2.320489 1_545
O39 V2 2.383918 1_546
O40 V16 1.617993 1_555
O41 V16 1.925993 1_555
O41 V16 1.925993 1_655
O41 V15 2.026815 1_565
O42 V17 1.875127 1_555
O42 V15 1.930196 1_555
O42 V1 2.150727 1_556
O43 V17 1.927150 1_455
O43 V17 1.927150 1_555
O43 V0 2.003462 1_556
