# generated using pymatgen
data_Ti2N2O
_symmetry_space_group_name_H-M   'P 1'
_cell_length_a   8.22850200
_cell_length_b   8.23174694
_cell_length_c   8.20165704
_cell_angle_alpha   109.35059315
_cell_angle_beta   109.37143837
_cell_angle_gamma   109.57881552
_symmetry_Int_Tables_number   1
_chemical_formula_structural   Ti2N2O
_chemical_formula_sum   'Ti16 N16 O8'
_cell_volume   428.24678886
_cell_formula_units_Z   8
loop_
 _symmetry_equiv_pos_site_id
 _symmetry_equiv_pos_as_xyz
  1  'x, y, z'
loop_
 _atom_site_type_symbol
 _atom_site_label
 _atom_site_symmetry_multiplicity
 _atom_site_fract_x
 _atom_site_fract_y
 _atom_site_fract_z
 _atom_site_occupancy
  Ti  Ti0  1  0.50032000  0.00048200  0.98643800  1
  Ti  Ti1  1  0.74793100  0.29890900  0.53853200  1
  Ti  Ti2  1  0.21213100  0.95672900  0.24996400  1
  Ti  Ti3  1  0.71214100  0.46423600  0.24699100  1
  Ti  Ti4  1  0.24093200  0.20444900  0.94629700  1
  Ti  Ti5  1  0.01304400  0.51478900  0.01006400  1
  Ti  Ti6  1  0.96689000  0.26103700  0.20485800  1
  Ti  Ti7  1  0.50146000  0.49772600  0.51188300  1
  Ti  Ti8  1  0.53998300  0.74717400  0.30033000  1
  Ti  Ti9  1  0.99612900  0.99639800  0.50791200  1
  Ti  Ti10  1  0.45599500  0.25829300  0.71420700  1
  Ti  Ti11  1  0.03412200  0.73639600  0.78419500  1
  Ti  Ti12  1  0.75407700  0.79104800  0.04397800  1
  Ti  Ti13  1  0.79545400  0.04172800  0.76042200  1
  Ti  Ti14  1  0.28685000  0.54130100  0.74580800  1
  Ti  Ti15  1  0.25308000  0.70151500  0.46288400  1
  N  N0  1  0.72489900  0.99266000  0.95342600  1
  N  N1  1  0.51110600  0.23356700  0.96034000  1
  N  N2  1  0.45812400  0.22349500  0.45022400  1
  N  N3  1  0.77397700  0.54831800  0.53691200  1
  N  N4  1  0.77317600  0.72740300  0.26633000  1
  N  N5  1  0.05280700  0.27573600  0.01203500  1
  N  N6  1  0.95770800  0.50668000  0.23304400  1
  N  N7  1  0.22388600  0.44830700  0.46070100  1
  N  N8  1  0.55091400  0.53948700  0.77798000  1
  N  N9  1  0.27900000  0.74033100  0.22544200  1
  N  N10  1  0.54110900  0.77333800  0.54650500  1
  N  N11  1  0.95139300  0.72636100  0.99281100  1
  N  N12  1  0.98863300  0.95030900  0.72335800  1
  N  N13  1  0.22299200  0.27048500  0.73293200  1
  N  N14  1  0.03744600  0.48679700  0.76172200  1
  N  N15  1  0.27052900  0.77953800  0.72755400  1
  O  O0  1  0.27386100  0.00758200  0.04944000  1
  O  O1  1  0.76814800  0.04262100  0.49021400  1
  O  O2  1  0.72987700  0.22169500  0.27725600  1
  O  O3  1  0.44859300  0.46187100  0.22067800  1
  O  O4  1  0.22504400  0.95607300  0.50269400  1
  O  O5  1  0.72327500  0.25826600  0.76727500  1
  O  O6  1  0.01114500  0.04964400  0.27462500  1
  O  O7  1  0.49182100  0.76722700  0.04174300  1
loop_
_geom_bond_atom_site_label_1
_geom_bond_atom_site_label_2
_geom_bond_distance
_geom_bond_site_symmetry_2
N0 Ti13 1.970315 1_565
N0 Ti0 1.972936 1_565
N0 Ti12 2.080654 1_556
N0 Ti6 2.099229 1_566
N1 Ti0 1.976291 1_555
N1 Ti10 2.012232 1_555
N1 Ti3 2.055656 1_556
N1 Ti4 2.113700 1_555
N2 Ti2 2.010569 1_545
N2 Ti7 2.015715 1_555
N2 Ti1 2.039792 1_555
N2 Ti10 2.094645 1_555
N3 Ti11 1.977486 1_655
N3 Ti1 1.996567 1_555
N3 Ti7 2.063021 1_555
N3 Ti3 2.064640 1_555
N4 Ti3 1.990132 1_555
N4 Ti12 2.030545 1_555
N4 Ti9 2.037936 1_555
N4 Ti8 2.078542 1_555
N5 Ti6 1.956185 1_455
N5 Ti4 1.996025 1_554
N5 Ti13 2.046060 1_454
N5 Ti5 2.104455 1_555
N6 Ti3 1.981120 1_555
N6 Ti6 1.987995 1_555
N6 Ti5 2.041874 1_655
N6 Ti15 2.092256 1_655
N7 Ti6 1.994805 1_455
N7 Ti15 2.009815 1_555
N7 Ti14 2.016575 1_555
N7 Ti7 2.046098 1_555
N8 Ti7 1.966394 1_555
N8 Ti10 1.989103 1_555
N8 Ti12 2.027054 1_556
N8 Ti14 2.105978 1_555
N9 Ti5 1.973730 1_555
N9 Ti2 2.002310 1_555
N9 Ti8 2.003289 1_555
N9 Ti15 2.140617 1_555
N10 Ti8 1.954760 1_555
N10 Ti15 2.037379 1_555
N10 Ti13 2.058125 1_565
N10 Ti7 2.085645 1_555
N11 Ti12 1.994773 1_556
N11 Ti5 2.004594 1_656
N11 Ti11 2.055815 1_655
N11 Ti2 2.066002 1_656
N12 Ti9 1.941898 1_555
N12 Ti4 2.016404 1_665
N12 Ti13 2.038659 1_565
N12 Ti11 2.095198 1_655
N13 Ti4 1.972917 1_555
N13 Ti10 2.005902 1_555
N13 Ti9 2.028207 1_445
N13 Ti14 2.068595 1_555
N14 Ti14 2.007324 1_555
N14 Ti11 2.011540 1_555
N14 Ti1 2.044427 1_455
N14 Ti5 2.057504 1_556
N15 Ti0 1.965744 1_565
N15 Ti15 1.988144 1_555
N15 Ti14 2.060130 1_555
N15 Ti11 2.090894 1_555
O0 Ti2 2.001488 1_545
O0 Ti0 2.105818 1_554
O0 Ti4 2.113285 1_554
O0 Ti11 2.142627 1_544
O1 Ti9 2.004833 1_545
O1 Ti8 2.086912 1_545
O1 Ti1 2.088169 1_555
O1 Ti13 2.154867 1_555
O2 Ti1 1.959843 1_555
O2 Ti0 2.097770 1_554
O2 Ti3 2.137462 1_555
O2 Ti6 2.175623 1_555
O3 Ti8 1.995403 1_555
O3 Ti4 2.082428 1_554
O3 Ti3 2.099584 1_555
O3 Ti7 2.176739 1_555
O4 Ti9 2.030564 1_455
O4 Ti2 2.041944 1_555
O4 Ti15 2.114548 1_555
O4 Ti10 2.143458 1_565
O5 Ti13 2.049009 1_555
O5 Ti1 2.072606 1_555
O5 Ti10 2.095661 1_555
O5 Ti5 2.190598 1_656
O6 Ti12 2.059952 1_445
O6 Ti2 2.080421 1_545
O6 Ti6 2.105804 1_455
O6 Ti9 2.131793 1_445
O7 Ti12 2.093661 1_555
O7 Ti14 2.094087 1_554
O7 Ti8 2.097749 1_555
O7 Ti0 2.098958 1_564
