# generated using pymatgen
data_Na3CoSiCO7
_symmetry_space_group_name_H-M   'P 1'
_cell_length_a   6.42675400
_cell_length_b   5.19482300
_cell_length_c   9.12812406
_cell_angle_alpha   88.74002356
_cell_angle_beta   90.00000000
_cell_angle_gamma   90.00000000
_symmetry_Int_Tables_number   1
_chemical_formula_structural   Na3CoSiCO7
_chemical_formula_sum   'Na6 Co2 Si2 C2 O14'
_cell_volume   304.67649146
_cell_formula_units_Z   2
loop_
 _symmetry_equiv_pos_site_id
 _symmetry_equiv_pos_as_xyz
  1  'x, y, z'
loop_
 _atom_site_type_symbol
 _atom_site_label
 _atom_site_symmetry_multiplicity
 _atom_site_fract_x
 _atom_site_fract_y
 _atom_site_fract_z
 _atom_site_occupancy
  Na  Na0  1  0.75000000  0.23891900  0.91560300  1
  Na  Na1  1  0.99618100  0.74774500  0.73901900  1
  Na  Na2  1  0.50381900  0.74774500  0.73901900  1
  Na  Na3  1  0.49618100  0.25225500  0.26098100  1
  Na  Na4  1  0.00381900  0.25225500  0.26098100  1
  Na  Na5  1  0.25000000  0.76108100  0.08439700  1
  Co  Co0  1  0.25000000  0.20506400  0.64273200  1
  Co  Co1  1  0.75000000  0.79493600  0.35726800  1
  Si  Si0  1  0.75000000  0.29990500  0.57880500  1
  Si  Si1  1  0.25000000  0.70009500  0.42119500  1
  C  C0  1  0.25000000  0.26979000  0.93873500  1
  C  C1  1  0.75000000  0.73021000  0.06126500  1
  O  O0  1  0.75000000  0.71807000  0.91933100  1
  O  O1  1  0.25000000  0.04635200  0.87684100  1
  O  O2  1  0.25000000  0.47785300  0.85846400  1
  O  O3  1  0.95410200  0.22621300  0.68272500  1
  O  O4  1  0.54589800  0.22621300  0.68272500  1
  O  O5  1  0.75000000  0.61486400  0.54894600  1
  O  O6  1  0.25000000  0.85049000  0.57567700  1
  O  O7  1  0.75000000  0.14951000  0.42432300  1
  O  O8  1  0.25000000  0.38513600  0.45105400  1
  O  O9  1  0.45410200  0.77378700  0.31727500  1
  O  O10  1  0.04589800  0.77378700  0.31727500  1
  O  O11  1  0.75000000  0.52214700  0.14153600  1
  O  O12  1  0.75000000  0.95364800  0.12315900  1
  O  O13  1  0.25000000  0.28193000  0.08066900  1
loop_
_geom_bond_atom_site_label_1
_geom_bond_atom_site_label_2
_geom_bond_distance
_geom_bond_site_symmetry_2
Na0 O12 2.379526 1_546
Na0 O0 2.490085 1_555
Na0 O3 2.499977 1_555
Na0 O4 2.499977 1_555
Na0 O11 2.559588 1_556
Na0 O0 2.705184 1_545
Na1 O6 2.265811 1_655
Na1 O0 2.285784 1_555
Na1 O2 2.397537 1_655
Na1 O5 2.458174 1_555
Na1 O3 2.541457 1_565
Na1 O1 2.595323 1_665
Na1 O3 2.781822 1_555
Na2 O6 2.265811 1_555
Na2 O0 2.285784 1_555
Na2 O2 2.397537 1_555
Na2 O5 2.458174 1_555
Na2 O4 2.541457 1_565
Na2 O1 2.595323 1_565
Na2 O4 2.781822 1_555
Na3 O7 2.265811 1_555
Na3 O13 2.285784 1_555
Na3 O11 2.397537 1_555
Na3 O8 2.458174 1_555
Na3 O9 2.541457 1_545
Na3 O12 2.595323 1_545
Na3 O9 2.781822 1_555
Na4 O7 2.265811 1_455
Na4 O13 2.285784 1_555
Na4 O11 2.397537 1_455
Na4 O8 2.458174 1_555
Na4 O10 2.541457 1_545
Na4 O12 2.595323 1_445
Na4 O10 2.781822 1_555
Na5 O1 2.379526 1_564
Na5 O13 2.490085 1_555
Na5 O9 2.499977 1_555
Na5 O10 2.499977 1_555
Na5 O2 2.559588 1_554
Na5 O13 2.705184 1_565
Co0 O4 1.939956 1_555
Co0 O3 1.939956 1_455
Co0 O6 1.953717 1_545
Co0 O8 1.965804 1_555
Co0 O1 2.273533 1_555
Co0 O2 2.451271 1_555
Co1 O9 1.939956 1_555
Co1 O10 1.939956 1_655
Co1 O7 1.953717 1_565
Co1 O5 1.965804 1_555
Co1 O12 2.273533 1_555
Co1 O11 2.451271 1_555
C0 O2 1.292398 1_555
C0 O13 1.298510 1_556
C0 O1 1.302041 1_555
C1 O11 1.292398 1_555
C1 O0 1.298510 1_554
C1 O12 1.302041 1_555
O3 Si0 1.658615 1_555
O4 Si0 1.658615 1_555
O5 Si0 1.652780 1_555
O6 Si1 1.627056 1_555
O7 Si0 1.627056 1_555
O8 Si1 1.652780 1_555
O9 Si1 1.658615 1_555
O10 Si1 1.658615 1_555
