# generated using pymatgen
data_Na5V7O14
_symmetry_space_group_name_H-M   'P 1'
_cell_length_a   5.20066300
_cell_length_b   7.26682986
_cell_length_c   8.39236117
_cell_angle_alpha   90.59616985
_cell_angle_beta   102.66111489
_cell_angle_gamma   98.17344864
_symmetry_Int_Tables_number   1
_chemical_formula_structural   Na5V7O14
_chemical_formula_sum   'Na5 V7 O14'
_cell_volume   306.02731953
_cell_formula_units_Z   1
loop_
 _symmetry_equiv_pos_site_id
 _symmetry_equiv_pos_as_xyz
  1  'x, y, z'
loop_
 _atom_site_type_symbol
 _atom_site_label
 _atom_site_symmetry_multiplicity
 _atom_site_fract_x
 _atom_site_fract_y
 _atom_site_fract_z
 _atom_site_occupancy
  Na  Na0  1  0.07785000  0.65485200  0.65160900  1
  Na  Na1  1  0.50000000  0.50000000  0.50000000  1
  Na  Na2  1  0.92215000  0.34514800  0.34839100  1
  Na  Na3  1  0.78523000  0.06751100  0.06792000  1
  Na  Na4  1  0.21477000  0.93248900  0.93208000  1
  V  V0  1  0.85298400  0.21279700  0.71219600  1
  V  V1  1  0.14701600  0.78720300  0.28780400  1
  V  V2  1  0.57597800  0.64081700  0.14630800  1
  V  V3  1  0.28570800  0.07329600  0.56868200  1
  V  V4  1  0.00000000  0.50000000  0.00000000  1
  V  V5  1  0.71429200  0.92670400  0.43131800  1
  V  V6  1  0.42402200  0.35918300  0.85369200  1
  O  O0  1  0.75655800  0.46571700  0.77459000  1
  O  O1  1  0.17929400  0.33087100  0.62565400  1
  O  O2  1  0.82070600  0.66912900  0.37434600  1
  O  O3  1  0.60541600  0.17973300  0.48825200  1
  O  O4  1  0.24344200  0.53428300  0.22541000  1
  O  O5  1  0.96794400  0.96083700  0.64949400  1
  O  O6  1  0.90220500  0.75184900  0.06287200  1
  O  O7  1  0.39458400  0.82026700  0.51174800  1
  O  O8  1  0.03205600  0.03916300  0.35050600  1
  O  O9  1  0.69754500  0.39040700  0.07733300  1
  O  O10  1  0.30245500  0.60959300  0.92266700  1
  O  O11  1  0.09779500  0.24815100  0.93712800  1
  O  O12  1  0.48291100  0.89578700  0.20646400  1
  O  O13  1  0.51708900  0.10421300  0.79353600  1
loop_
_geom_bond_atom_site_label_1
_geom_bond_atom_site_label_2
_geom_bond_distance
_geom_bond_site_symmetry_2
Na0 O10 2.367990 1_555
Na0 O5 2.372533 1_455
Na0 O7 2.418658 1_555
Na0 O0 2.424617 1_455
Na0 O2 2.427750 1_455
Na0 O1 2.502291 1_555
Na1 O2 2.370553 1_555
Na1 O1 2.370553 1_555
Na1 O4 2.431348 1_555
Na1 O0 2.431348 1_555
Na1 O7 2.471526 1_555
Na1 O3 2.471526 1_555
Na2 O9 2.367990 1_555
Na2 O8 2.372533 1_655
Na2 O3 2.418658 1_555
Na2 O4 2.424617 1_655
Na2 O1 2.427750 1_655
Na2 O2 2.502291 1_555
Na3 O12 2.377985 1_545
Na3 O11 2.403289 1_654
Na3 O13 2.455445 1_554
Na3 O9 2.456851 1_555
Na3 O6 2.457590 1_545
Na3 O8 2.462798 1_655
Na4 O13 2.377985 1_565
Na4 O6 2.403289 1_456
Na4 O12 2.455445 1_556
Na4 O10 2.456851 1_555
Na4 O11 2.457590 1_565
Na4 O5 2.462798 1_455
O0 V4 2.023410 1_656
O0 V6 2.040629 1_555
O0 V0 2.064171 1_555
O1 V6 2.043123 1_555
O1 V0 2.069507 1_455
O1 V3 2.104818 1_555
O2 V2 2.043123 1_555
O2 V1 2.069507 1_655
O2 V5 2.104818 1_555
O3 V3 1.988867 1_555
O3 V0 2.022259 1_555
O3 V5 2.079942 1_545
O4 V4 2.023410 1_555
O4 V2 2.040629 1_555
O4 V1 2.064171 1_555
O5 V3 1.994413 1_665
O5 V5 1.998246 1_555
O5 V0 2.101393 1_565
O6 V1 2.023307 1_655
O6 V2 2.040360 1_555
O6 V4 2.061242 1_655
O7 V5 1.988867 1_555
O7 V1 2.022259 1_555
O7 V3 2.079942 1_565
O8 V5 1.994413 1_445
O8 V3 1.998246 1_555
O8 V1 2.101393 1_545
O9 V4 1.905716 1_655
O9 V6 2.080057 1_554
O9 V2 2.124074 1_555
O10 V4 1.905716 1_556
O10 V2 2.080057 1_556
O10 V6 2.124074 1_555
O11 V0 2.023307 1_455
O11 V6 2.040360 1_555
O11 V4 2.061242 1_556
O12 V5 1.994579 1_555
O12 V2 2.065124 1_555
O12 V1 2.069349 1_555
O13 V3 1.994579 1_555
O13 V6 2.065124 1_555
O13 V0 2.069349 1_555
