# generated using pymatgen
data_Zr2N2O
_symmetry_space_group_name_H-M   'P 1'
_cell_length_a   9.61810066
_cell_length_b   9.61810066
_cell_length_c   5.88464355
_cell_angle_alpha   74.17728958
_cell_angle_beta   74.17728958
_cell_angle_gamma   119.90248273
_symmetry_Int_Tables_number   1
_chemical_formula_structural   Zr2N2O
_chemical_formula_sum   'Zr12 N12 O6'
_cell_volume   395.80975646
_cell_formula_units_Z   6
loop_
 _symmetry_equiv_pos_site_id
 _symmetry_equiv_pos_as_xyz
  1  'x, y, z'
loop_
 _atom_site_type_symbol
 _atom_site_label
 _atom_site_symmetry_multiplicity
 _atom_site_fract_x
 _atom_site_fract_y
 _atom_site_fract_z
 _atom_site_occupancy
  Zr  Zr0  1  0.52293300  0.68639300  0.93922200  1
  Zr  Zr1  1  0.31360700  0.47706700  0.56077800  1
  Zr  Zr2  1  0.02941800  0.19247300  0.41321200  1
  Zr  Zr3  1  0.80752700  0.97058200  0.08678800  1
  Zr  Zr4  1  0.35854200  0.85914100  0.42599900  1
  Zr  Zr5  1  0.64145800  0.14085900  0.57400100  1
  Zr  Zr6  1  0.19247300  0.02941800  0.91321200  1
  Zr  Zr7  1  0.47706700  0.31360700  0.06077800  1
  Zr  Zr8  1  0.14085900  0.64145800  0.07400100  1
  Zr  Zr9  1  0.85914100  0.35854200  0.92599900  1
  Zr  Zr10  1  0.97058200  0.80752700  0.58678800  1
  Zr  Zr11  1  0.68639300  0.52293300  0.43922200  1
  N  N0  1  0.31666600  0.68333400  0.25000000  1
  N  N1  1  0.95059600  0.35096300  0.24836200  1
  N  N2  1  0.64903700  0.04940400  0.25163800  1
  N  N3  1  0.35096300  0.95059600  0.74836200  1
  N  N4  1  0.68333400  0.31666600  0.75000000  1
  N  N5  1  0.31854100  0.38602900  0.24451000  1
  N  N6  1  0.68145900  0.61397100  0.75549000  1
  N  N7  1  0.38602900  0.31854100  0.74451000  1
  N  N8  1  0.04940400  0.64903700  0.75163800  1
  N  N9  1  0.98619800  0.01380200  0.25000000  1
  N  N10  1  0.61397100  0.68145900  0.25549000  1
  N  N11  1  0.01380200  0.98619800  0.75000000  1
  O  O0  1  0.71633700  0.98448000  0.75301200  1
  O  O1  1  0.35154200  0.64845800  0.75000000  1
  O  O2  1  0.28366300  0.01552000  0.24698800  1
  O  O3  1  0.01552000  0.28366300  0.74698800  1
  O  O4  1  0.64845800  0.35154200  0.25000000  1
  O  O5  1  0.98448000  0.71633700  0.25301200  1
loop_
_geom_bond_atom_site_label_1
_geom_bond_atom_site_label_2
_geom_bond_distance
_geom_bond_site_symmetry_2
N0 Zr4 2.144194 1_555
N0 Zr8 2.144194 1_555
N0 Zr1 2.283684 1_555
N0 Zr0 2.283684 1_554
N1 Zr8 2.126719 1_655
N1 Zr2 2.141590 1_655
N1 Zr9 2.296976 1_554
N1 Zr5 2.320949 1_555
N2 Zr4 2.126719 1_545
N2 Zr3 2.141590 1_545
N2 Zr5 2.296976 1_555
N2 Zr9 2.320949 1_554
N3 Zr5 2.126719 1_565
N3 Zr6 2.141590 1_565
N3 Zr4 2.296976 1_555
N3 Zr8 2.320949 1_556
N4 Zr9 2.144194 1_555
N4 Zr5 2.144194 1_555
N4 Zr7 2.283684 1_556
N4 Zr11 2.283684 1_555
N5 Zr2 2.123510 1_555
N5 Zr7 2.132979 1_555
N5 Zr0 2.240393 1_554
N5 Zr1 2.261564 1_555
N6 Zr10 2.123510 1_555
N6 Zr0 2.132979 1_555
N6 Zr7 2.240393 1_556
N6 Zr11 2.261564 1_555
N7 Zr6 2.123510 1_555
N7 Zr1 2.132979 1_555
N7 Zr11 2.240393 1_555
N7 Zr7 2.261564 1_556
N8 Zr9 2.126719 1_455
N8 Zr10 2.141590 1_455
N8 Zr8 2.296976 1_556
N8 Zr4 2.320949 1_555
N9 Zr2 2.110435 1_655
N9 Zr3 2.110435 1_545
N9 Zr6 2.298458 1_654
N9 Zr10 2.298458 1_545
N10 Zr3 2.123510 1_555
N10 Zr11 2.132979 1_555
N10 Zr1 2.240393 1_555
N10 Zr0 2.261564 1_554
N11 Zr6 2.110435 1_565
N11 Zr10 2.110435 1_455
N11 Zr3 2.298458 1_456
N11 Zr2 2.298458 1_565
O0 Zr5 2.126103 1_565
O0 Zr0 2.176842 1_555
O0 Zr3 2.357578 1_556
O0 Zr2 2.365760 1_665
O1 Zr1 2.171005 1_555
O1 Zr0 2.171005 1_555
O1 Zr4 2.330889 1_555
O1 Zr8 2.330889 1_556
O2 Zr4 2.126103 1_545
O2 Zr7 2.176842 1_555
O2 Zr6 2.357578 1_554
O2 Zr10 2.365760 1_445
O3 Zr9 2.126103 1_455
O3 Zr1 2.176842 1_555
O3 Zr2 2.357578 1_555
O3 Zr3 2.365760 1_446
O4 Zr7 2.171005 1_555
O4 Zr11 2.171005 1_555
O4 Zr9 2.330889 1_554
O4 Zr5 2.330889 1_555
O5 Zr8 2.126103 1_655
O5 Zr11 2.176842 1_555
O5 Zr10 2.357578 1_555
O5 Zr6 2.365760 1_664
