# generated using pymatgen
data_Li5Mn2P2(CO7)2
_symmetry_space_group_name_H-M   'P 1'
_cell_length_a   6.43606900
_cell_length_b   8.51274200
_cell_length_c   10.10881042
_cell_angle_alpha   86.04100964
_cell_angle_beta   90.00000000
_cell_angle_gamma   90.00000000
_symmetry_Int_Tables_number   1
_chemical_formula_structural   Li5Mn2P2(CO7)2
_chemical_formula_sum   'Li10 Mn4 P4 C4 O28'
_cell_volume   552.52588544
_cell_formula_units_Z   2
loop_
 _symmetry_equiv_pos_site_id
 _symmetry_equiv_pos_as_xyz
  1  'x, y, z'
loop_
 _atom_site_type_symbol
 _atom_site_label
 _atom_site_symmetry_multiplicity
 _atom_site_fract_x
 _atom_site_fract_y
 _atom_site_fract_z
 _atom_site_occupancy
  Li  Li0  1  0.75000000  0.90496200  0.86593500  1
  Li  Li1  1  0.98311500  0.74596000  0.61344700  1
  Li  Li2  1  0.51688500  0.74596000  0.61344700  1
  Li  Li3  1  0.97694100  0.74161900  0.13021700  1
  Li  Li4  1  0.52305900  0.74161900  0.13021700  1
  Li  Li5  1  0.48311500  0.25404000  0.38655300  1
  Li  Li6  1  0.01688500  0.25404000  0.38655300  1
  Li  Li7  1  0.47694100  0.25838100  0.86978300  1
  Li  Li8  1  0.02305900  0.25838100  0.86978300  1
  Li  Li9  1  0.25000000  0.09503800  0.13406500  1
  Mn  Mn0  1  0.25000000  0.65763100  0.35508200  1
  Mn  Mn1  1  0.25000000  0.66423000  0.85372800  1
  Mn  Mn2  1  0.75000000  0.34236900  0.64491800  1
  Mn  Mn3  1  0.75000000  0.33577000  0.14627200  1
  P  P0  1  0.75000000  0.58229100  0.38787200  1
  P  P1  1  0.75000000  0.58532200  0.88966500  1
  P  P2  1  0.25000000  0.41770900  0.61212800  1
  P  P3  1  0.25000000  0.41467800  0.11033500  1
  C  C0  1  0.25000000  0.95862300  0.38853000  1
  C  C1  1  0.25000000  0.95917400  0.89829700  1
  C  C2  1  0.75000000  0.04137700  0.61147000  1
  C  C3  1  0.75000000  0.04082600  0.10170300  1
  O  O0  1  0.25000000  0.92022600  0.26677600  1
  O  O1  1  0.75000000  0.89853000  0.58039100  1
  O  O2  1  0.25000000  0.92363000  0.77837500  1
  O  O3  1  0.25000000  0.84064000  0.48121500  1
  O  O4  1  0.75000000  0.89639200  0.06557500  1
  O  O5  1  0.25000000  0.84385400  0.99387500  1
  O  O6  1  0.94062200  0.67427300  0.33063300  1
  O  O7  1  0.55937800  0.67427300  0.33063300  1
  O  O8  1  0.93600600  0.68777000  0.83633300  1
  O  O9  1  0.56399400  0.68777000  0.83633300  1
  O  O10  1  0.25000000  0.58993900  0.65587800  1
  O  O11  1  0.75000000  0.57444600  0.54231100  1
  O  O12  1  0.25000000  0.58160100  0.16173000  1
  O  O13  1  0.75000000  0.56872300  0.04380200  1
  O  O14  1  0.25000000  0.42555400  0.45768900  1
  O  O15  1  0.75000000  0.41006100  0.34412200  1
  O  O16  1  0.25000000  0.43127700  0.95619800  1
  O  O17  1  0.75000000  0.41839900  0.83827000  1
  O  O18  1  0.05937800  0.32572700  0.66936700  1
  O  O19  1  0.44062200  0.32572700  0.66936700  1
  O  O20  1  0.43600600  0.31223000  0.16366700  1
  O  O21  1  0.06399400  0.31223000  0.16366700  1
  O  O22  1  0.75000000  0.15936000  0.51878500  1
  O  O23  1  0.25000000  0.10147000  0.41960900  1
  O  O24  1  0.75000000  0.15614600  0.00612500  1
  O  O25  1  0.75000000  0.07977400  0.73322400  1
  O  O26  1  0.25000000  0.10360800  0.93442500  1
  O  O27  1  0.75000000  0.07637000  0.22162500  1
loop_
_geom_bond_atom_site_label_1
_geom_bond_atom_site_label_2
_geom_bond_distance
_geom_bond_site_symmetry_2
Li0 O25 1.933550 1_565
Li0 O4 2.014401 1_556
Li0 O9 2.239985 1_555
Li0 O8 2.239985 1_555
Li1 O1 1.997403 1_555
Li1 O10 2.195404 1_655
Li1 O11 2.246080 1_555
Li1 O3 2.288688 1_655
Li1 O8 2.293405 1_555
Li2 O1 1.997403 1_555
Li2 O10 2.195404 1_555
Li2 O11 2.246080 1_555
Li2 O3 2.288688 1_555
Li2 O9 2.293405 1_555
Li3 O4 2.043872 1_555
Li3 O6 2.080258 1_555
Li3 O12 2.232862 1_655
Li3 O13 2.289161 1_555
Li3 O5 2.362187 1_654
Li4 O4 2.043872 1_555
Li4 O7 2.080258 1_555
Li4 O12 2.232862 1_555
Li4 O13 2.289161 1_555
Li4 O5 2.362187 1_554
Li5 O23 1.997403 1_555
Li5 O15 2.195404 1_555
Li5 O14 2.246080 1_555
Li5 O22 2.288688 1_555
Li5 O20 2.293405 1_555
Li6 O23 1.997403 1_555
Li6 O15 2.195404 1_455
Li6 O14 2.246080 1_555
Li6 O22 2.288688 1_455
Li6 O21 2.293405 1_555
Li7 O26 2.043872 1_555
Li7 O19 2.080258 1_555
Li7 O17 2.232862 1_555
Li7 O16 2.289161 1_555
Li7 O24 2.362187 1_556
Li8 O26 2.043872 1_555
Li8 O18 2.080258 1_555
Li8 O17 2.232862 1_455
Li8 O16 2.289161 1_555
Li8 O24 2.362187 1_456
Li9 O0 1.933550 1_545
Li9 O26 2.014401 1_554
Li9 O21 2.239985 1_555
Li9 O20 2.239985 1_555
Mn0 O7 2.010251 1_555
Mn0 O6 2.010251 1_455
Mn0 O3 2.080177 1_555
Mn0 O12 2.100924 1_555
Mn0 O14 2.167011 1_555
Mn0 O0 2.349115 1_555
Mn1 O9 2.037203 1_555
Mn1 O8 2.037203 1_455
Mn1 O10 2.138861 1_555
Mn1 O5 2.155076 1_555
Mn1 O16 2.172993 1_555
Mn1 O2 2.285637 1_555
Mn2 O18 2.010251 1_655
Mn2 O19 2.010251 1_555
Mn2 O22 2.080177 1_555
Mn2 O17 2.100924 1_555
Mn2 O11 2.167011 1_555
Mn2 O25 2.349115 1_555
Mn3 O20 2.037203 1_555
Mn3 O21 2.037203 1_655
Mn3 O15 2.138861 1_555
Mn3 O24 2.155076 1_555
Mn3 O13 2.172993 1_555
Mn3 O27 2.285637 1_555
C0 O23 1.276778 1_565
C0 O0 1.295079 1_555
C0 O3 1.325384 1_555
C1 O2 1.269566 1_555
C1 O26 1.306571 1_565
C1 O5 1.329002 1_555
C2 O1 1.276778 1_545
C2 O25 1.295079 1_555
C2 O22 1.325384 1_555
C3 O27 1.269566 1_555
C3 O4 1.306571 1_545
C3 O24 1.329002 1_555
O6 P0 1.546135 1_555
O7 P0 1.546135 1_555
O8 P1 1.555466 1_555
O9 P1 1.555466 1_555
O10 P2 1.560361 1_555
O11 P0 1.558009 1_555
O12 P3 1.546295 1_555
O13 P1 1.554789 1_554
O14 P2 1.558009 1_555
O15 P0 1.560361 1_555
O16 P3 1.554789 1_556
O17 P1 1.546295 1_555
O18 P2 1.546135 1_555
O19 P2 1.546135 1_555
O20 P3 1.555466 1_555
O21 P3 1.555466 1_555
