# generated using pymatgen
data_Li3BiS4
_symmetry_space_group_name_H-M   'P 1'
_cell_length_a   7.14167400
_cell_length_b   9.77378400
_cell_length_c   10.10778600
_cell_angle_alpha   90.00000000
_cell_angle_beta   90.00000000
_cell_angle_gamma   90.00000000
_symmetry_Int_Tables_number   1
_chemical_formula_structural   Li3BiS4
_chemical_formula_sum   'Li12 Bi4 S16'
_cell_volume   705.53538063
_cell_formula_units_Z   4
loop_
 _symmetry_equiv_pos_site_id
 _symmetry_equiv_pos_as_xyz
  1  'x, y, z'
loop_
 _atom_site_type_symbol
 _atom_site_label
 _atom_site_symmetry_multiplicity
 _atom_site_fract_x
 _atom_site_fract_y
 _atom_site_fract_z
 _atom_site_occupancy
  Li  Li0  1  0.22773300  0.21582800  0.58773000  1
  Li  Li1  1  0.22773300  0.21582800  0.91227000  1
  Li  Li2  1  0.19148000  0.39170600  0.25000000  1
  Li  Li3  1  0.30852000  0.89170600  0.75000000  1
  Li  Li4  1  0.27226700  0.71582800  0.41227000  1
  Li  Li5  1  0.27226700  0.71582800  0.08773000  1
  Li  Li6  1  0.72773300  0.28417200  0.58773000  1
  Li  Li7  1  0.72773300  0.28417200  0.91227000  1
  Li  Li8  1  0.69148000  0.10829400  0.25000000  1
  Li  Li9  1  0.80852000  0.60829400  0.75000000  1
  Li  Li10  1  0.77226700  0.78417200  0.08773000  1
  Li  Li11  1  0.77226700  0.78417200  0.41227000  1
  Bi  Bi0  1  0.24834500  0.01829400  0.25000000  1
  Bi  Bi1  1  0.25165500  0.51829400  0.75000000  1
  Bi  Bi2  1  0.74834500  0.48170600  0.25000000  1
  Bi  Bi3  1  0.75165500  0.98170600  0.75000000  1
  S  S0  1  0.00580200  0.80517200  0.75000000  1
  S  S1  1  0.14259000  0.48352900  0.47839100  1
  S  S2  1  0.14259000  0.48352900  0.02160900  1
  S  S3  1  0.03766600  0.80117300  0.25000000  1
  S  S4  1  0.46233400  0.30117300  0.75000000  1
  S  S5  1  0.35741000  0.98352900  0.97839100  1
  S  S6  1  0.35741000  0.98352900  0.52160900  1
  S  S7  1  0.49419800  0.30517200  0.25000000  1
  S  S8  1  0.50580200  0.69482800  0.75000000  1
  S  S9  1  0.64259000  0.01647100  0.47839100  1
  S  S10  1  0.64259000  0.01647100  0.02160900  1
  S  S11  1  0.53766600  0.69882700  0.25000000  1
  S  S12  1  0.96233400  0.19882700  0.75000000  1
  S  S13  1  0.85741000  0.51647100  0.97839100  1
  S  S14  1  0.85741000  0.51647100  0.52160900  1
  S  S15  1  0.99419800  0.19482800  0.25000000  1
loop_
_geom_bond_atom_site_label_1
_geom_bond_atom_site_label_2
_geom_bond_distance
_geom_bond_site_symmetry_2
Li0 S4 2.488600 1_555
Li0 S12 2.512041 1_455
Li0 S6 2.541506 1_545
Li0 S1 2.904647 1_555
Li1 S4 2.488600 1_555
Li1 S12 2.512041 1_455
Li1 S5 2.541506 1_545
Li1 S2 2.904647 1_556
Li2 S7 2.321462 1_555
Li2 S15 2.384906 1_455
Li2 S1 2.501328 1_555
Li2 S2 2.501328 1_555
Li3 S0 2.321462 1_555
Li3 S8 2.384906 1_555
Li3 S6 2.501328 1_555
Li3 S5 2.501328 1_555
Li4 S3 2.488600 1_555
Li4 S11 2.512041 1_555
Li4 S1 2.541506 1_555
Li4 S6 2.904647 1_555
Li5 S3 2.488600 1_555
Li5 S11 2.512041 1_555
Li5 S2 2.541506 1_555
Li5 S5 2.904647 1_554
Li6 S12 2.488600 1_555
Li6 S4 2.512041 1_555
Li6 S14 2.541506 1_555
Li6 S9 2.904647 1_555
Li7 S12 2.488600 1_555
Li7 S4 2.512041 1_555
Li7 S13 2.541506 1_555
Li7 S10 2.904647 1_556
Li8 S15 2.321462 1_555
Li8 S7 2.384906 1_555
Li8 S9 2.501328 1_555
Li8 S10 2.501328 1_555
Li9 S8 2.321462 1_555
Li9 S0 2.384906 1_655
Li9 S13 2.501328 1_555
Li9 S14 2.501328 1_555
Li10 S11 2.488600 1_555
Li10 S3 2.512041 1_655
Li10 S10 2.541506 1_565
Li10 S13 2.904647 1_554
Li11 S11 2.488600 1_555
Li11 S3 2.512041 1_655
Li11 S9 2.541506 1_565
Li11 S14 2.904647 1_555
Bi0 S15 2.504271 1_455
Bi0 S3 2.601366 1_545
Bi0 S6 2.873879 1_545
Bi0 S5 2.873879 1_544
Bi0 Li8 3.284700 1_555
Bi1 S8 2.504271 1_555
Bi1 S4 2.601366 1_555
Bi1 S2 2.873879 1_556
Bi1 S1 2.873879 1_555
Bi1 Li9 3.284700 1_455
Bi2 S7 2.504271 1_555
Bi2 S11 2.601366 1_555
Bi2 S13 2.873879 1_554
Bi2 S14 2.873879 1_555
Bi2 Li2 3.284700 1_655
Bi3 S0 2.504271 1_655
Bi3 S12 2.601366 1_565
Bi3 S10 2.873879 1_566
Bi3 S9 2.873879 1_565
Bi3 Li3 3.284700 1_555
S1 S14 2.107720 1_455
S6 S9 2.107720 1_565
S10 S5 2.107720 1_544
S13 S2 2.107720 1_656
