# generated using pymatgen
data_Li(NiO2)2
_symmetry_space_group_name_H-M   'P 1'
_cell_length_a   8.11274700
_cell_length_b   8.11274700
_cell_length_c   8.11274700
_cell_angle_alpha   90.00000000
_cell_angle_beta   90.00000000
_cell_angle_gamma   90.00000000
_symmetry_Int_Tables_number   1
_chemical_formula_structural   Li(NiO2)2
_chemical_formula_sum   'Li8 Ni16 O32'
_cell_volume   533.95394249
_cell_formula_units_Z   8
loop_
 _symmetry_equiv_pos_site_id
 _symmetry_equiv_pos_as_xyz
  1  'x, y, z'
loop_
 _atom_site_type_symbol
 _atom_site_label
 _atom_site_symmetry_multiplicity
 _atom_site_fract_x
 _atom_site_fract_y
 _atom_site_fract_z
 _atom_site_occupancy
  Li  Li0  1  0.00630100  0.00630100  0.00630100  1
  Li  Li1  1  0.24369900  0.24369900  0.24369900  1
  Li  Li2  1  0.25630100  0.75630100  0.74369900  1
  Li  Li3  1  0.49369900  0.99369900  0.50630100  1
  Li  Li4  1  0.50630100  0.49369900  0.99369900  1
  Li  Li5  1  0.74369900  0.25630100  0.75630100  1
  Li  Li6  1  0.75630100  0.74369900  0.25630100  1
  Li  Li7  1  0.99369900  0.50630100  0.49369900  1
  Ni  Ni0  1  0.11559600  0.13440400  0.62500000  1
  Ni  Ni1  1  0.12500000  0.38440400  0.86559600  1
  Ni  Ni2  1  0.12500000  0.87500000  0.37500000  1
  Ni  Ni3  1  0.13440400  0.62500000  0.11559600  1
  Ni  Ni4  1  0.36559600  0.37500000  0.61559600  1
  Ni  Ni5  1  0.37500000  0.12500000  0.87500000  1
  Ni  Ni6  1  0.37500000  0.61559600  0.36559600  1
  Ni  Ni7  1  0.38440400  0.86559600  0.12500000  1
  Ni  Ni8  1  0.61559600  0.36559600  0.37500000  1
  Ni  Ni9  1  0.62500000  0.11559600  0.13440400  1
  Ni  Ni10  1  0.62500000  0.62500000  0.62500000  1
  Ni  Ni11  1  0.63440400  0.87500000  0.88440400  1
  Ni  Ni12  1  0.86559600  0.12500000  0.38440400  1
  Ni  Ni13  1  0.87500000  0.37500000  0.12500000  1
  Ni  Ni14  1  0.87500000  0.88440400  0.63440400  1
  Ni  Ni15  1  0.88440400  0.63440400  0.87500000  1
  O  O0  1  0.09538400  0.12695700  0.39460100  1
  O  O1  1  0.10539900  0.90461600  0.62695700  1
  O  O2  1  0.11697600  0.61697600  0.88302400  1
  O  O3  1  0.12304300  0.15461600  0.85539900  1
  O  O4  1  0.12695700  0.39460100  0.09538400  1
  O  O5  1  0.13302400  0.36697600  0.63302400  1
  O  O6  1  0.14460100  0.62304300  0.34538400  1
  O  O7  1  0.15461600  0.85539900  0.12304300  1
  O  O8  1  0.34538400  0.14460100  0.62304300  1
  O  O9  1  0.35539900  0.37695700  0.84538400  1
  O  O10  1  0.36697600  0.63302400  0.13302400  1
  O  O11  1  0.37304300  0.60539900  0.59538400  1
  O  O12  1  0.37695700  0.84538400  0.35539900  1
  O  O13  1  0.38302400  0.38302400  0.38302400  1
  O  O14  1  0.39460100  0.09538400  0.12695700  1
  O  O15  1  0.40461600  0.87304300  0.89460100  1
  O  O16  1  0.59538400  0.37304300  0.60539900  1
  O  O17  1  0.60539900  0.59538400  0.37304300  1
  O  O18  1  0.61697600  0.88302400  0.11697600  1
  O  O19  1  0.62304300  0.34538400  0.14460100  1
  O  O20  1  0.62695700  0.10539900  0.90461600  1
  O  O21  1  0.63302400  0.13302400  0.36697600  1
  O  O22  1  0.64460100  0.87695700  0.65461600  1
  O  O23  1  0.65461600  0.64460100  0.87695700  1
  O  O24  1  0.84538400  0.35539900  0.37695700  1
  O  O25  1  0.85539900  0.12304300  0.15461600  1
  O  O26  1  0.86697600  0.86697600  0.86697600  1
  O  O27  1  0.87304300  0.89460100  0.40461600  1
  O  O28  1  0.87695700  0.65461600  0.64460100  1
  O  O29  1  0.88302400  0.11697600  0.61697600  1
  O  O30  1  0.89460100  0.40461600  0.87304300  1
  O  O31  1  0.90461600  0.62695700  0.10539900  1
loop_
_geom_bond_atom_site_label_1
_geom_bond_atom_site_label_2
_geom_bond_distance
_geom_bond_site_symmetry_2
Li0 O26 1.957752 1_444
Li0 O3 1.960491 1_554
Li0 O25 1.960491 1_455
Li0 O7 1.960491 1_545
Li1 O13 1.957752 1_555
Li1 O4 1.960491 1_555
Li1 O14 1.960491 1_555
Li1 O0 1.960491 1_555
Li2 O2 1.957752 1_555
Li2 O15 1.960491 1_555
Li2 O11 1.960491 1_555
Li2 O1 1.960491 1_555
Li3 O21 1.957752 1_565
Li3 O12 1.960491 1_555
Li3 O22 1.960491 1_555
Li3 O8 1.960491 1_565
Li4 O10 1.957752 1_556
Li4 O23 1.960491 1_555
Li4 O9 1.960491 1_555
Li4 O19 1.960491 1_556
Li5 O29 1.957752 1_555
Li5 O16 1.960491 1_555
Li5 O20 1.960491 1_555
Li5 O30 1.960491 1_555
Li6 O18 1.957752 1_555
Li6 O31 1.960491 1_555
Li6 O27 1.960491 1_555
Li6 O17 1.960491 1_555
Li7 O5 1.957752 1_655
Li7 O28 1.960491 1_555
Li7 O6 1.960491 1_655
Li7 O24 1.960491 1_555
Ni0 O8 1.866114 1_555
Ni0 O1 1.866114 1_545
Ni0 O0 1.877320 1_555
Ni0 O3 1.877320 1_555
Ni0 O29 1.893207 1_455
Ni0 O5 1.893207 1_555
Ni1 O4 1.866114 1_556
Ni1 O3 1.866114 1_555
Ni1 O30 1.877320 1_455
Ni1 O9 1.877320 1_555
Ni1 O2 1.893207 1_555
Ni1 O5 1.893207 1_555
Ni2 O7 2.064270 1_555
Ni2 O0 2.064270 1_565
Ni2 O27 2.064270 1_455
Ni2 O1 2.064270 1_555
Ni2 O12 2.064270 1_555
Ni2 O6 2.064270 1_555
Ni3 O31 1.866114 1_455
Ni3 O6 1.866114 1_555
Ni3 O7 1.877320 1_555
Ni3 O4 1.877320 1_555
Ni3 O2 1.893207 1_554
Ni3 O10 1.893207 1_555
Ni4 O9 1.866114 1_555
Ni4 O16 1.866114 1_555
Ni4 O8 1.877320 1_555
Ni4 O11 1.877320 1_555
Ni4 O5 1.893207 1_555
Ni4 O13 1.893207 1_555
Ni5 O8 2.064270 1_555
Ni5 O14 2.064270 1_556
Ni5 O3 2.064270 1_555
Ni5 O9 2.064270 1_555
Ni5 O20 2.064270 1_555
Ni5 O15 2.064270 1_545
Ni6 O12 1.866114 1_555
Ni6 O11 1.866114 1_555
Ni6 O6 1.877320 1_555
Ni6 O17 1.877320 1_555
Ni6 O10 1.893207 1_555
Ni6 O13 1.893207 1_555
Ni7 O14 1.866114 1_565
Ni7 O7 1.866114 1_555
Ni7 O15 1.877320 1_554
Ni7 O12 1.877320 1_555
Ni7 O18 1.893207 1_555
Ni7 O10 1.893207 1_555
Ni8 O24 1.866114 1_555
Ni8 O17 1.866114 1_555
Ni8 O19 1.877320 1_555
Ni8 O16 1.877320 1_555
Ni8 O21 1.893207 1_555
Ni8 O13 1.893207 1_555
Ni9 O20 1.866114 1_554
Ni9 O19 1.866114 1_555
Ni9 O14 1.877320 1_555
Ni9 O25 1.877320 1_555
Ni9 O18 1.893207 1_545
Ni9 O21 1.893207 1_555
Ni10 O16 2.064270 1_555
Ni10 O23 2.064270 1_555
Ni10 O17 2.064270 1_555
Ni10 O11 2.064270 1_555
Ni10 O28 2.064270 1_555
Ni10 O22 2.064270 1_555
Ni11 O22 1.866114 1_555
Ni11 O15 1.866114 1_555
Ni11 O23 1.877320 1_555
Ni11 O20 1.877320 1_565
Ni11 O18 1.893207 1_556
Ni11 O26 1.893207 1_555
Ni12 O0 1.866114 1_655
Ni12 O25 1.866114 1_555
Ni12 O27 1.877320 1_545
Ni12 O24 1.877320 1_555
Ni12 O29 1.893207 1_555
Ni12 O21 1.893207 1_555
Ni13 O19 2.064270 1_555
Ni13 O30 2.064270 1_554
Ni13 O4 2.064270 1_655
Ni13 O24 2.064270 1_555
Ni13 O31 2.064270 1_555
Ni13 O25 2.064270 1_555
Ni14 O28 1.866114 1_555
Ni14 O27 1.866114 1_555
Ni14 O1 1.877320 1_655
Ni14 O22 1.877320 1_555
Ni14 O29 1.893207 1_565
Ni14 O26 1.893207 1_555
Ni15 O23 1.866114 1_555
Ni15 O30 1.866114 1_555
Ni15 O31 1.877320 1_556
Ni15 O28 1.877320 1_555
Ni15 O2 1.893207 1_655
Ni15 O26 1.893207 1_555
