# generated using pymatgen
data_Li3Ti3(PO4)4
_symmetry_space_group_name_H-M   'P 1'
_cell_length_a   8.08045100
_cell_length_b   7.72580100
_cell_length_c   10.25670254
_cell_angle_alpha   85.16926668
_cell_angle_beta   90.00000000
_cell_angle_gamma   90.00000000
_symmetry_Int_Tables_number   1
_chemical_formula_structural   Li3Ti3(PO4)4
_chemical_formula_sum   'Li6 Ti6 P8 O32'
_cell_volume   638.03050769
_cell_formula_units_Z   2
loop_
 _symmetry_equiv_pos_site_id
 _symmetry_equiv_pos_as_xyz
  1  'x, y, z'
loop_
 _atom_site_type_symbol
 _atom_site_label
 _atom_site_symmetry_multiplicity
 _atom_site_fract_x
 _atom_site_fract_y
 _atom_site_fract_z
 _atom_site_occupancy
  Li  Li0  1  0.63049400  0.15756600  0.16858400  1
  Li  Li1  1  0.13049400  0.84243400  0.83141600  1
  Li  Li2  1  0.85784600  0.63858800  0.42135100  1
  Li  Li3  1  0.86842300  0.64987500  0.92216400  1
  Li  Li4  1  0.35784600  0.36141200  0.57864900  1
  Li  Li5  1  0.36842300  0.35012500  0.07783600  1
  Ti  Ti0  1  0.00476500  0.25856700  0.62962800  1
  Ti  Ti1  1  0.99690100  0.26218000  0.12303500  1
  Ti  Ti2  1  0.64908200  0.14908900  0.67500600  1
  Ti  Ti3  1  0.14908200  0.85091100  0.32499400  1
  Ti  Ti4  1  0.50476500  0.74143300  0.37037200  1
  Ti  Ti5  1  0.49690100  0.73782000  0.87696500  1
  P  P0  1  0.80248000  0.04658500  0.38866500  1
  P  P1  1  0.81251700  0.04641800  0.90207900  1
  P  P2  1  0.30248000  0.95341500  0.61133500  1
  P  P3  1  0.31251700  0.95358200  0.09792100  1
  P  P4  1  0.69642300  0.55221600  0.64512400  1
  P  P5  1  0.69031700  0.54713400  0.14281600  1
  P  P6  1  0.19031700  0.45286600  0.85718400  1
  P  P7  1  0.19642300  0.44778400  0.35487600  1
  O  O0  1  0.85756600  0.19137700  0.78794300  1
  O  O1  1  0.86109800  0.19108200  0.28655000  1
  O  O2  1  0.80332300  0.12416700  0.52726000  1
  O  O3  1  0.42563100  0.10672100  0.60061400  1
  O  O4  1  0.80727200  0.13356900  0.03109500  1
  O  O5  1  0.42653800  0.10622300  0.09524800  1
  O  O6  1  0.12820000  0.01381400  0.64758700  1
  O  O7  1  0.63323600  0.99712200  0.84820500  1
  O  O8  1  0.13323600  0.00287800  0.15179500  1
  O  O9  1  0.62820000  0.98618600  0.35241300  1
  O  O10  1  0.92563100  0.89327900  0.39938600  1
  O  O11  1  0.30332300  0.87583300  0.47274000  1
  O  O12  1  0.92653800  0.89377700  0.90475200  1
  O  O13  1  0.36109800  0.80891800  0.71345000  1
  O  O14  1  0.30727200  0.86643100  0.96890500  1
  O  O15  1  0.35756600  0.80862300  0.21205700  1
  O  O16  1  0.63853700  0.68738400  0.53535500  1
  O  O17  1  0.69083700  0.63106300  0.77797200  1
  O  O18  1  0.63638700  0.69031900  0.03242500  1
  O  O19  1  0.07255800  0.60395600  0.84715900  1
  O  O20  1  0.69272700  0.63527000  0.27546700  1
  O  O21  1  0.07704800  0.60875500  0.34871100  1
  O  O22  1  0.37079500  0.50996600  0.39561100  1
  O  O23  1  0.87079500  0.49003400  0.60438900  1
  O  O24  1  0.36900100  0.50721000  0.89599200  1
  O  O25  1  0.86900100  0.49279000  0.10400800  1
  O  O26  1  0.57704800  0.39124500  0.65128900  1
  O  O27  1  0.19272700  0.36473000  0.72453300  1
  O  O28  1  0.57255800  0.39604400  0.15284100  1
  O  O29  1  0.19083700  0.36893700  0.22202800  1
  O  O30  1  0.13853700  0.31261600  0.46464500  1
  O  O31  1  0.13638700  0.30968100  0.96757500  1
loop_
_geom_bond_atom_site_label_1
_geom_bond_atom_site_label_2
_geom_bond_distance
_geom_bond_site_symmetry_2
Li0 O5 1.868012 1_555
Li0 O28 1.894648 1_555
Li0 O4 2.026692 1_555
Li0 O9 2.210885 1_545
Li0 O1 2.248550 1_555
Li1 O12 1.868012 1_455
Li1 O19 1.894648 1_555
Li1 O14 2.026692 1_555
Li1 O6 2.210885 1_565
Li1 O13 2.248550 1_555
Li2 O21 1.942800 1_655
Li2 O20 2.006535 1_555
Li2 O10 2.036643 1_555
Li2 O23 2.118907 1_555
Li2 O16 2.173484 1_555
Li3 O19 1.866684 1_655
Li3 O12 1.935579 1_555
Li3 O17 2.074542 1_555
Li3 O25 2.137827 1_556
Li3 O18 2.225213 1_556
Li4 O26 1.942800 1_555
Li4 O27 2.006535 1_555
Li4 O3 2.036643 1_555
Li4 O22 2.118907 1_555
Li4 O30 2.173484 1_555
Li5 O28 1.866684 1_555
Li5 O5 1.935579 1_555
Li5 O29 2.074542 1_555
Li5 O24 2.137827 1_554
Li5 O31 2.225213 1_554
O0 P1 1.592598 1_555
O0 Ti0 2.044246 1_655
O0 Ti2 2.085739 1_555
O1 P0 1.539690 1_555
O1 Ti1 2.040462 1_555
O2 P0 1.588569 1_555
O2 Ti2 1.983927 1_555
O2 Ti0 2.239139 1_655
O3 P2 1.543775 1_545
O3 Ti2 1.997884 1_555
O4 P1 1.535016 1_554
O4 Ti1 2.093384 1_555
O5 P3 1.494946 1_545
O6 P2 1.538967 1_545
O6 Ti0 2.132052 1_555
O7 P1 1.607630 1_565
O7 Ti2 2.049226 1_565
O7 Ti5 2.283503 1_555
O8 P3 1.607630 1_545
O8 Ti3 2.049226 1_545
O8 Ti1 2.283503 1_455
O9 P0 1.538967 1_565
O9 Ti4 2.132052 1_555
O10 P0 1.543775 1_565
O10 Ti3 1.997884 1_655
O11 P2 1.588569 1_555
O11 Ti3 1.983927 1_555
O11 Ti4 2.239139 1_555
O12 P1 1.494946 1_565
O13 P2 1.539690 1_555
O13 Ti5 2.040462 1_555
O14 P3 1.535016 1_556
O14 Ti5 2.093384 1_555
O15 P3 1.592598 1_555
O15 Ti4 2.044246 1_555
O15 Ti3 2.085739 1_555
O16 P4 1.542357 1_555
O16 Ti4 2.021698 1_555
O17 P4 1.539330 1_555
O17 Ti5 2.075573 1_555
O18 P5 1.576278 1_555
O18 Ti5 1.961874 1_554
O19 P6 1.502786 1_555
O20 P5 1.572004 1_555
O20 Ti4 2.015323 1_555
O21 P7 1.570933 1_555
O21 Ti3 1.954841 1_555
O22 P7 1.557065 1_555
O22 Ti4 2.087782 1_555
O23 P4 1.557065 1_555
O23 Ti0 2.087782 1_655
O24 P6 1.564466 1_555
O24 Ti5 2.054724 1_555
O25 P5 1.564466 1_555
O25 Ti1 2.054724 1_555
O26 P4 1.570933 1_555
O26 Ti2 1.954841 1_555
O27 P6 1.572004 1_555
O27 Ti0 2.015323 1_555
O28 P5 1.502786 1_555
O29 P7 1.539330 1_555
O29 Ti1 2.075573 1_455
O30 P7 1.542357 1_555
O30 Ti0 2.021698 1_555
O31 P6 1.576278 1_555
O31 Ti1 1.961874 1_456
