# generated using pymatgen
data_Mn2V3P6WO24
_symmetry_space_group_name_H-M   'P 1'
_cell_length_a   8.73067693
_cell_length_b   8.73067693
_cell_length_c   8.73067624
_cell_angle_alpha   59.94348387
_cell_angle_beta   59.94348387
_cell_angle_gamma   59.94348561
_symmetry_Int_Tables_number   1
_chemical_formula_structural   Mn2V3P6WO24
_chemical_formula_sum   'Mn2 V3 P6 W1 O24'
_cell_volume   469.97167564
_cell_formula_units_Z   1
loop_
 _symmetry_equiv_pos_site_id
 _symmetry_equiv_pos_as_xyz
  1  'x, y, z'
loop_
 _atom_site_type_symbol
 _atom_site_label
 _atom_site_symmetry_multiplicity
 _atom_site_fract_x
 _atom_site_fract_y
 _atom_site_fract_z
 _atom_site_occupancy
  Mn  Mn0  1  0.00478100  0.00478100  0.00478100  1
  Mn  Mn1  1  0.50018200  0.50018200  0.50018200  1
  V  V0  1  0.35668000  0.35668000  0.35668000  1
  V  V1  1  0.14434000  0.14434000  0.14434000  1
  V  V2  1  0.64331200  0.64331200  0.64331200  1
  P  P0  1  0.04355200  0.45384000  0.74735900  1
  P  P1  1  0.45384000  0.74735900  0.04355200  1
  P  P2  1  0.74735900  0.04355200  0.45384000  1
  P  P3  1  0.25447100  0.95704900  0.53808400  1
  P  P4  1  0.53808400  0.25447100  0.95704900  1
  P  P5  1  0.95704900  0.53808400  0.25447100  1
  W  W0  1  0.85641100  0.85641100  0.85641100  1
  O  O0  1  0.49683000  0.68981500  0.88587700  1
  O  O1  1  0.68981500  0.88587700  0.49683000  1
  O  O2  1  0.88587700  0.49683000  0.68981500  1
  O  O3  1  0.05932600  0.26477600  0.91218000  1
  O  O4  1  0.00253400  0.61431600  0.81227000  1
  O  O5  1  0.23565500  0.44497200  0.58830200  1
  O  O6  1  0.26477600  0.91218000  0.05932600  1
  O  O7  1  0.44497200  0.58830200  0.23565500  1
  O  O8  1  0.19051000  0.99290700  0.38639500  1
  O  O9  1  0.58830200  0.23565500  0.44497200  1
  O  O10  1  0.08584700  0.93550000  0.73645200  1
  O  O11  1  0.38639500  0.19051000  0.99290700  1
  O  O12  1  0.61431600  0.81227000  0.00253400  1
  O  O13  1  0.91218000  0.05932600  0.26477600  1
  O  O14  1  0.41106000  0.76269100  0.56254400  1
  O  O15  1  0.81227000  0.00253400  0.61431600  1
  O  O16  1  0.56254400  0.41106000  0.76269100  1
  O  O17  1  0.73645200  0.08584700  0.93550000  1
  O  O18  1  0.76269100  0.56254400  0.41106000  1
  O  O19  1  0.99290700  0.38639500  0.19051000  1
  O  O20  1  0.93550000  0.73645200  0.08584700  1
  O  O21  1  0.11527800  0.51097200  0.30293900  1
  O  O22  1  0.30293900  0.11527800  0.51097200  1
  O  O23  1  0.51097200  0.30293900  0.11527800  1
loop_
_geom_bond_atom_site_label_1
_geom_bond_atom_site_label_2
_geom_bond_distance
_geom_bond_site_symmetry_2
Mn0 O13 2.211752 1_455
Mn0 O6 2.211753 1_545
Mn0 O3 2.211753 1_554
Mn0 O10 2.384265 1_544
Mn0 O17 2.384265 1_454
Mn0 O20 2.384265 1_445
Mn1 O7 2.263148 1_555
Mn1 O9 2.263148 1_555
Mn1 O5 2.263148 1_555
Mn1 O16 2.279002 1_555
Mn1 O14 2.279002 1_555
Mn1 O18 2.279002 1_555
O0 P1 1.508198 1_556
O0 V2 1.978244 1_555
O1 P2 1.508199 1_565
O1 V2 1.978244 1_555
O2 P0 1.508199 1_655
O2 V2 1.978244 1_555
O3 P0 1.551065 1_555
O3 V1 2.086917 1_556
O4 P0 1.581728 1_555
O4 W0 1.966202 1_455
O5 P0 1.546594 1_555
O5 V0 2.098867 1_555
O6 P1 1.551065 1_555
O6 V1 2.086917 1_565
O7 P1 1.546594 1_555
O7 V0 2.098867 1_555
O8 P3 1.521222 1_555
O8 V1 1.974131 1_565
O9 P2 1.546594 1_555
O9 V0 2.098867 1_555
O10 P3 1.612211 1_555
O10 W0 2.036128 1_455
O11 P4 1.521222 1_555
O11 V1 1.974131 1_556
O12 P1 1.581728 1_555
O12 W0 1.966202 1_554
O13 P2 1.551065 1_555
O13 V1 2.086917 1_655
O14 P3 1.549092 1_555
O14 V2 2.067430 1_555
O15 P2 1.581728 1_555
O15 W0 1.966202 1_545
O16 P4 1.549092 1_555
O16 V2 2.067430 1_555
O17 P4 1.612211 1_555
O17 W0 2.036128 1_545
O18 P5 1.549092 1_555
O18 V2 2.067430 1_555
O19 P5 1.521222 1_555
O19 V1 1.974131 1_655
O20 P5 1.612211 1_555
O20 W0 2.036128 1_554
O21 P5 1.516959 1_455
O21 V0 1.997559 1_555
O22 P3 1.516959 1_545
O22 V0 1.997559 1_555
O23 P4 1.516959 1_554
O23 V0 1.997559 1_555
