# generated using pymatgen
data_Mn2CuO4
_symmetry_space_group_name_H-M   'P 1'
_cell_length_a   6.02532167
_cell_length_b   6.02532167
_cell_length_c   24.88134301
_cell_angle_alpha   82.26868642
_cell_angle_beta   82.26868642
_cell_angle_gamma   59.72612555
_symmetry_Int_Tables_number   1
_chemical_formula_structural   Mn2CuO4
_chemical_formula_sum   'Mn20 Cu10 O40'
_cell_volume   770.67351169
_cell_formula_units_Z   10
loop_
 _symmetry_equiv_pos_site_id
 _symmetry_equiv_pos_as_xyz
  1  'x, y, z'
loop_
 _atom_site_type_symbol
 _atom_site_label
 _atom_site_symmetry_multiplicity
 _atom_site_fract_x
 _atom_site_fract_y
 _atom_site_fract_z
 _atom_site_occupancy
  Mn  Mn0  1  0.00447700  0.00447700  0.99973200  1
  Mn  Mn1  1  0.40451000  0.40451000  0.79952500  1
  Mn  Mn2  1  0.37685800  0.87364000  0.87518400  1
  Mn  Mn3  1  0.87364000  0.37685800  0.87518400  1
  Mn  Mn4  1  0.80458000  0.80458000  0.59939500  1
  Mn  Mn5  1  0.67487500  0.67487500  0.97478700  1
  Mn  Mn6  1  0.77704100  0.27367600  0.67516300  1
  Mn  Mn7  1  0.07513400  0.07513400  0.77463600  1
  Mn  Mn8  1  0.27367600  0.77704100  0.67516300  1
  Mn  Mn9  1  0.20395000  0.20395000  0.40031700  1
  Mn  Mn10  1  0.17731800  0.67352300  0.47514200  1
  Mn  Mn11  1  0.67352300  0.17731800  0.47514200  1
  Mn  Mn12  1  0.47527600  0.47527600  0.57451200  1
  Mn  Mn13  1  0.57701200  0.07372900  0.27416000  1
  Mn  Mn14  1  0.87821600  0.87821600  0.37428500  1
  Mn  Mn15  1  0.07372900  0.57701200  0.27416000  1
  Mn  Mn16  1  0.07431400  0.07431400  0.27434400  1
  Mn  Mn17  1  0.97490900  0.47504700  0.07596100  1
  Mn  Mn18  1  0.27268900  0.27268900  0.17472000  1
  Mn  Mn19  1  0.47504700  0.97490900  0.07596100  1
  Cu  Cu0  1  0.34731600  0.34731600  0.95096400  1
  Cu  Cu1  1  0.74748300  0.74748300  0.75029700  1
  Cu  Cu2  1  0.87405600  0.87405600  0.87520300  1
  Cu  Cu3  1  0.14730300  0.14730300  0.55038700  1
  Cu  Cu4  1  0.27434800  0.27434800  0.67512200  1
  Cu  Cu5  1  0.55107300  0.55107300  0.35024900  1
  Cu  Cu6  1  0.59904900  0.59904900  0.19890400  1
  Cu  Cu7  1  0.67482700  0.67482700  0.47488500  1
  Cu  Cu8  1  0.94801500  0.94801500  0.14970900  1
  Cu  Cu9  1  0.47417800  0.47417800  0.07612100  1
  O  O0  1  0.53356300  0.53356300  0.92345100  1
  O  O1  1  0.53248900  0.98874300  0.92392300  1
  O  O2  1  0.71428900  0.71428900  0.83261400  1
  O  O3  1  0.98874300  0.53248900  0.92392300  1
  O  O4  1  0.93395100  0.93395100  0.72334700  1
  O  O5  1  0.76401900  0.21590700  0.82638200  1
  O  O6  1  0.03569000  0.03569000  0.91687200  1
  O  O7  1  0.21590700  0.76401900  0.82638200  1
  O  O8  1  0.11472200  0.11472200  0.63268900  1
  O  O9  1  0.93274000  0.38835700  0.72371000  1
  O  O10  1  0.38835700  0.93274000  0.72371000  1
  O  O11  1  0.21326000  0.21326000  0.82687600  1
  O  O12  1  0.33370600  0.33370600  0.52309200  1
  O  O13  1  0.16343900  0.61547900  0.62646400  1
  O  O14  1  0.61547900  0.16343900  0.62646400  1
  O  O15  1  0.51593600  0.51593600  0.43241000  1
  O  O16  1  0.43510700  0.43510700  0.71677600  1
  O  O17  1  0.33212900  0.78839700  0.52379900  1
  O  O18  1  0.78839700  0.33212900  0.52379900  1
  O  O19  1  0.61331100  0.61331100  0.62704900  1
  O  O20  1  0.73992400  0.73992400  0.32058100  1
  O  O21  1  0.56472600  0.01762500  0.42550300  1
  O  O22  1  0.83382200  0.83382200  0.51661400  1
  O  O23  1  0.01762500  0.56472600  0.42550300  1
  O  O24  1  0.92189300  0.92189300  0.23114200  1
  O  O25  1  0.74786200  0.19306000  0.32296800  1
  O  O26  1  0.19306000  0.74786200  0.32296800  1
  O  O27  1  0.01397000  0.01397000  0.42816100  1
  O  O28  1  0.13504400  0.13504400  0.12235200  1
  O  O29  1  0.95524400  0.40243800  0.22652100  1
  O  O30  1  0.22887200  0.22887200  0.31728200  1
  O  O31  1  0.13050100  0.58926300  0.12447100  1
  O  O32  1  0.40243800  0.95524400  0.22652100  1
  O  O33  1  0.31599100  0.31599100  0.03324400  1
  O  O34  1  0.58926300  0.13050100  0.12447100  1
  O  O35  1  0.40951600  0.40951600  0.22826900  1
  O  O36  1  0.36464200  0.81581200  0.02691600  1
  O  O37  1  0.63373400  0.63373400  0.11831700  1
  O  O38  1  0.81581200  0.36464200  0.02691600  1
  O  O39  1  0.81240300  0.81240300  0.02823600  1
loop_
_geom_bond_atom_site_label_1
_geom_bond_atom_site_label_2
_geom_bond_distance
_geom_bond_site_symmetry_2
Mn0 O39 2.022492 1_446
Mn0 O6 2.036721 1_555
Mn0 O38 2.039569 1_456
Mn0 O36 2.039569 1_546
Mn1 O11 2.008928 1_555
Mn1 O7 2.033066 1_555
Mn1 O5 2.033066 1_555
Mn1 O16 2.033983 1_555
Mn2 O2 1.975696 1_555
Mn2 O6 1.982426 1_565
Mn2 O1 2.004722 1_555
Mn2 O7 2.007392 1_555
Mn2 O0 2.055420 1_555
Mn2 O11 2.055974 1_565
Mn3 O2 1.975696 1_555
Mn3 O6 1.982426 1_655
Mn3 O3 2.004722 1_555
Mn3 O5 2.007392 1_555
Mn3 O0 2.055420 1_555
Mn3 O11 2.055974 1_655
Mn4 O19 2.010519 1_555
Mn4 O13 2.031862 1_655
Mn4 O14 2.031862 1_565
Mn4 O22 2.034817 1_555
Mn5 O3 1.981528 1_555
Mn5 O1 1.981528 1_555
Mn5 O38 1.985218 1_556
Mn5 O36 1.985218 1_556
Mn5 O0 2.097056 1_555
Mn5 O39 2.104104 1_556
Mn6 O8 1.975574 1_655
Mn6 O16 1.984765 1_555
Mn6 O9 1.999922 1_555
Mn6 O14 2.010685 1_555
Mn6 O4 2.052951 1_545
Mn6 O19 2.053597 1_555
Mn7 O9 1.979884 1_455
Mn7 O10 1.979884 1_545
Mn7 O5 1.983036 1_455
Mn7 O7 1.983036 1_545
Mn7 O11 2.086925 1_555
Mn7 O4 2.095139 1_445
Mn8 O8 1.975574 1_565
Mn8 O16 1.984765 1_555
Mn8 O10 1.999922 1_555
Mn8 O13 2.010685 1_555
Mn8 O4 2.052951 1_455
Mn8 O19 2.053597 1_555
Mn9 O27 1.998751 1_555
Mn9 O23 2.023626 1_555
Mn9 O21 2.023626 1_555
Mn9 O30 2.041896 1_555
Mn10 O15 1.982286 1_555
Mn10 O22 1.989777 1_455
Mn10 O17 1.998776 1_555
Mn10 O23 2.013592 1_555
Mn10 O27 2.042484 1_565
Mn10 O12 2.050248 1_555
Mn11 O15 1.982286 1_555
Mn11 O22 1.989777 1_545
Mn11 O18 1.998776 1_555
Mn11 O21 2.013592 1_555
Mn11 O27 2.042484 1_655
Mn11 O12 2.050248 1_555
Mn12 O18 1.976649 1_555
Mn12 O17 1.976649 1_555
Mn12 O14 1.988676 1_555
Mn12 O13 1.988676 1_555
Mn12 O19 2.091579 1_555
Mn12 O12 2.100711 1_555
Mn13 O20 2.008052 1_545
Mn13 O35 2.011333 1_555
Mn13 O24 2.012210 1_545
Mn13 O30 2.027906 1_555
Mn13 O32 2.083592 1_545
Mn13 O25 2.090228 1_555
Mn14 O21 1.984458 1_565
Mn14 O23 1.984458 1_655
Mn14 O25 1.990419 1_565
Mn14 O26 1.990419 1_655
Mn14 O27 2.097547 1_665
Mn14 O20 2.115023 1_555
Mn15 O20 2.008052 1_455
Mn15 O35 2.011333 1_555
Mn15 O24 2.012210 1_455
Mn15 O30 2.027906 1_555
Mn15 O29 2.083592 1_455
Mn15 O26 2.090228 1_555
Mn16 O32 2.001478 1_545
Mn16 O29 2.001478 1_455
Mn16 O26 2.004559 1_545
Mn16 O25 2.004559 1_455
Mn16 O24 2.055225 1_445
Mn16 O30 2.070187 1_555
Mn17 O37 1.989260 1_555
Mn17 O33 1.993037 1_655
Mn17 O31 1.996940 1_655
Mn17 O38 2.006670 1_555
Mn17 O28 2.032391 1_655
Mn17 O39 2.038930 1_555
Mn18 O31 1.983533 1_555
Mn18 O34 1.983533 1_555
Mn18 O32 2.007729 1_545
Mn18 O29 2.007729 1_455
Mn18 O28 2.085295 1_555
Mn18 O35 2.100227 1_555
Mn19 O37 1.989260 1_555
Mn19 O33 1.993037 1_565
Mn19 O34 1.996940 1_565
Mn19 O36 2.006670 1_555
Mn19 O28 2.032391 1_565
Mn19 O39 2.038930 1_555
Cu0 O0 1.960520 1_555
Cu0 O33 2.022478 1_556
Cu0 O3 2.030769 1_455
Cu0 O1 2.030769 1_545
Cu1 O4 1.960007 1_555
Cu1 O2 2.023574 1_555
Cu1 O9 2.029030 1_555
Cu1 O10 2.029030 1_555
Cu2 O1 2.074314 1_555
Cu2 O3 2.074314 1_555
Cu2 O7 2.079505 1_655
Cu2 O5 2.079505 1_565
Cu2 O2 2.111767 1_555
Cu2 O6 2.114597 1_665
Cu3 O12 1.961000 1_555
Cu3 O8 2.023124 1_555
Cu3 O18 2.028018 1_455
Cu3 O17 2.028018 1_545
Cu4 O10 2.073239 1_545
Cu4 O9 2.073239 1_455
Cu4 O14 2.073718 1_555
Cu4 O13 2.073718 1_555
Cu4 O16 2.106372 1_555
Cu4 O8 2.108064 1_555
Cu5 O20 1.996994 1_555
Cu5 O15 2.020150 1_555
Cu5 O26 2.029397 1_555
Cu5 O25 2.029397 1_555
Cu6 O37 1.981508 1_555
Cu6 O35 2.002023 1_555
Cu6 O29 2.023849 1_555
Cu6 O32 2.023849 1_555
Cu7 O18 2.082402 1_555
Cu7 O17 2.082402 1_555
Cu7 O21 2.090664 1_565
Cu7 O23 2.090664 1_655
Cu7 O22 2.091437 1_555
Cu7 O15 2.102046 1_555
Cu8 O28 1.967444 1_665
Cu8 O24 2.002062 1_555
Cu8 O34 2.014657 1_565
Cu8 O31 2.014657 1_655
Cu9 O34 2.079072 1_555
Cu9 O31 2.079072 1_555
Cu9 O38 2.083567 1_555
Cu9 O36 2.083567 1_555
Cu9 O33 2.101946 1_555
Cu9 O37 2.103756 1_555
