# generated using pymatgen
data_Mn6O5F7
_symmetry_space_group_name_H-M   'P 1'
_cell_length_a   5.70037100
_cell_length_b   4.72270300
_cell_length_c   15.63992112
_cell_angle_alpha   89.79193861
_cell_angle_beta   90.00000000
_cell_angle_gamma   90.00000000
_symmetry_Int_Tables_number   1
_chemical_formula_structural   Mn6O5F7
_chemical_formula_sum   'Mn12 O10 F14'
_cell_volume   421.04203059
_cell_formula_units_Z   2
loop_
 _symmetry_equiv_pos_site_id
 _symmetry_equiv_pos_as_xyz
  1  'x, y, z'
loop_
 _atom_site_type_symbol
 _atom_site_label
 _atom_site_symmetry_multiplicity
 _atom_site_fract_x
 _atom_site_fract_y
 _atom_site_fract_z
 _atom_site_occupancy
  Mn  Mn0  1  0.16972900  0.05105400  0.41589700  1
  Mn  Mn1  1  0.85203100  0.97197600  0.24914200  1
  Mn  Mn2  1  0.16004400  0.04358800  0.07832700  1
  Mn  Mn3  1  0.14796900  0.97197600  0.74914200  1
  Mn  Mn4  1  0.83995600  0.04358800  0.57832700  1
  Mn  Mn5  1  0.83027100  0.05105400  0.91589700  1
  Mn  Mn6  1  0.36421400  0.51482800  0.58822400  1
  Mn  Mn7  1  0.34749200  0.47603500  0.92248600  1
  Mn  Mn8  1  0.34947500  0.47224700  0.24608900  1
  Mn  Mn9  1  0.63578600  0.51482800  0.08822400  1
  Mn  Mn10  1  0.65250800  0.47603500  0.42248600  1
  Mn  Mn11  1  0.65052500  0.47224700  0.74608900  1
  O  O0  1  0.11041900  0.20697600  0.29809000  1
  O  O1  1  0.11458700  0.23910600  0.97570400  1
  O  O2  1  0.88541300  0.23910600  0.47570400  1
  O  O3  1  0.88958100  0.20697600  0.79809000  1
  O  O4  1  0.38308900  0.28960400  0.13830200  1
  O  O5  1  0.39942500  0.30417500  0.48096100  1
  O  O6  1  0.61691100  0.28960400  0.63830200  1
  O  O7  1  0.60057500  0.30417500  0.98096100  1
  O  O8  1  0.61667300  0.70729700  0.19853100  1
  O  O9  1  0.38332700  0.70729700  0.69853100  1
  F  F0  1  0.11648500  0.23336000  0.64075000  1
  F  F1  1  0.88351500  0.23336000  0.14075000  1
  F  F2  1  0.61322800  0.21820000  0.31151800  1
  F  F3  1  0.38677200  0.21820000  0.81151800  1
  F  F4  1  0.37839600  0.77067700  0.02304100  1
  F  F5  1  0.38647600  0.70037500  0.35752800  1
  F  F6  1  0.62160400  0.77067700  0.52304100  1
  F  F7  1  0.61352400  0.70037500  0.85752800  1
  F  F8  1  0.11669200  0.78037600  0.18086700  1
  F  F9  1  0.13244100  0.78671500  0.53018800  1
  F  F10  1  0.88349600  0.73340900  0.36435500  1
  F  F11  1  0.86755900  0.78671500  0.03018800  1
  F  F12  1  0.11650400  0.73340900  0.86435500  1
  F  F13  1  0.88330800  0.78037600  0.68086700  1
loop_
_geom_bond_atom_site_label_1
_geom_bond_atom_site_label_2
_geom_bond_distance
_geom_bond_site_symmetry_2
Mn0 O0 2.010342 1_555
Mn0 O5 2.046401 1_555
Mn0 O2 2.072776 1_455
Mn1 O0 1.998354 1_665
Mn1 O8 1.999051 1_555
Mn2 O1 1.866835 1_554
Mn2 O4 1.963223 1_555
Mn3 O3 1.998354 1_465
Mn3 O9 1.999051 1_555
Mn4 O2 1.866835 1_555
Mn4 O6 1.963223 1_555
Mn5 O3 2.010342 1_555
Mn5 O7 2.046401 1_555
Mn5 O1 2.072776 1_655
Mn6 O6 1.952871 1_555
Mn6 O9 1.955961 1_555
Mn6 O5 1.963779 1_555
Mn7 O7 1.889723 1_555
Mn7 O1 1.923715 1_555
Mn8 O4 1.906084 1_555
Mn8 O0 2.020028 1_555
Mn8 O8 2.024703 1_555
Mn9 O4 1.952871 1_555
Mn9 O8 1.955961 1_555
Mn9 O7 1.963779 1_554
Mn10 O5 1.889723 1_555
Mn10 O2 1.923715 1_555
Mn11 O6 1.906084 1_555
Mn11 O3 2.020028 1_555
Mn11 O9 2.024703 1_555
F0 Mn4 2.060951 1_455
F0 Mn3 2.101118 1_545
F0 Mn6 2.104307 1_555
F1 Mn2 2.060951 1_655
F1 Mn1 2.101118 1_545
F1 Mn9 2.104307 1_555
F2 Mn1 2.040881 1_545
F2 Mn10 2.135484 1_555
F2 Mn8 2.176743 1_555
F3 Mn3 2.040881 1_545
F3 Mn7 2.135484 1_555
F3 Mn11 2.176743 1_555
F4 Mn2 1.991532 1_565
F4 Mn7 2.111046 1_554
F4 Mn9 2.154777 1_555
F5 Mn8 2.063144 1_555
F5 Mn10 2.108684 1_555
F5 Mn0 2.261358 1_565
F6 Mn4 1.991532 1_565
F6 Mn10 2.111046 1_555
F6 Mn6 2.154777 1_555
F7 Mn11 2.063144 1_555
F7 Mn7 2.108684 1_555
F7 Mn5 2.261358 1_565
F8 Mn2 2.040522 1_565
F8 Mn1 2.059638 1_455
F8 Mn8 2.215437 1_555
F9 Mn6 2.051762 1_555
F9 Mn0 2.186922 1_565
F9 Mn4 2.196582 1_465
F10 Mn10 2.007421 1_555
F10 Mn1 2.129263 1_555
F10 Mn0 2.360352 1_665
F11 Mn9 2.051762 1_555
F11 Mn5 2.186922 1_564
F11 Mn2 2.196582 1_665
F12 Mn7 2.007421 1_555
F12 Mn3 2.129263 1_555
F12 Mn5 2.360352 1_465
F13 Mn4 2.040522 1_565
F13 Mn3 2.059638 1_655
F13 Mn11 2.215437 1_555
