# generated using pymatgen
data_Ti2CoO5
_symmetry_space_group_name_H-M   'P 1'
_cell_length_a   5.19689574
_cell_length_b   7.40689253
_cell_length_c   10.06394314
_cell_angle_alpha   89.99999412
_cell_angle_beta   90.00000192
_cell_angle_gamma   70.13215210
_symmetry_Int_Tables_number   1
_chemical_formula_structural   Ti2CoO5
_chemical_formula_sum   'Ti8 Co4 O20'
_cell_volume   364.33200027
_cell_formula_units_Z   4
loop_
 _symmetry_equiv_pos_site_id
 _symmetry_equiv_pos_as_xyz
  1  'x, y, z'
loop_
 _atom_site_type_symbol
 _atom_site_label
 _atom_site_symmetry_multiplicity
 _atom_site_fract_x
 _atom_site_fract_y
 _atom_site_fract_z
 _atom_site_occupancy
  Ti  Ti0  1  0.20171825  0.06722212  0.56735798  1
  Ti  Ti1  1  0.70172042  0.56722078  0.56735574  1
  Ti  Ti2  1  0.20171887  0.06722397  0.93264142  1
  Ti  Ti3  1  0.70172226  0.56722185  0.93264470  1
  Ti  Ti4  1  0.79827550  0.93277961  0.06736165  1
  Ti  Ti5  1  0.29828298  0.43277848  0.06735841  1
  Ti  Ti6  1  0.79827863  0.93277971  0.43264073  1
  Ti  Ti7  1  0.29828142  0.43277983  0.43264083  1
  Co  Co0  1  0.78580192  0.59534570  0.24999980  1
  Co  Co1  1  0.71410192  0.90475122  0.74999989  1
  Co  Co2  1  0.28579349  0.09534908  0.24999986  1
  Co  Co3  1  0.21410438  0.40474834  0.74999970  1
  O  O0  1  0.32562859  0.10845348  0.74999994  1
  O  O1  1  0.82563126  0.60845592  0.74999990  1
  O  O2  1  0.67443412  0.89146396  0.24999975  1
  O  O3  1  0.17444021  0.39146832  0.25000001  1
  O  O4  1  0.07084115  0.02358327  0.11277738  1
  O  O5  1  0.57085581  0.52357544  0.11277633  1
  O  O6  1  0.07084157  0.02358385  0.38722287  1
  O  O7  1  0.57085548  0.52357570  0.38722338  1
  O  O8  1  0.92913439  0.97643420  0.88722322  1
  O  O9  1  0.42914320  0.47643098  0.88722368  1
  O  O10  1  0.92913552  0.97643415  0.61277628  1
  O  O11  1  0.42914431  0.47643116  0.61277590  1
  O  O12  1  0.47135407  0.15710769  0.06034432  1
  O  O13  1  0.97136111  0.65710812  0.06034173  1
  O  O14  1  0.47135390  0.15710787  0.43965590  1
  O  O15  1  0.97136203  0.65710847  0.43965804  1
  O  O16  1  0.52866896  0.84286959  0.56033631  1
  O  O17  1  0.02867470  0.34287146  0.56033919  1
  O  O18  1  0.52866881  0.84286950  0.93966372  1
  O  O19  1  0.02867478  0.34287117  0.93966044  1
loop_
_geom_bond_atom_site_label_1
_geom_bond_atom_site_label_2
_geom_bond_distance
_geom_bond_site_symmetry_2
Co0 O5 1.959900 1_555
Co0 O7 1.959901 1_555
Co0 O2 2.069487 1_555
Co0 O3 2.070402 1_655
Co0 O13 2.254380 1_555
Co0 O15 2.254385 1_555
Co1 O8 1.959895 1_555
Co1 O10 1.959901 1_555
Co1 O0 2.069262 1_565
Co1 O1 2.070685 1_555
Co1 O16 2.254409 1_555
Co1 O18 2.254412 1_555
Co2 O4 1.959899 1_555
Co2 O6 1.959899 1_555
Co2 O3 2.069500 1_555
Co2 O2 2.070433 1_545
Co2 O12 2.254352 1_555
Co2 O14 2.254357 1_555
Co3 O9 1.959921 1_555
Co3 O11 1.959924 1_555
Co3 O1 2.069277 1_455
Co3 O0 2.070684 1_555
Co3 O17 2.254362 1_555
Co3 O19 2.254365 1_555
O0 Ti2 2.005038 1_555
O0 Ti0 2.005047 1_555
O1 Ti1 2.005075 1_555
O1 Ti3 2.005076 1_555
O2 Ti4 2.005041 1_555
O2 Ti6 2.005074 1_555
O3 Ti7 2.005058 1_555
O3 Ti5 2.005065 1_555
O4 Ti4 1.820788 1_445
O4 Ti2 2.000766 1_554
O5 Ti5 1.820796 1_555
O5 Ti3 2.000715 1_554
O6 Ti6 1.820783 1_445
O6 Ti0 2.000751 1_555
O7 Ti7 1.820795 1_555
O7 Ti1 2.000716 1_555
O8 Ti2 1.820818 1_665
O8 Ti4 2.000778 1_556
O9 Ti3 1.820804 1_555
O9 Ti5 2.000743 1_556
O10 Ti0 1.820801 1_665
O10 Ti6 2.000747 1_555
O11 Ti1 1.820783 1_555
O11 Ti7 2.000749 1_555
O12 Ti4 1.932240 1_545
O12 Ti5 1.932584 1_555
O12 Ti2 2.166242 1_554
O13 Ti5 1.932247 1_655
O13 Ti4 1.932599 1_555
O13 Ti3 2.166232 1_554
O14 Ti6 1.932249 1_545
O14 Ti7 1.932593 1_555
O14 Ti0 2.166247 1_555
O15 Ti7 1.932236 1_655
O15 Ti6 1.932595 1_555
O15 Ti1 2.166252 1_555
O16 Ti1 1.932429 1_555
O16 Ti0 1.932432 1_565
O16 Ti6 2.166202 1_555
O17 Ti0 1.932428 1_555
O17 Ti1 1.932428 1_455
O17 Ti7 2.166200 1_555
O18 Ti3 1.932422 1_555
O18 Ti2 1.932438 1_565
O18 Ti4 2.166205 1_556
O19 Ti2 1.932414 1_555
O19 Ti3 1.932428 1_455
O19 Ti5 2.166200 1_556
