# generated using pymatgen
data_Li2V5O12
_symmetry_space_group_name_H-M   'P 1'
_cell_length_a   9.12142300
_cell_length_b   9.20584400
_cell_length_c   12.66710400
_cell_angle_alpha   90.00000000
_cell_angle_beta   90.00000000
_cell_angle_gamma   90.00000000
_symmetry_Int_Tables_number   1
_chemical_formula_structural   Li2V5O12
_chemical_formula_sum   'Li8 V20 O48'
_cell_volume   1063.66175420
_cell_formula_units_Z   4
loop_
 _symmetry_equiv_pos_site_id
 _symmetry_equiv_pos_as_xyz
  1  'x, y, z'
loop_
 _atom_site_type_symbol
 _atom_site_label
 _atom_site_symmetry_multiplicity
 _atom_site_fract_x
 _atom_site_fract_y
 _atom_site_fract_z
 _atom_site_occupancy
  Li  Li0  1  0.27192400  0.22177500  0.18846200  1
  Li  Li1  1  0.77192400  0.77822500  0.18846200  1
  Li  Li2  1  0.77192400  0.27822500  0.31153800  1
  Li  Li3  1  0.27192400  0.72177500  0.31153800  1
  Li  Li4  1  0.72807600  0.27822500  0.68846200  1
  Li  Li5  1  0.22807600  0.72177500  0.68846200  1
  Li  Li6  1  0.22807600  0.22177500  0.81153800  1
  Li  Li7  1  0.72807600  0.77822500  0.81153800  1
  V  V0  1  0.25000000  0.46675800  0.00000000  1
  V  V1  1  0.75000000  0.53324200  0.00000000  1
  V  V2  1  0.96823200  0.25329300  0.12053400  1
  V  V3  1  0.46823100  0.74670700  0.12053400  1
  V  V4  1  0.96823200  0.75329300  0.37946600  1
  V  V5  1  0.46823100  0.24670700  0.37946600  1
  V  V6  1  0.75000000  0.03324200  0.50000000  1
  V  V7  1  0.25000000  0.96675800  0.50000000  1
  V  V8  1  0.03176800  0.24670700  0.62053400  1
  V  V9  1  0.53176800  0.75329300  0.62053400  1
  V  V10  1  0.53176800  0.25329300  0.87946600  1
  V  V11  1  0.03176800  0.74670700  0.87946600  1
  V  V12  1  0.60484800  0.10162200  0.14184600  1
  V  V13  1  0.10484800  0.89837800  0.14184600  1
  V  V14  1  0.10484800  0.39837800  0.35815400  1
  V  V15  1  0.60484800  0.60162200  0.35815400  1
  V  V16  1  0.39515200  0.39837800  0.64184600  1
  V  V17  1  0.89515200  0.60162200  0.64184600  1
  V  V18  1  0.89515200  0.10162200  0.85815400  1
  V  V19  1  0.39515200  0.89837800  0.85815400  1
  O  O0  1  0.55617000  0.15500000  0.01701300  1
  O  O1  1  0.05617000  0.84500000  0.01701300  1
  O  O2  1  0.36910400  0.57572700  0.07204700  1
  O  O3  1  0.86910400  0.42427300  0.07204700  1
  O  O4  1  0.15761000  0.35335000  0.08840100  1
  O  O5  1  0.65761000  0.64665000  0.08840100  1
  O  O6  1  0.10014000  0.08851000  0.15871700  1
  O  O7  1  0.60014000  0.91149000  0.15871700  1
  O  O8  1  0.77926500  0.16431200  0.17277300  1
  O  O9  1  0.27926500  0.83568800  0.17277300  1
  O  O10  1  0.97686700  0.82135400  0.22965300  1
  O  O11  1  0.47686700  0.17864600  0.22965300  1
  O  O12  1  0.97686700  0.32135400  0.27034700  1
  O  O13  1  0.47686700  0.67864600  0.27034700  1
  O  O14  1  0.77926500  0.66431200  0.32722700  1
  O  O15  1  0.27926500  0.33568800  0.32722700  1
  O  O16  1  0.60014000  0.41149000  0.34128300  1
  O  O17  1  0.10014000  0.58851000  0.34128300  1
  O  O18  1  0.65761000  0.14665000  0.41159900  1
  O  O19  1  0.15761000  0.85335000  0.41159900  1
  O  O20  1  0.36910400  0.07572700  0.42795300  1
  O  O21  1  0.86910400  0.92427300  0.42795300  1
  O  O22  1  0.55617000  0.65500000  0.48298700  1
  O  O23  1  0.05617000  0.34500000  0.48298700  1
  O  O24  1  0.44383000  0.34500000  0.51701300  1
  O  O25  1  0.94383000  0.65500000  0.51701300  1
  O  O26  1  0.13089600  0.07572700  0.57204700  1
  O  O27  1  0.63089600  0.92427300  0.57204700  1
  O  O28  1  0.84239000  0.14665000  0.58840100  1
  O  O29  1  0.34239000  0.85335000  0.58840100  1
  O  O30  1  0.89986000  0.41149000  0.65871700  1
  O  O31  1  0.39986000  0.58851000  0.65871700  1
  O  O32  1  0.22073500  0.33568800  0.67277300  1
  O  O33  1  0.72073500  0.66431200  0.67277300  1
  O  O34  1  0.52313300  0.32135400  0.72965300  1
  O  O35  1  0.02313300  0.67864600  0.72965300  1
  O  O36  1  0.02313300  0.17864600  0.77034700  1
  O  O37  1  0.52313300  0.82135400  0.77034700  1
  O  O38  1  0.72073500  0.16431200  0.82722700  1
  O  O39  1  0.22073500  0.83568800  0.82722700  1
  O  O40  1  0.39986000  0.08851000  0.84128300  1
  O  O41  1  0.89986000  0.91149000  0.84128300  1
  O  O42  1  0.34239000  0.35335000  0.91159900  1
  O  O43  1  0.84239000  0.64665000  0.91159900  1
  O  O44  1  0.63089600  0.42427300  0.92795300  1
  O  O45  1  0.13089600  0.57572700  0.92795300  1
  O  O46  1  0.94383000  0.15500000  0.98298700  1
  O  O47  1  0.44383000  0.84500000  0.98298700  1
loop_
_geom_bond_atom_site_label_1
_geom_bond_atom_site_label_2
_geom_bond_distance
_geom_bond_site_symmetry_2
Li0 O11 1.981019 1_555
Li0 O6 2.025405 1_555
Li0 O4 2.039828 1_555
Li0 O15 2.047894 1_555
Li1 O10 1.981019 1_555
Li1 O7 2.025405 1_555
Li1 O5 2.039828 1_555
Li1 O14 2.047894 1_555
Li2 O12 1.981019 1_555
Li2 O16 2.025405 1_555
Li2 O18 2.039828 1_555
Li2 O8 2.047894 1_555
Li3 O13 1.981019 1_555
Li3 O17 2.025405 1_555
Li3 O19 2.039828 1_555
Li3 O9 2.047894 1_555
Li4 O34 1.981019 1_555
Li4 O30 2.025405 1_555
Li4 O28 2.039828 1_555
Li4 O38 2.047894 1_555
Li5 O35 1.981019 1_555
Li5 O31 2.025405 1_555
Li5 O29 2.039828 1_555
Li5 O39 2.047894 1_555
Li6 O36 1.981019 1_555
Li6 O40 2.025405 1_555
Li6 O42 2.039828 1_555
Li6 O32 2.047894 1_555
Li7 O37 1.981019 1_555
Li7 O41 2.025405 1_555
Li7 O43 2.039828 1_555
Li7 O33 2.047894 1_555
O0 V12 1.714361 1_555
O0 V10 1.975859 1_554
O1 V13 1.714361 1_555
O1 V11 1.975859 1_554
O2 V0 1.737660 1_555
O2 V3 1.916323 1_555
O3 V1 1.737660 1_555
O3 V2 1.916327 1_555
O4 V0 1.747592 1_555
O4 V2 1.999504 1_455
O5 V1 1.747592 1_555
O5 V3 1.999512 1_555
O6 V13 1.763846 1_545
O6 V2 1.995692 1_455
O7 V12 1.763846 1_565
O7 V3 1.995697 1_555
O8 V12 1.737123 1_555
O8 V2 2.019859 1_555
O9 V13 1.737123 1_555
O9 V3 2.019851 1_555
O10 V13 1.761435 1_655
O10 V4 2.000008 1_555
O11 V12 1.761435 1_555
O11 V5 2.000009 1_555
O12 V14 1.761435 1_655
O12 V2 2.000008 1_555
O13 V15 1.761435 1_555
O13 V3 2.000009 1_555
O14 V15 1.737123 1_555
O14 V4 2.019859 1_555
O15 V14 1.737123 1_555
O15 V5 2.019851 1_555
O16 V15 1.763846 1_555
O16 V5 1.995697 1_555
O17 V14 1.763846 1_555
O17 V4 1.995692 1_455
O18 V6 1.747592 1_555
O18 V5 1.999512 1_555
O19 V7 1.747592 1_555
O19 V4 1.999504 1_455
O20 V7 1.737660 1_545
O20 V5 1.916323 1_555
O21 V6 1.737660 1_565
O21 V4 1.916327 1_555
O22 V15 1.714361 1_555
O22 V9 1.975859 1_555
O23 V14 1.714361 1_555
O23 V8 1.975859 1_555
O24 V16 1.714361 1_555
O24 V5 1.975858 1_555
O25 V17 1.714361 1_555
O25 V4 1.975859 1_555
O26 V7 1.737660 1_545
O26 V8 1.916327 1_555
O27 V6 1.737660 1_565
O27 V9 1.916327 1_555
O28 V6 1.747592 1_555
O28 V8 1.999504 1_655
O29 V7 1.747592 1_555
O29 V9 1.999504 1_555
O30 V17 1.763846 1_555
O30 V8 1.995692 1_655
O31 V16 1.763846 1_555
O31 V9 1.995692 1_555
O32 V16 1.737123 1_555
O32 V8 2.019859 1_555
O33 V17 1.737123 1_555
O33 V9 2.019859 1_555
O34 V16 1.761435 1_555
O34 V10 2.000008 1_555
O35 V17 1.761435 1_455
O35 V11 2.000008 1_555
O36 V18 1.761435 1_455
O36 V8 2.000008 1_555
O37 V19 1.761435 1_555
O37 V9 2.000008 1_555
O38 V18 1.737123 1_555
O38 V10 2.019859 1_555
O39 V19 1.737123 1_555
O39 V11 2.019859 1_555
O40 V19 1.763846 1_545
O40 V10 1.995692 1_555
O41 V18 1.763846 1_565
O41 V11 1.995692 1_655
O42 V0 1.747592 1_556
O42 V10 1.999504 1_555
O43 V1 1.747592 1_556
O43 V11 1.999504 1_655
O44 V1 1.737660 1_556
O44 V10 1.916327 1_555
O45 V0 1.737660 1_556
O45 V11 1.916327 1_555
O46 V18 1.714361 1_555
O46 V2 1.975859 1_556
O47 V19 1.714361 1_555
O47 V3 1.975858 1_556
