# generated using pymatgen
data_Sr2YReO6
_symmetry_space_group_name_H-M   'P 1'
_cell_length_a   5.90878650
_cell_length_b   5.90878650
_cell_length_c   5.90878650
_cell_angle_alpha   60.00000000
_cell_angle_beta   60.00000000
_cell_angle_gamma   60.00000000
_symmetry_Int_Tables_number   1
_chemical_formula_structural   Sr2YReO6
_chemical_formula_sum   'Sr2 Y1 Re1 O6'
_cell_volume   145.87467299
_cell_formula_units_Z   1
loop_
 _symmetry_equiv_pos_site_id
 _symmetry_equiv_pos_as_xyz
  1  'x, y, z'
loop_
 _atom_site_type_symbol
 _atom_site_label
 _atom_site_symmetry_multiplicity
 _atom_site_fract_x
 _atom_site_fract_y
 _atom_site_fract_z
 _atom_site_occupancy
  Sr  Sr0  1  0.25000000  0.25000000  0.25000000  1
  Sr  Sr1  1  0.75000000  0.75000000  0.75000000  1
  Y  Y0  1  0.50000000  0.50000000  0.50000000  1
  Re  Re0  1  0.00000000  0.00000000  0.00000000  1
  O  O0  1  0.76429600  0.23570400  0.76429600  1
  O  O1  1  0.23570400  0.23570400  0.76429600  1
  O  O2  1  0.76429600  0.76429600  0.23570400  1
  O  O3  1  0.76429600  0.23570400  0.23570400  1
  O  O4  1  0.23570400  0.76429600  0.23570400  1
  O  O5  1  0.23570400  0.76429600  0.76429600  1
loop_
_geom_bond_atom_site_label_1
_geom_bond_atom_site_label_2
_geom_bond_distance
_geom_bond_site_symmetry_2
O0 Re0 1.969610 1_656
O0 Y0 2.208533 1_555
O0 Sr0 2.956807 1_556
O0 Sr1 2.956807 1_555
O0 Sr0 2.956807 1_655
O0 Sr1 2.956807 1_545
O1 Re0 1.969610 1_556
O1 Y0 2.208533 1_555
O1 Sr0 2.956807 1_555
O1 Sr0 2.956807 1_556
O1 Sr1 2.956807 1_455
O1 Sr1 2.956807 1_545
O2 Re0 1.969610 1_665
O2 Y0 2.208533 1_555
O2 Sr1 2.956807 1_554
O2 Sr1 2.956807 1_555
O2 Sr0 2.956807 1_565
O2 Sr0 2.956807 1_655
O3 Re0 1.969610 1_655
O3 Y0 2.208533 1_555
O3 Sr0 2.956807 1_555
O3 Sr1 2.956807 1_554
O3 Sr0 2.956807 1_655
O3 Sr1 2.956807 1_545
O4 Re0 1.969610 1_565
O4 Y0 2.208533 1_555
O4 Sr0 2.956807 1_555
O4 Sr1 2.956807 1_554
O4 Sr1 2.956807 1_455
O4 Sr0 2.956807 1_565
O5 Re0 1.969610 1_566
O5 Y0 2.208533 1_555
O5 Sr0 2.956807 1_556
O5 Sr1 2.956807 1_455
O5 Sr1 2.956807 1_555
O5 Sr0 2.956807 1_565
