# generated using pymatgen
data_V2OF5
_symmetry_space_group_name_H-M   'P 1'
_cell_length_a   8.71967351
_cell_length_b   5.30481071
_cell_length_c   7.37778021
_cell_angle_alpha   86.57101951
_cell_angle_beta   66.50102637
_cell_angle_gamma   105.93372455
_symmetry_Int_Tables_number   1
_chemical_formula_structural   V2OF5
_chemical_formula_sum   'V6 O3 F15'
_cell_volume   295.34523033
_cell_formula_units_Z   3
loop_
 _symmetry_equiv_pos_site_id
 _symmetry_equiv_pos_as_xyz
  1  'x, y, z'
loop_
 _atom_site_type_symbol
 _atom_site_label
 _atom_site_symmetry_multiplicity
 _atom_site_fract_x
 _atom_site_fract_y
 _atom_site_fract_z
 _atom_site_occupancy
  V  V0  1  0.00657883  0.99439806  -0.00174669  1
  V  V1  1  0.99853666  0.98395848  0.50222043  1
  V  V2  1  0.34131138  0.63795510  0.33545837  1
  V  V3  1  0.32204784  0.68240567  0.84348200  1
  V  V4  1  0.65990167  0.33080328  0.17381741  1
  V  V5  1  0.68189048  0.35822426  0.66617938  1
  O  O0  1  0.14253331  0.78391373  0.96843535  1
  O  O1  1  0.46554991  0.43931403  0.31084274  1
  O  O2  1  0.85523926  0.63202794  0.61911661  1
  F  F0  1  0.20343492  0.89676340  0.34680574  1
  F  F1  1  0.41023622  0.71764077  0.04673585  1
  F  F2  1  0.12592368  0.36815590  0.37611268  1
  F  F3  1  0.53487140  0.96280119  0.29221728  1
  F  F4  1  0.25391246  0.62284251  0.62112827  1
  F  F5  1  0.07760031  0.05093086  0.70590380  1
  F  F6  1  0.80175997  0.69849979  0.04141066  1
  F  F7  1  0.19877948  0.30609751  0.96550797  1
  F  F8  1  0.92372603  0.95659309  0.29012459  1
  F  F9  1  0.51957691  0.55665372  0.68710163  1
  F  F10  1  0.86895284  0.22969342  0.01195420  1
  F  F11  1  0.74096800  0.37097453  0.37835621  1
  F  F12  1  0.47704793  0.03727274  0.70483297  1
  F  F13  1  0.59031075  0.28806165  0.95758136  1
  F  F14  1  0.79931175  0.09401738  0.65642618  1
loop_
_geom_bond_atom_site_label_1
_geom_bond_atom_site_label_2
_geom_bond_distance
_geom_bond_site_symmetry_2
O0 V3 1.720878 1_555
O0 V0 1.802410 1_556
O1 V2 1.676224 1_555
O1 V4 1.861258 1_555
O2 V5 1.682474 1_555
O2 V1 1.859492 1_555
F0 V1 1.898497 1_455
F0 V2 2.043785 1_555
F1 V3 1.936268 1_554
F1 V2 1.951724 1_555
F2 V2 1.920744 1_555
F2 V1 1.989806 1_445
F3 V4 1.905426 1_565
F3 V2 1.956506 1_555
F4 V2 1.922132 1_555
F4 V3 1.969811 1_555
F5 V1 1.901385 1_445
F5 V0 1.970046 1_546
F6 V0 1.924175 1_655
F6 V4 1.942356 1_555
F7 V0 1.925879 1_546
F7 V3 1.945780 1_555
F8 V1 1.919475 1_555
F8 V0 1.956348 1_655
F9 V5 1.948894 1_555
F9 V3 1.970014 1_555
F10 V0 1.936266 1_645
F10 V4 1.978404 1_555
F11 V4 1.904916 1_555
F11 V5 1.967365 1_555
F12 V3 1.920170 1_545
F12 V5 2.009103 1_555
F13 V4 1.924701 1_556
F13 V5 1.941722 1_555
F14 V1 1.926976 1_545
F14 V5 1.938841 1_555
