# generated using pymatgen
data_Ti3NO4
_symmetry_space_group_name_H-M   'P 1'
_cell_length_a   5.14682466
_cell_length_b   5.14682466
_cell_length_c   10.05278800
_cell_angle_alpha   90.00000000
_cell_angle_beta   90.00000000
_cell_angle_gamma   135.72346153
_symmetry_Int_Tables_number   1
_chemical_formula_structural   Ti3NO4
_chemical_formula_sum   'Ti6 N2 O8'
_cell_volume   185.90740837
_cell_formula_units_Z   2
loop_
 _symmetry_equiv_pos_site_id
 _symmetry_equiv_pos_as_xyz
  1  'x, y, z'
loop_
 _atom_site_type_symbol
 _atom_site_label
 _atom_site_symmetry_multiplicity
 _atom_site_fract_x
 _atom_site_fract_y
 _atom_site_fract_z
 _atom_site_occupancy
  Ti  Ti0  1  0.64286900  0.35713100  0.42763300  1
  Ti  Ti1  1  0.64286900  0.35713100  0.07236700  1
  Ti  Ti2  1  0.69825600  0.30174400  0.75000000  1
  Ti  Ti3  1  0.35713100  0.64286900  0.92763300  1
  Ti  Ti4  1  0.35713100  0.64286900  0.57236700  1
  Ti  Ti5  1  0.30174400  0.69825600  0.25000000  1
  N  N0  1  0.73115700  0.26884300  0.25000000  1
  N  N1  1  0.26884300  0.73115700  0.75000000  1
  O  O0  1  0.81518200  0.18481800  0.56264900  1
  O  O1  1  0.54713500  0.45286500  0.88038800  1
  O  O2  1  0.54713500  0.45286500  0.61961200  1
  O  O3  1  0.81518200  0.18481800  0.93735100  1
  O  O4  1  0.45286500  0.54713500  0.38038800  1
  O  O5  1  0.45286500  0.54713500  0.11961200  1
  O  O6  1  0.18481800  0.81518200  0.06264900  1
  O  O7  1  0.18481800  0.81518200  0.43735100  1
loop_
_geom_bond_atom_site_label_1
_geom_bond_atom_site_label_2
_geom_bond_distance
_geom_bond_site_symmetry_2
N0 Ti1 1.974180 1_555
N0 Ti0 1.974180 1_555
N0 Ti5 2.052999 1_545
N0 Ti5 2.052999 1_655
N1 Ti3 1.974180 1_555
N1 Ti4 1.974180 1_555
N1 Ti2 2.052999 1_455
N1 Ti2 2.052999 1_565
O0 Ti4 1.982765 1_655
O0 Ti4 1.982765 1_545
O0 Ti0 2.131094 1_555
O0 Ti2 2.188633 1_555
O1 Ti3 1.872866 1_555
O1 Ti2 1.947897 1_555
O1 Ti1 2.134904 1_556
O2 Ti4 1.872866 1_555
O2 Ti2 1.947897 1_555
O2 Ti0 2.134904 1_555
O3 Ti3 1.982765 1_655
O3 Ti3 1.982765 1_545
O3 Ti1 2.131094 1_556
O3 Ti2 2.188633 1_555
O4 Ti0 1.872866 1_555
O4 Ti5 1.947897 1_555
O4 Ti4 2.134904 1_555
O5 Ti1 1.872866 1_555
O5 Ti5 1.947897 1_555
O5 Ti3 2.134904 1_554
O6 Ti1 1.982765 1_565
O6 Ti1 1.982765 1_455
O6 Ti3 2.131094 1_554
O6 Ti5 2.188633 1_555
O7 Ti0 1.982765 1_565
O7 Ti0 1.982765 1_455
O7 Ti4 2.131094 1_555
O7 Ti5 2.188633 1_555
