# generated using pymatgen
data_Na2FePCO7
_symmetry_space_group_name_H-M   'P 1'
_cell_length_a   8.34284800
_cell_length_b   8.35632033
_cell_length_c   10.35270023
_cell_angle_alpha   108.05067909
_cell_angle_beta   108.08162546
_cell_angle_gamma   102.50861921
_symmetry_Int_Tables_number   1
_chemical_formula_structural   Na2FePCO7
_chemical_formula_sum   'Na8 Fe4 P4 C4 O28'
_cell_volume   612.03233885
_cell_formula_units_Z   4
loop_
 _symmetry_equiv_pos_site_id
 _symmetry_equiv_pos_as_xyz
  1  'x, y, z'
loop_
 _atom_site_type_symbol
 _atom_site_label
 _atom_site_symmetry_multiplicity
 _atom_site_fract_x
 _atom_site_fract_y
 _atom_site_fract_z
 _atom_site_occupancy
  Na  Na0  1  0.46069200  0.70587900  0.92764100  1
  Na  Na1  1  0.94576900  0.19980100  0.91323000  1
  Na  Na2  1  0.72758400  0.74759900  0.73187700  1
  Na  Na3  1  0.99951000  0.48176300  0.73275100  1
  Na  Na4  1  0.00049000  0.51823700  0.26724900  1
  Na  Na5  1  0.27241600  0.25240100  0.26812300  1
  Na  Na6  1  0.53930800  0.29412100  0.07235900  1
  Na  Na7  1  0.05423100  0.80019900  0.08677000  1
  Fe  Fe0  1  0.54942100  0.29951700  0.65691700  1
  Fe  Fe1  1  0.07113700  0.82161000  0.65380000  1
  Fe  Fe2  1  0.92886300  0.17839000  0.34620000  1
  Fe  Fe3  1  0.45057900  0.70048300  0.34308300  1
  P  P0  1  0.30825800  0.55703100  0.57372300  1
  P  P1  1  0.80905700  0.06071400  0.57799400  1
  P  P2  1  0.69174200  0.44296900  0.42627700  1
  P  P3  1  0.19094300  0.93928600  0.42200600  1
  C  C0  1  0.73620500  0.48181700  0.93598500  1
  C  C1  1  0.22097200  0.97527500  0.93459100  1
  C  C2  1  0.77902800  0.02472500  0.06540900  1
  C  C3  1  0.26379500  0.51818300  0.06401500  1
  O  O0  1  0.70230000  0.93740900  0.92558100  1
  O  O1  1  0.17605900  0.44122600  0.92346200  1
  O  O2  1  0.58969100  0.34037200  0.87356200  1
  O  O3  1  0.07809400  0.82749100  0.87025300  1
  O  O4  1  0.78556700  0.53744400  0.84423800  1
  O  O5  1  0.27650300  0.02449800  0.84319600  1
  O  O6  1  0.91533100  0.97829200  0.67569200  1
  O  O7  1  0.22574800  0.66352700  0.67127300  1
  O  O8  1  0.43073700  0.49074800  0.67608900  1
  O  O9  1  0.74237100  0.18336400  0.67949700  1
  O  O10  1  0.84321500  0.59831600  0.57027400  1
  O  O11  1  0.34237500  0.08613400  0.56632500  1
  O  O12  1  0.93626200  0.18360600  0.53693600  1
  O  O13  1  0.42678900  0.67803600  0.52616600  1
  O  O14  1  0.06373800  0.81639400  0.46306400  1
  O  O15  1  0.57321100  0.32196400  0.47383400  1
  O  O16  1  0.65762500  0.91386600  0.43367500  1
  O  O17  1  0.15678500  0.40168400  0.42972600  1
  O  O18  1  0.25762900  0.81663600  0.32050300  1
  O  O19  1  0.56926300  0.50925200  0.32391100  1
  O  O20  1  0.77425200  0.33647300  0.32872700  1
  O  O21  1  0.08466900  0.02170800  0.32430800  1
  O  O22  1  0.72349700  0.97550200  0.15680400  1
  O  O23  1  0.21443300  0.46255600  0.15576200  1
  O  O24  1  0.92190600  0.17250900  0.12974700  1
  O  O25  1  0.41030900  0.65962800  0.12643800  1
  O  O26  1  0.82394100  0.55877400  0.07653800  1
  O  O27  1  0.29770000  0.06259100  0.07441900  1
loop_
_geom_bond_atom_site_label_1
_geom_bond_atom_site_label_2
_geom_bond_distance
_geom_bond_site_symmetry_2
Na0 O25 2.349753 1_556
Na0 O0 2.483879 1_555
Na0 O8 2.564443 1_555
Na0 O22 2.613567 1_556
Na0 O7 2.626711 1_555
Na0 O1 2.851975 1_555
Na1 O24 2.385430 1_556
Na1 O1 2.415525 1_655
Na1 O9 2.428555 1_555
Na1 O6 2.475079 1_545
Na1 O23 2.665997 1_656
Na1 O0 2.712119 1_545
Na2 O0 2.240107 1_555
Na2 O10 2.348525 1_555
Na2 O4 2.440438 1_555
Na2 O13 2.540541 1_555
Na2 O6 2.541740 1_555
Na2 O3 2.647723 1_655
Na2 O8 2.667391 1_555
Na3 O1 2.237813 1_655
Na3 O10 2.383720 1_555
Na3 O4 2.457689 1_555
Na3 O12 2.496403 1_555
Na3 O7 2.525385 1_655
Na3 O3 2.618057 1_655
Na3 O9 2.687098 1_555
Na4 O26 2.237813 1_455
Na4 O17 2.383720 1_555
Na4 O23 2.457689 1_555
Na4 O14 2.496403 1_555
Na4 O20 2.525385 1_455
Na4 O24 2.618057 1_455
Na4 O18 2.687098 1_555
Na5 O27 2.240107 1_555
Na5 O17 2.348525 1_555
Na5 O23 2.440438 1_555
Na5 O15 2.540541 1_555
Na5 O21 2.541740 1_555
Na5 O24 2.647723 1_455
Na5 O19 2.667391 1_555
Na6 O2 2.349753 1_554
Na6 O27 2.483879 1_555
Na6 O19 2.564443 1_555
Na6 O5 2.613567 1_554
Na6 O20 2.626711 1_555
Na6 O26 2.851975 1_555
Na7 O3 2.385430 1_554
Na7 O26 2.415525 1_455
Na7 O18 2.428555 1_555
Na7 O21 2.475079 1_565
Na7 O4 2.665997 1_454
Na7 O27 2.712119 1_565
Fe0 O11 1.914839 1_555
Fe0 O15 2.026043 1_555
Fe0 O9 2.042515 1_555
Fe0 O8 2.045535 1_555
Fe0 O2 2.065889 1_555
Fe0 O4 2.266571 1_555
Fe1 O14 1.942863 1_555
Fe1 O7 2.045219 1_555
Fe1 O6 2.047300 1_455
Fe1 O5 2.061734 1_565
Fe1 O10 2.070662 1_455
Fe1 O3 2.208411 1_555
Fe2 O12 1.942863 1_555
Fe2 O20 2.045219 1_555
Fe2 O21 2.047300 1_655
Fe2 O22 2.061734 1_545
Fe2 O17 2.070662 1_655
Fe2 O24 2.208411 1_555
Fe3 O16 1.914839 1_555
Fe3 O13 2.026043 1_555
Fe3 O18 2.042515 1_555
Fe3 O19 2.045535 1_555
Fe3 O25 2.065889 1_555
Fe3 O23 2.266571 1_555
C0 O26 1.273463 1_556
C0 O2 1.311201 1_555
C0 O4 1.312001 1_555
C1 O27 1.267118 1_566
C1 O5 1.307606 1_565
C1 O3 1.322627 1_555
C2 O0 1.267118 1_544
C2 O22 1.307606 1_545
C2 O24 1.322627 1_555
C3 O1 1.273463 1_554
C3 O25 1.311201 1_555
C3 O23 1.312001 1_555
O6 P1 1.556615 1_565
O7 P0 1.557447 1_555
O8 P0 1.552655 1_555
O9 P1 1.551343 1_555
O10 P2 1.557300 1_555
O11 P3 1.534524 1_545
O12 P1 1.562034 1_555
O13 P0 1.555743 1_555
O14 P3 1.562034 1_555
O15 P2 1.555743 1_555
O16 P1 1.534524 1_565
O17 P0 1.557300 1_555
O18 P3 1.551343 1_555
O19 P2 1.552655 1_555
O20 P2 1.557447 1_555
O21 P3 1.556615 1_545
