# generated using pymatgen
data_Li3Cr3CuO8
_symmetry_space_group_name_H-M   'P 1'
_cell_length_a   5.89891237
_cell_length_b   5.89891237
_cell_length_c   5.89891252
_cell_angle_alpha   59.81110399
_cell_angle_beta   59.81110399
_cell_angle_gamma   59.81110382
_symmetry_Int_Tables_number   1
_chemical_formula_structural   Li3Cr3CuO8
_chemical_formula_sum   'Li3 Cr3 Cu1 O8'
_cell_volume   144.52223630
_cell_formula_units_Z   1
loop_
 _symmetry_equiv_pos_site_id
 _symmetry_equiv_pos_as_xyz
  1  'x, y, z'
loop_
 _atom_site_type_symbol
 _atom_site_label
 _atom_site_symmetry_multiplicity
 _atom_site_fract_x
 _atom_site_fract_y
 _atom_site_fract_z
 _atom_site_occupancy
  Li  Li0  1  0.00000000  0.50000000  0.00000000  1
  Li  Li1  1  0.00000000  0.00000000  0.50000000  1
  Li  Li2  1  0.50000000  0.00000000  0.00000000  1
  Cr  Cr0  1  0.50000000  0.00000000  0.50000000  1
  Cr  Cr1  1  0.50000000  0.50000000  0.00000000  1
  Cr  Cr2  1  0.00000000  0.50000000  0.50000000  1
  Cu  Cu0  1  0.00000000  0.00000000  0.00000000  1
  O  O0  1  0.25792900  0.25792900  0.25792900  1
  O  O1  1  0.76498400  0.25333100  0.76498400  1
  O  O2  1  0.76498400  0.76498400  0.25333100  1
  O  O3  1  0.74207100  0.74207100  0.74207100  1
  O  O4  1  0.25333100  0.76498400  0.76498400  1
  O  O5  1  0.23501600  0.74666900  0.23501600  1
  O  O6  1  0.23501600  0.23501600  0.74666900  1
  O  O7  1  0.74666900  0.23501600  0.23501600  1
loop_
_geom_bond_atom_site_label_1
_geom_bond_atom_site_label_2
_geom_bond_distance
_geom_bond_site_symmetry_2
Li0 O3 2.151069 1_454
Li0 O0 2.151069 1_555
Li0 O4 2.164427 1_554
Li0 O7 2.164427 1_455
Li0 O6 2.164427 1_554
Li0 O2 2.164427 1_455
Li1 O3 2.151069 1_445
Li1 O0 2.151069 1_555
Li1 O5 2.164427 1_545
Li1 O1 2.164427 1_455
Li1 O4 2.164427 1_545
Li1 O7 2.164427 1_455
Li2 O3 2.151069 1_544
Li2 O0 2.151069 1_555
Li2 O1 2.164427 1_554
Li2 O5 2.164427 1_545
Li2 O6 2.164427 1_554
Li2 O2 2.164427 1_545
Cr0 O7 2.011084 1_555
Cr0 O4 2.011084 1_545
Cr0 O2 2.011084 1_545
Cr0 O6 2.011084 1_555
Cr0 O0 2.018343 1_555
Cr0 O3 2.018343 1_545
Cr1 O1 2.011084 1_554
Cr1 O7 2.011084 1_555
Cr1 O4 2.011084 1_554
Cr1 O5 2.011084 1_555
Cr1 O0 2.018343 1_555
Cr1 O3 2.018343 1_554
Cr2 O1 2.011084 1_455
Cr2 O5 2.011084 1_555
Cr2 O2 2.011084 1_455
Cr2 O6 2.011084 1_555
Cr2 O0 2.018343 1_555
Cr2 O3 2.018343 1_455
Cu0 O2 1.960324 1_445
Cu0 O6 1.960324 1_554
Cu0 O4 1.960324 1_544
Cu0 O7 1.960324 1_455
Cu0 O5 1.960324 1_545
Cu0 O1 1.960324 1_454
