# generated using pymatgen
data_MnOF
_symmetry_space_group_name_H-M   'P 1'
_cell_length_a   5.65633400
_cell_length_b   6.93583467
_cell_length_c   7.08282459
_cell_angle_alpha   93.47548743
_cell_angle_beta   91.91863770
_cell_angle_gamma   90.98920142
_symmetry_Int_Tables_number   1
_chemical_formula_structural   MnOF
_chemical_formula_sum   'Mn8 O8 F8'
_cell_volume   277.15071721
_cell_formula_units_Z   8
loop_
 _symmetry_equiv_pos_site_id
 _symmetry_equiv_pos_as_xyz
  1  'x, y, z'
loop_
 _atom_site_type_symbol
 _atom_site_label
 _atom_site_symmetry_multiplicity
 _atom_site_fract_x
 _atom_site_fract_y
 _atom_site_fract_z
 _atom_site_occupancy
  Mn  Mn0  1  0.46320400  0.75126700  0.25101100  1
  Mn  Mn1  1  0.50602300  0.75119500  0.75143300  1
  Mn  Mn2  1  0.56431000  0.24532200  0.26206300  1
  Mn  Mn3  1  0.40127000  0.25393700  0.75704000  1
  Mn  Mn4  1  0.11873100  0.49850900  0.48691100  1
  Mn  Mn5  1  0.85594600  0.50001100  0.99372200  1
  Mn  Mn6  1  0.92710100  0.99901500  0.50922300  1
  Mn  Mn7  1  0.13767700  0.00203500  0.99475700  1
  O  O0  1  0.17531400  0.03034000  0.72985600  1
  O  O1  1  0.36886300  0.69329700  0.50243600  1
  O  O2  1  0.37319800  0.19794600  0.02470400  1
  O  O3  1  0.34553600  0.30019700  0.48967700  1
  O  O4  1  0.37952100  0.80885000  0.99621900  1
  O  O5  1  0.62997900  0.98733400  0.32324600  1
  O  O6  1  0.62910500  0.50792200  0.19121400  1
  O  O7  1  0.60343200  0.48966700  0.80200100  1
  F  F0  1  0.09680900  0.46526400  0.79225400  1
  F  F1  1  0.11188100  0.54081100  0.19297700  1
  F  F2  1  0.13096900  0.96423200  0.26954500  1
  F  F3  1  0.65342800  0.01640800  0.70973500  1
  F  F4  1  0.88903800  0.80000300  0.95427100  1
  F  F5  1  0.86302200  0.29576200  0.45659300  1
  F  F6  1  0.88557800  0.70196100  0.52818500  1
  F  F7  1  0.89006600  0.19871300  0.03093100  1
loop_
_geom_bond_atom_site_label_1
_geom_bond_atom_site_label_2
_geom_bond_distance
_geom_bond_site_symmetry_2
Mn0 O5 1.909255 1_555
Mn0 O4 1.917557 1_554
Mn0 O1 1.939251 1_555
Mn0 O6 1.975667 1_555
Mn1 O1 1.919690 1_555
Mn1 O4 1.920097 1_555
Mn1 O7 1.955047 1_555
Mn2 O5 1.906243 1_545
Mn2 O6 1.950265 1_555
Mn2 O2 1.975330 1_555
Mn2 O3 2.085820 1_555
Mn3 O3 1.955903 1_555
Mn3 O2 1.969121 1_556
Mn3 O7 1.982449 1_555
Mn3 O0 1.988600 1_555
Mn4 O3 1.897518 1_555
Mn4 O1 1.935111 1_555
Mn5 O6 1.928543 1_556
Mn5 O7 1.934926 1_555
Mn6 O0 2.064410 1_665
Mn6 O5 2.097690 1_555
Mn7 O2 1.884064 1_556
Mn7 O0 1.916802 1_555
Mn7 O4 1.931514 1_545
F0 Mn5 2.012526 1_455
F0 Mn4 2.196180 1_555
F0 Mn3 2.290831 1_555
F1 Mn5 1.992020 1_454
F1 Mn4 2.119167 1_555
F1 Mn0 2.453776 1_555
F2 Mn7 1.981072 1_564
F2 Mn6 2.088256 1_455
F2 Mn0 2.412342 1_555
F3 Mn1 2.048283 1_545
F3 Mn6 2.135566 1_545
F3 Mn3 2.215153 1_555
F4 Mn7 1.969749 1_665
F4 Mn5 2.122016 1_555
F4 Mn1 2.565045 1_555
F5 Mn4 1.996981 1_655
F5 Mn6 2.148534 1_545
F5 Mn2 2.154263 1_555
F6 Mn4 1.963659 1_655
F6 Mn6 2.082561 1_555
F7 Mn7 1.983861 1_654
F7 Mn5 2.133322 1_554
F7 Mn2 2.517538 1_555
