# generated using pymatgen
data_Co4(P2O7)3
_symmetry_space_group_name_H-M   'P 1'
_cell_length_a   21.62100200
_cell_length_b   7.38670500
_cell_length_c   12.07077355
_cell_angle_alpha   52.88890614
_cell_angle_beta   90.00000000
_cell_angle_gamma   90.00000000
_symmetry_Int_Tables_number   1
_chemical_formula_structural   Co4(P2O7)3
_chemical_formula_sum   'Co16 P24 O84'
_cell_volume   1537.35604426
_cell_formula_units_Z   4
loop_
 _symmetry_equiv_pos_site_id
 _symmetry_equiv_pos_as_xyz
  1  'x, y, z'
loop_
 _atom_site_type_symbol
 _atom_site_label
 _atom_site_symmetry_multiplicity
 _atom_site_fract_x
 _atom_site_fract_y
 _atom_site_fract_z
 _atom_site_occupancy
  Co  Co0  1  0.75887800  0.32422200  0.70965400  1
  Co  Co1  1  0.49941400  0.77172200  0.26553600  1
  Co  Co2  1  0.25364600  0.28007400  0.77719900  1
  Co  Co3  1  0.99400000  0.80753900  0.24644700  1
  Co  Co4  1  0.49400000  0.19246100  0.25355300  1
  Co  Co5  1  0.75364600  0.71992600  0.72280100  1
  Co  Co6  1  0.99941400  0.22827800  0.23446400  1
  Co  Co7  1  0.25887800  0.67577800  0.79034600  1
  Co  Co8  1  0.74112200  0.32422200  0.20965400  1
  Co  Co9  1  0.00058600  0.77172200  0.76553600  1
  Co  Co10  1  0.24635400  0.28007400  0.27719900  1
  Co  Co11  1  0.50600000  0.80753900  0.74644700  1
  Co  Co12  1  0.00600000  0.19246100  0.75355300  1
  Co  Co13  1  0.74635400  0.71992600  0.22280100  1
  Co  Co14  1  0.50058600  0.22827800  0.73446400  1
  Co  Co15  1  0.24112200  0.67577800  0.29034600  1
  P  P0  1  0.68699700  0.23885300  0.99358000  1
  P  P1  1  0.89008400  0.40457700  0.83187900  1
  P  P2  1  0.85843600  0.08257800  0.15700400  1
  P  P3  1  0.69993900  0.79430600  0.44562400  1
  P  P4  1  0.54700400  0.28522600  0.96830900  1
  P  P5  1  0.56041100  0.72665700  0.52579700  1
  P  P6  1  0.06041100  0.27334300  0.97420300  1
  P  P7  1  0.04700400  0.71477400  0.53169100  1
  P  P8  1  0.19993900  0.20569400  0.05437600  1
  P  P9  1  0.35843600  0.91742200  0.34299600  1
  P  P10  1  0.39008400  0.59542300  0.66812100  1
  P  P11  1  0.18699700  0.76114700  0.50642000  1
  P  P12  1  0.81300300  0.23885300  0.49358000  1
  P  P13  1  0.60991600  0.40457700  0.33187900  1
  P  P14  1  0.64156400  0.08257800  0.65700400  1
  P  P15  1  0.80006100  0.79430600  0.94562400  1
  P  P16  1  0.95299600  0.28522600  0.46830900  1
  P  P17  1  0.93958900  0.72665700  0.02579700  1
  P  P18  1  0.43958900  0.27334300  0.47420300  1
  P  P19  1  0.45299600  0.71477400  0.03169100  1
  P  P20  1  0.30006100  0.20569400  0.55437600  1
  P  P21  1  0.14156400  0.91742200  0.84299600  1
  P  P22  1  0.10991600  0.59542300  0.16812100  1
  P  P23  1  0.31300300  0.76114700  0.00642000  1
  O  O0  1  0.04192000  0.46352600  0.59652200  1
  O  O1  1  0.70825500  0.68459600  0.37403700  1
  O  O2  1  0.92883000  0.28147000  0.78926000  1
  O  O3  1  0.55428100  0.47149600  0.60830500  1
  O  O4  1  0.82369800  0.86617100  0.20042300  1
  O  O5  1  0.70510400  0.99094100  0.07708300  1
  O  O6  1  0.04944000  0.17858600  0.89504200  1
  O  O7  1  0.32025400  0.76233600  0.32558000  1
  O  O8  1  0.42297600  0.39934200  0.68238100  1
  O  O9  1  0.19041800  0.65822500  0.42836500  1
  O  O10  1  0.21864800  0.95970700  0.13492500  1
  O  O11  1  0.51046300  0.21869000  0.88981400  1
  O  O12  1  0.61639600  0.23563600  0.95456900  1
  O  O13  1  0.87349200  0.21948300  0.99412900  1
  O  O14  1  0.82918400  0.48497400  0.74940500  1
  O  O15  1  0.12938500  0.20893200  0.02535900  1
  O  O16  1  0.41975900  0.98566000  0.26137200  1
  O  O17  1  0.71859600  0.38887900  0.85106400  1
  O  O18  1  0.73358600  0.65213300  0.58652600  1
  O  O19  1  0.03012000  0.87009700  0.37643100  1
  O  O20  1  0.02122600  0.14775700  0.10769500  1
  O  O21  1  0.52122600  0.85224300  0.39230500  1
  O  O22  1  0.53012000  0.12990300  0.12356900  1
  O  O23  1  0.23358600  0.34786700  0.91347400  1
  O  O24  1  0.21859600  0.61112100  0.64893600  1
  O  O25  1  0.91975900  0.01434000  0.23862800  1
  O  O26  1  0.62938500  0.79106800  0.47464100  1
  O  O27  1  0.32918400  0.51502600  0.75059500  1
  O  O28  1  0.37349200  0.78051700  0.50587100  1
  O  O29  1  0.11639600  0.76436400  0.54543100  1
  O  O30  1  0.01046300  0.78131000  0.61018600  1
  O  O31  1  0.71864800  0.04029300  0.36507500  1
  O  O32  1  0.69041800  0.34177500  0.07163500  1
  O  O33  1  0.92297600  0.60065800  0.81761900  1
  O  O34  1  0.82025400  0.23766400  0.17442000  1
  O  O35  1  0.54944000  0.82141400  0.60495800  1
  O  O36  1  0.20510400  0.00905900  0.42291700  1
  O  O37  1  0.32369800  0.13382900  0.29957700  1
  O  O38  1  0.05428100  0.52850400  0.89169500  1
  O  O39  1  0.42883000  0.71853000  0.71074000  1
  O  O40  1  0.20825500  0.31540400  0.12596300  1
  O  O41  1  0.54192000  0.53647400  0.90347800  1
  O  O42  1  0.45808000  0.46352600  0.09652200  1
  O  O43  1  0.79174500  0.68459600  0.87403700  1
  O  O44  1  0.57117000  0.28147000  0.28926000  1
  O  O45  1  0.94571900  0.47149600  0.10830500  1
  O  O46  1  0.67630200  0.86617100  0.70042300  1
  O  O47  1  0.79489600  0.99094100  0.57708300  1
  O  O48  1  0.45056000  0.17858600  0.39504200  1
  O  O49  1  0.17974600  0.76233600  0.82558000  1
  O  O50  1  0.07702400  0.39934200  0.18238100  1
  O  O51  1  0.30958200  0.65822500  0.92836500  1
  O  O52  1  0.28135200  0.95970700  0.63492500  1
  O  O53  1  0.98953700  0.21869000  0.38981400  1
  O  O54  1  0.88360400  0.23563600  0.45456900  1
  O  O55  1  0.62650800  0.21948300  0.49412900  1
  O  O56  1  0.67081600  0.48497400  0.24940500  1
  O  O57  1  0.37061500  0.20893200  0.52535900  1
  O  O58  1  0.08024100  0.98566000  0.76137200  1
  O  O59  1  0.78140400  0.38887900  0.35106400  1
  O  O60  1  0.76641400  0.65213300  0.08652600  1
  O  O61  1  0.46988000  0.87009700  0.87643100  1
  O  O62  1  0.47877400  0.14775700  0.60769500  1
  O  O63  1  0.97877400  0.85224300  0.89230500  1
  O  O64  1  0.96988000  0.12990300  0.62356900  1
  O  O65  1  0.26641400  0.34786700  0.41347400  1
  O  O66  1  0.28140400  0.61112100  0.14893600  1
  O  O67  1  0.58024100  0.01434000  0.73862800  1
  O  O68  1  0.87061500  0.79106800  0.97464100  1
  O  O69  1  0.17081600  0.51502600  0.25059500  1
  O  O70  1  0.12650800  0.78051700  0.00587100  1
  O  O71  1  0.38360400  0.76436400  0.04543100  1
  O  O72  1  0.48953700  0.78131000  0.11018600  1
  O  O73  1  0.78135200  0.04029300  0.86507500  1
  O  O74  1  0.80958200  0.34177500  0.57163500  1
  O  O75  1  0.57702400  0.60065800  0.31761900  1
  O  O76  1  0.67974600  0.23766400  0.67442000  1
  O  O77  1  0.95056000  0.82141400  0.10495800  1
  O  O78  1  0.29489600  0.00905900  0.92291700  1
  O  O79  1  0.17630200  0.13382900  0.79957700  1
  O  O80  1  0.44571900  0.52850400  0.39169500  1
  O  O81  1  0.07117000  0.71853000  0.21074000  1
  O  O82  1  0.29174500  0.31540400  0.62596300  1
  O  O83  1  0.95808000  0.53647400  0.40347800  1
loop_
_geom_bond_atom_site_label_1
_geom_bond_atom_site_label_2
_geom_bond_distance
_geom_bond_site_symmetry_2
Co0 O73 1.845620 1_555
Co0 O74 1.932226 1_555
Co0 O76 1.960881 1_555
Co0 O18 2.007677 1_555
Co0 O14 2.153699 1_555
Co0 O17 2.209977 1_555
Co1 O72 1.845728 1_555
Co1 O80 1.895530 1_555
Co1 O75 1.961888 1_555
Co1 O21 2.003989 1_555
Co1 O22 2.215012 1_565
Co1 O16 2.317339 1_555
Co2 O82 1.871986 1_555
Co2 O78 1.909910 1_555
Co2 O79 1.919442 1_555
Co2 O23 2.034390 1_555
Co2 O24 2.093421 1_555
Co2 O27 2.260527 1_555
Co3 O77 1.896909 1_555
Co3 O83 1.904012 1_555
Co3 O81 1.934913 1_655
Co3 O19 2.039637 1_655
Co3 O20 2.094777 1_665
Co3 O25 2.178297 1_565
Co4 O48 1.896909 1_555
Co4 O42 1.904012 1_555
Co4 O44 1.934913 1_555
Co4 O22 2.039637 1_555
Co4 O21 2.094777 1_545
Co4 O16 2.178297 1_545
Co5 O43 1.871986 1_555
Co5 O47 1.909910 1_555
Co5 O46 1.919442 1_555
Co5 O18 2.034390 1_555
Co5 O17 2.093421 1_555
Co5 O14 2.260527 1_555
Co6 O53 1.845728 1_555
Co6 O45 1.895530 1_555
Co6 O50 1.961888 1_655
Co6 O20 2.003989 1_655
Co6 O19 2.215012 1_645
Co6 O25 2.317339 1_555
Co7 O52 1.845620 1_555
Co7 O51 1.932226 1_555
Co7 O49 1.960881 1_555
Co7 O23 2.007677 1_555
Co7 O27 2.153699 1_555
Co7 O24 2.209977 1_555
Co8 O31 1.845620 1_555
Co8 O32 1.932226 1_555
Co8 O34 1.960881 1_555
Co8 O60 2.007677 1_555
Co8 O56 2.153699 1_555
Co8 O59 2.209977 1_555
Co9 O30 1.845728 1_555
Co9 O38 1.895530 1_555
Co9 O33 1.961888 1_455
Co9 O63 2.003989 1_455
Co9 O64 2.215012 1_465
Co9 O58 2.317339 1_555
Co10 O40 1.871986 1_555
Co10 O36 1.909910 1_555
Co10 O37 1.919442 1_555
Co10 O65 2.034390 1_555
Co10 O66 2.093421 1_555
Co10 O69 2.260527 1_555
Co11 O35 1.896909 1_555
Co11 O41 1.904012 1_555
Co11 O39 1.934913 1_555
Co11 O61 2.039637 1_555
Co11 O62 2.094777 1_565
Co11 O67 2.178297 1_565
Co12 O6 1.896909 1_555
Co12 O0 1.904012 1_555
Co12 O2 1.934913 1_455
Co12 O64 2.039637 1_455
Co12 O63 2.094777 1_445
Co12 O58 2.178297 1_545
Co13 O1 1.871986 1_555
Co13 O5 1.909910 1_555
Co13 O4 1.919442 1_555
Co13 O60 2.034390 1_555
Co13 O59 2.093421 1_555
Co13 O56 2.260527 1_555
Co14 O11 1.845728 1_555
Co14 O3 1.895530 1_555
Co14 O8 1.961888 1_555
Co14 O62 2.003989 1_555
Co14 O61 2.215012 1_545
Co14 O67 2.317339 1_555
Co15 O10 1.845620 1_555
Co15 O9 1.932226 1_555
Co15 O7 1.960881 1_555
Co15 O65 2.007677 1_555
Co15 O69 2.153699 1_555
Co15 O66 2.209977 1_555
O0 P7 1.521921 1_555
O1 P3 1.510229 1_555
O2 P1 1.535542 1_555
O3 P5 1.515497 1_555
O4 P2 1.543734 1_565
O5 P0 1.515035 1_564
O6 P6 1.505427 1_555
O7 P9 1.525993 1_555
O8 P10 1.527208 1_555
O9 P11 1.528249 1_555
O10 P8 1.509531 1_565
O11 P4 1.524936 1_555
O12 P4 1.576697 1_555
O12 P0 1.601843 1_555
O13 P2 1.610808 1_556
O13 P1 1.613203 1_555
O14 P1 1.537553 1_555
O15 P8 1.562093 1_555
O15 P6 1.573873 1_554
O16 P9 1.543840 1_555
O17 P0 1.534182 1_555
O18 P3 1.539297 1_555
O19 P7 1.538566 1_555
O20 P6 1.539802 1_554
O21 P5 1.539802 1_555
O22 P4 1.538566 1_554
O23 P8 1.539297 1_556
O24 P11 1.534182 1_555
O25 P2 1.543840 1_555
O26 P3 1.562093 1_555
O26 P5 1.573873 1_555
O27 P10 1.537553 1_555
O28 P9 1.610808 1_555
O28 P10 1.613203 1_555
O29 P7 1.576697 1_555
O29 P11 1.601843 1_555
O30 P7 1.524936 1_555
O31 P3 1.509531 1_545
O32 P0 1.528249 1_554
O33 P1 1.527208 1_555
O34 P2 1.525993 1_555
O35 P5 1.505427 1_555
O36 P11 1.515035 1_545
O37 P9 1.543734 1_545
O38 P6 1.515497 1_555
O39 P10 1.535542 1_555
O40 P8 1.510229 1_555
O41 P4 1.521921 1_555
O42 P19 1.521921 1_555
O43 P15 1.510229 1_555
O44 P13 1.535542 1_555
O45 P17 1.515497 1_555
O46 P14 1.543734 1_565
O47 P12 1.515035 1_565
O48 P18 1.505427 1_555
O49 P21 1.525993 1_555
O50 P22 1.527208 1_555
O51 P23 1.528249 1_556
O52 P20 1.509531 1_565
O53 P16 1.524936 1_555
O54 P16 1.576697 1_555
O54 P12 1.601843 1_555
O55 P14 1.610808 1_555
O55 P13 1.613203 1_555
O56 P13 1.537553 1_555
O57 P20 1.562093 1_555
O57 P18 1.573873 1_555
O58 P21 1.543840 1_555
O59 P12 1.534182 1_555
O60 P15 1.539297 1_554
O61 P19 1.538566 1_556
O62 P18 1.539802 1_555
O63 P17 1.539802 1_556
O64 P16 1.538566 1_555
O65 P20 1.539297 1_555
O66 P23 1.534182 1_555
O67 P14 1.543840 1_555
O68 P15 1.562093 1_555
O68 P17 1.573873 1_556
O69 P22 1.537553 1_555
O70 P21 1.610808 1_554
O70 P22 1.613203 1_555
O71 P19 1.576697 1_555
O71 P23 1.601843 1_555
O72 P19 1.524936 1_555
O73 P15 1.509531 1_545
O74 P12 1.528249 1_555
O75 P13 1.527208 1_555
O76 P14 1.525993 1_555
O77 P17 1.505427 1_555
O78 P23 1.515035 1_546
O79 P21 1.543734 1_545
O80 P18 1.515497 1_555
O81 P22 1.535542 1_555
O82 P20 1.510229 1_555
O83 P16 1.521921 1_555
