# generated using pymatgen
data_Rb4I2O
_symmetry_space_group_name_H-M   'P 1'
_cell_length_a   9.94486507
_cell_length_b   9.94486507
_cell_length_c   9.94486507
_cell_angle_alpha   147.51068931
_cell_angle_beta   147.51068931
_cell_angle_gamma   46.60821381
_symmetry_Int_Tables_number   1
_chemical_formula_structural   Rb4I2O
_chemical_formula_sum   'Rb4 I2 O1'
_cell_volume   282.75124940
_cell_formula_units_Z   1
loop_
 _symmetry_equiv_pos_site_id
 _symmetry_equiv_pos_as_xyz
  1  'x, y, z'
loop_
 _atom_site_type_symbol
 _atom_site_label
 _atom_site_symmetry_multiplicity
 _atom_site_fract_x
 _atom_site_fract_y
 _atom_site_fract_z
 _atom_site_occupancy
  Rb  Rb0  1  0.50000000  0.00000000  0.50000000  1
  Rb  Rb1  1  0.14772791  0.14772791  -0.00000000  1
  Rb  Rb2  1  0.85227209  0.85227209  -0.00000000  1
  Rb  Rb3  1  0.00000000  0.50000000  0.50000000  1
  I  I0  1  0.35515451  0.35515451  0.00000000  1
  I  I1  1  0.64484549  0.64484549  0.00000000  1
  O  O0  1  0.00000000  0.00000000  0.00000000  1
loop_
_geom_bond_atom_site_label_1
_geom_bond_atom_site_label_2
_geom_bond_distance
_geom_bond_site_symmetry_2
I0 Rb1 3.789080 1_555
I0 Rb0 3.839294 1_565
I0 Rb3 3.839294 1_554
I0 Rb3 3.839294 1_655
I0 Rb0 3.839294 1_554
I0 Rb2 3.934654 1_556
I0 Rb2 3.934654 1_545
I0 Rb2 3.934654 1_444
I0 Rb2 3.934654 1_455
I1 Rb2 3.789080 1_555
I1 Rb3 3.839294 1_655
I1 Rb0 3.839294 1_554
I1 Rb3 3.839294 1_554
I1 Rb0 3.839294 1_565
I1 Rb1 3.934654 1_666
I1 Rb1 3.934654 1_554
I1 Rb1 3.934654 1_565
I1 Rb1 3.934654 1_655
O0 Rb2 2.698559 1_445
O0 Rb1 2.698559 1_555
O0 Rb0 2.781971 1_454
O0 Rb3 2.781971 1_555
O0 Rb3 2.781971 1_544
O0 Rb0 2.781971 1_555
