# generated using pymatgen
data_Na5Bi2As(CO4)4
_symmetry_space_group_name_H-M   'P 1'
_cell_length_a   10.52013912
_cell_length_b   10.49513744
_cell_length_c   10.40925477
_cell_angle_alpha   60.42886753
_cell_angle_beta   60.18976824
_cell_angle_gamma   59.38136423
_symmetry_Int_Tables_number   1
_chemical_formula_structural   Na5Bi2As(CO4)4
_chemical_formula_sum   'Na10 Bi4 As2 C8 O32'
_cell_volume   812.52160490
_cell_formula_units_Z   2
loop_
 _symmetry_equiv_pos_site_id
 _symmetry_equiv_pos_as_xyz
  1  'x, y, z'
loop_
 _atom_site_type_symbol
 _atom_site_label
 _atom_site_symmetry_multiplicity
 _atom_site_fract_x
 _atom_site_fract_y
 _atom_site_fract_z
 _atom_site_occupancy
  Na  Na0  1  0.55380800  0.94619200  0.55380800  1
  Na  Na1  1  0.69494300  0.30505700  0.30505700  1
  Na  Na2  1  0.30555100  0.69444900  0.30555100  1
  Na  Na3  1  0.55362100  0.55362100  0.94637900  1
  Na  Na4  1  0.94637900  0.94637900  0.55362100  1
  Na  Na5  1  0.94645800  0.55354200  0.55354200  1
  Na  Na6  1  0.30505700  0.69494300  0.69494300  1
  Na  Na7  1  0.94619200  0.55380800  0.94619200  1
  Na  Na8  1  0.55354200  0.94645800  0.94645800  1
  Na  Na9  1  0.69444900  0.30555100  0.69444900  1
  Bi  Bi0  1  0.13024700  0.12897700  0.11668300  1
  Bi  Bi1  1  0.62409300  0.11668300  0.12897700  1
  Bi  Bi2  1  0.11668300  0.62409300  0.13024700  1
  Bi  Bi3  1  0.12897700  0.13024700  0.62409300  1
  As  As0  1  0.75000000  0.75000000  0.75000000  1
  As  As1  1  0.50000000  0.50000000  0.50000000  1
  C  C0  1  0.34283100  0.96507400  0.34450800  1
  C  C1  1  0.34450800  0.34758700  0.34283100  1
  C  C2  1  0.34758700  0.34450800  0.96507400  1
  C  C3  1  0.96507400  0.34283100  0.34758700  1
  C  C4  1  0.90626000  0.90740300  0.29108800  1
  C  C5  1  0.29108800  0.89524900  0.90626000  1
  C  C6  1  0.89524900  0.29108800  0.90740300  1
  C  C7  1  0.90740300  0.90626000  0.89524900  1
  O  O0  1  0.92090200  0.02429100  0.28955700  1
  O  O1  1  0.33489600  0.96199700  0.47532500  1
  O  O2  1  0.47532500  0.22778200  0.33489600  1
  O  O3  1  0.76525000  0.28955700  0.02429100  1
  O  O4  1  0.22238600  0.33885500  0.46609500  1
  O  O5  1  0.68271500  0.68297100  0.95175900  1
  O  O6  1  0.95175900  0.68255600  0.68271500  1
  O  O7  1  0.33641900  0.47746400  0.22480800  1
  O  O8  1  0.22480800  0.96130900  0.33641900  1
  O  O9  1  0.47746400  0.33641900  0.96130900  1
  O  O10  1  0.96130900  0.22480800  0.47746400  1
  O  O11  1  0.68255600  0.95175900  0.68297100  1
  O  O12  1  0.68297100  0.68271500  0.68255600  1
  O  O13  1  0.02381300  0.77481400  0.29272400  1
  O  O14  1  0.29272400  0.90864800  0.02381300  1
  O  O15  1  0.97266400  0.46609500  0.33885500  1
  O  O16  1  0.28955700  0.76525000  0.92090200  1
  O  O17  1  0.96199700  0.33489600  0.22778200  1
  O  O18  1  0.22778200  0.47532500  0.96199700  1
  O  O19  1  0.58396400  0.29748600  0.55917200  1
  O  O20  1  0.55917200  0.55937800  0.58396400  1
  O  O21  1  0.29429500  0.00928600  0.77544400  1
  O  O22  1  0.77544400  0.92097500  0.29429500  1
  O  O23  1  0.00928600  0.29429500  0.92097500  1
  O  O24  1  0.92097500  0.77544400  0.00928600  1
  O  O25  1  0.29748600  0.58396400  0.55937800  1
  O  O26  1  0.55937800  0.55917200  0.29748600  1
  O  O27  1  0.02429100  0.92090200  0.76525000  1
  O  O28  1  0.46609500  0.97266400  0.22238600  1
  O  O29  1  0.77481400  0.02381300  0.90864800  1
  O  O30  1  0.90864800  0.29272400  0.77481400  1
  O  O31  1  0.33885500  0.22238600  0.97266400  1
loop_
_geom_bond_atom_site_label_1
_geom_bond_atom_site_label_2
_geom_bond_distance
_geom_bond_site_symmetry_2
Na0 O12 2.369450 1_555
Na0 O11 2.369456 1_555
Na0 O21 2.572641 1_565
Na0 O22 2.572641 1_555
Na0 O1 2.710424 1_555
Na0 O2 2.710424 1_565
Na1 O19 2.276564 1_555
Na1 O26 2.276564 1_555
Na1 O2 2.653073 1_555
Na1 O17 2.653073 1_555
Na1 O3 2.704139 1_555
Na1 O0 2.704139 1_555
Na2 O25 2.277310 1_555
Na2 O26 2.277310 1_555
Na2 O7 2.619610 1_555
Na2 O8 2.619610 1_555
Na2 O14 2.692557 1_555
Na2 O13 2.692559 1_555
Na3 O12 2.391470 1_555
Na3 O5 2.391476 1_555
Na3 O16 2.566456 1_555
Na3 O3 2.566456 1_556
Na3 O7 2.692470 1_556
Na3 O9 2.692470 1_555
Na4 O11 2.391467 1_555
Na4 O6 2.391467 1_555
Na4 O0 2.566456 1_565
Na4 O27 2.566456 1_655
Na4 O10 2.692470 1_565
Na4 O8 2.692470 1_655
Na5 O12 2.364912 1_555
Na5 O6 2.364918 1_555
Na5 O13 2.632780 1_655
Na5 O30 2.632782 1_555
Na5 O15 2.658261 1_555
Na5 O4 2.658261 1_655
Na6 O25 2.276564 1_555
Na6 O20 2.276564 1_555
Na6 O18 2.653073 1_555
Na6 O1 2.653073 1_555
Na6 O27 2.704139 1_555
Na6 O16 2.704139 1_555
Na7 O5 2.369447 1_555
Na7 O6 2.369447 1_555
Na7 O23 2.572641 1_655
Na7 O24 2.572641 1_556
Na7 O17 2.710424 1_556
Na7 O18 2.710424 1_655
Na8 O5 2.364909 1_555
Na8 O11 2.364909 1_555
Na8 O29 2.632775 1_565
Na8 O14 2.632785 1_556
Na8 O31 2.658261 1_565
Na8 O28 2.658261 1_556
Na9 O19 2.277310 1_555
Na9 O20 2.277310 1_555
Na9 O10 2.619610 1_555
Na9 O9 2.619610 1_555
Na9 O30 2.692549 1_555
Na9 O29 2.692555 1_555
Bi0 O31 2.344050 1_554
Bi0 O23 2.370556 1_554
Bi0 O17 2.382424 1_455
Bi0 O14 2.395945 1_545
Bi0 O8 2.413367 1_545
Bi0 O0 2.422532 1_455
Bi1 O28 2.344050 1_545
Bi1 O22 2.370556 1_545
Bi1 O2 2.382424 1_555
Bi1 O29 2.395945 1_554
Bi1 O9 2.413367 1_554
Bi1 O3 2.422532 1_555
Bi2 O15 2.344050 1_455
Bi2 O24 2.370556 1_455
Bi2 O18 2.382424 1_554
Bi2 O13 2.395936 1_555
Bi2 O7 2.413367 1_555
Bi2 O16 2.422532 1_554
Bi3 O4 2.344050 1_555
Bi3 O21 2.370556 1_555
Bi3 O1 2.382424 1_545
Bi3 O30 2.395939 1_455
Bi3 O10 2.413367 1_455
Bi3 O27 2.422532 1_545
As0 O12 1.725554 1_555
As0 O5 1.725562 1_555
As0 O11 1.725562 1_555
As0 O6 1.725562 1_555
As1 O20 1.735921 1_555
As1 O19 1.735921 1_555
As1 O25 1.735921 1_555
As1 O26 1.735921 1_555
C0 O28 1.292352 1_555
C0 O8 1.306703 1_555
C0 O1 1.307128 1_555
C1 O4 1.292352 1_555
C1 O7 1.306703 1_555
C1 O2 1.307128 1_555
C2 O31 1.292352 1_555
C2 O9 1.306703 1_555
C2 O18 1.307128 1_555
C3 O15 1.292352 1_555
C3 O10 1.306703 1_555
C3 O17 1.307128 1_555
C4 O22 1.294091 1_555
C4 O0 1.303710 1_565
C4 O13 1.307908 1_655
C5 O21 1.294091 1_565
C5 O16 1.303710 1_555
C5 O14 1.307902 1_556
C6 O23 1.294091 1_655
C6 O3 1.303710 1_556
C6 O30 1.307912 1_555
C7 O24 1.294091 1_556
C7 O27 1.303710 1_655
C7 O29 1.307907 1_565
