# generated using pymatgen
data_Li3TiV3O8
_symmetry_space_group_name_H-M   'P 1'
_cell_length_a   5.91525020
_cell_length_b   5.91525020
_cell_length_c   9.66869900
_cell_angle_alpha   90.00000000
_cell_angle_beta   90.00000000
_cell_angle_gamma   120.00000223
_symmetry_Int_Tables_number   1
_chemical_formula_structural   Li3TiV3O8
_chemical_formula_sum   'Li6 Ti2 V6 O16'
_cell_volume   292.98467188
_cell_formula_units_Z   2
loop_
 _symmetry_equiv_pos_site_id
 _symmetry_equiv_pos_as_xyz
  1  'x, y, z'
loop_
 _atom_site_type_symbol
 _atom_site_label
 _atom_site_symmetry_multiplicity
 _atom_site_fract_x
 _atom_site_fract_y
 _atom_site_fract_z
 _atom_site_occupancy
  Li  Li0  1  0.82746200  0.17253800  0.55769300  1
  Li  Li1  1  0.82746200  0.65492400  0.55769300  1
  Li  Li2  1  0.34507600  0.17253800  0.55769300  1
  Li  Li3  1  0.65492400  0.82746200  0.05769300  1
  Li  Li4  1  0.17253800  0.34507600  0.05769300  1
  Li  Li5  1  0.17253800  0.82746200  0.05769300  1
  Ti  Ti0  1  0.66666700  0.33333300  0.00489200  1
  Ti  Ti1  1  0.33333300  0.66666700  0.50489200  1
  V  V0  1  0.83073000  0.16927000  0.28564100  1
  V  V1  1  0.83073000  0.66145900  0.28564100  1
  V  V2  1  0.33854100  0.16927000  0.28564100  1
  V  V3  1  0.66145900  0.83073000  0.78564100  1
  V  V4  1  0.16927000  0.33854100  0.78564100  1
  V  V5  1  0.16927000  0.83073000  0.78564100  1
  O  O0  1  0.00000000  0.00000000  0.17788500  1
  O  O1  1  0.00000000  0.00000000  0.67788500  1
  O  O2  1  0.83305700  0.16694300  0.91119100  1
  O  O3  1  0.96423200  0.48211600  0.15358200  1
  O  O4  1  0.51788400  0.03576800  0.15358200  1
  O  O5  1  0.66666700  0.33333300  0.40009400  1
  O  O6  1  0.83305700  0.66611400  0.91119100  1
  O  O7  1  0.51788400  0.48211600  0.15358200  1
  O  O8  1  0.33388600  0.16694300  0.91119100  1
  O  O9  1  0.66611400  0.83305700  0.41119100  1
  O  O10  1  0.48211600  0.51788400  0.65358200  1
  O  O11  1  0.48211600  0.96423200  0.65358200  1
  O  O12  1  0.33333300  0.66666700  0.90009400  1
  O  O13  1  0.16694300  0.33388600  0.41119100  1
  O  O14  1  0.03576800  0.51788400  0.65358200  1
  O  O15  1  0.16694300  0.83305700  0.41119100  1
loop_
_geom_bond_atom_site_label_1
_geom_bond_atom_site_label_2
_geom_bond_distance
_geom_bond_site_symmetry_2
Li0 O14 2.008427 1_655
Li0 O11 2.008427 1_545
Li0 O1 2.115510 1_655
Li0 O9 2.243498 1_545
Li0 O13 2.243498 1_655
Li0 O5 2.244084 1_555
Li1 O10 2.008427 1_555
Li1 O14 2.008427 1_655
Li1 O1 2.115510 1_665
Li1 O15 2.243498 1_655
Li1 O9 2.243498 1_555
Li1 O5 2.244088 1_555
Li2 O10 2.008427 1_555
Li2 O11 2.008427 1_545
Li2 O1 2.115510 1_555
Li2 O15 2.243498 1_545
Li2 O13 2.243498 1_555
Li2 O5 2.244088 1_555
Li3 O7 2.008427 1_555
Li3 O4 2.008427 1_565
Li3 O0 2.115510 1_665
Li3 O2 2.243498 1_564
Li3 O6 2.243498 1_554
Li3 O12 2.244088 1_554
Li4 O7 2.008427 1_555
Li4 O3 2.008427 1_455
Li4 O0 2.115510 1_555
Li4 O2 2.243498 1_454
Li4 O8 2.243498 1_554
Li4 O12 2.244088 1_554
Li5 O3 2.008427 1_455
Li5 O4 2.008427 1_565
Li5 O0 2.115510 1_565
Li5 O6 2.243498 1_454
Li5 O8 2.243498 1_564
Li5 O12 2.244084 1_554
O0 V0 2.023147 1_455
O0 V2 2.023151 1_555
O0 V1 2.023151 1_445
O1 V5 2.023147 1_545
O1 V3 2.023151 1_445
O1 V4 2.023151 1_555
O2 Ti0 1.930532 1_556
O2 V4 2.107235 1_655
O2 V3 2.107235 1_545
O3 V1 2.053562 1_555
O3 V0 2.053567 1_555
O3 Ti0 2.095342 1_555
O4 V2 2.053562 1_555
O4 V0 2.053567 1_555
O4 Ti0 2.095342 1_555
O5 V2 2.012473 1_555
O5 V1 2.012473 1_555
O5 V0 2.012473 1_555
O6 Ti0 1.930536 1_556
O6 V5 2.107235 1_655
O6 V3 2.107239 1_555
O7 V1 2.053566 1_555
O7 V2 2.053566 1_555
O7 Ti0 2.095346 1_555
O8 Ti0 1.930536 1_556
O8 V5 2.107235 1_545
O8 V4 2.107239 1_555
O9 Ti1 1.930536 1_555
O9 V0 2.107235 1_565
O9 V1 2.107239 1_555
O10 V3 2.053566 1_555
O10 V4 2.053566 1_555
O10 Ti1 2.095346 1_555
O11 V3 2.053562 1_555
O11 V5 2.053567 1_555
O11 Ti1 2.095342 1_555
O12 V3 2.012473 1_555
O12 V4 2.012473 1_555
O12 V5 2.012473 1_555
O13 Ti1 1.930536 1_555
O13 V0 2.107235 1_455
O13 V2 2.107239 1_555
O14 V4 2.053562 1_555
O14 V5 2.053567 1_555
O14 Ti1 2.095342 1_555
O15 Ti1 1.930532 1_555
O15 V2 2.107235 1_565
O15 V1 2.107235 1_455
