# generated using pymatgen
data_LiVPO5
_symmetry_space_group_name_H-M   'P 1'
_cell_length_a   6.31019700
_cell_length_b   10.52568200
_cell_length_c   12.62110700
_cell_angle_alpha   90.00000000
_cell_angle_beta   90.00000000
_cell_angle_gamma   90.00000000
_symmetry_Int_Tables_number   1
_chemical_formula_structural   LiVPO5
_chemical_formula_sum   'Li8 V8 P8 O40'
_cell_volume   838.28290845
_cell_formula_units_Z   8
loop_
 _symmetry_equiv_pos_site_id
 _symmetry_equiv_pos_as_xyz
  1  'x, y, z'
loop_
 _atom_site_type_symbol
 _atom_site_label
 _atom_site_symmetry_multiplicity
 _atom_site_fract_x
 _atom_site_fract_y
 _atom_site_fract_z
 _atom_site_occupancy
  Li  Li0  1  0.17422300  0.10018100  0.10940100  1
  Li  Li1  1  0.84576200  0.88967700  0.11836300  1
  Li  Li2  1  0.34576200  0.38967700  0.38163700  1
  Li  Li3  1  0.67422300  0.60018100  0.39059900  1
  Li  Li4  1  0.32577700  0.10018100  0.60940100  1
  Li  Li5  1  0.65423800  0.88967700  0.61836300  1
  Li  Li6  1  0.15423800  0.38967700  0.88163700  1
  Li  Li7  1  0.82577700  0.60018100  0.89059900  1
  V  V0  1  0.96323800  0.50428800  0.13062600  1
  V  V1  1  0.74044000  0.22880300  0.22783300  1
  V  V2  1  0.24044000  0.72880300  0.27216700  1
  V  V3  1  0.46323800  0.00428800  0.36937400  1
  V  V4  1  0.53676200  0.50428800  0.63062600  1
  V  V5  1  0.75956000  0.22880300  0.72783300  1
  V  V6  1  0.25956000  0.72880300  0.77216700  1
  V  V7  1  0.03676200  0.00428800  0.86937400  1
  P  P0  1  0.17015500  0.74731800  0.01780300  1
  P  P1  1  0.46239500  0.47761900  0.18310000  1
  P  P2  1  0.96239500  0.97761900  0.31690000  1
  P  P3  1  0.67015500  0.24731800  0.48219700  1
  P  P4  1  0.32984500  0.74731800  0.51780300  1
  P  P5  1  0.03760500  0.47761900  0.68310000  1
  P  P6  1  0.53760500  0.97761900  0.81690000  1
  P  P7  1  0.82984500  0.24731800  0.98219700  1
  O  O0  1  0.06787800  0.88296400  0.00922800  1
  O  O1  1  0.97847500  0.65046900  0.02087600  1
  O  O2  1  0.67822900  0.21496800  0.07442200  1
  O  O3  1  0.27046900  0.46943300  0.10917100  1
  O  O4  1  0.65416000  0.51892600  0.11746100  1
  O  O5  1  0.29988100  0.73792500  0.11970800  1
  O  O6  1  0.92978400  0.34452100  0.20363500  1
  O  O7  1  0.92824500  0.07137900  0.21914600  1
  O  O8  1  0.49417200  0.34954300  0.24383600  1
  O  O9  1  0.00169500  0.59747600  0.24161900  1
  O  O10  1  0.50169500  0.09747600  0.25838100  1
  O  O11  1  0.99417200  0.84954300  0.25616400  1
  O  O12  1  0.42824500  0.57137900  0.28085400  1
  O  O13  1  0.42978400  0.84452100  0.29636500  1
  O  O14  1  0.79988100  0.23792500  0.38029200  1
  O  O15  1  0.15416000  0.01892600  0.38253900  1
  O  O16  1  0.77046900  0.96943300  0.39082900  1
  O  O17  1  0.17822900  0.71496800  0.42557800  1
  O  O18  1  0.47847500  0.15046900  0.47912400  1
  O  O19  1  0.56787800  0.38296400  0.49077200  1
  O  O20  1  0.43212200  0.88296400  0.50922800  1
  O  O21  1  0.52152500  0.65046900  0.52087600  1
  O  O22  1  0.82177100  0.21496800  0.57442200  1
  O  O23  1  0.22953100  0.46943300  0.60917100  1
  O  O24  1  0.84584000  0.51892600  0.61746100  1
  O  O25  1  0.20011900  0.73792500  0.61970800  1
  O  O26  1  0.57021600  0.34452100  0.70363500  1
  O  O27  1  0.57175500  0.07137900  0.71914600  1
  O  O28  1  0.00582800  0.34954300  0.74383600  1
  O  O29  1  0.49830500  0.59747600  0.74161900  1
  O  O30  1  0.99830500  0.09747600  0.75838100  1
  O  O31  1  0.50582800  0.84954300  0.75616400  1
  O  O32  1  0.07175500  0.57137900  0.78085400  1
  O  O33  1  0.07021600  0.84452100  0.79636500  1
  O  O34  1  0.70011900  0.23792500  0.88029200  1
  O  O35  1  0.34584000  0.01892600  0.88253900  1
  O  O36  1  0.72953100  0.96943300  0.89082900  1
  O  O37  1  0.32177100  0.71496800  0.92557800  1
  O  O38  1  0.02152500  0.15046900  0.97912400  1
  O  O39  1  0.93212200  0.38296400  0.99077200  1
loop_
_geom_bond_atom_site_label_1
_geom_bond_atom_site_label_2
_geom_bond_distance
_geom_bond_site_symmetry_2
Li0 O38 1.977912 1_554
Li0 O7 2.102296 1_455
Li1 O0 1.966394 1_655
Li1 O11 2.019975 1_555
Li1 O7 2.355137 1_565
Li2 O19 1.966394 1_555
Li2 O8 2.019975 1_555
Li2 O12 2.355137 1_555
Li3 O21 1.977912 1_555
Li3 O12 2.102296 1_555
Li4 O18 1.977912 1_555
Li4 O27 2.102296 1_555
Li5 O20 1.966394 1_555
Li5 O31 2.019975 1_555
Li5 O27 2.355137 1_565
Li6 O39 1.966394 1_455
Li6 O28 2.019975 1_555
Li6 O32 2.355137 1_555
Li7 O1 1.977912 1_556
Li7 O32 2.102296 1_655
O0 P0 1.570591 1_555
O0 V7 2.187453 1_564
O1 P0 1.582298 1_655
O1 V0 2.072532 1_555
O2 P7 1.544708 1_554
O2 V1 1.980971 1_555
O3 P1 1.531266 1_555
O3 V0 1.991590 1_455
O4 P1 1.529584 1_555
O4 V0 1.963463 1_555
O5 P0 1.527765 1_555
O5 V2 1.962768 1_555
O6 V1 1.733310 1_555
O6 V0 1.929148 1_555
O7 P2 1.594540 1_545
O7 V1 2.040118 1_555
O8 P1 1.563699 1_555
O8 V1 2.017628 1_555
O9 V0 1.727247 1_455
O9 V2 2.080636 1_555
O10 V3 1.727247 1_555
O10 V1 2.080636 1_555
O11 P2 1.563699 1_555
O11 V2 2.017628 1_655
O12 P1 1.594540 1_555
O12 V2 2.040118 1_555
O13 V2 1.733310 1_555
O13 V3 1.929148 1_565
O14 P3 1.527765 1_555
O14 V1 1.962768 1_555
O15 P2 1.529584 1_445
O15 V3 1.963463 1_555
O16 P2 1.531266 1_555
O16 V3 1.991590 1_565
O17 P4 1.544708 1_555
O17 V2 1.980971 1_555
O18 P3 1.582298 1_555
O18 V3 2.072532 1_555
O19 P3 1.570591 1_555
O19 V4 2.187453 1_555
O20 P4 1.570591 1_555
O20 V3 2.187453 1_565
O21 P4 1.582298 1_555
O21 V4 2.072532 1_555
O22 P3 1.544708 1_555
O22 V5 1.980971 1_555
O23 P5 1.531266 1_555
O23 V4 1.991590 1_555
O24 P5 1.529584 1_655
O24 V4 1.963463 1_555
O25 P4 1.527765 1_555
O25 V6 1.962768 1_555
O26 V5 1.733310 1_555
O26 V4 1.929148 1_555
O27 P6 1.594540 1_545
O27 V5 2.040118 1_555
O28 P5 1.563699 1_555
O28 V5 2.017628 1_455
O29 V4 1.727247 1_555
O29 V6 2.080636 1_555
O30 V7 1.727247 1_655
O30 V5 2.080636 1_555
O31 P6 1.563699 1_555
O31 V6 2.017628 1_555
O32 P5 1.594540 1_555
O32 V6 2.040118 1_555
O33 V6 1.733310 1_555
O33 V7 1.929148 1_565
O34 P7 1.527765 1_555
O34 V5 1.962768 1_555
O35 P6 1.529584 1_545
O35 V7 1.963463 1_555
O36 P6 1.531266 1_555
O36 V7 1.991590 1_665
O37 P0 1.544708 1_556
O37 V6 1.980971 1_555
O38 P7 1.582298 1_455
O38 V7 2.072532 1_555
O39 P7 1.570591 1_555
O39 V0 2.187453 1_556
