# generated using pymatgen
data_Li4Ti3Nb2V3O16
_symmetry_space_group_name_H-M   'P 1'
_cell_length_a   6.03939159
_cell_length_b   6.03939159
_cell_length_c   9.84299406
_cell_angle_alpha   89.99458795
_cell_angle_beta   89.99458795
_cell_angle_gamma   59.51952182
_symmetry_Int_Tables_number   1
_chemical_formula_structural   Li4Ti3Nb2V3O16
_chemical_formula_sum   'Li4 Ti3 Nb2 V3 O16'
_cell_volume   309.40057564
_cell_formula_units_Z   1
loop_
 _symmetry_equiv_pos_site_id
 _symmetry_equiv_pos_as_xyz
  1  'x, y, z'
loop_
 _atom_site_type_symbol
 _atom_site_label
 _atom_site_symmetry_multiplicity
 _atom_site_fract_x
 _atom_site_fract_y
 _atom_site_fract_z
 _atom_site_occupancy
  Li  Li0  1  0.66398800  0.66398800  0.90125400  1
  Li  Li1  1  0.00038500  0.00038500  0.98948400  1
  Li  Li2  1  0.00396000  0.00396000  0.49326400  1
  Li  Li3  1  0.33286200  0.33286200  0.40144000  1
  Ti  Ti0  1  0.83585600  0.34544700  0.21967500  1
  Ti  Ti1  1  0.34544700  0.83585600  0.21967500  1
  Ti  Ti2  1  0.17571300  0.17571300  0.72829700  1
  Nb  Nb0  1  0.67052600  0.67052600  0.49642200  1
  Nb  Nb1  1  0.34128600  0.34128600  0.99422900  1
  V  V0  1  0.82724900  0.82724900  0.21158900  1
  V  V1  1  0.65228900  0.17869900  0.71155600  1
  V  V2  1  0.17869900  0.65228900  0.71155600  1
  O  O0  1  0.83340000  0.34074300  0.59256700  1
  O  O1  1  0.51931100  0.51931100  0.33730400  1
  O  O2  1  0.65529000  0.65529000  0.10448200  1
  O  O3  1  0.00412500  0.00412500  0.30569000  1
  O  O4  1  0.00590300  0.00590300  0.80229100  1
  O  O5  1  0.34074300  0.83340000  0.59256700  1
  O  O6  1  0.96276800  0.50514500  0.34234000  1
  O  O7  1  0.50514500  0.96276800  0.34234000  1
  O  O8  1  0.16635900  0.16635900  0.09760300  1
  O  O9  1  0.83420800  0.83420800  0.58869900  1
  O  O10  1  0.47217900  0.03410300  0.84322200  1
  O  O11  1  0.03410300  0.47217900  0.84322200  1
  O  O12  1  0.31906200  0.31906200  0.60255100  1
  O  O13  1  0.66723200  0.17320300  0.09295800  1
  O  O14  1  0.47923600  0.47923600  0.84859900  1
  O  O15  1  0.17320300  0.66723200  0.09295800  1
loop_
_geom_bond_atom_site_label_1
_geom_bond_atom_site_label_2
_geom_bond_distance
_geom_bond_site_symmetry_2
Li0 O2 2.002440 1_556
Li0 O14 2.005451 1_555
Li0 O10 2.009385 1_565
Li0 O11 2.009385 1_655
Li1 O4 1.843442 1_555
Li1 O15 2.011062 1_546
Li1 O13 2.011062 1_456
Li1 O8 2.040055 1_556
Li2 O3 1.846290 1_555
Li2 O0 2.007024 1_455
Li2 O5 2.007024 1_545
Li2 O9 2.012553 1_445
Li3 O12 1.984801 1_555
Li3 O7 2.014367 1_545
Li3 O6 2.014367 1_455
Li3 O1 2.054390 1_555
Nb0 O9 1.941934 1_555
Nb0 O5 1.960175 1_555
Nb0 O0 1.960175 1_555
Nb0 O7 2.150407 1_555
Nb0 O6 2.150407 1_555
Nb0 O1 2.228824 1_555
Nb1 O13 1.955208 1_556
Nb1 O15 1.955208 1_556
Nb1 O14 2.036340 1_555
Nb1 O8 2.097467 1_556
Nb1 O10 2.188248 1_555
Nb1 O11 2.188248 1_555
O0 V1 2.147411 1_555
O0 Ti2 2.227587 1_655
O1 Ti0 2.015243 1_555
O1 Ti1 2.015243 1_555
O2 Ti0 1.976379 1_555
O2 Ti1 1.976379 1_555
O2 V0 2.088806 1_555
O3 Ti1 1.968109 1_545
O3 Ti0 1.968109 1_455
O3 V0 2.073192 1_445
O4 Ti2 1.923711 1_555
O4 V2 2.046154 1_545
O4 V1 2.046154 1_455
O5 V2 2.147411 1_555
O5 Ti2 2.227587 1_565
O6 Ti0 1.930244 1_555
O6 V0 2.120126 1_555
O7 Ti1 1.930244 1_555
O7 V0 2.120126 1_555
O8 Ti1 2.099369 1_545
O8 Ti0 2.099369 1_455
O9 V1 2.163166 1_565
O9 V2 2.163166 1_655
O10 Ti2 1.914050 1_555
O10 V1 2.142099 1_555
O11 Ti2 1.914050 1_555
O11 V2 2.142099 1_555
O12 Ti2 1.947028 1_555
O12 V2 2.046808 1_555
O12 V1 2.046808 1_555
O13 V0 2.148058 1_545
O13 Ti0 2.179480 1_555
O14 V2 2.069311 1_555
O14 V1 2.069311 1_555
O15 V0 2.148058 1_455
O15 Ti1 2.179480 1_555
