# generated using pymatgen
data_Li8TiMn3(PO4)6
_symmetry_space_group_name_H-M   'P 1'
_cell_length_a   8.44641200
_cell_length_b   8.51529818
_cell_length_c   9.25212316
_cell_angle_alpha   90.63229241
_cell_angle_beta   116.97364069
_cell_angle_gamma   119.22780330
_symmetry_Int_Tables_number   1
_chemical_formula_structural   Li8TiMn3(PO4)6
_chemical_formula_sum   'Li8 Ti1 Mn3 P6 O24'
_cell_volume   493.88293207
_cell_formula_units_Z   1
loop_
 _symmetry_equiv_pos_site_id
 _symmetry_equiv_pos_as_xyz
  1  'x, y, z'
loop_
 _atom_site_type_symbol
 _atom_site_label
 _atom_site_symmetry_multiplicity
 _atom_site_fract_x
 _atom_site_fract_y
 _atom_site_fract_z
 _atom_site_occupancy
  Li  Li0  1  0.18689100  0.26355200  0.86172100  1
  Li  Li1  1  0.62577100  0.93482900  0.89714200  1
  Li  Li2  1  0.93383200  0.66456500  0.85278100  1
  Li  Li3  1  0.32902800  0.77904400  0.58572700  1
  Li  Li4  1  0.68231100  0.19686000  0.41524000  1
  Li  Li5  1  0.06606400  0.34710400  0.14808200  1
  Li  Li6  1  0.37972900  0.06952900  0.10142200  1
  Li  Li7  1  0.80473400  0.72418800  0.14383800  1
  Ti  Ti0  1  0.29727800  0.15375900  0.44607700  1
  Mn  Mn0  1  0.30671900  0.64605600  0.96439500  1
  Mn  Mn1  1  0.71011900  0.84902900  0.55985300  1
  Mn  Mn2  1  0.69114800  0.35275000  0.03421100  1
  P  P0  1  0.21130900  0.95517200  0.74602000  1
  P  P1  1  0.49298100  0.54085400  0.75094900  1
  P  P2  1  0.79739700  0.24880600  0.75873400  1
  P  P3  1  0.20337900  0.76226000  0.24334800  1
  P  P4  1  0.49606900  0.44879800  0.25128200  1
  P  P5  1  0.80099800  0.05078600  0.25595300  1
  O  O0  1  0.34394700  0.14082100  0.89220800  1
  O  O1  1  0.32574800  0.48290800  0.79988200  1
  O  O2  1  0.31889800  0.84310300  0.78855800  1
  O  O3  1  0.70057100  0.56686300  0.89738900  1
  O  O4  1  0.75083600  0.19996100  0.90282100  1
  O  O5  1  0.55275900  0.73164000  0.71177800  1
  O  O6  1  0.20338400  0.00507100  0.57980500  1
  O  O7  1  0.39906800  0.38237400  0.59047700  1
  O  O8  1  0.95927300  0.46157400  0.80526400  1
  O  O9  1  0.88051800  0.13291300  0.73190800  1
  O  O10  1  0.58572200  0.18961800  0.58582600  1
  O  O11  1  0.98901200  0.83851600  0.72024000  1
  O  O12  1  0.03420800  0.15816800  0.28598400  1
  O  O13  1  0.40196000  0.81647200  0.41313900  1
  O  O14  1  0.12310300  0.88737400  0.27035700  1
  O  O15  1  0.03084000  0.55132100  0.19009500  1
  O  O16  1  0.59199300  0.59380100  0.41129000  1
  O  O17  1  0.80816800  0.02505100  0.41998900  1
  O  O18  1  0.42073100  0.24643100  0.28630500  1
  O  O19  1  0.24855300  0.80783500  0.09696600  1
  O  O20  1  0.29028500  0.42484400  0.09897700  1
  O  O21  1  0.70273100  0.16977000  0.19908900  1
  O  O22  1  0.65559700  0.49260100  0.19561400  1
  O  O23  1  0.66634100  0.86303100  0.10925700  1
loop_
_geom_bond_atom_site_label_1
_geom_bond_atom_site_label_2
_geom_bond_distance
_geom_bond_site_symmetry_2
Li0 O1 1.919588 1_555
Li0 O9 1.927767 1_455
Li0 O0 1.988087 1_555
Li0 O20 2.119120 1_556
Li1 O4 1.958000 1_565
Li1 O23 1.990900 1_556
Li1 O2 1.995261 1_555
Li1 O5 2.061135 1_555
Li2 O8 1.912832 1_555
Li2 O11 1.949221 1_555
Li2 O3 1.971993 1_555
Li2 O19 2.232240 1_656
Li3 O13 1.934599 1_555
Li3 O5 1.962184 1_555
Li3 O2 1.998802 1_555
Li4 O10 2.069165 1_555
Li4 O21 2.103321 1_555
Li4 O17 2.179496 1_555
Li4 O18 2.239120 1_555
Li5 O20 1.947874 1_555
Li5 O15 1.964399 1_555
Li5 O12 2.054911 1_555
Li5 O4 2.237571 1_454
Li6 O19 1.934028 1_545
Li6 O0 1.970055 1_554
Li6 O18 2.052164 1_555
Li6 O21 2.112026 1_555
Li7 O22 1.961509 1_555
Li7 O23 1.971105 1_555
Li7 O14 1.997938 1_655
Li7 O3 2.174779 1_554
Mn0 O1 2.160081 1_555
Mn0 O8 2.185182 1_455
Mn0 O19 2.194062 1_556
Mn0 O20 2.251933 1_556
Mn0 O23 2.282118 1_556
Mn0 O2 2.348653 1_555
Mn1 O16 2.044644 1_555
Mn1 O17 2.099951 1_565
Mn1 O13 2.185427 1_555
Mn1 O11 2.190184 1_555
Mn1 O9 2.210911 1_565
Mn1 O5 2.273749 1_555
Mn2 O22 2.110710 1_555
Mn2 O4 2.141556 1_554
Mn2 O15 2.150786 1_655
Mn2 O21 2.197803 1_555
Mn2 O0 2.206171 1_554
Mn2 O3 2.221180 1_554
O0 P0 1.559568 1_545
O1 P1 1.532338 1_555
O2 P0 1.556319 1_555
O3 P1 1.555054 1_555
O4 P2 1.559790 1_555
O5 P1 1.550336 1_555
O6 P0 1.580758 1_545
O6 Ti0 1.925351 1_555
O7 P1 1.580112 1_555
O7 Ti0 1.892072 1_555
O8 P2 1.538503 1_555
O9 P2 1.535479 1_555
O10 P2 1.586625 1_555
O10 Ti0 2.026773 1_555
O11 P0 1.528446 1_655
O12 P5 1.591328 1_455
O12 Ti0 2.056614 1_555
O13 P3 1.527023 1_555
O14 P3 1.584459 1_555
O14 Ti0 2.107809 1_565
O15 P3 1.538085 1_555
O16 P4 1.505743 1_555
O17 P5 1.513925 1_555
O18 P4 1.614907 1_555
O18 Ti0 2.125009 1_555
O19 P3 1.570422 1_555
O20 P4 1.572877 1_555
O21 P5 1.558561 1_555
O22 P4 1.537201 1_555
O23 P5 1.570920 1_565
