# generated using pymatgen
data_NbFe5(PO4)6
_symmetry_space_group_name_H-M   'P 1'
_cell_length_a   8.58612744
_cell_length_b   8.58612744
_cell_length_c   8.58612742
_cell_angle_alpha   61.01682424
_cell_angle_beta   61.01682424
_cell_angle_gamma   61.01682126
_symmetry_Int_Tables_number   1
_chemical_formula_structural   NbFe5(PO4)6
_chemical_formula_sum   'Nb1 Fe5 P6 O24'
_cell_volume   457.83678384
_cell_formula_units_Z   1
loop_
 _symmetry_equiv_pos_site_id
 _symmetry_equiv_pos_as_xyz
  1  'x, y, z'
loop_
 _atom_site_type_symbol
 _atom_site_label
 _atom_site_symmetry_multiplicity
 _atom_site_fract_x
 _atom_site_fract_y
 _atom_site_fract_z
 _atom_site_occupancy
  Nb  Nb0  1  0.85783500  0.85783500  0.85783500  1
  Fe  Fe0  1  0.00443500  0.00443500  0.00443500  1
  Fe  Fe1  1  0.35682300  0.35682300  0.35682300  1
  Fe  Fe2  1  0.50075500  0.50075500  0.50075500  1
  Fe  Fe3  1  0.14537600  0.14537600  0.14537600  1
  Fe  Fe4  1  0.64281000  0.64281000  0.64281000  1
  P  P0  1  0.74677600  0.04519200  0.45071300  1
  P  P1  1  0.04519200  0.45071300  0.74677600  1
  P  P2  1  0.45071300  0.74677600  0.04519200  1
  P  P3  1  0.53832700  0.25562100  0.95672800  1
  P  P4  1  0.95672800  0.53832700  0.25562100  1
  P  P5  1  0.25562100  0.95672800  0.53832700  1
  O  O0  1  0.88859700  0.49674800  0.68105200  1
  O  O1  1  0.49674800  0.68105200  0.88859700  1
  O  O2  1  0.68105200  0.88859700  0.49674800  1
  O  O3  1  0.90921300  0.06027800  0.26020800  1
  O  O4  1  0.81807300  0.99261300  0.61484700  1
  O  O5  1  0.59172400  0.23989100  0.44586000  1
  O  O6  1  0.06027800  0.26020800  0.90921300  1
  O  O7  1  0.23989100  0.44586000  0.59172400  1
  O  O8  1  0.38948700  0.18047500  0.99799400  1
  O  O9  1  0.44586000  0.59172400  0.23989100  1
  O  O10  1  0.73941200  0.09311600  0.93709500  1
  O  O11  1  0.99799400  0.38948700  0.18047500  1
  O  O12  1  0.99261300  0.61484700  0.81807300  1
  O  O13  1  0.26020800  0.90921300  0.06027800  1
  O  O14  1  0.55823600  0.40974800  0.75970400  1
  O  O15  1  0.61484700  0.81807300  0.99261300  1
  O  O16  1  0.75970400  0.55823600  0.40974800  1
  O  O17  1  0.93709500  0.73941200  0.09311600  1
  O  O18  1  0.40974800  0.75970400  0.55823600  1
  O  O19  1  0.18047500  0.99799400  0.38948700  1
  O  O20  1  0.09311600  0.93709500  0.73941200  1
  O  O21  1  0.31536500  0.11333000  0.50554200  1
  O  O22  1  0.50554200  0.31536500  0.11333000  1
  O  O23  1  0.11333000  0.50554200  0.31536500  1
loop_
_geom_bond_atom_site_label_1
_geom_bond_atom_site_label_2
_geom_bond_distance
_geom_bond_site_symmetry_2
Nb0 O12 1.943224 1_555
Nb0 O4 1.943224 1_555
Nb0 O15 1.943224 1_555
Nb0 O10 2.061340 1_565
Nb0 O17 2.061340 1_556
Nb0 O20 2.061340 1_655
Fe0 O13 2.149816 1_545
Fe0 O3 2.149816 1_455
Fe0 O6 2.149816 1_554
Fe0 O10 2.293762 1_454
Fe0 O20 2.293762 1_544
Fe0 O17 2.293762 1_445
Fe1 O23 1.954913 1_555
Fe1 O22 1.954913 1_555
Fe1 O21 1.954913 1_555
Fe1 O5 2.109103 1_555
Fe1 O7 2.109103 1_555
Fe1 O9 2.109103 1_555
Fe2 O18 2.191701 1_555
Fe2 O14 2.191701 1_555
Fe2 O16 2.191701 1_555
Fe2 O5 2.195426 1_555
Fe2 O9 2.195426 1_555
Fe2 O7 2.195426 1_555
Fe3 O11 1.938407 1_455
Fe3 O19 1.938407 1_545
Fe3 O8 1.938407 1_554
Fe3 O13 2.101863 1_545
Fe3 O6 2.101863 1_554
Fe3 O3 2.101863 1_455
Fe4 O0 1.960058 1_555
Fe4 O1 1.960058 1_555
Fe4 O2 1.960058 1_555
Fe4 O18 2.072341 1_555
Fe4 O16 2.072341 1_555
Fe4 O14 2.072341 1_555
O0 P1 1.512150 1_655
O1 P2 1.512150 1_556
O2 P0 1.512150 1_565
O3 P0 1.548032 1_555
O4 P0 1.586279 1_565
O5 P0 1.548603 1_555
O6 P1 1.548032 1_555
O7 P1 1.548603 1_555
O8 P3 1.521099 1_555
O9 P2 1.548603 1_555
O10 P3 1.602335 1_555
O11 P4 1.521099 1_555
O12 P1 1.586279 1_655
O13 P2 1.548032 1_555
O14 P3 1.552968 1_555
O15 P2 1.586279 1_556
O16 P4 1.552968 1_555
O17 P4 1.602336 1_555
O18 P5 1.552968 1_555
O19 P5 1.521099 1_555
O20 P5 1.602336 1_555
O21 P5 1.520535 1_545
O22 P3 1.520535 1_554
O23 P4 1.520535 1_455
