# generated using pymatgen
data_Li2NiP2O7
_symmetry_space_group_name_H-M   'P 1'
_cell_length_a   4.99683946
_cell_length_b   13.44325845
_cell_length_c   8.27971600
_cell_angle_alpha   89.99948495
_cell_angle_beta   89.99924898
_cell_angle_gamma   91.42935294
_symmetry_Int_Tables_number   1
_chemical_formula_structural   Li2NiP2O7
_chemical_formula_sum   'Li8 Ni4 P8 O28'
_cell_volume   556.00696229
_cell_formula_units_Z   4
loop_
 _symmetry_equiv_pos_site_id
 _symmetry_equiv_pos_as_xyz
  1  'x, y, z'
loop_
 _atom_site_type_symbol
 _atom_site_label
 _atom_site_symmetry_multiplicity
 _atom_site_fract_x
 _atom_site_fract_y
 _atom_site_fract_z
 _atom_site_occupancy
  Li  Li0  1  0.34426400  0.17473900  0.14519900  1
  Li  Li1  1  0.84426700  0.67473200  0.14527300  1
  Li  Li2  1  0.15569000  0.32526800  0.64517400  1
  Li  Li3  1  0.65569500  0.82525400  0.64524700  1
  Li  Li4  1  0.69934500  0.04190500  0.32018700  1
  Li  Li5  1  0.19928700  0.54189000  0.32018400  1
  Li  Li6  1  0.80055800  0.45809700  0.82016900  1
  Li  Li7  1  0.30069600  0.95809300  0.82019500  1
  Ni  Ni0  1  0.84273900  0.63958300  0.50419300  1
  Ni  Ni1  1  0.65740700  0.86034500  0.00413900  1
  Ni  Ni2  1  0.34303700  0.13953900  0.50400000  1
  Ni  Ni3  1  0.15670400  0.36048400  0.00391000  1
  P  P0  1  0.63039400  0.24140300  0.81476800  1
  P  P1  1  0.13054200  0.74139100  0.81476800  1
  P  P2  1  0.86959000  0.25860100  0.31472800  1
  P  P3  1  0.36952300  0.75860600  0.31474800  1
  P  P4  1  0.67149000  0.45653800  0.20813500  1
  P  P5  1  0.17160600  0.95653400  0.20803900  1
  P  P6  1  0.82844800  0.04345200  0.70812700  1
  P  P7  1  0.32839100  0.54347400  0.70805200  1
  O  O0  1  0.13004500  0.05775000  0.68072800  1
  O  O1  1  0.63004200  0.55776800  0.68067600  1
  O  O2  1  0.36992100  0.44225600  0.18071400  1
  O  O3  1  0.86995800  0.94223000  0.18066800  1
  O  O4  1  0.23255600  0.05417300  0.29886500  1
  O  O5  1  0.73251100  0.55419000  0.29889400  1
  O  O6  1  0.26748100  0.44582300  0.79883600  1
  O  O7  1  0.76753200  0.94579900  0.79887500  1
  O  O8  1  0.45286800  0.25729200  0.96236300  1
  O  O9  1  0.95295200  0.75724900  0.96236200  1
  O  O10  1  0.04709300  0.24271800  0.46235400  1
  O  O11  1  0.54705300  0.74272300  0.46234500  1
  O  O12  1  0.47738600  0.24802900  0.65575000  1
  O  O13  1  0.97748800  0.74806200  0.65577400  1
  O  O14  1  0.02278300  0.25206300  0.15572500  1
  O  O15  1  0.52272400  0.75196700  0.15574000  1
  O  O16  1  0.62009700  0.18915300  0.31230800  1
  O  O17  1  0.12011400  0.68913800  0.31233700  1
  O  O18  1  0.87990200  0.31084500  0.81231400  1
  O  O19  1  0.37997000  0.81083900  0.81234300  1
  O  O20  1  0.66157500  0.04782700  0.55338100  1
  O  O21  1  0.16160500  0.54778500  0.55325300  1
  O  O22  1  0.83834000  0.45219600  0.05337100  1
  O  O23  1  0.33837500  0.95220000  0.05324100  1
  O  O24  1  0.73064000  0.12798700  0.83355500  1
  O  O25  1  0.23059200  0.62797600  0.83354800  1
  O  O26  1  0.76931500  0.37200800  0.33357300  1
  O  O27  1  0.26941500  0.87202600  0.33354800  1
loop_
_geom_bond_atom_site_label_1
_geom_bond_atom_site_label_2
_geom_bond_distance
_geom_bond_site_symmetry_2
Li0 O14 1.936986 1_555
Li0 O8 1.946201 1_554
Li0 O16 1.959174 1_555
Li0 O4 2.124182 1_555
Li1 O15 1.936559 1_555
Li1 O9 1.946518 1_554
Li1 O17 1.958951 1_655
Li1 O5 2.123773 1_555
Li2 O12 1.937275 1_555
Li2 O10 1.946092 1_555
Li2 O18 1.959179 1_455
Li2 O6 2.124178 1_555
Li3 O13 1.937314 1_555
Li3 O11 1.946536 1_555
Li3 O19 1.958692 1_555
Li3 O7 2.123964 1_555
Li4 O20 1.941806 1_555
Li4 O3 1.978310 1_545
Li4 O16 2.029423 1_555
Li4 O4 2.349038 1_555
Li5 O21 1.940718 1_555
Li5 O2 1.977741 1_555
Li5 O17 2.029333 1_555
Li5 O5 2.348995 1_455
Li6 O22 1.941869 1_556
Li6 O1 1.977930 1_555
Li6 O18 2.029576 1_555
Li6 O6 2.349715 1_655
Li7 O23 1.940530 1_556
Li7 O0 1.977977 1_565
Li7 O19 2.029525 1_555
Li7 O7 2.349300 1_555
Ni0 O13 2.026387 1_555
Ni0 O21 2.079590 1_655
Ni0 O11 2.080322 1_555
Ni0 O1 2.101444 1_555
Ni0 O5 2.116383 1_555
Ni0 O17 2.200460 1_655
Ni1 O15 2.025393 1_555
Ni1 O9 2.079305 1_554
Ni1 O23 2.080771 1_555
Ni1 O3 2.101864 1_555
Ni1 O7 2.116435 1_554
Ni1 O19 2.200140 1_554
Ni2 O12 2.026732 1_555
Ni2 O20 2.078123 1_555
Ni2 O10 2.081341 1_555
Ni2 O0 2.103403 1_555
Ni2 O4 2.115411 1_555
Ni2 O16 2.198728 1_555
Ni3 O14 2.025710 1_555
Ni3 O22 2.077571 1_455
Ni3 O8 2.082122 1_554
Ni3 O2 2.104312 1_555
Ni3 O6 2.115149 1_554
Ni3 O18 2.197484 1_454
O0 P6 1.531370 1_455
O1 P7 1.531601 1_555
O2 P4 1.531244 1_555
O3 P5 1.531600 1_655
O4 P5 1.536634 1_545
O5 P4 1.536573 1_555
O6 P7 1.536550 1_555
O7 P6 1.536432 1_565
O8 P0 1.528181 1_555
O9 P1 1.528297 1_655
O10 P2 1.528323 1_455
O11 P3 1.528209 1_555
O12 P0 1.526238 1_555
O13 P1 1.526225 1_655
O14 P2 1.526496 1_455
O15 P3 1.526647 1_555
O16 P2 1.538883 1_555
O17 P3 1.538706 1_555
O18 P0 1.538899 1_555
O19 P1 1.538625 1_555
O20 P6 1.530629 1_555
O21 P7 1.530715 1_555
O22 P4 1.530651 1_555
O23 P5 1.530660 1_555
O24 P6 1.623742 1_555
O24 P0 1.624149 1_555
O25 P7 1.623774 1_555
O25 P1 1.623806 1_555
O26 P4 1.623769 1_555
O26 P2 1.624130 1_555
O27 P5 1.623911 1_555
O27 P3 1.623983 1_555
