# generated using pymatgen
data_Li5Mn2V3O10
_symmetry_space_group_name_H-M   'P 1'
_cell_length_a   5.27385778
_cell_length_b   7.88265350
_cell_length_c   10.34365436
_cell_angle_alpha   103.46535281
_cell_angle_beta   101.24063788
_cell_angle_gamma   106.15764647
_symmetry_Int_Tables_number   1
_chemical_formula_structural   Li5Mn2V3O10
_chemical_formula_sum   'Li10 Mn4 V6 O20'
_cell_volume   385.82771117
_cell_formula_units_Z   2
loop_
 _symmetry_equiv_pos_site_id
 _symmetry_equiv_pos_as_xyz
  1  'x, y, z'
loop_
 _atom_site_type_symbol
 _atom_site_label
 _atom_site_symmetry_multiplicity
 _atom_site_fract_x
 _atom_site_fract_y
 _atom_site_fract_z
 _atom_site_occupancy
  Li  Li0  1  0.50036900  0.50027900  0.25016400  1
  Li  Li1  1  0.49962900  0.49972000  0.74983700  1
  Li  Li2  1  0.92842800  0.41991800  0.10425700  1
  Li  Li3  1  0.92973300  0.42104300  0.60459700  1
  Li  Li4  1  0.07025900  0.57895900  0.39539900  1
  Li  Li5  1  0.07154700  0.58007300  0.89574400  1
  Li  Li6  1  0.27975200  0.76417300  0.18850500  1
  Li  Li7  1  0.28033500  0.76461800  0.68914000  1
  Li  Li8  1  0.71966400  0.23539400  0.31085800  1
  Li  Li9  1  0.72024000  0.23581800  0.81148800  1
  Mn  Mn0  1  0.69696500  0.68840300  0.54747500  1
  Mn  Mn1  1  0.30303300  0.31160200  0.45252700  1
  Mn  Mn2  1  0.69683800  0.68856500  0.04749600  1
  Mn  Mn3  1  0.30315700  0.31142200  0.95250300  1
  V  V0  1  0.50005000  0.00000500  0.00001800  1
  V  V1  1  0.89927200  0.89300300  0.34541200  1
  V  V2  1  0.10072100  0.10700200  0.65458800  1
  V  V3  1  0.50000300  0.00000000  0.49999300  1
  V  V4  1  0.89794100  0.89326600  0.84482900  1
  V  V5  1  0.10208300  0.10673000  0.15517400  1
  O  O0  1  0.12740900  0.86867500  0.02526100  1
  O  O1  1  0.12868600  0.86883300  0.52543700  1
  O  O2  1  0.87129800  0.13117000  0.47455600  1
  O  O3  1  0.87261900  0.13133100  0.97474700  1
  O  O4  1  0.72294000  0.93999000  0.16290200  1
  O  O5  1  0.72285500  0.94003700  0.66284100  1
  O  O6  1  0.27713900  0.05996700  0.33715600  1
  O  O7  1  0.27706900  0.06000400  0.83710400  1
  O  O8  1  0.30097100  0.53646300  0.06748600  1
  O  O9  1  0.30098900  0.53659900  0.56745600  1
  O  O10  1  0.69900700  0.46340800  0.43254700  1
  O  O11  1  0.69901800  0.46352900  0.93250700  1
  O  O12  1  0.45810300  0.23308300  0.11704200  1
  O  O13  1  0.45881000  0.23348400  0.61707900  1
  O  O14  1  0.54117300  0.76651600  0.38292000  1
  O  O15  1  0.54192100  0.76692400  0.88296300  1
  O  O16  1  0.90412000  0.66477200  0.22123600  1
  O  O17  1  0.90594000  0.66550700  0.72104000  1
  O  O18  1  0.09404900  0.33449500  0.27895600  1
  O  O19  1  0.09586500  0.33522400  0.77875900  1
loop_
_geom_bond_atom_site_label_1
_geom_bond_atom_site_label_2
_geom_bond_distance
_geom_bond_site_symmetry_2
Li0 O10 2.096463 1_555
Li0 O8 2.097832 1_555
Li0 O14 2.151189 1_555
Li0 O12 2.156442 1_555
Li0 O16 2.279752 1_555
Li0 O18 2.293438 1_555
Li1 O9 2.096480 1_555
Li1 O11 2.097773 1_555
Li1 O13 2.151168 1_555
Li1 O15 2.156469 1_555
Li1 O19 2.279788 1_555
Li1 O17 2.293431 1_555
Li2 O8 2.073240 1_655
Li2 O16 2.077583 1_555
Li2 O11 2.101419 1_554
Li2 O18 2.181826 1_655
Li2 O3 2.260633 1_554
Li2 O12 2.554299 1_555
Li3 O9 2.067483 1_655
Li3 O17 2.071820 1_555
Li3 O10 2.101888 1_555
Li3 O19 2.180059 1_655
Li3 O2 2.267254 1_555
Li3 O13 2.557532 1_555
Li4 O10 2.067491 1_455
Li4 O18 2.071814 1_555
Li4 O9 2.101934 1_555
Li4 O16 2.180051 1_455
Li4 O1 2.267261 1_555
Li4 O14 2.557477 1_555
Li5 O11 2.073136 1_455
Li5 O19 2.077597 1_555
Li5 O8 2.101384 1_556
Li5 O17 2.181898 1_455
Li5 O0 2.260682 1_556
Li5 O15 2.554536 1_555
Li6 O8 1.980239 1_555
Li6 O16 2.043074 1_455
Li6 O0 2.159277 1_555
Li6 O14 2.198353 1_555
Li6 O4 2.462370 1_555
Li6 O6 2.481419 1_565
Li7 O9 1.983819 1_555
Li7 O17 2.033080 1_455
Li7 O1 2.160376 1_555
Li7 O15 2.194016 1_555
Li7 O5 2.461548 1_555
Li7 O7 2.477342 1_565
Li8 O10 1.983818 1_555
Li8 O18 2.033030 1_655
Li8 O2 2.160357 1_555
Li8 O12 2.193884 1_555
Li8 O6 2.461585 1_555
Li8 O4 2.477442 1_545
Li9 O11 1.980252 1_555
Li9 O19 2.043038 1_655
Li9 O3 2.159384 1_555
Li9 O13 2.198352 1_555
Li9 O7 2.462347 1_555
Li9 O5 2.481325 1_545
Mn0 O10 1.895399 1_555
Mn0 O17 1.990106 1_555
Mn0 O5 2.015062 1_555
Mn0 O14 2.043475 1_555
Mn0 O9 2.174473 1_555
Mn0 O1 2.410357 1_655
Mn1 O9 1.895419 1_555
Mn1 O18 1.990165 1_555
Mn1 O6 2.015080 1_555
Mn1 O13 2.043448 1_555
Mn1 O10 2.174465 1_555
Mn1 O2 2.410382 1_455
Mn2 O11 1.896196 1_554
Mn2 O16 1.991226 1_555
Mn2 O4 2.013485 1_555
Mn2 O15 2.042976 1_554
Mn2 O8 2.174755 1_555
Mn2 O0 2.405480 1_655
Mn3 O8 1.896214 1_556
Mn3 O19 1.991313 1_555
Mn3 O7 2.013437 1_555
Mn3 O12 2.042981 1_556
Mn3 O11 2.174766 1_555
Mn3 O3 2.405328 1_455
O0 V0 2.048346 1_565
O0 V5 2.092836 1_565
O0 V4 2.098522 1_454
O1 V3 2.043013 1_565
O1 V1 2.093515 1_455
O1 V2 2.096164 1_565
O2 V3 2.042890 1_555
O2 V2 2.093586 1_655
O2 V1 2.096141 1_545
O3 V0 2.048142 1_556
O3 V4 2.092911 1_545
O3 V5 2.098508 1_656
O4 V0 2.086330 1_565
O4 V5 2.092997 1_665
O4 V1 2.097322 1_555
O5 V3 2.085722 1_565
O5 V4 2.089759 1_555
O5 V2 2.090377 1_665
O6 V3 2.085684 1_555
O6 V5 2.089624 1_555
O6 V1 2.090390 1_445
O7 V0 2.086716 1_556
O7 V4 2.092917 1_445
O7 V2 2.097446 1_555
O12 V5 2.025787 1_555
O12 V0 2.045630 1_555
O13 V2 2.031970 1_555
O13 V3 2.046541 1_555
O14 V1 2.032020 1_555
O14 V3 2.046429 1_565
O15 V4 2.025773 1_555
O15 V0 2.045589 1_566
O16 V1 1.961964 1_555
O17 V4 1.963967 1_555
O18 V5 1.964046 1_555
O19 V2 1.961903 1_555
