# generated using pymatgen
data_CaSeO3
_symmetry_space_group_name_H-M   'P 1'
_cell_length_a   5.38834087
_cell_length_b   6.42879274
_cell_length_c   8.34205588
_cell_angle_alpha   90.00000000
_cell_angle_beta   90.00000000
_cell_angle_gamma   90.00000000
_symmetry_Int_Tables_number   1
_chemical_formula_structural   CaSeO3
_chemical_formula_sum   'Ca4 Se4 O12'
_cell_volume   288.97320916
_cell_formula_units_Z   4
loop_
 _symmetry_equiv_pos_site_id
 _symmetry_equiv_pos_as_xyz
  1  'x, y, z'
loop_
 _atom_site_type_symbol
 _atom_site_label
 _atom_site_symmetry_multiplicity
 _atom_site_fract_x
 _atom_site_fract_y
 _atom_site_fract_z
 _atom_site_occupancy
  Ca  Ca0  1  -0.00000000  0.50000000  -0.00000000  1
  Ca  Ca1  1  -0.00000000  0.50000000  0.50000000  1
  Ca  Ca2  1  0.50000000  0.00000000  -0.00000000  1
  Ca  Ca3  1  0.50000000  0.00000000  0.50000000  1
  Se  Se0  1  0.01674183  0.02680080  0.75000000  1
  Se  Se1  1  0.48325817  0.52680080  0.75000000  1
  Se  Se2  1  0.51674183  0.47319920  0.25000000  1
  Se  Se3  1  0.98325817  0.97319920  0.25000000  1
  O  O0  1  0.20505667  0.42060296  0.25000000  1
  O  O1  1  0.12773124  0.17144446  0.59214091  1
  O  O2  1  0.12773124  0.17144446  0.90785909  1
  O  O3  1  0.37226876  0.67144446  0.59214091  1
  O  O4  1  0.37226876  0.67144446  0.90785909  1
  O  O5  1  0.29494333  0.92060296  0.25000000  1
  O  O6  1  0.70505667  0.07939704  0.75000000  1
  O  O7  1  0.62773124  0.32855554  0.09214091  1
  O  O8  1  0.62773124  0.32855554  0.40785909  1
  O  O9  1  0.87226876  0.82855554  0.09214091  1
  O  O10  1  0.87226876  0.82855554  0.40785909  1
  O  O11  1  0.79494333  0.57939704  0.75000000  1
loop_
_geom_bond_atom_site_label_1
_geom_bond_atom_site_label_2
_geom_bond_distance
_geom_bond_site_symmetry_2
Ca0 O2 2.350738 1_554
Ca0 O9 2.350738 1_455
Ca0 O7 2.414394 1_455
Ca0 O4 2.414394 1_554
Ca0 O0 2.414693 1_555
Ca0 O11 2.414693 1_454
Ca1 O1 2.350738 1_555
Ca1 O10 2.350738 1_455
Ca1 O8 2.414394 1_455
Ca1 O3 2.414394 1_555
Ca1 O0 2.414693 1_555
Ca1 O11 2.414693 1_455
Ca2 O7 2.350738 1_555
Ca2 O4 2.350738 1_544
Ca2 O2 2.414394 1_554
Ca2 O9 2.414394 1_545
Ca2 O6 2.414693 1_554
Ca2 O5 2.414693 1_545
Ca3 O3 2.350738 1_545
Ca3 O8 2.350738 1_555
Ca3 O10 2.414394 1_545
Ca3 O1 2.414394 1_555
Ca3 O6 2.414693 1_555
Ca3 O5 2.414693 1_545
O0 Se2 1.713166 1_555
O1 Se0 1.719445 1_555
O2 Se0 1.719445 1_555
O3 Se1 1.719445 1_555
O4 Se1 1.719445 1_555
O5 Se3 1.713166 1_455
O6 Se0 1.713166 1_655
O7 Se2 1.719445 1_555
O8 Se2 1.719445 1_555
O9 Se3 1.719445 1_555
O10 Se3 1.719445 1_555
O11 Se1 1.713166 1_555
