# generated using pymatgen
data_Li4MnF7
_symmetry_space_group_name_H-M   'P 1'
_cell_length_a   7.69026885
_cell_length_b   7.69026885
_cell_length_c   5.41395349
_cell_angle_alpha   78.97977524
_cell_angle_beta   78.97977524
_cell_angle_gamma   71.29088331
_symmetry_Int_Tables_number   1
_chemical_formula_structural   Li4MnF7
_chemical_formula_sum   'Li8 Mn2 F14'
_cell_volume   294.75427554
_cell_formula_units_Z   2
loop_
 _symmetry_equiv_pos_site_id
 _symmetry_equiv_pos_as_xyz
  1  'x, y, z'
loop_
 _atom_site_type_symbol
 _atom_site_label
 _atom_site_symmetry_multiplicity
 _atom_site_fract_x
 _atom_site_fract_y
 _atom_site_fract_z
 _atom_site_occupancy
  Li  Li0  1  0.76113800  0.94230900  0.33038600  1
  Li  Li1  1  0.94230900  0.76113800  0.83038600  1
  Li  Li2  1  0.69396900  0.57949300  0.25814000  1
  Li  Li3  1  0.57949300  0.69396900  0.75814000  1
  Li  Li4  1  0.42050700  0.30603100  0.24186000  1
  Li  Li5  1  0.30603100  0.42050700  0.74186000  1
  Li  Li6  1  0.05769100  0.23886200  0.16961400  1
  Li  Li7  1  0.23886200  0.05769100  0.66961400  1
  Mn  Mn0  1  0.23964600  0.76035400  0.25000000  1
  Mn  Mn1  1  0.76035400  0.23964600  0.75000000  1
  F  F0  1  0.99448600  0.81333300  0.14239300  1
  F  F1  1  0.81333300  0.99448600  0.64239300  1
  F  F2  1  0.61659700  0.78558400  0.42101700  1
  F  F3  1  0.78558400  0.61659700  0.92101700  1
  F  F4  1  0.84080400  0.33659300  0.41876000  1
  F  F5  1  0.33659300  0.84080400  0.91876000  1
  F  F6  1  0.45139000  0.54861000  0.25000000  1
  F  F7  1  0.54861000  0.45139000  0.75000000  1
  F  F8  1  0.66340700  0.15919600  0.08124000  1
  F  F9  1  0.15919600  0.66340700  0.58124000  1
  F  F10  1  0.21441600  0.38340300  0.07898300  1
  F  F11  1  0.38340300  0.21441600  0.57898300  1
  F  F12  1  0.18666700  0.00551400  0.35760700  1
  F  F13  1  0.00551400  0.18666700  0.85760700  1
loop_
_geom_bond_atom_site_label_1
_geom_bond_atom_site_label_2
_geom_bond_distance
_geom_bond_site_symmetry_2
F0 Li0 1.945703 1_555
F0 Li1 1.948631 1_554
F0 Mn0 1.973909 1_655
F1 Li1 1.945703 1_555
F1 Li0 1.948631 1_555
F1 Mn1 1.973909 1_565
F2 Li3 1.829559 1_555
F2 Li0 1.831344 1_555
F2 Li2 1.836369 1_555
F3 Li2 1.829559 1_556
F3 Li1 1.831344 1_555
F3 Li3 1.836369 1_555
F4 Mn1 1.874883 1_555
F4 Li6 1.972186 1_655
F4 Li2 1.980352 1_555
F5 Mn0 1.874883 1_556
F5 Li7 1.972186 1_565
F5 Li3 1.980352 1_555
F6 Mn0 1.897921 1_555
F6 Li2 1.964203 1_555
F6 Li4 1.964203 1_555
F7 Mn1 1.897921 1_555
F7 Li3 1.964203 1_555
F7 Li5 1.964203 1_555
F8 Mn1 1.874883 1_554
F8 Li0 1.972186 1_545
F8 Li4 1.980352 1_555
F9 Mn0 1.874883 1_555
F9 Li1 1.972186 1_455
F9 Li5 1.980352 1_555
F10 Li5 1.829559 1_554
F10 Li6 1.831344 1_555
F10 Li4 1.836369 1_555
F11 Li4 1.829559 1_555
F11 Li7 1.831344 1_555
F11 Li5 1.836369 1_555
F12 Li6 1.945703 1_555
F12 Li7 1.948631 1_555
F12 Mn0 1.973909 1_545
F13 Li7 1.945703 1_555
F13 Li6 1.948631 1_556
F13 Mn1 1.973909 1_455
