# generated using pymatgen
data_Li5Br3O2
_symmetry_space_group_name_H-M   'P 1'
_cell_length_a   11.06927937
_cell_length_b   11.06927937
_cell_length_c   11.06927937
_cell_angle_alpha   159.34920589
_cell_angle_beta   159.34920589
_cell_angle_gamma   29.36722239
_symmetry_Int_Tables_number   1
_chemical_formula_structural   Li5Br3O2
_chemical_formula_sum   'Li5 Br3 O2'
_cell_volume   168.60056644
_cell_formula_units_Z   1
loop_
 _symmetry_equiv_pos_site_id
 _symmetry_equiv_pos_as_xyz
  1  'x, y, z'
loop_
 _atom_site_type_symbol
 _atom_site_label
 _atom_site_symmetry_multiplicity
 _atom_site_fract_x
 _atom_site_fract_y
 _atom_site_fract_z
 _atom_site_occupancy
  Li  Li0  1  0.50000000  0.50000000  0.00000000  1
  Li  Li1  1  0.68551100  0.68551100  0.00000000  1
  Li  Li2  1  0.31448900  0.31448900  0.00000000  1
  Li  Li3  1  0.09297300  0.59297300  0.50000000  1
  Li  Li4  1  0.40702700  0.90702700  0.50000000  1
  Br  Br0  1  0.00000000  0.00000000  0.00000000  1
  Br  Br1  1  0.18725100  0.18725100  0.00000000  1
  Br  Br2  1  0.81274900  0.81274900  0.00000000  1
  O  O0  1  0.59336900  0.59336900  0.00000000  1
  O  O1  1  0.40663100  0.40663100  0.00000000  1
loop_
_geom_bond_atom_site_label_1
_geom_bond_atom_site_label_2
_geom_bond_distance
_geom_bond_site_symmetry_2
Li0 O0 1.999546 1_555
Li0 O1 1.999546 1_555
Li1 O0 1.973269 1_555
Li2 O1 1.973269 1_555
Li3 O0 1.984057 1_455
Li3 O0 1.984057 1_556
Li4 O1 1.984057 1_555
Li4 O1 1.984057 1_566
Br0 Li0 2.805855 1_444
Br0 Li0 2.805855 1_545
Br0 Li0 2.805855 1_455
Br0 Li0 2.805855 1_556
Br0 Li3 2.810827 1_544
Br0 Li3 2.810827 1_555
Br0 Li4 2.810827 1_444
Br0 Li4 2.810827 1_545
Br1 Li2 2.724868 1_555
Br1 Li1 2.806102 1_455
Br1 Li1 2.806102 1_556
Br1 Li1 2.806102 1_444
Br1 Li1 2.806102 1_545
Br1 Li3 2.830693 1_555
Br1 Li3 2.830693 1_544
Br2 Li1 2.724868 1_555
Br2 Li2 2.806102 1_666
Br2 Li2 2.806102 1_554
Br2 Li2 2.806102 1_565
Br2 Li2 2.806102 1_655
Br2 Li4 2.830693 1_655
Br2 Li4 2.830693 1_554
