# generated using pymatgen
data_Li2VP2O7
_symmetry_space_group_name_H-M   'P 1'
_cell_length_a   5.12388320
_cell_length_b   5.11573089
_cell_length_c   13.49717950
_cell_angle_alpha   102.76908721
_cell_angle_beta   100.93762386
_cell_angle_gamma   59.92052725
_symmetry_Int_Tables_number   1
_chemical_formula_structural   Li2VP2O7
_chemical_formula_sum   'Li4 V2 P4 O14'
_cell_volume   297.26726982
_cell_formula_units_Z   2
loop_
 _symmetry_equiv_pos_site_id
 _symmetry_equiv_pos_as_xyz
  1  'x, y, z'
loop_
 _atom_site_type_symbol
 _atom_site_label
 _atom_site_symmetry_multiplicity
 _atom_site_fract_x
 _atom_site_fract_y
 _atom_site_fract_z
 _atom_site_occupancy
  Li  Li0  1  0.90029300  0.87851200  0.09590700  1
  Li  Li1  1  0.68312700  0.62152100  0.40479400  1
  Li  Li2  1  0.31521400  0.37782700  0.59556000  1
  Li  Li3  1  0.10013400  0.12194300  0.90426100  1
  V  V0  1  0.50040000  0.49982800  0.00012800  1
  V  V1  1  0.99939800  0.99967300  0.49972600  1
  P  P0  1  0.76722900  0.77869400  0.86841100  1
  P  P1  1  0.67527500  0.72091200  0.63152700  1
  P  P2  1  0.32307900  0.27812500  0.36840700  1
  P  P3  1  0.23321900  0.22149200  0.13160100  1
  O  O0  1  0.50816800  0.91318100  0.09990400  1
  O  O1  1  0.35861400  0.99380200  0.61687200  1
  O  O2  1  0.91013000  0.72959900  0.57874600  1
  O  O3  1  0.79960000  0.74986700  0.74982400  1
  O  O4  1  0.32115100  0.58648600  0.40035000  1
  O  O5  1  0.06426300  0.76972800  0.92031100  1
  O  O6  1  0.73865300  0.50599000  0.88352100  1
  O  O7  1  0.26172500  0.49439700  0.11668100  1
  O  O8  1  0.93669600  0.22997800  0.07935500  1
  O  O9  1  0.67727400  0.41243100  0.59998800  1
  O  O10  1  0.19947600  0.25033700  0.25001600  1
  O  O11  1  0.08768000  0.26887100  0.42065600  1
  O  O12  1  0.63955200  0.00515700  0.38305100  1
  O  O13  1  0.49252700  0.08714100  0.90025900  1
loop_
_geom_bond_atom_site_label_1
_geom_bond_atom_site_label_2
_geom_bond_distance
_geom_bond_site_symmetry_2
Li0 O0 1.936740 1_555
Li0 O7 1.941206 1_655
Li0 O8 1.961397 1_565
Li0 O5 2.517267 1_654
Li1 O4 1.939579 1_555
Li1 O12 1.943754 1_565
Li1 O11 1.962410 1_655
Li1 O2 2.491090 1_555
Li2 O9 1.938801 1_555
Li2 O1 1.944050 1_545
Li2 O2 1.963594 1_455
Li2 O11 2.503632 1_555
Li3 O13 1.937827 1_555
Li3 O6 1.941029 1_455
Li3 O5 1.961365 1_545
Li3 O8 2.510287 1_456
O0 P3 1.535748 1_565
O0 V0 2.256529 1_555
O1 P1 1.533092 1_555
O1 V1 2.179416 1_455
O2 P1 1.533134 1_555
O2 V1 2.173846 1_555
O3 P1 1.606605 1_555
O3 P0 1.607182 1_555
O4 P2 1.536168 1_555
O4 V1 2.253377 1_455
O5 P0 1.532593 1_455
O5 V0 2.170702 1_556
O6 P0 1.533342 1_555
O6 V0 2.181277 1_556
O7 P3 1.533250 1_555
O7 V0 2.180497 1_555
O8 P3 1.532454 1_655
O8 V0 2.167643 1_555
O9 P1 1.536303 1_555
O9 V1 2.259453 1_545
O10 P2 1.606403 1_555
O10 P3 1.606600 1_555
O11 P2 1.532698 1_555
O11 V1 2.167355 1_445
O12 P2 1.532680 1_555
O12 V1 2.178573 1_545
O13 P0 1.535985 1_545
O13 V0 2.254443 1_556
