# generated using pymatgen
data_Li3Mn2(P2O7)2
_symmetry_space_group_name_H-M   'P 1'
_cell_length_a   5.07117264
_cell_length_b   7.00400079
_cell_length_c   8.33744483
_cell_angle_alpha   89.67638841
_cell_angle_beta   88.72687828
_cell_angle_gamma   71.74934277
_symmetry_Int_Tables_number   1
_chemical_formula_structural   Li3Mn2(P2O7)2
_chemical_formula_sum   'Li3 Mn2 P4 O14'
_cell_volume   281.16697955
_cell_formula_units_Z   1
loop_
 _symmetry_equiv_pos_site_id
 _symmetry_equiv_pos_as_xyz
  1  'x, y, z'
loop_
 _atom_site_type_symbol
 _atom_site_label
 _atom_site_symmetry_multiplicity
 _atom_site_fract_x
 _atom_site_fract_y
 _atom_site_fract_z
 _atom_site_occupancy
  Li  Li0  1  0.16820500  0.33991300  0.14552400  1
  Li  Li1  1  0.27623700  0.90926100  0.83642300  1
  Li  Li2  1  0.82521100  0.66022400  0.63776900  1
  Mn  Mn0  1  0.22532000  0.26891700  0.49207300  1
  Mn  Mn1  1  0.79559000  0.72945200  0.01144400  1
  P  P0  1  0.39317800  0.47395900  0.80851900  1
  P  P1  1  0.21373600  0.91920400  0.21809200  1
  P  P2  1  0.80090600  0.08366600  0.69980000  1
  P  P3  1  0.59804900  0.52348300  0.32283100  1
  O  O0  1  0.07965800  0.12351500  0.66184900  1
  O  O1  1  0.15096800  0.12123600  0.30860900  1
  O  O2  1  0.19978800  0.49321100  0.95375900  1
  O  O3  1  0.23496300  0.47706400  0.65058500  1
  O  O4  1  0.38728400  0.40306000  0.32485600  1
  O  O5  1  0.62399700  0.07277400  0.55983700  1
  O  O6  1  0.62598100  0.25650900  0.82489700  1
  O  O7  1  0.41578500  0.75914500  0.33891600  1
  O  O8  1  0.37478500  0.92965100  0.06057800  1
  O  O9  1  0.54340500  0.63365500  0.80265400  1
  O  O10  1  0.75296500  0.49337800  0.16113800  1
  O  O11  1  0.78673800  0.48479900  0.46687400  1
  O  O12  1  0.88427000  0.88938400  0.80092800  1
  O  O13  1  0.95486900  0.86206200  0.19235000  1
loop_
_geom_bond_atom_site_label_1
_geom_bond_atom_site_label_2
_geom_bond_distance
_geom_bond_site_symmetry_2
Li0 O2 1.952353 1_554
Li0 O4 2.013578 1_555
Li0 O10 2.044065 1_455
Li0 O1 2.063334 1_555
Li1 O8 1.962672 1_556
Li1 O9 1.998050 1_555
Li1 O12 2.063486 1_455
Li1 O0 2.113523 1_565
Li2 O11 1.939103 1_555
Li2 O9 2.010759 1_555
Li2 O3 2.076914 1_655
Li2 O12 2.204585 1_555
Mn0 O1 1.959486 1_555
Mn0 O4 1.979570 1_555
Mn0 O3 1.985857 1_555
Mn0 O0 1.998710 1_555
Mn0 O5 2.143905 1_555
Mn0 O11 2.277700 1_455
Mn1 O13 2.080844 1_555
Mn1 O10 2.127650 1_555
Mn1 O8 2.186610 1_555
Mn1 O12 2.189944 1_554
Mn1 O2 2.238634 1_654
Mn1 O9 2.401163 1_554
O0 P2 1.550008 1_455
O1 P1 1.546755 1_545
O2 P0 1.520716 1_555
O3 P0 1.553635 1_555
O4 P3 1.554914 1_555
O5 P2 1.504261 1_555
O6 P0 1.615741 1_555
O6 P2 1.625049 1_555
O7 P1 1.623282 1_555
O7 P3 1.624232 1_555
O8 P1 1.544575 1_555
O9 P0 1.537948 1_555
O10 P3 1.526900 1_555
O11 P3 1.521941 1_555
O12 P2 1.543965 1_565
O13 P1 1.507365 1_655
