# generated using pymatgen
data_Li2Fe2S3
_symmetry_space_group_name_H-M   'P 1'
_cell_length_a   6.25931200
_cell_length_b   6.13448600
_cell_length_c   7.35489474
_cell_angle_alpha   64.80675719
_cell_angle_beta   90.00000000
_cell_angle_gamma   90.00000000
_symmetry_Int_Tables_number   1
_chemical_formula_structural   Li2Fe2S3
_chemical_formula_sum   'Li4 Fe4 S6'
_cell_volume   255.54707566
_cell_formula_units_Z   2
loop_
 _symmetry_equiv_pos_site_id
 _symmetry_equiv_pos_as_xyz
  1  'x, y, z'
loop_
 _atom_site_type_symbol
 _atom_site_label
 _atom_site_symmetry_multiplicity
 _atom_site_fract_x
 _atom_site_fract_y
 _atom_site_fract_z
 _atom_site_occupancy
  Li  Li0  1  0.61571900  0.41421400  0.36167600  1
  Li  Li1  1  0.11571900  0.08578600  0.63832400  1
  Li  Li2  1  0.88428100  0.91421400  0.36167600  1
  Li  Li3  1  0.38428100  0.58578600  0.63832400  1
  Fe  Fe0  1  0.35892100  0.12305700  0.02170200  1
  Fe  Fe1  1  0.14107900  0.62305700  0.02170200  1
  Fe  Fe2  1  0.85892100  0.37694300  0.97829800  1
  Fe  Fe3  1  0.64107900  0.87694300  0.97829800  1
  S  S0  1  0.50000000  0.50000000  0.00000000  1
  S  S1  1  0.00000000  0.00000000  0.00000000  1
  S  S2  1  0.98103900  0.33281700  0.30151500  1
  S  S3  1  0.48103900  0.16718300  0.69848500  1
  S  S4  1  0.51896100  0.83281700  0.30151500  1
  S  S5  1  0.01896100  0.66718300  0.69848500  1
loop_
_geom_bond_atom_site_label_1
_geom_bond_atom_site_label_2
_geom_bond_distance
_geom_bond_site_symmetry_2
Li0 S2 2.421155 1_555
Li0 S3 2.438790 1_555
Li0 S4 2.487857 1_555
Li0 S0 2.585706 1_555
Li1 S3 2.421155 1_555
Li1 S2 2.438790 1_455
Li1 S5 2.487857 1_545
Li1 S1 2.585706 1_556
Li2 S4 2.421155 1_555
Li2 S5 2.438790 1_655
Li2 S2 2.487857 1_565
Li2 S1 2.585706 1_665
Li3 S5 2.421155 1_555
Li3 S4 2.438790 1_555
Li3 S3 2.487857 1_555
Li3 S0 2.585706 1_556
Fe0 S4 2.299872 1_545
Fe0 S1 2.396899 1_555
Fe0 S3 2.400191 1_554
Fe0 S0 2.416199 1_555
Fe1 S2 2.299872 1_455
Fe1 S0 2.396899 1_555
Fe1 S5 2.400191 1_554
Fe1 S1 2.416199 1_565
Fe2 S5 2.299872 1_655
Fe2 S0 2.396899 1_556
Fe2 S2 2.400191 1_556
Fe2 S1 2.416199 1_656
Fe3 S3 2.299872 1_565
Fe3 S1 2.396899 1_666
Fe3 S4 2.400191 1_556
Fe3 S0 2.416199 1_556
