# generated using pymatgen
data_Li4MnSn(WO6)2
_symmetry_space_group_name_H-M   'P 1'
_cell_length_a   5.42903543
_cell_length_b   10.29177017
_cell_length_c   7.50157418
_cell_angle_alpha   89.97093018
_cell_angle_beta   85.73270661
_cell_angle_gamma   90.01445112
_symmetry_Int_Tables_number   1
_chemical_formula_structural   Li4MnSn(WO6)2
_chemical_formula_sum   'Li8 Mn2 Sn2 W4 O24'
_cell_volume   417.98380304
_cell_formula_units_Z   2
loop_
 _symmetry_equiv_pos_site_id
 _symmetry_equiv_pos_as_xyz
  1  'x, y, z'
loop_
 _atom_site_type_symbol
 _atom_site_label
 _atom_site_symmetry_multiplicity
 _atom_site_fract_x
 _atom_site_fract_y
 _atom_site_fract_z
 _atom_site_occupancy
  Li  Li0  1  0.56408900  0.00156200  0.29652100  1
  Li  Li1  1  0.56408200  0.50153800  0.29650900  1
  Li  Li2  1  0.08585700  0.24854800  0.77826600  1
  Li  Li3  1  0.08579600  0.74858000  0.77823900  1
  Li  Li4  1  0.55196700  0.00148100  0.76555700  1
  Li  Li5  1  0.55189900  0.50151000  0.76553200  1
  Li  Li6  1  0.07123900  0.24816500  0.29356800  1
  Li  Li7  1  0.07104900  0.74819200  0.29358600  1
  Mn  Mn0  1  0.50435100  0.24879400  0.50350900  1
  Mn  Mn1  1  0.50429700  0.74877500  0.50352500  1
  Sn  Sn0  1  0.00239600  0.00047100  0.00206600  1
  Sn  Sn1  1  0.00244400  0.50049400  0.00208600  1
  W  W0  1  0.00087400  0.99852200  0.50172100  1
  W  W1  1  0.50351500  0.25189800  0.00273700  1
  W  W2  1  0.50352800  0.75192000  0.00276700  1
  W  W3  1  0.00089900  0.49853700  0.50175200  1
  O  O0  1  0.79114500  0.14795000  0.43197600  1
  O  O1  1  0.79111500  0.64793600  0.43199500  1
  O  O2  1  0.97611600  0.06399800  0.74061200  1
  O  O3  1  0.97609900  0.56402200  0.74064700  1
  O  O4  1  0.17898900  0.16974800  0.05349300  1
  O  O5  1  0.17901100  0.66986100  0.05359300  1
  O  O6  1  0.29162700  0.10091800  0.43523200  1
  O  O7  1  0.29165600  0.60091600  0.43530200  1
  O  O8  1  0.32118200  0.40424300  0.92731700  1
  O  O9  1  0.32118300  0.90424200  0.92732700  1
  O  O10  1  0.47882000  0.18950200  0.74597400  1
  O  O11  1  0.47877700  0.68955900  0.74604400  1
  O  O12  1  0.49143000  0.30985000  0.24626700  1
  O  O13  1  0.49151300  0.80982300  0.24620100  1
  O  O14  1  0.66187300  0.09138000  0.05619900  1
  O  O15  1  0.66189800  0.59136900  0.05619000  1
  O  O16  1  0.68508700  0.40234700  0.55218300  1
  O  O17  1  0.68508000  0.90234000  0.55217200  1
  O  O18  1  0.80546600  0.33771700  0.92562200  1
  O  O19  1  0.80547500  0.83772900  0.92564800  1
  O  O20  1  0.98756100  0.43578400  0.25825700  1
  O  O21  1  0.98752300  0.93579800  0.25823800  1
  O  O22  1  0.18912400  0.34704900  0.55409400  1
  O  O23  1  0.18876800  0.84693300  0.55387200  1
loop_
_geom_bond_atom_site_label_1
_geom_bond_atom_site_label_2
_geom_bond_distance
_geom_bond_site_symmetry_2
Li0 O6 2.022173 1_555
Li0 O13 2.052872 1_545
Li0 O14 2.059615 1_555
Li0 O0 2.238055 1_555
Li0 O17 2.310407 1_545
Li0 O21 2.393316 1_545
Li1 O7 2.022436 1_555
Li1 O12 2.052336 1_555
Li1 O15 2.059689 1_555
Li1 O1 2.238167 1_555
Li1 O16 2.310439 1_555
Li1 O20 2.393508 1_555
Li2 O22 2.006890 1_555
Li2 O2 2.016751 1_455
Li2 O18 2.032897 1_455
Li2 O10 2.214339 1_555
Li2 O4 2.308666 1_556
Li2 O8 2.379790 1_555
Li3 O23 2.006970 1_555
Li3 O3 2.016680 1_455
Li3 O19 2.032729 1_455
Li3 O11 2.214334 1_555
Li3 O5 2.309370 1_556
Li3 O9 2.379895 1_555
Li4 O9 1.953428 1_545
Li4 O10 1.983067 1_555
Li4 O17 1.988853 1_545
Li4 O2 2.384642 1_555
Li4 O14 2.482141 1_556
Li4 O19 2.534123 1_545
Li5 O8 1.953424 1_555
Li5 O11 1.983258 1_555
Li5 O16 1.988883 1_555
Li5 O3 2.384891 1_555
Li5 O15 2.482249 1_556
Li5 O18 2.534585 1_555
Li6 O20 2.005710 1_455
Li6 O4 2.020358 1_555
Li6 O0 2.053605 1_455
Li6 O6 2.246325 1_555
Li6 O22 2.335087 1_555
Li6 O12 2.368868 1_555
Li7 O21 2.005428 1_455
Li7 O5 2.019726 1_555
Li7 O1 2.053210 1_455
Li7 O7 2.247402 1_555
Li7 O23 2.332599 1_555
Li7 O13 2.370179 1_555
Mn0 O16 1.909631 1_555
Mn0 O10 1.913420 1_555
Mn0 O0 1.914797 1_555
Mn0 O22 1.999998 1_555
Mn0 O6 2.000056 1_555
Mn0 O12 2.035321 1_555
Mn1 O17 1.909821 1_555
Mn1 O11 1.913554 1_555
Mn1 O1 1.914867 1_555
Mn1 O7 1.999533 1_555
Mn1 O23 2.000649 1_555
Mn1 O13 2.035802 1_555
O0 W0 2.005990 1_645
O1 W3 2.005964 1_655
O2 W0 1.910251 1_645
O2 Sn0 2.082059 1_656
O3 W3 1.910312 1_655
O3 Sn1 2.082005 1_656
O4 W1 1.965462 1_555
O4 Sn0 2.039116 1_555
O5 W2 1.965083 1_555
O5 Sn1 2.039974 1_555
O6 W0 1.931966 1_545
O7 W3 1.931830 1_555
O8 W1 1.959979 1_556
O8 Sn1 2.036487 1_556
O9 W2 1.959873 1_556
O9 Sn0 2.036549 1_566
O10 W1 2.044494 1_556
O11 W2 2.044138 1_556
O12 W1 1.918523 1_555
O13 W2 1.917696 1_555
O14 W1 1.918459 1_555
O14 Sn0 2.085077 1_655
O15 W2 1.918711 1_555
O15 Sn1 2.085001 1_655
O16 W3 1.991252 1_655
O17 W0 1.991147 1_655
O18 W1 1.913028 1_556
O18 Sn1 2.090574 1_656
O19 W2 1.912969 1_556
O19 Sn0 2.090013 1_666
O20 W3 1.944135 1_655
O20 Sn1 2.029409 1_655
O21 W0 1.943959 1_655
O21 Sn0 2.029293 1_665
O22 W3 1.920686 1_555
O23 W0 1.920199 1_555
