# generated using pymatgen
data_Li2Si4Ni2O11
_symmetry_space_group_name_H-M   'P 1'
_cell_length_a   6.94389200
_cell_length_b   7.44482472
_cell_length_c   8.69555457
_cell_angle_alpha   99.22495476
_cell_angle_beta   101.23177053
_cell_angle_gamma   105.01980484
_symmetry_Int_Tables_number   1
_chemical_formula_structural   Li2Si4Ni2O11
_chemical_formula_sum   'Li4 Si8 Ni4 O22'
_cell_volume   415.17735756
_cell_formula_units_Z   2
loop_
 _symmetry_equiv_pos_site_id
 _symmetry_equiv_pos_as_xyz
  1  'x, y, z'
loop_
 _atom_site_type_symbol
 _atom_site_label
 _atom_site_symmetry_multiplicity
 _atom_site_fract_x
 _atom_site_fract_y
 _atom_site_fract_z
 _atom_site_occupancy
  Li  Li0  1  0.39020900  0.20366500  0.80143300  1
  Li  Li1  1  0.85646600  0.24625500  0.84564600  1
  Li  Li2  1  0.14353400  0.75374500  0.15435400  1
  Li  Li3  1  0.60979100  0.79633500  0.19856700  1
  Si  Si0  1  0.76006900  0.60714000  0.96993400  1
  Si  Si1  1  0.04166500  0.77783300  0.76767500  1
  Si  Si2  1  0.48004400  0.77816500  0.77512000  1
  Si  Si3  1  0.23175900  0.02274100  0.40707400  1
  Si  Si4  1  0.76824100  0.97725900  0.59292600  1
  Si  Si5  1  0.51995600  0.22183500  0.22488000  1
  Si  Si6  1  0.95833500  0.22216700  0.23232500  1
  Si  Si7  1  0.23993100  0.39286000  0.03006600  1
  Ni  Ni0  1  0.11905800  0.38519800  0.60833400  1
  Ni  Ni1  1  0.62933800  0.38627800  0.60274200  1
  Ni  Ni2  1  0.37066200  0.61372200  0.39725800  1
  Ni  Ni3  1  0.88094200  0.61480200  0.39166600  1
  O  O0  1  0.18159500  0.38675000  0.84272300  1
  O  O1  1  0.60123200  0.74007900  0.94297900  1
  O  O2  1  0.67503400  0.40278300  0.84274500  1
  O  O3  1  0.97598500  0.74138200  0.93449300  1
  O  O4  1  0.29241700  0.85242100  0.81957300  1
  O  O5  1  0.62078800  0.96479800  0.72554100  1
  O  O6  1  0.32591800  0.19539100  0.56583000  1
  O  O7  1  0.41650900  0.58980500  0.62980000  1
  O  O8  1  0.81754400  0.19800800  0.57855200  1
  O  O9  1  0.98125900  0.95724600  0.70611300  1
  O  O10  1  0.93539500  0.58479700  0.62653300  1
  O  O11  1  0.06460500  0.41520300  0.37346700  1
  O  O12  1  0.01874100  0.04275400  0.29388700  1
  O  O13  1  0.18245600  0.80199200  0.42144800  1
  O  O14  1  0.58349100  0.41019500  0.37020000  1
  O  O15  1  0.67408200  0.80460900  0.43417000  1
  O  O16  1  0.37921200  0.03520200  0.27445900  1
  O  O17  1  0.70758300  0.14757900  0.18042700  1
  O  O18  1  0.02401500  0.25861800  0.06550700  1
  O  O19  1  0.32496600  0.59721700  0.15725500  1
  O  O20  1  0.39876800  0.25992100  0.05702100  1
  O  O21  1  0.81840500  0.61325000  0.15727700  1
loop_
_geom_bond_atom_site_label_1
_geom_bond_atom_site_label_2
_geom_bond_distance
_geom_bond_site_symmetry_2
Li0 O6 1.997313 1_555
Li0 O2 2.066664 1_555
Li0 O20 2.180724 1_556
Li0 O0 2.270305 1_555
Li0 O4 2.564680 1_545
Li1 O2 1.924527 1_555
Li1 O18 2.009650 1_656
Li1 O0 2.235766 1_655
Li1 O5 2.239378 1_545
Li1 O8 2.243634 1_555
Li2 O19 1.924527 1_555
Li2 O3 2.009650 1_454
Li2 O21 2.235766 1_455
Li2 O16 2.239378 1_565
Li2 O13 2.243634 1_555
Li3 O15 1.997313 1_555
Li3 O19 2.066664 1_555
Li3 O1 2.180724 1_554
Li3 O21 2.270305 1_555
Li3 O17 2.564680 1_565
Ni0 O0 1.996947 1_555
Ni0 O11 2.062300 1_555
Ni0 O8 2.133884 1_455
Ni0 O7 2.179279 1_555
Ni0 O10 2.201168 1_455
Ni0 O6 2.299583 1_555
Ni1 O2 2.027507 1_555
Ni1 O14 2.028772 1_555
Ni1 O6 2.144786 1_555
Ni1 O8 2.163042 1_555
Ni1 O10 2.201457 1_555
Ni1 O7 2.391050 1_555
Ni2 O19 2.027507 1_555
Ni2 O7 2.028772 1_555
Ni2 O15 2.144786 1_555
Ni2 O13 2.163042 1_555
Ni2 O11 2.201457 1_555
Ni2 O14 2.391050 1_555
Ni3 O21 1.996947 1_555
Ni3 O10 2.062300 1_555
Ni3 O13 2.133884 1_655
Ni3 O14 2.179279 1_555
Ni3 O11 2.201168 1_655
Ni3 O15 2.299583 1_555
O0 Si7 1.590469 1_556
O1 Si2 1.642234 1_555
O1 Si0 1.670449 1_555
O2 Si0 1.620803 1_555
O3 Si1 1.644870 1_655
O3 Si0 1.686356 1_555
O4 Si2 1.628944 1_555
O4 Si1 1.629780 1_555
O5 Si2 1.650437 1_555
O5 Si4 1.682789 1_555
O6 Si3 1.621485 1_555
O7 Si2 1.628467 1_555
O8 Si4 1.620070 1_545
O9 Si1 1.636692 1_655
O9 Si4 1.665222 1_555
O10 Si1 1.627316 1_655
O11 Si6 1.627316 1_455
O12 Si6 1.636692 1_455
O12 Si3 1.665222 1_555
O13 Si3 1.620070 1_565
O14 Si5 1.628467 1_555
O15 Si4 1.621485 1_555
O16 Si5 1.650437 1_555
O16 Si3 1.682789 1_555
O17 Si5 1.628944 1_555
O17 Si6 1.629780 1_555
O18 Si6 1.644870 1_455
O18 Si7 1.686356 1_555
O19 Si7 1.620803 1_555
O20 Si5 1.642234 1_555
O20 Si7 1.670449 1_555
O21 Si0 1.590469 1_554
