# generated using pymatgen
data_InS3(NO4)3
_symmetry_space_group_name_H-M   'P 1'
_cell_length_a   9.75682426
_cell_length_b   9.75682426
_cell_length_c   9.75682364
_cell_angle_alpha   110.06279407
_cell_angle_beta   110.06279407
_cell_angle_gamma   110.06279410
_symmetry_Int_Tables_number   1
_chemical_formula_structural   InS3(NO4)3
_chemical_formula_sum   'In2 S6 N6 O24'
_cell_volume   698.89746300
_cell_formula_units_Z   2
loop_
 _symmetry_equiv_pos_site_id
 _symmetry_equiv_pos_as_xyz
  1  'x, y, z'
loop_
 _atom_site_type_symbol
 _atom_site_label
 _atom_site_symmetry_multiplicity
 _atom_site_fract_x
 _atom_site_fract_y
 _atom_site_fract_z
 _atom_site_occupancy
  In  In0  1  0.50460800  0.50460800  0.50460800  1
  In  In1  1  0.00460800  0.00460800  0.00460800  1
  S  S0  1  0.91709900  0.60237700  0.72269900  1
  S  S1  1  0.72269900  0.91709900  0.60237700  1
  S  S2  1  0.60237700  0.72269900  0.91709900  1
  S  S3  1  0.22269900  0.10237700  0.41709900  1
  S  S4  1  0.41709900  0.22269900  0.10237700  1
  S  S5  1  0.10237700  0.41709900  0.22269900  1
  N  N0  1  0.19105400  0.33605800  0.80349300  1
  N  N1  1  0.80349300  0.19105400  0.33605800  1
  N  N2  1  0.33605800  0.80349300  0.19105400  1
  N  N3  1  0.30349300  0.83605800  0.69105400  1
  N  N4  1  0.69105400  0.30349300  0.83605800  1
  N  N5  1  0.83605800  0.69105400  0.30349300  1
  O  O0  1  0.66805000  0.73236400  0.51868300  1
  O  O1  1  0.51868300  0.66805000  0.73236400  1
  O  O2  1  0.73236400  0.51868300  0.66805000  1
  O  O3  1  0.01868300  0.23236400  0.16805000  1
  O  O4  1  0.16805000  0.01868300  0.23236400  1
  O  O5  1  0.23236400  0.16805000  0.01868300  1
  O  O6  1  0.00998200  0.78336000  0.86512000  1
  O  O7  1  0.86512000  0.00998200  0.78336000  1
  O  O8  1  0.78336000  0.86512000  0.00998200  1
  O  O9  1  0.36512000  0.28336000  0.50998200  1
  O  O10  1  0.50998200  0.36512000  0.28336000  1
  O  O11  1  0.28336000  0.50998200  0.36512000  1
  O  O12  1  0.99171500  0.51030400  0.78033200  1
  O  O13  1  0.78033200  0.99171500  0.51030400  1
  O  O14  1  0.51030400  0.78033200  0.99171500  1
  O  O15  1  0.28033200  0.01030400  0.49171500  1
  O  O16  1  0.49171500  0.28033200  0.01030400  1
  O  O17  1  0.01030400  0.49171500  0.28033200  1
  O  O18  1  0.94313600  0.59400000  0.57956300  1
  O  O19  1  0.57956300  0.94313600  0.59400000  1
  O  O20  1  0.59400000  0.57956300  0.94313600  1
  O  O21  1  0.07956300  0.09400000  0.44313600  1
  O  O22  1  0.44313600  0.07956300  0.09400000  1
  O  O23  1  0.09400000  0.44313600  0.07956300  1
loop_
_geom_bond_atom_site_label_1
_geom_bond_atom_site_label_2
_geom_bond_distance
_geom_bond_site_symmetry_2
In0 O10 2.150766 1_555
In0 O11 2.150766 1_555
In0 O9 2.150766 1_555
In0 O1 2.170021 1_555
In0 O2 2.170021 1_555
In0 O0 2.170021 1_555
In1 O7 2.150766 1_454
In1 O6 2.150766 1_544
In1 O8 2.150766 1_445
In1 O4 2.170021 1_555
In1 O3 2.170021 1_555
In1 O5 2.170021 1_555
O0 S1 1.493962 1_555
O1 S2 1.493962 1_555
O2 S0 1.493962 1_555
O3 S5 1.493962 1_555
O4 S3 1.493962 1_555
O5 S4 1.493962 1_555
O6 S0 1.491599 1_455
O7 S1 1.491599 1_545
O8 S2 1.491599 1_554
O9 S3 1.491599 1_555
O10 S4 1.491599 1_555
O11 S5 1.491599 1_555
O12 S0 1.472292 1_555
O13 S1 1.472292 1_555
O14 S2 1.472292 1_555
O15 S3 1.472292 1_555
O16 S4 1.472292 1_555
O17 S5 1.472292 1_555
O18 S0 1.483550 1_555
O19 S1 1.483550 1_555
O20 S2 1.483550 1_555
O21 S3 1.483550 1_555
O22 S4 1.483550 1_555
O23 S5 1.483550 1_555
