# generated using pymatgen
data_WOF4
_symmetry_space_group_name_H-M   'P 1'
_cell_length_a   5.51212800
_cell_length_b   9.34681600
_cell_length_c   16.90271000
_cell_angle_alpha   90.00000000
_cell_angle_beta   90.00000000
_cell_angle_gamma   90.00000000
_symmetry_Int_Tables_number   1
_chemical_formula_structural   WOF4
_chemical_formula_sum   'W8 O8 F32'
_cell_volume   870.84192201
_cell_formula_units_Z   8
loop_
 _symmetry_equiv_pos_site_id
 _symmetry_equiv_pos_as_xyz
  1  'x, y, z'
loop_
 _atom_site_type_symbol
 _atom_site_label
 _atom_site_symmetry_multiplicity
 _atom_site_fract_x
 _atom_site_fract_y
 _atom_site_fract_z
 _atom_site_occupancy
  W  W0  1  0.15148200  0.10046100  0.12661900  1
  W  W1  1  0.46844700  0.50111100  0.15034600  1
  W  W2  1  0.46844700  0.00111100  0.34965400  1
  W  W3  1  0.15148200  0.60046100  0.37338100  1
  W  W4  1  0.84851800  0.10046100  0.62661900  1
  W  W5  1  0.53155300  0.50111100  0.65034600  1
  W  W6  1  0.53155300  0.00111100  0.84965400  1
  W  W7  1  0.84851800  0.60046100  0.87338100  1
  O  O0  1  0.02950700  0.17767200  0.04361900  1
  O  O1  1  0.57434200  0.67253700  0.13888200  1
  O  O2  1  0.57434200  0.17253700  0.36111800  1
  O  O3  1  0.02950700  0.67767200  0.45638100  1
  O  O4  1  0.97049300  0.17767200  0.54361900  1
  O  O5  1  0.42565800  0.67253700  0.63888200  1
  O  O6  1  0.42565800  0.17253700  0.86111800  1
  O  O7  1  0.97049300  0.67767200  0.95638100  1
  F  F0  1  0.56442500  0.41452900  0.05524000  1
  F  F1  1  0.46783300  0.05770900  0.09073000  1
  F  F2  1  0.14884900  0.52251700  0.11165000  1
  F  F3  1  0.05562300  0.90946200  0.11532400  1
  F  F4  1  0.30884700  0.27353000  0.17237600  1
  F  F5  1  0.72816600  0.41360300  0.20370700  1
  F  F6  1  0.90518400  0.13683400  0.20098000  1
  F  F7  1  0.32310700  0.01648700  0.24294300  1
  F  F8  1  0.32310700  0.51648700  0.25705700  1
  F  F9  1  0.90518400  0.63683400  0.29902000  1
  F  F10  1  0.72816600  0.91360300  0.29629300  1
  F  F11  1  0.30884700  0.77353000  0.32762400  1
  F  F12  1  0.05562300  0.40946200  0.38467600  1
  F  F13  1  0.14884900  0.02251700  0.38835000  1
  F  F14  1  0.46783300  0.55770900  0.40927000  1
  F  F15  1  0.56442500  0.91452900  0.44476000  1
  F  F16  1  0.43557500  0.41452900  0.55524000  1
  F  F17  1  0.53216700  0.05770900  0.59073000  1
  F  F18  1  0.85115100  0.52251700  0.61165000  1
  F  F19  1  0.94437700  0.90946200  0.61532400  1
  F  F20  1  0.69115300  0.27353000  0.67237600  1
  F  F21  1  0.27183400  0.41360300  0.70370700  1
  F  F22  1  0.09481600  0.13683400  0.70098000  1
  F  F23  1  0.67689300  0.01648700  0.74294300  1
  F  F24  1  0.67689300  0.51648700  0.75705700  1
  F  F25  1  0.09481600  0.63683400  0.79902000  1
  F  F26  1  0.27183400  0.91360300  0.79629300  1
  F  F27  1  0.69115300  0.77353000  0.82762400  1
  F  F28  1  0.94437700  0.40946200  0.88467600  1
  F  F29  1  0.85115100  0.02251700  0.88835000  1
  F  F30  1  0.53216700  0.55770900  0.90927000  1
  F  F31  1  0.43557500  0.91452900  0.94476000  1
loop_
_geom_bond_atom_site_label_1
_geom_bond_atom_site_label_2
_geom_bond_distance
_geom_bond_site_symmetry_2
O0 W0 1.714952 1_555
O1 W1 1.716271 1_555
O2 W2 1.716271 1_555
O3 W3 1.714952 1_555
O4 W4 1.714952 1_555
O5 W5 1.716271 1_555
O6 W6 1.716271 1_555
O7 W7 1.714952 1_555
F0 W1 1.875903 1_555
F1 W0 1.889018 1_555
F2 W1 1.889788 1_555
F3 W0 1.871549 1_565
F4 W0 1.991823 1_555
F4 W1 2.331822 1_555
F5 W1 1.879359 1_555
F6 W0 1.881099 1_655
F7 W2 1.978843 1_555
F7 W0 2.318816 1_555
F8 W1 1.978843 1_555
F8 W3 2.318816 1_555
F9 W3 1.881099 1_655
F10 W2 1.879359 1_565
F11 W3 1.991823 1_555
F11 W2 2.331822 1_565
F12 W3 1.871549 1_555
F13 W2 1.889788 1_555
F14 W3 1.889018 1_555
F15 W2 1.875903 1_565
F16 W5 1.875903 1_555
F17 W4 1.889018 1_555
F18 W5 1.889788 1_555
F19 W4 1.871549 1_565
F20 W4 1.991823 1_555
F20 W5 2.331822 1_555
F21 W5 1.879359 1_555
F22 W4 1.881099 1_455
F23 W6 1.978843 1_555
F23 W4 2.318816 1_555
F24 W5 1.978843 1_555
F24 W7 2.318816 1_555
F25 W7 1.881099 1_455
F26 W6 1.879359 1_565
F27 W7 1.991823 1_555
F27 W6 2.331822 1_565
F28 W7 1.871549 1_555
F29 W6 1.889788 1_555
F30 W7 1.889018 1_555
F31 W6 1.875903 1_565
