# generated using pymatgen
data_Na2SnPCO7
_symmetry_space_group_name_H-M   'P 1'
_cell_length_a   6.87703800
_cell_length_b   5.32092300
_cell_length_c   9.19870193
_cell_angle_alpha   87.33175876
_cell_angle_beta   90.00000000
_cell_angle_gamma   90.00000000
_symmetry_Int_Tables_number   1
_chemical_formula_structural   Na2SnPCO7
_chemical_formula_sum   'Na4 Sn2 P2 C2 O14'
_cell_volume   336.23571436
_cell_formula_units_Z   2
loop_
 _symmetry_equiv_pos_site_id
 _symmetry_equiv_pos_as_xyz
  1  'x, y, z'
loop_
 _atom_site_type_symbol
 _atom_site_label
 _atom_site_symmetry_multiplicity
 _atom_site_fract_x
 _atom_site_fract_y
 _atom_site_fract_z
 _atom_site_occupancy
  Na  Na0  1  0.49607400  0.23492700  0.77932600  1
  Na  Na1  1  0.00392600  0.23492700  0.77932600  1
  Na  Na2  1  0.50392600  0.76507300  0.22067400  1
  Na  Na3  1  0.99607400  0.76507300  0.22067400  1
  Sn  Sn0  1  0.75000000  0.78090600  0.63506300  1
  Sn  Sn1  1  0.25000000  0.21909400  0.36493700  1
  P  P0  1  0.25000000  0.71311500  0.58671700  1
  P  P1  1  0.75000000  0.28688500  0.41328300  1
  C  C0  1  0.75000000  0.72742600  0.92833900  1
  C  C1  1  0.25000000  0.27257400  0.07166100  1
  O  O0  1  0.25000000  0.28988700  0.93461800  1
  O  O1  1  0.75000000  0.94674300  0.85371200  1
  O  O2  1  0.75000000  0.52860300  0.84709500  1
  O  O3  1  0.06909900  0.82349800  0.66319400  1
  O  O4  1  0.43090100  0.82349800  0.66319400  1
  O  O5  1  0.75000000  0.20089300  0.57998600  1
  O  O6  1  0.25000000  0.42062400  0.59943900  1
  O  O7  1  0.75000000  0.57937600  0.40056100  1
  O  O8  1  0.25000000  0.79910700  0.42001400  1
  O  O9  1  0.56909900  0.17650200  0.33680600  1
  O  O10  1  0.93090100  0.17650200  0.33680600  1
  O  O11  1  0.25000000  0.47139700  0.15290500  1
  O  O12  1  0.25000000  0.05325700  0.14628800  1
  O  O13  1  0.75000000  0.71011300  0.06538200  1
loop_
_geom_bond_atom_site_label_1
_geom_bond_atom_site_label_2
_geom_bond_distance
_geom_bond_site_symmetry_2
Na0 O0 2.242483 1_555
Na0 O1 2.402346 1_545
Na0 O2 2.443467 1_555
Na0 O4 2.520382 1_545
Na0 O6 2.534944 1_555
Na0 O5 2.544695 1_555
Na1 O0 2.242483 1_555
Na1 O1 2.402346 1_445
Na1 O2 2.443467 1_455
Na1 O3 2.520382 1_545
Na1 O6 2.534944 1_555
Na1 O5 2.544695 1_455
Na2 O13 2.242483 1_555
Na2 O12 2.402346 1_565
Na2 O11 2.443467 1_555
Na2 O9 2.520382 1_565
Na2 O7 2.534944 1_555
Na2 O8 2.544695 1_555
Na3 O13 2.242483 1_555
Na3 O12 2.402346 1_665
Na3 O11 2.443467 1_655
Na3 O10 2.520382 1_565
Na3 O7 2.534944 1_555
Na3 O8 2.544695 1_655
C0 O13 1.259695 1_556
C0 O2 1.323377 1_555
C0 O1 1.326074 1_555
C1 O0 1.259695 1_554
C1 O11 1.323377 1_555
C1 O12 1.326074 1_555
O1 Sn0 2.233642 1_555
O2 Sn0 2.315731 1_555
O3 P0 1.557571 1_555
O3 Sn0 2.222480 1_455
O4 P0 1.557571 1_555
O4 Sn0 2.222480 1_555
O5 P1 1.579716 1_555
O5 Sn0 2.268311 1_545
O6 P0 1.555274 1_555
O6 Sn1 2.453240 1_555
O7 P1 1.555274 1_555
O7 Sn0 2.453240 1_555
O8 P0 1.579716 1_555
O8 Sn1 2.268311 1_565
O9 P1 1.557571 1_555
O9 Sn1 2.222480 1_555
O10 P1 1.557571 1_555
O10 Sn1 2.222480 1_655
O11 Sn1 2.315731 1_555
O12 Sn1 2.233642 1_555
