# generated using pymatgen
data_Li3Ti(Si2O5)3
_symmetry_space_group_name_H-M   'P 1'
_cell_length_a   11.06392670
_cell_length_b   11.06392670
_cell_length_c   10.20658900
_cell_angle_alpha   90.00000000
_cell_angle_beta   90.00000000
_cell_angle_gamma   100.10404034
_symmetry_Int_Tables_number   1
_chemical_formula_structural   Li3Ti(Si2O5)3
_chemical_formula_sum   'Li12 Ti4 Si24 O60'
_cell_volume   1230.01631927
_cell_formula_units_Z   4
loop_
 _symmetry_equiv_pos_site_id
 _symmetry_equiv_pos_as_xyz
  1  'x, y, z'
loop_
 _atom_site_type_symbol
 _atom_site_label
 _atom_site_symmetry_multiplicity
 _atom_site_fract_x
 _atom_site_fract_y
 _atom_site_fract_z
 _atom_site_occupancy
  Li  Li0  1  0.23448400  0.23448400  0.00000000  1
  Li  Li1  1  0.47868300  0.02131700  0.25000000  1
  Li  Li2  1  0.02131700  0.47868300  0.75000000  1
  Li  Li3  1  0.26551600  0.26551600  0.50000000  1
  Li  Li4  1  0.06302000  0.93698000  0.80087200  1
  Li  Li5  1  0.56302000  0.43698000  0.69912800  1
  Li  Li6  1  0.43698000  0.56302000  0.30087200  1
  Li  Li7  1  0.93698000  0.06302000  0.19912800  1
  Li  Li8  1  0.73448400  0.73448400  0.50000000  1
  Li  Li9  1  0.52131700  0.97868300  0.75000000  1
  Li  Li10  1  0.97868300  0.52131700  0.25000000  1
  Li  Li11  1  0.76551600  0.76551600  0.00000000  1
  Ti  Ti0  1  0.15602900  0.34397100  0.25000000  1
  Ti  Ti1  1  0.34397100  0.15602900  0.75000000  1
  Ti  Ti2  1  0.84397100  0.65602900  0.75000000  1
  Ti  Ti3  1  0.65602900  0.84397100  0.25000000  1
  Si  Si0  1  0.03990500  0.18957100  0.80691000  1
  Si  Si1  1  0.18957100  0.03990500  0.19309000  1
  Si  Si2  1  0.46009500  0.31042900  0.30691000  1
  Si  Si3  1  0.31042900  0.46009500  0.69309000  1
  Si  Si4  1  0.01679700  0.76534200  0.48340300  1
  Si  Si5  1  0.26534200  0.51679700  0.98340300  1
  Si  Si6  1  0.51679700  0.26534200  0.01659700  1
  Si  Si7  1  0.76534200  0.01679700  0.51659700  1
  Si  Si8  1  0.20008200  0.58169700  0.45514800  1
  Si  Si9  1  0.70008200  0.08169700  0.04485200  1
  Si  Si10  1  0.08169700  0.70008200  0.95514800  1
  Si  Si11  1  0.58169700  0.20008200  0.54485200  1
  Si  Si12  1  0.41830300  0.79991800  0.45514800  1
  Si  Si13  1  0.29991800  0.91830300  0.95514800  1
  Si  Si14  1  0.91830300  0.29991800  0.04485200  1
  Si  Si15  1  0.79991800  0.41830300  0.54485200  1
  Si  Si16  1  0.73465800  0.48320300  0.01659700  1
  Si  Si17  1  0.23465800  0.98320300  0.48340300  1
  Si  Si18  1  0.48320300  0.73465800  0.98340300  1
  Si  Si19  1  0.98320300  0.23465800  0.51659700  1
  Si  Si20  1  0.53990500  0.68957100  0.69309000  1
  Si  Si21  1  0.68957100  0.53990500  0.30691000  1
  Si  Si22  1  0.81042900  0.96009500  0.80691000  1
  Si  Si23  1  0.96009500  0.81042900  0.19309000  1
  O  O0  1  0.28308800  0.01122500  0.07734900  1
  O  O1  1  0.01122500  0.28308800  0.92265100  1
  O  O2  1  0.03119500  0.26572900  0.66976400  1
  O  O3  1  0.26572900  0.03119500  0.33023600  1
  O  O4  1  0.14026200  0.16561900  0.16591000  1
  O  O5  1  0.16561900  0.14026200  0.83409000  1
  O  O6  1  0.09734100  0.25567700  0.41815600  1
  O  O7  1  0.25567700  0.09734100  0.58184400  1
  O  O8  1  0.13927800  0.51198800  0.32792800  1
  O  O9  1  0.63927800  0.01198800  0.17207200  1
  O  O10  1  0.01198800  0.63927800  0.82792800  1
  O  O11  1  0.51198800  0.13927800  0.67207200  1
  O  O12  1  0.24432300  0.40265900  0.08184400  1
  O  O13  1  0.40265900  0.24432300  0.91815600  1
  O  O14  1  0.35973800  0.33438100  0.66591000  1
  O  O15  1  0.33438100  0.35973800  0.33409000  1
  O  O16  1  0.46880500  0.23427100  0.16976400  1
  O  O17  1  0.23427100  0.46880500  0.83023600  1
  O  O18  1  0.21691200  0.48877500  0.57734900  1
  O  O19  1  0.48877500  0.21691200  0.42265100  1
  O  O20  1  0.11448000  0.67368200  0.51566300  1
  O  O21  1  0.17368200  0.61448000  0.01566300  1
  O  O22  1  0.67368200  0.11448000  0.48433700  1
  O  O23  1  0.61448000  0.17368200  0.98433700  1
  O  O24  1  0.59294800  0.40705200  0.00787800  1
  O  O25  1  0.33979800  0.66020200  0.41770600  1
  O  O26  1  0.06630200  0.93369800  0.19482700  1
  O  O27  1  0.16020200  0.83979800  0.91770600  1
  O  O28  1  0.09294800  0.90705200  0.49212200  1
  O  O29  1  0.43369800  0.56630200  0.69482700  1
  O  O30  1  0.56630200  0.43369800  0.30517300  1
  O  O31  1  0.40705200  0.59294800  0.99212200  1
  O  O32  1  0.90705200  0.09294800  0.50787800  1
  O  O33  1  0.66020200  0.33979800  0.58229400  1
  O  O34  1  0.93369800  0.06630200  0.80517300  1
  O  O35  1  0.83979800  0.16020200  0.08229400  1
  O  O36  1  0.32631800  0.88552000  0.51566300  1
  O  O37  1  0.38552000  0.82631800  0.01566300  1
  O  O38  1  0.88552000  0.32631800  0.48433700  1
  O  O39  1  0.82631800  0.38552000  0.98433700  1
  O  O40  1  0.51122500  0.78308800  0.57734900  1
  O  O41  1  0.78308800  0.51122500  0.42265100  1
  O  O42  1  0.53119500  0.76572900  0.83023600  1
  O  O43  1  0.76572900  0.53119500  0.16976400  1
  O  O44  1  0.64026200  0.66561900  0.33409000  1
  O  O45  1  0.66561900  0.64026200  0.66591000  1
  O  O46  1  0.59734100  0.75567700  0.08184400  1
  O  O47  1  0.75567700  0.59734100  0.91815600  1
  O  O48  1  0.36072200  0.98801200  0.82792800  1
  O  O49  1  0.48801200  0.86072200  0.32792800  1
  O  O50  1  0.98801200  0.36072200  0.17207200  1
  O  O51  1  0.86072200  0.48801200  0.67207200  1
  O  O52  1  0.74432300  0.90265900  0.41815600  1
  O  O53  1  0.90265900  0.74432300  0.58184400  1
  O  O54  1  0.83438100  0.85973800  0.16591000  1
  O  O55  1  0.85973800  0.83438100  0.83409000  1
  O  O56  1  0.96880500  0.73427100  0.33023600  1
  O  O57  1  0.73427100  0.96880500  0.66976400  1
  O  O58  1  0.71691200  0.98877500  0.92265100  1
  O  O59  1  0.98877500  0.71691200  0.07734900  1
loop_
_geom_bond_atom_site_label_1
_geom_bond_atom_site_label_2
_geom_bond_distance
_geom_bond_site_symmetry_2
Li0 O13 2.025019 1_554
Li0 O12 2.025019 1_555
Li0 O5 2.063028 1_554
Li0 O4 2.063028 1_555
Li1 O9 1.965881 1_555
Li1 O49 1.965881 1_545
Li1 O16 2.514794 1_555
Li1 O3 2.514794 1_555
Li2 O10 1.965881 1_555
Li2 O51 1.965881 1_455
Li2 O17 2.514794 1_555
Li2 O2 2.514794 1_555
Li3 O6 2.025019 1_555
Li3 O7 2.025019 1_555
Li3 O15 2.063028 1_555
Li3 O14 2.063028 1_555
Li4 O27 2.034653 1_555
Li4 O34 2.194235 1_465
Li4 O5 2.359269 1_565
Li4 O55 2.359269 1_455
Li5 O33 2.034653 1_555
Li5 O29 2.194235 1_555
Li5 O14 2.359269 1_555
Li5 O45 2.359269 1_555
Li6 O25 2.034653 1_555
Li6 O30 2.194235 1_555
Li6 O15 2.359269 1_555
Li6 O44 2.359269 1_555
Li7 O35 2.034653 1_555
Li7 O26 2.194235 1_645
Li7 O4 2.359269 1_655
Li7 O54 2.359269 1_545
Li8 O53 2.025019 1_555
Li8 O52 2.025019 1_555
Li8 O44 2.063028 1_555
Li8 O45 2.063028 1_555
Li9 O11 1.965881 1_565
Li9 O48 1.965881 1_555
Li9 O42 2.514794 1_555
Li9 O57 2.514794 1_555
Li10 O50 1.965881 1_555
Li10 O8 1.965881 1_655
Li10 O43 2.514794 1_555
Li10 O56 2.514794 1_555
Li11 O46 2.025019 1_555
Li11 O47 2.025019 1_554
Li11 O55 2.063028 1_554
Li11 O54 2.063028 1_555
O0 Si1 1.637661 1_555
O0 Si13 1.647556 1_544
O1 Si0 1.637661 1_555
O1 Si14 1.647556 1_456
O2 Si0 1.645352 1_555
O2 Si19 1.667338 1_455
O3 Si1 1.645352 1_555
O3 Si17 1.667338 1_545
O4 Si1 1.604807 1_555
O4 Ti0 2.130749 1_555
O5 Si0 1.604807 1_555
O5 Ti1 2.130749 1_555
O6 Si19 1.598517 1_455
O6 Ti0 2.024606 1_555
O7 Si17 1.598517 1_545
O7 Ti1 2.024606 1_555
O8 Si8 1.597313 1_555
O8 Ti0 2.059968 1_555
O9 Si9 1.597313 1_555
O9 Ti3 2.059968 1_545
O10 Si10 1.597313 1_555
O10 Ti2 2.059968 1_455
O11 Si11 1.597313 1_555
O11 Ti1 2.059968 1_555
O12 Si5 1.598517 1_554
O12 Ti0 2.024606 1_555
O13 Si6 1.598517 1_556
O13 Ti1 2.024606 1_555
O14 Si3 1.604807 1_555
O14 Ti1 2.130749 1_555
O15 Si2 1.604807 1_555
O15 Ti0 2.130749 1_555
O16 Si2 1.645352 1_555
O16 Si6 1.667338 1_555
O17 Si3 1.645352 1_555
O17 Si5 1.667338 1_555
O18 Si3 1.637661 1_555
O18 Si8 1.647556 1_555
O19 Si2 1.637661 1_555
O19 Si11 1.647556 1_555
O20 Si8 1.628626 1_555
O20 Si4 1.639955 1_555
O21 Si10 1.628626 1_554
O21 Si5 1.639955 1_554
O22 Si11 1.628626 1_555
O22 Si7 1.639955 1_555
O23 Si9 1.628626 1_556
O23 Si6 1.639955 1_556
O24 Si16 1.646965 1_555
O24 Si6 1.646965 1_555
O25 Si8 1.678954 1_555
O25 Si12 1.678954 1_555
O26 Si23 1.636718 1_455
O26 Si1 1.636718 1_565
O27 Si13 1.678954 1_555
O27 Si10 1.678954 1_555
O28 Si17 1.646965 1_555
O28 Si4 1.646965 1_555
O29 Si3 1.636718 1_555
O29 Si20 1.636718 1_555
O30 Si2 1.636718 1_555
O30 Si21 1.636718 1_555
O31 Si18 1.646965 1_555
O31 Si5 1.646965 1_555
O32 Si7 1.646965 1_555
O32 Si19 1.646965 1_555
O33 Si11 1.678954 1_555
O33 Si15 1.678954 1_555
O34 Si22 1.636718 1_545
O34 Si0 1.636718 1_655
O35 Si14 1.678954 1_555
O35 Si9 1.678954 1_555
O36 Si12 1.628626 1_555
O36 Si17 1.639955 1_555
O37 Si13 1.628626 1_554
O37 Si18 1.639955 1_554
O38 Si15 1.628626 1_555
O38 Si19 1.639955 1_555
O39 Si14 1.628626 1_556
O39 Si16 1.639955 1_556
O40 Si20 1.637661 1_555
O40 Si12 1.647556 1_555
O41 Si21 1.637661 1_555
O41 Si15 1.647556 1_555
O42 Si20 1.645352 1_555
O42 Si18 1.667338 1_555
O43 Si21 1.645352 1_555
O43 Si16 1.667338 1_555
O44 Si21 1.604807 1_555
O44 Ti3 2.130749 1_555
O45 Si20 1.604807 1_555
O45 Ti2 2.130749 1_555
O46 Si18 1.598517 1_554
O46 Ti3 2.024606 1_555
O47 Si16 1.598517 1_556
O47 Ti2 2.024606 1_555
O48 Si13 1.597313 1_555
O48 Ti1 2.059968 1_565
O49 Si12 1.597313 1_555
O49 Ti3 2.059968 1_555
O50 Si14 1.597313 1_555
O50 Ti0 2.059968 1_655
O51 Si15 1.597313 1_555
O51 Ti2 2.059968 1_555
O52 Si7 1.598517 1_565
O52 Ti3 2.024606 1_555
O53 Si4 1.598517 1_655
O53 Ti2 2.024606 1_555
O54 Si23 1.604807 1_555
O54 Ti3 2.130749 1_555
O55 Si22 1.604807 1_555
O55 Ti2 2.130749 1_555
O56 Si23 1.645352 1_555
O56 Si4 1.667338 1_655
O57 Si22 1.645352 1_555
O57 Si7 1.667338 1_565
O58 Si22 1.637661 1_555
O58 Si9 1.647556 1_566
O59 Si23 1.637661 1_555
O59 Si10 1.647556 1_654
