# generated using pymatgen
data_Na4MgO3
_symmetry_space_group_name_H-M   'P 1'
_cell_length_a   6.33277671
_cell_length_b   6.33277671
_cell_length_c   8.11418985
_cell_angle_alpha   70.29970501
_cell_angle_beta   70.29970501
_cell_angle_gamma   55.94072811
_symmetry_Int_Tables_number   1
_chemical_formula_structural   Na4MgO3
_chemical_formula_sum   'Na8 Mg2 O6'
_cell_volume   249.18038294
_cell_formula_units_Z   2
loop_
 _symmetry_equiv_pos_site_id
 _symmetry_equiv_pos_as_xyz
  1  'x, y, z'
loop_
 _atom_site_type_symbol
 _atom_site_label
 _atom_site_symmetry_multiplicity
 _atom_site_fract_x
 _atom_site_fract_y
 _atom_site_fract_z
 _atom_site_occupancy
  Na  Na0  1  0.48591600  0.92173500  0.83900500  1
  Na  Na1  1  0.92173500  0.48591600  0.33900500  1
  Na  Na2  1  0.26812600  0.97183300  0.53802500  1
  Na  Na3  1  0.03115500  0.73260900  0.93182700  1
  Na  Na4  1  0.97183300  0.26812600  0.03802500  1
  Na  Na5  1  0.73260900  0.03115500  0.43182700  1
  Na  Na6  1  0.12095400  0.44826500  0.63756900  1
  Na  Na7  1  0.44826500  0.12095400  0.13756900  1
  Mg  Mg0  1  0.66329300  0.38055800  0.75274400  1
  Mg  Mg1  1  0.38055800  0.66329300  0.25274400  1
  O  O0  1  0.67892200  0.68587200  0.60210300  1
  O  O1  1  0.68587200  0.67892200  0.10210300  1
  O  O2  1  0.35856400  0.34664500  0.84774100  1
  O  O3  1  0.34664500  0.35856400  0.34774100  1
  O  O4  1  0.00630100  0.11413100  0.80335600  1
  O  O5  1  0.11413100  0.00630100  0.30335600  1
loop_
_geom_bond_atom_site_label_1
_geom_bond_atom_site_label_2
_geom_bond_distance
_geom_bond_site_symmetry_2
Na0 O2 2.356999 1_565
Na0 O0 2.393095 1_555
Na0 O1 2.440040 1_556
Na0 O4 2.646311 1_565
Na1 O3 2.356999 1_655
Na1 O1 2.393095 1_555
Na1 O0 2.440040 1_555
Na1 O5 2.646311 1_655
Na2 O0 2.306018 1_555
Na2 O5 2.314688 1_565
Na2 O4 2.328978 1_565
Na2 O3 2.631770 1_565
Na3 O4 2.221613 1_565
Na3 O2 2.287535 1_555
Na3 O1 2.298898 1_456
Na4 O1 2.306018 1_555
Na4 O4 2.314688 1_654
Na4 O5 2.328978 1_655
Na4 O2 2.631770 1_654
Na5 O5 2.221613 1_655
Na5 O3 2.287535 1_555
Na5 O0 2.298898 1_545
Na6 O2 2.343541 1_555
Na6 O3 2.370902 1_555
Na6 O0 2.390851 1_455
Na6 O4 2.440803 1_555
Na7 O3 2.343541 1_555
Na7 O2 2.370902 1_554
Na7 O1 2.390851 1_545
Na7 O5 2.440803 1_555
Mg0 O2 1.927192 1_555
Mg0 O4 1.939829 1_655
Mg0 O0 1.944649 1_555
Mg1 O3 1.927192 1_555
Mg1 O5 1.939829 1_565
Mg1 O1 1.944649 1_555
