# generated using pymatgen
data_Al19CrO30
_symmetry_space_group_name_H-M   'P 1'
_cell_length_a   4.82030500
_cell_length_b   5.19121752
_cell_length_c   19.97457881
_cell_angle_alpha   94.38213140
_cell_angle_beta   89.98721539
_cell_angle_gamma   117.65083173
_symmetry_Int_Tables_number   1
_chemical_formula_structural   Al19CrO30
_chemical_formula_sum   'Al19 Cr1 O30'
_cell_volume   441.09877816
_cell_formula_units_Z   1
loop_
 _symmetry_equiv_pos_site_id
 _symmetry_equiv_pos_as_xyz
  1  'x, y, z'
loop_
 _atom_site_type_symbol
 _atom_site_label
 _atom_site_symmetry_multiplicity
 _atom_site_fract_x
 _atom_site_fract_y
 _atom_site_fract_z
 _atom_site_occupancy
  Al  Al0  1  0.49423900  0.98748200  0.07120900  1
  Al  Al1  1  0.60693700  0.21344700  0.23012500  1
  Al  Al2  1  0.59314700  0.18610100  0.37068400  1
  Al  Al3  1  0.19333400  0.38420300  0.17177500  1
  Al  Al4  1  0.70687100  0.41380500  0.52958700  1
  Al  Al5  1  0.69295500  0.38601200  0.67029500  1
  Al  Al6  1  0.00697800  0.01391700  0.42975000  1
  Al  Al7  1  0.89277500  0.78565800  0.27129900  1
  Al  Al8  1  0.90787800  0.81501700  0.13106600  1
  Al  Al9  1  0.99304000  0.98611500  0.57043200  1
  Al  Al10  1  0.09233400  0.18507200  0.86884800  1
  Al  Al11  1  0.10704200  0.21364100  0.72908900  1
  Al  Al12  1  0.80708300  0.61289800  0.82893900  1
  Al  Al13  1  0.30687500  0.61380300  0.32990100  1
  Al  Al14  1  0.40674900  0.81385400  0.62942400  1
  Al  Al15  1  0.50623900  0.01394000  0.92821100  1
  Al  Al16  1  0.29320600  0.58628300  0.47053500  1
  Al  Al17  1  0.39308600  0.78522800  0.76987800  1
  Al  Al18  1  0.79079200  0.58512200  0.96914500  1
  Cr  Cr0  1  0.20899700  0.41894000  0.02990200  1
  O  O0  1  0.45621000  0.30014600  0.45002400  1
  O  O1  1  0.16794600  0.64148900  0.11407500  1
  O  O2  1  0.63323900  0.96078900  0.28903300  1
  O  O3  1  0.23530000  0.15276200  0.09258700  1
  O  O4  1  0.57255100  0.83872200  0.41127000  1
  O  O5  1  0.74496700  0.09999400  0.15058200  1
  O  O6  1  0.94359500  0.49916900  0.74957800  1
  O  O7  1  0.66757200  0.70922900  0.05008400  1
  O  O8  1  0.85599000  0.09979300  0.64978100  1
  O  O9  1  0.22328700  0.76783800  0.98807100  1
  O  O10  1  0.62762000  0.56090600  0.18930200  1
  O  O11  1  0.02755700  0.36111400  0.38885800  1
  O  O12  1  0.82766500  0.96097600  0.78831800  1
  O  O13  1  0.56666100  0.43903500  0.31148500  1
  O  O14  1  0.96631200  0.23869200  0.51116800  1
  O  O15  1  0.03371600  0.76121900  0.48880200  1
  O  O16  1  0.75282900  0.23441400  0.01033000  1
  O  O17  1  0.43369600  0.56122700  0.68842400  1
  O  O18  1  0.97227600  0.63861400  0.61109000  1
  O  O19  1  0.17211600  0.03860800  0.21277300  1
  O  O20  1  0.37319900  0.43832600  0.81029600  1
  O  O21  1  0.34981100  0.29924000  0.94580500  1
  O  O22  1  0.14407100  0.89988300  0.35033600  1
  O  O23  1  0.25547200  0.89785100  0.84903900  1
  O  O24  1  0.05559000  0.49927600  0.25053000  1
  O  O25  1  0.42747700  0.16116700  0.58867500  1
  O  O26  1  0.36620800  0.03834800  0.71088600  1
  O  O27  1  0.76580600  0.83901000  0.91068900  1
  O  O28  1  0.83686100  0.36172100  0.88809800  1
  O  O29  1  0.54384700  0.69990600  0.54991900  1
loop_
_geom_bond_atom_site_label_1
_geom_bond_atom_site_label_2
_geom_bond_distance
_geom_bond_site_symmetry_2
Al0 O3 1.847756 1_565
Al0 O16 1.852064 1_565
Al0 O5 1.876059 1_565
Al0 O7 1.997380 1_555
Al0 O1 2.011304 1_555
Al0 O9 2.023129 1_554
Al1 O2 1.873810 1_545
Al1 O19 1.877114 1_555
Al1 O5 1.879948 1_555
Al1 O13 1.992540 1_555
Al1 O24 1.993584 1_655
Al1 O10 1.996529 1_555
Al2 O0 1.875263 1_555
Al2 O11 1.877804 1_655
Al2 O13 1.879239 1_555
Al2 O4 1.994050 1_545
Al2 O22 1.995378 1_545
Al2 O2 1.995881 1_545
Al3 O24 1.869869 1_555
Al3 O1 1.874626 1_555
Al3 O10 1.874892 1_555
Al3 O3 1.980247 1_555
Al3 O19 1.988442 1_555
Al3 O5 1.993079 1_455
Al4 O25 1.877032 1_555
Al4 O14 1.878711 1_555
Al4 O0 1.878716 1_555
Al4 O18 1.993445 1_555
Al4 O29 1.994811 1_555
Al4 O15 1.996280 1_655
Al5 O6 1.874199 1_555
Al5 O17 1.877431 1_555
Al5 O18 1.878411 1_555
Al5 O26 1.994999 1_555
Al5 O25 1.995422 1_555
Al5 O8 1.995945 1_555
Al6 O15 1.876758 1_545
Al6 O22 1.876828 1_545
Al6 O4 1.878798 1_445
Al6 O14 1.991724 1_455
Al6 O0 1.995731 1_555
Al6 O11 1.996134 1_555
Al7 O19 1.869966 1_665
Al7 O22 1.871477 1_655
Al7 O2 1.877069 1_555
Al7 O13 1.986956 1_555
Al7 O24 1.996695 1_655
Al7 O10 2.000563 1_555
Al8 O10 1.870299 1_555
Al8 O1 1.870679 1_655
Al8 O7 1.880048 1_555
Al8 O3 1.947502 1_665
Al8 O5 1.986755 1_565
Al8 O19 1.993099 1_665
Al9 O8 1.874893 1_565
Al9 O25 1.878127 1_665
Al9 O14 1.879141 1_565
Al9 O18 1.995012 1_555
Al9 O15 1.995368 1_655
Al9 O29 1.996272 1_555
Al10 O21 1.852960 1_555
Al10 O28 1.870649 1_455
Al10 O20 1.873878 1_555
Al10 O12 1.976314 1_445
Al10 O23 1.999022 1_545
Al10 O27 2.001894 1_445
Al11 O8 1.875423 1_455
Al11 O26 1.877578 1_555
Al11 O12 1.878980 1_445
Al11 O20 1.990087 1_555
Al11 O6 1.994071 1_455
Al11 O17 1.995306 1_555
Al12 O6 1.873909 1_555
Al12 O20 1.877150 1_555
Al12 O28 1.877873 1_555
Al12 O23 1.990728 1_655
Al12 O12 1.997718 1_555
Al12 O27 2.001884 1_555
Al13 O11 1.875214 1_555
Al13 O24 1.876847 1_555
Al13 O13 1.878790 1_555
Al13 O4 1.991993 1_555
Al13 O22 1.994231 1_555
Al13 O2 1.994952 1_555
Al14 O17 1.876160 1_555
Al14 O29 1.878148 1_555
Al14 O18 1.878521 1_455
Al14 O26 1.991350 1_565
Al14 O25 1.995053 1_565
Al14 O8 1.995667 1_565
Al15 O23 1.871980 1_545
Al15 O27 1.875752 1_545
Al15 O9 1.880819 1_545
Al15 O21 1.960222 1_555
Al15 O16 1.965870 1_556
Al15 O28 1.997814 1_555
Al16 O29 1.875739 1_555
Al16 O15 1.877727 1_555
Al16 O4 1.878926 1_555
Al16 O0 1.995438 1_555
Al16 O14 1.995444 1_455
Al16 O11 1.996985 1_555
Al17 O23 1.870903 1_555
Al17 O26 1.877914 1_565
Al17 O12 1.879186 1_555
Al17 O17 1.989896 1_555
Al17 O20 1.991463 1_555
Al17 O6 1.996532 1_455
Al18 O27 1.870171 1_555
Al18 O9 1.870559 1_655
Al18 O7 1.891357 1_556
Al18 O21 1.976096 1_555
Al18 O16 1.986056 1_556
Al18 O28 1.991736 1_555
Cr0 O16 1.973220 1_455
Cr0 O21 1.974852 1_554
Cr0 O3 1.979964 1_555
Cr0 O9 2.024551 1_554
Cr0 O1 2.028772 1_555
Cr0 O7 2.033563 1_555
