# generated using pymatgen
data_V(PO3)2
_symmetry_space_group_name_H-M   'P 1'
_cell_length_a   7.33374557
_cell_length_b   7.33374557
_cell_length_c   8.22838339
_cell_angle_alpha   62.82891371
_cell_angle_beta   62.82891371
_cell_angle_gamma   67.17908767
_symmetry_Int_Tables_number   1
_chemical_formula_structural   V(PO3)2
_chemical_formula_sum   'V2 P4 O12'
_cell_volume   341.16011099
_cell_formula_units_Z   2
loop_
 _symmetry_equiv_pos_site_id
 _symmetry_equiv_pos_as_xyz
  1  'x, y, z'
loop_
 _atom_site_type_symbol
 _atom_site_label
 _atom_site_symmetry_multiplicity
 _atom_site_fract_x
 _atom_site_fract_y
 _atom_site_fract_z
 _atom_site_occupancy
  V  V0  1  0.76339700  0.23660300  0.25000000  1
  V  V1  1  0.23660300  0.76339700  0.75000000  1
  P  P0  1  0.48958200  0.06698100  0.74487700  1
  P  P1  1  0.93301900  0.51041800  0.75512300  1
  P  P2  1  0.51041800  0.93301900  0.25512300  1
  P  P3  1  0.06698100  0.48958200  0.24487700  1
  O  O0  1  0.62909900  0.09841300  0.53289100  1
  O  O1  1  0.90158700  0.37090100  0.96710900  1
  O  O2  1  0.37090100  0.90158700  0.46710900  1
  O  O3  1  0.09841300  0.62909900  0.03289100  1
  O  O4  1  0.66607400  0.06647100  0.18838600  1
  O  O5  1  0.93352900  0.33392600  0.31161400  1
  O  O6  1  0.33392600  0.93352900  0.81161400  1
  O  O7  1  0.06647100  0.66607400  0.68838600  1
  O  O8  1  0.99962200  0.00037800  0.25000000  1
  O  O9  1  0.00037800  0.99962200  0.75000000  1
  O  O10  1  0.55877000  0.44123000  0.25000000  1
  O  O11  1  0.44123000  0.55877000  0.75000000  1
loop_
_geom_bond_atom_site_label_1
_geom_bond_atom_site_label_2
_geom_bond_distance
_geom_bond_site_symmetry_2
O0 P0 1.525897 1_555
O0 V0 1.985298 1_555
O1 P1 1.525897 1_555
O1 V0 1.985298 1_556
O2 P2 1.525897 1_555
O2 V1 1.985298 1_555
O3 P3 1.525897 1_555
O3 V1 1.985298 1_554
O4 P2 1.538119 1_545
O4 V0 1.980461 1_555
O5 P3 1.538119 1_655
O5 V0 1.980461 1_555
O6 P0 1.538119 1_565
O6 V1 1.980461 1_555
O7 P1 1.538119 1_455
O7 V1 1.980461 1_555
O8 V0 1.916880 1_555
O9 V1 1.916880 1_555
O10 V0 1.660474 1_555
O11 V1 1.660474 1_555
