# generated using pymatgen
data_Li8Mn7Fe(BO3)8
_symmetry_space_group_name_H-M   'P 1'
_cell_length_a   5.25475400
_cell_length_b   8.29364163
_cell_length_c   12.12627578
_cell_angle_alpha   103.29875627
_cell_angle_beta   90.65501686
_cell_angle_gamma   90.73619990
_symmetry_Int_Tables_number   1
_chemical_formula_structural   Li8Mn7Fe(BO3)8
_chemical_formula_sum   'Li8 Mn7 Fe1 B8 O24'
_cell_volume   514.20544379
_cell_formula_units_Z   1
loop_
 _symmetry_equiv_pos_site_id
 _symmetry_equiv_pos_as_xyz
  1  'x, y, z'
loop_
 _atom_site_type_symbol
 _atom_site_label
 _atom_site_symmetry_multiplicity
 _atom_site_fract_x
 _atom_site_fract_y
 _atom_site_fract_z
 _atom_site_occupancy
  Li  Li0  1  0.34930300  0.71842800  0.02278800  1
  Li  Li1  1  0.15117400  0.78246000  0.22764800  1
  Li  Li2  1  0.84899800  0.21834700  0.27296200  1
  Li  Li3  1  0.34857300  0.71737500  0.52288400  1
  Li  Li4  1  0.64987700  0.28142000  0.47704500  1
  Li  Li5  1  0.15251400  0.77990200  0.72654800  1
  Li  Li6  1  0.84971100  0.21890400  0.77218200  1
  Li  Li7  1  0.65053400  0.28192800  0.97695900  1
  Mn  Mn0  1  0.16785400  0.41976200  0.09261800  1
  Mn  Mn1  1  0.33228200  0.08046500  0.15738100  1
  Mn  Mn2  1  0.66759000  0.91965000  0.34300900  1
  Mn  Mn3  1  0.83376800  0.58033600  0.40660600  1
  Mn  Mn4  1  0.33138000  0.08305500  0.65591400  1
  Mn  Mn5  1  0.66779400  0.92103400  0.84271100  1
  Mn  Mn6  1  0.83215500  0.58018700  0.90710600  1
  Fe  Fe0  1  0.16371700  0.42152700  0.59235800  1
  B  B0  1  0.83072400  0.90406900  0.08319700  1
  B  B1  1  0.66933500  0.59599600  0.16682800  1
  B  B2  1  0.33063500  0.40430600  0.33378700  1
  B  B3  1  0.16859300  0.09817000  0.41726100  1
  B  B4  1  0.83053100  0.90370100  0.58364000  1
  B  B5  1  0.67132000  0.59215700  0.66703400  1
  B  B6  1  0.32995600  0.40504300  0.83250500  1
  B  B7  1  0.16952400  0.09563800  0.91681400  1
  O  O0  1  0.08975800  0.87747400  0.08770800  1
  O  O1  1  0.31862000  0.18805300  0.00700600  1
  O  O2  1  0.78679500  0.48327300  0.08007900  1
  O  O3  1  0.41039200  0.62290100  0.16272700  1
  O  O4  1  0.81847200  0.68840200  0.25706300  1
  O  O5  1  0.28742600  0.98475300  0.33114800  1
  O  O6  1  0.71295900  0.01666300  0.17001900  1
  O  O7  1  0.18210000  0.31204500  0.24337700  1
  O  O8  1  0.58985100  0.37795600  0.33820800  1
  O  O9  1  0.21308000  0.51714200  0.42041600  1
  O  O10  1  0.68219900  0.81051900  0.49342700  1
  O  O11  1  0.90907600  0.12268700  0.41260400  1
  O  O12  1  0.08989700  0.87763700  0.58810000  1
  O  O13  1  0.31567000  0.19265200  0.50730900  1
  O  O14  1  0.79363500  0.47805700  0.58197900  1
  O  O15  1  0.41181600  0.61445900  0.66010500  1
  O  O16  1  0.81632800  0.68898300  0.75649300  1
  O  O17  1  0.28618900  0.98217200  0.83018700  1
  O  O18  1  0.71159700  0.01671100  0.66983700  1
  O  O19  1  0.18135900  0.31365800  0.74201700  1
  O  O20  1  0.58900000  0.37762300  0.83714400  1
  O  O21  1  0.21301700  0.51715300  0.91993100  1
  O  O22  1  0.68216300  0.81174800  0.99283400  1
  O  O23  1  0.91076000  0.12341400  0.91250000  1
loop_
_geom_bond_atom_site_label_1
_geom_bond_atom_site_label_2
_geom_bond_distance
_geom_bond_site_symmetry_2
Li0 O0 1.952641 1_555
Li0 O21 1.961151 1_554
Li0 O22 1.974682 1_554
Li0 O3 2.054977 1_555
Li1 O3 1.953944 1_555
Li1 O5 1.970404 1_555
Li1 O4 1.974695 1_455
Li1 O0 2.052795 1_555
Li2 O8 1.954934 1_555
Li2 O6 1.963532 1_555
Li2 O7 1.975864 1_655
Li2 O11 2.051527 1_555
Li3 O9 1.951598 1_555
Li3 O12 1.956304 1_555
Li3 O10 1.975920 1_555
Li3 O15 2.062977 1_555
Li4 O11 1.948330 1_555
Li4 O14 1.959871 1_555
Li4 O13 1.966380 1_555
Li4 O8 2.046804 1_555
Li5 O17 1.966377 1_555
Li5 O16 1.981827 1_455
Li5 O15 1.988220 1_555
Li5 O12 2.050405 1_555
Li6 O20 1.955537 1_555
Li6 O18 1.967152 1_555
Li6 O19 1.974868 1_655
Li6 O23 2.058963 1_555
Li7 O23 1.951160 1_555
Li7 O2 1.962904 1_556
Li7 O1 1.972572 1_556
Li7 O20 2.054766 1_555
Mn0 O2 2.089749 1_455
Mn0 O3 2.108694 1_555
Mn0 O1 2.130371 1_555
Mn0 O7 2.212641 1_555
Mn0 O21 2.424536 1_554
Mn1 O6 2.088646 1_555
Mn1 O0 2.106675 1_545
Mn1 O7 2.129657 1_555
Mn1 O1 2.207638 1_555
Mn1 O5 2.429364 1_545
Mn2 O5 2.088008 1_555
Mn2 O11 2.103529 1_565
Mn2 O4 2.128728 1_555
Mn2 O10 2.215895 1_555
Mn2 O6 2.426447 1_565
Mn3 O9 2.082099 1_655
Mn3 O8 2.104267 1_555
Mn3 O10 2.126227 1_555
Mn3 O4 2.201000 1_555
Mn3 O14 2.474292 1_555
Mn4 O18 2.094357 1_555
Mn4 O12 2.113043 1_545
Mn4 O19 2.123275 1_555
Mn4 O13 2.198272 1_555
Mn4 O17 2.458093 1_545
Mn5 O17 2.087044 1_555
Mn5 O23 2.104807 1_565
Mn5 O16 2.130194 1_555
Mn5 O22 2.213348 1_555
Mn5 O18 2.418431 1_565
Mn6 O21 2.088063 1_655
Mn6 O20 2.106903 1_555
Mn6 O22 2.128216 1_555
Mn6 O16 2.216607 1_555
Mn6 O2 2.425813 1_556
Fe0 O14 2.015552 1_455
Fe0 O15 2.062044 1_555
Fe0 O13 2.112232 1_555
Fe0 O19 2.201748 1_555
Fe0 O9 2.410635 1_555
B0 O0 1.384183 1_655
B0 O6 1.393142 1_565
B0 O22 1.405516 1_554
B1 O3 1.383864 1_555
B1 O2 1.392404 1_555
B1 O4 1.406400 1_555
B2 O8 1.384689 1_555
B2 O9 1.392225 1_555
B2 O7 1.405634 1_555
B3 O11 1.383783 1_455
B3 O5 1.394007 1_545
B3 O13 1.405409 1_555
B4 O12 1.385072 1_655
B4 O18 1.393154 1_565
B4 O10 1.406269 1_555
B5 O15 1.382668 1_555
B5 O14 1.397909 1_555
B5 O16 1.402459 1_555
B6 O20 1.385594 1_555
B6 O21 1.393602 1_555
B6 O19 1.403842 1_555
B7 O23 1.384438 1_455
B7 O17 1.392707 1_545
B7 O1 1.405973 1_556
