# generated using pymatgen
data_Li2TiNi2O5
_symmetry_space_group_name_H-M   'P 1'
_cell_length_a   7.78530265
_cell_length_b   7.78530265
_cell_length_c   5.11219150
_cell_angle_alpha   83.72914771
_cell_angle_beta   83.72914771
_cell_angle_gamma   141.88955840
_symmetry_Int_Tables_number   1
_chemical_formula_structural   Li2TiNi2O5
_chemical_formula_sum   'Li4 Ti2 Ni4 O10'
_cell_volume   180.21547537
_cell_formula_units_Z   2
loop_
 _symmetry_equiv_pos_site_id
 _symmetry_equiv_pos_as_xyz
  1  'x, y, z'
loop_
 _atom_site_type_symbol
 _atom_site_label
 _atom_site_symmetry_multiplicity
 _atom_site_fract_x
 _atom_site_fract_y
 _atom_site_fract_z
 _atom_site_occupancy
  Li  Li0  1  0.20041500  0.79958500  0.50000000  1
  Li  Li1  1  0.30066500  0.69933500  0.00000000  1
  Li  Li2  1  0.79985300  0.20014700  0.50000000  1
  Li  Li3  1  0.49615800  0.50384200  0.00000000  1
  Ti  Ti0  1  0.39249200  0.60750800  0.50000000  1
  Ti  Ti1  1  0.69625000  0.30375000  0.00000000  1
  Ni  Ni0  1  0.10013500  0.89986500  0.00000000  1
  Ni  Ni1  1  0.00085400  0.99914600  0.50000000  1
  Ni  Ni2  1  0.60170000  0.39830000  0.50000000  1
  Ni  Ni3  1  0.89981100  0.10018900  0.00000000  1
  O  O0  1  0.54925700  0.94498100  0.25051300  1
  O  O1  1  0.84914400  0.63592300  0.75879300  1
  O  O2  1  0.93042100  0.53343100  0.23079000  1
  O  O3  1  0.63728100  0.83388800  0.73076200  1
  O  O4  1  0.74486900  0.75130600  0.25955300  1
  O  O5  1  0.36407700  0.15085600  0.24120700  1
  O  O6  1  0.16611200  0.36271900  0.26923800  1
  O  O7  1  0.05501900  0.45074300  0.74948700  1
  O  O8  1  0.46656900  0.06957900  0.76921000  1
  O  O9  1  0.24869400  0.25513100  0.74044700  1
loop_
_geom_bond_atom_site_label_1
_geom_bond_atom_site_label_2
_geom_bond_distance
_geom_bond_site_symmetry_2
Li0 O1 2.051985 1_455
Li0 O5 2.051985 1_565
Li0 O7 2.091415 1_555
Li0 O0 2.091415 1_555
Li0 O2 2.237611 1_455
Li0 O8 2.237611 1_565
Li1 O0 2.072484 1_555
Li1 O7 2.072484 1_554
Li1 O2 2.105780 1_455
Li1 O8 2.105780 1_564
Li1 O6 2.106337 1_555
Li1 O3 2.106337 1_554
Li2 O7 2.092244 1_655
Li2 O0 2.092244 1_545
Li2 O6 2.093804 1_655
Li2 O3 2.093804 1_545
Li2 O8 2.103239 1_555
Li2 O2 2.103239 1_555
Li3 O3 2.039229 1_554
Li3 O6 2.039229 1_555
Li3 O4 2.114456 1_555
Li3 O9 2.114456 1_554
Li3 O1 2.160050 1_554
Li3 O5 2.160050 1_555
Ni0 O8 2.066113 1_564
Ni0 O2 2.066113 1_455
Ni0 O1 2.079074 1_454
Ni0 O5 2.079074 1_565
Ni0 O4 2.139459 1_455
Ni0 O9 2.139459 1_564
Ni1 O9 2.051282 1_565
Ni1 O4 2.051282 1_455
Ni1 O3 2.065689 1_455
Ni1 O6 2.065689 1_565
Ni1 O1 2.174229 1_455
Ni1 O5 2.174229 1_565
Ni2 O8 2.056154 1_555
Ni2 O2 2.056154 1_555
Ni2 O5 2.089755 1_555
Ni2 O1 2.089755 1_555
Ni2 O4 2.109144 1_555
Ni2 O9 2.109144 1_555
Ni3 O0 2.063359 1_545
Ni3 O7 2.063359 1_654
Ni3 O9 2.073722 1_654
Ni3 O4 2.073722 1_545
Ni3 O6 2.222594 1_655
Ni3 O3 2.222594 1_544
O0 Ti0 1.975100 1_555
O0 Ti1 2.149340 1_565
O1 Ti1 1.940044 1_556
O2 Ti1 1.927153 1_555
O3 Ti0 1.946691 1_555
O4 Ti0 2.102376 1_555
O5 Ti1 1.940044 1_555
O6 Ti0 1.946691 1_555
O7 Ti0 1.975100 1_555
O7 Ti1 2.149340 1_456
O8 Ti1 1.927153 1_556
O9 Ti0 2.102376 1_555
