# generated using pymatgen
data_Li6Fe5O12
_symmetry_space_group_name_H-M   'P 1'
_cell_length_a   5.07257362
_cell_length_b   5.07257362
_cell_length_c   9.52160693
_cell_angle_alpha   85.99016096
_cell_angle_beta   85.99016096
_cell_angle_gamma   116.53455563
_symmetry_Int_Tables_number   1
_chemical_formula_structural   Li6Fe5O12
_chemical_formula_sum   'Li6 Fe5 O12'
_cell_volume   217.24746115
_cell_formula_units_Z   1
loop_
 _symmetry_equiv_pos_site_id
 _symmetry_equiv_pos_as_xyz
  1  'x, y, z'
loop_
 _atom_site_type_symbol
 _atom_site_label
 _atom_site_symmetry_multiplicity
 _atom_site_fract_x
 _atom_site_fract_y
 _atom_site_fract_z
 _atom_site_occupancy
  Li  Li0  1  0.74812500  0.25187500  0.00000000  1
  Li  Li1  1  0.83753300  0.65589600  0.75525500  1
  Li  Li2  1  0.68045800  0.85921900  0.24064400  1
  Li  Li3  1  0.34410400  0.16246700  0.24474500  1
  Li  Li4  1  0.14078100  0.31954200  0.75935600  1
  Li  Li5  1  0.07838000  0.92162000  0.00000000  1
  Fe  Fe0  1  0.93036200  0.06963800  0.50000000  1
  Fe  Fe1  1  0.48989200  0.99326600  0.75276700  1
  Fe  Fe2  1  0.00673400  0.51010800  0.24723300  1
  Fe  Fe3  1  0.57578500  0.42421500  0.50000000  1
  Fe  Fe4  1  0.42474700  0.57525300  0.00000000  1
  O  O0  1  0.82149300  0.31579200  0.63474400  1
  O  O1  1  0.68420800  0.17850700  0.36525600  1
  O  O2  1  0.92633700  0.76445500  0.37337700  1
  O  O3  1  0.71061600  0.54991600  0.11846600  1
  O  O4  1  0.74924000  0.94272500  0.87789800  1
  O  O5  1  0.45008400  0.28938400  0.88153400  1
  O  O6  1  0.59466900  0.73748200  0.61730300  1
  O  O7  1  0.23554500  0.07366300  0.62662300  1
  O  O8  1  0.26251800  0.40533100  0.38269700  1
  O  O9  1  0.34104500  0.82799000  0.13622000  1
  O  O10  1  0.05727500  0.25076000  0.12210200  1
  O  O11  1  0.17201000  0.65895500  0.86378000  1
loop_
_geom_bond_atom_site_label_1
_geom_bond_atom_site_label_2
_geom_bond_distance
_geom_bond_site_symmetry_2
Li0 O3 2.014868 1_555
Li0 O5 2.014868 1_554
Li0 O10 2.018138 1_655
Li0 O4 2.018138 1_544
Li0 O11 2.416182 1_654
Li0 O9 2.416182 1_545
Li1 O6 2.005026 1_555
Li1 O11 2.042201 1_655
Li1 O4 2.104248 1_555
Li1 O0 2.112842 1_555
Li1 O5 2.203866 1_555
Li1 O7 2.352770 1_665
Li2 O9 1.998923 1_555
Li2 O2 2.013731 1_555
Li2 O1 2.067774 1_565
Li2 O3 2.069592 1_555
Li2 O10 2.205686 1_665
Li2 O8 2.535196 1_555
Li3 O8 2.005026 1_555
Li3 O9 2.042201 1_545
Li3 O10 2.104248 1_555
Li3 O1 2.112842 1_555
Li3 O3 2.203866 1_555
Li3 O2 2.352770 1_445
Li4 O11 1.998923 1_555
Li4 O7 2.013731 1_555
Li4 O0 2.067774 1_455
Li4 O5 2.069592 1_555
Li4 O4 2.205686 1_445
Li4 O6 2.535196 1_555
Li5 O9 2.098586 1_555
Li5 O11 2.098586 1_554
Li5 O4 2.136446 1_454
Li5 O10 2.136446 1_565
Li5 O3 2.138485 1_455
Li5 O5 2.138485 1_564
Fe0 O6 1.973153 1_545
Fe0 O8 1.973153 1_655
Fe0 O2 2.021572 1_545
Fe0 O7 2.021572 1_655
Fe0 O1 2.061832 1_555
Fe0 O0 2.061832 1_555
Fe1 O11 1.913357 1_555
Fe1 O4 1.921931 1_555
Fe1 O0 1.946423 1_565
Fe1 O7 1.972785 1_565
Fe1 O5 2.072247 1_565
Fe1 O6 2.093785 1_555
Fe2 O9 1.913357 1_555
Fe2 O10 1.921931 1_555
Fe2 O1 1.946423 1_455
Fe2 O2 1.972785 1_455
Fe2 O3 2.072247 1_455
Fe2 O8 2.093785 1_555
Fe3 O8 1.977118 1_555
Fe3 O6 1.977118 1_555
Fe3 O1 2.058975 1_555
Fe3 O0 2.058975 1_555
Fe3 O2 2.064315 1_555
Fe3 O7 2.064315 1_555
Fe4 O5 1.940783 1_554
Fe4 O3 1.940783 1_555
Fe4 O9 2.036674 1_555
Fe4 O11 2.036674 1_554
Fe4 O10 2.055121 1_555
Fe4 O4 2.055121 1_554
