# generated using pymatgen
data_Li4V2SiGeO10
_symmetry_space_group_name_H-M   'P 1'
_cell_length_a   4.55869400
_cell_length_b   9.20167400
_cell_length_c   9.20622000
_cell_angle_alpha   90.00000000
_cell_angle_beta   90.00000000
_cell_angle_gamma   90.00000000
_symmetry_Int_Tables_number   1
_chemical_formula_structural   Li4V2SiGeO10
_chemical_formula_sum   'Li8 V4 Si2 Ge2 O20'
_cell_volume   386.17898187
_cell_formula_units_Z   2
loop_
 _symmetry_equiv_pos_site_id
 _symmetry_equiv_pos_as_xyz
  1  'x, y, z'
loop_
 _atom_site_type_symbol
 _atom_site_label
 _atom_site_symmetry_multiplicity
 _atom_site_fract_x
 _atom_site_fract_y
 _atom_site_fract_z
 _atom_site_occupancy
  Li  Li0  1  0.00000000  0.00000000  0.00000000  1
  Li  Li1  1  0.00000000  0.50000000  0.00000000  1
  Li  Li2  1  0.00000000  0.75000000  0.25362800  1
  Li  Li3  1  0.00000000  0.00000000  0.50000000  1
  Li  Li4  1  0.00000000  0.25000000  0.25362800  1
  Li  Li5  1  0.00000000  0.50000000  0.50000000  1
  Li  Li6  1  0.00000000  0.75000000  0.74637200  1
  Li  Li7  1  0.00000000  0.25000000  0.74637200  1
  V  V0  1  0.59010900  0.00000000  0.25433900  1
  V  V1  1  0.40989100  0.50000000  0.25433900  1
  V  V2  1  0.40989100  0.00000000  0.74566100  1
  V  V3  1  0.59010900  0.50000000  0.74566100  1
  Si  Si0  1  0.50000000  0.75000000  0.50000000  1
  Si  Si1  1  0.50000000  0.25000000  0.50000000  1
  Ge  Ge0  1  0.50000000  0.75000000  0.00000000  1
  Ge  Ge1  1  0.50000000  0.25000000  0.00000000  1
  O  O0  1  0.22186600  0.00000000  0.25142400  1
  O  O1  1  0.73527600  0.85683800  0.10930900  1
  O  O2  1  0.26472400  0.64316200  0.10930900  1
  O  O3  1  0.71717800  0.85252900  0.39952200  1
  O  O4  1  0.26472400  0.35683800  0.10930900  1
  O  O5  1  0.77813400  0.50000000  0.25142400  1
  O  O6  1  0.28282200  0.64747100  0.39952200  1
  O  O7  1  0.28282200  0.85252900  0.60047800  1
  O  O8  1  0.77813400  0.00000000  0.74857600  1
  O  O9  1  0.73527600  0.14316200  0.10930900  1
  O  O10  1  0.71717800  0.64747100  0.60047800  1
  O  O11  1  0.28282200  0.35252900  0.39952200  1
  O  O12  1  0.26472400  0.85683800  0.89069100  1
  O  O13  1  0.71717800  0.14747100  0.39952200  1
  O  O14  1  0.71717800  0.35252900  0.60047800  1
  O  O15  1  0.22186600  0.50000000  0.74857600  1
  O  O16  1  0.73527600  0.64316200  0.89069100  1
  O  O17  1  0.28282200  0.14747100  0.60047800  1
  O  O18  1  0.73527600  0.35683800  0.89069100  1
  O  O19  1  0.26472400  0.14316200  0.89069100  1
loop_
_geom_bond_atom_site_label_1
_geom_bond_atom_site_label_2
_geom_bond_distance
_geom_bond_site_symmetry_2
Li0 O1 2.050463 1_445
Li0 O9 2.050463 1_455
Li0 O19 2.050463 1_554
Li0 O12 2.050463 1_544
Li0 O0 2.525993 1_555
Li0 O8 2.525993 1_454
Li1 O4 2.050463 1_555
Li1 O18 2.050463 1_454
Li1 O16 2.050463 1_454
Li1 O2 2.050463 1_555
Li1 O5 2.525993 1_455
Li1 O15 2.525993 1_554
Li2 O1 2.046481 1_455
Li2 O2 2.046481 1_555
Li2 O6 2.087192 1_555
Li2 O3 2.087192 1_455
Li2 O0 2.513027 1_565
Li2 O5 2.513027 1_455
Li3 O17 2.087906 1_555
Li3 O7 2.087906 1_545
Li3 O13 2.087906 1_455
Li3 O3 2.087906 1_445
Li3 O0 2.501989 1_555
Li3 O8 2.501989 1_455
Li4 O4 2.046481 1_555
Li4 O9 2.046481 1_455
Li4 O11 2.087192 1_555
Li4 O13 2.087192 1_455
Li4 O0 2.513027 1_555
Li4 O5 2.513027 1_455
Li5 O6 2.087906 1_555
Li5 O10 2.087906 1_455
Li5 O14 2.087906 1_455
Li5 O11 2.087906 1_555
Li5 O5 2.501989 1_455
Li5 O15 2.501989 1_555
Li6 O16 2.046481 1_455
Li6 O12 2.046481 1_555
Li6 O7 2.087192 1_555
Li6 O10 2.087192 1_455
Li6 O8 2.513027 1_465
Li6 O15 2.513027 1_555
Li7 O18 2.046481 1_455
Li7 O19 2.046481 1_555
Li7 O14 2.087192 1_455
Li7 O17 2.087192 1_555
Li7 O8 2.513027 1_455
Li7 O15 2.513027 1_555
Ge0 O2 1.769043 1_555
Ge0 O12 1.769043 1_554
Ge0 O16 1.769043 1_554
Ge0 O1 1.769043 1_555
Ge1 O4 1.769043 1_555
Ge1 O18 1.769043 1_554
Ge1 O19 1.769043 1_554
Ge1 O9 1.769043 1_555
O0 V0 1.678922 1_555
O1 V0 1.988970 1_565
O2 V1 1.988970 1_555
O3 Si0 1.651041 1_555
O3 V0 1.990832 1_565
O4 V1 1.988970 1_555
O5 V1 1.678922 1_555
O6 Si0 1.651041 1_555
O6 V1 1.990832 1_555
O7 Si0 1.651041 1_555
O7 V2 1.990832 1_565
O8 V2 1.678922 1_555
O9 V0 1.988970 1_555
O10 Si0 1.651041 1_555
O10 V3 1.990832 1_555
O11 Si1 1.651041 1_555
O11 V1 1.990832 1_555
O12 V2 1.988970 1_565
O13 Si1 1.651041 1_555
O13 V0 1.990832 1_555
O14 Si1 1.651041 1_555
O14 V3 1.990832 1_555
O15 V3 1.678922 1_555
O16 V3 1.988970 1_555
O17 Si1 1.651041 1_555
O17 V2 1.990832 1_555
O18 V3 1.988970 1_555
O19 V2 1.988970 1_555
