# generated using pymatgen
data_LiCuCO3
_symmetry_space_group_name_H-M   'P 1'
_cell_length_a   7.92516500
_cell_length_b   5.26520800
_cell_length_c   7.27686861
_cell_angle_alpha   65.86892800
_cell_angle_beta   90.00000000
_cell_angle_gamma   90.00000000
_symmetry_Int_Tables_number   1
_chemical_formula_structural   LiCuCO3
_chemical_formula_sum   'Li4 Cu4 C4 O12'
_cell_volume   277.11168593
_cell_formula_units_Z   4
loop_
 _symmetry_equiv_pos_site_id
 _symmetry_equiv_pos_as_xyz
  1  'x, y, z'
loop_
 _atom_site_type_symbol
 _atom_site_label
 _atom_site_symmetry_multiplicity
 _atom_site_fract_x
 _atom_site_fract_y
 _atom_site_fract_z
 _atom_site_occupancy
  Li  Li0  1  0.24071700  0.14262700  0.24714300  1
  Li  Li1  1  0.74071700  0.85737300  0.25285700  1
  Li  Li2  1  0.25928300  0.14262700  0.74714300  1
  Li  Li3  1  0.75928300  0.85737300  0.75285700  1
  Cu  Cu0  1  0.48441100  0.70424200  0.55240200  1
  Cu  Cu1  1  0.98441100  0.29575800  0.94759800  1
  Cu  Cu2  1  0.01558900  0.70424200  0.05240200  1
  Cu  Cu3  1  0.51558900  0.29575800  0.44759800  1
  C  C0  1  0.14033700  0.75190500  0.67471900  1
  C  C1  1  0.64033700  0.24809500  0.82528100  1
  C  C2  1  0.35966300  0.75190500  0.17471900  1
  C  C3  1  0.85966300  0.24809500  0.32528100  1
  O  O0  1  0.25824900  0.90773400  0.55888600  1
  O  O1  1  0.96959900  0.12926300  0.25174600  1
  O  O2  1  0.13607200  0.48558400  0.72225100  1
  O  O3  1  0.63607200  0.51441600  0.77774900  1
  O  O4  1  0.75824900  0.09226600  0.94111400  1
  O  O5  1  0.53040100  0.12926300  0.75174600  1
  O  O6  1  0.46959900  0.87073700  0.24825400  1
  O  O7  1  0.24175100  0.90773400  0.05888600  1
  O  O8  1  0.36392800  0.48558400  0.22225100  1
  O  O9  1  0.86392800  0.51441600  0.27774900  1
  O  O10  1  0.03040100  0.87073700  0.74825400  1
  O  O11  1  0.74175100  0.09226600  0.44111400  1
loop_
_geom_bond_atom_site_label_1
_geom_bond_atom_site_label_2
_geom_bond_distance
_geom_bond_site_symmetry_2
Li0 O8 1.994882 1_555
Li0 O0 2.097862 1_545
Li0 O1 2.149619 1_455
Li0 O7 2.188983 1_545
Li0 O6 2.308743 1_545
Li1 O9 1.994882 1_555
Li1 O4 2.097862 1_564
Li1 O6 2.149619 1_555
Li1 O11 2.188983 1_565
Li1 O1 2.308743 1_565
Li2 O2 1.994882 1_555
Li2 O7 2.097862 1_546
Li2 O5 2.149619 1_555
Li2 O0 2.188983 1_545
Li2 O10 2.308743 1_545
Li3 O3 1.994882 1_555
Li3 O11 2.097862 1_565
Li3 O10 2.149619 1_655
Li3 O4 2.188983 1_565
Li3 O5 2.308743 1_565
Cu0 O3 1.947439 1_555
Cu0 O6 2.023440 1_555
Cu0 O0 2.098598 1_555
Cu1 O2 1.947439 1_655
Cu1 O1 2.023440 1_556
Cu1 O4 2.098598 1_555
Cu2 O9 1.947439 1_455
Cu2 O10 2.023440 1_554
Cu2 O7 2.098598 1_555
Cu3 O8 1.947439 1_555
Cu3 O5 2.023440 1_555
Cu3 O11 2.098598 1_555
C0 O2 1.300182 1_555
C0 O0 1.300549 1_555
C0 O10 1.307919 1_555
C1 O3 1.300182 1_555
C1 O4 1.300549 1_555
C1 O5 1.307919 1_555
C2 O8 1.300182 1_555
C2 O7 1.300549 1_555
C2 O6 1.307919 1_555
C3 O9 1.300182 1_555
C3 O11 1.300549 1_555
C3 O1 1.307919 1_555
