# generated using pymatgen
data_Mg2Mn3O8
_symmetry_space_group_name_H-M   'P 1'
_cell_length_a   5.82429502
_cell_length_b   5.82429502
_cell_length_c   4.80445645
_cell_angle_alpha   72.93029128
_cell_angle_beta   107.06970872
_cell_angle_gamma   121.61605819
_symmetry_Int_Tables_number   1
_chemical_formula_structural   Mg2Mn3O8
_chemical_formula_sum   'Mg2 Mn3 O8'
_cell_volume   130.70858490
_cell_formula_units_Z   1
loop_
 _symmetry_equiv_pos_site_id
 _symmetry_equiv_pos_as_xyz
  1  'x, y, z'
loop_
 _atom_site_type_symbol
 _atom_site_label
 _atom_site_symmetry_multiplicity
 _atom_site_fract_x
 _atom_site_fract_y
 _atom_site_fract_z
 _atom_site_occupancy
  Mg  Mg0  1  0.27709869  0.72290031  0.34712375  1
  Mg  Mg1  1  0.72290131  0.27709969  0.65287625  1
  Mn  Mn0  1  0.00000000  -0.00000000  0.50000000  1
  Mn  Mn1  1  0.26077344  0.26077344  0.00000000  1
  Mn  Mn2  1  0.73922656  0.73922656  0.00000000  1
  O  O0  1  0.10474366  0.89525634  0.91014955  1
  O  O1  1  0.11383774  0.33964292  0.60009722  1
  O  O2  1  0.66035708  0.88616226  0.60009722  1
  O  O3  1  0.39241941  0.60758059  0.06843129  1
  O  O4  1  0.60758059  0.39241941  0.93156871  1
  O  O5  1  0.33964292  0.11383774  0.39990278  1
  O  O6  1  0.88616226  0.66035708  0.39990278  1
  O  O7  1  0.89525634  0.10474366  0.08985045  1
loop_
_geom_bond_atom_site_label_1
_geom_bond_atom_site_label_2
_geom_bond_distance
_geom_bond_site_symmetry_2
Mg0 O3 2.055237 1_555
Mg0 O1 2.055348 1_555
Mg0 O2 2.055352 1_555
Mg0 O6 2.190097 1_455
Mg0 O5 2.190101 1_565
Mg0 O0 2.237194 1_554
Mg1 O4 2.055237 1_555
Mg1 O6 2.055348 1_555
Mg1 O5 2.055352 1_555
Mg1 O1 2.190097 1_655
Mg1 O2 2.190101 1_545
Mg1 O7 2.237194 1_556
Mn0 O2 1.892157 1_445
Mn0 O6 1.892157 1_445
Mn0 O5 1.892157 1_555
Mn0 O1 1.892157 1_555
Mn0 O7 1.898975 1_455
Mn0 O0 1.898975 1_545
Mn1 O4 1.842309 1_554
Mn1 O3 1.842309 1_555
Mn1 O5 1.887748 1_555
Mn1 O1 1.887748 1_554
Mn1 O7 1.955802 1_455
Mn1 O0 1.955802 1_544
Mn2 O3 1.842309 1_555
Mn2 O4 1.842309 1_554
Mn2 O6 1.887748 1_555
Mn2 O2 1.887748 1_554
Mn2 O7 1.955802 1_565
Mn2 O0 1.955802 1_654
