# generated using pymatgen
data_Li8Mn15CrO32
_symmetry_space_group_name_H-M   'P 1'
_cell_length_a   8.48051453
_cell_length_b   10.34473721
_cell_length_c   8.28059616
_cell_angle_alpha   66.83674544
_cell_angle_beta   89.46207960
_cell_angle_gamma   114.05516053
_symmetry_Int_Tables_number   1
_chemical_formula_structural   Li8Mn15CrO32
_chemical_formula_sum   'Li8 Mn15 Cr1 O32'
_cell_volume   597.28892454
_cell_formula_units_Z   1
loop_
 _symmetry_equiv_pos_site_id
 _symmetry_equiv_pos_as_xyz
  1  'x, y, z'
loop_
 _atom_site_type_symbol
 _atom_site_label
 _atom_site_symmetry_multiplicity
 _atom_site_fract_x
 _atom_site_fract_y
 _atom_site_fract_z
 _atom_site_occupancy
  Li  Li0  1  0.94099100  0.12274900  0.81529500  1
  Li  Li1  1  0.44303100  0.12253200  0.31518700  1
  Li  Li2  1  0.30921700  0.37734400  0.43578000  1
  Li  Li3  1  0.81071100  0.38130000  0.93552100  1
  Li  Li4  1  0.18794100  0.61373900  0.06646800  1
  Li  Li5  1  0.69002700  0.61979500  0.56348600  1
  Li  Li6  1  0.55873800  0.87730300  0.68586100  1
  Li  Li7  1  0.06188700  0.88330000  0.18112000  1
  Mn  Mn0  1  0.24990700  0.99945600  0.75356300  1
  Mn  Mn1  1  0.49618900  0.99805600  0.00086700  1
  Mn  Mn2  1  0.74986600  0.00293800  0.24814500  1
  Mn  Mn3  1  0.38813500  0.25940400  0.86873500  1
  Mn  Mn4  1  0.87861500  0.25243200  0.37460700  1
  Mn  Mn5  1  0.62744200  0.25529600  0.62464800  1
  Mn  Mn6  1  0.12514300  0.25056400  0.12613200  1
  Mn  Mn7  1  0.24936600  0.49724700  0.75102300  1
  Mn  Mn8  1  0.00134100  0.50211500  0.49567400  1
  Mn  Mn9  1  0.75590300  0.50292400  0.24776600  1
  Mn  Mn10  1  0.50191400  0.49742600  0.00043100  1
  Mn  Mn11  1  0.87257700  0.74738500  0.87476000  1
  Mn  Mn12  1  0.37245700  0.74259200  0.37602100  1
  Mn  Mn13  1  0.11768500  0.74514300  0.62665000  1
  Mn  Mn14  1  0.61596700  0.74261700  0.12879200  1
  Cr  Cr0  1  0.99818800  0.99935600  0.50171700  1
  O  O0  1  0.99287000  0.02162300  0.24749800  1
  O  O1  1  0.76864300  0.02037700  0.47813700  1
  O  O2  1  0.47972600  0.99895900  0.76917100  1
  O  O3  1  0.27303500  0.02753700  0.97744900  1
  O  O4  1  0.09888300  0.23502700  0.37780600  1
  O  O5  1  0.87877400  0.25516800  0.14625300  1
  O  O6  1  0.60990000  0.25071800  0.86037700  1
  O  O7  1  0.39525300  0.25685000  0.63828100  1
  O  O8  1  0.15874100  0.26761600  0.87303100  1
  O  O9  1  0.39168600  0.27168500  0.09893500  1
  O  O10  1  0.65340700  0.26594900  0.38241100  1
  O  O11  1  0.87465800  0.27204900  0.60564800  1
  O  O12  1  0.49915300  0.48653400  0.77498200  1
  O  O13  1  0.99749500  0.48009200  0.27643300  1
  O  O14  1  0.26510200  0.48303200  0.99564300  1
  O  O15  1  0.78243000  0.51098000  0.47275200  1
  O  O16  1  0.23798000  0.51323900  0.50580900  1
  O  O17  1  0.74059900  0.51697000  0.00469700  1
  O  O18  1  0.00458900  0.51984200  0.71884400  1
  O  O19  1  0.50750000  0.51643100  0.22289200  1
  O  O20  1  0.84912600  0.73966100  0.11326800  1
  O  O21  1  0.34528100  0.73248900  0.61979400  1
  O  O22  1  0.63055600  0.73371500  0.89450900  1
  O  O23  1  0.13552000  0.73629600  0.39119800  1
  O  O24  1  0.09535800  0.73824500  0.86210500  1
  O  O25  1  0.89464200  0.76036200  0.63262000  1
  O  O26  1  0.38949700  0.74472500  0.14382700  1
  O  O27  1  0.59841800  0.74013500  0.36222500  1
  O  O28  1  0.72480000  0.97362300  0.02538800  1
  O  O29  1  0.00279000  0.97526100  0.75567000  1
  O  O30  1  0.22702400  0.97510100  0.52592800  1
  O  O31  1  0.49922500  0.97293100  0.25092300  1
loop_
_geom_bond_atom_site_label_1
_geom_bond_atom_site_label_2
_geom_bond_distance
_geom_bond_site_symmetry_2
Li0 O29 2.021363 1_645
Li0 O8 2.051492 1_655
Li0 O28 2.071419 1_546
Li0 O11 2.081550 1_555
Li1 O31 2.037070 1_545
Li1 O9 2.040982 1_555
Li1 O10 2.050483 1_555
Li1 O30 2.072568 1_545
Li2 O19 1.995476 1_555
Li2 O16 2.001150 1_555
Li2 O4 2.002718 1_555
Li2 O7 2.004472 1_555
Li3 O6 1.979353 1_555
Li3 O5 1.980490 1_556
Li3 O17 1.989408 1_556
Li3 O18 1.994288 1_655
Li4 O13 1.943877 1_455
Li4 O14 1.984527 1_554
Li4 O26 1.995832 1_555
Li4 O24 2.067301 1_554
Li5 O12 1.953459 1_555
Li5 O15 1.954250 1_555
Li5 O25 2.017367 1_555
Li5 O27 2.027640 1_555
Li6 O2 1.967357 1_555
Li6 O1 2.027278 1_565
Li6 O21 2.067115 1_555
Li6 O22 2.073808 1_555
Li7 O0 1.996918 1_465
Li7 O3 2.015575 1_564
Li7 O20 2.066235 1_455
Li7 O23 2.107610 1_555
Mn0 O2 1.956436 1_555
Mn0 O3 1.985923 1_565
Mn0 O30 1.998701 1_555
Mn0 O29 2.005763 1_555
Mn0 O7 2.196148 1_565
Mn0 O24 2.237702 1_555
Mn1 O2 1.921595 1_554
Mn1 O31 1.984622 1_555
Mn1 O3 2.035411 1_564
Mn1 O28 2.056774 1_555
Mn1 O6 2.155666 1_564
Mn1 O26 2.166575 1_555
Mn2 O28 1.983539 1_545
Mn2 O1 1.984307 1_555
Mn2 O0 1.989604 1_555
Mn2 O31 2.017543 1_545
Mn2 O5 2.154187 1_555
Mn2 O27 2.245703 1_545
Mn3 O7 1.919567 1_555
Mn3 O6 1.920947 1_555
Mn3 O12 1.938451 1_555
Mn3 O9 1.959361 1_556
Mn3 O3 1.972961 1_555
Mn3 O8 1.982117 1_555
Mn4 O5 1.879934 1_555
Mn4 O13 1.940748 1_555
Mn4 O4 1.947782 1_655
Mn4 O10 1.973290 1_555
Mn4 O1 1.976915 1_555
Mn4 O11 2.003062 1_555
Mn5 O6 1.936664 1_555
Mn5 O10 1.970318 1_555
Mn5 O7 1.978218 1_555
Mn5 O11 2.031337 1_555
Mn5 O2 2.190979 1_545
Mn5 O15 2.196162 1_555
Mn6 O0 1.953939 1_455
Mn6 O14 1.991037 1_554
Mn6 O4 2.029070 1_555
Mn6 O8 2.040039 1_554
Mn6 O5 2.115699 1_455
Mn6 O9 2.181070 1_555
Mn7 O8 1.965522 1_555
Mn7 O16 1.977911 1_555
Mn7 O14 1.982228 1_555
Mn7 O21 2.013404 1_555
Mn7 O12 2.172765 1_555
Mn7 O18 2.188988 1_555
Mn8 O15 1.903330 1_455
Mn8 O13 1.915528 1_455
Mn8 O18 1.926878 1_555
Mn8 O11 1.959561 1_455
Mn8 O16 1.967259 1_555
Mn8 O23 1.999357 1_555
Mn9 O15 1.908696 1_555
Mn9 O17 1.969605 1_555
Mn9 O10 2.025501 1_555
Mn9 O20 2.030336 1_555
Mn9 O13 2.160866 1_555
Mn9 O19 2.173733 1_555
Mn10 O12 1.913774 1_554
Mn10 O9 1.923546 1_555
Mn10 O19 1.926973 1_555
Mn10 O17 1.952621 1_555
Mn10 O14 1.954307 1_554
Mn10 O22 2.013890 1_554
Mn11 O24 1.933668 1_655
Mn11 O29 1.943562 1_655
Mn11 O20 1.949882 1_556
Mn11 O25 1.958070 1_555
Mn11 O17 1.968947 1_556
Mn11 O22 1.999558 1_555
Mn12 O26 1.917543 1_555
Mn12 O27 1.929676 1_555
Mn12 O16 1.962133 1_555
Mn12 O31 1.963532 1_555
Mn12 O23 1.984854 1_555
Mn12 O21 1.986048 1_555
Mn13 O18 1.923251 1_555
Mn13 O24 1.927409 1_555
Mn13 O30 1.959781 1_555
Mn13 O25 1.962706 1_455
Mn13 O21 1.988851 1_555
Mn13 O23 1.994653 1_555
Mn14 O27 1.926551 1_555
Mn14 O19 1.930208 1_555
Mn14 O26 1.932977 1_555
Mn14 O28 1.967999 1_555
Mn14 O22 1.983110 1_554
Mn14 O20 1.993695 1_555
Cr0 O4 2.010981 1_665
Cr0 O29 2.020614 1_655
Cr0 O0 2.028609 1_565
Cr0 O25 2.040206 1_555
Cr0 O1 2.047860 1_565
Cr0 O30 2.057657 1_655
