# generated using pymatgen
data_Li8(NiO2)11
_symmetry_space_group_name_H-M   'P 1'
_cell_length_a   7.47880028
_cell_length_b   7.66748448
_cell_length_c   14.01238405
_cell_angle_alpha   84.04039372
_cell_angle_beta   84.38809216
_cell_angle_gamma   68.80664466
_symmetry_Int_Tables_number   1
_chemical_formula_structural   Li8(NiO2)11
_chemical_formula_sum   'Li16 Ni22 O44'
_cell_volume   743.55118898
_cell_formula_units_Z   2
loop_
 _symmetry_equiv_pos_site_id
 _symmetry_equiv_pos_as_xyz
  1  'x, y, z'
loop_
 _atom_site_type_symbol
 _atom_site_label
 _atom_site_symmetry_multiplicity
 _atom_site_fract_x
 _atom_site_fract_y
 _atom_site_fract_z
 _atom_site_occupancy
  Li  Li0  1  0.86878500  0.80654000  0.40718700  1
  Li  Li1  1  0.68683900  0.90004500  0.94792300  1
  Li  Li2  1  0.90212500  0.55355200  0.27737400  1
  Li  Li3  1  0.96391900  0.27146500  0.13052100  1
  Li  Li4  1  0.78261800  0.36680500  0.68278400  1
  Li  Li5  1  0.49077200  0.99596800  0.50195900  1
  Li  Li6  1  0.82804900  0.09000300  0.54710600  1
  Li  Li7  1  0.37136700  0.81405500  0.90627500  1
  Li  Li8  1  0.57367000  0.47051200  0.23561700  1
  Li  Li9  1  0.40105100  0.55159300  0.77687200  1
  Li  Li10  1  0.63010100  0.18144400  0.08588600  1
  Li  Li11  1  0.44242600  0.27740600  0.63597900  1
  Li  Li12  1  0.19575300  0.89811400  0.44920600  1
  Li  Li13  1  0.00773600  0.00083300  0.99701700  1
  Li  Li14  1  0.27265300  0.36785800  0.18220000  1
  Li  Li15  1  0.07886200  0.46666400  0.73443100  1
  Ni  Ni0  1  0.93399300  0.90842100  0.20500700  1
  Ni  Ni1  1  0.75192500  0.99575300  0.75088200  1
  Ni  Ni2  1  0.97572500  0.64043300  0.07010300  1
  Ni  Ni3  1  0.79589700  0.72807100  0.61018600  1
  Ni  Ni4  1  0.84156800  0.45076800  0.47769900  1
  Ni  Ni5  1  0.88529100  0.18136100  0.33825500  1
  Ni  Ni6  1  0.70531600  0.27250500  0.88466700  1
  Ni  Ni7  1  0.61142900  0.82099400  0.15764100  1
  Ni  Ni8  1  0.43319100  0.91138900  0.70275300  1
  Ni  Ni9  1  0.65856100  0.54298800  0.02489000  1
  Ni  Ni10  1  0.48063900  0.63330500  0.56999900  1
  Ni  Ni11  1  0.52138300  0.36970600  0.43073300  1
  Ni  Ni12  1  0.33781800  0.45163900  0.97623900  1
  Ni  Ni13  1  0.25142800  0.99918100  0.24913500  1
  Ni  Ni14  1  0.57136000  0.08959700  0.29851600  1
  Ni  Ni15  1  0.38786100  0.17895500  0.84044300  1
  Ni  Ni16  1  0.29238900  0.72771600  0.11166100  1
  Ni  Ni17  1  0.11382200  0.81854100  0.66030000  1
  Ni  Ni18  1  0.15912600  0.54803400  0.52645600  1
  Ni  Ni19  1  0.20266800  0.27263900  0.38797800  1
  Ni  Ni20  1  0.01938700  0.36842200  0.93120400  1
  Ni  Ni21  1  0.07215800  0.09070600  0.79560700  1
  O  O0  1  0.98391400  0.80367400  0.53698600  1
  O  O1  1  0.91161900  0.74644300  0.72124500  1
  O  O2  1  0.85059300  0.63196600  0.96426400  1
  O  O3  1  0.96152000  0.48156300  0.59666100  1
  O  O4  1  0.90238900  0.33641300  0.80986800  1
  O  O5  1  0.80631300  0.89191700  0.08823300  1
  O  O6  1  0.62589000  0.97743900  0.62518000  1
  O  O7  1  0.95009100  0.07157600  0.68473500  1
  O  O8  1  0.74399800  0.84418200  0.27965600  1
  O  O9  1  0.54956200  0.93131300  0.81944500  1
  O  O10  1  0.87987700  0.02602700  0.87088500  1
  O  O11  1  0.78963700  0.56778000  0.14673800  1
  O  O12  1  0.69004100  0.71492000  0.49827400  1
  O  O13  1  0.60782100  0.64218600  0.67613200  1
  O  O14  1  0.72043600  0.42693700  0.35575800  1
  O  O15  1  0.81600100  0.28857200  0.01496000  1
  O  O16  1  0.52732500  0.51971800  0.90375600  1
  O  O17  1  0.65469400  0.37278700  0.54947900  1
  O  O18  1  0.76131400  0.17370100  0.22858100  1
  O  O19  1  0.57559300  0.24830800  0.76369700  1
  O  O20  1  0.69712200  0.10187600  0.40688700  1
  O  O21  1  0.48662100  0.79066600  0.03807900  1
  O  O22  1  0.51619300  0.18232100  0.94980000  1
  O  O23  1  0.31114600  0.88905100  0.59018700  1
  O  O24  1  0.41268000  0.74894300  0.22030500  1
  O  O25  1  0.24624900  0.84497900  0.77860900  1
  O  O26  1  0.35304500  0.62556600  0.46327100  1
  O  O27  1  0.45617500  0.47662400  0.09655000  1
  O  O28  1  0.27256900  0.56447500  0.65115700  1
  O  O29  1  0.16856600  0.72005200  0.00446600  1
  O  O30  1  0.40632500  0.33607800  0.31215800  1
  O  O31  1  0.23704500  0.42727900  0.85794300  1
  O  O32  1  0.33610700  0.29833600  0.50467000  1
  O  O33  1  0.12237700  0.97319000  0.12870300  1
  O  O34  1  0.45348300  0.07762900  0.18674900  1
  O  O35  1  0.26047800  0.17965000  0.73209000  1
  O  O36  1  0.05379400  0.93494500  0.32079900  1
  O  O37  1  0.37565500  0.02680400  0.37273600  1
  O  O38  1  0.19456500  0.09721000  0.90417000  1
  O  O39  1  0.10066100  0.64773100  0.17925800  1
  O  O40  1  0.02809700  0.51808100  0.40314100  1
  O  O41  1  0.14029100  0.39567000  0.05481800  1
  O  O42  1  0.07592600  0.24953100  0.26455400  1
  O  O43  1  0.99938400  0.18643200  0.44873100  1
loop_
_geom_bond_atom_site_label_1
_geom_bond_atom_site_label_2
_geom_bond_distance
_geom_bond_site_symmetry_2
Li0 O12 2.017095 1_555
Li0 O8 2.042549 1_555
Li0 O0 2.081865 1_555
Li0 O40 2.102886 1_655
Li0 O20 2.161758 1_565
Li0 O36 2.181517 1_655
Li1 O2 1.978466 1_555
Li1 O22 2.078928 1_565
Li1 O9 2.108658 1_555
Li1 O10 2.160927 1_565
Li1 O21 2.204421 1_556
Li1 O5 2.223871 1_556
Li2 O40 2.026616 1_655
Li2 O11 2.064901 1_555
Li2 O14 2.106115 1_555
Li2 O8 2.113604 1_555
Li2 O39 2.187722 1_655
Li2 O42 2.237462 1_655
Li3 O15 2.016037 1_555
Li3 O41 2.048640 1_655
Li3 O42 2.097040 1_655
Li3 O33 2.163810 1_645
Li3 O11 2.195587 1_555
Li3 O18 2.223972 1_555
Li4 O4 2.025489 1_555
Li4 O13 2.040388 1_555
Li4 O3 2.082227 1_555
Li4 O7 2.153497 1_555
Li4 O17 2.169456 1_555
Li4 O19 2.228920 1_555
Li5 O37 2.035840 1_565
Li5 O6 2.051598 1_555
Li5 O23 2.065460 1_555
Li5 O12 2.133874 1_555
Li5 O32 2.187494 1_565
Li5 O20 2.257240 1_565
Li6 O43 2.053457 1_555
Li6 O17 2.087410 1_555
Li6 O0 2.093028 1_545
Li6 O6 2.156742 1_545
Li6 O7 2.183260 1_555
Li6 O20 2.258806 1_555
Li7 O25 2.052044 1_555
Li7 O21 2.077726 1_556
Li7 O38 2.093217 1_565
Li7 O9 2.094463 1_555
Li7 O16 2.135459 1_555
Li7 O29 2.211182 1_556
Li8 O14 2.032219 1_555
Li8 O24 2.037217 1_555
Li8 O30 2.054215 1_555
Li8 O27 2.204038 1_555
Li8 O18 2.206515 1_555
Li8 O11 2.236228 1_555
Li9 O31 2.012824 1_555
Li9 O16 2.045471 1_555
Li9 O28 2.064579 1_555
Li9 O25 2.127007 1_555
Li9 O19 2.234484 1_555
Li9 O13 2.238876 1_555
Li10 O15 1.995327 1_555
Li10 O34 2.130108 1_555
Li10 O5 2.131668 1_545
Li10 O22 2.161690 1_554
Li10 O27 2.177243 1_555
Li10 O18 2.298146 1_555
Li11 O32 2.043522 1_555
Li11 O19 2.085536 1_555
Li11 O35 2.096808 1_555
Li11 O28 2.127552 1_555
Li11 O17 2.191618 1_555
Li11 O6 2.223828 1_545
Li12 O26 1.993020 1_555
Li12 O37 2.095332 1_565
Li12 O36 2.120301 1_555
Li12 O43 2.166882 1_465
Li12 O0 2.193325 1_455
Li12 O23 2.216684 1_555
Li13 O29 2.048939 1_546
Li13 O10 2.049761 1_455
Li13 O33 2.069233 1_546
Li13 O38 2.093419 1_555
Li13 O15 2.178109 1_456
Li13 O5 2.216236 1_446
Li14 O39 2.063360 1_555
Li14 O27 2.077812 1_555
Li14 O41 2.079725 1_555
Li14 O30 2.112506 1_555
Li14 O34 2.143952 1_555
Li14 O42 2.176039 1_555
Li15 O1 2.055077 1_455
Li15 O28 2.072671 1_555
Li15 O4 2.077883 1_455
Li15 O31 2.125946 1_555
Li15 O35 2.129318 1_555
Li15 O3 2.173253 1_455
Ni0 O8 1.861225 1_555
Ni0 O33 1.864346 1_655
Ni0 O39 1.984841 1_655
Ni0 O36 1.990297 1_655
Ni0 O5 2.010275 1_555
Ni0 O18 2.017674 1_565
Ni1 O9 1.901403 1_555
Ni1 O7 1.906821 1_565
Ni1 O1 1.915759 1_555
Ni1 O19 1.923723 1_565
Ni1 O10 2.086503 1_565
Ni1 O6 2.117179 1_555
Ni2 O2 1.847926 1_554
Ni2 O41 1.855954 1_655
Ni2 O11 1.882649 1_555
Ni2 O39 1.884331 1_655
Ni2 O29 1.886572 1_655
Ni2 O5 1.913193 1_555
Ni3 O12 1.851860 1_555
Ni3 O3 1.865041 1_555
Ni3 O0 1.883919 1_555
Ni3 O13 1.885515 1_555
Ni3 O1 1.894126 1_555
Ni3 O6 1.894733 1_555
Ni4 O40 1.851347 1_655
Ni4 O17 1.877981 1_555
Ni4 O12 1.966556 1_555
Ni4 O43 2.003301 1_555
Ni4 O3 2.041222 1_555
Ni4 O14 2.064206 1_555
Ni5 O43 1.849548 1_555
Ni5 O14 1.866537 1_555
Ni5 O20 1.873618 1_555
Ni5 O42 1.873811 1_655
Ni5 O36 1.879325 1_645
Ni5 O18 1.887243 1_555
Ni6 O10 1.885689 1_555
Ni6 O4 1.903774 1_555
Ni6 O22 1.906650 1_555
Ni6 O16 1.909905 1_555
Ni6 O19 2.089504 1_555
Ni6 O15 2.109425 1_556
Ni7 O24 1.877057 1_555
Ni7 O5 1.884654 1_555
Ni7 O11 1.928721 1_555
Ni7 O34 1.955900 1_565
Ni7 O21 2.067804 1_555
Ni7 O8 2.111835 1_555
Ni8 O25 1.858891 1_555
Ni8 O6 1.903146 1_555
Ni8 O23 1.949638 1_555
Ni8 O9 1.969968 1_555
Ni8 O35 2.054012 1_565
Ni8 O13 2.054474 1_555
Ni9 O21 1.885445 1_555
Ni9 O15 1.890689 1_555
Ni9 O2 1.897148 1_554
Ni9 O27 1.926581 1_555
Ni9 O16 2.095607 1_554
Ni9 O11 2.107542 1_555
Ni10 O13 1.861604 1_555
Ni10 O26 1.867928 1_555
Ni10 O23 1.944199 1_555
Ni10 O17 1.983244 1_555
Ni10 O28 2.028874 1_555
Ni10 O12 2.030874 1_555
Ni11 O32 1.855419 1_555
Ni11 O14 1.892922 1_555
Ni11 O26 1.982231 1_555
Ni11 O30 2.024003 1_555
Ni11 O17 2.028013 1_555
Ni11 O20 2.039943 1_555
Ni12 O16 1.859039 1_555
Ni12 O41 1.902885 1_556
Ni12 O31 1.939321 1_555
Ni12 O27 2.035637 1_556
Ni12 O29 2.044952 1_556
Ni12 O22 2.061916 1_555
Ni13 O36 1.889183 1_555
Ni13 O42 1.913928 1_565
Ni13 O24 1.921356 1_555
Ni13 O34 1.923316 1_565
Ni13 O33 2.084816 1_555
Ni13 O37 2.107324 1_565
Ni14 O30 1.863851 1_555
Ni14 O8 1.886160 1_545
Ni14 O37 1.887716 1_555
Ni14 O20 1.890106 1_555
Ni14 O34 1.896498 1_555
Ni14 O18 1.911342 1_555
Ni15 O31 1.856803 1_555
Ni15 O35 1.868245 1_555
Ni15 O19 1.880495 1_555
Ni15 O9 1.881650 1_545
Ni15 O38 1.888518 1_555
Ni15 O22 1.893063 1_555
Ni16 O29 1.856587 1_555
Ni16 O21 1.875324 1_555
Ni16 O33 1.876134 1_555
Ni16 O24 1.891717 1_555
Ni16 O39 1.891803 1_555
Ni16 O27 1.892260 1_555
Ni17 O28 1.889625 1_555
Ni17 O1 1.890920 1_455
Ni17 O23 1.902191 1_555
Ni17 O7 1.928478 1_465
Ni17 O25 2.075164 1_555
Ni17 O0 2.095697 1_455
Ni18 O26 1.871775 1_555
Ni18 O3 1.888837 1_455
Ni18 O32 1.928921 1_555
Ni18 O0 1.935472 1_455
Ni18 O28 2.049873 1_555
Ni18 O40 2.138947 1_555
Ni19 O37 1.881147 1_555
Ni19 O40 1.882446 1_555
Ni19 O30 1.948609 1_555
Ni19 O43 1.956936 1_455
Ni19 O32 2.058308 1_555
Ni19 O42 2.103947 1_555
Ni20 O31 2.003849 1_555
Ni20 O2 2.031532 1_455
Ni20 O15 2.059350 1_456
Ni20 O4 2.061420 1_455
Ni20 O38 2.069049 1_555
Ni20 O41 2.092744 1_556
Ni21 O38 1.864352 1_555
Ni21 O4 1.870919 1_455
Ni21 O10 1.880657 1_455
Ni21 O25 1.886967 1_545
Ni21 O35 1.887887 1_555
Ni21 O7 1.920955 1_455
