# generated using pymatgen
data_LaErO3
_symmetry_space_group_name_H-M   'P 1'
_cell_length_a   5.87708700
_cell_length_b   6.07692400
_cell_length_c   8.51415300
_cell_angle_alpha   90.00000000
_cell_angle_beta   90.00000000
_cell_angle_gamma   90.00000000
_symmetry_Int_Tables_number   1
_chemical_formula_structural   LaErO3
_chemical_formula_sum   'La4 Er4 O12'
_cell_volume   304.07966273
_cell_formula_units_Z   4
loop_
 _symmetry_equiv_pos_site_id
 _symmetry_equiv_pos_as_xyz
  1  'x, y, z'
loop_
 _atom_site_type_symbol
 _atom_site_label
 _atom_site_symmetry_multiplicity
 _atom_site_fract_x
 _atom_site_fract_y
 _atom_site_fract_z
 _atom_site_occupancy
  La  La0  1  0.48477000  0.95205400  0.25000000  1
  La  La1  1  0.98477000  0.54794600  0.75000000  1
  La  La2  1  0.01523000  0.45205400  0.25000000  1
  La  La3  1  0.51523000  0.04794600  0.75000000  1
  Er  Er0  1  0.00000000  0.00000000  0.00000000  1
  Er  Er1  1  0.50000000  0.50000000  0.00000000  1
  Er  Er2  1  0.50000000  0.50000000  0.50000000  1
  Er  Er3  1  0.00000000  0.00000000  0.50000000  1
  O  O0  1  0.19254600  0.69434700  0.06782800  1
  O  O1  1  0.69254600  0.80565300  0.93217200  1
  O  O2  1  0.30745400  0.19434700  0.43217200  1
  O  O3  1  0.80745400  0.30565300  0.56782800  1
  O  O4  1  0.80745400  0.30565300  0.93217200  1
  O  O5  1  0.30745400  0.19434700  0.06782800  1
  O  O6  1  0.69254600  0.80565300  0.56782800  1
  O  O7  1  0.19254600  0.69434700  0.43217200  1
  O  O8  1  0.87287100  0.05714900  0.25000000  1
  O  O9  1  0.37287100  0.44285100  0.75000000  1
  O  O10  1  0.62712900  0.55714900  0.25000000  1
  O  O11  1  0.12712900  0.94285100  0.75000000  1
loop_
_geom_bond_atom_site_label_1
_geom_bond_atom_site_label_2
_geom_bond_distance
_geom_bond_site_symmetry_2
La0 O8 2.368628 1_565
La0 O5 2.379002 1_565
La0 O2 2.379002 1_565
La0 O10 2.541470 1_555
La0 O0 2.794251 1_555
La0 O7 2.794251 1_555
La0 O6 3.099237 1_555
La0 O1 3.099237 1_554
La1 O9 2.368628 1_655
La1 O4 2.379002 1_555
La1 O3 2.379002 1_555
La1 O11 2.541470 1_655
La1 O6 2.794251 1_555
La1 O1 2.794251 1_555
La1 O0 3.099237 1_656
La1 O7 3.099237 1_655
La2 O10 2.368628 1_455
La2 O0 2.379002 1_555
La2 O7 2.379002 1_555
La2 O8 2.541470 1_455
La2 O5 2.794251 1_555
La2 O2 2.794251 1_555
La2 O4 3.099237 1_454
La2 O3 3.099237 1_455
La3 O11 2.368628 1_545
La3 O1 2.379002 1_545
La3 O6 2.379002 1_545
La3 O9 2.541470 1_555
La3 O3 2.794251 1_555
La3 O4 2.794251 1_555
La3 O2 3.099237 1_555
La3 O5 3.099237 1_556
Er0 O5 2.234581 1_555
Er0 O1 2.234581 1_444
Er0 O0 2.250353 1_545
Er0 O4 2.250353 1_454
Er0 O8 2.282436 1_455
Er0 O11 2.282436 1_544
Er1 O4 2.234581 1_554
Er1 O0 2.234581 1_555
Er1 O1 2.250353 1_554
Er1 O5 2.250353 1_555
Er1 O9 2.282436 1_554
Er1 O10 2.282436 1_555
Er2 O3 2.234581 1_555
Er2 O7 2.234581 1_555
Er2 O6 2.250353 1_555
Er2 O2 2.250353 1_555
Er2 O10 2.282436 1_555
Er2 O9 2.282436 1_555
Er3 O2 2.234581 1_555
Er3 O6 2.234581 1_445
Er3 O7 2.250353 1_545
Er3 O3 2.250353 1_455
Er3 O8 2.282436 1_455
Er3 O11 2.282436 1_545
