# generated using pymatgen
data_Li2(NiO2)3
_symmetry_space_group_name_H-M   'P 1'
_cell_length_a   5.62118200
_cell_length_b   6.46716029
_cell_length_c   18.85606001
_cell_angle_alpha   85.91584846
_cell_angle_beta   86.03490423
_cell_angle_gamma   64.51873933
_symmetry_Int_Tables_number   1
_chemical_formula_structural   Li2(NiO2)3
_chemical_formula_sum   'Li12 Ni18 O36'
_cell_volume   616.66087586
_cell_formula_units_Z   6
loop_
 _symmetry_equiv_pos_site_id
 _symmetry_equiv_pos_as_xyz
  1  'x, y, z'
loop_
 _atom_site_type_symbol
 _atom_site_label
 _atom_site_symmetry_multiplicity
 _atom_site_fract_x
 _atom_site_fract_y
 _atom_site_fract_z
 _atom_site_occupancy
  Li  Li0  1  0.57892400  0.16348400  0.33334300  1
  Li  Li1  1  0.70625400  0.40001900  0.44735800  1
  Li  Li2  1  0.75318900  0.49965700  0.00114400  1
  Li  Li3  1  0.00240100  0.06922000  0.78159200  1
  Li  Li4  1  0.09191400  0.16779300  0.33343300  1
  Li  Li5  1  0.16398100  0.26905900  0.88604300  1
  Li  Li6  1  0.90717900  0.83381500  0.66514200  1
  Li  Li7  1  0.96534700  0.93213000  0.21840300  1
  Li  Li8  1  0.24876400  0.50224900  0.99930200  1
  Li  Li9  1  0.29112300  0.59830000  0.55113900  1
  Li  Li10  1  0.37079500  0.73009500  0.11425300  1
  Li  Li11  1  0.42765700  0.83374500  0.66932400  1
  Ni  Ni0  1  0.55830000  0.10533900  0.55541100  1
  Ni  Ni1  1  0.61016200  0.21760600  0.11232900  1
  Ni  Ni2  1  0.66644900  0.33410300  0.66638900  1
  Ni  Ni3  1  0.72036000  0.45205500  0.22076400  1
  Ni  Ni4  1  0.05407800  0.11751400  0.55407400  1
  Ni  Ni5  1  0.77415000  0.56286600  0.77806500  1
  Ni  Ni6  1  0.83439800  0.66508700  0.33364500  1
  Ni  Ni7  1  0.10448100  0.22784700  0.11038200  1
  Ni  Ni8  1  0.16767900  0.33075400  0.66778200  1
  Ni  Ni9  1  0.88984000  0.78277200  0.88794900  1
  Ni  Ni10  1  0.94405600  0.88428300  0.44567000  1
  Ni  Ni11  1  0.22637400  0.44018800  0.22186200  1
  Ni  Ni12  1  0.28027100  0.55081400  0.77944100  1
  Ni  Ni13  1  0.33377600  0.66710800  0.33322200  1
  Ni  Ni14  1  0.39299200  0.77408600  0.88948300  1
  Ni  Ni15  1  0.43793900  0.89610500  0.44468700  1
  Ni  Ni16  1  0.49809800  0.99841200  0.00185400  1
  Ni  Ni17  1  0.00006000  0.00081700  0.99939600  1
  O  O0  1  0.96761900  0.00767900  0.11094800  1
  O  O1  1  0.46244300  0.00693400  0.10337100  1
  O  O2  1  0.58621200  0.10818600  0.45223400  1
  O  O3  1  0.52811000  0.99372600  0.89983400  1
  O  O4  1  0.54232100  0.08823000  0.65327900  1
  O  O5  1  0.63045800  0.22431500  0.01243700  1
  O  O6  1  0.58488600  0.22225300  0.21300800  1
  O  O7  1  0.74079300  0.43823300  0.11247600  1
  O  O8  1  0.68708800  0.32787300  0.55885700  1
  O  O9  1  0.69048700  0.44789800  0.33300800  1
  O  O10  1  0.64632700  0.34267000  0.77147700  1
  O  O11  1  0.07773000  0.10565500  0.44501400  1
  O  O12  1  0.03823900  0.99409900  0.88964000  1
  O  O13  1  0.79667300  0.57662600  0.68014300  1
  O  O14  1  0.02385700  0.11728100  0.66773600  1
  O  O15  1  0.75510300  0.56397100  0.88124900  1
  O  O16  1  0.11271700  0.23498200  0.99986000  1
  O  O17  1  0.87719000  0.66039700  0.23148100  1
  O  O18  1  0.07002200  0.23491500  0.22176500  1
  O  O19  1  0.79200700  0.67641900  0.43658700  1
  O  O20  1  0.91539500  0.77970800  0.78610400  1
  O  O21  1  0.25505800  0.43939600  0.11848900  1
  O  O22  1  0.88722900  0.76686900  0.98790400  1
  O  O23  1  0.20624600  0.32348600  0.56153600  1
  O  O24  1  0.97367500  0.88441300  0.33290700  1
  O  O25  1  0.22663600  0.42487500  0.31973600  1
  O  O26  1  0.92016000  0.89693000  0.55479600  1
  O  O27  1  0.12679700  0.34252500  0.77612200  1
  O  O28  1  0.31031800  0.54602600  0.66638000  1
  O  O29  1  0.23902500  0.56269100  0.88734100  1
  O  O30  1  0.36043400  0.66005100  0.22173600  1
  O  O31  1  0.36452700  0.77373800  0.00151000  1
  O  O32  1  0.30959900  0.67355900  0.44379300  1
  O  O33  1  0.41392000  0.76963500  0.77862000  1
  O  O34  1  0.44843600  0.90641300  0.34611900  1
  O  O35  1  0.41278300  0.89421800  0.54673300  1
loop_
_geom_bond_atom_site_label_1
_geom_bond_atom_site_label_2
_geom_bond_distance
_geom_bond_site_symmetry_2
Li0 O25 1.993263 1_555
Li0 O34 2.080335 1_545
Li0 O24 2.175987 1_545
Li0 O9 2.183305 1_555
Li0 O2 2.245263 1_555
Li0 O6 2.274145 1_555
Li1 O19 2.035922 1_555
Li1 O8 2.126434 1_555
Li1 O11 2.136628 1_655
Li1 O9 2.158843 1_555
Li1 O32 2.171486 1_555
Li1 O2 2.255722 1_555
Li2 O16 2.009346 1_654
Li2 O7 2.110555 1_555
Li2 O31 2.140704 1_555
Li2 O22 2.156210 1_554
Li2 O5 2.162132 1_555
Li2 O15 2.269501 1_554
Li3 O10 2.032027 1_455
Li3 O12 2.063735 1_545
Li3 O20 2.124024 1_445
Li3 O14 2.149796 1_555
Li3 O27 2.156657 1_555
Li3 O33 2.291108 1_545
Li4 O34 2.006189 1_545
Li4 O25 2.097509 1_555
Li4 O11 2.116247 1_555
Li4 O18 2.120585 1_555
Li4 O24 2.202741 1_445
Li4 O9 2.203777 1_455
Li5 O3 2.073515 1_545
Li5 O27 2.097524 1_555
Li5 O29 2.117053 1_555
Li5 O16 2.153896 1_555
Li5 O12 2.173446 1_545
Li5 O15 2.271718 1_455
Li6 O13 2.007498 1_555
Li6 O4 2.017677 1_565
Li6 O26 2.094006 1_555
Li6 O14 2.201136 1_665
Li6 O28 2.229786 1_655
Li6 O20 2.283398 1_555
Li7 O17 2.016258 1_555
Li7 O0 2.050623 1_565
Li7 O6 2.157498 1_565
Li7 O24 2.160035 1_555
Li7 O30 2.161816 1_655
Li7 O18 2.280094 1_665
Li8 O22 2.029894 1_455
Li8 O29 2.119609 1_555
Li8 O31 2.122522 1_556
Li8 O5 2.141824 1_556
Li8 O16 2.169368 1_555
Li8 O21 2.255165 1_556
Li9 O23 2.022815 1_555
Li9 O32 2.053981 1_555
Li9 O26 2.148682 1_455
Li9 O8 2.166361 1_555
Li9 O28 2.178123 1_555
Li9 O35 2.287491 1_555
Li10 O30 2.047371 1_555
Li10 O1 2.059020 1_565
Li10 O7 2.123933 1_555
Li10 O31 2.125239 1_555
Li10 O0 2.205844 1_465
Li10 O21 2.233344 1_555
Li11 O4 2.007601 1_565
Li11 O13 2.037585 1_555
Li11 O33 2.075805 1_555
Li11 O14 2.221653 1_565
Li11 O28 2.230744 1_555
Li11 O35 2.318012 1_555
Ni0 O4 1.839123 1_555
Ni0 O23 1.873316 1_555
Ni0 O8 1.875043 1_555
Ni0 O35 1.889800 1_545
Ni0 O26 1.895853 1_545
Ni0 O2 1.940397 1_555
Ni1 O7 1.864776 1_555
Ni1 O5 1.877667 1_555
Ni1 O0 1.879323 1_555
Ni1 O21 1.892998 1_555
Ni1 O6 1.895309 1_555
Ni1 O1 1.897338 1_555
Ni2 O28 1.877546 1_555
Ni2 O14 1.892406 1_655
Ni2 O10 1.980312 1_555
Ni2 O8 2.025203 1_555
Ni2 O4 2.027526 1_555
Ni2 O13 2.033510 1_555
Ni3 O18 1.860659 1_655
Ni3 O30 1.886753 1_555
Ni3 O17 1.928442 1_555
Ni3 O6 1.957078 1_555
Ni3 O7 2.043333 1_555
Ni3 O9 2.110695 1_555
Ni4 O26 1.876626 1_445
Ni4 O23 1.884018 1_555
Ni4 O35 1.911725 1_545
Ni4 O8 1.921331 1_455
Ni4 O11 2.056305 1_555
Ni4 O14 2.138142 1_555
Ni5 O13 1.840431 1_555
Ni5 O10 1.864814 1_555
Ni5 O27 1.878378 1_655
Ni5 O33 1.886205 1_555
Ni5 O20 1.903915 1_555
Ni5 O15 1.941535 1_555
Ni6 O24 1.891086 1_555
Ni6 O9 1.899696 1_555
Ni6 O17 1.925564 1_555
Ni6 O19 1.941962 1_555
Ni6 O34 2.065518 1_555
Ni6 O25 2.091496 1_655
Ni7 O0 1.886422 1_455
Ni7 O1 1.903686 1_555
Ni7 O7 1.906656 1_455
Ni7 O21 1.911968 1_555
Ni7 O16 2.078982 1_554
Ni7 O18 2.097720 1_555
Ni8 O14 1.876209 1_555
Ni8 O28 1.879919 1_555
Ni8 O23 2.001830 1_555
Ni8 O13 2.016003 1_455
Ni8 O4 2.027106 1_555
Ni8 O27 2.043056 1_555
Ni9 O29 1.863880 1_655
Ni9 O22 1.879618 1_555
Ni9 O15 1.884861 1_555
Ni9 O12 1.885611 1_655
Ni9 O3 1.907782 1_555
Ni9 O20 1.916707 1_555
Ni10 O11 1.880474 1_665
Ni10 O19 1.899629 1_555
Ni10 O2 1.908704 1_565
Ni10 O32 1.915197 1_655
Ni10 O26 2.057936 1_555
Ni10 O24 2.121234 1_555
Ni11 O25 1.841185 1_555
Ni11 O17 1.869787 1_455
Ni11 O30 1.873733 1_555
Ni11 O18 1.881291 1_555
Ni11 O6 1.902282 1_555
Ni11 O21 1.944911 1_555
Ni12 O33 1.864761 1_555
Ni12 O27 1.892636 1_555
Ni12 O10 1.916076 1_555
Ni12 O20 1.947374 1_455
Ni12 O29 2.034902 1_555
Ni12 O28 2.128268 1_555
Ni13 O9 1.893195 1_555
Ni13 O24 1.903996 1_455
Ni13 O25 1.941957 1_555
Ni13 O34 1.950191 1_555
Ni13 O32 2.082182 1_555
Ni13 O30 2.099510 1_555
Ni14 O12 1.886669 1_555
Ni14 O15 1.902697 1_555
Ni14 O3 1.902871 1_555
Ni14 O29 1.910625 1_555
Ni14 O33 2.087164 1_555
Ni14 O31 2.107292 1_556
Ni15 O34 1.852810 1_555
Ni15 O32 1.868334 1_555
Ni15 O19 1.886506 1_555
Ni15 O11 1.890726 1_565
Ni15 O2 1.903659 1_565
Ni15 O35 1.919152 1_555
Ni16 O31 1.901501 1_555
Ni16 O1 1.913080 1_565
Ni16 O3 1.920678 1_554
Ni16 O5 1.930050 1_565
Ni16 O16 2.046046 1_564
Ni16 O22 2.062604 1_554
Ni17 O16 1.876771 1_555
Ni17 O22 1.905178 1_445
Ni17 O31 1.941585 1_546
Ni17 O5 1.965247 1_456
Ni17 O12 2.067464 1_545
Ni17 O0 2.100698 1_456
