# generated using pymatgen
data_Li8Mn7Fe(BO3)8
_symmetry_space_group_name_H-M   'P 1'
_cell_length_a   5.25732700
_cell_length_b   9.10981404
_cell_length_c   10.52142643
_cell_angle_alpha   88.40539369
_cell_angle_beta   88.92892953
_cell_angle_gamma   89.84107781
_symmetry_Int_Tables_number   1
_chemical_formula_structural   Li8Mn7Fe(BO3)8
_chemical_formula_sum   'Li8 Mn7 Fe1 B8 O24'
_cell_volume   503.62109841
_cell_formula_units_Z   1
loop_
 _symmetry_equiv_pos_site_id
 _symmetry_equiv_pos_as_xyz
  1  'x, y, z'
loop_
 _atom_site_type_symbol
 _atom_site_label
 _atom_site_symmetry_multiplicity
 _atom_site_fract_x
 _atom_site_fract_y
 _atom_site_fract_z
 _atom_site_occupancy
  Li  Li0  1  0.14655800  0.17455400  0.66780800  1
  Li  Li1  1  0.18666100  0.16070900  0.16757100  1
  Li  Li2  1  0.32111800  0.33143400  0.41779300  1
  Li  Li3  1  0.33641700  0.32577100  0.91760700  1
  Li  Li4  1  0.64661500  0.67424700  0.66793200  1
  Li  Li5  1  0.68828500  0.66033900  0.16794900  1
  Li  Li6  1  0.81960000  0.83194300  0.41799800  1
  Li  Li7  1  0.83591300  0.82591200  0.91802400  1
  Mn  Mn0  1  0.17795300  0.49843100  0.13321800  1
  Mn  Mn1  1  0.15857800  0.83827100  0.63374400  1
  Mn  Mn2  1  0.33126000  0.66395500  0.38357200  1
  Mn  Mn3  1  0.33169900  0.99818100  0.88346100  1
  Mn  Mn4  1  0.66067700  0.33742500  0.63070300  1
  Mn  Mn5  1  0.67888200  0.99969700  0.13433600  1
  Mn  Mn6  1  0.83091000  0.49782700  0.88319600  1
  Fe  Fe0  1  0.83519700  0.16190500  0.38225500  1
  B  B0  1  0.17371400  0.82948100  0.12624800  1
  B  B1  1  0.15746500  0.50138400  0.62564700  1
  B  B2  1  0.33383600  0.99930200  0.37734100  1
  B  B3  1  0.32820700  0.66713700  0.87578900  1
  B  B4  1  0.67335000  0.32948900  0.12672600  1
  B  B5  1  0.65789800  0.00129800  0.62453400  1
  B  B6  1  0.83667900  0.49579900  0.37492600  1
  B  B7  1  0.82820800  0.16717600  0.87564700  1
  O  O0  1  0.09692000  0.48123700  0.34514800  1
  O  O1  1  0.08964300  0.17916600  0.86107700  1
  O  O2  1  0.17405700  0.78886800  0.84539400  1
  O  O3  1  0.19478600  0.87610800  0.41698200  1
  O  O4  1  0.21690300  0.13535100  0.36285100  1
  O  O5  1  0.21716600  0.53517000  0.91777200  1
  O  O6  1  0.26641200  0.36417600  0.61097100  1
  O  O7  1  0.28967700  0.96497200  0.09645200  1
  O  O8  1  0.30291100  0.62698700  0.59572000  1
  O  O9  1  0.32240100  0.71061900  0.16695500  1
  O  O10  1  0.41344400  0.31460700  0.11185400  1
  O  O11  1  0.40543000  0.01656100  0.66605800  1
  O  O12  1  0.59482300  0.98795300  0.34823300  1
  O  O13  1  0.58942800  0.67930300  0.86118200  1
  O  O14  1  0.67420000  0.28865400  0.84500400  1
  O  O15  1  0.69624400  0.37302100  0.41532900  1
  O  O16  1  0.72339400  0.63287200  0.36177700  1
  O  O17  1  0.71755200  0.03512900  0.91782800  1
  O  O18  1  0.78858300  0.46491300  0.09594700  1
  O  O19  1  0.76571600  0.86354000  0.61084800  1
  O  O20  1  0.80366100  0.12630500  0.59377900  1
  O  O21  1  0.82213700  0.21088800  0.16787600  1
  O  O22  1  0.91346500  0.81522400  0.11197600  1
  O  O23  1  0.90476600  0.51611200  0.66655600  1
loop_
_geom_bond_atom_site_label_1
_geom_bond_atom_site_label_2
_geom_bond_distance
_geom_bond_site_symmetry_2
Li0 O6 1.916532 1_555
Li0 O11 1.978335 1_555
Li0 O20 2.031161 1_455
Li0 O1 2.051394 1_555
Li1 O10 1.915235 1_555
Li1 O21 1.968917 1_455
Li1 O7 2.021516 1_545
Li1 O4 2.070197 1_555
Li2 O0 1.950010 1_555
Li2 O4 1.974812 1_555
Li2 O15 2.008806 1_555
Li2 O6 2.077062 1_555
Li3 O14 1.952377 1_555
Li3 O1 1.975672 1_555
Li3 O5 2.006353 1_555
Li3 O10 2.090554 1_556
Li4 O19 1.913301 1_555
Li4 O23 1.976616 1_555
Li4 O8 2.025235 1_555
Li4 O13 2.051576 1_555
Li5 O22 1.917319 1_555
Li5 O9 1.976269 1_555
Li5 O18 2.018989 1_555
Li5 O16 2.059377 1_555
Li6 O12 1.979949 1_555
Li6 O16 1.992606 1_555
Li6 O3 2.013957 1_655
Li6 O19 2.071410 1_555
Li7 O2 1.954076 1_655
Li7 O13 1.975782 1_555
Li7 O17 2.003254 1_565
Li7 O22 2.088013 1_556
Mn0 O10 2.094431 1_555
Mn0 O18 2.116022 1_455
Mn0 O9 2.120276 1_555
Mn0 O0 2.263510 1_555
Mn0 O5 2.287702 1_554
Mn1 O19 2.095183 1_455
Mn1 O8 2.112803 1_555
Mn1 O11 2.120552 1_565
Mn1 O2 2.262492 1_555
Mn1 O3 2.301472 1_555
Mn2 O16 2.089393 1_555
Mn2 O3 2.096253 1_555
Mn2 O0 2.125880 1_555
Mn2 O8 2.250311 1_555
Mn2 O9 2.308074 1_555
Mn3 O1 2.090739 1_565
Mn3 O17 2.096917 1_565
Mn3 O2 2.132337 1_555
Mn3 O7 2.259735 1_556
Mn3 O11 2.314377 1_565
Mn4 O6 2.099852 1_555
Mn4 O20 2.106559 1_555
Mn4 O23 2.121946 1_555
Mn4 O15 2.284439 1_555
Mn4 O14 2.288323 1_555
Mn5 O22 2.097645 1_555
Mn5 O21 2.109251 1_565
Mn5 O7 2.118228 1_555
Mn5 O12 2.284991 1_555
Mn5 O17 2.297130 1_564
Mn6 O13 2.092022 1_555
Mn6 O5 2.100011 1_655
Mn6 O14 2.129549 1_555
Mn6 O18 2.257088 1_556
Mn6 O23 2.306543 1_555
Fe0 O4 2.027805 1_655
Fe0 O12 2.072657 1_545
Fe0 O15 2.091294 1_555
Fe0 O20 2.243212 1_555
Fe0 O21 2.289333 1_555
B0 O22 1.386066 1_455
B0 O9 1.396057 1_555
B0 O7 1.403191 1_555
B1 O6 1.384818 1_555
B1 O23 1.396095 1_455
B1 O8 1.403170 1_555
B2 O4 1.387802 1_565
B2 O3 1.391030 1_555
B2 O12 1.404418 1_555
B3 O13 1.383448 1_555
B3 O5 1.394950 1_555
B3 O2 1.404911 1_555
B4 O10 1.385693 1_555
B4 O21 1.395921 1_555
B4 O18 1.403014 1_555
B5 O19 1.385639 1_545
B5 O11 1.397365 1_555
B5 O20 1.401380 1_555
B6 O16 1.386530 1_555
B6 O15 1.393990 1_555
B6 O0 1.404612 1_655
B7 O1 1.384401 1_655
B7 O17 1.395329 1_555
B7 O14 1.403247 1_555
