# generated using pymatgen
data_Mo4P5O24
_symmetry_space_group_name_H-M   'P 1'
_cell_length_a   9.59648451
_cell_length_b   9.59648451
_cell_length_c   15.44831360
_cell_angle_alpha   63.78276327
_cell_angle_beta   63.78276327
_cell_angle_gamma   52.67301957
_symmetry_Int_Tables_number   1
_chemical_formula_structural   Mo4P5O24
_chemical_formula_sum   'Mo8 P10 O48'
_cell_volume   984.29614219
_cell_formula_units_Z   2
loop_
 _symmetry_equiv_pos_site_id
 _symmetry_equiv_pos_as_xyz
  1  'x, y, z'
loop_
 _atom_site_type_symbol
 _atom_site_label
 _atom_site_symmetry_multiplicity
 _atom_site_fract_x
 _atom_site_fract_y
 _atom_site_fract_z
 _atom_site_occupancy
  Mo  Mo0  1  0.52090400  0.15156400  0.81741300  1
  Mo  Mo1  1  0.90104500  0.29369100  0.01815500  1
  Mo  Mo2  1  0.47349100  0.85395900  0.18122400  1
  Mo  Mo3  1  0.15156400  0.52090400  0.31741300  1
  Mo  Mo4  1  0.10102700  0.70960700  0.97859700  1
  Mo  Mo5  1  0.85395900  0.47349100  0.68122400  1
  Mo  Mo6  1  0.29369100  0.90104500  0.51815500  1
  Mo  Mo7  1  0.70960700  0.10102700  0.47859700  1
  P  P0  1  0.18144300  0.83859000  0.10264600  1
  P  P1  1  0.26304000  0.24773500  0.53967800  1
  P  P2  1  0.75050800  0.74080500  0.95955300  1
  P  P3  1  0.74080500  0.75050800  0.45955300  1
  P  P4  1  0.24773500  0.26304000  0.03967800  1
  P  P5  1  0.16236200  0.81605200  0.39626700  1
  P  P6  1  0.40241300  0.59962600  0.74919500  1
  P  P7  1  0.81605200  0.16236200  0.89626700  1
  P  P8  1  0.83859100  0.18144300  0.60264600  1
  P  P9  1  0.59962600  0.40241300  0.24919500  1
  O  O0  1  0.25030700  0.43705900  0.01162400  1
  O  O1  1  0.15202800  0.66958400  0.39094200  1
  O  O2  1  0.85752700  0.59574600  0.73322000  1
  O  O3  1  0.30438200  0.05326600  0.57667800  1
  O  O4  1  0.71399700  0.32743700  0.15872800  1
  O  O5  1  0.32743700  0.71399700  0.65872800  1
  O  O6  1  0.43705900  0.25030700  0.51162400  1
  O  O7  1  0.74214700  0.24647500  0.51937200  1
  O  O8  1  0.28376600  0.68200900  0.83918000  1
  O  O9  1  0.89406900  0.26057500  0.79122300  1
  O  O10  1  0.70607000  0.95583700  0.59366900  1
  O  O11  1  0.40999500  0.42497300  0.27409200  1
  O  O12  1  0.01311000  0.02334700  0.08405300  1
  O  O13  1  0.34342800  0.18537500  0.94602100  1
  O  O14  1  0.42497300  0.40999500  0.77409200  1
  O  O15  1  0.98087600  0.97042000  0.91896200  1
  O  O16  1  0.70305800  0.94547900  0.42509300  1
  O  O17  1  0.95583700  0.70607000  0.09366900  1
  O  O18  1  0.57411500  0.74154200  0.48338900  1
  O  O19  1  0.84567000  0.33576600  0.60197400  1
  O  O20  1  0.97042000  0.98087600  0.41896200  1
  O  O21  1  0.74154200  0.57411500  0.98338900  1
  O  O22  1  0.33576600  0.84567000  0.10197400  1
  O  O23  1  0.05326600  0.30438200  0.07667800  1
  O  O24  1  0.02334700  0.01311000  0.58405300  1
  O  O25  1  0.29283200  0.04709100  0.40295000  1
  O  O26  1  0.64904000  0.88904100  0.87676200  1
  O  O27  1  0.81836400  0.65459600  0.55375800  1
  O  O28  1  0.11856400  0.35480300  0.62059400  1
  O  O29  1  0.11736200  0.72679500  0.20420100  1
  O  O30  1  0.26291600  0.74638100  0.47405300  1
  O  O31  1  0.56925400  0.59239100  0.23061100  1
  O  O32  1  0.24647500  0.74214700  0.01937200  1
  O  O33  1  0.59574600  0.85752700  0.23322000  1
  O  O34  1  0.66958400  0.15202800  0.89094200  1
  O  O35  1  0.59239100  0.56925400  0.73061100  1
  O  O36  1  0.35480300  0.11856400  0.12059400  1
  O  O37  1  0.18537500  0.34342800  0.44602100  1
  O  O38  1  0.39930400  0.14536900  0.76758600  1
  O  O39  1  0.04709100  0.29283200  0.90295000  1
  O  O40  1  0.94547900  0.70305800  0.92509300  1
  O  O41  1  0.14536900  0.39930400  0.26758600  1
  O  O42  1  0.88904100  0.64904000  0.37676200  1
  O  O43  1  0.68200900  0.28376600  0.33918000  1
  O  O44  1  0.74638100  0.26291600  0.97405300  1
  O  O45  1  0.72679500  0.11736200  0.70420100  1
  O  O46  1  0.26057500  0.89406900  0.29122300  1
  O  O47  1  0.65459600  0.81836400  0.05375800  1
loop_
_geom_bond_atom_site_label_1
_geom_bond_atom_site_label_2
_geom_bond_distance
_geom_bond_site_symmetry_2
Mo0 O38 1.695870 1_555
Mo0 O45 1.933374 1_555
Mo0 O14 1.937791 1_555
Mo0 O13 1.965435 1_555
Mo0 O26 1.974320 1_545
Mo0 O34 2.184081 1_555
Mo1 O39 1.710802 1_654
Mo1 O12 2.042984 1_655
Mo1 O21 2.080208 1_554
Mo1 O44 2.087380 1_554
Mo1 O23 2.095799 1_655
Mo1 O4 2.124877 1_555
Mo2 O33 1.711283 1_555
Mo2 O46 1.940876 1_555
Mo2 O31 1.964002 1_555
Mo2 O47 1.966033 1_555
Mo2 O36 1.989026 1_565
Mo2 O22 2.212517 1_555
Mo3 O41 1.695870 1_555
Mo3 O29 1.933374 1_555
Mo3 O11 1.937791 1_555
Mo3 O37 1.965435 1_555
Mo3 O42 1.974320 1_455
Mo3 O1 2.184081 1_555
Mo4 O17 1.708273 1_456
Mo4 O15 1.960632 1_455
Mo4 O32 1.980336 1_556
Mo4 O0 2.018963 1_556
Mo4 O40 2.040861 1_455
Mo4 O8 2.094691 1_555
Mo5 O2 1.711283 1_555
Mo5 O9 1.940876 1_555
Mo5 O35 1.964002 1_555
Mo5 O27 1.966033 1_555
Mo5 O28 1.989026 1_655
Mo5 O19 2.212517 1_555
Mo6 O25 1.710802 1_565
Mo6 O24 2.042984 1_565
Mo6 O18 2.080208 1_555
Mo6 O30 2.087380 1_555
Mo6 O3 2.095799 1_565
Mo6 O5 2.124877 1_555
Mo7 O10 1.708273 1_545
Mo7 O20 1.960632 1_545
Mo7 O7 1.980336 1_555
Mo7 O6 2.018963 1_555
Mo7 O16 2.040861 1_545
Mo7 O43 2.094691 1_555
O0 P4 1.542176 1_555
O1 P5 1.506872 1_555
O3 P1 1.525404 1_555
O4 P9 1.500330 1_555
O5 P6 1.500330 1_555
O6 P1 1.542176 1_555
O7 P8 1.594731 1_555
O8 P6 1.527995 1_555
O9 P7 1.585280 1_555
O11 P9 1.576010 1_555
O12 P0 1.523879 1_545
O13 P4 1.562356 1_556
O14 P6 1.576010 1_555
O15 P7 1.550404 1_565
O16 P3 1.543948 1_555
O18 P3 1.523260 1_555
O19 P8 1.518473 1_555
O20 P5 1.550404 1_655
O21 P2 1.523260 1_555
O22 P0 1.518479 1_555
O23 P4 1.525404 1_555
O24 P8 1.523875 1_455
O26 P2 1.555817 1_555
O27 P3 1.569014 1_555
O28 P1 1.554492 1_555
O29 P0 1.565563 1_555
O30 P5 1.534411 1_555
O31 P9 1.567868 1_555
O32 P0 1.594724 1_555
O34 P7 1.506872 1_555
O35 P6 1.567868 1_555
O36 P4 1.554492 1_555
O37 P1 1.562356 1_555
O40 P2 1.543948 1_555
O42 P3 1.555817 1_555
O43 P9 1.527995 1_555
O44 P7 1.534411 1_555
O45 P8 1.565567 1_555
O46 P5 1.585280 1_555
O47 P2 1.569014 1_554
