# generated using pymatgen
data_CeSmO2
_symmetry_space_group_name_H-M   'P 1'
_cell_length_a   6.11813209
_cell_length_b   6.11813209
_cell_length_c   6.11813215
_cell_angle_alpha   33.32199511
_cell_angle_beta   33.32199511
_cell_angle_gamma   33.32199264
_symmetry_Int_Tables_number   1
_chemical_formula_structural   CeSmO2
_chemical_formula_sum   'Ce1 Sm1 O2'
_cell_volume   61.53470634
_cell_formula_units_Z   1
loop_
 _symmetry_equiv_pos_site_id
 _symmetry_equiv_pos_as_xyz
  1  'x, y, z'
loop_
 _atom_site_type_symbol
 _atom_site_label
 _atom_site_symmetry_multiplicity
 _atom_site_fract_x
 _atom_site_fract_y
 _atom_site_fract_z
 _atom_site_occupancy
  Ce  Ce0  1  0.00000000  0.00000000  0.00000000  1
  Sm  Sm0  1  0.50000000  0.50000000  0.50000000  1
  O  O0  1  0.24775500  0.24775500  0.24775500  1
  O  O1  1  0.75224500  0.75224500  0.75224500  1
loop_
_geom_bond_atom_site_label_1
_geom_bond_atom_site_label_2
_geom_bond_distance
_geom_bond_site_symmetry_2
Ce0 O1 2.509859 1_454
Ce0 O1 2.509859 1_544
Ce0 O0 2.509859 1_455
Ce0 O0 2.509859 1_545
Ce0 O1 2.509859 1_445
Ce0 O0 2.509859 1_554
O0 Sm0 2.464735 1_545
O0 Sm0 2.464735 1_455
O0 Sm0 2.464735 1_554
O1 Sm0 2.464735 1_565
O1 Sm0 2.464735 1_655
O1 Sm0 2.464735 1_556
