# generated using pymatgen
data_Ca5Dy3Ti5Mn3O24
_symmetry_space_group_name_H-M   'P 1'
_cell_length_a   5.38336500
_cell_length_b   5.61603520
_cell_length_c   15.27216256
_cell_angle_alpha   90.12317075
_cell_angle_beta   90.16801405
_cell_angle_gamma   90.35730292
_symmetry_Int_Tables_number   1
_chemical_formula_structural   Ca5Dy3Ti5Mn3O24
_chemical_formula_sum   'Ca5 Dy3 Ti5 Mn3 O24'
_cell_volume   461.71379787
_cell_formula_units_Z   1
loop_
 _symmetry_equiv_pos_site_id
 _symmetry_equiv_pos_as_xyz
  1  'x, y, z'
loop_
 _atom_site_type_symbol
 _atom_site_label
 _atom_site_symmetry_multiplicity
 _atom_site_fract_x
 _atom_site_fract_y
 _atom_site_fract_z
 _atom_site_occupancy
  Ca  Ca0  1  0.01261500  0.05086100  0.62361200  1
  Ca  Ca1  1  0.01260500  0.05790600  0.12829200  1
  Ca  Ca2  1  0.49042700  0.55296700  0.62360100  1
  Ca  Ca3  1  0.51088800  0.45469700  0.87263200  1
  Ca  Ca4  1  0.99158000  0.95435500  0.87241900  1
  Dy  Dy0  1  0.48525300  0.56921700  0.12927400  1
  Dy  Dy1  1  0.51710300  0.42932200  0.37388600  1
  Dy  Dy2  1  0.97950200  0.92861900  0.37434300  1
  Ti  Ti0  1  0.99271200  0.51741200  0.00120600  1
  Ti  Ti1  1  0.01129200  0.50422700  0.74798600  1
  Ti  Ti2  1  0.00767000  0.49568500  0.50044300  1
  Ti  Ti3  1  0.51333100  0.99893400  0.74899400  1
  Ti  Ti4  1  0.50625200  0.02289400  0.00134800  1
  Mn  Mn0  1  0.00221300  0.49541000  0.25003900  1
  Mn  Mn1  1  0.49654400  0.00033100  0.25051900  1
  Mn  Mn2  1  0.49314200  0.99422800  0.49959200  1
  O  O0  1  0.07838700  0.52108100  0.87616700  1
  O  O1  1  0.10904500  0.53166300  0.37454800  1
  O  O2  1  0.18543700  0.79914400  0.52054900  1
  O  O3  1  0.20949900  0.78154800  0.02663300  1
  O  O4  1  0.20297400  0.78733200  0.72874300  1
  O  O5  1  0.21159900  0.80690200  0.22552300  1
  O  O6  1  0.30310700  0.31818200  0.22698500  1
  O  O7  1  0.28578300  0.29176200  0.72921700  1
  O  O8  1  0.29567500  0.31673500  0.52008000  1
  O  O9  1  0.30514300  0.29573100  0.02773600  1
  O  O10  1  0.41633500  0.02190900  0.87668200  1
  O  O11  1  0.39019500  0.02983600  0.37794400  1
  O  O12  1  0.59174300  0.96593800  0.12249800  1
  O  O13  1  0.58016300  0.97413000  0.62474100  1
  O  O14  1  0.70641300  0.70050700  0.98055800  1
  O  O15  1  0.70554300  0.71391700  0.77163200  1
  O  O16  1  0.71205100  0.68831000  0.46694100  1
  O  O17  1  0.70752400  0.68444800  0.27550300  1
  O  O18  1  0.78432300  0.20943800  0.77171000  1
  O  O19  1  0.78938600  0.18649700  0.28018300  1
  O  O20  1  0.79686700  0.20182000  0.97813000  1
  O  O21  1  0.80122000  0.20255600  0.47014900  1
  O  O22  1  0.91257900  0.47285300  0.62505800  1
  O  O23  1  0.89588100  0.47069500  0.12390500  1
loop_
_geom_bond_atom_site_label_1
_geom_bond_atom_site_label_2
_geom_bond_distance
_geom_bond_site_symmetry_2
Ca0 O2 2.314492 1_545
Ca0 O13 2.365069 1_445
Ca0 O4 2.416172 1_545
Ca0 O22 2.433679 1_455
Ca0 O7 2.558513 1_555
Ca0 O8 2.654712 1_555
Ca0 O18 2.727717 1_455
Ca0 O21 2.742057 1_455
Ca1 O5 2.314781 1_545
Ca1 O12 2.322029 1_445
Ca1 O23 2.406689 1_455
Ca1 O3 2.441832 1_545
Ca1 O9 2.572781 1_555
Ca1 O6 2.608132 1_555
Ca1 O20 2.695430 1_454
Ca1 O19 2.714137 1_455
Ca2 O8 2.307104 1_555
Ca2 O22 2.319510 1_555
Ca2 O13 2.411157 1_555
Ca2 O7 2.442897 1_555
Ca2 O4 2.595446 1_555
Ca2 O2 2.665821 1_555
Ca2 O15 2.689223 1_555
Ca2 O16 2.781846 1_555
Ca3 O0 2.361020 1_555
Ca3 O15 2.365754 1_555
Ca3 O14 2.385862 1_555
Ca3 O10 2.481110 1_555
Ca3 O18 2.543429 1_555
Ca3 O20 2.646789 1_555
Ca3 O7 2.658014 1_555
Ca3 O9 2.765327 1_556
Ca4 O10 2.316239 1_665
Ca4 O20 2.378038 1_565
Ca4 O18 2.383698 1_565
Ca4 O0 2.481359 1_655
Ca4 O15 2.552434 1_555
Ca4 O4 2.647402 1_655
Ca4 O14 2.667265 1_555
Ca4 O3 2.805852 1_656
Dy0 O6 2.275151 1_555
Dy0 O23 2.283762 1_555
Dy0 O12 2.299726 1_555
Dy0 O9 2.380375 1_555
Dy0 O3 2.469682 1_555
Dy0 O5 2.478217 1_555
Dy0 O17 2.608898 1_555
Dy0 O14 2.670520 1_554
Dy1 O1 2.274180 1_555
Dy1 O16 2.280335 1_555
Dy1 O17 2.315446 1_555
Dy1 O11 2.342165 1_555
Dy1 O19 2.466783 1_555
Dy1 O21 2.478252 1_555
Dy1 O6 2.592269 1_555
Dy1 O8 2.611119 1_555
Dy2 O11 2.279857 1_665
Dy2 O19 2.287278 1_565
Dy2 O21 2.333614 1_565
Dy2 O1 2.340003 1_655
Dy2 O16 2.426964 1_555
Dy2 O17 2.501167 1_555
Dy2 O2 2.597316 1_655
Dy2 O5 2.686016 1_655
Mn0 O6 1.939173 1_555
Mn0 O17 1.953944 1_455
Mn0 O1 1.994607 1_555
Mn0 O23 2.012240 1_455
Mn0 O5 2.109903 1_555
Mn0 O19 2.125116 1_455
Mn1 O5 1.911237 1_545
Mn1 O19 1.938255 1_555
Mn1 O12 2.031768 1_545
Mn1 O11 2.036834 1_555
Mn1 O6 2.103275 1_555
Mn1 O17 2.146672 1_545
Mn2 O11 1.948229 1_565
Mn2 O13 1.970175 1_555
Mn2 O2 2.007165 1_555
Mn2 O21 2.074629 1_565
Mn2 O8 2.128841 1_565
Mn2 O16 2.148054 1_555
O0 Ti0 1.965960 1_456
O0 Ti1 1.991546 1_555
O1 Ti2 2.010432 1_555
O2 Ti2 1.972363 1_555
O3 Ti0 1.920033 1_455
O3 Ti4 2.125373 1_565
O4 Ti1 1.913731 1_555
O4 Ti3 2.066384 1_555
O7 Ti1 1.926778 1_555
O7 Ti3 2.078789 1_545
O8 Ti2 1.876645 1_555
O9 Ti4 1.924305 1_555
O9 Ti0 2.137121 1_455
O10 Ti4 1.963101 1_556
O10 Ti3 2.024306 1_545
O12 Ti4 1.933090 1_565
O13 Ti3 1.937336 1_555
O14 Ti0 1.884288 1_556
O14 Ti4 2.136308 1_566
O15 Ti3 1.942499 1_555
O15 Ti1 2.062093 1_655
O16 Ti2 1.995936 1_655
O18 Ti3 1.902615 1_545
O18 Ti1 2.084463 1_655
O20 Ti4 1.888985 1_556
O20 Ti0 2.085403 1_556
O21 Ti2 2.032287 1_655
O22 Ti1 1.956921 1_655
O22 Ti2 1.976457 1_655
O23 Ti0 1.964211 1_555
