# generated using pymatgen
data_LiCr4P7O24
_symmetry_space_group_name_H-M   'P 1'
_cell_length_a   10.10565600
_cell_length_b   10.24542758
_cell_length_c   10.69402661
_cell_angle_alpha   108.73040127
_cell_angle_beta   111.32738480
_cell_angle_gamma   104.92343008
_symmetry_Int_Tables_number   1
_chemical_formula_structural   LiCr4P7O24
_chemical_formula_sum   'Li2 Cr8 P14 O48'
_cell_volume   884.48934758
_cell_formula_units_Z   2
loop_
 _symmetry_equiv_pos_site_id
 _symmetry_equiv_pos_as_xyz
  1  'x, y, z'
loop_
 _atom_site_type_symbol
 _atom_site_label
 _atom_site_symmetry_multiplicity
 _atom_site_fract_x
 _atom_site_fract_y
 _atom_site_fract_z
 _atom_site_occupancy
  Li  Li0  1  0.55201300  0.24580200  0.67118200  1
  Li  Li1  1  0.44798700  0.75419800  0.32881800  1
  Cr  Cr0  1  0.51166400  0.66354600  0.88443200  1
  Cr  Cr1  1  0.00312900  0.38775400  0.07472200  1
  Cr  Cr2  1  0.98625700  0.83089500  0.41232800  1
  Cr  Cr3  1  0.50016400  0.10488100  0.25560100  1
  Cr  Cr4  1  0.01374300  0.16910500  0.58767200  1
  Cr  Cr5  1  0.99687100  0.61224600  0.92527800  1
  Cr  Cr6  1  0.49983600  0.89511900  0.74439900  1
  Cr  Cr7  1  0.48833600  0.33645400  0.11556800  1
  P  P0  1  0.74777500  0.54064700  0.05099300  1
  P  P1  1  0.73400100  0.17954600  0.11671200  1
  P  P2  1  0.25222500  0.45935300  0.94900700  1
  P  P3  1  0.80666600  0.37436100  0.56671200  1
  P  P4  1  0.24907200  0.39134300  0.52274500  1
  P  P5  1  0.19812600  0.93989600  0.26115800  1
  P  P6  1  0.26599900  0.82045400  0.88328800  1
  P  P7  1  0.19333400  0.62563900  0.43328800  1
  P  P8  1  0.26200300  0.03610100  0.75848800  1
  P  P9  1  0.73799700  0.96389900  0.24151200  1
  P  P10  1  0.75092800  0.60865700  0.47725500  1
  P  P11  1  0.22636700  0.21974300  0.22526600  1
  P  P12  1  0.80187400  0.06010400  0.73884200  1
  P  P13  1  0.77363300  0.78025700  0.77473400  1
  O  O0  1  0.34738900  0.43586400  0.08331100  1
  O  O1  1  0.11218600  0.25715000  0.12653100  1
  O  O2  1  0.86752700  0.21063800  0.87373000  1
  O  O3  1  0.65261100  0.56413600  0.91668900  1
  O  O4  1  0.86377700  0.94437900  0.79711600  1
  O  O5  1  0.33630300  0.17509600  0.90638100  1
  O  O6  1  0.62135600  0.98098800  0.65786100  1
  O  O7  1  0.66369700  0.82490400  0.09361900  1
  O  O8  1  0.12676100  0.50053400  0.99083700  1
  O  O9  1  0.91192400  0.30230700  0.53689500  1
  O  O10  1  0.13622300  0.05562100  0.20288400  1
  O  O11  1  0.88187100  0.97494800  0.37230300  1
  O  O12  1  0.63465900  0.78074200  0.80276500  1
  O  O13  1  0.37048300  0.72478600  0.53434600  1
  O  O14  1  0.81486800  0.10749500  0.21944900  1
  O  O15  1  0.30986500  0.33908000  0.40137400  1
  O  O16  1  0.13247300  0.78936200  0.12627000  1
  O  O17  1  0.08807600  0.69769300  0.46310500  1
  O  O18  1  0.18513200  0.89250500  0.78055100  1
  O  O19  1  0.87006100  0.32092200  0.16019900  1
  O  O20  1  0.69013500  0.66092000  0.59862600  1
  O  O21  1  0.12993900  0.67907800  0.83980100  1
  O  O22  1  0.63301900  0.40351700  0.04401800  1
  O  O23  1  0.83520300  0.67867800  0.20506300  1
  O  O24  1  0.36698100  0.59648300  0.95598200  1
  O  O25  1  0.16689100  0.56430500  0.27170400  1
  O  O26  1  0.60480400  0.50729600  0.32781100  1
  O  O27  1  0.35678700  0.93666600  0.04697800  1
  O  O28  1  0.85133100  0.06478400  0.62322200  1
  O  O29  1  0.62282900  0.98786600  0.29893900  1
  O  O30  1  0.14866900  0.93521600  0.37677800  1
  O  O31  1  0.87323900  0.49946600  0.00916300  1
  O  O32  1  0.88781400  0.74285000  0.87346900  1
  O  O33  1  0.84919200  0.51988300  0.53045600  1
  O  O34  1  0.37717100  0.01213400  0.70106100  1
  O  O35  1  0.62151600  0.22004000  0.17762200  1
  O  O36  1  0.39519600  0.49270400  0.67218900  1
  O  O37  1  0.36534100  0.21925800  0.19723500  1
  O  O38  1  0.11812900  0.02505200  0.62769700  1
  O  O39  1  0.15080800  0.48011700  0.46954400  1
  O  O40  1  0.37848400  0.77996000  0.82237800  1
  O  O41  1  0.16479700  0.32132200  0.79493700  1
  O  O42  1  0.85324900  0.75463800  0.49383300  1
  O  O43  1  0.37864400  0.01901200  0.34213900  1
  O  O44  1  0.62951700  0.27521400  0.46565400  1
  O  O45  1  0.14675100  0.24536200  0.50616700  1
  O  O46  1  0.83310900  0.43569500  0.72829600  1
  O  O47  1  0.64321300  0.06333400  0.95302200  1
loop_
_geom_bond_atom_site_label_1
_geom_bond_atom_site_label_2
_geom_bond_distance
_geom_bond_site_symmetry_2
Li0 O44 2.662912 1_555
Li0 O46 2.712158 1_555
Li0 O34 2.771036 1_555
Li1 O13 2.662912 1_555
Li1 O25 2.712158 1_555
Li1 O29 2.771036 1_555
Cr0 O3 1.949507 1_555
Cr0 O24 1.956867 1_555
Cr0 O7 1.978517 1_556
Cr0 O36 2.011208 1_555
Cr0 O40 2.088002 1_555
Cr0 O12 2.108028 1_555
Cr1 O2 1.965322 1_454
Cr1 O25 1.980754 1_555
Cr1 O19 1.983578 1_455
Cr1 O1 2.025734 1_555
Cr1 O31 2.035734 1_455
Cr1 O8 2.106708 1_554
Cr2 O23 1.941114 1_555
Cr2 O30 1.947306 1_655
Cr2 O42 1.981279 1_555
Cr2 O17 2.002197 1_655
Cr2 O11 2.086480 1_555
Cr2 O38 2.120650 1_665
Cr3 O29 1.973094 1_545
Cr3 O43 1.982825 1_555
Cr3 O27 1.984982 1_545
Cr3 O44 1.992911 1_555
Cr3 O35 2.054725 1_555
Cr3 O37 2.071868 1_555
Cr4 O41 1.941114 1_555
Cr4 O28 1.947306 1_455
Cr4 O45 1.981279 1_555
Cr4 O9 2.002197 1_455
Cr4 O38 2.086480 1_555
Cr4 O11 2.120650 1_445
Cr5 O16 1.965322 1_656
Cr5 O46 1.980754 1_555
Cr5 O21 1.983578 1_655
Cr5 O32 2.025734 1_555
Cr5 O8 2.035734 1_655
Cr5 O31 2.106708 1_556
Cr6 O34 1.973094 1_565
Cr6 O6 1.982825 1_555
Cr6 O47 1.984982 1_565
Cr6 O13 1.992911 1_555
Cr6 O40 2.054725 1_555
Cr6 O12 2.071868 1_555
Cr7 O0 1.949507 1_555
Cr7 O22 1.956867 1_555
Cr7 O5 1.978517 1_554
Cr7 O26 2.011208 1_555
Cr7 O35 2.088002 1_555
Cr7 O37 2.108028 1_555
O0 P2 1.543396 1_554
O1 P11 1.481425 1_555
O2 P12 1.499215 1_555
O3 P0 1.543396 1_556
O4 P13 1.583840 1_555
O4 P12 1.660858 1_565
O5 P8 1.494024 1_555
O6 P12 1.540558 1_565
O7 P9 1.494024 1_555
O8 P2 1.597670 1_555
O9 P3 1.509336 1_555
O10 P11 1.583840 1_555
O10 P5 1.660858 1_545
O11 P9 1.554794 1_555
O12 P13 1.539856 1_555
O13 P7 1.534825 1_555
O14 P9 1.609714 1_545
O14 P1 1.611938 1_555
O15 P11 1.608603 1_555
O15 P4 1.628469 1_555
O16 P5 1.499215 1_555
O17 P7 1.509336 1_555
O18 P8 1.609714 1_565
O18 P6 1.611938 1_555
O19 P1 1.510413 1_555
O20 P13 1.608603 1_555
O20 P10 1.628469 1_555
O21 P6 1.510413 1_555
O22 P0 1.534576 1_555
O23 P0 1.515375 1_555
O24 P2 1.534576 1_555
O25 P7 1.527245 1_555
O26 P10 1.496926 1_555
O27 P6 1.501412 1_554
O28 P12 1.502040 1_555
O29 P9 1.536958 1_555
O30 P5 1.502040 1_555
O31 P0 1.597670 1_555
O32 P13 1.481425 1_555
O33 P10 1.588580 1_555
O33 P3 1.649347 1_555
O34 P8 1.536958 1_555
O35 P1 1.580036 1_555
O36 P4 1.496926 1_555
O37 P11 1.539856 1_555
O38 P8 1.554794 1_555
O39 P4 1.588580 1_555
O39 P7 1.649347 1_555
O40 P6 1.580036 1_555
O41 P2 1.515375 1_555
O42 P10 1.495788 1_555
O43 P5 1.540558 1_545
O44 P3 1.534825 1_555
O45 P4 1.495788 1_555
O46 P3 1.527245 1_555
O47 P1 1.501412 1_556
