# generated using pymatgen
data_Li6V5SbO12
_symmetry_space_group_name_H-M   'P 1'
_cell_length_a   5.39475169
_cell_length_b   10.56000889
_cell_length_c   9.07472682
_cell_angle_alpha   90.00007666
_cell_angle_beta   89.99948744
_cell_angle_gamma   80.69644880
_symmetry_Int_Tables_number   1
_chemical_formula_structural   Li6V5SbO12
_chemical_formula_sum   'Li12 V10 Sb2 O24'
_cell_volume   510.17427571
_cell_formula_units_Z   2
loop_
 _symmetry_equiv_pos_site_id
 _symmetry_equiv_pos_as_xyz
  1  'x, y, z'
loop_
 _atom_site_type_symbol
 _atom_site_label
 _atom_site_symmetry_multiplicity
 _atom_site_fract_x
 _atom_site_fract_y
 _atom_site_fract_z
 _atom_site_occupancy
  Li  Li0  1  0.26343800  0.71145900  0.49995200  1
  Li  Li1  1  0.76344200  0.71142000  0.00001400  1
  Li  Li2  1  0.73683300  0.28851900  0.50000800  1
  Li  Li3  1  0.23683000  0.28856800  0.99995000  1
  Li  Li4  1  0.23623500  0.28435300  0.33408400  1
  Li  Li5  1  0.73619500  0.28436800  0.83402700  1
  Li  Li6  1  0.76396000  0.71561500  0.33409200  1
  Li  Li7  1  0.26391300  0.71564700  0.83408200  1
  Li  Li8  1  0.23620500  0.28436400  0.66592300  1
  Li  Li9  1  0.73623400  0.28436000  0.16590000  1
  Li  Li10  1  0.76388500  0.71565900  0.66585300  1
  Li  Li11  1  0.26394800  0.71560200  0.16587800  1
  V  V0  1  0.50009600  0.49999400  0.99996400  1
  V  V1  1  0.50008900  0.50007300  0.67055200  1
  V  V2  1  0.50019400  0.50002200  0.32942000  1
  V  V3  1  0.99972100  0.00000300  0.33967100  1
  V  V4  1  0.99977900  0.00000600  0.66031700  1
  V  V5  1  0.00011600  0.49999100  0.49997600  1
  V  V6  1  0.00017300  0.50002500  0.17056400  1
  V  V7  1  0.00010200  0.50007200  0.82940700  1
  V  V8  1  0.49982000  0.99999600  0.83962900  1
  V  V9  1  0.49983600  0.99993500  0.16038200  1
  Sb  Sb0  1  0.99987100  0.99994400  0.00002300  1
  Sb  Sb1  1  0.49981600  0.99995400  0.50003100  1
  O  O0  1  0.38182500  0.39107100  0.49999000  1
  O  O1  1  0.88181000  0.39109100  0.99998500  1
  O  O2  1  0.61840900  0.60901300  0.49997100  1
  O  O3  1  0.11840300  0.60899000  0.00000100  1
  O  O4  1  0.21667500  0.89355400  0.50023100  1
  O  O5  1  0.71669500  0.89355200  0.99989200  1
  O  O6  1  0.78302400  0.10635700  0.50022800  1
  O  O7  1  0.28293000  0.10638800  0.99989700  1
  O  O8  1  0.30873300  0.10242800  0.33833900  1
  O  O9  1  0.80865600  0.10239200  0.83822700  1
  O  O10  1  0.69090200  0.89748700  0.33834900  1
  O  O11  1  0.19100600  0.89754500  0.83823200  1
  O  O12  1  0.30862700  0.10238400  0.66182600  1
  O  O13  1  0.80866000  0.10244800  0.16170200  1
  O  O14  1  0.69098200  0.89755200  0.66184100  1
  O  O15  1  0.19101500  0.89746600  0.16167800  1
  O  O16  1  0.12867500  0.61405700  0.32648300  1
  O  O17  1  0.62852000  0.61410100  0.82647600  1
  O  O18  1  0.87169000  0.38596900  0.32651200  1
  O  O19  1  0.37159200  0.38604500  0.82648900  1
  O  O20  1  0.12853500  0.61411300  0.67348100  1
  O  O21  1  0.62867300  0.61405100  0.17351700  1
  O  O22  1  0.87158800  0.38602200  0.67347200  1
  O  O23  1  0.37169200  0.38597600  0.17348600  1
loop_
_geom_bond_atom_site_label_1
_geom_bond_atom_site_label_2
_geom_bond_distance
_geom_bond_site_symmetry_2
Li0 O4 1.898536 1_555
Li0 O2 2.041487 1_555
Li0 O16 2.075174 1_555
Li0 O20 2.075578 1_555
Li1 O5 1.898925 1_554
Li1 O3 2.041377 1_655
Li1 O21 2.075222 1_555
Li1 O17 2.075534 1_554
Li2 O6 1.899335 1_555
Li2 O0 2.042081 1_555
Li2 O22 2.075710 1_555
Li2 O18 2.075850 1_555
Li3 O7 1.899538 1_555
Li3 O1 2.042020 1_455
Li3 O19 2.075546 1_555
Li3 O23 2.075900 1_556
Li4 O8 1.897961 1_555
Li4 O23 2.015724 1_555
Li4 O18 2.083626 1_455
Li4 O0 2.107078 1_555
Li5 O9 1.898470 1_555
Li5 O22 2.015480 1_555
Li5 O19 2.084118 1_555
Li5 O1 2.107509 1_555
Li6 O10 1.897544 1_555
Li6 O21 2.014801 1_555
Li6 O16 2.084203 1_655
Li6 O2 2.106070 1_555
Li7 O11 1.897757 1_555
Li7 O20 2.015004 1_555
Li7 O17 2.083655 1_555
Li7 O3 2.106573 1_556
Li8 O12 1.898483 1_555
Li8 O19 2.015714 1_555
Li8 O22 2.084113 1_455
Li8 O0 2.107250 1_555
Li9 O13 1.897799 1_555
Li9 O18 2.015733 1_555
Li9 O23 2.083615 1_555
Li9 O1 2.107176 1_554
Li10 O14 1.897681 1_555
Li10 O17 2.015259 1_555
Li10 O20 2.083862 1_655
Li10 O2 2.106188 1_555
Li11 O15 1.897421 1_555
Li11 O16 2.014838 1_555
Li11 O21 2.084233 1_555
Li11 O3 2.106113 1_555
O0 V2 2.089242 1_555
O0 V1 2.089294 1_555
O0 V5 2.190331 1_555
O1 V6 2.089188 1_656
O1 V7 2.089322 1_655
O1 V0 2.190287 1_555
O2 V2 2.089046 1_555
O2 V1 2.089142 1_555
O2 V5 2.190724 1_655
O3 V6 2.088988 1_555
O3 V7 2.089056 1_554
O3 V0 2.190557 1_554
O4 Sb1 2.037288 1_555
O4 V4 2.077963 1_465
O4 V3 2.081123 1_465
O5 Sb0 2.037389 1_556
O5 V8 2.079011 1_555
O5 V9 2.080105 1_556
O6 Sb1 2.037612 1_545
O6 V4 2.077157 1_555
O6 V3 2.079978 1_555
O7 Sb0 2.037229 1_446
O7 V8 2.078817 1_545
O7 V9 2.080543 1_546
O8 Sb1 2.006488 1_545
O8 V9 2.116936 1_545
O8 V3 2.128861 1_455
O9 Sb0 2.007357 1_546
O9 V4 2.116166 1_555
O9 V8 2.127849 1_545
O10 Sb1 2.006380 1_555
O10 V9 2.116736 1_555
O10 V3 2.128570 1_565
O11 Sb0 2.006888 1_456
O11 V4 2.116786 1_465
O11 V8 2.128115 1_555
O12 Sb1 2.007188 1_545
O12 V8 2.115604 1_545
O12 V4 2.127790 1_455
O13 Sb0 2.006826 1_545
O13 V3 2.116725 1_555
O13 V9 2.128573 1_545
O14 Sb1 2.007116 1_555
O14 V8 2.115671 1_555
O14 V4 2.128062 1_565
O15 Sb0 2.006403 1_455
O15 V3 2.117803 1_465
O15 V9 2.128263 1_555
O16 V6 2.050013 1_555
O16 V5 2.163504 1_555
O16 V2 2.165062 1_555
O17 V1 2.049851 1_555
O17 V0 2.163436 1_555
O17 V7 2.165320 1_655
O18 V6 2.050306 1_655
O18 V5 2.162742 1_655
O18 V2 2.165032 1_555
O19 V1 2.050080 1_555
O19 V0 2.162518 1_555
O19 V7 2.164894 1_555
O20 V7 2.049950 1_555
O20 V5 2.163640 1_555
O20 V1 2.165240 1_555
O21 V2 2.049832 1_555
O21 V0 2.163889 1_554
O21 V6 2.164939 1_655
O22 V7 2.050263 1_655
O22 V5 2.162832 1_655
O22 V1 2.165039 1_555
O23 V2 2.050201 1_555
O23 V0 2.163044 1_554
O23 V6 2.165120 1_555
