# generated using pymatgen
data_V8CuO20
_symmetry_space_group_name_H-M   'P 1'
_cell_length_a   9.50358600
_cell_length_b   11.04447701
_cell_length_c   12.01990450
_cell_angle_alpha   113.73911789
_cell_angle_beta   85.21399014
_cell_angle_gamma   104.55274805
_symmetry_Int_Tables_number   1
_chemical_formula_structural   V8CuO20
_chemical_formula_sum   'V24 Cu3 O60'
_cell_volume   1117.60926239
_cell_formula_units_Z   3
loop_
 _symmetry_equiv_pos_site_id
 _symmetry_equiv_pos_as_xyz
  1  'x, y, z'
loop_
 _atom_site_type_symbol
 _atom_site_label
 _atom_site_symmetry_multiplicity
 _atom_site_fract_x
 _atom_site_fract_y
 _atom_site_fract_z
 _atom_site_occupancy
  V  V0  1  0.08323800  0.88201400  0.02526000  1
  V  V1  1  0.15727100  0.59187200  0.01277200  1
  V  V2  1  0.36705400  0.90806500  0.20039800  1
  V  V3  1  0.11862200  0.90254600  0.45450500  1
  V  V4  1  0.12980000  0.09198400  0.29576800  1
  V  V5  1  0.38082600  0.10130100  0.04799900  1
  V  V6  1  0.58170100  0.88194200  0.52455600  1
  V  V7  1  0.33290100  0.88348300  0.77689300  1
  V  V8  1  0.83393500  0.87583300  0.27686000  1
  V  V9  1  0.09913300  0.40412200  0.74001600  1
  V  V10  1  0.59685100  0.40530100  0.24088300  1
  V  V11  1  0.34394900  0.40600800  0.48746500  1
  V  V12  1  0.65708300  0.59293200  0.51433200  1
  V  V13  1  0.40746600  0.59069100  0.76117700  1
  V  V14  1  0.90161400  0.59514000  0.26021900  1
  V  V15  1  0.67088400  0.11508600  0.22409300  1
  V  V16  1  0.41813800  0.12064700  0.47462600  1
  V  V17  1  0.16651100  0.11781100  0.72410000  1
  V  V18  1  0.86856100  0.90622000  0.70295300  1
  V  V19  1  0.62101000  0.89830900  0.94972700  1
  V  V20  1  0.63077100  0.09974200  0.79894400  1
  V  V21  1  0.87913800  0.09854200  0.54648000  1
  V  V22  1  0.84473300  0.40867700  0.98779900  1
  V  V23  1  0.91554900  0.11621200  0.97467900  1
  Cu  Cu0  1  0.01899800  0.36329200  0.28599300  1
  Cu  Cu1  1  0.48492200  0.64188500  0.21499500  1
  Cu  Cu2  1  0.97398600  0.63448700  0.71438800  1
  O  O0  1  0.00156900  0.91696500  0.17766100  1
  O  O1  1  0.21620600  0.77951300  0.08251800  1
  O  O2  1  0.00038700  0.26908800  0.06921200  1
  O  O3  1  0.49596100  0.95101600  0.08716600  1
  O  O4  1  0.23647600  0.95246500  0.33163600  1
  O  O5  1  0.26752600  0.54350100  0.07217700  1
  O  O6  1  0.01333500  0.53676400  0.31354900  1
  O  O7  1  0.43362100  0.79407400  0.22209600  1
  O  O8  1  0.18864000  0.79157000  0.46919600  1
  O  O9  1  0.30902400  0.20988500  0.03150900  1
  O  O10  1  0.06362800  0.20839400  0.27669500  1
  O  O11  1  0.48705100  0.46518200  0.18735700  1
  O  O12  1  0.23239200  0.45702400  0.43140600  1
  O  O13  1  0.00166500  0.00092500  0.99819100  1
  O  O14  1  0.74964200  0.00446800  0.25124800  1
  O  O15  1  0.49737400  0.99980200  0.50086100  1
  O  O16  1  0.25043100  0.00035000  0.74996000  1
  O  O17  1  0.00194300  0.04854400  0.41696200  1
  O  O18  1  0.26561500  0.04613200  0.16087800  1
  O  O19  1  0.23172300  0.73111400  0.69845700  1
  O  O20  1  0.72471200  0.72455100  0.19929300  1
  O  O21  1  0.49619900  0.73042900  0.42829100  1
  O  O22  1  0.53579600  0.22138300  0.16383200  1
  O  O23  1  0.03449000  0.21892800  0.66568000  1
  O  O24  1  0.28878700  0.22278100  0.41886800  1
  O  O25  1  0.74706000  0.92457900  0.44089000  1
  O  O26  1  0.25451600  0.92375100  0.93513000  1
  O  O27  1  0.50082200  0.91966400  0.68547000  1
  O  O28  1  0.26870900  0.42414300  0.64751200  1
  O  O29  1  0.02110900  0.42387500  0.89760300  1
  O  O30  1  0.76805000  0.42774000  0.14596600  1
  O  O31  1  0.52042600  0.42439300  0.39610800  1
  O  O32  1  0.23310700  0.57165000  0.85528000  1
  O  O33  1  0.98114800  0.57683400  0.10286100  1
  O  O34  1  0.73309300  0.57325500  0.35408400  1
  O  O35  1  0.48054900  0.57354700  0.60379600  1
  O  O36  1  0.49663900  0.08015300  0.31574300  1
  O  O37  1  0.74796200  0.07604300  0.06296200  1
  O  O38  1  0.24741400  0.07868500  0.56392300  1
  O  O39  1  0.46410800  0.77915200  0.83591200  1
  O  O40  1  0.96433400  0.77959100  0.33364600  1
  O  O41  1  0.70966200  0.77549800  0.58262200  1
  O  O42  1  0.77023500  0.27123900  0.30059200  1
  O  O43  1  0.51169000  0.26957900  0.56059800  1
  O  O44  1  0.25743700  0.26970900  0.80794200  1
  O  O45  1  0.99298400  0.94647000  0.57997900  1
  O  O46  1  0.73855400  0.95110300  0.83935300  1
  O  O47  1  0.77011100  0.54349000  0.57047500  1
  O  O48  1  0.51624700  0.53963700  0.81606700  1
  O  O49  1  0.93885400  0.79203000  0.72168600  1
  O  O50  1  0.68965500  0.79009000  0.97010300  1
  O  O51  1  0.81141900  0.20964400  0.53031400  1
  O  O52  1  0.56353000  0.20724600  0.77681300  1
  O  O53  1  0.73744700  0.46114000  0.93252600  1
  O  O54  1  0.98889500  0.46357000  0.68635300  1
  O  O55  1  0.50622500  0.05154400  0.91385700  1
  O  O56  1  0.75936300  0.04736000  0.66749700  1
  O  O57  1  0.99780900  0.73015500  0.92964300  1
  O  O58  1  0.78424300  0.22064600  0.91512400  1
  O  O59  1  0.99915100  0.08280100  0.81563200  1
loop_
_geom_bond_atom_site_label_1
_geom_bond_atom_site_label_2
_geom_bond_distance
_geom_bond_site_symmetry_2
Cu0 O6 1.822420 1_555
Cu0 O10 1.822612 1_555
Cu0 O42 2.349491 1_455
Cu0 O2 2.388520 1_555
Cu0 O12 2.513778 1_555
Cu1 O7 1.832923 1_555
Cu1 O11 1.848298 1_555
Cu1 O20 2.254727 1_555
Cu1 O21 2.348489 1_555
Cu1 O5 2.521494 1_555
Cu2 O49 1.819580 1_555
Cu2 O54 1.819693 1_555
Cu2 O57 2.374542 1_555
Cu2 O47 2.436671 1_555
Cu2 O19 2.438826 1_655
O0 V0 1.857700 1_555
O0 V8 1.980298 1_455
O0 V4 2.032827 1_565
O1 V1 1.845953 1_555
O1 V2 1.942932 1_555
O1 V0 2.200791 1_555
O2 V23 1.648047 1_454
O3 V2 1.878249 1_555
O3 V19 1.930305 1_554
O3 V15 2.301614 1_565
O3 V5 2.408675 1_565
O4 V2 1.903993 1_555
O4 V3 1.951623 1_555
O4 V4 2.231810 1_565
O4 V16 2.387049 1_565
O5 V1 1.614459 1_555
O6 V14 1.656576 1_455
O7 V2 1.656924 1_555
O8 V3 1.606231 1_555
O9 V5 1.602604 1_555
O10 V4 1.663949 1_555
O11 V10 1.655789 1_555
O12 V11 1.618828 1_555
O13 V23 1.795251 1_455
O13 V0 1.824671 1_546
O14 V15 1.726481 1_555
O14 V8 1.928773 1_545
O15 V6 1.810701 1_555
O15 V16 1.825213 1_565
O16 V7 1.808933 1_545
O16 V17 1.817046 1_555
O17 V21 1.849097 1_455
O17 V4 1.950159 1_555
O17 V8 2.314220 1_445
O17 V3 2.366688 1_545
O18 V5 1.869079 1_555
O18 V4 1.967089 1_555
O18 V2 2.208766 1_545
O18 V0 2.336781 1_545
O19 V7 1.645010 1_555
O20 V8 1.665555 1_555
O21 V6 1.647406 1_555
O22 V10 1.817468 1_555
O22 V5 1.933994 1_555
O22 V15 2.269005 1_555
O23 V9 1.829752 1_555
O23 V21 1.957831 1_455
O23 V17 2.190224 1_555
O24 V11 1.801495 1_555
O24 V4 2.028383 1_555
O24 V16 2.162361 1_555
O25 V6 1.856986 1_555
O25 V8 1.988947 1_555
O25 V21 1.992084 1_565
O26 V7 1.902447 1_555
O26 V0 1.940740 1_556
O26 V5 2.018332 1_566
O27 V7 1.911660 1_555
O27 V6 1.941507 1_555
O27 V20 2.050299 1_565
O28 V9 1.897957 1_555
O28 V11 1.945360 1_555
O28 V13 2.011793 1_555
O29 V9 1.923422 1_555
O29 V22 1.927458 1_455
O29 V1 2.014396 1_556
O30 V22 1.927029 1_554
O30 V10 1.930147 1_555
O30 V14 1.995657 1_555
O31 V10 1.893999 1_555
O31 V11 1.939330 1_555
O31 V12 2.033297 1_555
O32 V1 1.914607 1_556
O32 V13 1.942431 1_555
O32 V9 2.002646 1_555
O33 V1 1.924690 1_655
O33 V14 1.928740 1_555
O33 V22 2.015901 1_554
O34 V14 1.902590 1_555
O34 V12 1.946493 1_555
O34 V10 2.005888 1_555
O35 V13 1.911870 1_555
O35 V12 1.928916 1_555
O35 V11 2.019142 1_555
O36 V16 1.909455 1_555
O36 V15 1.954824 1_555
O36 V2 2.009532 1_545
O37 V23 1.897741 1_554
O37 V15 1.929562 1_555
O37 V19 2.023395 1_544
O38 V16 1.931670 1_555
O38 V17 1.932565 1_555
O38 V3 2.006077 1_545
O39 V13 1.855085 1_555
O39 V19 1.931736 1_555
O39 V7 2.216682 1_555
O40 V14 1.820500 1_555
O40 V3 1.967465 1_655
O40 V8 2.125742 1_555
O41 V12 1.794055 1_555
O41 V18 2.011057 1_555
O41 V6 2.206539 1_555
O42 V15 1.661648 1_555
O43 V16 1.616712 1_555
O44 V17 1.622443 1_555
O45 V3 1.826783 1_655
O45 V18 1.937512 1_555
O45 V17 2.360213 1_665
O45 V21 2.384126 1_565
O46 V19 1.842868 1_555
O46 V18 1.943112 1_555
O46 V23 2.308127 1_565
O46 V20 2.355890 1_565
O47 V12 1.618597 1_555
O48 V13 1.590064 1_555
O49 V18 1.662726 1_555
O50 V19 1.602602 1_555
O51 V21 1.602290 1_555
O52 V20 1.597757 1_555
O53 V22 1.592669 1_555
O54 V9 1.656549 1_655
O55 V20 1.895978 1_555
O55 V5 1.901855 1_556
O55 V7 2.307490 1_545
O55 V19 2.415343 1_545
O56 V20 1.903069 1_555
O56 V21 1.947698 1_555
O56 V18 2.260566 1_545
O56 V6 2.355232 1_545
O57 V0 1.646952 1_656
O58 V22 1.851889 1_555
O58 V20 1.928802 1_555
O58 V23 2.221976 1_555
O59 V17 1.905563 1_655
O59 V23 1.935984 1_555
O59 V18 2.028675 1_545
