# generated using pymatgen
data_CaGeO3
_symmetry_space_group_name_H-M   'P 1'
_cell_length_a   6.89401900
_cell_length_b   6.95097452
_cell_length_c   9.56673541
_cell_angle_alpha   69.97294637
_cell_angle_beta   84.05837557
_cell_angle_gamma   76.43688648
_symmetry_Int_Tables_number   1
_chemical_formula_structural   CaGeO3
_chemical_formula_sum   'Ca6 Ge6 O18'
_cell_volume   418.57112570
_cell_formula_units_Z   6
loop_
 _symmetry_equiv_pos_site_id
 _symmetry_equiv_pos_as_xyz
  1  'x, y, z'
loop_
 _atom_site_type_symbol
 _atom_site_label
 _atom_site_symmetry_multiplicity
 _atom_site_fract_x
 _atom_site_fract_y
 _atom_site_fract_z
 _atom_site_occupancy
  Ca  Ca0  1  0.42812200  0.07754000  0.66395500  1
  Ca  Ca1  1  0.90813900  0.26493100  0.35829900  1
  Ca  Ca2  1  0.26511400  0.24317700  0.99779900  1
  Ca  Ca3  1  0.73488600  0.75682300  0.00220100  1
  Ca  Ca4  1  0.09186100  0.73506900  0.64170100  1
  Ca  Ca5  1  0.57187800  0.92246000  0.33604500  1
  Ge  Ge0  1  0.89812200  0.15712300  0.70825100  1
  Ge  Ge1  1  0.45771200  0.47378600  0.30478000  1
  Ge  Ge2  1  0.22971100  0.72855400  0.00576500  1
  Ge  Ge3  1  0.77028900  0.27144600  0.99423500  1
  Ge  Ge4  1  0.54228800  0.52621400  0.69522000  1
  Ge  Ge5  1  0.10187800  0.84287700  0.29174900  1
  O  O0  1  0.24150500  0.03453900  0.25163600  1
  O  O1  1  0.61987800  0.09049100  0.06550900  1
  O  O2  1  0.09656900  0.10344200  0.58899600  1
  O  O3  1  0.55748500  0.21727100  0.41132600  1
  O  O4  1  0.89272500  0.34768600  0.10820900  1
  O  O5  1  0.36164200  0.48040500  0.13324000  1
  O  O6  1  0.35680000  0.37951100  0.73670200  1
  O  O7  1  0.97225500  0.19172200  0.87133600  1
  O  O8  1  0.24313800  0.58741300  0.39923100  1
  O  O9  1  0.75686200  0.41258700  0.60076900  1
  O  O10  1  0.02774500  0.80827800  0.12866400  1
  O  O11  1  0.64320000  0.62048900  0.26329800  1
  O  O12  1  0.63835800  0.51959500  0.86676000  1
  O  O13  1  0.10727500  0.65231400  0.89179100  1
  O  O14  1  0.44251500  0.78272900  0.58867400  1
  O  O15  1  0.90343100  0.89655800  0.41100400  1
  O  O16  1  0.38012200  0.90950900  0.93449100  1
  O  O17  1  0.75849500  0.96546100  0.74836400  1
loop_
_geom_bond_atom_site_label_1
_geom_bond_atom_site_label_2
_geom_bond_distance
_geom_bond_site_symmetry_2
Ca0 O17 2.358836 1_545
Ca0 O6 2.361674 1_555
Ca0 O14 2.372450 1_545
Ca0 O2 2.414360 1_555
Ca0 O3 2.435583 1_555
Ca0 O16 2.470968 1_545
Ca1 O4 2.268872 1_555
Ca1 O15 2.441928 1_545
Ca1 O2 2.455858 1_655
Ca1 O3 2.493516 1_555
Ca1 O11 2.637838 1_555
Ca1 O0 2.791995 1_655
Ca1 O9 2.854747 1_555
Ca2 O0 2.375607 1_556
Ca2 O6 2.422727 1_555
Ca2 O1 2.483410 1_556
Ca2 O16 2.524852 1_545
Ca2 O7 2.609342 1_455
Ca2 O5 2.645273 1_556
Ca2 O13 2.664941 1_555
Ca2 O4 2.706222 1_456
Ca3 O17 2.375607 1_554
Ca3 O11 2.422727 1_555
Ca3 O16 2.483410 1_554
Ca3 O1 2.524852 1_565
Ca3 O10 2.609342 1_655
Ca3 O12 2.645273 1_554
Ca3 O4 2.664941 1_555
Ca3 O13 2.706222 1_654
Ca4 O13 2.268872 1_555
Ca4 O2 2.441928 1_565
Ca4 O15 2.455858 1_455
Ca4 O14 2.493516 1_555
Ca4 O6 2.637838 1_555
Ca4 O17 2.791995 1_455
Ca4 O8 2.854747 1_555
Ca5 O0 2.358836 1_565
Ca5 O11 2.361674 1_555
Ca5 O3 2.372450 1_565
Ca5 O15 2.414360 1_555
Ca5 O14 2.435583 1_555
Ca5 O1 2.470968 1_565
Ge0 O17 1.738835 1_545
Ge0 O2 1.743999 1_655
Ge0 O7 1.798044 1_555
Ge0 O9 1.817827 1_555
Ge1 O3 1.736773 1_555
Ge1 O11 1.749838 1_555
Ge1 O8 1.814561 1_555
Ge1 O5 1.814640 1_555
Ge2 O13 1.725775 1_554
Ge2 O16 1.732109 1_554
Ge2 O5 1.828312 1_555
Ge2 O10 1.836727 1_555
Ge3 O4 1.725775 1_556
Ge3 O1 1.732109 1_556
Ge3 O12 1.828312 1_555
Ge3 O7 1.836727 1_555
Ge4 O14 1.736773 1_555
Ge4 O6 1.749838 1_555
Ge4 O9 1.814561 1_555
Ge4 O12 1.814640 1_555
Ge5 O0 1.738835 1_565
Ge5 O15 1.743999 1_455
Ge5 O10 1.798044 1_555
Ge5 O8 1.817827 1_555
