# generated using pymatgen
data_Li4Mn3Cr5O16
_symmetry_space_group_name_H-M   'P 1'
_cell_length_a   5.85193139
_cell_length_b   5.85193139
_cell_length_c   9.45069666
_cell_angle_alpha   89.54695882
_cell_angle_beta   89.54695882
_cell_angle_gamma   59.93629886
_symmetry_Int_Tables_number   1
_chemical_formula_structural   Li4Mn3Cr5O16
_chemical_formula_sum   'Li4 Mn3 Cr5 O16'
_cell_volume   280.08876402
_cell_formula_units_Z   1
loop_
 _symmetry_equiv_pos_site_id
 _symmetry_equiv_pos_as_xyz
  1  'x, y, z'
loop_
 _atom_site_type_symbol
 _atom_site_label
 _atom_site_symmetry_multiplicity
 _atom_site_fract_x
 _atom_site_fract_y
 _atom_site_fract_z
 _atom_site_occupancy
  Li  Li0  1  0.67024800  0.67024800  0.89234400  1
  Li  Li1  1  0.99681100  0.99681100  0.99874900  1
  Li  Li2  1  0.99929500  0.99929500  0.49611400  1
  Li  Li3  1  0.33573100  0.33573100  0.39154600  1
  Mn  Mn0  1  0.82986000  0.82986000  0.21527800  1
  Mn  Mn1  1  0.66195900  0.16929100  0.71443400  1
  Mn  Mn2  1  0.16929100  0.66195900  0.71443400  1
  Cr  Cr0  1  0.83029400  0.33765200  0.21115900  1
  Cr  Cr1  1  0.66325600  0.66325600  0.48660300  1
  Cr  Cr2  1  0.33765200  0.83029400  0.21115900  1
  Cr  Cr3  1  0.16885100  0.16885100  0.71390800  1
  Cr  Cr4  1  0.33170800  0.33170800  0.98613800  1
  O  O0  1  0.83248000  0.32259600  0.60050300  1
  O  O1  1  0.52070800  0.52070800  0.33870200  1
  O  O2  1  0.67265400  0.67265400  0.10390500  1
  O  O3  1  0.99503700  0.99503700  0.31001400  1
  O  O4  1  0.99512000  0.99512000  0.81153000  1
  O  O5  1  0.32259600  0.83248000  0.60050300  1
  O  O6  1  0.96161900  0.52174200  0.33829900  1
  O  O7  1  0.52174200  0.96161900  0.33829900  1
  O  O8  1  0.16434100  0.16434100  0.10321400  1
  O  O9  1  0.83768000  0.83768000  0.60382500  1
  O  O10  1  0.48650200  0.03946500  0.83933000  1
  O  O11  1  0.03946500  0.48650200  0.83933000  1
  O  O12  1  0.33890700  0.33890700  0.60769700  1
  O  O13  1  0.67208100  0.16263100  0.10191900  1
  O  O14  1  0.48188900  0.48188900  0.83703500  1
  O  O15  1  0.16263100  0.67208100  0.10191900  1
loop_
_geom_bond_atom_site_label_1
_geom_bond_atom_site_label_2
_geom_bond_distance
_geom_bond_site_symmetry_2
Li0 O11 1.933707 1_655
Li0 O10 1.933707 1_565
Li0 O14 1.984627 1_555
Li0 O2 1.999770 1_556
Li1 O4 1.769590 1_555
Li1 O15 1.908284 1_656
Li1 O13 1.908284 1_566
Li1 O8 1.972450 1_666
Li2 O3 1.759698 1_555
Li2 O0 1.915591 1_565
Li2 O5 1.915591 1_655
Li2 O9 1.921163 1_555
Li3 O1 1.936443 1_555
Li3 O7 1.962688 1_545
Li3 O6 1.962688 1_455
Li3 O12 2.043325 1_555
Mn0 O3 1.906238 1_555
Mn0 O2 1.918096 1_555
Mn0 O6 1.945619 1_555
Mn0 O7 1.945619 1_555
Mn0 O15 1.993388 1_655
Mn0 O13 1.993388 1_565
Mn1 O4 1.924706 1_545
Mn1 O12 1.926379 1_555
Mn1 O10 1.942393 1_555
Mn1 O0 1.955665 1_555
Mn1 O14 1.970308 1_555
Mn1 O9 1.982844 1_545
Mn2 O4 1.924706 1_455
Mn2 O12 1.926379 1_555
Mn2 O11 1.942393 1_555
Mn2 O5 1.955665 1_555
Mn2 O14 1.970308 1_555
Mn2 O9 1.982844 1_455
Cr0 O3 1.967255 1_545
Cr0 O8 1.972073 1_655
Cr0 O2 1.973081 1_555
Cr0 O1 1.980921 1_555
Cr0 O13 1.988461 1_555
Cr0 O6 2.014808 1_555
Cr1 O1 2.019789 1_555
Cr1 O0 2.029400 1_555
Cr1 O5 2.029400 1_555
Cr1 O6 2.056620 1_555
Cr1 O7 2.056620 1_555
Cr1 O9 2.095387 1_555
Cr2 O3 1.967255 1_455
Cr2 O8 1.972073 1_565
Cr2 O2 1.973081 1_555
Cr2 O1 1.980921 1_555
Cr2 O15 1.988461 1_555
Cr2 O7 2.014808 1_555
Cr3 O4 1.980987 1_445
Cr3 O12 1.987176 1_555
Cr3 O10 2.011012 1_555
Cr3 O11 2.011012 1_555
Cr3 O0 2.019038 1_455
Cr3 O5 2.019038 1_545
Cr4 O8 2.017324 1_556
Cr4 O11 2.033661 1_555
Cr4 O10 2.033661 1_555
Cr4 O15 2.046084 1_556
Cr4 O13 2.046084 1_556
Cr4 O14 2.065208 1_555
