# generated using pymatgen
data_Li2AgF3
_symmetry_space_group_name_H-M   'P 1'
_cell_length_a   5.44859000
_cell_length_b   5.49929200
_cell_length_c   9.21750500
_cell_angle_alpha   90.00000000
_cell_angle_beta   90.00000000
_cell_angle_gamma   90.00000000
_symmetry_Int_Tables_number   1
_chemical_formula_structural   Li2AgF3
_chemical_formula_sum   'Li8 Ag4 F12'
_cell_volume   276.18767316
_cell_formula_units_Z   4
loop_
 _symmetry_equiv_pos_site_id
 _symmetry_equiv_pos_as_xyz
  1  'x, y, z'
loop_
 _atom_site_type_symbol
 _atom_site_label
 _atom_site_symmetry_multiplicity
 _atom_site_fract_x
 _atom_site_fract_y
 _atom_site_fract_z
 _atom_site_occupancy
  Li  Li0  1  0.46288100  0.99713600  0.66268500  1
  Li  Li1  1  0.46288100  0.50286400  0.66268500  1
  Li  Li2  1  0.96288100  0.49713600  0.83731500  1
  Li  Li3  1  0.96288100  0.00286400  0.83731500  1
  Li  Li4  1  0.03711900  0.99713600  0.16268500  1
  Li  Li5  1  0.03711900  0.50286400  0.16268500  1
  Li  Li6  1  0.53711900  0.49713600  0.33731500  1
  Li  Li7  1  0.53711900  0.00286400  0.33731500  1
  Ag  Ag0  1  0.95854600  0.75000000  0.51055000  1
  Ag  Ag1  1  0.45854600  0.25000000  0.98945000  1
  Ag  Ag2  1  0.54145400  0.75000000  0.01055000  1
  Ag  Ag3  1  0.04145400  0.25000000  0.48945000  1
  F  F0  1  0.49262200  0.25000000  0.50300900  1
  F  F1  1  0.16435400  0.75000000  0.71375000  1
  F  F2  1  0.16437700  0.25000000  0.72159800  1
  F  F3  1  0.66437700  0.75000000  0.77840200  1
  F  F4  1  0.66435400  0.25000000  0.78625000  1
  F  F5  1  0.99262200  0.75000000  0.99699100  1
  F  F6  1  0.00737800  0.25000000  0.00300900  1
  F  F7  1  0.33564600  0.75000000  0.21375000  1
  F  F8  1  0.33562300  0.25000000  0.22159800  1
  F  F9  1  0.83562300  0.75000000  0.27840200  1
  F  F10  1  0.83564600  0.25000000  0.28625000  1
  F  F11  1  0.50737800  0.75000000  0.49699100  1
loop_
_geom_bond_atom_site_label_1
_geom_bond_atom_site_label_2
_geom_bond_distance
_geom_bond_site_symmetry_2
Ag0 F1 2.183019 1_655
Ag0 F9 2.242192 1_555
Ag0 F11 2.461404 1_555
Ag1 F4 2.183019 1_555
Ag1 F8 2.242192 1_556
Ag1 F6 2.461404 1_556
Ag2 F7 2.183019 1_555
Ag2 F3 2.242192 1_554
Ag2 F5 2.461404 1_554
Ag3 F10 2.183019 1_455
Ag3 F2 2.242192 1_555
Ag3 F0 2.461404 1_555
F0 Li1 2.031302 1_555
F0 Li0 2.031302 1_545
F0 Li6 2.058752 1_555
F0 Li7 2.058752 1_555
F1 Li3 2.106173 1_465
F1 Li2 2.106173 1_455
F1 Li0 2.171244 1_555
F1 Li1 2.171244 1_555
F2 Li2 2.046968 1_455
F2 Li3 2.046968 1_455
F2 Li1 2.207677 1_555
F2 Li0 2.207677 1_545
F3 Li0 2.046968 1_555
F3 Li1 2.046968 1_555
F3 Li3 2.207677 1_565
F3 Li2 2.207677 1_555
F4 Li1 2.106173 1_555
F4 Li0 2.106173 1_545
F4 Li2 2.171244 1_555
F4 Li3 2.171244 1_555
F5 Li3 2.031302 1_565
F5 Li2 2.031302 1_555
F5 Li4 2.058752 1_656
F5 Li5 2.058752 1_656
F6 Li5 2.031302 1_555
F6 Li4 2.031302 1_545
F6 Li2 2.058752 1_454
F6 Li3 2.058752 1_454
F7 Li7 2.106173 1_565
F7 Li6 2.106173 1_555
F7 Li4 2.171244 1_555
F7 Li5 2.171244 1_555
F8 Li6 2.046968 1_555
F8 Li7 2.046968 1_555
F8 Li5 2.207677 1_555
F8 Li4 2.207677 1_545
F9 Li4 2.046968 1_655
F9 Li5 2.046968 1_655
F9 Li7 2.207677 1_565
F9 Li6 2.207677 1_555
F10 Li5 2.106173 1_655
F10 Li4 2.106173 1_645
F10 Li6 2.171244 1_555
F10 Li7 2.171244 1_555
F11 Li7 2.031302 1_565
F11 Li6 2.031302 1_555
F11 Li0 2.058752 1_555
F11 Li1 2.058752 1_555
