# generated using pymatgen
data_Ti17(NO4)6
_symmetry_space_group_name_H-M   'P 1'
_cell_length_a   7.50097600
_cell_length_b   10.73911811
_cell_length_c   15.00101406
_cell_angle_alpha   74.21440426
_cell_angle_beta   80.26803692
_cell_angle_gamma   74.20178946
_symmetry_Int_Tables_number   1
_chemical_formula_structural   Ti17(NO4)6
_chemical_formula_sum   'Ti34 N12 O48'
_cell_volume   1112.99162041
_cell_formula_units_Z   2
loop_
 _symmetry_equiv_pos_site_id
 _symmetry_equiv_pos_as_xyz
  1  'x, y, z'
loop_
 _atom_site_type_symbol
 _atom_site_label
 _atom_site_symmetry_multiplicity
 _atom_site_fract_x
 _atom_site_fract_y
 _atom_site_fract_z
 _atom_site_occupancy
  Ti  Ti0  1  0.38466700  0.92566600  0.58208400  1
  Ti  Ti1  1  0.21584000  0.25014000  0.55614600  1
  Ti  Ti2  1  0.05510100  0.93031900  0.41247200  1
  Ti  Ti3  1  0.17406100  0.56910400  0.47278900  1
  Ti  Ti4  1  0.49056100  0.44290900  0.35757100  1
  Ti  Ti5  1  0.61533300  0.07433400  0.41791600  1
  Ti  Ti6  1  0.82593900  0.43089600  0.52721100  1
  Ti  Ti7  1  0.78416000  0.74986000  0.44385400  1
  Ti  Ti8  1  0.55293800  0.24948200  0.22360700  1
  Ti  Ti9  1  0.50206600  0.57744900  0.14447600  1
  Ti  Ti10  1  0.38922300  0.92252800  0.08564900  1
  Ti  Ti11  1  0.82881200  0.57775000  0.30596000  1
  Ti  Ti12  1  0.88525000  0.25051900  0.38933100  1
  Ti  Ti13  1  0.16428000  0.42602800  0.19272600  1
  Ti  Ti14  1  0.11297100  0.74960600  0.10882600  1
  Ti  Ti15  1  0.71232100  0.92211200  0.24920800  1
  Ti  Ti16  1  0.28629900  0.05753000  0.25424300  1
  Ti  Ti17  1  0.17296700  0.57089500  0.97352500  1
  Ti  Ti18  1  0.44706200  0.75051800  0.77639300  1
  Ti  Ti19  1  0.22247500  0.24877700  0.05783600  1
  Ti  Ti20  1  0.05183000  0.92957000  0.91394000  1
  Ti  Ti21  1  0.49793400  0.42255100  0.85552400  1
  Ti  Ti22  1  0.61077700  0.07747200  0.91435100  1
  Ti  Ti23  1  0.82703300  0.42910500  0.02647500  1
  Ti  Ti24  1  0.77752500  0.75122300  0.94216400  1
  Ti  Ti25  1  0.50943900  0.55709100  0.64242900  1
  Ti  Ti26  1  0.94817000  0.07043000  0.08606000  1
  Ti  Ti27  1  0.88702900  0.25039400  0.89117400  1
  Ti  Ti28  1  0.17118800  0.42225000  0.69404000  1
  Ti  Ti29  1  0.11475000  0.74948100  0.61066900  1
  Ti  Ti30  1  0.28767900  0.07788800  0.75079200  1
  Ti  Ti31  1  0.71370100  0.94247000  0.74575700  1
  Ti  Ti32  1  0.83572000  0.57397200  0.80727400  1
  Ti  Ti33  1  0.94489900  0.06968100  0.58752800  1
  N  N0  1  0.01972000  0.74962600  0.49114000  1
  N  N1  1  0.64790500  0.25053800  0.34231800  1
  N  N2  1  0.35030400  0.74986500  0.14636000  1
  N  N3  1  0.98028000  0.25037400  0.50886000  1
  N  N4  1  0.70676000  0.75038800  0.32470000  1
  N  N5  1  0.31561700  0.24926900  0.17611400  1
  N  N6  1  0.02066000  0.75021600  0.98913100  1
  N  N7  1  0.64969600  0.25013500  0.85364000  1
  N  N8  1  0.97934000  0.24978400  0.01086900  1
  N  N9  1  0.35209500  0.74946200  0.65768200  1
  N  N10  1  0.68438300  0.75073100  0.82388600  1
  N  N11  1  0.29324000  0.24961200  0.67530000  1
  O  O0  1  0.58776800  0.88197000  0.49627500  1
  O  O1  1  0.28949500  0.56281300  0.58424100  1
  O  O2  1  0.16922900  0.93194200  0.52104700  1
  O  O3  1  0.50602400  0.94978700  0.18035300  1
  O  O4  1  0.32593400  0.37748200  0.46122300  1
  O  O5  1  0.34134300  0.60913300  0.37652900  1
  O  O6  1  0.24667200  0.89066600  0.32921700  1
  O  O7  1  0.63966500  0.55065700  0.24666700  1
  O  O8  1  0.41223200  0.11803000  0.50372500  1
  O  O9  1  0.95720400  0.56588600  0.41675500  1
  O  O10  1  0.67406600  0.62251800  0.53877700  1
  O  O11  1  0.65707700  0.37954800  0.12548300  1
  O  O12  1  0.59094100  0.87954200  0.99762600  1
  O  O13  1  0.83120800  0.93715200  0.35629800  1
  O  O14  1  0.37653000  0.43731500  0.24960400  1
  O  O15  1  0.50085600  0.06291800  0.31214500  1
  O  O16  1  0.83077100  0.06805800  0.47895300  1
  O  O17  1  0.99550700  0.38028200  0.29452200  1
  O  O18  1  0.91983800  0.88196000  0.16189600  1
  O  O19  1  0.28827500  0.56265600  0.08379300  1
  O  O20  1  0.71050500  0.43718700  0.41575900  1
  O  O21  1  0.07655800  0.12224500  0.33725600  1
  O  O22  1  0.16452500  0.93643700  0.02155500  1
  O  O23  1  0.00786600  0.61878800  0.20553800  1
  O  O24  1  0.62347000  0.56268500  0.75039600  1
  O  O25  1  0.49914400  0.93708200  0.68785500  1
  O  O26  1  0.04181500  0.43444100  0.08372600  1
  O  O27  1  0.40905900  0.12045800  0.00237400  1
  O  O28  1  0.34292300  0.62045200  0.87451700  1
  O  O29  1  0.25129200  0.87959100  0.82854300  1
  O  O30  1  0.16702600  0.06263800  0.14538100  1
  O  O31  1  0.32384200  0.38216400  0.96053100  1
  O  O32  1  0.95818500  0.56555900  0.91627400  1
  O  O33  1  0.67615800  0.61783600  0.03946900  1
  O  O34  1  0.83297400  0.93736200  0.85461900  1
  O  O35  1  0.36033500  0.44934300  0.75333300  1
  O  O36  1  0.49397600  0.05021300  0.81964700  1
  O  O37  1  0.65865700  0.39086700  0.62347100  1
  O  O38  1  0.74870800  0.12040900  0.17145700  1
  O  O39  1  0.71172500  0.43734400  0.91620700  1
  O  O40  1  0.08016200  0.11804000  0.83810400  1
  O  O41  1  0.92344200  0.87775500  0.66274400  1
  O  O42  1  0.00449300  0.61971800  0.70547800  1
  O  O43  1  0.83547500  0.06356300  0.97844500  1
  O  O44  1  0.99213400  0.38121200  0.79446200  1
  O  O45  1  0.04279600  0.43411400  0.58324500  1
  O  O46  1  0.16879200  0.06284800  0.64370200  1
  O  O47  1  0.75332800  0.10933400  0.67078300  1
loop_
_geom_bond_atom_site_label_1
_geom_bond_atom_site_label_2
_geom_bond_distance
_geom_bond_site_symmetry_2
N0 Ti7 2.011356 1_455
N0 Ti3 2.033462 1_555
N0 Ti29 2.037926 1_555
N0 Ti2 2.038911 1_555
N1 Ti5 1.979135 1_555
N1 Ti12 2.022648 1_555
N1 Ti8 2.030520 1_555
N1 Ti4 2.133422 1_555
N2 Ti9 1.896043 1_555
N2 Ti10 1.907604 1_555
N2 Ti14 1.956699 1_555
N3 Ti1 2.011356 1_655
N3 Ti6 2.033462 1_555
N3 Ti12 2.037926 1_555
N3 Ti33 2.038911 1_555
N4 Ti15 1.890711 1_555
N4 Ti11 1.904411 1_555
N4 Ti7 1.968639 1_555
N5 Ti13 1.985559 1_555
N5 Ti19 2.015552 1_555
N5 Ti8 2.026906 1_555
N5 Ti16 2.123278 1_555
N6 Ti20 2.002703 1_555
N6 Ti17 2.006349 1_555
N6 Ti14 2.028530 1_556
N6 Ti24 2.059635 1_455
N7 Ti21 1.896043 1_555
N7 Ti22 1.907604 1_555
N7 Ti27 1.956699 1_555
N8 Ti26 2.002703 1_555
N8 Ti23 2.006349 1_555
N8 Ti27 2.028530 1_554
N8 Ti19 2.059635 1_655
N9 Ti0 1.979135 1_555
N9 Ti29 2.022648 1_555
N9 Ti18 2.030520 1_555
N9 Ti25 2.133422 1_555
N10 Ti32 1.985559 1_555
N10 Ti24 2.015552 1_555
N10 Ti18 2.026906 1_555
N10 Ti31 2.123278 1_555
N11 Ti30 1.890711 1_555
N11 Ti28 1.904411 1_555
N11 Ti1 1.968639 1_555
O0 Ti0 1.863991 1_555
O0 Ti7 1.969439 1_555
O0 Ti5 2.126337 1_565
O1 Ti25 1.972306 1_555
O1 Ti3 1.986360 1_555
O1 Ti28 2.159071 1_555
O1 Ti29 2.172524 1_555
O2 Ti0 1.965118 1_555
O2 Ti2 1.969999 1_555
O2 Ti29 2.151965 1_555
O2 Ti33 2.212248 1_465
O3 Ti10 1.912659 1_555
O3 Ti15 1.916419 1_555
O3 Ti16 2.079809 1_565
O4 Ti4 1.914454 1_555
O4 Ti1 1.933297 1_555
O4 Ti3 2.100854 1_555
O5 Ti3 1.785441 1_555
O5 Ti4 1.897607 1_555
O6 Ti2 1.776354 1_555
O6 Ti16 1.909164 1_565
O7 Ti9 1.905598 1_555
O7 Ti11 1.918581 1_555
O7 Ti4 2.094236 1_555
O8 Ti5 1.863991 1_555
O8 Ti1 1.969439 1_555
O8 Ti0 2.126337 1_545
O9 Ti3 1.965291 1_655
O9 Ti11 2.016238 1_555
O9 Ti7 2.148429 1_555
O9 Ti6 2.176065 1_555
O10 Ti25 1.914454 1_555
O10 Ti7 1.933297 1_555
O10 Ti6 2.100854 1_555
O11 Ti23 1.847585 1_555
O11 Ti8 1.953107 1_555
O11 Ti9 2.195875 1_555
O12 Ti10 1.876681 1_556
O12 Ti24 1.931301 1_555
O12 Ti22 2.182999 1_565
O13 Ti2 1.978285 1_655
O13 Ti15 2.026320 1_555
O13 Ti5 2.140734 1_565
O13 Ti7 2.165095 1_555
O14 Ti13 1.974338 1_555
O14 Ti4 1.976775 1_555
O14 Ti9 2.148670 1_555
O14 Ti8 2.184523 1_555
O15 Ti5 1.973241 1_555
O15 Ti16 1.974479 1_555
O15 Ti15 2.158324 1_545
O15 Ti8 2.175718 1_555
O16 Ti5 1.965118 1_555
O16 Ti33 1.969999 1_555
O16 Ti12 2.151965 1_555
O16 Ti2 2.212248 1_645
O17 Ti13 1.858166 1_655
O17 Ti12 1.949420 1_555
O17 Ti11 2.184401 1_555
O18 Ti15 1.891274 1_555
O18 Ti14 1.964003 1_655
O18 Ti26 2.082219 1_565
O19 Ti17 1.963278 1_554
O19 Ti9 2.033836 1_555
O19 Ti13 2.147777 1_555
O19 Ti14 2.169483 1_555
O20 Ti4 1.972306 1_555
O20 Ti6 1.986360 1_555
O20 Ti11 2.159071 1_555
O20 Ti12 2.172524 1_555
O21 Ti12 1.922822 1_455
O21 Ti16 1.929261 1_555
O21 Ti2 2.097888 1_545
O22 Ti20 1.971333 1_554
O22 Ti10 2.029814 1_555
O22 Ti26 2.143780 1_465
O22 Ti14 2.170544 1_555
O23 Ti11 1.882681 1_455
O23 Ti14 1.951271 1_555
O23 Ti13 2.125196 1_555
O24 Ti32 1.974338 1_555
O24 Ti25 1.976775 1_555
O24 Ti21 2.148670 1_555
O24 Ti18 2.184523 1_555
O25 Ti0 1.973241 1_555
O25 Ti31 1.974479 1_555
O25 Ti30 2.158324 1_565
O25 Ti18 2.175718 1_555
O26 Ti23 1.970087 1_455
O26 Ti13 1.976822 1_555
O26 Ti19 2.175980 1_555
O26 Ti17 2.182919 1_554
O27 Ti22 1.876681 1_554
O27 Ti19 1.931301 1_555
O27 Ti10 2.182999 1_545
O28 Ti17 1.847585 1_555
O28 Ti18 1.953107 1_555
O28 Ti21 2.195875 1_555
O29 Ti20 1.859168 1_555
O29 Ti18 1.945001 1_555
O29 Ti30 2.197104 1_565
O30 Ti26 1.967844 1_455
O30 Ti16 1.971987 1_555
O30 Ti10 2.169770 1_545
O30 Ti19 2.175609 1_555
O31 Ti21 1.901559 1_555
O31 Ti19 1.959829 1_556
O31 Ti17 2.078008 1_555
O32 Ti17 1.970087 1_655
O32 Ti32 1.976822 1_555
O32 Ti24 2.175980 1_555
O32 Ti23 2.182919 1_556
O33 Ti9 1.901559 1_555
O33 Ti24 1.959829 1_554
O33 Ti23 2.078008 1_555
O34 Ti20 1.967844 1_655
O34 Ti31 1.971987 1_555
O34 Ti22 2.169770 1_565
O34 Ti24 2.175609 1_555
O35 Ti21 1.905598 1_555
O35 Ti28 1.918581 1_555
O35 Ti25 2.094236 1_555
O36 Ti22 1.912659 1_555
O36 Ti30 1.916419 1_555
O36 Ti31 2.079809 1_545
O37 Ti6 1.785441 1_555
O37 Ti25 1.897607 1_555
O38 Ti26 1.859168 1_555
O38 Ti8 1.945001 1_555
O38 Ti15 2.197104 1_545
O39 Ti23 1.963278 1_556
O39 Ti21 2.033836 1_555
O39 Ti32 2.147777 1_555
O39 Ti27 2.169483 1_555
O40 Ti30 1.891274 1_555
O40 Ti27 1.964003 1_455
O40 Ti20 2.082219 1_545
O41 Ti29 1.922822 1_655
O41 Ti31 1.929261 1_555
O41 Ti33 2.097888 1_565
O42 Ti32 1.858166 1_455
O42 Ti29 1.949420 1_555
O42 Ti28 2.184401 1_555
O43 Ti26 1.971333 1_556
O43 Ti22 2.029814 1_555
O43 Ti20 2.143780 1_645
O43 Ti27 2.170544 1_555
O44 Ti28 1.882681 1_655
O44 Ti27 1.951271 1_555
O44 Ti32 2.125196 1_555
O45 Ti6 1.965291 1_455
O45 Ti28 2.016238 1_555
O45 Ti1 2.148429 1_555
O45 Ti3 2.176065 1_555
O46 Ti33 1.978285 1_455
O46 Ti30 2.026320 1_555
O46 Ti0 2.140734 1_545
O46 Ti1 2.165095 1_555
O47 Ti33 1.776354 1_555
O47 Ti31 1.909164 1_545
