# generated using pymatgen
data_NbTlO3
_symmetry_space_group_name_H-M   'P 1'
_cell_length_a   7.61100562
_cell_length_b   7.62469515
_cell_length_c   13.18232079
_cell_angle_alpha   72.97677338
_cell_angle_beta   72.60492160
_cell_angle_gamma   59.96265257
_symmetry_Int_Tables_number   1
_chemical_formula_structural   NbTlO3
_chemical_formula_sum   'Nb8 Tl8 O24'
_cell_volume   622.40980782
_cell_formula_units_Z   8
loop_
 _symmetry_equiv_pos_site_id
 _symmetry_equiv_pos_as_xyz
  1  'x, y, z'
loop_
 _atom_site_type_symbol
 _atom_site_label
 _atom_site_symmetry_multiplicity
 _atom_site_fract_x
 _atom_site_fract_y
 _atom_site_fract_z
 _atom_site_occupancy
  Nb  Nb0  1  0.98673111  0.51937400  0.00375649  1
  Nb  Nb1  1  0.01467601  0.00504228  0.00493035  1
  Nb  Nb2  1  0.50204838  0.49521823  0.99319154  1
  Nb  Nb3  1  0.23053359  0.76696950  0.74950494  1
  Nb  Nb4  1  0.49070378  0.98843019  0.49583773  1
  Nb  Nb5  1  0.50282278  0.47670394  0.51032519  1
  Nb  Nb6  1  0.99649263  0.98068273  0.49473058  1
  Nb  Nb7  1  0.73822523  0.26282267  0.24962197  1
  Tl  Tl0  1  0.73561019  0.26162602  0.75031831  1
  Tl  Tl1  1  0.66877589  0.84455608  0.75256772  1
  Tl  Tl2  1  0.15143012  0.32827024  0.74902448  1
  Tl  Tl3  1  0.00411606  0.48282153  0.50115005  1
  Tl  Tl4  1  0.25847996  0.24516705  0.24445052  1
  Tl  Tl5  1  0.83072621  0.72889446  0.26266161  1
  Tl  Tl6  1  0.50658854  0.00778202  0.99744539  1
  Tl  Tl7  1  0.31471457  0.76875812  0.24306298  1
  O  O0  1  0.71986412  0.22230795  0.97130856  1
  O  O1  1  0.09562409  0.59293993  0.84854396  1
  O  O2  1  0.03223942  0.90176362  0.65670016  1
  O  O3  1  0.09768259  0.22047838  0.96507077  1
  O  O4  1  0.39662003  0.52338272  0.66015815  1
  O  O5  1  0.72042327  0.59089026  0.97462110  1
  O  O6  1  0.21880775  0.71288377  0.46757768  1
  O  O7  1  0.47405709  0.59851814  0.84302391  1
  O  O8  1  0.08910364  0.96306615  0.84738873  1
  O  O9  1  0.77722073  0.89786664  0.53783696  1
  O  O10  1  0.40861179  0.27282359  0.52991848  1
  O  O11  1  0.40232583  0.90208321  0.65638087  1
  O  O12  1  0.60226871  0.07954956  0.34378118  1
  O  O13  1  0.58757017  0.71254320  0.47213940  1
  O  O14  1  0.90716920  0.03309361  0.15663738  1
  O  O15  1  0.52728280  0.41242091  0.16020148  1
  O  O16  1  0.21730874  0.08571411  0.47053848  1
  O  O17  1  0.77789971  0.27350292  0.53385029  1
  O  O18  1  0.28156004  0.41107726  0.03238359  1
  O  O19  1  0.96310587  0.08865657  0.34717820  1
  O  O20  1  0.59672531  0.46218028  0.34635247  1
  O  O21  1  0.90274753  0.78136083  0.03845532  1
  O  O22  1  0.91257448  0.39537102  0.15712489  1
  O  O23  1  0.28126904  0.78300729  0.03059812  1
loop_
_geom_bond_atom_site_label_1
_geom_bond_atom_site_label_2
_geom_bond_distance
_geom_bond_site_symmetry_2
Nb0 O21 1.920931 1_555
Nb0 O5 1.946640 1_554
Nb0 O1 1.991830 1_654
Nb0 O22 2.008158 1_555
Nb0 O18 2.080483 1_655
Nb0 O3 2.159465 1_654
Nb1 O3 1.925758 1_554
Nb1 O23 1.932286 1_545
Nb1 O14 1.952306 1_455
Nb1 O8 2.059258 1_544
Nb1 O0 2.102112 1_454
Nb1 O21 2.148924 1_445
Nb2 O7 1.937950 1_555
Nb2 O0 1.942541 1_555
Nb2 O18 1.964691 1_556
Nb2 O5 2.054367 1_555
Nb2 O23 2.080494 1_556
Nb2 O15 2.144766 1_556
Nb3 O2 1.909344 1_555
Nb3 O8 1.935743 1_555
Nb3 O11 1.981465 1_555
Nb3 O1 2.016847 1_555
Nb3 O4 2.115373 1_555
Nb3 O7 2.158843 1_555
Nb4 O16 1.927715 1_565
Nb4 O13 1.939210 1_555
Nb4 O12 1.994762 1_565
Nb4 O11 2.034976 1_555
Nb4 O10 2.083372 1_565
Nb4 O9 2.128204 1_555
Nb5 O17 1.933738 1_555
Nb5 O10 1.941004 1_555
Nb5 O4 1.962203 1_555
Nb5 O20 2.081476 1_555
Nb5 O13 2.083268 1_555
Nb5 O6 2.114284 1_555
Nb6 O19 1.916814 1_565
Nb6 O6 1.940973 1_655
Nb6 O9 1.945423 1_555
Nb6 O2 2.103824 1_655
Nb6 O16 2.108313 1_665
Nb6 O17 2.112135 1_565
Nb7 O20 1.941969 1_555
Nb7 O15 1.943987 1_555
Nb7 O22 1.980566 1_555
Nb7 O12 2.056261 1_555
Nb7 O14 2.069761 1_555
Nb7 O19 2.094628 1_555
O0 Tl6 2.724493 1_555
O0 Tl0 2.811873 1_555
O1 Tl2 2.516498 1_555
O2 Tl0 2.874683 1_465
O3 Tl2 2.687629 1_555
O3 Tl6 2.798915 1_555
O4 Tl0 2.709615 1_555
O4 Tl2 2.742224 1_555
O5 Tl6 2.816258 1_565
O6 Tl7 2.784787 1_555
O6 Tl3 2.815237 1_555
O7 Tl0 2.705310 1_555
O7 Tl1 2.748524 1_555
O8 Tl0 2.877391 1_465
O9 Tl1 2.669135 1_555
O9 Tl3 2.855935 1_655
O10 Tl3 2.755548 1_555
O11 Tl1 2.496804 1_555
O12 Tl5 2.687631 1_545
O12 Tl4 2.815700 1_555
O13 Tl3 2.835251 1_655
O13 Tl5 2.835426 1_555
O14 Tl5 2.576496 1_545
O15 Tl4 2.733018 1_555
O15 Tl7 2.733661 1_555
O16 Tl3 2.714552 1_555
O16 Tl4 2.856619 1_555
O17 Tl0 2.753773 1_555
O17 Tl3 2.757129 1_655
O18 Tl4 2.702657 1_555
O18 Tl6 2.772399 1_554
O19 Tl7 2.867727 1_645
O19 Tl4 2.868995 1_655
O20 Tl7 2.604987 1_555
O21 Tl6 2.753332 1_564
O21 Tl5 2.784672 1_555
O22 Tl4 2.754895 1_655
O23 Tl6 2.850416 1_564
O23 Tl7 2.853314 1_555
