# generated using pymatgen
data_Li2VO2F
_symmetry_space_group_name_H-M   'P 1'
_cell_length_a   3.02831700
_cell_length_b   8.02035866
_cell_length_c   10.34477394
_cell_angle_alpha   110.22266279
_cell_angle_beta   90.11575171
_cell_angle_gamma   100.81703040
_symmetry_Int_Tables_number   1
_chemical_formula_structural   Li2VO2F
_chemical_formula_sum   'Li8 V4 O8 F4'
_cell_volume   230.96754789
_cell_formula_units_Z   4
loop_
 _symmetry_equiv_pos_site_id
 _symmetry_equiv_pos_as_xyz
  1  'x, y, z'
loop_
 _atom_site_type_symbol
 _atom_site_label
 _atom_site_symmetry_multiplicity
 _atom_site_fract_x
 _atom_site_fract_y
 _atom_site_fract_z
 _atom_site_occupancy
  Li  Li0  1  0.94066500  0.87609700  0.29384600  1
  Li  Li1  1  0.91999300  0.84146600  0.78898400  1
  Li  Li2  1  0.57745800  0.15436000  0.95637300  1
  Li  Li3  1  0.57164000  0.14412800  0.44113300  1
  Li  Li4  1  0.07797100  0.15403100  0.70116900  1
  Li  Li5  1  0.41948600  0.84129700  0.53796600  1
  Li  Li6  1  0.43962300  0.88274700  0.05593400  1
  Li  Li7  1  0.06669800  0.13171000  0.22400500  1
  V  V0  1  0.74769500  0.49612300  0.86691600  1
  V  V1  1  0.74543800  0.49535800  0.37657800  1
  V  V2  1  0.24235100  0.50045500  0.62447800  1
  V  V3  1  0.25783200  0.48588400  0.13091900  1
  O  O0  1  0.67435700  0.34644100  0.16426100  1
  O  O1  1  0.65612600  0.34675500  0.66916500  1
  O  O2  1  0.83000600  0.65320200  0.58359800  1
  O  O3  1  0.19056000  0.36000700  0.92286000  1
  O  O4  1  0.31153600  0.65237500  0.83268100  1
  O  O5  1  0.17781600  0.35125100  0.42268800  1
  O  O6  1  0.31362200  0.64040000  0.32921200  1
  O  O7  1  0.49957000  0.99536900  0.24874700  1
  F  F0  1  0.84128100  0.65013500  0.08230200  1
  F  F1  1  0.50360600  0.00396300  0.75080300  1
  F  F2  1  0.99574400  0.99576700  0.50815100  1
  F  F3  1  0.99901000  0.00068000  0.98722700  1
loop_
_geom_bond_atom_site_label_1
_geom_bond_atom_site_label_2
_geom_bond_distance
_geom_bond_site_symmetry_2
Li0 O7 1.923917 1_655
Li0 O7 1.924237 1_555
Li0 O6 2.502164 1_655
Li0 O6 2.539039 1_555
Li1 O2 2.119842 1_555
Li1 O4 2.248779 1_655
Li1 O4 2.308234 1_555
Li2 O0 2.149800 1_556
Li2 O3 2.309193 1_555
Li2 O3 2.352931 1_655
Li3 O7 1.921172 1_545
Li3 O5 2.276004 1_555
Li3 O5 2.289479 1_655
Li3 O1 2.337159 1_555
Li4 O1 2.214635 1_555
Li4 O1 2.285618 1_455
Li4 O3 2.295865 1_555
Li5 O6 2.181793 1_555
Li5 O2 2.273826 1_455
Li5 O2 2.288686 1_555
Li6 O7 1.875829 1_555
Li6 O4 2.382316 1_554
Li7 O7 1.923858 1_445
Li7 O7 1.926091 1_545
Li7 O5 2.170453 1_555
Li7 O0 2.502121 1_455
Li7 O0 2.507029 1_555
O0 V3 1.937840 1_555
O0 V3 2.004810 1_655
O0 V1 2.094019 1_555
O1 V0 1.968669 1_555
O1 V2 2.067570 1_555
O1 V2 2.112057 1_655
O2 V2 2.041859 1_655
O2 V1 2.063095 1_555
O2 V2 2.095128 1_555
O3 V3 2.027816 1_556
O3 V0 2.030442 1_555
O3 V0 2.075712 1_455
O4 V0 2.029174 1_455
O4 V2 2.062886 1_555
O4 V0 2.089677 1_555
O5 V2 2.002835 1_555
O5 V1 2.038840 1_555
O5 V1 2.055359 1_455
O6 V3 1.983610 1_555
O6 V1 2.049418 1_455
O6 V1 2.065382 1_555
F0 V0 2.129307 1_554
F0 V3 2.158431 1_655
F0 V3 2.167523 1_555
F0 Li0 2.283584 1_555
F0 Li6 2.433759 1_655
F0 Li6 2.497343 1_555
F1 Li2 2.037346 1_555
F1 Li4 2.092982 1_555
F1 Li4 2.093495 1_655
F1 Li1 2.101250 1_545
F1 Li1 2.114773 1_445
F1 Li5 2.121746 1_545
F2 Li4 1.946094 1_665
F2 Li5 2.032291 1_555
F2 Li5 2.033710 1_655
F2 Li0 2.081158 1_555
F2 Li3 2.164796 1_565
F2 Li3 2.175853 1_665
F3 Li1 1.991594 1_545
F3 Li2 2.027739 1_555
F3 Li6 2.028521 1_646
F3 Li6 2.034134 1_546
F3 Li2 2.038003 1_655
F3 Li7 2.298606 1_656
