# generated using pymatgen
data_Mn12O5F19
_symmetry_space_group_name_H-M   'P 1'
_cell_length_a   4.89529900
_cell_length_b   5.85148841
_cell_length_c   15.96797693
_cell_angle_alpha   90.53419621
_cell_angle_beta   90.17606808
_cell_angle_gamma   92.28664602
_symmetry_Int_Tables_number   1
_chemical_formula_structural   Mn12O5F19
_chemical_formula_sum   'Mn12 O5 F19'
_cell_volume   457.01247423
_cell_formula_units_Z   1
loop_
 _symmetry_equiv_pos_site_id
 _symmetry_equiv_pos_as_xyz
  1  'x, y, z'
loop_
 _atom_site_type_symbol
 _atom_site_label
 _atom_site_symmetry_multiplicity
 _atom_site_fract_x
 _atom_site_fract_y
 _atom_site_fract_z
 _atom_site_occupancy
  Mn  Mn0  1  0.02465000  0.80621400  0.57341200  1
  Mn  Mn1  1  0.98915800  0.14467800  0.75010700  1
  Mn  Mn2  1  0.97090500  0.83784300  0.91531700  1
  Mn  Mn3  1  0.01704000  0.85436000  0.25003500  1
  Mn  Mn4  1  0.01288100  0.17603200  0.41360000  1
  Mn  Mn5  1  0.01060500  0.16942200  0.09314000  1
  Mn  Mn6  1  0.48417300  0.63837300  0.41645600  1
  Mn  Mn7  1  0.50801600  0.66822900  0.07553400  1
  Mn  Mn8  1  0.50975100  0.68067500  0.75450200  1
  Mn  Mn9  1  0.51912300  0.35212800  0.91726900  1
  Mn  Mn10  1  0.49406200  0.34712900  0.58260700  1
  Mn  Mn11  1  0.47255400  0.34185000  0.25237200  1
  O  O0  1  0.22304700  0.12670600  0.19984800  1
  O  O1  1  0.29730500  0.59241000  0.52186000  1
  O  O2  1  0.28235700  0.39464900  0.35727800  1
  O  O3  1  0.71770700  0.62031000  0.96737500  1
  O  O4  1  0.78684300  0.89057200  0.81265000  1
  F  F0  1  0.23576100  0.89349800  0.69104100  1
  F  F1  1  0.23187500  0.88924400  0.36300800  1
  F  F2  1  0.20096200  0.87692800  0.02201100  1
  F  F3  1  0.23906300  0.10895000  0.86917600  1
  F  F4  1  0.23319200  0.10098300  0.52680500  1
  F  F5  1  0.26275600  0.60240700  0.86066200  1
  F  F6  1  0.26591900  0.38983300  0.69760500  1
  F  F7  1  0.26636000  0.62574000  0.18505400  1
  F  F8  1  0.27490600  0.38066500  0.02567700  1
  F  F9  1  0.72744200  0.38210600  0.80425000  1
  F  F10  1  0.74065400  0.61033300  0.64277100  1
  F  F11  1  0.75281600  0.38667600  0.47636400  1
  F  F12  1  0.70624100  0.38297800  0.14677200  1
  F  F13  1  0.71794100  0.61696900  0.30551300  1
  F  F14  1  0.76002000  0.87432600  0.46540000  1
  F  F15  1  0.76212700  0.11307200  0.63433700  1
  F  F16  1  0.76745300  0.12859800  0.98287800  1
  F  F17  1  0.77156100  0.88326100  0.14096100  1
  F  F18  1  0.76277600  0.11185100  0.30635400  1
loop_
_geom_bond_atom_site_label_1
_geom_bond_atom_site_label_2
_geom_bond_distance
_geom_bond_site_symmetry_2
Mn0 O1 2.035953 1_555
Mn1 O4 2.026172 1_545
Mn2 O4 1.901891 1_555
Mn2 O3 1.935904 1_555
Mn3 O0 2.024700 1_565
Mn4 O2 2.019790 1_555
Mn5 O0 2.016213 1_555
Mn6 O1 1.933961 1_555
Mn6 O2 1.938964 1_555
Mn7 O3 2.034691 1_554
Mn8 O4 2.012120 1_555
Mn9 O3 1.974295 1_555
Mn10 O1 2.014730 1_555
Mn11 O0 1.905634 1_555
Mn11 O2 1.947131 1_555
F0 Mn8 2.127244 1_555
F0 Mn1 2.151711 1_465
F0 Mn0 2.187451 1_555
F1 Mn3 2.089565 1_555
F1 Mn6 2.137823 1_555
F1 Mn4 2.177531 1_565
F2 Mn2 2.045377 1_454
F2 Mn7 2.153875 1_555
F2 Mn5 2.277105 1_565
F3 Mn9 2.076439 1_555
F3 Mn2 2.155046 1_445
F3 Mn1 2.273488 1_455
F4 Mn10 2.078848 1_555
F4 Mn0 2.111684 1_545
F4 Mn4 2.159680 1_555
F5 Mn8 2.127948 1_555
F5 Mn9 2.168223 1_555
F5 Mn2 2.200696 1_455
F6 Mn1 2.114370 1_455
F6 Mn10 2.169794 1_555
F6 Mn8 2.224614 1_555
F7 Mn3 2.113780 1_555
F7 Mn7 2.125312 1_555
F7 Mn11 2.257050 1_555
F8 Mn5 2.065950 1_555
F8 Mn9 2.115882 1_554
F8 Mn7 2.140940 1_555
F9 Mn9 2.080999 1_555
F9 Mn1 2.108434 1_555
F9 Mn8 2.233422 1_555
F10 Mn0 2.092637 1_655
F10 Mn10 2.137539 1_555
F10 Mn8 2.160090 1_555
F11 Mn4 2.062641 1_655
F11 Mn10 2.129137 1_555
F11 Mn6 2.233115 1_555
F12 Mn11 2.051186 1_555
F12 Mn5 2.156706 1_655
F12 Mn7 2.275850 1_555
F13 Mn6 2.117393 1_555
F13 Mn11 2.137431 1_555
F13 Mn3 2.174116 1_655
F14 Mn6 2.040867 1_555
F14 Mn0 2.202728 1_655
F14 Mn4 2.278654 1_665
F15 Mn10 2.106642 1_555
F15 Mn1 2.156698 1_555
F15 Mn0 2.445676 1_645
F16 Mn9 2.104943 1_555
F16 Mn5 2.128473 1_656
F16 Mn2 2.271113 1_545
F17 Mn7 2.043720 1_555
F17 Mn3 2.124853 1_655
F17 Mn5 2.151571 1_665
F18 Mn4 2.123944 1_655
F18 Mn11 2.177023 1_555
F18 Mn3 2.181615 1_645
