# generated using pymatgen
data_Ba3(LaI6)2
_symmetry_space_group_name_H-M   'P 1'
_cell_length_a   13.92024000
_cell_length_b   15.20030200
_cell_length_c   15.54126049
_cell_angle_alpha   89.45872715
_cell_angle_beta   90.00000000
_cell_angle_gamma   90.00000000
_symmetry_Int_Tables_number   1
_chemical_formula_structural   Ba3(LaI6)2
_chemical_formula_sum   'Ba12 La8 I48'
_cell_volume   3288.25735130
_cell_formula_units_Z   4
loop_
 _symmetry_equiv_pos_site_id
 _symmetry_equiv_pos_as_xyz
  1  'x, y, z'
loop_
 _atom_site_type_symbol
 _atom_site_label
 _atom_site_symmetry_multiplicity
 _atom_site_fract_x
 _atom_site_fract_y
 _atom_site_fract_z
 _atom_site_occupancy
  Ba  Ba0  1  0.78001800  0.04573200  0.21998000  1
  Ba  Ba1  1  0.40225000  0.00507600  0.29165900  1
  Ba  Ba2  1  0.01211600  0.18650800  0.49387300  1
  Ba  Ba3  1  0.51211600  0.31349200  0.00612700  1
  Ba  Ba4  1  0.90225000  0.49492400  0.20834100  1
  Ba  Ba5  1  0.28001800  0.45426800  0.28002000  1
  Ba  Ba6  1  0.71998200  0.54573200  0.71998000  1
  Ba  Ba7  1  0.09775000  0.50507600  0.79165900  1
  Ba  Ba8  1  0.48788400  0.68650800  0.99387300  1
  Ba  Ba9  1  0.98788400  0.81349200  0.50612700  1
  Ba  Ba10  1  0.59775000  0.99492400  0.70834100  1
  Ba  Ba11  1  0.21998200  0.95426800  0.78002000  1
  La  La0  1  0.14528900  0.19159000  0.07340900  1
  La  La1  1  0.83367400  0.18777900  0.85091000  1
  La  La2  1  0.64528900  0.30841000  0.42659100  1
  La  La3  1  0.33367400  0.31222100  0.64909000  1
  La  La4  1  0.66632600  0.68777900  0.35091000  1
  La  La5  1  0.35471100  0.69159000  0.57340900  1
  La  La6  1  0.16632600  0.81222100  0.14909000  1
  La  La7  1  0.85471100  0.80841000  0.92659100  1
  I  I0  1  0.25567900  0.99978700  0.10121300  1
  I  I1  1  0.86308000  0.00844500  0.43229600  1
  I  I2  1  0.55145600  0.09869900  0.14611300  1
  I  I3  1  0.55892100  0.11945400  0.44930200  1
  I  I4  1  0.88503900  0.09406300  0.68144100  1
  I  I5  1  0.37820800  0.11034900  0.68305000  1
  I  I6  1  0.03565200  0.10187500  0.91550800  1
  I  I7  1  0.01528600  0.13162700  0.22462800  1
  I  I8  1  0.31268300  0.19215900  0.94024600  1
  I  I9  1  0.61996200  0.21467900  0.79117700  1
  I  I10  1  0.76291900  0.24254600  0.03552300  1
  I  I11  1  0.29658200  0.23460600  0.21284900  1
  I  I12  1  0.79658200  0.26539400  0.28715100  1
  I  I13  1  0.26291900  0.25745400  0.46447700  1
  I  I14  1  0.11996200  0.28532100  0.70882300  1
  I  I15  1  0.81268300  0.30784100  0.55975400  1
  I  I16  1  0.51528600  0.36837300  0.27537200  1
  I  I17  1  0.53565200  0.39812500  0.58449200  1
  I  I18  1  0.87820800  0.38965100  0.81695000  1
  I  I19  1  0.05892100  0.38054600  0.05069800  1
  I  I20  1  0.38503900  0.40593700  0.81855900  1
  I  I21  1  0.05145600  0.40130100  0.35388700  1
  I  I22  1  0.36308000  0.49155500  0.06770400  1
  I  I23  1  0.75567900  0.50021300  0.39878700  1
  I  I24  1  0.24432100  0.49978700  0.60121300  1
  I  I25  1  0.63692000  0.50844500  0.93229600  1
  I  I26  1  0.94854400  0.59869900  0.64611300  1
  I  I27  1  0.61496100  0.59406300  0.18144100  1
  I  I28  1  0.94107900  0.61945400  0.94930200  1
  I  I29  1  0.12179200  0.61034900  0.18305000  1
  I  I30  1  0.46434800  0.60187500  0.41550800  1
  I  I31  1  0.48471400  0.63162700  0.72462800  1
  I  I32  1  0.18731700  0.69215900  0.44024600  1
  I  I33  1  0.88003800  0.71467900  0.29117700  1
  I  I34  1  0.73708100  0.74254600  0.53552300  1
  I  I35  1  0.20341800  0.73460600  0.71284900  1
  I  I36  1  0.70341800  0.76539400  0.78715100  1
  I  I37  1  0.23708100  0.75745400  0.96447700  1
  I  I38  1  0.38003800  0.78532100  0.20882300  1
  I  I39  1  0.68731700  0.80784100  0.05975400  1
  I  I40  1  0.98471400  0.86837300  0.77537200  1
  I  I41  1  0.96434800  0.89812500  0.08449200  1
  I  I42  1  0.62179200  0.88965100  0.31695000  1
  I  I43  1  0.11496100  0.90593700  0.31855900  1
  I  I44  1  0.44107900  0.88054600  0.55069800  1
  I  I45  1  0.44854400  0.90130100  0.85388700  1
  I  I46  1  0.13692000  0.99155500  0.56770400  1
  I  I47  1  0.74432100  0.00021300  0.89878700  1
loop_
_geom_bond_atom_site_label_1
_geom_bond_atom_site_label_2
_geom_bond_distance
_geom_bond_site_symmetry_2
Ba0 I2 3.474398 1_555
Ba0 I12 3.515286 1_555
Ba0 I7 3.526643 1_655
Ba0 I1 3.537024 1_555
Ba0 I42 3.561384 1_545
Ba0 I41 4.017591 1_545
Ba0 I10 4.130668 1_555
Ba1 I2 3.375611 1_555
Ba1 I42 3.543914 1_545
Ba1 I0 3.596393 1_545
Ba1 I38 3.604452 1_545
Ba1 I3 3.723145 1_555
Ba1 I11 3.969336 1_555
Ba2 I15 3.491772 1_455
Ba2 I1 3.548878 1_455
Ba2 I46 3.612751 1_545
Ba2 I4 3.677473 1_455
Ba2 I13 3.681181 1_555
Ba2 I21 3.944418 1_555
Ba2 I14 3.970398 1_555
Ba3 I8 3.491772 1_554
Ba3 I22 3.548878 1_555
Ba3 I25 3.612751 1_554
Ba3 I20 3.677473 1_554
Ba3 I10 3.681181 1_555
Ba3 I2 3.944418 1_555
Ba3 I9 3.970398 1_554
Ba4 I21 3.375611 1_655
Ba4 I29 3.543914 1_655
Ba4 I23 3.596393 1_555
Ba4 I33 3.604452 1_555
Ba4 I19 3.723145 1_655
Ba4 I12 3.969336 1_555
Ba5 I21 3.474398 1_555
Ba5 I11 3.515286 1_555
Ba5 I16 3.526643 1_555
Ba5 I22 3.537024 1_555
Ba5 I29 3.561384 1_555
Ba5 I30 4.017591 1_555
Ba5 I13 4.130668 1_555
Ba6 I26 3.474398 1_555
Ba6 I36 3.515286 1_555
Ba6 I31 3.526643 1_555
Ba6 I25 3.537024 1_555
Ba6 I18 3.561384 1_555
Ba6 I17 4.017591 1_555
Ba6 I34 4.130668 1_555
Ba7 I26 3.375611 1_455
Ba7 I18 3.543914 1_455
Ba7 I24 3.596393 1_555
Ba7 I14 3.604452 1_555
Ba7 I28 3.723145 1_455
Ba7 I35 3.969336 1_555
Ba8 I39 3.491772 1_556
Ba8 I25 3.548878 1_555
Ba8 I22 3.612751 1_556
Ba8 I27 3.677473 1_556
Ba8 I37 3.681181 1_555
Ba8 I45 3.944418 1_555
Ba8 I38 3.970398 1_556
Ba9 I32 3.491772 1_655
Ba9 I46 3.548878 1_655
Ba9 I1 3.612751 1_565
Ba9 I43 3.677473 1_655
Ba9 I34 3.681181 1_555
Ba9 I26 3.944418 1_555
Ba9 I33 3.970398 1_555
Ba10 I45 3.375611 1_555
Ba10 I5 3.543914 1_565
Ba10 I47 3.596393 1_565
Ba10 I9 3.604452 1_565
Ba10 I44 3.723145 1_555
Ba10 I36 3.969336 1_555
Ba11 I45 3.474398 1_555
Ba11 I35 3.515286 1_555
Ba11 I40 3.526643 1_455
Ba11 I46 3.537024 1_555
Ba11 I5 3.561384 1_565
Ba11 I6 4.017591 1_565
Ba11 I37 4.130668 1_555
I0 La6 3.192049 1_555
I0 La0 3.320264 1_565
I3 La2 3.130548 1_555
I4 La1 3.089994 1_555
I5 La3 3.169865 1_555
I6 La0 3.205326 1_556
I6 La1 3.254710 1_455
I7 La0 3.096502 1_555
I8 La0 3.116460 1_556
I9 La1 3.141969 1_555
I10 La1 3.152787 1_554
I11 La0 3.096109 1_555
I12 La2 3.096109 1_555
I13 La3 3.152787 1_555
I14 La3 3.141969 1_555
I15 La2 3.116460 1_555
I16 La2 3.096502 1_555
I17 La2 3.205326 1_555
I17 La3 3.254710 1_555
I18 La1 3.169865 1_555
I19 La0 3.130548 1_555
I20 La3 3.089994 1_555
I23 La4 3.192049 1_555
I23 La2 3.320264 1_555
I24 La3 3.192049 1_555
I24 La5 3.320264 1_555
I27 La4 3.089994 1_555
I28 La7 3.130548 1_555
I29 La6 3.169865 1_555
I30 La5 3.205326 1_555
I30 La4 3.254710 1_555
I31 La5 3.096502 1_555
I32 La5 3.116460 1_555
I33 La4 3.141969 1_555
I34 La4 3.152787 1_555
I35 La5 3.096109 1_555
I36 La7 3.096109 1_555
I37 La6 3.152787 1_556
I38 La6 3.141969 1_555
I39 La7 3.116460 1_554
I40 La7 3.096502 1_555
I41 La7 3.205326 1_554
I41 La6 3.254710 1_655
I42 La4 3.169865 1_555
I43 La6 3.089994 1_555
I44 La5 3.130548 1_555
I47 La1 3.192049 1_555
I47 La7 3.320264 1_545
