# generated using pymatgen
data_ErInO3
_symmetry_space_group_name_H-M   'P 1'
_cell_length_a   5.52122600
_cell_length_b   5.84036300
_cell_length_c   8.17680400
_cell_angle_alpha   90.00000000
_cell_angle_beta   90.00000000
_cell_angle_gamma   90.00000000
_symmetry_Int_Tables_number   1
_chemical_formula_structural   ErInO3
_chemical_formula_sum   'Er4 In4 O12'
_cell_volume   263.66892779
_cell_formula_units_Z   4
loop_
 _symmetry_equiv_pos_site_id
 _symmetry_equiv_pos_as_xyz
  1  'x, y, z'
loop_
 _atom_site_type_symbol
 _atom_site_label
 _atom_site_symmetry_multiplicity
 _atom_site_fract_x
 _atom_site_fract_y
 _atom_site_fract_z
 _atom_site_occupancy
  Er  Er0  1  0.01791600  0.93732000  0.75000000  1
  Er  Er1  1  0.48208400  0.43732000  0.75000000  1
  Er  Er2  1  0.51791600  0.56268000  0.25000000  1
  Er  Er3  1  0.98208400  0.06268000  0.25000000  1
  In  In0  1  0.00000000  0.50000000  0.00000000  1
  In  In1  1  0.00000000  0.50000000  0.50000000  1
  In  In2  1  0.50000000  0.00000000  0.00000000  1
  In  In3  1  0.50000000  0.00000000  0.50000000  1
  O  O0  1  0.14814500  0.42331500  0.25000000  1
  O  O1  1  0.17978700  0.18348700  0.57515800  1
  O  O2  1  0.17978700  0.18348700  0.92484200  1
  O  O3  1  0.32021300  0.68348700  0.57515800  1
  O  O4  1  0.32021300  0.68348700  0.92484200  1
  O  O5  1  0.35185500  0.92331500  0.25000000  1
  O  O6  1  0.64814500  0.07668500  0.75000000  1
  O  O7  1  0.67978700  0.31651300  0.07515800  1
  O  O8  1  0.67978700  0.31651300  0.42484200  1
  O  O9  1  0.82021300  0.81651300  0.07515800  1
  O  O10  1  0.82021300  0.81651300  0.42484200  1
  O  O11  1  0.85185500  0.57668500  0.75000000  1
loop_
_geom_bond_atom_site_label_1
_geom_bond_atom_site_label_2
_geom_bond_distance
_geom_bond_site_symmetry_2
Er0 O6 2.197860 1_465
Er0 O2 2.215770 1_565
Er0 O1 2.215770 1_565
Er0 O11 2.297145 1_455
Er0 O4 2.650917 1_555
Er0 O3 2.650917 1_555
Er0 O10 2.959441 1_455
Er0 O9 2.959441 1_456
Er1 O11 2.197860 1_555
Er1 O4 2.215770 1_555
Er1 O3 2.215770 1_555
Er1 O6 2.297145 1_555
Er1 O2 2.650917 1_555
Er1 O1 2.650917 1_555
Er1 O8 2.959441 1_555
Er1 O7 2.959441 1_556
Er2 O0 2.197860 1_555
Er2 O8 2.215770 1_555
Er2 O7 2.215770 1_555
Er2 O5 2.297145 1_555
Er2 O10 2.650917 1_555
Er2 O9 2.650917 1_555
Er2 O3 2.959441 1_555
Er2 O4 2.959441 1_554
Er3 O5 2.197860 1_645
Er3 O10 2.215770 1_545
Er3 O9 2.215770 1_545
Er3 O0 2.297145 1_655
Er3 O7 2.650917 1_555
Er3 O8 2.650917 1_555
Er3 O1 2.959441 1_655
Er3 O2 2.959441 1_654
In0 O4 2.156798 1_554
In0 O7 2.156798 1_455
In0 O9 2.186357 1_455
In0 O2 2.186357 1_554
In0 O0 2.246858 1_555
In0 O11 2.246858 1_454
In1 O3 2.156798 1_555
In1 O8 2.156798 1_455
In1 O10 2.186357 1_455
In1 O1 2.186357 1_555
In1 O0 2.246858 1_555
In1 O11 2.246858 1_455
In2 O2 2.156798 1_554
In2 O9 2.156798 1_545
In2 O7 2.186357 1_555
In2 O4 2.186357 1_544
In2 O6 2.246858 1_554
In2 O5 2.246858 1_545
In3 O1 2.156798 1_555
In3 O10 2.156798 1_545
In3 O8 2.186357 1_555
In3 O3 2.186357 1_545
In3 O5 2.246858 1_545
In3 O6 2.246858 1_555
