# generated using pymatgen
data_LiCo2OF3
_symmetry_space_group_name_H-M   'P 1'
_cell_length_a   5.98628312
_cell_length_b   5.98628312
_cell_length_c   5.16427800
_cell_angle_alpha   90.00000000
_cell_angle_beta   90.00000000
_cell_angle_gamma   119.99999025
_symmetry_Int_Tables_number   1
_chemical_formula_structural   LiCo2OF3
_chemical_formula_sum   'Li2 Co4 O2 F6'
_cell_volume   160.27094316
_cell_formula_units_Z   2
loop_
 _symmetry_equiv_pos_site_id
 _symmetry_equiv_pos_as_xyz
  1  'x, y, z'
loop_
 _atom_site_type_symbol
 _atom_site_label
 _atom_site_symmetry_multiplicity
 _atom_site_fract_x
 _atom_site_fract_y
 _atom_site_fract_z
 _atom_site_occupancy
  Li  Li0  1  0.33333300  0.66666700  0.02603300  1
  Li  Li1  1  0.66666700  0.33333300  0.97396700  1
  Co  Co0  1  0.50000000  0.50000000  0.50000000  1
  Co  Co1  1  0.50000000  0.00000000  0.50000000  1
  Co  Co2  1  0.00000000  0.50000000  0.50000000  1
  Co  Co3  1  0.00000000  0.00000000  0.00000000  1
  O  O0  1  0.33333300  0.66666700  0.66729600  1
  O  O1  1  0.66666700  0.33333300  0.33270400  1
  F  F0  1  0.17124600  0.82875400  0.21963400  1
  F  F1  1  0.17124600  0.34249200  0.21963400  1
  F  F2  1  0.34249200  0.17124600  0.78036600  1
  F  F3  1  0.65750800  0.82875400  0.21963400  1
  F  F4  1  0.82875400  0.65750800  0.78036600  1
  F  F5  1  0.82875400  0.17124600  0.78036600  1
loop_
_geom_bond_atom_site_label_1
_geom_bond_atom_site_label_2
_geom_bond_distance
_geom_bond_site_symmetry_2
Li0 O0 1.852618 1_554
Li1 O1 1.852618 1_556
Co0 O1 1.932031 1_555
Co0 O0 1.932031 1_555
Co0 F3 2.236712 1_555
Co0 F4 2.236712 1_555
Co0 F1 2.236712 1_555
Co0 F2 2.236712 1_555
Co1 O1 1.932026 1_555
Co1 O0 1.932026 1_545
Co1 F2 2.236712 1_555
Co1 F3 2.236712 1_545
Co1 F0 2.236712 1_545
Co1 F5 2.236712 1_555
Co2 O1 1.932026 1_455
Co2 O0 1.932026 1_555
Co2 F4 2.236712 1_455
Co2 F1 2.236712 1_555
Co2 F0 2.236712 1_555
Co2 F5 2.236712 1_455
Co3 F0 2.106937 1_545
Co3 F5 2.106937 1_454
Co3 F4 2.106937 1_444
Co3 F3 2.106937 1_445
Co3 F1 2.106937 1_555
Co3 F2 2.106937 1_554
F0 Li0 1.955520 1_555
F1 Li0 1.955524 1_555
F2 Li1 1.955524 1_555
F3 Li0 1.955524 1_555
F4 Li1 1.955524 1_555
F5 Li1 1.955520 1_555
