# generated using pymatgen
data_LiNd14(Cu3O14)2
_symmetry_space_group_name_H-M   'P 1'
_cell_length_a   8.79451220
_cell_length_b   8.79451220
_cell_length_c   8.89589158
_cell_angle_alpha   84.21863775
_cell_angle_beta   84.21863775
_cell_angle_gamma   88.75553220
_symmetry_Int_Tables_number   1
_chemical_formula_structural   LiNd14(Cu3O14)2
_chemical_formula_sum   'Li1 Nd14 Cu6 O28'
_cell_volume   681.01078375
_cell_formula_units_Z   1
loop_
 _symmetry_equiv_pos_site_id
 _symmetry_equiv_pos_as_xyz
  1  'x, y, z'
loop_
 _atom_site_type_symbol
 _atom_site_label
 _atom_site_symmetry_multiplicity
 _atom_site_fract_x
 _atom_site_fract_y
 _atom_site_fract_z
 _atom_site_occupancy
  Li  Li0  1  0.00000000  0.00000000  0.00000000  1
  Nd  Nd0  1  0.64949100  0.35050900  0.00000000  1
  Nd  Nd1  1  0.35050900  0.64949100  0.00000000  1
  Nd  Nd2  1  0.36254400  0.06474900  0.85746300  1
  Nd  Nd3  1  0.06474900  0.36254400  0.85746300  1
  Nd  Nd4  1  0.07736500  0.77969800  0.71510400  1
  Nd  Nd5  1  0.77969800  0.07736500  0.71510400  1
  Nd  Nd6  1  0.79299500  0.49278600  0.57098100  1
  Nd  Nd7  1  0.49278600  0.79299500  0.57098100  1
  Nd  Nd8  1  0.20700500  0.50721400  0.42901900  1
  Nd  Nd9  1  0.50721400  0.20700500  0.42901900  1
  Nd  Nd10  1  0.22030200  0.92263500  0.28489600  1
  Nd  Nd11  1  0.92263500  0.22030200  0.28489600  1
  Nd  Nd12  1  0.63745600  0.93525100  0.14253700  1
  Nd  Nd13  1  0.93525100  0.63745600  0.14253700  1
  Cu  Cu0  1  0.14279700  0.14279700  0.57106800  1
  Cu  Cu1  1  0.42936900  0.42936900  0.71453600  1
  Cu  Cu2  1  0.71359600  0.71359600  0.85736200  1
  Cu  Cu3  1  0.57063100  0.57063100  0.28546400  1
  Cu  Cu4  1  0.28640400  0.28640400  0.14263800  1
  Cu  Cu5  1  0.85720300  0.85720300  0.42893200  1
  O  O0  1  0.35737300  0.35737300  0.92840900  1
  O  O1  1  0.07452600  0.07452600  0.77691400  1
  O  O2  1  0.10756900  0.60718900  0.92889600  1
  O  O3  1  0.60718900  0.10756900  0.92889600  1
  O  O4  1  0.03556400  0.53546600  0.64342100  1
  O  O5  1  0.00000000  0.00000000  0.50000000  1
  O  O6  1  0.32103600  0.82114100  0.78630600  1
  O  O7  1  0.53546600  0.03556400  0.64342100  1
  O  O8  1  0.82114100  0.32103600  0.78630600  1
  O  O9  1  0.28824000  0.28824000  0.64341200  1
  O  O10  1  0.85039400  0.85039400  0.92483400  1
  O  O11  1  0.57329300  0.57329300  0.78604200  1
  O  O12  1  0.78633400  0.78633400  0.63875900  1
  O  O13  1  0.21366600  0.21366600  0.36124100  1
  O  O14  1  0.24921700  0.75078300  0.50000000  1
  O  O15  1  0.50000000  0.50000000  0.50000000  1
  O  O16  1  0.75078300  0.24921700  0.50000000  1
  O  O17  1  0.71176000  0.71176000  0.35658800  1
  O  O18  1  0.96443600  0.46453400  0.35657900  1
  O  O19  1  0.14960600  0.14960600  0.07516600  1
  O  O20  1  0.17885900  0.67896400  0.21369400  1
  O  O21  1  0.67896400  0.17885900  0.21369400  1
  O  O22  1  0.42670700  0.42670700  0.21395800  1
  O  O23  1  0.46453400  0.96443600  0.35657900  1
  O  O24  1  0.92547400  0.92547400  0.22308600  1
  O  O25  1  0.64262800  0.64262800  0.07159100  1
  O  O26  1  0.39281100  0.89243100  0.07110400  1
  O  O27  1  0.89243100  0.39281100  0.07110400  1
loop_
_geom_bond_atom_site_label_1
_geom_bond_atom_site_label_2
_geom_bond_distance
_geom_bond_site_symmetry_2
Li0 O24 2.071750 1_445
Li0 O1 2.071750 1_554
Li0 O19 2.083025 1_555
Li0 O10 2.083025 1_444
Nd0 O3 2.336129 1_554
Nd0 O27 2.336129 1_555
Nd0 O21 2.337506 1_555
Nd0 O8 2.337506 1_554
Nd0 O0 2.706349 1_554
Nd0 O25 2.706358 1_555
Nd0 O22 2.712784 1_555
Nd0 O11 2.712784 1_554
Nd1 O2 2.336129 1_554
Nd1 O26 2.336129 1_555
Nd1 O20 2.337506 1_555
Nd1 O6 2.337506 1_554
Nd1 O0 2.706349 1_554
Nd1 O25 2.706358 1_555
Nd1 O22 2.712784 1_555
Nd1 O11 2.712784 1_554
Nd2 O6 2.340434 1_545
Nd2 O26 2.341709 1_546
Nd2 O7 2.345699 1_555
Nd2 O3 2.352354 1_555
Nd2 O1 2.698261 1_555
Nd2 O19 2.704504 1_556
Nd2 O0 2.709164 1_555
Nd2 O9 2.712370 1_555
Nd3 O8 2.340434 1_455
Nd3 O27 2.341709 1_456
Nd3 O4 2.345699 1_555
Nd3 O2 2.352354 1_555
Nd3 O1 2.698261 1_555
Nd3 O19 2.704504 1_556
Nd3 O0 2.709164 1_555
Nd3 O9 2.712370 1_555
Nd4 O6 2.340993 1_555
Nd4 O2 2.343572 1_555
Nd4 O14 2.347167 1_555
Nd4 O4 2.347921 1_555
Nd4 O10 2.698413 1_455
Nd4 O1 2.703254 1_565
Nd4 O5 2.708580 1_565
Nd4 O12 2.711329 1_455
Nd5 O8 2.340993 1_555
Nd5 O3 2.343572 1_555
Nd5 O16 2.347167 1_555
Nd5 O7 2.347921 1_555
Nd5 O10 2.698413 1_545
Nd5 O1 2.703254 1_655
Nd5 O5 2.708580 1_655
Nd5 O12 2.711329 1_545
Nd6 O4 2.338269 1_655
Nd6 O18 2.339368 1_555
Nd6 O16 2.340783 1_555
Nd6 O8 2.346979 1_555
Nd6 O17 2.707629 1_555
Nd6 O12 2.707693 1_555
Nd6 O15 2.712010 1_555
Nd6 O11 2.713578 1_555
Nd7 O7 2.338269 1_565
Nd7 O23 2.339368 1_555
Nd7 O14 2.340783 1_555
Nd7 O6 2.346979 1_555
Nd7 O17 2.707629 1_555
Nd7 O12 2.707693 1_555
Nd7 O15 2.712010 1_555
Nd7 O11 2.713578 1_555
Nd8 O18 2.338269 1_455
Nd8 O4 2.339368 1_555
Nd8 O14 2.340783 1_555
Nd8 O20 2.346979 1_555
Nd8 O9 2.707629 1_555
Nd8 O13 2.707693 1_555
Nd8 O15 2.712010 1_555
Nd8 O22 2.713578 1_555
Nd9 O23 2.338269 1_545
Nd9 O7 2.339368 1_555
Nd9 O16 2.340783 1_555
Nd9 O21 2.346979 1_555
Nd9 O9 2.707629 1_555
Nd9 O13 2.707693 1_555
Nd9 O15 2.712010 1_555
Nd9 O22 2.713578 1_555
Nd10 O20 2.340993 1_555
Nd10 O26 2.343572 1_555
Nd10 O14 2.347167 1_555
Nd10 O23 2.347921 1_555
Nd10 O19 2.698413 1_565
Nd10 O24 2.703254 1_455
Nd10 O5 2.708580 1_565
Nd10 O13 2.711329 1_565
Nd11 O21 2.340993 1_555
Nd11 O27 2.343572 1_555
Nd11 O16 2.347167 1_555
Nd11 O18 2.347921 1_555
Nd11 O19 2.698413 1_655
Nd11 O24 2.703254 1_545
Nd11 O5 2.708580 1_655
Nd11 O13 2.711329 1_655
Nd12 O21 2.340434 1_565
Nd12 O3 2.341709 1_564
Nd12 O23 2.345699 1_555
Nd12 O26 2.352354 1_555
Nd12 O24 2.698261 1_555
Nd12 O10 2.704504 1_554
Nd12 O25 2.709155 1_555
Nd12 O17 2.712370 1_555
Nd13 O20 2.340434 1_655
Nd13 O2 2.341709 1_654
Nd13 O18 2.345699 1_555
Nd13 O27 2.352354 1_555
Nd13 O24 2.698261 1_555
Nd13 O10 2.704504 1_554
Nd13 O25 2.709155 1_555
Nd13 O17 2.712370 1_555
Cu0 O1 1.909678 1_555
Cu0 O13 1.951719 1_555
Cu0 O5 1.985529 1_555
Cu0 O9 2.022158 1_555
Cu1 O9 1.965863 1_555
Cu1 O15 1.988244 1_555
Cu1 O0 1.988386 1_555
Cu1 O11 2.000712 1_555
Cu2 O10 1.899700 1_555
Cu2 O11 1.956809 1_555
Cu2 O25 1.987120 1_556
Cu2 O12 2.028962 1_555
Cu3 O17 1.965863 1_555
Cu3 O15 1.988244 1_555
Cu3 O25 1.988390 1_555
Cu3 O22 2.000712 1_555
Cu4 O19 1.899700 1_555
Cu4 O22 1.956809 1_555
Cu4 O0 1.987124 1_554
Cu4 O13 2.028962 1_555
Cu5 O24 1.909678 1_555
Cu5 O12 1.951719 1_555
Cu5 O5 1.985529 1_665
Cu5 O17 2.022158 1_555
