# generated using pymatgen
data_Li5Fe8(BO3)8
_symmetry_space_group_name_H-M   'P 1'
_cell_length_a   5.25785100
_cell_length_b   9.05179691
_cell_length_c   10.16186804
_cell_angle_alpha   89.54967485
_cell_angle_beta   88.21318877
_cell_angle_gamma   89.62593334
_symmetry_Int_Tables_number   1
_chemical_formula_structural   Li5Fe8(BO3)8
_chemical_formula_sum   'Li5 Fe8 B8 O24'
_cell_volume   483.37413647
_cell_formula_units_Z   1
loop_
 _symmetry_equiv_pos_site_id
 _symmetry_equiv_pos_as_xyz
  1  'x, y, z'
loop_
 _atom_site_type_symbol
 _atom_site_label
 _atom_site_symmetry_multiplicity
 _atom_site_fract_x
 _atom_site_fract_y
 _atom_site_fract_z
 _atom_site_occupancy
  Li  Li0  1  0.65808200  0.98279800  0.83588700  1
  Li  Li1  1  0.34458300  0.99345200  0.09766800  1
  Li  Li2  1  0.85431400  0.50927000  0.58885000  1
  Li  Li3  1  0.16561800  0.49458100  0.84544000  1
  Li  Li4  1  0.65818600  0.00987100  0.33718500  1
  Fe  Fe0  1  0.84465900  0.82430300  0.11471700  1
  Fe  Fe1  1  0.16230000  0.82764600  0.37040400  1
  Fe  Fe2  1  0.66863200  0.65423500  0.87591100  1
  Fe  Fe3  1  0.35221500  0.67775900  0.62224400  1
  Fe  Fe4  1  0.66276800  0.35157000  0.36319700  1
  Fe  Fe5  1  0.83945700  0.16423700  0.61734800  1
  Fe  Fe6  1  0.32837800  0.34013000  0.12511000  1
  Fe  Fe7  1  0.15710900  0.15788300  0.86756500  1
  B  B0  1  0.84305700  0.83188100  0.62160500  1
  B  B1  1  0.67600200  0.67570100  0.37731700  1
  B  B2  1  0.16911400  0.83192000  0.87559800  1
  B  B3  1  0.34215300  0.66672700  0.12400800  1
  B  B4  1  0.66346500  0.32678200  0.86825700  1
  B  B5  1  0.33056600  0.33301300  0.62350000  1
  B  B6  1  0.82589000  0.17092600  0.12364300  1
  B  B7  1  0.16313300  0.16130200  0.36603100  1
  O  O0  1  0.72302500  0.96650900  0.64151900  1
  O  O1  1  0.90771900  0.83803300  0.90178400  1
  O  O2  1  0.31225500  0.95855400  0.89577500  1
  O  O3  1  0.79746100  0.80753000  0.33570300  1
  O  O4  1  0.72384100  0.70135000  0.65938500  1
  O  O5  1  0.22053200  0.79837700  0.16931000  1
  O  O6  1  0.08432200  0.82593200  0.56417500  1
  O  O7  1  0.58858600  0.67580100  0.07901000  1
  O  O8  1  0.80547000  0.54753500  0.39502900  1
  O  O9  1  0.41809000  0.68475200  0.40851600  1
  O  O10  1  0.28417300  0.70131100  0.83454200  1
  O  O11  1  0.80736900  0.45030100  0.86006600  1
  O  O12  1  0.21166700  0.53629100  0.12197800  1
  O  O13  1  0.69179100  0.30025000  0.15269000  1
  O  O14  1  0.59042200  0.32216600  0.58454600  1
  O  O15  1  0.21124400  0.46629400  0.63824000  1
  O  O16  1  0.40761700  0.32972200  0.91496700  1
  O  O17  1  0.90623200  0.16506200  0.41307600  1
  O  O18  1  0.76951500  0.19020700  0.82569100  1
  O  O19  1  0.28574300  0.28965200  0.32509700  1
  O  O20  1  0.19442100  0.20304300  0.65286400  1
  O  O21  1  0.70542100  0.03684900  0.13539100  1
  O  O22  1  0.08661100  0.17759500  0.08671600  1
  O  O23  1  0.28922100  0.02774700  0.35648400  1
loop_
_geom_bond_atom_site_label_1
_geom_bond_atom_site_label_2
_geom_bond_distance
_geom_bond_site_symmetry_2
Li0 O2 1.912816 1_555
Li0 O18 1.971358 1_565
Li0 O1 1.976582 1_555
Li0 O0 2.000346 1_555
Li1 O21 1.989522 1_565
Li1 O5 2.009633 1_555
Li1 O2 2.090554 1_554
Li1 O22 2.146493 1_565
Li2 O15 1.992814 1_655
Li2 O4 1.995165 1_555
Li2 O8 2.021099 1_555
Li2 O14 2.197974 1_555
Li3 O11 1.929308 1_455
Li3 O10 1.977416 1_555
Li3 O16 2.087997 1_555
Li3 O15 2.128985 1_555
Li4 O23 1.949557 1_555
Li4 O3 1.968065 1_545
Li4 O21 2.070616 1_555
Li4 O17 2.091092 1_555
Fe0 O7 1.952716 1_555
Fe0 O21 2.063964 1_565
Fe0 O5 2.080579 1_655
Fe0 O1 2.181506 1_554
Fe0 O3 2.255631 1_555
Fe1 O9 1.906217 1_555
Fe1 O23 1.936988 1_565
Fe1 O3 1.971043 1_455
Fe1 O6 1.998713 1_555
Fe1 O5 2.075626 1_555
Fe2 O11 1.986304 1_555
Fe2 O7 2.103775 1_556
Fe2 O1 2.114731 1_555
Fe2 O10 2.117406 1_555
Fe2 O4 2.248230 1_555
Fe3 O4 2.014619 1_555
Fe3 O6 2.036129 1_555
Fe3 O15 2.060547 1_555
Fe3 O10 2.187619 1_555
Fe3 O9 2.189116 1_555
Fe4 O8 1.963573 1_555
Fe4 O19 2.111748 1_555
Fe4 O17 2.178183 1_555
Fe4 O13 2.193025 1_555
Fe4 O14 2.283314 1_555
Fe5 O0 1.906955 1_545
Fe5 O20 1.946652 1_655
Fe5 O14 1.965829 1_555
Fe5 O17 2.094409 1_555
Fe5 O18 2.151971 1_555
Fe6 O12 1.875225 1_555
Fe6 O13 1.970458 1_555
Fe6 O22 1.999251 1_555
Fe6 O19 2.085033 1_555
Fe6 O16 2.165583 1_554
Fe7 O2 1.997569 1_545
Fe7 O18 2.112840 1_455
Fe7 O16 2.112911 1_555
Fe7 O20 2.219463 1_555
Fe7 O22 2.254461 1_556
B0 O6 1.380616 1_655
B0 O0 1.382089 1_555
B0 O4 1.387034 1_555
B1 O8 1.354893 1_555
B1 O9 1.385020 1_555
B1 O3 1.412716 1_555
B2 O10 1.385793 1_555
B2 O1 1.392556 1_455
B2 O2 1.395340 1_555
B3 O7 1.363285 1_555
B3 O12 1.370027 1_555
B3 O5 1.421700 1_555
B4 O11 1.354675 1_555
B4 O16 1.412627 1_555
B4 O18 1.417987 1_555
B5 O15 1.363310 1_555
B5 O20 1.406297 1_555
B5 O14 1.413576 1_555
B6 O21 1.375289 1_555
B6 O13 1.391499 1_555
B6 O22 1.411482 1_655
B7 O23 1.377590 1_555
B7 O19 1.387031 1_555
B7 O17 1.419017 1_455
