# generated using pymatgen
data_Li4Ti11O24
_symmetry_space_group_name_H-M   'P 1'
_cell_length_a   10.26379631
_cell_length_b   10.26379631
_cell_length_c   8.50023487
_cell_angle_alpha   65.92981488
_cell_angle_beta   65.92981488
_cell_angle_gamma   33.92879504
_symmetry_Int_Tables_number   1
_chemical_formula_structural   Li4Ti11O24
_chemical_formula_sum   'Li4 Ti11 O24'
_cell_volume   452.09565082
_cell_formula_units_Z   1
loop_
 _symmetry_equiv_pos_site_id
 _symmetry_equiv_pos_as_xyz
  1  'x, y, z'
loop_
 _atom_site_type_symbol
 _atom_site_label
 _atom_site_symmetry_multiplicity
 _atom_site_fract_x
 _atom_site_fract_y
 _atom_site_fract_z
 _atom_site_occupancy
  Li  Li0  1  0.58403400  0.58403400  0.53198400  1
  Li  Li1  1  0.41596600  0.41596600  0.46801600  1
  Li  Li2  1  0.08905600  0.08905600  0.78907600  1
  Li  Li3  1  0.91094400  0.91094400  0.21092400  1
  Ti  Ti0  1  0.66679300  0.17756700  0.83889000  1
  Ti  Ti1  1  0.82243300  0.33320700  0.16111000  1
  Ti  Ti2  1  0.17057000  0.17057000  0.31425900  1
  Ti  Ti3  1  0.34146600  0.34146600  0.15727900  1
  Ti  Ti4  1  0.17756700  0.66679300  0.83889000  1
  Ti  Ti5  1  0.33320700  0.82243300  0.16111000  1
  Ti  Ti6  1  0.00000000  0.50000000  0.50000000  1
  Ti  Ti7  1  0.82943000  0.82943000  0.68574100  1
  Ti  Ti8  1  0.65853400  0.65853400  0.84272100  1
  Ti  Ti9  1  0.00000000  0.00000000  0.50000000  1
  Ti  Ti10  1  0.50000000  0.00000000  0.50000000  1
  O  O0  1  0.86588300  0.30159200  0.40468500  1
  O  O1  1  0.69840800  0.13411700  0.59531500  1
  O  O2  1  0.65338300  0.16484800  0.07174600  1
  O  O3  1  0.17797100  0.17797100  0.56418500  1
  O  O4  1  0.15579600  0.15579600  0.11360500  1
  O  O5  1  0.48936200  0.48936200  0.74836700  1
  O  O6  1  0.34617600  0.34617600  0.92333900  1
  O  O7  1  0.32721100  0.32721100  0.41282300  1
  O  O8  1  0.51063800  0.51063800  0.25163300  1
  O  O9  1  0.03402800  0.46551400  0.27099500  1
  O  O10  1  0.16484800  0.65338300  0.07174600  1
  O  O11  1  0.83515200  0.34661700  0.92825400  1
  O  O12  1  0.30159200  0.86588300  0.40468500  1
  O  O13  1  0.13411700  0.69840800  0.59531500  1
  O  O14  1  0.96597200  0.53448600  0.72900500  1
  O  O15  1  0.00708000  0.00708000  0.25586500  1
  O  O16  1  0.67278900  0.67278900  0.58717700  1
  O  O17  1  0.99292000  0.99292000  0.74413500  1
  O  O18  1  0.84420400  0.84420400  0.88639500  1
  O  O19  1  0.82202900  0.82202900  0.43581500  1
  O  O20  1  0.65382400  0.65382400  0.07666100  1
  O  O21  1  0.53448600  0.96597200  0.72900500  1
  O  O22  1  0.34661700  0.83515200  0.92825400  1
  O  O23  1  0.46551400  0.03402800  0.27099500  1
loop_
_geom_bond_atom_site_label_1
_geom_bond_atom_site_label_2
_geom_bond_distance
_geom_bond_site_symmetry_2
Li0 O5 1.980537 1_555
Li0 O16 1.988508 1_555
Li0 O12 2.008002 1_555
Li0 O0 2.008002 1_555
Li1 O8 1.980537 1_555
Li1 O7 1.988508 1_555
Li1 O13 2.008002 1_555
Li1 O1 2.008002 1_555
Li2 O22 1.945054 1_545
Li2 O11 1.945054 1_455
Li2 O3 1.963665 1_555
Li2 O17 2.079372 1_445
Li3 O2 1.945054 1_565
Li3 O10 1.945054 1_655
Li3 O19 1.963665 1_555
Li3 O15 2.079372 1_665
O0 Ti9 1.981457 1_655
O0 Ti2 2.020522 1_655
O0 Ti1 2.134462 1_555
O1 Ti9 1.981457 1_655
O1 Ti7 2.020522 1_545
O1 Ti0 2.134462 1_555
O2 Ti0 1.884292 1_554
O2 Ti3 1.899938 1_555
O3 Ti6 1.970239 1_555
O3 Ti10 1.970239 1_555
O3 Ti2 2.190340 1_555
O4 Ti2 1.848020 1_555
O4 Ti5 2.078365 1_545
O4 Ti1 2.078365 1_455
O5 Ti4 1.900783 1_555
O5 Ti0 1.900783 1_555
O6 Ti3 1.950906 1_556
O6 Ti4 1.993790 1_555
O6 Ti0 1.993790 1_555
O7 Ti6 2.032589 1_555
O7 Ti10 2.032589 1_555
O7 Ti3 2.068389 1_555
O8 Ti1 1.900783 1_555
O8 Ti5 1.900783 1_555
O9 Ti2 1.932745 1_555
O9 Ti6 1.959291 1_555
O9 Ti3 2.088374 1_555
O10 Ti4 1.884292 1_554
O10 Ti3 1.899938 1_555
O11 Ti1 1.884292 1_556
O11 Ti8 1.899938 1_555
O12 Ti9 1.981457 1_565
O12 Ti2 2.020522 1_565
O12 Ti5 2.134462 1_555
O13 Ti9 1.981457 1_565
O13 Ti7 2.020522 1_455
O13 Ti4 2.134462 1_555
O14 Ti7 1.932745 1_555
O14 Ti6 1.959291 1_655
O14 Ti8 2.088374 1_555
O15 Ti1 1.990882 1_455
O15 Ti5 1.990882 1_545
O15 Ti9 2.019847 1_555
O16 Ti10 2.032589 1_565
O16 Ti6 2.032589 1_655
O16 Ti8 2.068389 1_555
O17 Ti0 1.990882 1_565
O17 Ti4 1.990882 1_655
O17 Ti9 2.019847 1_665
O18 Ti7 1.848020 1_555
O18 Ti4 2.078365 1_655
O18 Ti0 2.078365 1_565
O19 Ti6 1.970239 1_655
O19 Ti10 1.970239 1_565
O19 Ti7 2.190340 1_555
O20 Ti8 1.950906 1_554
O20 Ti1 1.993790 1_555
O20 Ti5 1.993790 1_555
O21 Ti7 1.932745 1_555
O21 Ti10 1.959291 1_565
O21 Ti8 2.088374 1_555
O22 Ti5 1.884292 1_556
O22 Ti8 1.899938 1_555
O23 Ti2 1.932745 1_555
O23 Ti10 1.959291 1_555
O23 Ti3 2.088374 1_555
