# generated using pymatgen
data_LiFePCO7
_symmetry_space_group_name_H-M   'P 1'
_cell_length_a   6.43013300
_cell_length_b   5.20294800
_cell_length_c   8.45524431
_cell_angle_alpha   84.13223565
_cell_angle_beta   90.00000000
_cell_angle_gamma   90.00000000
_symmetry_Int_Tables_number   1
_chemical_formula_structural   LiFePCO7
_chemical_formula_sum   'Li2 Fe2 P2 C2 O14'
_cell_volume   281.39354526
_cell_formula_units_Z   2
loop_
 _symmetry_equiv_pos_site_id
 _symmetry_equiv_pos_as_xyz
  1  'x, y, z'
loop_
 _atom_site_type_symbol
 _atom_site_label
 _atom_site_symmetry_multiplicity
 _atom_site_fract_x
 _atom_site_fract_y
 _atom_site_fract_z
 _atom_site_occupancy
  Li  Li0  1  0.25000000  0.77175700  0.11150700  1
  Li  Li1  1  0.75000000  0.22824300  0.88849300  1
  Fe  Fe0  1  0.75000000  0.80058900  0.33409000  1
  Fe  Fe1  1  0.25000000  0.19941100  0.66591000  1
  P  P0  1  0.25000000  0.73489400  0.42363900  1
  P  P1  1  0.75000000  0.26510600  0.57636100  1
  C  C0  1  0.75000000  0.70245700  0.04409600  1
  C  C1  1  0.25000000  0.29754300  0.95590400  1
  O  O0  1  0.75000000  0.94349600  0.06895900  1
  O  O1  1  0.25000000  0.38529100  0.08951600  1
  O  O2  1  0.75000000  0.53934600  0.17233100  1
  O  O3  1  0.06255000  0.80052900  0.31054700  1
  O  O4  1  0.43745000  0.80052900  0.31054700  1
  O  O5  1  0.75000000  0.11735100  0.42805800  1
  O  O6  1  0.25000000  0.44336200  0.48117300  1
  O  O7  1  0.75000000  0.55663800  0.51882700  1
  O  O8  1  0.25000000  0.88264900  0.57194200  1
  O  O9  1  0.56255000  0.19947100  0.68945300  1
  O  O10  1  0.93745000  0.19947100  0.68945300  1
  O  O11  1  0.25000000  0.46065400  0.82766900  1
  O  O12  1  0.75000000  0.61470900  0.91048400  1
  O  O13  1  0.25000000  0.05650400  0.93104100  1
loop_
_geom_bond_atom_site_label_1
_geom_bond_atom_site_label_2
_geom_bond_distance
_geom_bond_site_symmetry_2
Li0 O13 2.015196 1_564
Li0 O1 2.038182 1_555
Li0 O4 2.087821 1_555
Li0 O3 2.087821 1_555
Li1 O0 2.015196 1_546
Li1 O12 2.038182 1_555
Li1 O9 2.087821 1_555
Li1 O10 2.087821 1_555
Fe0 O5 1.901374 1_565
Fe0 O7 1.909318 1_555
Fe0 O4 2.019576 1_555
Fe0 O3 2.019576 1_655
Fe0 O2 2.024417 1_555
Fe0 O0 2.288552 1_555
Fe1 O8 1.901374 1_545
Fe1 O6 1.909318 1_555
Fe1 O10 2.019576 1_455
Fe1 O9 2.019576 1_555
Fe1 O11 2.024417 1_555
Fe1 O13 2.288552 1_555
C0 O12 1.261018 1_554
C0 O0 1.292633 1_555
C0 O2 1.306788 1_555
C1 O1 1.261018 1_556
C1 O13 1.292633 1_555
C1 O11 1.306788 1_555
O3 P0 1.554679 1_555
O4 P0 1.554679 1_555
O5 P1 1.536378 1_555
O6 P0 1.544842 1_555
O7 P1 1.544842 1_555
O8 P0 1.536378 1_555
O9 P1 1.554679 1_555
O10 P1 1.554679 1_555
