# generated using pymatgen
data_Li2MnCr3O8
_symmetry_space_group_name_H-M   'P 1'
_cell_length_a   5.90052430
_cell_length_b   5.98983092
_cell_length_c   5.89455193
_cell_angle_alpha   60.52464605
_cell_angle_beta   119.96705228
_cell_angle_gamma   119.45161655
_symmetry_Int_Tables_number   1
_chemical_formula_structural   Li2MnCr3O8
_chemical_formula_sum   'Li2 Mn1 Cr3 O8'
_cell_volume   148.53382051
_cell_formula_units_Z   1
loop_
 _symmetry_equiv_pos_site_id
 _symmetry_equiv_pos_as_xyz
  1  'x, y, z'
loop_
 _atom_site_type_symbol
 _atom_site_label
 _atom_site_symmetry_multiplicity
 _atom_site_fract_x
 _atom_site_fract_y
 _atom_site_fract_z
 _atom_site_occupancy
  Li  Li0  1  0.99998300  0.50000900  0.50000000  1
  Li  Li1  1  0.99998500  0.50001000  0.99997700  1
  Mn  Mn0  1  0.99997300  0.99999200  0.99996200  1
  Cr  Cr0  1  0.50010900  0.00009200  0.49998000  1
  Cr  Cr1  1  0.00002500  0.99986200  0.50001900  1
  Cr  Cr2  1  0.49994100  0.00002300  0.00005100  1
  O  O0  1  0.77804600  0.79614200  0.74178600  1
  O  O1  1  0.24851000  0.78957000  0.72946800  1
  O  O2  1  0.77803800  0.79613900  0.24011800  1
  O  O3  1  0.24786100  0.78955300  0.22915600  1
  O  O4  1  0.75211600  0.21041300  0.77085900  1
  O  O5  1  0.22196800  0.20387900  0.75990400  1
  O  O6  1  0.75147000  0.21043400  0.27052200  1
  O  O7  1  0.22197700  0.20388300  0.25820000  1
loop_
_geom_bond_atom_site_label_1
_geom_bond_atom_site_label_2
_geom_bond_distance
_geom_bond_site_symmetry_2
Li0 O3 2.193028 1_655
Li0 O4 2.193078 1_555
Li0 O2 2.194108 1_555
Li0 O1 2.194133 1_655
Li0 O6 2.194239 1_555
Li0 O5 2.194261 1_655
Li1 O3 2.193017 1_656
Li1 O4 2.193025 1_555
Li1 O0 2.194094 1_555
Li1 O1 2.194163 1_655
Li1 O7 2.194274 1_656
Li1 O6 2.194277 1_556
Mn0 O4 1.927626 1_565
Mn0 O3 1.927833 1_656
Mn0 O0 1.946050 1_555
Mn0 O5 1.946157 1_665
Mn0 O2 1.946348 1_556
Mn0 O7 1.946481 1_666
Cr0 O6 2.026329 1_555
Cr0 O1 2.027453 1_545
Cr0 O4 2.028087 1_555
Cr0 O3 2.028747 1_545
Cr0 O0 2.033439 1_545
Cr0 O7 2.033683 1_555
Cr1 O1 1.929806 1_555
Cr1 O6 1.931251 1_465
Cr1 O2 1.953206 1_455
Cr1 O0 1.953764 1_455
Cr1 O7 1.953766 1_565
Cr1 O5 1.954342 1_565
Cr2 O6 2.026592 1_555
Cr2 O1 2.027216 1_544
Cr2 O3 2.027990 1_545
Cr2 O4 2.028821 1_554
Cr2 O5 2.033230 1_554
Cr2 O2 2.033893 1_545
