# generated using pymatgen
data_Na2NiPCO7
_symmetry_space_group_name_H-M   'P 1'
_cell_length_a   6.61745700
_cell_length_b   8.87990947
_cell_length_c   10.29322307
_cell_angle_alpha   88.60854309
_cell_angle_beta   89.71486763
_cell_angle_gamma   89.54542472
_symmetry_Int_Tables_number   1
_chemical_formula_structural   Na2NiPCO7
_chemical_formula_sum   'Na8 Ni4 P4 C4 O28'
_cell_volume   604.65037546
_cell_formula_units_Z   4
loop_
 _symmetry_equiv_pos_site_id
 _symmetry_equiv_pos_as_xyz
  1  'x, y, z'
loop_
 _atom_site_type_symbol
 _atom_site_label
 _atom_site_symmetry_multiplicity
 _atom_site_fract_x
 _atom_site_fract_y
 _atom_site_fract_z
 _atom_site_occupancy
  Na  Na0  1  0.01032500  0.75157400  0.87773500  1
  Na  Na1  1  0.48904000  0.75095600  0.88012200  1
  Na  Na2  1  0.01419000  0.73565100  0.37721400  1
  Na  Na3  1  0.48178700  0.73518100  0.37635600  1
  Na  Na4  1  0.97785500  0.26297700  0.63361200  1
  Na  Na5  1  0.51335200  0.25482000  0.11775600  1
  Na  Na6  1  0.99101900  0.25243400  0.11369800  1
  Na  Na7  1  0.73139100  0.08968200  0.40475900  1
  Ni  Ni0  1  0.74812600  0.64812000  0.60972400  1
  Ni  Ni1  1  0.75279000  0.65238300  0.11089800  1
  Ni  Ni2  1  0.25634700  0.35049500  0.88774100  1
  Ni  Ni3  1  0.25192100  0.34484600  0.39332700  1
  P  P0  1  0.24969500  0.57438200  0.63944500  1
  P  P1  1  0.25053500  0.57723100  0.14226600  1
  P  P2  1  0.75194200  0.42563000  0.85862700  1
  P  P3  1  0.75053000  0.41785100  0.35376500  1
  C  C0  1  0.75326400  0.92355200  0.64148900  1
  C  C1  1  0.75015000  0.92877500  0.14808800  1
  C  C2  1  0.25155400  0.07663000  0.85710100  1
  C  C3  1  0.24629300  0.07062100  0.35566400  1
  O  O0  1  0.24829500  0.93595900  0.84404700  1
  O  O1  1  0.24645400  0.93019400  0.33848100  1
  O  O2  1  0.74779300  0.85938200  0.52726100  1
  O  O3  1  0.74967100  0.86885800  0.03432600  1
  O  O4  1  0.74724100  0.82913500  0.73985400  1
  O  O5  1  0.74839800  0.83264000  0.24641900  1
  O  O6  1  0.06263800  0.67489700  0.60621800  1
  O  O7  1  0.43674500  0.66972100  0.60208600  1
  O  O8  1  0.06431500  0.67650000  0.10680600  1
  O  O9  1  0.43884600  0.67268900  0.10750700  1
  O  O10  1  0.75393200  0.57893500  0.92710500  1
  O  O11  1  0.74802500  0.56849800  0.42548100  1
  O  O12  1  0.25023900  0.54199300  0.79049000  1
  O  O13  1  0.24804000  0.54079900  0.29254800  1
  O  O14  1  0.75555900  0.46005300  0.70906500  1
  O  O15  1  0.76231500  0.45518800  0.20334100  1
  O  O16  1  0.24165500  0.42316400  0.56995700  1
  O  O17  1  0.25012400  0.42554100  0.07065600  1
  O  O18  1  0.56519700  0.33166500  0.89883500  1
  O  O19  1  0.94029400  0.32701600  0.89282900  1
  O  O20  1  0.56078400  0.32026500  0.37702000  1
  O  O21  1  0.93372400  0.31634400  0.39261700  1
  O  O22  1  0.25062700  0.17396300  0.76105400  1
  O  O23  1  0.24892600  0.17059700  0.26033500  1
  O  O24  1  0.25607200  0.13894900  0.97078700  1
  O  O25  1  0.24600300  0.12863700  0.47004400  1
  O  O26  1  0.76400300  0.06450700  0.64814800  1
  O  O27  1  0.75213600  0.07044100  0.16526500  1
loop_
_geom_bond_atom_site_label_1
_geom_bond_atom_site_label_2
_geom_bond_distance
_geom_bond_site_symmetry_2
Na0 O0 2.299745 1_555
Na0 O4 2.340425 1_455
Na0 O10 2.341353 1_455
Na0 O8 2.461692 1_556
Na0 O3 2.585181 1_456
Na0 O12 2.609721 1_555
Na0 O6 2.910896 1_555
Na1 O0 2.304229 1_555
Na1 O4 2.330569 1_555
Na1 O10 2.360084 1_555
Na1 O9 2.447108 1_556
Na1 O3 2.593598 1_556
Na1 O12 2.633578 1_555
Na2 O1 2.346963 1_555
Na2 O11 2.355685 1_455
Na2 O5 2.364555 1_455
Na2 O6 2.427590 1_555
Na2 O13 2.483017 1_555
Na2 O2 2.593233 1_455
Na2 O8 2.862187 1_555
Na3 O11 2.341285 1_555
Na3 O1 2.346578 1_555
Na3 O5 2.365381 1_555
Na3 O7 2.399082 1_555
Na3 O13 2.498832 1_555
Na3 O2 2.620864 1_555
Na3 O9 2.851609 1_555
Na4 O26 2.270628 1_555
Na4 O16 2.341544 1_655
Na4 O22 2.356773 1_655
Na4 O14 2.417330 1_555
Na4 O21 2.532042 1_555
Na4 O25 2.727755 1_655
Na4 O19 2.751214 1_555
Na5 O27 2.311795 1_555
Na5 O17 2.344842 1_555
Na5 O18 2.362733 1_554
Na5 O23 2.391021 1_555
Na5 O24 2.524850 1_554
Na5 O15 2.606365 1_555
Na5 O20 2.764880 1_555
Na6 O27 2.320109 1_555
Na6 O17 2.345269 1_655
Na6 O19 2.377147 1_554
Na6 O23 2.381547 1_655
Na6 O24 2.504819 1_654
Na6 O15 2.531210 1_555
Na7 O20 2.342381 1_555
Na7 O2 2.378352 1_545
Na7 O21 2.426592 1_555
Na7 O27 2.478264 1_555
Na7 O26 2.519976 1_555
Na7 O5 2.837892 1_545
Ni0 O14 1.937325 1_555
Ni0 O11 2.039995 1_555
Ni0 O2 2.040204 1_555
Ni0 O7 2.069650 1_555
Ni0 O6 2.096715 1_655
Ni0 O4 2.117131 1_555
Ni1 O15 1.973215 1_555
Ni1 O10 2.015969 1_554
Ni1 O3 2.059793 1_555
Ni1 O8 2.074400 1_655
Ni1 O9 2.084288 1_555
Ni1 O5 2.148524 1_555
Ni2 O12 1.952429 1_555
Ni2 O17 2.012559 1_556
Ni2 O24 2.044885 1_555
Ni2 O18 2.052827 1_555
Ni2 O22 2.063962 1_555
Ni2 O19 2.103745 1_455
Ni3 O16 1.962947 1_555
Ni3 O13 2.004092 1_555
Ni3 O25 2.058747 1_555
Ni3 O20 2.060238 1_555
Ni3 O23 2.090965 1_555
Ni3 O21 2.122874 1_455
C0 O26 1.257794 1_565
C0 O4 1.299450 1_555
C0 O2 1.319752 1_555
C1 O27 1.274770 1_565
C1 O3 1.297924 1_555
C1 O5 1.308204 1_555
C2 O0 1.259957 1_545
C2 O22 1.297281 1_555
C2 O24 1.307115 1_555
C3 O1 1.263696 1_545
C3 O25 1.296517 1_555
C3 O23 1.307310 1_555
O6 P0 1.554912 1_555
O7 P0 1.546876 1_555
O8 P1 1.549338 1_555
O9 P1 1.548222 1_555
O10 P2 1.548293 1_555
O11 P3 1.543441 1_555
O12 P0 1.574253 1_555
O13 P1 1.572678 1_555
O14 P2 1.562334 1_555
O15 P3 1.577233 1_555
O16 P0 1.538082 1_555
O17 P1 1.551132 1_555
O18 P2 1.545690 1_555
O19 P2 1.554470 1_555
O20 P3 1.545651 1_555
O21 P3 1.553062 1_555
