# generated using pymatgen
data_K5Se3
_symmetry_space_group_name_H-M   'P 1'
_cell_length_a   6.07077632
_cell_length_b   9.61659281
_cell_length_c   9.60943852
_cell_angle_alpha   95.66702584
_cell_angle_beta   108.28045089
_cell_angle_gamma   71.64225871
_symmetry_Int_Tables_number   1
_chemical_formula_structural   K5Se3
_chemical_formula_sum   'K10 Se6'
_cell_volume   505.57922680
_cell_formula_units_Z   2
loop_
 _symmetry_equiv_pos_site_id
 _symmetry_equiv_pos_as_xyz
  1  'x, y, z'
loop_
 _atom_site_type_symbol
 _atom_site_label
 _atom_site_symmetry_multiplicity
 _atom_site_fract_x
 _atom_site_fract_y
 _atom_site_fract_z
 _atom_site_occupancy
  K  K0  1  0.91171817  0.87377997  0.69410438  1
  K  K1  1  0.72012723  0.86702481  0.31585476  1
  K  K2  1  0.21270553  0.69416839  0.12689140  1
  K  K3  1  0.59184498  0.68360156  0.86873835  1
  K  K4  1  0.24713446  0.49970547  0.49899887  1
  K  K5  1  0.74815070  0.50037398  0.50193734  1
  K  K6  1  0.40753779  0.31585838  0.13374334  1
  K  K7  1  0.78153182  0.30537182  0.87320437  1
  K  K8  1  0.27501126  0.13289551  0.68264568  1
  K  K9  1  0.08614941  0.12627402  0.30355540  1
  Se  Se0  1  0.33982948  0.81012457  0.49630292  1
  Se  Se1  1  0.15339050  0.50225809  0.81053486  1
  Se  Se2  1  0.84322384  0.49730756  0.19029634  1
  Se  Se3  1  0.65378377  0.18981137  0.50181298  1
  Se  Se4  1  0.29775247  0.99936661  0.99893948  1
  Se  Se5  1  0.69681958  0.00049090  0.99947253  1
loop_
_geom_bond_atom_site_label_1
_geom_bond_atom_site_label_2
_geom_bond_distance
_geom_bond_site_symmetry_2
K0 Se3 3.376249 1_565
K0 Se4 3.508418 1_655
K0 Se5 3.534356 1_565
K0 Se0 3.550968 1_655
K0 Se1 3.553437 1_655
K0 Se0 3.606956 1_555
K1 Se4 3.358572 1_554
K1 Se5 3.361087 1_564
K1 Se3 3.399915 1_565
K1 Se0 3.482937 1_555
K1 Se0 3.501098 1_655
K1 Se2 3.563711 1_555
K2 Se1 3.376555 1_554
K2 Se4 3.529564 1_554
K2 Se5 3.532795 1_464
K2 Se0 3.532997 1_555
K2 Se2 3.570201 1_455
K2 Se2 3.578683 1_555
K3 Se4 3.348111 1_555
K3 Se5 3.352006 1_565
K3 Se2 3.391073 1_556
K3 Se1 3.497739 1_655
K3 Se1 3.498046 1_555
K3 Se0 3.589159 1_555
K4 Se2 3.204977 1_455
K4 Se0 3.211099 1_555
K4 Se3 3.211875 1_555
K4 Se1 3.214361 1_555
K5 Se1 3.207370 1_655
K5 Se0 3.212017 1_555
K5 Se3 3.213142 1_555
K5 Se2 3.218438 1_555
K6 Se5 3.352667 1_554
K6 Se4 3.367944 1_544
K6 Se1 3.404588 1_554
K6 Se2 3.486258 1_555
K6 Se2 3.505939 1_455
K6 Se3 3.549976 1_555
K7 Se2 3.382392 1_556
K7 Se5 3.518047 1_555
K7 Se4 3.529646 1_645
K7 Se3 3.549154 1_555
K7 Se1 3.567282 1_555
K7 Se1 3.579678 1_655
K8 Se5 3.356875 1_555
K8 Se4 3.361820 1_545
K8 Se0 3.401587 1_545
K8 Se3 3.477630 1_555
K8 Se3 3.509775 1_455
K8 Se1 3.567545 1_555
K9 Se0 3.379209 1_545
K9 Se5 3.515403 1_454
K9 Se4 3.517660 1_544
K9 Se2 3.540633 1_455
K9 Se3 3.576229 1_455
K9 Se3 3.585464 1_555
Se4 Se5 2.424472 1_565
