# generated using pymatgen
data_K2Co2(MoO4)3
_symmetry_space_group_name_H-M   'P 1'
_cell_length_a   8.38793800
_cell_length_b   14.23245300
_cell_length_c   20.11243565
_cell_angle_alpha   74.29545482
_cell_angle_beta   90.00000000
_cell_angle_gamma   90.00000000
_symmetry_Int_Tables_number   1
_chemical_formula_structural   K2Co2(MoO4)3
_chemical_formula_sum   'K16 Co16 Mo24 O96'
_cell_volume   2311.41113195
_cell_formula_units_Z   8
loop_
 _symmetry_equiv_pos_site_id
 _symmetry_equiv_pos_as_xyz
  1  'x, y, z'
loop_
 _atom_site_type_symbol
 _atom_site_label
 _atom_site_symmetry_multiplicity
 _atom_site_fract_x
 _atom_site_fract_y
 _atom_site_fract_z
 _atom_site_occupancy
  K  K0  1  0.31982700  0.98709000  0.78251700  1
  K  K1  1  0.97720000  0.28945600  0.58443800  1
  K  K2  1  0.01422400  0.89877500  0.58815500  1
  K  K3  1  0.47720000  0.71054400  0.91556200  1
  K  K4  1  0.52280000  0.28945600  0.08443800  1
  K  K5  1  0.02280000  0.71054400  0.41556200  1
  K  K6  1  0.01697700  0.49860100  0.73555300  1
  K  K7  1  0.51422400  0.10122500  0.91184500  1
  K  K8  1  0.81982700  0.01291000  0.71748300  1
  K  K9  1  0.48302300  0.49860100  0.23555300  1
  K  K10  1  0.48577600  0.89877500  0.08815500  1
  K  K11  1  0.98577600  0.10122500  0.41184500  1
  K  K12  1  0.51697700  0.50139900  0.76444700  1
  K  K13  1  0.18017300  0.98709000  0.28251700  1
  K  K14  1  0.98302300  0.50139900  0.26444700  1
  K  K15  1  0.68017300  0.01291000  0.21748300  1
  Co  Co0  1  0.04623000  0.71013400  0.94672100  1
  Co  Co1  1  0.37563800  0.22137700  0.42989900  1
  Co  Co2  1  0.95377000  0.28986600  0.05327900  1
  Co  Co3  1  0.54623000  0.28986600  0.55327900  1
  Co  Co4  1  0.82902400  0.58591800  0.87602800  1
  Co  Co5  1  0.06769100  0.88318400  0.15821500  1
  Co  Co6  1  0.17097600  0.41408200  0.12397200  1
  Co  Co7  1  0.12436200  0.22137700  0.92989900  1
  Co  Co8  1  0.32902400  0.41408200  0.62397200  1
  Co  Co9  1  0.56769100  0.11681600  0.34178500  1
  Co  Co10  1  0.45377000  0.71013400  0.44672100  1
  Co  Co11  1  0.87563800  0.77862300  0.07010100  1
  Co  Co12  1  0.67097600  0.58591800  0.37602800  1
  Co  Co13  1  0.62436200  0.77862300  0.57010100  1
  Co  Co14  1  0.93230900  0.11681600  0.84178500  1
  Co  Co15  1  0.43230900  0.88318400  0.65821500  1
  Mo  Mo0  1  0.36051800  0.96044100  0.45013700  1
  Mo  Mo1  1  0.23582800  0.25751100  0.75588500  1
  Mo  Mo2  1  0.62643500  0.25112100  0.73217300  1
  Mo  Mo3  1  0.86051800  0.03955900  0.04986300  1
  Mo  Mo4  1  0.20243200  0.12036400  0.08766200  1
  Mo  Mo5  1  0.76427900  0.32690000  0.89749300  1
  Mo  Mo6  1  0.13948200  0.96044100  0.95013700  1
  Mo  Mo7  1  0.23572100  0.67310000  0.10250700  1
  Mo  Mo8  1  0.12643500  0.74887900  0.76782700  1
  Mo  Mo9  1  0.63948200  0.03955900  0.54986300  1
  Mo  Mo10  1  0.81240300  0.53421100  0.04706000  1
  Mo  Mo11  1  0.76417200  0.74248900  0.24411500  1
  Mo  Mo12  1  0.70243200  0.87963600  0.41233800  1
  Mo  Mo13  1  0.87356500  0.25112100  0.23217300  1
  Mo  Mo14  1  0.29756800  0.12036400  0.58766200  1
  Mo  Mo15  1  0.26427900  0.67310000  0.60250700  1
  Mo  Mo16  1  0.26417200  0.25751100  0.25588500  1
  Mo  Mo17  1  0.37356500  0.74887900  0.26782700  1
  Mo  Mo18  1  0.18759700  0.46578900  0.95294000  1
  Mo  Mo19  1  0.31240300  0.46578900  0.45294000  1
  Mo  Mo20  1  0.73572100  0.32690000  0.39749300  1
  Mo  Mo21  1  0.68759700  0.53421100  0.54706000  1
  Mo  Mo22  1  0.73582800  0.74248900  0.74411500  1
  Mo  Mo23  1  0.79756800  0.87963600  0.91233800  1
  O  O0  1  0.57063100  0.29908800  0.87569000  1
  O  O1  1  0.83166000  0.76656000  0.88846600  1
  O  O2  1  0.22971100  0.85684500  0.71193700  1
  O  O3  1  0.70255000  0.83377900  0.99715000  1
  O  O4  1  0.32564400  0.48864600  0.88649100  1
  O  O5  1  0.35296200  0.09144300  0.40156200  1
  O  O6  1  0.40831800  0.34791100  0.45946900  1
  O  O7  1  0.77028900  0.14315500  0.28806300  1
  O  O8  1  0.67161000  0.08056500  0.06601800  1
  O  O9  1  0.79249600  0.70413100  0.16770100  1
  O  O10  1  0.33166000  0.23344000  0.61153400  1
  O  O11  1  0.43824200  0.34206400  0.71164300  1
  O  O12  1  0.82738800  0.24276300  0.14599500  1
  O  O13  1  0.91252200  0.83673400  0.24082700  1
  O  O14  1  0.06175800  0.34206400  0.21164300  1
  O  O15  1  0.14703800  0.09144300  0.90156200  1
  O  O16  1  0.47462300  0.03351500  0.63544400  1
  O  O17  1  0.81659700  0.45117900  0.85359800  1
  O  O18  1  0.67261200  0.24276300  0.64599500  1
  O  O19  1  0.42025100  0.17244700  0.77513600  1
  O  O20  1  0.92936900  0.29908800  0.37569000  1
  O  O21  1  0.85296200  0.90855700  0.09843800  1
  O  O22  1  0.74183700  0.31489400  0.48967900  1
  O  O23  1  0.36107100  0.06346400  0.14077600  1
  O  O24  1  0.86107100  0.93653600  0.35922400  1
  O  O25  1  0.14496800  0.35418500  0.68468600  1
  O  O26  1  0.58747800  0.83673400  0.74082700  1
  O  O27  1  0.51642200  0.16017500  0.52345100  1
  O  O28  1  0.15957000  0.97864200  0.03673500  1
  O  O29  1  0.32839000  0.91943500  0.93398200  1
  O  O30  1  0.18340300  0.54882100  0.14640200  1
  O  O31  1  0.48357800  0.83982500  0.47654900  1
  O  O32  1  0.85503200  0.64581500  0.31531400  1
  O  O33  1  0.17261200  0.75723700  0.85400500  1
  O  O34  1  0.13892900  0.06346400  0.64077600  1
  O  O35  1  0.32738800  0.75723700  0.35400500  1
  O  O36  1  0.07063100  0.70091200  0.62431000  1
  O  O37  1  0.34043000  0.97864200  0.53673500  1
  O  O38  1  0.17161000  0.91943500  0.43398200  1
  O  O39  1  0.07974900  0.17244700  0.27513600  1
  O  O40  1  0.35503200  0.35418500  0.18468600  1
  O  O41  1  0.68340300  0.45117900  0.35359800  1
  O  O42  1  0.24183700  0.68510600  0.01032100  1
  O  O43  1  0.09715300  0.76601400  0.11828300  1
  O  O44  1  0.20750400  0.29586900  0.83229900  1
  O  O45  1  0.40284700  0.76601400  0.61828300  1
  O  O46  1  0.82839000  0.08056500  0.56601800  1
  O  O47  1  0.97462300  0.96648500  0.86455600  1
  O  O48  1  0.53866800  0.43231100  0.56601600  1
  O  O49  1  0.92025100  0.82755300  0.72486400  1
  O  O50  1  0.59715300  0.23398600  0.38171700  1
  O  O51  1  0.56175800  0.65793600  0.28835700  1
  O  O52  1  0.64496800  0.64581500  0.81531400  1
  O  O53  1  0.96133200  0.43231100  0.06601600  1
  O  O54  1  0.65957000  0.02135800  0.46326500  1
  O  O55  1  0.02537700  0.03351500  0.13544400  1
  O  O56  1  0.79474600  0.54524100  0.46785900  1
  O  O57  1  0.08747800  0.16326600  0.75917300  1
  O  O58  1  0.93824200  0.65793600  0.78835700  1
  O  O59  1  0.63892900  0.93653600  0.85922400  1
  O  O60  1  0.70525400  0.54524100  0.96785900  1
  O  O61  1  0.75816300  0.31489400  0.98967900  1
  O  O62  1  0.20525400  0.45475900  0.53214100  1
  O  O63  1  0.52537700  0.96648500  0.36455600  1
  O  O64  1  0.01642200  0.83982500  0.97654900  1
  O  O65  1  0.57974900  0.82755300  0.22486400  1
  O  O66  1  0.24782700  0.65623600  0.75219300  1
  O  O67  1  0.82564400  0.51135400  0.61350900  1
  O  O68  1  0.31659700  0.54882100  0.64640200  1
  O  O69  1  0.90284700  0.23398600  0.88171700  1
  O  O70  1  0.59168200  0.65208900  0.54053100  1
  O  O71  1  0.84043000  0.02135800  0.96326500  1
  O  O72  1  0.03866800  0.56768900  0.93398400  1
  O  O73  1  0.42936900  0.70091200  0.12431000  1
  O  O74  1  0.46133200  0.56768900  0.43398400  1
  O  O75  1  0.29745000  0.16622100  0.00285000  1
  O  O76  1  0.74782700  0.34376400  0.74780700  1
  O  O77  1  0.41252200  0.16326600  0.25917300  1
  O  O78  1  0.90831800  0.65208900  0.04053100  1
  O  O79  1  0.27028900  0.85684500  0.21193700  1
  O  O80  1  0.75217300  0.34376400  0.24780700  1
  O  O81  1  0.17435600  0.48864600  0.38649100  1
  O  O82  1  0.79745000  0.83377900  0.49715000  1
  O  O83  1  0.16834000  0.23344000  0.11153400  1
  O  O84  1  0.20255000  0.16622100  0.50285000  1
  O  O85  1  0.29249600  0.29586900  0.33229900  1
  O  O86  1  0.25816300  0.68510600  0.51032100  1
  O  O87  1  0.64703800  0.90855700  0.59843800  1
  O  O88  1  0.67435600  0.51135400  0.11350900  1
  O  O89  1  0.70750400  0.70413100  0.66770100  1
  O  O90  1  0.09168200  0.34791100  0.95946900  1
  O  O91  1  0.29474600  0.45475900  0.03214100  1
  O  O92  1  0.66834000  0.76656000  0.38846600  1
  O  O93  1  0.72971100  0.14315500  0.78806300  1
  O  O94  1  0.25217300  0.65623600  0.25219300  1
  O  O95  1  0.98357800  0.16017500  0.02345100  1
loop_
_geom_bond_atom_site_label_1
_geom_bond_atom_site_label_2
_geom_bond_distance
_geom_bond_site_symmetry_2
K0 O2 2.728954 1_555
K0 O19 2.734790 1_565
K0 O29 2.936750 1_555
K0 O59 3.075894 1_555
K0 O57 3.109436 1_565
K0 O16 3.132755 1_565
K0 O34 3.151703 1_565
K0 O47 3.306172 1_455
K1 O22 2.699491 1_555
K1 O25 2.810645 1_655
K1 O18 2.838373 1_555
K1 O62 2.993483 1_655
K1 O10 3.088241 1_655
K1 O84 3.301509 1_655
K1 O46 3.336233 1_555
K1 O34 3.390662 1_655
K2 O36 2.752154 1_555
K2 O49 2.774896 1_455
K2 O82 2.903205 1_455
K2 O46 2.949335 1_465
K2 O2 3.002794 1_555
K2 O34 3.008512 1_565
K2 O37 3.035128 1_555
K2 O87 3.092529 1_455
K2 O38 3.309166 1_555
K3 O42 2.699491 1_556
K3 O52 2.810645 1_555
K3 O33 2.838373 1_555
K3 O60 2.993483 1_555
K3 O1 3.088241 1_555
K3 O3 3.301509 1_555
K3 O29 3.336233 1_555
K3 O59 3.390662 1_555
K4 O61 2.699491 1_554
K4 O40 2.810645 1_555
K4 O12 2.838373 1_555
K4 O91 2.993483 1_555
K4 O83 3.088241 1_555
K4 O75 3.301509 1_555
K4 O8 3.336233 1_555
K4 O23 3.390662 1_555
K5 O86 2.699491 1_555
K5 O32 2.810645 1_455
K5 O35 2.838373 1_555
K5 O56 2.993483 1_455
K5 O92 3.088241 1_455
K5 O82 3.301509 1_455
K5 O38 3.336233 1_555
K5 O24 3.390662 1_455
K6 O25 2.749950 1_555
K6 O58 2.830266 1_455
K6 O17 2.837211 1_455
K6 O67 2.896981 1_455
K6 O66 3.049818 1_555
K6 O68 3.057488 1_555
K6 O76 3.117672 1_455
K6 O36 3.164122 1_555
K6 O44 3.409718 1_555
K7 O0 2.752154 1_555
K7 O19 2.774896 1_555
K7 O75 2.903205 1_556
K7 O29 2.949335 1_545
K7 O93 3.002794 1_555
K7 O59 3.008512 1_545
K7 O71 3.035128 1_555
K7 O15 3.092529 1_555
K7 O8 3.309166 1_556
K8 O93 2.728954 1_555
K8 O49 2.734790 1_545
K8 O46 2.936750 1_555
K8 O34 3.075894 1_655
K8 O26 3.109436 1_545
K8 O47 3.132755 1_545
K8 O59 3.151703 1_545
K8 O16 3.306172 1_555
K9 O40 2.749950 1_555
K9 O51 2.830266 1_555
K9 O41 2.837211 1_555
K9 O88 2.896981 1_555
K9 O94 3.049818 1_555
K9 O30 3.057488 1_555
K9 O80 3.117672 1_555
K9 O73 3.164122 1_555
K9 O85 3.409718 1_555
K10 O73 2.752154 1_555
K10 O65 2.774896 1_555
K10 O3 2.903205 1_554
K10 O8 2.949335 1_565
K10 O79 3.002794 1_555
K10 O23 3.008512 1_565
K10 O28 3.035128 1_555
K10 O21 3.092529 1_555
K10 O29 3.309166 1_554
K11 O20 2.752154 1_555
K11 O39 2.774896 1_655
K11 O84 2.903205 1_655
K11 O38 2.949335 1_645
K11 O7 3.002794 1_555
K11 O24 3.008512 1_545
K11 O54 3.035128 1_555
K11 O5 3.092529 1_655
K11 O46 3.309166 1_555
K12 O52 2.749950 1_555
K12 O11 2.830266 1_555
K12 O68 2.837211 1_555
K12 O4 2.896981 1_555
K12 O76 3.049818 1_555
K12 O17 3.057488 1_555
K12 O66 3.117672 1_555
K12 O0 3.164122 1_555
K12 O89 3.409718 1_555
K13 O79 2.728954 1_555
K13 O39 2.734790 1_565
K13 O38 2.936750 1_555
K13 O24 3.075894 1_455
K13 O77 3.109436 1_565
K13 O55 3.132755 1_565
K13 O23 3.151703 1_565
K13 O63 3.306172 1_555
K14 O32 2.749950 1_555
K14 O14 2.830266 1_655
K14 O30 2.837211 1_655
K14 O81 2.896981 1_655
K14 O80 3.049818 1_555
K14 O41 3.057488 1_555
K14 O94 3.117672 1_655
K14 O20 3.164122 1_555
K14 O9 3.409718 1_555
K15 O7 2.728954 1_555
K15 O65 2.734790 1_545
K15 O8 2.936750 1_555
K15 O23 3.075894 1_555
K15 O13 3.109436 1_545
K15 O63 3.132755 1_545
K15 O24 3.151703 1_545
K15 O55 3.306172 1_655
Co0 O42 2.051456 1_556
Co0 O33 2.091345 1_555
Co0 O64 2.104501 1_555
Co0 O72 2.112087 1_555
Co0 O78 2.176390 1_456
Co0 O1 2.178900 1_455
Co1 O6 2.062001 1_555
Co1 O84 2.062360 1_555
Co1 O50 2.080745 1_555
Co1 O85 2.082549 1_555
Co1 O5 2.085998 1_555
Co1 O27 2.192316 1_555
Co2 O61 2.051456 1_554
Co2 O12 2.091345 1_555
Co2 O95 2.104501 1_555
Co2 O53 2.112087 1_555
Co2 O90 2.176390 1_654
Co2 O83 2.178900 1_655
Co3 O22 2.051456 1_555
Co3 O18 2.091345 1_555
Co3 O27 2.104501 1_555
Co3 O48 2.112087 1_555
Co3 O6 2.176390 1_555
Co3 O10 2.178900 1_555
Co4 O58 2.005145 1_555
Co4 O52 2.009419 1_555
Co4 O60 2.060420 1_555
Co4 O72 2.086758 1_655
Co4 O17 2.088096 1_555
Co5 O79 1.994138 1_555
Co5 O43 2.052334 1_555
Co5 O13 2.072948 1_455
Co5 O55 2.093574 1_565
Co5 O21 2.141235 1_455
Co5 O28 2.571434 1_555
Co6 O14 2.005145 1_555
Co6 O40 2.009419 1_555
Co6 O91 2.060420 1_555
Co6 O53 2.086758 1_455
Co6 O30 2.088096 1_555
Co7 O90 2.062001 1_555
Co7 O75 2.062360 1_556
Co7 O69 2.080745 1_455
Co7 O44 2.082549 1_555
Co7 O15 2.085998 1_555
Co7 O95 2.192316 1_456
Co8 O11 2.005145 1_555
Co8 O25 2.009419 1_555
Co8 O62 2.060420 1_555
Co8 O48 2.086758 1_555
Co8 O68 2.088096 1_555
Co9 O7 1.994138 1_555
Co9 O50 2.052334 1_555
Co9 O77 2.072948 1_555
Co9 O63 2.093574 1_545
Co9 O5 2.141235 1_555
Co9 O54 2.571434 1_555
Co10 O86 2.051456 1_555
Co10 O35 2.091345 1_555
Co10 O31 2.104501 1_555
Co10 O74 2.112087 1_555
Co10 O70 2.176390 1_555
Co10 O92 2.178900 1_555
Co11 O78 2.062001 1_555
Co11 O3 2.062360 1_554
Co11 O43 2.080745 1_655
Co11 O9 2.082549 1_555
Co11 O21 2.085998 1_555
Co11 O64 2.192316 1_654
Co12 O51 2.005145 1_555
Co12 O32 2.009419 1_555
Co12 O56 2.060420 1_555
Co12 O74 2.086758 1_555
Co12 O41 2.088096 1_555
Co13 O70 2.062001 1_555
Co13 O82 2.062360 1_555
Co13 O45 2.080745 1_555
Co13 O89 2.082549 1_555
Co13 O87 2.085998 1_555
Co13 O31 2.192316 1_555
Co14 O93 1.994138 1_555
Co14 O69 2.052334 1_555
Co14 O57 2.072948 1_655
Co14 O47 2.093574 1_545
Co14 O15 2.141235 1_655
Co14 O71 2.571434 1_555
Co15 O2 1.994138 1_555
Co15 O45 2.052334 1_555
Co15 O26 2.072948 1_555
Co15 O16 2.093574 1_565
Co15 O87 2.141235 1_555
Co15 O37 2.571434 1_555
Mo0 O38 1.749179 1_555
Mo0 O37 1.836641 1_555
Mo0 O5 1.857059 1_565
Mo0 O31 1.949596 1_555
Mo0 O63 2.191377 1_555
Mo1 O44 1.780636 1_555
Mo1 O57 1.817677 1_555
Mo1 O25 1.859550 1_555
Mo1 O19 1.937746 1_555
Mo1 O11 2.131408 1_555
Mo2 O76 1.760297 1_555
Mo2 O18 1.811062 1_555
Mo2 O93 1.854757 1_555
Mo2 O11 2.012042 1_555
Mo2 O19 2.113688 1_555
Mo3 O8 1.749179 1_555
Mo3 O71 1.836641 1_554
Mo3 O21 1.857059 1_545
Mo3 O95 1.949596 1_555
Mo3 O55 2.191377 1_655
Mo4 O23 1.760482 1_555
Mo4 O83 1.822250 1_555
Mo4 O75 1.835257 1_555
Mo4 O55 2.003487 1_555
Mo4 O95 2.227700 1_455
Mo4 O28 2.522957 1_545
Mo5 O0 1.755368 1_555
Mo5 O17 1.804234 1_555
Mo5 O61 1.816026 1_555
Mo5 O69 1.851348 1_555
Mo6 O29 1.749179 1_555
Mo6 O28 1.836641 1_556
Mo6 O15 1.857059 1_565
Mo6 O64 1.949596 1_555
Mo6 O47 2.191377 1_455
Mo7 O73 1.755368 1_555
Mo7 O30 1.804234 1_555
Mo7 O42 1.816026 1_555
Mo7 O43 1.851348 1_555
Mo8 O66 1.760297 1_555
Mo8 O33 1.811062 1_555
Mo8 O2 1.854757 1_555
Mo8 O58 2.012042 1_455
Mo8 O49 2.113688 1_455
Mo9 O46 1.749179 1_555
Mo9 O54 1.836641 1_555
Mo9 O87 1.857059 1_545
Mo9 O27 1.949596 1_555
Mo9 O16 2.191377 1_555
Mo10 O88 1.731291 1_555
Mo10 O60 1.798457 1_554
Mo10 O78 1.833003 1_555
Mo10 O53 1.873466 1_555
Mo11 O9 1.780636 1_555
Mo11 O13 1.817677 1_555
Mo11 O32 1.859550 1_555
Mo11 O65 1.937746 1_555
Mo11 O51 2.131408 1_555
Mo12 O24 1.760482 1_555
Mo12 O92 1.822250 1_555
Mo12 O82 1.835257 1_555
Mo12 O63 2.003487 1_555
Mo12 O31 2.227700 1_555
Mo12 O54 2.522957 1_565
Mo13 O80 1.760297 1_555
Mo13 O12 1.811062 1_555
Mo13 O7 1.854757 1_555
Mo13 O14 2.012042 1_655
Mo13 O39 2.113688 1_655
Mo14 O34 1.760482 1_555
Mo14 O10 1.822250 1_555
Mo14 O84 1.835257 1_555
Mo14 O16 2.003487 1_555
Mo14 O27 2.227700 1_555
Mo14 O37 2.522957 1_545
Mo15 O36 1.755368 1_555
Mo15 O68 1.804234 1_555
Mo15 O86 1.816026 1_555
Mo15 O45 1.851348 1_555
Mo16 O85 1.780636 1_555
Mo16 O77 1.817677 1_555
Mo16 O40 1.859550 1_555
Mo16 O39 1.937746 1_555
Mo16 O14 2.131408 1_555
Mo17 O94 1.760297 1_555
Mo17 O35 1.811062 1_555
Mo17 O79 1.854757 1_555
Mo17 O51 2.012042 1_555
Mo17 O65 2.113688 1_555
Mo18 O4 1.731291 1_555
Mo18 O91 1.798457 1_556
Mo18 O90 1.833003 1_555
Mo18 O72 1.873466 1_555
Mo19 O81 1.731291 1_555
Mo19 O62 1.798457 1_555
Mo19 O6 1.833003 1_555
Mo19 O74 1.873466 1_555
Mo20 O20 1.755368 1_555
Mo20 O41 1.804234 1_555
Mo20 O22 1.816026 1_555
Mo20 O50 1.851348 1_555
Mo21 O67 1.731291 1_555
Mo21 O56 1.798457 1_555
Mo21 O70 1.833003 1_555
Mo21 O48 1.873466 1_555
Mo22 O89 1.780636 1_555
Mo22 O26 1.817677 1_555
Mo22 O52 1.859550 1_555
Mo22 O49 1.937746 1_555
Mo22 O58 2.131408 1_555
Mo23 O59 1.760482 1_555
Mo23 O1 1.822250 1_555
Mo23 O3 1.835257 1_555
Mo23 O47 2.003487 1_555
Mo23 O64 2.227700 1_655
Mo23 O71 2.522957 1_565
