# generated using pymatgen
data_Fe5O7F3
_symmetry_space_group_name_H-M   'P 1'
_cell_length_a   4.65534900
_cell_length_b   4.65852343
_cell_length_c   15.20782137
_cell_angle_alpha   90.02424146
_cell_angle_beta   90.00220777
_cell_angle_gamma   90.16115570
_symmetry_Int_Tables_number   1
_chemical_formula_structural   Fe5O7F3
_chemical_formula_sum   'Fe10 O14 F6'
_cell_volume   329.81148430
_cell_formula_units_Z   2
loop_
 _symmetry_equiv_pos_site_id
 _symmetry_equiv_pos_as_xyz
  1  'x, y, z'
loop_
 _atom_site_type_symbol
 _atom_site_label
 _atom_site_symmetry_multiplicity
 _atom_site_fract_x
 _atom_site_fract_y
 _atom_site_fract_z
 _atom_site_occupancy
  Fe  Fe0  1  0.00647000  0.99788600  0.00146800  1
  Fe  Fe1  1  0.96618600  0.01845700  0.20637900  1
  Fe  Fe2  1  0.02772700  0.97310500  0.40005000  1
  Fe  Fe3  1  0.98297600  0.03577400  0.59324500  1
  Fe  Fe4  1  0.01893300  0.00950500  0.79886100  1
  Fe  Fe5  1  0.53481400  0.51901800  0.09384900  1
  Fe  Fe6  1  0.50503600  0.50384300  0.50152700  1
  Fe  Fe7  1  0.49741900  0.49562600  0.29835000  1
  Fe  Fe8  1  0.48675400  0.47210500  0.70553600  1
  Fe  Fe9  1  0.48310200  0.47787600  0.89990400  1
  O  O0  1  0.19977900  0.19246600  0.29984300  1
  O  O1  1  0.20661900  0.19698900  0.49725000  1
  O  O2  1  0.17610700  0.19194500  0.69653300  1
  O  O3  1  0.18949300  0.17787900  0.90362000  1
  O  O4  1  0.70141300  0.30200200  0.99707200  1
  O  O5  1  0.68580900  0.32646000  0.19910200  1
  O  O6  1  0.67866200  0.31864300  0.60000100  1
  O  O7  1  0.69024500  0.29158000  0.80420200  1
  O  O8  1  0.31011900  0.69378700  0.99834500  1
  O  O9  1  0.32431200  0.67616500  0.39976400  1
  O  O10  1  0.29921500  0.68430400  0.80295300  1
  O  O11  1  0.81820700  0.82884400  0.10008100  1
  O  O12  1  0.80884100  0.80258400  0.50009400  1
  O  O13  1  0.80398500  0.79505100  0.30221100  1
  F  F0  1  0.20134500  0.21339100  0.10360800  1
  F  F1  1  0.70871200  0.29249600  0.39975300  1
  F  F2  1  0.30181000  0.71170800  0.19610400  1
  F  F3  1  0.29228700  0.70419300  0.60318600  1
  F  F4  1  0.80250100  0.79380600  0.89862200  1
  F  F5  1  0.79112100  0.80251600  0.69848600  1
loop_
_geom_bond_atom_site_label_1
_geom_bond_atom_site_label_2
_geom_bond_distance
_geom_bond_site_symmetry_2
Fe0 O11 1.906449 1_455
Fe0 O3 1.908007 1_564
Fe0 O8 2.004648 1_554
Fe0 O4 2.009927 1_464
Fe1 O13 1.942749 1_545
Fe1 O5 1.945599 1_555
Fe1 O0 1.963149 1_655
Fe1 O11 1.965547 1_545
Fe2 O9 1.957200 1_555
Fe2 O1 1.990010 1_565
Fe2 O12 1.995189 1_455
Fe2 O13 1.995199 1_455
Fe2 O0 2.001246 1_565
Fe3 O6 1.940214 1_555
Fe3 O1 1.943163 1_655
Fe3 O2 1.949429 1_655
Fe3 O12 1.959015 1_545
Fe4 O2 1.917587 1_555
Fe4 O3 1.944015 1_555
Fe4 O10 2.003170 1_545
Fe4 O7 2.021372 1_455
Fe5 O4 1.947544 1_554
Fe5 O11 1.954965 1_555
Fe5 O5 1.966115 1_555
Fe5 O8 1.967794 1_554
Fe6 O6 1.909277 1_555
Fe6 O9 1.937026 1_555
Fe6 O12 1.981548 1_555
Fe6 O1 1.991577 1_555
Fe7 O5 1.916069 1_555
Fe7 O9 1.933454 1_555
Fe7 O0 1.975855 1_555
Fe7 O13 1.993659 1_555
Fe8 O2 1.950061 1_555
Fe8 O7 1.965093 1_555
Fe8 O6 1.971769 1_555
Fe8 O10 1.984437 1_555
Fe9 O7 1.950666 1_555
Fe9 O3 1.952929 1_555
Fe9 O10 1.958886 1_555
Fe9 O4 1.973170 1_555
Fe9 O8 1.976055 1_555
F0 Fe0 2.058444 1_545
F0 Fe5 2.108768 1_555
F0 Fe1 2.112249 1_455
F1 Fe7 2.060945 1_555
F1 Fe6 2.065928 1_555
F1 Fe2 2.105202 1_645
F2 Fe7 2.065609 1_555
F2 Fe5 2.098826 1_555
F2 Fe1 2.126048 1_465
F3 Fe6 2.060655 1_555
F3 Fe8 2.101936 1_555
F3 Fe3 2.120150 1_465
F4 Fe0 2.060421 1_656
F4 Fe4 2.079024 1_665
F4 Fe9 2.089284 1_555
F5 Fe8 2.091961 1_555
F5 Fe4 2.092269 1_665
F5 Fe3 2.129831 1_565
