# generated using pymatgen
data_Li2Fe2P4H3O16
_symmetry_space_group_name_H-M   'P 1'
_cell_length_a   4.94432600
_cell_length_b   7.56725928
_cell_length_c   8.15759087
_cell_angle_alpha   90.44871715
_cell_angle_beta   91.14049270
_cell_angle_gamma   103.68890532
_symmetry_Int_Tables_number   1
_chemical_formula_structural   Li2Fe2P4H3O16
_chemical_formula_sum   'Li2 Fe2 P4 H3 O16'
_cell_volume   296.46309788
_cell_formula_units_Z   1
loop_
 _symmetry_equiv_pos_site_id
 _symmetry_equiv_pos_as_xyz
  1  'x, y, z'
loop_
 _atom_site_type_symbol
 _atom_site_label
 _atom_site_symmetry_multiplicity
 _atom_site_fract_x
 _atom_site_fract_y
 _atom_site_fract_z
 _atom_site_occupancy
  Li  Li0  1  0.38870000  0.84680200  0.12881000  1
  Li  Li1  1  0.59873200  0.15323800  0.87381300  1
  Fe  Fe0  1  0.49800600  0.99895200  0.50174800  1
  Fe  Fe1  1  0.00227000  0.50036500  0.00007100  1
  P  P0  1  0.11052400  0.25165600  0.66382900  1
  P  P1  1  0.37274100  0.23615000  0.15585000  1
  P  P2  1  0.62488700  0.75723300  0.84140800  1
  P  P3  1  0.88479000  0.75051700  0.33656300  1
  H  H0  1  0.45251800  0.47966700  0.60487300  1
  H  H1  1  0.54998500  0.51474000  0.38128200  1
  H  H2  1  0.95669500  0.97879800  0.98576900  1
  O  O0  1  0.98898000  0.70043400  0.16851600  1
  O  O1  1  0.12989800  0.84330000  0.44520700  1
  O  O2  1  0.17912100  0.36806800  0.16738900  1
  O  O3  1  0.25330200  0.43726800  0.57768600  1
  O  O4  1  0.36885300  0.66894000  0.94364900  1
  O  O5  1  0.54687300  0.81578800  0.67221400  1
  O  O6  1  0.25204900  0.05892900  0.05618300  1
  O  O7  1  0.33236200  0.13892400  0.68388600  1
  O  O8  1  0.66319400  0.86321100  0.31613900  1
  O  O9  1  0.75317400  0.94098200  0.94347900  1
  O  O10  1  0.44955500  0.18691400  0.33088900  1
  O  O11  1  0.63403200  0.33533100  0.06014100  1
  O  O12  1  0.74024900  0.56496500  0.42349900  1
  O  O13  1  0.82537200  0.63219900  0.83175500  1
  O  O14  1  0.86485600  0.15836900  0.55551800  1
  O  O15  1  0.00444400  0.30024700  0.83180700  1
loop_
_geom_bond_atom_site_label_1
_geom_bond_atom_site_label_2
_geom_bond_distance
_geom_bond_site_symmetry_2
Li0 O6 1.973962 1_565
Li0 O4 2.000602 1_554
Li0 O8 2.006822 1_555
Li0 O0 2.057350 1_455
Li0 O9 2.357663 1_554
Li1 O7 1.998843 1_555
Li1 O9 2.015805 1_545
Li1 O11 2.020486 1_556
Li1 O15 2.087113 1_655
Li1 O6 2.280330 1_556
Fe0 O1 1.963694 1_555
Fe0 O14 1.965211 1_565
Fe0 O5 2.022022 1_555
Fe0 O10 2.049925 1_565
Fe0 O7 2.105865 1_565
Fe0 O8 2.106346 1_555
Fe1 O2 2.004506 1_555
Fe1 O13 2.008022 1_454
Fe1 O4 2.018015 1_554
Fe1 O11 2.020791 1_455
Fe1 O15 2.037940 1_554
Fe1 O0 2.050048 1_455
H0 O3 0.981297 1_555
H1 O12 0.981759 1_555
H2 O9 1.030454 1_555
H2 O6 1.540205 1_666
O0 P3 1.549402 1_555
O1 P3 1.513903 1_455
O2 P1 1.541515 1_555
O3 P0 1.590882 1_555
O4 P2 1.547582 1_555
O5 P2 1.522957 1_555
O6 P1 1.549343 1_555
O7 P0 1.547728 1_555
O8 P3 1.546809 1_555
O9 P2 1.603892 1_555
O10 P1 1.541320 1_555
O11 P1 1.559586 1_555
O12 P3 1.595641 1_555
O13 P2 1.526394 1_555
O14 P0 1.515283 1_655
O15 P0 1.549195 1_555
