# generated using pymatgen
data_K3VO5
_symmetry_space_group_name_H-M   'P 1'
_cell_length_a   10.38718800
_cell_length_b   10.49027093
_cell_length_c   12.30511514
_cell_angle_alpha   90.00623111
_cell_angle_beta   90.00596932
_cell_angle_gamma   90.03475345
_symmetry_Int_Tables_number   1
_chemical_formula_structural   K3VO5
_chemical_formula_sum   'K24 V8 O40'
_cell_volume   1340.81942705
_cell_formula_units_Z   8
loop_
 _symmetry_equiv_pos_site_id
 _symmetry_equiv_pos_as_xyz
  1  'x, y, z'
loop_
 _atom_site_type_symbol
 _atom_site_label
 _atom_site_symmetry_multiplicity
 _atom_site_fract_x
 _atom_site_fract_y
 _atom_site_fract_z
 _atom_site_occupancy
  K  K0  1  0.76569000  0.28691900  0.62197300  1
  K  K1  1  0.26480100  0.21354700  0.37816700  1
  K  K2  1  0.23519900  0.78626800  0.87789600  1
  K  K3  1  0.73399700  0.71328400  0.12243000  1
  K  K4  1  0.23471500  0.71349900  0.37736200  1
  K  K5  1  0.73463100  0.78646200  0.62213100  1
  K  K6  1  0.76522200  0.21339200  0.12181400  1
  K  K7  1  0.26483800  0.28664600  0.87766300  1
  K  K8  1  0.12632300  0.39769400  0.59650500  1
  K  K9  1  0.62633500  0.10256100  0.40335600  1
  K  K10  1  0.87371600  0.89750900  0.90306800  1
  K  K11  1  0.37397900  0.60227100  0.09650300  1
  K  K12  1  0.87374400  0.60246300  0.40323600  1
  K  K13  1  0.37388200  0.89780700  0.59667300  1
  K  K14  1  0.12617900  0.10226100  0.09642500  1
  K  K15  1  0.62659200  0.39761200  0.90334200  1
  K  K16  1  0.45609200  0.54744900  0.65289100  1
  K  K17  1  0.95597600  0.95307400  0.34698000  1
  K  K18  1  0.54384500  0.04669800  0.84737700  1
  K  K19  1  0.04389100  0.45274000  0.15241600  1
  K  K20  1  0.54393600  0.45327900  0.34766400  1
  K  K21  1  0.04382700  0.04724600  0.65273300  1
  K  K22  1  0.45605600  0.95250000  0.15321800  1
  K  K23  1  0.95607400  0.54671300  0.84717100  1
  V  V0  1  0.44143000  0.21886800  0.63209600  1
  V  V1  1  0.94147900  0.28164000  0.36769400  1
  V  V2  1  0.55873800  0.71838700  0.86804500  1
  V  V3  1  0.05858500  0.78121100  0.13156400  1
  V  V4  1  0.55884100  0.78137300  0.36884600  1
  V  V5  1  0.05853400  0.71855300  0.63202500  1
  V  V6  1  0.44156800  0.28141200  0.13221700  1
  V  V7  1  0.94105900  0.21852500  0.86802100  1
  O  O0  1  0.45857800  0.32531800  0.52667600  1
  O  O1  1  0.95867400  0.17541100  0.47335400  1
  O  O2  1  0.54166000  0.82436100  0.97393200  1
  O  O3  1  0.04149200  0.67492600  0.02610900  1
  O  O4  1  0.54163400  0.67554000  0.47438500  1
  O  O5  1  0.04130700  0.82492600  0.52643800  1
  O  O6  1  0.45880300  0.17482700  0.02694800  1
  O  O7  1  0.95823200  0.32465900  0.97362700  1
  O  O8  1  0.47367000  0.29392100  0.75382100  1
  O  O9  1  0.97360300  0.20615400  0.24616100  1
  O  O10  1  0.52641300  0.79405300  0.74666600  1
  O  O11  1  0.02619900  0.70588500  0.25324500  1
  O  O12  1  0.52629700  0.70575700  0.24718900  1
  O  O13  1  0.02651900  0.79382400  0.75365800  1
  O  O14  1  0.47343700  0.20637000  0.25407000  1
  O  O15  1  0.97358200  0.29397100  0.74643700  1
  O  O16  1  0.27933000  0.15982500  0.62570800  1
  O  O17  1  0.77967100  0.34094200  0.37396100  1
  O  O18  1  0.72062800  0.65921300  0.87395800  1
  O  O19  1  0.22076200  0.84011600  0.12546900  1
  O  O20  1  0.72088700  0.84052900  0.37465200  1
  O  O21  1  0.22046300  0.65951500  0.62579600  1
  O  O22  1  0.27972900  0.34068400  0.12572700  1
  O  O23  1  0.77901200  0.15943100  0.87411900  1
  O  O24  1  0.55041100  0.09377600  0.61519100  1
  O  O25  1  0.05081300  0.40664600  0.38449800  1
  O  O26  1  0.44953100  0.59330100  0.88476500  1
  O  O27  1  0.94964800  0.90631800  0.11482000  1
  O  O28  1  0.44983000  0.90653900  0.38532800  1
  O  O29  1  0.94939800  0.59337400  0.61528900  1
  O  O30  1  0.55086600  0.40652400  0.11547900  1
  O  O31  1  0.05014900  0.09358400  0.88482900  1
  O  O32  1  0.72479300  0.54133700  0.71880200  1
  O  O33  1  0.22381300  0.95842200  0.28004000  1
  O  O34  1  0.27586300  0.04157700  0.78022500  1
  O  O35  1  0.77502900  0.45859400  0.21870400  1
  O  O36  1  0.27545400  0.45857200  0.28075000  1
  O  O37  1  0.77557000  0.04175200  0.71926000  1
  O  O38  1  0.72399900  0.95828400  0.21972700  1
  O  O39  1  0.22447600  0.54137900  0.78068400  1
loop_
_geom_bond_atom_site_label_1
_geom_bond_atom_site_label_2
_geom_bond_distance
_geom_bond_site_symmetry_2
K0 O15 2.648256 1_555
K0 O37 2.838858 1_555
K0 O32 2.953642 1_555
K0 O1 2.955357 1_555
K0 O24 3.017764 1_555
K0 O17 3.107444 1_555
K1 O14 2.652329 1_555
K1 O36 2.838378 1_555
K1 O0 2.959983 1_555
K1 O33 2.966443 1_545
K1 O25 3.009216 1_555
K1 O16 3.101450 1_555
K2 O13 2.653569 1_555
K2 O39 2.835804 1_555
K2 O3 2.955878 1_556
K2 O34 2.965699 1_565
K2 O26 3.011104 1_555
K2 O19 3.101941 1_556
K3 O12 2.649143 1_555
K3 O38 2.837142 1_555
K3 O2 2.947986 1_554
K3 O35 2.953876 1_555
K3 O27 3.020186 1_555
K3 O18 3.112655 1_554
K4 O11 2.651249 1_555
K4 O33 2.837131 1_555
K4 O36 2.957158 1_555
K4 O5 2.961491 1_555
K4 O28 3.016214 1_555
K4 O21 3.112602 1_555
K5 O10 2.652022 1_555
K5 O32 2.835151 1_555
K5 O4 2.945160 1_555
K5 O37 2.962958 1_565
K5 O29 3.015292 1_555
K5 O20 3.100975 1_555
K6 O9 2.651706 1_555
K6 O35 2.836759 1_555
K6 O7 2.950447 1_554
K6 O38 2.965834 1_545
K6 O30 3.012275 1_555
K6 O23 3.103313 1_554
K7 O8 2.652152 1_555
K7 O34 2.838946 1_555
K7 O39 2.956776 1_555
K7 O6 2.968535 1_556
K7 O31 3.012818 1_555
K7 O22 3.108404 1_556
K8 O15 2.665292 1_455
K8 O25 2.725693 1_555
K8 O29 2.765692 1_455
K8 O39 2.905961 1_555
K8 O21 2.937042 1_555
K8 O16 2.981024 1_555
K8 O1 3.280239 1_455
K9 O14 2.661697 1_555
K9 O24 2.724973 1_555
K9 O28 2.763013 1_545
K9 O38 2.902946 1_545
K9 O20 2.940799 1_545
K9 O17 2.986053 1_555
K9 O0 3.286999 1_555
K10 O13 2.661694 1_655
K10 O27 2.723852 1_556
K10 O31 2.763208 1_665
K10 O37 2.906320 1_565
K10 O23 2.940660 1_565
K10 O18 2.983406 1_555
K10 O3 3.284288 1_656
K11 O12 2.667713 1_555
K11 O26 2.722794 1_554
K11 O30 2.766155 1_555
K11 O36 2.908468 1_555
K11 O22 2.935125 1_555
K11 O19 2.981603 1_555
K11 O2 3.276086 1_554
K12 O11 2.662741 1_655
K12 O29 2.726716 1_555
K12 O25 2.767706 1_655
K12 O35 2.912398 1_555
K12 O17 2.933845 1_555
K12 O20 2.981016 1_555
K12 O5 3.281397 1_655
K13 O10 2.665204 1_555
K13 O28 2.719259 1_555
K13 O24 2.763255 1_565
K13 O34 2.900731 1_565
K13 O16 2.941153 1_565
K13 O21 2.985327 1_555
K13 O4 3.277468 1_555
K14 O9 2.663954 1_455
K14 O31 2.722265 1_554
K14 O27 2.763010 1_445
K14 O33 2.900400 1_545
K14 O19 2.942567 1_545
K14 O22 2.987363 1_555
K14 O7 3.282474 1_454
K15 O8 2.662385 1_555
K15 O30 2.727993 1_556
K15 O26 2.766495 1_555
K15 O32 2.910240 1_555
K15 O18 2.934765 1_555
K15 O23 2.980523 1_555
K15 O6 3.287742 1_556
K16 O4 2.723864 1_555
K16 O21 2.736234 1_555
K16 O0 2.800348 1_555
K16 O39 2.874982 1_555
K16 O26 2.894261 1_555
K16 O32 2.907164 1_555
K16 O10 2.924758 1_555
K16 O8 2.941157 1_555
K17 O20 2.733044 1_555
K17 O5 2.733283 1_655
K17 O1 2.803222 1_565
K17 O38 2.874095 1_555
K17 O27 2.899235 1_555
K17 O33 2.902045 1_655
K17 O11 2.930582 1_655
K17 O9 2.936177 1_565
K18 O23 2.733124 1_555
K18 O6 2.733248 1_556
K18 O2 2.804697 1_545
K18 O37 2.877927 1_555
K18 O24 2.900299 1_555
K18 O34 2.904018 1_555
K18 O8 2.930069 1_555
K18 O10 2.931105 1_545
K19 O7 2.726632 1_454
K19 O22 2.737558 1_555
K19 O3 2.801726 1_555
K19 O36 2.877833 1_555
K19 O25 2.897386 1_555
K19 O35 2.910166 1_455
K19 O9 2.924642 1_455
K19 O11 2.936845 1_555
K20 O0 2.727595 1_555
K20 O17 2.737265 1_555
K20 O4 2.804921 1_555
K20 O35 2.878169 1_555
K20 O30 2.899713 1_555
K20 O36 2.908267 1_555
K20 O14 2.927172 1_555
K20 O12 2.928871 1_555
K21 O1 2.731986 1_455
K21 O16 2.736060 1_555
K21 O5 2.802518 1_545
K21 O34 2.876310 1_555
K21 O31 2.897719 1_555
K21 O37 2.904820 1_455
K21 O15 2.926182 1_455
K21 O13 2.939770 1_545
K22 O2 2.732362 1_554
K22 O19 2.734242 1_555
K22 O6 2.802714 1_565
K22 O33 2.873950 1_555
K22 O28 2.897323 1_555
K22 O38 2.901522 1_555
K22 O12 2.927797 1_555
K22 O14 2.943427 1_565
K23 O3 2.727979 1_656
K23 O18 2.736068 1_555
K23 O7 2.801569 1_555
K23 O32 2.875527 1_555
K23 O29 2.895899 1_555
K23 O39 2.906156 1_655
K23 O13 2.928796 1_655
K23 O15 2.932408 1_555
O0 V0 1.720926 1_555
O1 V1 1.721814 1_555
O2 V2 1.721915 1_555
O3 V3 1.719858 1_555
O4 V4 1.717903 1_555
O5 V5 1.722149 1_555
O6 V6 1.720497 1_555
O7 V7 1.720320 1_555
O8 V0 1.724782 1_555
O9 V1 1.724824 1_555
O10 V2 1.724545 1_555
O11 V3 1.726125 1_555
O12 V4 1.727373 1_555
O13 V5 1.724638 1_555
O14 V6 1.725687 1_555
O15 V7 1.725945 1_555
O16 V0 1.795428 1_555
O17 V1 1.794181 1_555
O18 V2 1.794323 1_555
O19 V3 1.795547 1_555
O20 V4 1.795013 1_555
O21 V5 1.794380 1_555
O22 V6 1.794484 1_555
O23 V7 1.794964 1_555
O24 V0 1.745995 1_555
O25 V1 1.746489 1_455
O26 V2 1.746202 1_555
O27 V3 1.745588 1_655
O28 V4 1.746169 1_555
O29 V5 1.746418 1_655
O30 V6 1.747047 1_555
O31 V7 1.745403 1_455
