# generated using pymatgen
data_Li9V6(P8O29)2
_symmetry_space_group_name_H-M   'P 1'
_cell_length_a   9.77950400
_cell_length_b   9.78634117
_cell_length_c   14.03718462
_cell_angle_alpha   90.08845505
_cell_angle_beta   90.00171432
_cell_angle_gamma   119.72689957
_symmetry_Int_Tables_number   1
_chemical_formula_structural   Li9V6(P8O29)2
_chemical_formula_sum   'Li9 V6 P16 O58'
_cell_volume   1166.63690601
_cell_formula_units_Z   1
loop_
 _symmetry_equiv_pos_site_id
 _symmetry_equiv_pos_as_xyz
  1  'x, y, z'
loop_
 _atom_site_type_symbol
 _atom_site_label
 _atom_site_symmetry_multiplicity
 _atom_site_fract_x
 _atom_site_fract_y
 _atom_site_fract_z
 _atom_site_occupancy
  Li  Li0  1  0.90817800  0.67330000  0.06020300  1
  Li  Li1  1  0.91219400  0.22836300  0.55982000  1
  Li  Li2  1  0.66155700  0.33056600  0.88558500  1
  Li  Li3  1  0.77036700  0.09194400  0.06133100  1
  Li  Li4  1  0.32571000  0.23381400  0.06238500  1
  Li  Li5  1  0.68164700  0.90890100  0.44138600  1
  Li  Li6  1  0.32097100  0.09387100  0.55842100  1
  Li  Li7  1  0.08480400  0.77650000  0.43972400  1
  Li  Li8  1  0.00263400  0.00604200  0.99389400  1
  V  V0  1  0.56736400  0.00091200  0.24606400  1
  V  V1  1  0.42745300  0.99800000  0.75200700  1
  V  V2  1  0.56948400  0.57233100  0.74642800  1
  V  V3  1  0.43279100  0.43596700  0.25275900  1
  V  V4  1  0.99875700  0.56534400  0.24952800  1
  V  V5  1  0.00818700  0.43527600  0.75156800  1
  P  P0  1  0.90925100  0.68464300  0.84101300  1
  P  P1  1  0.76857900  0.68470100  0.34369400  1
  P  P2  1  0.91166800  0.23155500  0.34324600  1
  P  P3  1  0.66536700  0.33444300  0.12580200  1
  P  P4  1  0.66682400  0.33212300  0.62873700  1
  P  P5  1  0.77685900  0.09306500  0.84339700  1
  P  P6  1  0.68230100  0.91499100  0.66074300  1
  P  P7  1  0.31622000  0.22932700  0.84549300  1
  P  P8  1  0.68964100  0.77060700  0.15677000  1
  P  P9  1  0.32052200  0.08888500  0.34102400  1
  P  P10  1  0.22438100  0.91436700  0.15840800  1
  P  P11  1  0.33582000  0.67149800  0.37063900  1
  P  P12  1  0.33504200  0.66629500  0.87150600  1
  P  P13  1  0.08532700  0.76912200  0.65744000  1
  P  P14  1  0.23024300  0.31300000  0.65995800  1
  P  P15  1  0.08558300  0.30873400  0.16025700  1
  O  O0  1  0.00266400  0.75370400  0.56625500  1
  O  O1  1  0.91397500  0.66212800  0.34164100  1
  O  O2  1  0.78593000  0.77803300  0.07249400  1
  O  O3  1  0.73819400  0.65543000  0.83253000  1
  O  O4  1  0.89850300  0.52057600  0.82923700  1
  O  O5  1  0.81036200  0.48914800  0.16263000  1
  O  O6  1  0.90102500  0.38204000  0.31916200  1
  O  O7  1  0.99738800  0.20312100  0.07857700  1
  O  O8  1  0.92121600  0.26184600  0.83196600  1
  O  O9  1  0.66110000  0.47686500  0.67706300  1
  O  O10  1  0.61704600  0.52285700  0.32243300  1
  O  O11  1  0.81791500  0.33436100  0.67244200  1
  O  O12  1  0.65857300  0.33246300  0.01818200  1
  O  O13  1  0.67208100  0.33779100  0.52315100  1
  O  O14  1  0.67656400  0.18887000  0.16218200  1
  O  O15  1  0.47943300  0.37822500  0.83158300  1
  O  O16  1  0.51063400  0.32536600  0.16693600  1
  O  O17  1  0.74562100  0.08395000  0.33540300  1
  O  O18  1  0.79260200  0.00145900  0.75162700  1
  O  O19  1  0.75868300  0.00136600  0.57102300  1
  O  O20  1  0.79107900  0.01912100  0.93268100  1
  O  O21  1  0.62741000  0.10757900  0.83234200  1
  O  O22  1  0.51547200  0.18365000  0.66716400  1
  O  O23  1  0.65869800  0.91252900  0.15813800  1
  O  O24  1  0.48064200  0.09763500  0.32089700  1
  O  O25  1  0.34363000  0.25648800  0.33286700  1
  O  O26  1  0.79126700  0.79282900  0.25161200  1
  O  O27  1  0.75368700  0.76321100  0.43035400  1
  O  O28  1  0.23485700  0.22579800  0.57480800  1
  O  O29  1  0.65878000  0.74623700  0.66404100  1
  O  O30  1  0.52424800  0.90816100  0.67990400  1
  O  O31  1  0.34374200  0.08610000  0.83387700  1
  O  O32  1  0.48745500  0.81776400  0.32996400  1
  O  O33  1  0.37924200  0.91263400  0.16895900  1
  O  O34  1  0.21093300  0.00451700  0.07691100  1
  O  O35  1  0.24786500  0.00651100  0.43283300  1
  O  O36  1  0.20249200  0.99000600  0.25694400  1
  O  O37  1  0.25186300  0.91655500  0.66077000  1
  O  O38  1  0.47804600  0.65917300  0.82312600  1
  O  O39  1  0.53235700  0.61494200  0.17114200  1
  O  O40  1  0.33278200  0.81037800  0.82922100  1
  O  O41  1  0.33137800  0.65194600  0.97590300  1
  O  O42  1  0.33925600  0.66499500  0.47625100  1
  O  O43  1  0.18582700  0.67241100  0.33166700  1
  O  O44  1  0.38215900  0.47198900  0.67723200  1
  O  O45  1  0.33707500  0.52314900  0.32116400  1
  O  O46  1  0.08297100  0.74257600  0.16136500  1
  O  O47  1  0.99704900  0.79044600  0.74924900  1
  O  O48  1  0.98484700  0.76831400  0.93130300  1
  O  O49  1  0.09507200  0.61925100  0.68211800  1
  O  O50  1  0.18348900  0.51681500  0.82449000  1
  O  O51  1  0.08593600  0.46479000  0.16917300  1
  O  O52  1  0.25867300  0.33959300  0.16257100  1
  O  O53  1  0.23235400  0.21837800  0.93599400  1
  O  O54  1  0.20528000  0.21376100  0.75667300  1
  O  O55  1  0.08499900  0.33934300  0.65994900  1
  O  O56  1  0.98810600  0.24320400  0.43611400  1
  O  O57  1  0.01013300  0.21223100  0.25801200  1
loop_
_geom_bond_atom_site_label_1
_geom_bond_atom_site_label_2
_geom_bond_distance
_geom_bond_site_symmetry_2
Li0 O2 1.929836 1_555
Li0 O48 2.003632 1_554
Li0 O46 2.060507 1_655
Li0 O5 2.128032 1_555
Li1 O56 1.865885 1_555
Li1 O19 1.976639 1_555
Li1 O55 2.045949 1_655
Li1 O11 2.317092 1_555
Li2 O12 1.861726 1_556
Li2 O21 2.168974 1_555
Li2 O15 2.188438 1_555
Li2 O4 2.276899 1_555
Li3 O7 1.942942 1_555
Li3 O20 1.987298 1_554
Li3 O23 2.056196 1_545
Li3 O14 2.145756 1_555
Li4 O34 1.959696 1_555
Li4 O53 1.966300 1_554
Li4 O52 2.036611 1_555
Li4 O16 2.148490 1_555
Li5 O27 1.883786 1_555
Li5 O19 2.004146 1_565
Li5 O17 2.117633 1_565
Li5 O32 2.272452 1_555
Li6 O28 1.872544 1_555
Li6 O35 1.933642 1_555
Li6 O37 2.092057 1_545
Li6 O22 2.249076 1_555
Li7 O0 1.916585 1_555
Li7 O35 2.014937 1_565
Li7 O1 2.019911 1_455
Li7 O43 2.303869 1_555
Li8 O7 2.286162 1_456
Li8 O20 2.301721 1_455
Li8 O53 2.324049 1_555
Li8 O34 2.353271 1_556
Li8 O48 2.409788 1_445
Li8 O2 2.450629 1_446
O0 P13 1.480880 1_555
O1 P1 1.543673 1_555
O1 V4 2.007869 1_555
O2 P8 1.491292 1_555
O3 P0 1.555614 1_555
O3 V2 1.873630 1_555
O4 P0 1.564667 1_555
O4 V5 1.980246 1_655
O5 P3 1.561592 1_555
O5 V4 2.018167 1_555
O6 P2 1.564454 1_555
O6 V4 1.841748 1_555
O7 P15 1.496316 1_655
O8 P5 1.560545 1_555
O8 V5 1.857967 1_655
O9 P4 1.595442 1_555
O9 V2 1.857699 1_555
O10 P1 1.569882 1_555
O10 V3 1.845071 1_555
O11 P4 1.589954 1_555
O11 V5 1.960984 1_655
O12 P3 1.511812 1_555
O13 P4 1.483193 1_555
O14 P3 1.568213 1_555
O14 V0 1.992235 1_555
O15 P7 1.550294 1_555
O15 V2 2.039813 1_555
O16 P3 1.580507 1_555
O16 V3 2.003896 1_555
O17 P2 1.552050 1_555
O17 V0 1.965663 1_555
O18 P6 1.611994 1_545
O18 P5 1.618691 1_555
O19 P6 1.495251 1_545
O20 P5 1.488737 1_555
O21 P5 1.544759 1_555
O21 V1 2.040100 1_545
O22 P4 1.569270 1_555
O22 V1 1.978884 1_545
O23 P8 1.561316 1_555
O23 V0 1.957607 1_565
O24 P9 1.551225 1_555
O24 V0 1.873984 1_555
O25 P9 1.545148 1_555
O25 V3 1.896617 1_555
O26 P8 1.610004 1_555
O26 P1 1.615892 1_555
O27 P1 1.483041 1_555
O28 P14 1.481220 1_555
O29 P6 1.551113 1_555
O29 V2 1.878491 1_555
O30 P6 1.537387 1_555
O30 V1 1.875133 1_555
O31 P7 1.561135 1_555
O31 V1 1.852361 1_545
O32 P11 1.572079 1_555
O32 V0 1.956456 1_565
O33 P10 1.530128 1_555
O33 V0 1.929559 1_565
O34 P10 1.490814 1_545
O35 P9 1.500263 1_555
O36 P9 1.596991 1_565
O36 P10 1.631232 1_555
O37 P13 1.551056 1_555
O37 V1 1.965598 1_555
O38 P12 1.586967 1_555
O38 V2 1.852547 1_555
O39 P8 1.550637 1_555
O39 V3 1.908760 1_555
O40 P12 1.540949 1_555
O40 V1 1.929670 1_555
O41 P12 1.471110 1_555
O42 P11 1.485052 1_555
O43 P11 1.569709 1_555
O43 V4 1.967048 1_455
O44 P14 1.547007 1_555
O44 V2 1.864578 1_555
O45 P11 1.613918 1_555
O45 V3 1.820908 1_555
O46 P10 1.560484 1_555
O46 V4 1.951462 1_455
O47 P0 1.609675 1_555
O47 P13 1.620993 1_655
O48 P0 1.489891 1_555
O49 P13 1.555778 1_555
O49 V5 1.844521 1_555
O50 P12 1.618316 1_555
O50 V5 1.806731 1_555
O51 P15 1.530441 1_555
O51 V4 1.948382 1_455
O52 P15 1.565439 1_555
O52 V3 1.948131 1_555
O53 P7 1.487060 1_555
O54 P7 1.609407 1_555
O54 P14 1.617051 1_555
O55 P14 1.564352 1_555
O55 V5 1.948179 1_555
O56 P2 1.478562 1_555
O57 P2 1.604513 1_455
O57 P15 1.622430 1_555
