# generated using pymatgen
data_LiMo2P3O13
_symmetry_space_group_name_H-M   'P 1'
_cell_length_a   8.92902379
_cell_length_b   8.92902379
_cell_length_c   8.82088710
_cell_angle_alpha   69.34921198
_cell_angle_beta   69.34921198
_cell_angle_gamma   105.64570055
_symmetry_Int_Tables_number   1
_chemical_formula_structural   LiMo2P3O13
_chemical_formula_sum   'Li2 Mo4 P6 O26'
_cell_volume   549.91178669
_cell_formula_units_Z   2
loop_
 _symmetry_equiv_pos_site_id
 _symmetry_equiv_pos_as_xyz
  1  'x, y, z'
loop_
 _atom_site_type_symbol
 _atom_site_label
 _atom_site_symmetry_multiplicity
 _atom_site_fract_x
 _atom_site_fract_y
 _atom_site_fract_z
 _atom_site_occupancy
  Li  Li0  1  0.00000000  0.50000000  0.50000000  1
  Li  Li1  1  0.50000000  0.00000000  0.00000000  1
  Mo  Mo0  1  0.17225800  0.33759700  0.17175400  1
  Mo  Mo1  1  0.33759700  0.17225800  0.67175400  1
  Mo  Mo2  1  0.82774200  0.66240300  0.82824600  1
  Mo  Mo3  1  0.66240300  0.82774200  0.32824600  1
  P  P0  1  0.74006900  0.15137600  0.44089900  1
  P  P1  1  0.84862400  0.25993100  0.05910100  1
  P  P2  1  0.15137600  0.74006900  0.94089900  1
  P  P3  1  0.48834500  0.51165500  0.25000000  1
  P  P4  1  0.25993100  0.84862400  0.55910100  1
  P  P5  1  0.51165500  0.48834500  0.75000000  1
  O  O0  1  0.25412000  0.93044300  0.90705800  1
  O  O1  1  0.50010000  0.39780100  0.41859700  1
  O  O2  1  0.96287600  0.70227000  0.96688600  1
  O  O3  1  0.60036900  0.15022700  0.59956900  1
  O  O4  1  0.15022700  0.60036900  0.09956900  1
  O  O5  1  0.70227000  0.96287600  0.46688600  1
  O  O6  1  0.73899500  0.26100500  0.25000000  1
  O  O7  1  0.19721500  0.14681500  0.23126000  1
  O  O8  1  0.80278500  0.85318500  0.76874000  1
  O  O9  1  0.39780100  0.50010000  0.91859700  1
  O  O10  1  0.55752200  0.71079800  0.20329000  1
  O  O11  1  0.85318500  0.80278500  0.26874000  1
  O  O12  1  0.93044300  0.25412000  0.40705800  1
  O  O13  1  0.71079800  0.55752200  0.70329000  1
  O  O14  1  0.03712400  0.29773000  0.03311400  1
  O  O15  1  0.74588000  0.06955700  0.09294200  1
  O  O16  1  0.60219900  0.49990000  0.08140300  1
  O  O17  1  0.49990000  0.60219900  0.58140300  1
  O  O18  1  0.14681500  0.19721500  0.73126000  1
  O  O19  1  0.29773000  0.03712400  0.53311400  1
  O  O20  1  0.44247800  0.28920200  0.79671000  1
  O  O21  1  0.39963100  0.84977300  0.40043100  1
  O  O22  1  0.06955700  0.74588000  0.59294200  1
  O  O23  1  0.28920200  0.44247800  0.29671000  1
  O  O24  1  0.26100500  0.73899500  0.75000000  1
  O  O25  1  0.84977300  0.39963100  0.90043100  1
loop_
_geom_bond_atom_site_label_1
_geom_bond_atom_site_label_2
_geom_bond_distance
_geom_bond_site_symmetry_2
Li0 O12 2.602147 1_455
Li0 O22 2.602147 1_555
Li1 O15 2.602147 1_555
Li1 O0 2.602147 1_544
Mo0 O7 1.698129 1_555
Mo0 O9 2.028329 1_554
Mo0 O14 2.048018 1_555
Mo0 O23 2.048090 1_555
Mo0 O12 2.098895 1_455
Mo0 O4 2.287527 1_555
Mo1 O18 1.698129 1_555
Mo1 O1 2.028329 1_555
Mo1 O19 2.048018 1_555
Mo1 O20 2.048090 1_555
Mo1 O0 2.098895 1_545
Mo1 O3 2.287527 1_555
Mo2 O8 1.698129 1_555
Mo2 O16 2.028329 1_556
Mo2 O2 2.048018 1_555
Mo2 O13 2.048090 1_555
Mo2 O22 2.098895 1_655
Mo2 O25 2.287527 1_555
Mo3 O11 1.698129 1_555
Mo3 O17 2.028329 1_555
Mo3 O5 2.048018 1_555
Mo3 O10 2.048090 1_555
Mo3 O15 2.098895 1_565
Mo3 O21 2.287527 1_555
O0 P2 1.558218 1_555
O1 P3 1.535402 1_555
O2 P2 1.538261 1_655
O3 P0 1.505499 1_555
O4 P2 1.505499 1_554
O5 P0 1.538261 1_565
O6 P1 1.627152 1_555
O6 P0 1.627152 1_555
O9 P5 1.535402 1_555
O10 P3 1.557060 1_555
O12 P0 1.558218 1_555
O13 P5 1.557060 1_555
O14 P1 1.538261 1_455
O15 P1 1.558218 1_555
O16 P3 1.535402 1_555
O17 P5 1.535402 1_555
O19 P4 1.538261 1_545
O20 P5 1.557060 1_555
O21 P4 1.505499 1_555
O22 P4 1.558218 1_555
O23 P3 1.557060 1_555
O24 P2 1.627152 1_555
O24 P4 1.627152 1_555
O25 P1 1.505499 1_556
