# generated using pymatgen
data_Li4Mn5(Fe2O9)2
_symmetry_space_group_name_H-M   'P 1'
_cell_length_a   2.90992600
_cell_length_b   9.11755000
_cell_length_c   24.90984087
_cell_angle_alpha   89.81857954
_cell_angle_beta   90.00000000
_cell_angle_gamma   90.00000000
_symmetry_Int_Tables_number   1
_chemical_formula_structural   Li4Mn5(Fe2O9)2
_chemical_formula_sum   'Li8 Mn10 Fe8 O36'
_cell_volume   660.88953449
_cell_formula_units_Z   2
loop_
 _symmetry_equiv_pos_site_id
 _symmetry_equiv_pos_as_xyz
  1  'x, y, z'
loop_
 _atom_site_type_symbol
 _atom_site_label
 _atom_site_symmetry_multiplicity
 _atom_site_fract_x
 _atom_site_fract_y
 _atom_site_fract_z
 _atom_site_occupancy
  Li  Li0  1  0.00000000  0.82232400  0.00649900  1
  Li  Li1  1  0.00000000  0.79475600  0.79600900  1
  Li  Li2  1  0.00000000  0.70905300  0.29525800  1
  Li  Li3  1  0.00000000  0.67941200  0.50628900  1
  Li  Li4  1  0.00000000  0.32058800  0.49371100  1
  Li  Li5  1  0.00000000  0.29094700  0.70474200  1
  Li  Li6  1  0.00000000  0.20524400  0.20399100  1
  Li  Li7  1  0.00000000  0.17767600  0.99350100  1
  Mn  Mn0  1  0.00000000  0.00000000  0.50000000  1
  Mn  Mn1  1  0.00000000  0.99482500  0.89472000  1
  Mn  Mn2  1  0.50000000  0.85127700  0.19035700  1
  Mn  Mn3  1  0.50000000  0.65149000  0.69062300  1
  Mn  Mn4  1  0.00000000  0.50648900  0.39500100  1
  Mn  Mn5  1  0.00000000  0.50000000  0.00000000  1
  Mn  Mn6  1  0.00000000  0.49351100  0.60499900  1
  Mn  Mn7  1  0.50000000  0.34851000  0.30937700  1
  Mn  Mn8  1  0.50000000  0.14872300  0.80964300  1
  Mn  Mn9  1  0.00000000  0.00517500  0.10528000  1
  Fe  Fe0  1  0.00000000  0.98140800  0.69141300  1
  Fe  Fe1  1  0.50000000  0.85317300  0.41129500  1
  Fe  Fe2  1  0.50000000  0.64966100  0.91120100  1
  Fe  Fe3  1  0.00000000  0.51418600  0.19180100  1
  Fe  Fe4  1  0.00000000  0.48581400  0.80819900  1
  Fe  Fe5  1  0.50000000  0.35033900  0.08879900  1
  Fe  Fe6  1  0.50000000  0.14682700  0.58870500  1
  Fe  Fe7  1  0.00000000  0.01859200  0.30858700  1
  O  O0  1  0.00000000  0.00279300  0.57678900  1
  O  O1  1  0.00000000  0.99720700  0.42321100  1
  O  O2  1  0.50000000  0.95878200  0.05803400  1
  O  O3  1  0.50000000  0.95192100  0.84118900  1
  O  O4  1  0.50000000  0.88246000  0.33128600  1
  O  O5  1  0.00000000  0.89822400  0.23842200  1
  O  O6  1  0.50000000  0.85854500  0.49609200  1
  O  O7  1  0.50000000  0.84852800  0.71693900  1
  O  O8  1  0.00000000  0.81555400  0.14119800  1
  O  O9  1  0.00000000  0.79705700  0.91860500  1
  O  O10  1  0.00000000  0.70264700  0.41815200  1
  O  O11  1  0.00000000  0.68853100  0.64104000  1
  O  O12  1  0.50000000  0.65226300  0.21449800  1
  O  O13  1  0.50000000  0.64508000  0.99773600  1
  O  O14  1  0.00000000  0.60737400  0.73857200  1
  O  O15  1  0.50000000  0.61395000  0.83322900  1
  O  O16  1  0.50000000  0.54804200  0.34085800  1
  O  O17  1  0.50000000  0.54556400  0.55781100  1
  O  O18  1  0.00000000  0.50604900  0.92362200  1
  O  O19  1  0.00000000  0.49395100  0.07637800  1
  O  O20  1  0.50000000  0.45443600  0.44218900  1
  O  O21  1  0.50000000  0.45195800  0.65914200  1
  O  O22  1  0.50000000  0.38605000  0.16677100  1
  O  O23  1  0.00000000  0.39262600  0.26142800  1
  O  O24  1  0.50000000  0.35492000  0.00226400  1
  O  O25  1  0.50000000  0.34773700  0.78550200  1
  O  O26  1  0.00000000  0.31146900  0.35896000  1
  O  O27  1  0.00000000  0.29735300  0.58184800  1
  O  O28  1  0.00000000  0.20294300  0.08139500  1
  O  O29  1  0.00000000  0.18444600  0.85880200  1
  O  O30  1  0.50000000  0.15147200  0.28306100  1
  O  O31  1  0.50000000  0.14145500  0.50390800  1
  O  O32  1  0.00000000  0.10177600  0.76157800  1
  O  O33  1  0.50000000  0.11754000  0.66871400  1
  O  O34  1  0.50000000  0.04807900  0.15881100  1
  O  O35  1  0.50000000  0.04121800  0.94196600  1
loop_
_geom_bond_atom_site_label_1
_geom_bond_atom_site_label_2
_geom_bond_distance
_geom_bond_site_symmetry_2
Li0 O13 2.185945 1_454
Li0 O13 2.185945 1_554
Li0 O9 2.202238 1_554
Li0 O2 2.307148 1_555
Li0 O2 2.307148 1_455
Li1 O14 2.231898 1_555
Li1 O3 2.333900 1_555
Li1 O3 2.333900 1_455
Li1 O15 2.384201 1_455
Li1 O15 2.384201 1_555
Li1 O7 2.496112 1_455
Li1 O7 2.496112 1_555
Li2 O5 2.227961 1_555
Li2 O4 2.330458 1_455
Li2 O4 2.330458 1_555
Li2 O16 2.356205 1_555
Li2 O16 2.356205 1_455
Li2 O12 2.537445 1_455
Li2 O12 2.537445 1_555
Li3 O6 2.201438 1_555
Li3 O6 2.201438 1_455
Li3 O10 2.205008 1_555
Li3 O17 2.289851 1_455
Li3 O17 2.289851 1_555
Li4 O31 2.201438 1_455
Li4 O31 2.201438 1_555
Li4 O27 2.205008 1_555
Li4 O20 2.289851 1_455
Li4 O20 2.289851 1_555
Li5 O32 2.227961 1_555
Li5 O33 2.330458 1_455
Li5 O33 2.330458 1_555
Li5 O21 2.356205 1_555
Li5 O21 2.356205 1_455
Li5 O25 2.537445 1_555
Li5 O25 2.537445 1_455
Li6 O23 2.231898 1_555
Li6 O34 2.333900 1_555
Li6 O34 2.333900 1_455
Li6 O22 2.384201 1_455
Li6 O22 2.384201 1_555
Li6 O30 2.496112 1_455
Li6 O30 2.496112 1_555
Li7 O24 2.185945 1_456
Li7 O24 2.185945 1_556
Li7 O28 2.202238 1_556
Li7 O35 2.307148 1_455
Li7 O35 2.307148 1_555
Mn0 O0 1.913052 1_555
Mn0 O1 1.913052 1_545
Mn0 O6 1.946940 1_545
Mn0 O6 1.946940 1_445
Mn0 O31 1.946940 1_455
Mn0 O31 1.946940 1_555
Mn1 O9 1.896993 1_555
Mn1 O35 1.919391 1_565
Mn1 O35 1.919391 1_465
Mn1 O29 1.944154 1_565
Mn1 O3 2.012791 1_555
Mn1 O3 2.012791 1_455
Mn2 O12 1.909763 1_555
Mn2 O8 1.930034 1_555
Mn2 O8 1.930034 1_655
Mn2 O5 1.933104 1_555
Mn2 O5 1.933104 1_655
Mn2 O34 1.956594 1_565
Mn3 O7 1.914314 1_555
Mn3 O14 1.924126 1_555
Mn3 O14 1.924126 1_655
Mn3 O11 1.937477 1_555
Mn3 O11 1.937477 1_655
Mn3 O21 1.983338 1_555
Mn4 O10 1.880894 1_555
Mn4 O20 1.928807 1_555
Mn4 O20 1.928807 1_455
Mn4 O26 1.994434 1_555
Mn4 O16 2.018958 1_455
Mn4 O16 2.018958 1_555
Mn5 O18 1.903188 1_554
Mn5 O19 1.903188 1_555
Mn5 O13 1.967068 1_554
Mn5 O24 1.967068 1_455
Mn5 O13 1.967068 1_454
Mn5 O24 1.967068 1_555
Mn6 O27 1.880894 1_555
Mn6 O17 1.928807 1_455
Mn6 O17 1.928807 1_555
Mn6 O11 1.994434 1_555
Mn6 O21 2.018958 1_555
Mn6 O21 2.018958 1_455
Mn7 O30 1.914314 1_555
Mn7 O23 1.924126 1_555
Mn7 O23 1.924126 1_655
Mn7 O26 1.937477 1_655
Mn7 O26 1.937477 1_555
Mn7 O16 1.983338 1_555
Mn8 O25 1.909763 1_555
Mn8 O29 1.930034 1_655
Mn8 O29 1.930034 1_555
Mn8 O32 1.933104 1_555
Mn8 O32 1.933104 1_655
Mn8 O3 1.956594 1_545
Mn9 O28 1.896993 1_555
Mn9 O2 1.919391 1_545
Mn9 O2 1.919391 1_445
Mn9 O8 1.944154 1_545
Mn9 O34 2.012791 1_455
Mn9 O34 2.012791 1_555
Fe0 O33 1.993172 1_565
Fe0 O33 1.993172 1_465
Fe0 O7 1.996039 1_555
Fe0 O7 1.996039 1_455
Fe0 O32 2.066729 1_565
Fe1 O1 1.982948 1_555
Fe1 O1 1.982948 1_655
Fe1 O10 2.007029 1_655
Fe1 O10 2.007029 1_555
Fe1 O4 2.009982 1_555
Fe1 O6 2.113003 1_555
Fe2 O15 1.970389 1_555
Fe2 O18 1.981056 1_655
Fe2 O18 1.981056 1_555
Fe2 O9 1.989609 1_555
Fe2 O9 1.989609 1_655
Fe2 O13 2.155845 1_555
Fe3 O22 1.968544 1_455
Fe3 O22 1.968544 1_555
Fe3 O12 2.006481 1_455
Fe3 O12 2.006481 1_555
Fe3 O23 2.055324 1_555
Fe4 O15 1.968544 1_555
Fe4 O15 1.968544 1_455
Fe4 O25 2.006481 1_555
Fe4 O25 2.006481 1_455
Fe4 O14 2.055324 1_555
Fe5 O22 1.970389 1_555
Fe5 O19 1.981056 1_555
Fe5 O19 1.981056 1_655
Fe5 O28 1.989609 1_555
Fe5 O28 1.989609 1_655
Fe5 O24 2.155845 1_555
Fe6 O0 1.982948 1_555
Fe6 O0 1.982948 1_655
Fe6 O27 2.007029 1_655
Fe6 O27 2.007029 1_555
Fe6 O33 2.009982 1_555
Fe6 O31 2.113003 1_555
Fe7 O4 1.993172 1_445
Fe7 O4 1.993172 1_545
Fe7 O30 1.996039 1_455
Fe7 O30 1.996039 1_555
Fe7 O5 2.066729 1_545
