# generated using pymatgen
data_RbFe3O5
_symmetry_space_group_name_H-M   'P 1'
_cell_length_a   3.11323700
_cell_length_b   9.57926300
_cell_length_c   15.53296057
_cell_angle_alpha   89.88266002
_cell_angle_beta   90.00000000
_cell_angle_gamma   90.00000000
_symmetry_Int_Tables_number   1
_chemical_formula_structural   RbFe3O5
_chemical_formula_sum   'Rb4 Fe12 O20'
_cell_volume   463.23099387
_cell_formula_units_Z   4
loop_
 _symmetry_equiv_pos_site_id
 _symmetry_equiv_pos_as_xyz
  1  'x, y, z'
loop_
 _atom_site_type_symbol
 _atom_site_label
 _atom_site_symmetry_multiplicity
 _atom_site_fract_x
 _atom_site_fract_y
 _atom_site_fract_z
 _atom_site_occupancy
  Rb  Rb0  1  0.00000000  0.02908800  0.62205700  1
  Rb  Rb1  1  0.50000000  0.47112000  0.12118900  1
  Rb  Rb2  1  0.00000000  0.53086300  0.87950600  1
  Rb  Rb3  1  0.50000000  0.97108400  0.37787900  1
  Fe  Fe0  1  0.00000000  0.10873700  0.16443900  1
  Fe  Fe1  1  0.50000000  0.14300700  0.98972400  1
  Fe  Fe2  1  0.00000000  0.17784200  0.82008300  1
  Fe  Fe3  1  0.50000000  0.32168300  0.32033700  1
  Fe  Fe4  1  0.00000000  0.35506700  0.48957500  1
  Fe  Fe5  1  0.50000000  0.39099100  0.66378300  1
  Fe  Fe6  1  0.00000000  0.60988800  0.33578200  1
  Fe  Fe7  1  0.50000000  0.64552900  0.51044200  1
  Fe  Fe8  1  0.00000000  0.67897400  0.68012700  1
  Fe  Fe9  1  0.50000000  0.82052100  0.17646800  1
  Fe  Fe10  1  0.00000000  0.86301500  0.01080400  1
  Fe  Fe11  1  0.50000000  0.88863400  0.83873600  1
  O  O0  1  0.00000000  0.01798200  0.92470300  1
  O  O1  1  0.50000000  0.06352600  0.77305500  1
  O  O2  1  0.50000000  0.19355900  0.21965200  1
  O  O3  1  0.00000000  0.22152900  0.05560300  1
  O  O4  1  0.00000000  0.23072000  0.38934600  1
  O  O5  1  0.50000000  0.26780600  0.88990400  1
  O  O6  1  0.50000000  0.27590600  0.55518000  1
  O  O7  1  0.00000000  0.30614500  0.71996100  1
  O  O8  1  0.00000000  0.43561300  0.27150700  1
  O  O9  1  0.50000000  0.47828700  0.42293500  1
  O  O10  1  0.00000000  0.52224400  0.57707400  1
  O  O11  1  0.50000000  0.56472400  0.72853200  1
  O  O12  1  0.50000000  0.69314100  0.27892200  1
  O  O13  1  0.00000000  0.72458800  0.44454700  1
  O  O14  1  0.00000000  0.73417900  0.10684700  1
  O  O15  1  0.50000000  0.76979100  0.61070000  1
  O  O16  1  0.50000000  0.78135600  0.94872500  1
  O  O17  1  0.00000000  0.80592700  0.78123100  1
  O  O18  1  0.00000000  0.93483500  0.22710800  1
  O  O19  1  0.50000000  0.97209900  0.07353800  1
loop_
_geom_bond_atom_site_label_1
_geom_bond_atom_site_label_2
_geom_bond_distance
_geom_bond_site_symmetry_2
Fe0 O18 1.927693 1_545
Fe0 O2 1.954901 1_555
Fe0 O2 1.954901 1_455
Fe0 O3 2.004461 1_555
Fe0 O19 2.477390 1_545
Fe0 O19 2.477390 1_445
Fe1 O5 1.955923 1_555
Fe1 O3 2.009758 1_556
Fe1 O3 2.009758 1_656
Fe1 O19 2.089616 1_546
Fe1 O0 2.209618 1_555
Fe1 O0 2.209618 1_655
Fe2 O7 1.980240 1_555
Fe2 O1 2.039389 1_555
Fe2 O1 2.039389 1_455
Fe2 O5 2.084651 1_555
Fe2 O5 2.084651 1_455
Fe2 O0 2.230611 1_555
Fe3 O2 1.990001 1_555
Fe3 O8 2.045980 1_555
Fe3 O8 2.045980 1_655
Fe3 O4 2.080265 1_555
Fe3 O4 2.080265 1_655
Fe3 O9 2.190883 1_555
Fe4 O4 1.962201 1_555
Fe4 O6 2.008324 1_555
Fe4 O6 2.008324 1_455
Fe4 O10 2.102547 1_555
Fe4 O9 2.209698 1_455
Fe4 O9 2.209698 1_555
Fe5 O11 1.946292 1_555
Fe5 O7 1.960150 1_555
Fe5 O7 1.960150 1_655
Fe5 O6 2.017099 1_555
Fe5 O10 2.410590 1_555
Fe5 O10 2.410590 1_655
Fe6 O8 1.946940 1_555
Fe6 O12 1.958631 1_455
Fe6 O12 1.958631 1_555
Fe6 O13 2.017189 1_555
Fe6 O9 2.416177 1_455
Fe6 O9 2.416177 1_555
Fe7 O15 1.962063 1_555
Fe7 O13 2.010242 1_555
Fe7 O13 2.010242 1_655
Fe7 O9 2.103103 1_555
Fe7 O10 2.209972 1_555
Fe7 O10 2.209972 1_655
Fe8 O17 1.988230 1_555
Fe8 O11 2.045185 1_455
Fe8 O11 2.045185 1_555
Fe8 O15 2.083029 1_455
Fe8 O15 2.083029 1_555
Fe8 O10 2.196865 1_555
Fe9 O12 2.003384 1_555
Fe9 O18 2.060202 1_555
Fe9 O18 2.060202 1_655
Fe9 O14 2.068883 1_655
Fe9 O14 2.068883 1_555
Fe9 O19 2.157544 1_555
Fe10 O14 1.934207 1_555
Fe10 O16 1.991948 1_454
Fe10 O16 1.991948 1_554
Fe10 O0 1.996038 1_564
Fe10 O19 2.113926 1_555
Fe10 O19 2.113926 1_455
Fe11 O1 1.959745 1_565
Fe11 O17 1.962524 1_555
Fe11 O17 1.962524 1_655
Fe11 O16 1.991903 1_555
Fe11 O0 2.397538 1_565
Fe11 O0 2.397538 1_665
O1 Rb0 2.834815 1_655
O1 Rb0 2.834815 1_555
O2 Rb1 3.064613 1_555
O2 Rb3 3.249736 1_545
O3 Rb1 3.031051 1_555
O3 Rb1 3.031051 1_455
O4 Rb3 2.939792 1_445
O4 Rb3 2.939792 1_545
O5 Rb2 2.966030 1_655
O5 Rb2 2.966030 1_555
O6 Rb0 3.013666 1_655
O6 Rb0 3.013666 1_555
O7 Rb0 3.061520 1_555
O8 Rb1 2.826160 1_455
O8 Rb1 2.826160 1_555
O11 Rb2 2.832759 1_555
O11 Rb2 2.832759 1_655
O12 Rb3 3.077056 1_555
O12 Rb1 3.247677 1_555
O13 Rb3 3.010135 1_555
O13 Rb3 3.010135 1_455
O14 Rb1 2.969906 1_455
O14 Rb1 2.969906 1_555
O15 Rb0 2.936938 1_565
O15 Rb0 2.936938 1_665
O16 Rb2 3.057354 1_655
O16 Rb2 3.057354 1_555
O17 Rb2 3.042447 1_555
O17 Rb0 3.265144 1_565
O18 Rb3 2.834000 1_455
O18 Rb3 2.834000 1_555
