# generated using pymatgen
data_V5CrO12
_symmetry_space_group_name_H-M   'P 1'
_cell_length_a   6.86336513
_cell_length_b   6.86336513
_cell_length_c   5.68672259
_cell_angle_alpha   75.13584392
_cell_angle_beta   75.13584392
_cell_angle_gamma   84.44121337
_symmetry_Int_Tables_number   1
_chemical_formula_structural   V5CrO12
_chemical_formula_sum   'V5 Cr1 O12'
_cell_volume   250.11101383
_cell_formula_units_Z   1
loop_
 _symmetry_equiv_pos_site_id
 _symmetry_equiv_pos_as_xyz
  1  'x, y, z'
loop_
 _atom_site_type_symbol
 _atom_site_label
 _atom_site_symmetry_multiplicity
 _atom_site_fract_x
 _atom_site_fract_y
 _atom_site_fract_z
 _atom_site_occupancy
  V  V0  1  0.08207600  0.91792400  0.00000000  1
  V  V1  1  0.79488500  0.60702500  0.50111100  1
  V  V2  1  0.60328300  0.80855500  0.99068300  1
  V  V3  1  0.39297500  0.20511500  0.49888900  1
  V  V4  1  0.19144500  0.39671700  0.00931700  1
  Cr  Cr0  1  0.91611600  0.08388400  0.50000000  1
  O  O0  1  0.95988800  0.81123000  0.39153600  1
  O  O1  1  0.91662800  0.37322800  0.50679200  1
  O  O2  1  0.82348800  0.96701800  0.87647800  1
  O  O3  1  0.63012500  0.65293000  0.30596600  1
  O  O4  1  0.62677200  0.08337200  0.49320800  1
  O  O5  1  0.65891500  0.61669600  0.80276400  1
  O  O6  1  0.34707000  0.36987500  0.69403400  1
  O  O7  1  0.35961500  0.90833800  0.03626900  1
  O  O8  1  0.38330400  0.34108500  0.19723600  1
  O  O9  1  0.18877000  0.04011200  0.60846400  1
  O  O10  1  0.09166200  0.64038500  0.96373100  1
  O  O11  1  0.03298200  0.17651200  0.12352200  1
loop_
_geom_bond_atom_site_label_1
_geom_bond_atom_site_label_2
_geom_bond_distance
_geom_bond_site_symmetry_2
Cr0 O1 1.996490 1_555
Cr0 O4 1.996490 1_555
Cr0 O2 2.037286 1_545
Cr0 O11 2.037286 1_655
Cr0 O9 2.088243 1_655
Cr0 O0 2.088243 1_545
O0 V1 1.769876 1_555
O0 V0 2.126389 1_655
O1 V1 1.732502 1_555
O2 V2 1.827915 1_555
O2 V0 2.039395 1_656
O3 V1 1.733474 1_555
O3 V2 1.881012 1_554
O4 V3 1.732502 1_555
O5 V1 1.744430 1_555
O5 V2 1.853904 1_555
O6 V3 1.733474 1_555
O6 V4 1.881012 1_556
O7 V2 1.726224 1_554
O7 V0 1.961034 1_555
O8 V3 1.744430 1_555
O8 V4 1.853904 1_555
O9 V3 1.769876 1_555
O9 V0 2.126389 1_546
O10 V4 1.726224 1_556
O10 V0 1.961034 1_556
O11 V4 1.827915 1_555
O11 V0 2.039395 1_545
