# generated using pymatgen
data_Na8Li9(FeO4)4
_symmetry_space_group_name_H-M   'P 1'
_cell_length_a   6.64760900
_cell_length_b   8.04104603
_cell_length_c   8.25572646
_cell_angle_alpha   89.82535287
_cell_angle_beta   89.11346073
_cell_angle_gamma   89.67920507
_symmetry_Int_Tables_number   1
_chemical_formula_structural   Na8Li9(FeO4)4
_chemical_formula_sum   'Na8 Li9 Fe4 O16'
_cell_volume   441.23769582
_cell_formula_units_Z   1
loop_
 _symmetry_equiv_pos_site_id
 _symmetry_equiv_pos_as_xyz
  1  'x, y, z'
loop_
 _atom_site_type_symbol
 _atom_site_label
 _atom_site_symmetry_multiplicity
 _atom_site_fract_x
 _atom_site_fract_y
 _atom_site_fract_z
 _atom_site_occupancy
  Na  Na0  1  0.74494300  0.49726800  0.98835400  1
  Na  Na1  1  0.25211400  0.49641200  0.02532200  1
  Na  Na2  1  0.99028400  0.74328000  0.25063400  1
  Na  Na3  1  0.49342300  0.24552000  0.25100300  1
  Na  Na4  1  0.23802400  0.99857400  0.50909500  1
  Na  Na5  1  0.75790800  0.00305200  0.47475400  1
  Na  Na6  1  0.53178700  0.73681800  0.73558700  1
  Na  Na7  1  0.97278600  0.27525700  0.74806400  1
  Li  Li0  1  0.52004000  0.79014300  0.08390600  1
  Li  Li1  1  0.24983800  0.99086100  0.15562100  1
  Li  Li2  1  0.75462100  0.48605300  0.36290600  1
  Li  Li3  1  0.02354100  0.28642600  0.41111100  1
  Li  Li4  1  0.97947000  0.70677200  0.58214400  1
  Li  Li5  1  0.24965600  0.51113000  0.63996800  1
  Li  Li6  1  0.74468100  0.01387400  0.86061600  1
  Li  Li7  1  0.25990500  0.02206600  0.84934000  1
  Li  Li8  1  0.49539200  0.23298200  0.91774800  1
  Fe  Fe0  1  0.98391400  0.21561400  0.12291900  1
  Fe  Fe1  1  0.48562000  0.71860500  0.37526900  1
  Fe  Fe2  1  0.50683800  0.27716000  0.62565300  1
  Fe  Fe3  1  0.01214600  0.77639600  0.87628300  1
  O  O0  1  0.75872700  0.20877600  0.99076700  1
  O  O1  1  0.24326300  0.19283000  0.01690200  1
  O  O2  1  0.51265100  0.55318000  0.22263000  1
  O  O3  1  0.97581700  0.43032800  0.21738800  1
  O  O4  1  0.47590400  0.93002700  0.28933300  1
  O  O5  1  0.01971800  0.05818300  0.29055400  1
  O  O6  1  0.25196300  0.70358600  0.49349500  1
  O  O7  1  0.73811200  0.71013700  0.46508700  1
  O  O8  1  0.74263600  0.29214400  0.50946000  1
  O  O9  1  0.25415200  0.28915800  0.54474000  1
  O  O10  1  0.00587400  0.95429000  0.73569100  1
  O  O11  1  0.50899000  0.06187600  0.71995200  1
  O  O12  1  0.02667600  0.56904800  0.78981800  1
  O  O13  1  0.48844500  0.44472200  0.77538600  1
  O  O14  1  0.75723200  0.78687000  0.95566400  1
  O  O15  1  0.25008500  0.80620100  0.98451800  1
loop_
_geom_bond_atom_site_label_1
_geom_bond_atom_site_label_2
_geom_bond_distance
_geom_bond_site_symmetry_2
Na0 O0 2.321111 1_555
Na0 O14 2.345204 1_555
Na0 O2 2.496510 1_556
Na0 O13 2.506500 1_555
Na0 O3 2.508954 1_556
Na0 O12 2.537435 1_655
Na1 O2 2.441738 1_555
Na1 O1 2.443382 1_555
Na1 O3 2.466947 1_455
Na1 O15 2.512674 1_554
Na1 O12 2.537831 1_554
Na1 O13 2.606942 1_554
Na2 O7 2.434333 1_555
Na2 O3 2.534738 1_555
Na2 O5 2.563457 1_665
Na2 O6 2.691781 1_655
Na2 O15 2.819756 1_654
Na2 O14 2.925511 1_554
Na3 O2 2.488074 1_555
Na3 O4 2.558672 1_545
Na3 O1 2.606248 1_555
Na3 O8 2.749404 1_555
Na3 O0 2.773856 1_554
Na3 O9 2.900575 1_555
Na4 O9 2.359187 1_565
Na4 O6 2.377109 1_555
Na4 O5 2.378848 1_565
Na4 O10 2.433254 1_555
Na4 O4 2.450234 1_555
Na4 O11 2.578119 1_565
Na5 O5 2.336820 1_655
Na5 O8 2.344503 1_555
Na5 O7 2.361413 1_545
Na5 O4 2.511779 1_545
Na5 O11 2.636846 1_555
Na5 O10 2.758456 1_645
Na6 O13 2.389053 1_555
Na6 O14 2.409269 1_555
Na6 O7 2.611348 1_555
Na6 O11 2.620253 1_565
Na6 O6 2.765873 1_555
Na6 O15 2.813845 1_555
Na7 O12 2.417911 1_655
Na7 O9 2.496523 1_655
Na7 O0 2.497834 1_555
Na7 O8 2.515708 1_555
Na7 O10 2.591229 1_645
Na7 O1 2.949465 1_656
Li0 O14 1.885689 1_554
Li0 O15 1.988135 1_554
Li0 O4 2.054280 1_555
Li0 O2 2.220522 1_555
Li1 O4 1.938059 1_555
Li1 O5 1.953401 1_565
Li1 O1 1.985039 1_565
Li1 O15 2.052530 1_554
Li2 O3 1.935828 1_555
Li2 O8 1.971887 1_555
Li2 O7 1.993638 1_555
Li2 O2 2.064935 1_555
Li3 O9 1.902768 1_555
Li3 O3 1.999432 1_455
Li3 O8 2.025018 1_455
Li3 O5 2.090945 1_555
Li4 O7 1.885802 1_555
Li4 O6 1.943223 1_655
Li4 O12 2.065333 1_655
Li4 O10 2.371753 1_655
Li5 O9 1.952439 1_555
Li5 O6 1.961042 1_555
Li5 O12 1.970677 1_555
Li5 O13 2.023996 1_555
Li6 O0 1.906417 1_555
Li6 O14 1.986502 1_545
Li6 O11 1.999792 1_555
Li6 O10 2.060651 1_645
Li7 O1 1.953584 1_556
Li7 O11 1.983523 1_555
Li7 O10 2.022744 1_545
Li7 O15 2.061514 1_545
Li8 O0 1.869178 1_555
Li8 O1 1.882945 1_556
Li8 O13 2.066628 1_555
Li8 O11 2.139031 1_555
Fe0 O0 1.867091 1_554
Fe0 O5 1.889611 1_655
Fe0 O3 1.896817 1_555
Fe0 O1 1.929435 1_655
Fe1 O6 1.826014 1_555
Fe1 O2 1.841249 1_555
Fe1 O4 1.841339 1_555
Fe1 O7 1.846256 1_555
Fe2 O9 1.819238 1_555
Fe2 O8 1.829373 1_555
Fe2 O13 1.833597 1_555
Fe2 O11 1.896013 1_555
Fe3 O14 1.809008 1_455
Fe3 O12 1.817161 1_555
Fe3 O10 1.840066 1_555
Fe3 O15 1.845814 1_555
