# generated using pymatgen
data_Cr3Sn2Sb3O16
_symmetry_space_group_name_H-M   'P 1'
_cell_length_a   6.12976629
_cell_length_b   6.12976629
_cell_length_c   9.47758800
_cell_angle_alpha   89.94910309
_cell_angle_beta   89.94910309
_cell_angle_gamma   60.27346800
_symmetry_Int_Tables_number   1
_chemical_formula_structural   Cr3Sn2Sb3O16
_chemical_formula_sum   'Cr3 Sn2 Sb3 O16'
_cell_volume   309.24752946
_cell_formula_units_Z   1
loop_
 _symmetry_equiv_pos_site_id
 _symmetry_equiv_pos_as_xyz
  1  'x, y, z'
loop_
 _atom_site_type_symbol
 _atom_site_label
 _atom_site_symmetry_multiplicity
 _atom_site_fract_x
 _atom_site_fract_y
 _atom_site_fract_z
 _atom_site_occupancy
  Cr  Cr0  1  0.33789200  0.83205800  0.78962100  1
  Cr  Cr1  1  0.83205800  0.33789200  0.78962100  1
  Cr  Cr2  1  0.17090300  0.17090300  0.28858400  1
  Sn  Sn0  1  0.65635200  0.65635200  0.52055500  1
  Sn  Sn1  1  0.32535300  0.32535300  0.99384300  1
  Sb  Sb0  1  0.83390400  0.83390400  0.78770800  1
  Sb  Sb1  1  0.66553000  0.17006300  0.28599600  1
  Sb  Sb2  1  0.17006300  0.66553000  0.28599600  1
  O  O0  1  0.32759100  0.83199000  0.39362900  1
  O  O1  1  0.51854100  0.51854100  0.67035700  1
  O  O2  1  0.67142300  0.67142300  0.89445200  1
  O  O3  1  0.99889400  0.99889400  0.69081100  1
  O  O4  1  0.00110800  0.00110800  0.18532900  1
  O  O5  1  0.83199000  0.32759100  0.39362900  1
  O  O6  1  0.52141700  0.96193800  0.66148100  1
  O  O7  1  0.96193800  0.52141700  0.66148100  1
  O  O8  1  0.15963900  0.15963900  0.89784800  1
  O  O9  1  0.83490300  0.83490300  0.39491600  1
  O  O10  1  0.04613100  0.48065000  0.16732700  1
  O  O11  1  0.48065000  0.04613100  0.16732700  1
  O  O12  1  0.33666300  0.33666300  0.39945200  1
  O  O13  1  0.16045500  0.67317400  0.90133900  1
  O  O14  1  0.48301000  0.48301000  0.16162600  1
  O  O15  1  0.67317400  0.16045500  0.90133900  1
loop_
_geom_bond_atom_site_label_1
_geom_bond_atom_site_label_2
_geom_bond_distance
_geom_bond_site_symmetry_2
Cr0 O1 2.021955 1_555
Cr0 O8 2.025795 1_565
Cr0 O3 2.033496 1_455
Cr0 O2 2.035182 1_555
Cr0 O6 2.063577 1_555
Cr0 O13 2.073459 1_555
Cr1 O1 2.021955 1_555
Cr1 O8 2.025795 1_655
Cr1 O3 2.033496 1_545
Cr1 O2 2.035182 1_555
Cr1 O7 2.063577 1_555
Cr1 O15 2.073459 1_555
Cr2 O10 2.016977 1_555
Cr2 O11 2.016977 1_555
Cr2 O12 2.048546 1_555
Cr2 O4 2.049913 1_555
Cr2 O0 2.061239 1_545
Cr2 O5 2.061239 1_455
O0 Sb2 1.998714 1_555
O0 Sn0 2.125484 1_555
O1 Sn0 2.036261 1_555
O2 Sb0 1.996890 1_555
O3 Sb0 1.974864 1_555
O4 Sb2 2.024773 1_545
O4 Sb1 2.024773 1_455
O5 Sb1 1.998714 1_555
O5 Sn0 2.125484 1_555
O6 Sb0 2.056143 1_555
O6 Sn0 2.107795 1_555
O7 Sb0 2.056143 1_555
O7 Sn0 2.107795 1_555
O8 Sn1 1.979383 1_555
O9 Sb2 2.060858 1_655
O9 Sb1 2.060858 1_565
O9 Sn0 2.235393 1_555
O10 Sb2 1.995976 1_555
O10 Sn1 2.218340 1_554
O11 Sb1 1.995976 1_555
O11 Sn1 2.218340 1_554
O12 Sb2 2.054115 1_555
O12 Sb1 2.054115 1_555
O13 Sb0 2.045330 1_455
O13 Sn1 2.048668 1_555
O14 Sb2 2.047160 1_555
O14 Sb1 2.047160 1_555
O14 Sn1 2.308286 1_554
O15 Sb0 2.045330 1_545
O15 Sn1 2.048668 1_555
