# generated using pymatgen
data_Na2Bi2C4SO16
_symmetry_space_group_name_H-M   'P 1'
_cell_length_a   10.68917311
_cell_length_b   10.53536385
_cell_length_c   10.39471494
_cell_angle_alpha   61.41773748
_cell_angle_beta   59.93932982
_cell_angle_gamma   58.64293269
_symmetry_Int_Tables_number   1
_chemical_formula_structural   Na2Bi2C4SO16
_chemical_formula_sum   'Na4 Bi4 C8 S2 O32'
_cell_volume   826.76059506
_cell_formula_units_Z   2
loop_
 _symmetry_equiv_pos_site_id
 _symmetry_equiv_pos_as_xyz
  1  'x, y, z'
loop_
 _atom_site_type_symbol
 _atom_site_label
 _atom_site_symmetry_multiplicity
 _atom_site_fract_x
 _atom_site_fract_y
 _atom_site_fract_z
 _atom_site_occupancy
  Na  Na0  1  0.29052700  0.70947300  0.70947300  1
  Na  Na1  1  0.70947300  0.29052700  0.29052700  1
  Na  Na2  1  0.54052700  0.95947300  0.95947300  1
  Na  Na3  1  0.95947300  0.54052700  0.54052700  1
  Bi  Bi0  1  0.12500000  0.12500000  0.62500000  1
  Bi  Bi1  1  0.12500000  0.12500000  0.12500000  1
  Bi  Bi2  1  0.62500000  0.12500000  0.12500000  1
  Bi  Bi3  1  0.12500000  0.62500000  0.12500000  1
  C  C0  1  0.27919400  0.89979200  0.90889500  1
  C  C1  1  0.89979200  0.27919400  0.91211900  1
  C  C2  1  0.90889500  0.91211900  0.27919400  1
  C  C3  1  0.91211900  0.90889500  0.89979200  1
  C  C4  1  0.33788100  0.34110500  0.35020800  1
  C  C5  1  0.34110500  0.33788100  0.97080600  1
  C  C6  1  0.35020800  0.97080600  0.33788100  1
  C  C7  1  0.97080600  0.35020700  0.34110500  1
  S  S0  1  0.50000000  0.50000000  0.50000000  1
  S  S1  1  0.75000000  0.75000000  0.75000000  1
  O  O0  1  0.27382300  0.91337100  0.78056200  1
  O  O1  1  0.27272900  0.77742600  0.02521700  1
  O  O2  1  0.91337100  0.27382300  0.03224400  1
  O  O3  1  0.77742600  0.27272900  0.92462800  1
  O  O4  1  0.23964800  0.95738200  0.47248500  1
  O  O5  1  0.02521700  0.92462800  0.27272900  1
  O  O6  1  0.95738200  0.23964800  0.33048600  1
  O  O7  1  0.91951400  0.77751500  0.29261800  1
  O  O8  1  0.78056200  0.03224400  0.27382300  1
  O  O9  1  0.55953900  0.55290100  0.32695700  1
  O  O10  1  0.47248500  0.33048600  0.23964800  1
  O  O11  1  0.92304300  0.68939700  0.69046100  1
  O  O12  1  0.92462800  0.02521700  0.77742600  1
  O  O13  1  0.03224400  0.78056200  0.91337100  1
  O  O14  1  0.55290100  0.55953900  0.56060300  1
  O  O15  1  0.56060300  0.32695700  0.55290100  1
  O  O16  1  0.68939700  0.92304300  0.69709900  1
  O  O17  1  0.69709900  0.69046100  0.68939700  1
  O  O18  1  0.21775600  0.46943800  0.33662900  1
  O  O19  1  0.32537200  0.22478300  0.47257400  1
  O  O20  1  0.32695700  0.56060300  0.55953900  1
  O  O21  1  0.77751600  0.91951400  0.01035200  1
  O  O22  1  0.69046100  0.69709900  0.92304300  1
  O  O23  1  0.46943800  0.21775600  0.97617700  1
  O  O24  1  0.33048600  0.47248500  0.95738200  1
  O  O25  1  0.29261800  0.01035200  0.91951400  1
  O  O26  1  0.22478300  0.32537200  0.97727100  1
  O  O27  1  0.01035200  0.29261800  0.77751500  1
  O  O28  1  0.47257400  0.97727100  0.32537200  1
  O  O29  1  0.33662900  0.97617700  0.21775600  1
  O  O30  1  0.97727100  0.47257400  0.22478300  1
  O  O31  1  0.97617700  0.33662900  0.46943800  1
loop_
_geom_bond_atom_site_label_1
_geom_bond_atom_site_label_2
_geom_bond_distance
_geom_bond_site_symmetry_2
Na0 O14 2.477045 1_555
Na0 O20 2.477045 1_555
Na0 O0 2.485946 1_555
Na0 O13 2.485946 1_555
Na0 O4 2.625523 1_555
Na0 O24 2.625524 1_555
Na1 O9 2.477045 1_555
Na1 O15 2.477045 1_555
Na1 O2 2.485946 1_555
Na1 O8 2.485946 1_555
Na1 O10 2.625518 1_555
Na1 O6 2.625529 1_555
Na2 O22 2.477045 1_555
Na2 O16 2.477045 1_555
Na2 O29 2.485946 1_556
Na2 O23 2.485946 1_565
Na2 O25 2.625529 1_565
Na2 O21 2.625529 1_556
Na3 O17 2.477045 1_555
Na3 O11 2.477045 1_555
Na3 O18 2.485946 1_655
Na3 O31 2.485946 1_555
Na3 O27 2.625523 1_655
Na3 O7 2.625524 1_555
Bi0 O0 2.356378 1_545
Bi0 O31 2.356378 1_455
Bi0 O19 2.356415 1_555
Bi0 O12 2.356415 1_455
Bi0 O27 2.369328 1_555
Bi0 O4 2.369328 1_545
Bi1 O29 2.356378 1_545
Bi1 O2 2.356378 1_455
Bi1 O26 2.356415 1_554
Bi1 O5 2.356415 1_545
Bi1 O6 2.369336 1_455
Bi1 O25 2.369336 1_554
Bi2 O8 2.356378 1_555
Bi2 O23 2.356378 1_554
Bi2 O3 2.356415 1_554
Bi2 O28 2.356415 1_545
Bi2 O21 2.369336 1_545
Bi2 O10 2.369336 1_555
Bi3 O18 2.356378 1_555
Bi3 O13 2.356378 1_554
Bi3 O1 2.356415 1_555
Bi3 O30 2.356415 1_455
Bi3 O24 2.369330 1_554
Bi3 O7 2.369330 1_455
C0 O1 1.283061 1_556
C0 O0 1.299559 1_555
C0 O25 1.304740 1_565
C1 O3 1.283061 1_555
C1 O2 1.299559 1_556
C1 O27 1.304746 1_655
C2 O5 1.283061 1_655
C2 O8 1.299559 1_565
C2 O7 1.304750 1_555
C3 O12 1.283061 1_565
C3 O13 1.299559 1_655
C3 O21 1.304740 1_556
C4 O19 1.283061 1_555
C4 O18 1.299559 1_555
C4 O10 1.304746 1_555
C5 O26 1.283061 1_555
C5 O23 1.299559 1_555
C5 O24 1.304750 1_555
C6 O28 1.283061 1_555
C6 O29 1.299559 1_555
C6 O4 1.304746 1_555
C7 O30 1.283067 1_555
C7 O31 1.299563 1_555
C7 O6 1.304729 1_555
O9 S0 1.488007 1_555
O11 S1 1.488007 1_555
O14 S0 1.488007 1_555
O15 S0 1.488007 1_555
O16 S1 1.488007 1_555
O17 S1 1.488007 1_555
O20 S0 1.488007 1_555
O22 S1 1.488007 1_555
