# generated using pymatgen
data_Dy2Nb2O7
_symmetry_space_group_name_H-M   'P 1'
_cell_length_a   7.33242579
_cell_length_b   7.33242579
_cell_length_c   7.33242579
_cell_angle_alpha   60.00000000
_cell_angle_beta   60.00000000
_cell_angle_gamma   60.00000000
_symmetry_Int_Tables_number   1
_chemical_formula_structural   Dy2Nb2O7
_chemical_formula_sum   'Dy4 Nb4 O14'
_cell_volume   278.75844377
_cell_formula_units_Z   2
loop_
 _symmetry_equiv_pos_site_id
 _symmetry_equiv_pos_as_xyz
  1  'x, y, z'
loop_
 _atom_site_type_symbol
 _atom_site_label
 _atom_site_symmetry_multiplicity
 _atom_site_fract_x
 _atom_site_fract_y
 _atom_site_fract_z
 _atom_site_occupancy
  Dy  Dy0  1  0.12500000  0.62500000  0.62500000  1
  Dy  Dy1  1  0.62500000  0.62500000  0.62500000  1
  Dy  Dy2  1  0.62500000  0.12500000  0.62500000  1
  Dy  Dy3  1  0.62500000  0.62500000  0.12500000  1
  Nb  Nb0  1  0.12500000  0.62500000  0.12500000  1
  Nb  Nb1  1  0.12500000  0.12500000  0.62500000  1
  Nb  Nb2  1  0.62500000  0.12500000  0.12500000  1
  Nb  Nb3  1  0.12500000  0.12500000  0.12500000  1
  O  O0  1  0.75000000  0.75000000  0.75000000  1
  O  O1  1  0.22091900  0.77908100  0.77908100  1
  O  O2  1  0.77908100  0.77908100  0.22091900  1
  O  O3  1  0.22091900  0.77908100  0.22091900  1
  O  O4  1  0.22091900  0.22091900  0.77908100  1
  O  O5  1  0.77908100  0.22091900  0.77908100  1
  O  O6  1  0.47091900  0.02908100  0.02908100  1
  O  O7  1  0.77908100  0.22091900  0.22091900  1
  O  O8  1  0.02908100  0.02908100  0.47091900  1
  O  O9  1  0.47091900  0.47091900  0.02908100  1
  O  O10  1  0.47091900  0.02908100  0.47091900  1
  O  O11  1  0.02908100  0.47091900  0.02908100  1
  O  O12  1  0.02908100  0.47091900  0.47091900  1
  O  O13  1  0.50000000  0.50000000  0.50000000  1
loop_
_geom_bond_atom_site_label_1
_geom_bond_atom_site_label_2
_geom_bond_distance
_geom_bond_site_symmetry_2
Dy0 O0 2.245088 1_455
Dy0 O13 2.245088 1_555
Dy0 O11 2.431691 1_556
Dy0 O8 2.431691 1_565
Dy0 O4 2.431691 1_555
Dy0 O12 2.431691 1_555
Dy0 O1 2.431691 1_555
Dy0 O3 2.431691 1_555
Dy1 O0 2.245088 1_555
Dy1 O13 2.245088 1_555
Dy1 O10 2.431691 1_565
Dy1 O9 2.431691 1_556
Dy1 O12 2.431691 1_655
Dy1 O1 2.431691 1_555
Dy1 O5 2.431691 1_555
Dy1 O2 2.431691 1_555
Dy2 O13 2.245088 1_555
Dy2 O0 2.245088 1_545
Dy2 O6 2.431691 1_556
Dy2 O8 2.431691 1_655
Dy2 O7 2.431691 1_555
Dy2 O4 2.431691 1_555
Dy2 O5 2.431691 1_555
Dy2 O10 2.431691 1_555
Dy3 O0 2.245088 1_554
Dy3 O13 2.245088 1_555
Dy3 O6 2.431691 1_565
Dy3 O11 2.431691 1_655
Dy3 O9 2.431691 1_555
Dy3 O7 2.431691 1_555
Dy3 O2 2.431691 1_555
Dy3 O3 2.431691 1_555
Nb0 O1 2.085568 1_554
Nb0 O2 2.085568 1_455
Nb0 O12 2.085568 1_555
Nb0 O9 2.085568 1_555
Nb0 O11 2.085568 1_555
Nb0 O3 2.085568 1_555
Nb1 O5 2.085568 1_455
Nb1 O10 2.085568 1_555
Nb1 O1 2.085568 1_545
Nb1 O12 2.085568 1_555
Nb1 O8 2.085568 1_555
Nb1 O4 2.085568 1_555
Nb2 O9 2.085568 1_555
Nb2 O2 2.085568 1_545
Nb2 O6 2.085568 1_555
Nb2 O7 2.085568 1_555
Nb2 O5 2.085568 1_554
Nb2 O10 2.085568 1_555
Nb3 O4 2.085568 1_554
Nb3 O3 2.085568 1_545
Nb3 O8 2.085568 1_555
Nb3 O11 2.085568 1_555
Nb3 O6 2.085568 1_555
Nb3 O7 2.085568 1_455
