# generated using pymatgen
data_TbZr4O10
_symmetry_space_group_name_H-M   'P 1'
_cell_length_a   6.37894172
_cell_length_b   6.37894172
_cell_length_c   6.37894172
_cell_angle_alpha   99.54198806
_cell_angle_beta   99.54198806
_cell_angle_gamma   131.94826530
_symmetry_Int_Tables_number   1
_chemical_formula_structural   TbZr4O10
_chemical_formula_sum   'Tb1 Zr4 O10'
_cell_volume   176.32542537
_cell_formula_units_Z   1
loop_
 _symmetry_equiv_pos_site_id
 _symmetry_equiv_pos_as_xyz
  1  'x, y, z'
loop_
 _atom_site_type_symbol
 _atom_site_label
 _atom_site_symmetry_multiplicity
 _atom_site_fract_x
 _atom_site_fract_y
 _atom_site_fract_z
 _atom_site_occupancy
  Tb  Tb0  1  0.50000000  0.50000000  0.00000000  1
  Zr  Zr0  1  0.89770700  0.70006200  0.59776900  1
  Zr  Zr1  1  0.10229300  0.29993800  0.40223100  1
  Zr  Zr2  1  0.70006200  0.10229300  0.80235500  1
  Zr  Zr3  1  0.29993800  0.89770700  0.19764500  1
  O  O0  1  0.03397200  0.14030200  0.69068400  1
  O  O1  1  0.55038200  0.65671100  0.69068400  1
  O  O2  1  0.25000000  0.75000000  0.50000000  1
  O  O3  1  0.44961800  0.34328900  0.30931600  1
  O  O4  1  0.75000000  0.25000000  0.50000000  1
  O  O5  1  0.34328900  0.03397200  0.89367000  1
  O  O6  1  0.85969800  0.55038200  0.89367000  1
  O  O7  1  0.96602800  0.85969800  0.30931600  1
  O  O8  1  0.14030200  0.44961800  0.10633000  1
  O  O9  1  0.65671100  0.96602800  0.10633000  1
loop_
_geom_bond_atom_site_label_1
_geom_bond_atom_site_label_2
_geom_bond_distance
_geom_bond_site_symmetry_2
O0 Zr1 2.215026 1_555
O0 Zr2 2.230014 1_455
O0 Zr0 2.237659 1_445
O0 Tb0 2.330327 1_556
O1 Zr1 2.215026 1_555
O1 Zr2 2.230020 1_565
O1 Zr0 2.237656 1_555
O1 Tb0 2.330324 1_556
O2 Zr2 2.261430 1_565
O2 Zr3 2.261430 1_555
O2 Zr1 2.261430 1_555
O2 Zr0 2.261430 1_455
O3 Zr0 2.215026 1_555
O3 Zr3 2.230020 1_545
O3 Zr1 2.237656 1_555
O3 Tb0 2.330324 1_555
O4 Zr2 2.261430 1_555
O4 Zr3 2.261430 1_545
O4 Zr1 2.261430 1_655
O4 Zr0 2.261430 1_555
O5 Zr2 2.215020 1_555
O5 Zr0 2.230017 1_445
O5 Zr3 2.237659 1_546
O5 Tb0 2.330330 1_556
O6 Zr2 2.215026 1_555
O6 Zr0 2.230014 1_555
O6 Zr3 2.237659 1_656
O6 Tb0 2.330327 1_556
O7 Zr0 2.215026 1_555
O7 Zr3 2.230014 1_655
O7 Zr1 2.237659 1_665
O7 Tb0 2.330327 1_555
O8 Zr3 2.215026 1_555
O8 Zr1 2.230014 1_555
O8 Zr2 2.237659 1_454
O8 Tb0 2.330327 1_555
O9 Zr3 2.215020 1_555
O9 Zr1 2.230017 1_665
O9 Zr2 2.237659 1_564
O9 Tb0 2.330330 1_555
