# generated using pymatgen
data_CrP2O7
_symmetry_space_group_name_H-M   'P 1'
_cell_length_a   8.20738100
_cell_length_b   5.11666900
_cell_length_c   13.68289130
_cell_angle_alpha   73.53677785
_cell_angle_beta   90.00000000
_cell_angle_gamma   90.00000000
_symmetry_Int_Tables_number   1
_chemical_formula_structural   CrP2O7
_chemical_formula_sum   'Cr4 P8 O28'
_cell_volume   551.04775473
_cell_formula_units_Z   4
loop_
 _symmetry_equiv_pos_site_id
 _symmetry_equiv_pos_as_xyz
  1  'x, y, z'
loop_
 _atom_site_type_symbol
 _atom_site_label
 _atom_site_symmetry_multiplicity
 _atom_site_fract_x
 _atom_site_fract_y
 _atom_site_fract_z
 _atom_site_occupancy
  Cr  Cr0  1  0.65173300  0.14264400  0.63288400  1
  Cr  Cr1  1  0.34826700  0.85735600  0.36711600  1
  Cr  Cr2  1  0.84826700  0.14264400  0.13288400  1
  Cr  Cr3  1  0.15173300  0.85735600  0.86711600  1
  P  P0  1  0.04470300  0.04830200  0.68642100  1
  P  P1  1  0.45529700  0.04830200  0.18642100  1
  P  P2  1  0.54470300  0.95169800  0.81357900  1
  P  P3  1  0.95529700  0.95169800  0.31357900  1
  P  P4  1  0.69918200  0.76539200  0.47939500  1
  P  P5  1  0.80081800  0.76539200  0.97939500  1
  P  P6  1  0.30081800  0.23460800  0.52060500  1
  P  P7  1  0.19918200  0.23460800  0.02060500  1
  O  O0  1  0.82887300  0.02781400  0.00960400  1
  O  O1  1  0.87190900  0.80020200  0.41883200  1
  O  O2  1  0.37190900  0.19979800  0.08116800  1
  O  O3  1  0.36936100  0.99202000  0.84043400  1
  O  O4  1  0.12809100  0.19979800  0.58116800  1
  O  O5  1  0.63184600  0.22697200  0.76238700  1
  O  O6  1  0.22982200  0.48555800  0.93252300  1
  O  O7  1  0.13063900  0.99202000  0.34043400  1
  O  O8  1  0.17112700  0.97218600  0.99039600  1
  O  O9  1  0.56787800  0.73066500  0.40423400  1
  O  O10  1  0.93549400  0.80558100  0.22976100  1
  O  O11  1  0.86815400  0.22697200  0.26238700  1
  O  O12  1  0.36815400  0.77302800  0.23761300  1
  O  O13  1  0.43549400  0.19441900  0.27023900  1
  O  O14  1  0.27017800  0.48555800  0.43252300  1
  O  O15  1  0.62809100  0.80020200  0.91883200  1
  O  O16  1  0.77017800  0.51444200  0.06747700  1
  O  O17  1  0.93212200  0.73066500  0.90423400  1
  O  O18  1  0.06787800  0.26933500  0.09576600  1
  O  O19  1  0.67112700  0.02781400  0.50960400  1
  O  O20  1  0.56450600  0.80558100  0.72976100  1
  O  O21  1  0.72982200  0.51444200  0.56747700  1
  O  O22  1  0.06450600  0.19441900  0.77023900  1
  O  O23  1  0.63063900  0.00798000  0.15956600  1
  O  O24  1  0.32887300  0.97218600  0.49039600  1
  O  O25  1  0.43212200  0.26933500  0.59576600  1
  O  O26  1  0.13184600  0.77302800  0.73761300  1
  O  O27  1  0.86936100  0.00798000  0.65956600  1
loop_
_geom_bond_atom_site_label_1
_geom_bond_atom_site_label_2
_geom_bond_distance
_geom_bond_site_symmetry_2
Cr0 O27 1.912021 1_555
Cr0 O25 1.933987 1_555
Cr0 O19 1.943626 1_555
Cr0 O5 1.945782 1_555
Cr0 O21 1.966142 1_555
Cr0 O20 1.987018 1_545
Cr1 O7 1.912021 1_555
Cr1 O9 1.933987 1_555
Cr1 O24 1.943626 1_555
Cr1 O12 1.945782 1_555
Cr1 O14 1.966142 1_555
Cr1 O13 1.987018 1_565
Cr2 O23 1.912021 1_555
Cr2 O18 1.933987 1_655
Cr2 O0 1.943626 1_555
Cr2 O11 1.945782 1_555
Cr2 O16 1.966142 1_555
Cr2 O10 1.987018 1_545
Cr3 O3 1.912021 1_555
Cr3 O17 1.933987 1_455
Cr3 O8 1.943626 1_555
Cr3 O26 1.945782 1_555
Cr3 O6 1.966142 1_555
Cr3 O22 1.987018 1_565
O0 P5 1.530153 1_544
O1 P3 1.584485 1_555
O1 P4 1.626181 1_555
O2 P1 1.584485 1_555
O2 P7 1.626181 1_555
O3 P2 1.513791 1_555
O4 P0 1.584485 1_555
O4 P6 1.626181 1_555
O5 P2 1.557822 1_545
O6 P7 1.512407 1_556
O7 P3 1.513791 1_455
O8 P7 1.530153 1_566
O9 P4 1.534324 1_555
O10 P3 1.544889 1_555
O11 P3 1.557822 1_545
O12 P1 1.557822 1_565
O13 P1 1.544889 1_555
O14 P6 1.512407 1_555
O15 P2 1.584485 1_555
O15 P5 1.626181 1_555
O16 P5 1.512407 1_554
O17 P5 1.534324 1_555
O18 P7 1.534324 1_555
O19 P4 1.530153 1_545
O20 P2 1.544889 1_555
O21 P4 1.512407 1_555
O22 P0 1.544889 1_555
O23 P1 1.513791 1_555
O24 P6 1.530153 1_565
O25 P6 1.534324 1_555
O26 P0 1.557822 1_565
O27 P0 1.513791 1_655
