# generated using pymatgen
data_V2SnO7
_symmetry_space_group_name_H-M   'P 1'
_cell_length_a   8.79270642
_cell_length_b   8.79270642
_cell_length_c   8.79270642
_cell_angle_alpha   90.00000000
_cell_angle_beta   90.00000000
_cell_angle_gamma   90.00000000
_symmetry_Int_Tables_number   1
_chemical_formula_structural   V2SnO7
_chemical_formula_sum   'V8 Sn4 O28'
_cell_volume   679.77895949
_cell_formula_units_Z   4
loop_
 _symmetry_equiv_pos_site_id
 _symmetry_equiv_pos_as_xyz
  1  'x, y, z'
loop_
 _atom_site_type_symbol
 _atom_site_label
 _atom_site_symmetry_multiplicity
 _atom_site_fract_x
 _atom_site_fract_y
 _atom_site_fract_z
 _atom_site_occupancy
  V  V0  1  0.11614437  0.88385563  0.38385563  1
  V  V1  1  0.11614437  0.61614437  0.88385563  1
  V  V2  1  0.38385563  0.38385563  0.38385563  1
  V  V3  1  0.38385563  0.11614437  0.88385563  1
  V  V4  1  0.61614437  0.61614437  0.61614437  1
  V  V5  1  0.61614437  0.88385563  0.11614437  1
  V  V6  1  0.88385563  0.11614437  0.61614437  1
  V  V7  1  0.88385563  0.38385563  0.11614437  1
  Sn  Sn0  1  0.00000000  0.00000000  -0.00000000  1
  Sn  Sn1  1  0.00000000  0.50000000  0.50000000  1
  Sn  Sn2  1  0.50000000  0.00000000  0.50000000  1
  Sn  Sn3  1  0.50000000  0.50000000  -0.00000000  1
  O  O0  1  0.00000000  0.00000000  0.50000000  1
  O  O1  1  0.00000000  0.50000000  -0.00000000  1
  O  O2  1  0.06129047  0.70053939  0.40295299  1
  O  O3  1  0.06129047  0.79946061  0.90295299  1
  O  O4  1  0.09704701  0.56129047  0.70053939  1
  O  O5  1  0.09704701  0.93870953  0.20053939  1
  O  O6  1  0.20053939  0.09704701  0.93870953  1
  O  O7  1  0.20053939  0.40295299  0.43870953  1
  O  O8  1  0.29946061  0.59704701  0.93870953  1
  O  O9  1  0.29946061  0.90295299  0.43870953  1
  O  O10  1  0.40295299  0.06129047  0.70053939  1
  O  O11  1  0.40295299  0.43870953  0.20053939  1
  O  O12  1  0.43870953  0.29946061  0.90295299  1
  O  O13  1  0.43870953  0.20053939  0.40295299  1
  O  O14  1  0.50000000  0.50000000  0.50000000  1
  O  O15  1  0.50000000  0.00000000  -0.00000000  1
  O  O16  1  0.56129047  0.70053939  0.09704701  1
  O  O17  1  0.56129047  0.79946061  0.59704701  1
  O  O18  1  0.59704701  0.56129047  0.79946061  1
  O  O19  1  0.59704701  0.93870953  0.29946061  1
  O  O20  1  0.70053939  0.09704701  0.56129047  1
  O  O21  1  0.70053939  0.40295299  0.06129047  1
  O  O22  1  0.79946061  0.59704701  0.56129047  1
  O  O23  1  0.79946061  0.90295299  0.06129047  1
  O  O24  1  0.90295299  0.06129047  0.79946061  1
  O  O25  1  0.90295299  0.43870953  0.29946061  1
  O  O26  1  0.93870953  0.20053939  0.09704701  1
  O  O27  1  0.93870953  0.29946061  0.59704701  1
loop_
_geom_bond_atom_site_label_1
_geom_bond_atom_site_label_2
_geom_bond_distance
_geom_bond_site_symmetry_2
O0 V0 1.768811 1_545
O0 V6 1.768811 1_455
O1 V7 1.768811 1_455
O1 V1 1.768811 1_554
O2 V0 1.690819 1_555
O2 Sn1 2.031680 1_555
O3 V1 1.690819 1_555
O3 Sn0 2.031680 1_566
O4 V1 1.690819 1_555
O4 Sn1 2.031680 1_555
O5 V0 1.690819 1_555
O5 Sn0 2.031680 1_565
O6 V3 1.690819 1_555
O6 Sn0 2.031680 1_556
O7 V2 1.690819 1_555
O7 Sn1 2.031680 1_555
O8 V1 1.690819 1_555
O8 Sn3 2.031680 1_556
O9 V0 1.690819 1_555
O9 Sn2 2.031680 1_565
O10 V3 1.690819 1_555
O10 Sn2 2.031680 1_555
O11 V2 1.690819 1_555
O11 Sn3 2.031680 1_555
O12 V3 1.690819 1_555
O12 Sn3 2.031680 1_556
O13 V2 1.690819 1_555
O13 Sn2 2.031680 1_555
O14 V4 1.768811 1_555
O14 V2 1.768811 1_555
O15 V3 1.768811 1_554
O15 V5 1.768811 1_545
O16 V5 1.690819 1_555
O16 Sn3 2.031680 1_555
O17 V4 1.690819 1_555
O17 Sn2 2.031680 1_565
O18 V4 1.690819 1_555
O18 Sn3 2.031680 1_556
O19 V5 1.690819 1_555
O19 Sn2 2.031680 1_565
O20 V6 1.690819 1_555
O20 Sn2 2.031680 1_555
O21 V7 1.690819 1_555
O21 Sn3 2.031680 1_555
O22 V4 1.690819 1_555
O22 Sn1 2.031680 1_655
O23 V5 1.690819 1_555
O23 Sn0 2.031680 1_665
O24 V6 1.690819 1_555
O24 Sn0 2.031680 1_656
O25 V7 1.690819 1_555
O25 Sn1 2.031680 1_655
O26 V7 1.690819 1_555
O26 Sn0 2.031680 1_655
O27 V6 1.690819 1_555
O27 Sn1 2.031680 1_655
