# generated using pymatgen
data_Mg2BO3F
_symmetry_space_group_name_H-M   'P 1'
_cell_length_a   3.13881100
_cell_length_b   9.44119300
_cell_length_c   9.50429500
_cell_angle_alpha   90.00000000
_cell_angle_beta   90.00000000
_cell_angle_gamma   90.00000000
_symmetry_Int_Tables_number   1
_chemical_formula_structural   Mg2BO3F
_chemical_formula_sum   'Mg8 B4 O12 F4'
_cell_volume   281.65142274
_cell_formula_units_Z   4
loop_
 _symmetry_equiv_pos_site_id
 _symmetry_equiv_pos_as_xyz
  1  'x, y, z'
loop_
 _atom_site_type_symbol
 _atom_site_label
 _atom_site_symmetry_multiplicity
 _atom_site_fract_x
 _atom_site_fract_y
 _atom_site_fract_z
 _atom_site_occupancy
  Mg  Mg0  1  0.25000000  0.60052300  0.81914700  1
  Mg  Mg1  1  0.75000000  0.89947700  0.31914700  1
  Mg  Mg2  1  0.25000000  0.10052300  0.68085300  1
  Mg  Mg3  1  0.75000000  0.39947700  0.18085300  1
  Mg  Mg4  1  0.75000000  0.36437700  0.56961500  1
  Mg  Mg5  1  0.25000000  0.63562300  0.43038500  1
  Mg  Mg6  1  0.75000000  0.86437700  0.93038500  1
  Mg  Mg7  1  0.25000000  0.13562300  0.06961500  1
  B  B0  1  0.75000000  0.82661900  0.63066600  1
  B  B1  1  0.75000000  0.32661900  0.86933400  1
  B  B2  1  0.25000000  0.67338100  0.13066600  1
  B  B3  1  0.25000000  0.17338100  0.36933400  1
  O  O0  1  0.25000000  0.25744700  0.24816600  1
  O  O1  1  0.25000000  0.75744700  0.25183400  1
  O  O2  1  0.75000000  0.74255300  0.75183400  1
  O  O3  1  0.75000000  0.47049200  0.85619200  1
  O  O4  1  0.25000000  0.02950800  0.35619200  1
  O  O5  1  0.75000000  0.24255300  0.74816600  1
  O  O6  1  0.75000000  0.97049200  0.64380800  1
  O  O7  1  0.25000000  0.52950800  0.14380800  1
  O  O8  1  0.25000000  0.23794900  0.50210800  1
  O  O9  1  0.75000000  0.76205100  0.49789200  1
  O  O10  1  0.25000000  0.73794900  0.99789200  1
  O  O11  1  0.75000000  0.26205100  0.00210800  1
  F  F0  1  0.25000000  0.50718300  0.60965000  1
  F  F1  1  0.25000000  0.00718300  0.89035000  1
  F  F2  1  0.75000000  0.99281700  0.10965000  1
  F  F3  1  0.75000000  0.49281700  0.39035000  1
loop_
_geom_bond_atom_site_label_1
_geom_bond_atom_site_label_2
_geom_bond_distance
_geom_bond_site_symmetry_2
Mg0 O3 2.023393 1_455
Mg0 O3 2.023393 1_555
Mg0 O10 2.137637 1_555
Mg0 O2 2.161118 1_555
Mg0 O2 2.161118 1_455
Mg1 O4 2.023393 1_665
Mg1 O4 2.023393 1_565
Mg1 O9 2.137637 1_555
Mg1 O1 2.161118 1_555
Mg1 O1 2.161118 1_655
Mg2 O6 2.023393 1_445
Mg2 O6 2.023393 1_545
Mg2 O8 2.137637 1_555
Mg2 O5 2.161118 1_455
Mg2 O5 2.161118 1_555
Mg3 O7 2.023393 1_555
Mg3 O7 2.023393 1_655
Mg3 O11 2.137637 1_555
Mg3 O0 2.161118 1_655
Mg3 O0 2.161118 1_555
Mg4 O5 2.050047 1_555
Mg4 O8 2.073511 1_655
Mg4 O8 2.073511 1_555
Mg5 O1 2.050047 1_555
Mg5 O9 2.073511 1_455
Mg5 O9 2.073511 1_555
Mg6 O2 2.050047 1_555
Mg6 O10 2.073511 1_655
Mg6 O10 2.073511 1_555
Mg7 O0 2.050047 1_555
Mg7 O11 2.073511 1_555
Mg7 O11 2.073511 1_455
B0 O6 1.364064 1_555
B0 O2 1.398626 1_555
B0 O9 1.401450 1_555
B1 O3 1.364064 1_555
B1 O5 1.398626 1_555
B1 O11 1.401450 1_556
B2 O7 1.364064 1_555
B2 O1 1.398626 1_555
B2 O10 1.401450 1_554
B3 O4 1.364064 1_555
B3 O0 1.398626 1_555
B3 O8 1.401450 1_555
F0 Mg5 2.091257 1_555
F0 Mg4 2.103716 1_555
F0 Mg4 2.103716 1_455
F0 Mg0 2.177418 1_555
F1 Mg7 2.091257 1_556
F1 Mg6 2.103716 1_445
F1 Mg6 2.103716 1_545
F1 Mg2 2.177418 1_555
F2 Mg6 2.091257 1_554
F2 Mg7 2.103716 1_665
F2 Mg7 2.103716 1_565
F2 Mg1 2.177418 1_555
F3 Mg4 2.091257 1_555
F3 Mg5 2.103716 1_555
F3 Mg5 2.103716 1_655
F3 Mg3 2.177418 1_555
