# generated using pymatgen
data_MnFe(PO4)2
_symmetry_space_group_name_H-M   'P 1'
_cell_length_a   4.91802500
_cell_length_b   6.00458500
_cell_length_c   9.89359000
_cell_angle_alpha   90.00000000
_cell_angle_beta   90.00000000
_cell_angle_gamma   90.00000000
_symmetry_Int_Tables_number   1
_chemical_formula_structural   MnFe(PO4)2
_chemical_formula_sum   'Mn2 Fe2 P4 O16'
_cell_volume   292.16462975
_cell_formula_units_Z   2
loop_
 _symmetry_equiv_pos_site_id
 _symmetry_equiv_pos_as_xyz
  1  'x, y, z'
loop_
 _atom_site_type_symbol
 _atom_site_label
 _atom_site_symmetry_multiplicity
 _atom_site_fract_x
 _atom_site_fract_y
 _atom_site_fract_z
 _atom_site_occupancy
  Mn  Mn0  1  0.56459900  0.00000000  0.53492100  1
  Mn  Mn1  1  0.06459900  0.50000000  0.46507900  1
  Fe  Fe0  1  0.96890600  0.00000000  0.02355800  1
  Fe  Fe1  1  0.46890600  0.50000000  0.97644200  1
  P  P0  1  0.57871100  0.50000000  0.64918000  1
  P  P1  1  0.07871100  0.00000000  0.35082000  1
  P  P2  1  0.91921100  0.50000000  0.15261900  1
  P  P3  1  0.41921100  0.00000000  0.84738100  1
  O  O0  1  0.34791400  0.00000000  0.69649200  1
  O  O1  1  0.26825100  0.50000000  0.62936500  1
  O  O2  1  0.72081500  0.70024700  0.57761700  1
  O  O3  1  0.72081500  0.29975300  0.57761700  1
  O  O4  1  0.22081500  0.20024700  0.42238300  1
  O  O5  1  0.22081500  0.79975300  0.42238300  1
  O  O6  1  0.76825100  0.00000000  0.37063500  1
  O  O7  1  0.84791400  0.50000000  0.30350800  1
  O  O8  1  0.13759800  0.00000000  0.19870000  1
  O  O9  1  0.22613500  0.50000000  0.13130100  1
  O  O10  1  0.77371800  0.69979900  0.07801300  1
  O  O11  1  0.77371800  0.30020100  0.07801300  1
  O  O12  1  0.27371800  0.19979900  0.92198700  1
  O  O13  1  0.27371800  0.80020100  0.92198700  1
  O  O14  1  0.72613500  0.00000000  0.86869900  1
  O  O15  1  0.63759800  0.50000000  0.80130000  1
loop_
_geom_bond_atom_site_label_1
_geom_bond_atom_site_label_2
_geom_bond_distance
_geom_bond_site_symmetry_2
Mn0 O6 1.909185 1_555
Mn0 O0 1.921170 1_555
Mn0 O3 2.002072 1_555
Mn0 O2 2.002072 1_545
Mn0 O4 2.354577 1_555
Mn0 O5 2.354577 1_545
Mn1 O1 1.909185 1_555
Mn1 O7 1.921170 1_455
Mn1 O5 2.002072 1_555
Mn1 O4 2.002072 1_555
Mn1 O2 2.354577 1_455
Mn1 O3 2.354577 1_455
Fe0 O8 1.921152 1_655
Fe0 O14 1.942393 1_554
Fe0 O11 2.112119 1_555
Fe0 O10 2.112119 1_545
Fe0 O12 2.167107 1_654
Fe0 O13 2.167107 1_644
Fe1 O15 1.921152 1_555
Fe1 O9 1.942393 1_556
Fe1 O13 2.112119 1_555
Fe1 O12 2.112119 1_555
Fe1 O11 2.167107 1_556
Fe1 O10 2.167107 1_556
O0 P3 1.533461 1_555
O1 P0 1.539384 1_555
O2 P0 1.560600 1_555
O3 P0 1.560600 1_555
O4 P1 1.560600 1_555
O5 P1 1.560600 1_565
O6 P1 1.539384 1_655
O7 P2 1.533461 1_555
O8 P1 1.532624 1_555
O9 P2 1.524124 1_455
O10 P2 1.579912 1_555
O11 P2 1.579912 1_555
O12 P3 1.579912 1_555
O13 P3 1.579912 1_565
O14 P3 1.524124 1_555
O15 P0 1.532624 1_555
