# generated using pymatgen
data_Ti3NbV2(PO4)6
_symmetry_space_group_name_H-M   'P 1'
_cell_length_a   8.62004680
_cell_length_b   8.62004680
_cell_length_c   8.62004613
_cell_angle_alpha   61.13561407
_cell_angle_beta   61.13561407
_cell_angle_gamma   61.13561040
_symmetry_Int_Tables_number   1
_chemical_formula_structural   Ti3NbV2(PO4)6
_chemical_formula_sum   'Ti3 Nb1 V2 P6 O24'
_cell_volume   464.48661204
_cell_formula_units_Z   1
loop_
 _symmetry_equiv_pos_site_id
 _symmetry_equiv_pos_as_xyz
  1  'x, y, z'
loop_
 _atom_site_type_symbol
 _atom_site_label
 _atom_site_symmetry_multiplicity
 _atom_site_fract_x
 _atom_site_fract_y
 _atom_site_fract_z
 _atom_site_occupancy
  Ti  Ti0  1  0.35591800  0.35591800  0.35591800  1
  Ti  Ti1  1  0.14358500  0.14358500  0.14358500  1
  Ti  Ti2  1  0.64504900  0.64504900  0.64504900  1
  Nb  Nb0  1  0.85800000  0.85800000  0.85800000  1
  V  V0  1  0.99919200  0.99919200  0.99919200  1
  V  V1  1  0.50002300  0.50002300  0.50002300  1
  P  P0  1  0.74994100  0.04597500  0.45162700  1
  P  P1  1  0.04597500  0.45162700  0.74994100  1
  P  P2  1  0.45162700  0.74994100  0.04597500  1
  P  P3  1  0.53637000  0.25746900  0.95603200  1
  P  P4  1  0.95603200  0.53637000  0.25746900  1
  P  P5  1  0.25746900  0.95603200  0.53637000  1
  O  O0  1  0.88662000  0.50083100  0.68416200  1
  O  O1  1  0.50083100  0.68416200  0.88662000  1
  O  O2  1  0.68416200  0.88662000  0.50083100  1
  O  O3  1  0.90878600  0.05895800  0.25855300  1
  O  O4  1  0.82025900  0.00808100  0.60509500  1
  O  O5  1  0.59111500  0.23960800  0.43824500  1
  O  O6  1  0.05895800  0.25855300  0.90878600  1
  O  O7  1  0.23960800  0.43824500  0.59111500  1
  O  O8  1  0.38329700  0.18670700  0.99776400  1
  O  O9  1  0.43824500  0.59111500  0.23960800  1
  O  O10  1  0.73238300  0.09836500  0.94171800  1
  O  O11  1  0.99776400  0.38329700  0.18670700  1
  O  O12  1  0.00808100  0.60509500  0.82025900  1
  O  O13  1  0.25855300  0.90878600  0.05895800  1
  O  O14  1  0.55381900  0.41470500  0.76193000  1
  O  O15  1  0.60509500  0.82025900  0.00808100  1
  O  O16  1  0.76193000  0.55381900  0.41470500  1
  O  O17  1  0.94171800  0.73238300  0.09836500  1
  O  O18  1  0.41470500  0.76193000  0.55381900  1
  O  O19  1  0.18670700  0.99776400  0.38329700  1
  O  O20  1  0.09836500  0.94171800  0.73238300  1
  O  O21  1  0.32469500  0.11177300  0.49333700  1
  O  O22  1  0.49333700  0.32469500  0.11177300  1
  O  O23  1  0.11177300  0.49333700  0.32469500  1
loop_
_geom_bond_atom_site_label_1
_geom_bond_atom_site_label_2
_geom_bond_distance
_geom_bond_site_symmetry_2
Nb0 O4 2.021773 1_565
Nb0 O12 2.021773 1_655
Nb0 O15 2.021773 1_556
Nb0 O17 2.123525 1_556
Nb0 O10 2.123525 1_565
Nb0 O20 2.123525 1_655
O0 P1 1.531537 1_655
O0 Ti2 1.941433 1_555
O1 P2 1.531537 1_556
O1 Ti2 1.941433 1_555
O2 P0 1.531538 1_565
O2 Ti2 1.941433 1_555
O3 P0 1.557315 1_555
O3 Ti1 2.098027 1_655
O3 V0 2.216613 1_544
O4 P0 1.545962 1_555
O5 P0 1.560124 1_555
O5 Ti0 2.087791 1_555
O5 V1 2.233354 1_555
O6 P1 1.557315 1_555
O6 Ti1 2.098027 1_556
O6 V0 2.216613 1_445
O7 P1 1.560124 1_555
O7 Ti0 2.087791 1_555
O7 V1 2.233354 1_555
O8 P3 1.532803 1_555
O8 Ti1 1.941824 1_556
O9 P2 1.560124 1_555
O9 Ti0 2.087792 1_555
O9 V1 2.233354 1_555
O10 P3 1.573488 1_555
O10 V0 2.249170 1_545
O11 P4 1.532803 1_555
O11 Ti1 1.941824 1_655
O12 P1 1.545962 1_555
O13 P2 1.557315 1_555
O13 Ti1 2.098027 1_565
O13 V0 2.216613 1_454
O14 P3 1.556771 1_555
O14 Ti2 2.094564 1_555
O14 V1 2.220667 1_555
O15 P2 1.545962 1_555
O16 P4 1.556771 1_555
O16 Ti2 2.094564 1_555
O16 V1 2.220667 1_555
O17 P4 1.573488 1_555
O17 V0 2.249170 1_554
O18 P5 1.556771 1_555
O18 Ti2 2.094564 1_555
O18 V1 2.220667 1_555
O19 P5 1.532802 1_555
O19 Ti1 1.941824 1_565
O20 P5 1.573488 1_555
O20 V0 2.249170 1_455
O21 P5 1.529205 1_545
O21 Ti0 1.933102 1_555
O22 P3 1.529205 1_554
O22 Ti0 1.933102 1_555
O23 P4 1.529205 1_455
O23 Ti0 1.933102 1_555
