# generated using pymatgen
data_Ba3(YI6)2
_symmetry_space_group_name_H-M   'P 1'
_cell_length_a   14.33525100
_cell_length_b   14.27478200
_cell_length_c   22.84820395
_cell_angle_alpha   53.51604638
_cell_angle_beta   90.00000000
_cell_angle_gamma   90.00000000
_symmetry_Int_Tables_number   1
_chemical_formula_structural   Ba3(YI6)2
_chemical_formula_sum   'Ba12 Y8 I48'
_cell_volume   3759.20102321
_cell_formula_units_Z   4
loop_
 _symmetry_equiv_pos_site_id
 _symmetry_equiv_pos_as_xyz
  1  'x, y, z'
loop_
 _atom_site_type_symbol
 _atom_site_label
 _atom_site_symmetry_multiplicity
 _atom_site_fract_x
 _atom_site_fract_y
 _atom_site_fract_z
 _atom_site_occupancy
  Ba  Ba0  1  0.20851000  0.44799500  0.52696100  1
  Ba  Ba1  1  0.12045500  0.72046500  0.16036100  1
  Ba  Ba2  1  0.33970700  0.98137400  0.90566600  1
  Ba  Ba3  1  0.62045500  0.27953500  0.33963900  1
  Ba  Ba4  1  0.83970700  0.01862600  0.59433400  1
  Ba  Ba5  1  0.70851000  0.55200500  0.97303900  1
  Ba  Ba6  1  0.29149000  0.44799500  0.02696100  1
  Ba  Ba7  1  0.16029300  0.98137400  0.40566600  1
  Ba  Ba8  1  0.37954500  0.72046500  0.66036100  1
  Ba  Ba9  1  0.66029300  0.01862600  0.09433400  1
  Ba  Ba10  1  0.87954500  0.27953500  0.83963900  1
  Ba  Ba11  1  0.79149000  0.55200500  0.47303900  1
  Y  Y0  1  0.47176000  0.62651100  0.12734600  1
  Y  Y1  1  0.97176000  0.37348900  0.37265400  1
  Y  Y2  1  0.52503400  0.12092700  0.63794900  1
  Y  Y3  1  0.02503400  0.87907300  0.86205100  1
  Y  Y4  1  0.97496600  0.12092700  0.13794900  1
  Y  Y5  1  0.47496600  0.87907300  0.36205100  1
  Y  Y6  1  0.02824000  0.62651100  0.62734600  1
  Y  Y7  1  0.52824000  0.37348900  0.87265400  1
  I  I0  1  0.62654400  0.80419300  0.06843100  1
  I  I1  1  0.61561900  0.36018100  0.54339900  1
  I  I2  1  0.80100300  0.53282700  0.32964800  1
  I  I3  1  0.91811700  0.10540400  0.78777800  1
  I  I4  1  0.11499200  0.54597100  0.35691200  1
  I  I5  1  0.34589300  0.82007500  0.10217300  1
  I  I6  1  0.10256800  0.92478400  0.97280400  1
  I  I7  1  0.48137500  0.14914600  0.75480800  1
  I  I8  1  0.19669300  0.01661100  0.77598400  1
  I  I9  1  0.34625600  0.23600100  0.54924900  1
  I  I10  1  0.99337000  0.48042300  0.21437700  1
  I  I11  1  0.44086900  0.70276600  0.96867800  1
  I  I12  1  0.49337000  0.51957700  0.28562300  1
  I  I13  1  0.94086900  0.29723400  0.53132200  1
  I  I14  1  0.84625600  0.76399900  0.95075100  1
  I  I15  1  0.69669300  0.98338900  0.72401600  1
  I  I16  1  0.60256800  0.07521600  0.52719600  1
  I  I17  1  0.84589300  0.17992500  0.39782700  1
  I  I18  1  0.98137500  0.85085400  0.74519200  1
  I  I19  1  0.61499200  0.45402900  0.14308800  1
  I  I20  1  0.30100300  0.46717300  0.17035200  1
  I  I21  1  0.12654400  0.19580700  0.43156900  1
  I  I22  1  0.41811700  0.89459600  0.71222200  1
  I  I23  1  0.11561900  0.63981900  0.95660100  1
  I  I24  1  0.88438100  0.36018100  0.04339900  1
  I  I25  1  0.58188300  0.10540400  0.28777800  1
  I  I26  1  0.87345600  0.80419300  0.56843100  1
  I  I27  1  0.69899700  0.53282700  0.82964800  1
  I  I28  1  0.38500800  0.54597100  0.85691200  1
  I  I29  1  0.01862500  0.14914600  0.25480800  1
  I  I30  1  0.15410700  0.82007500  0.60217300  1
  I  I31  1  0.39743200  0.92478400  0.47280400  1
  I  I32  1  0.30330700  0.01661100  0.27598400  1
  I  I33  1  0.15374400  0.23600100  0.04924900  1
  I  I34  1  0.05913100  0.70276600  0.46867800  1
  I  I35  1  0.50663000  0.48042300  0.71437700  1
  I  I36  1  0.55913100  0.29723400  0.03132200  1
  I  I37  1  0.00663000  0.51957700  0.78562300  1
  I  I38  1  0.65374400  0.76399900  0.45075100  1
  I  I39  1  0.80330700  0.98338900  0.22401600  1
  I  I40  1  0.51862500  0.85085400  0.24519200  1
  I  I41  1  0.89743200  0.07521600  0.02719600  1
  I  I42  1  0.65410700  0.17992500  0.89782700  1
  I  I43  1  0.88500800  0.45402900  0.64308800  1
  I  I44  1  0.08188300  0.89459600  0.21222200  1
  I  I45  1  0.19899700  0.46717300  0.67035200  1
  I  I46  1  0.38438100  0.63981900  0.45660100  1
  I  I47  1  0.37345600  0.19580700  0.93156900  1
loop_
_geom_bond_atom_site_label_1
_geom_bond_atom_site_label_2
_geom_bond_distance
_geom_bond_site_symmetry_2
Ba0 I46 3.347200 1_555
Ba0 I9 3.388739 1_555
Ba0 I45 3.448739 1_555
Ba0 I4 3.519504 1_555
Ba0 I34 3.718321 1_555
Ba1 I44 3.375060 1_555
Ba1 I10 3.399162 1_455
Ba1 I5 3.461972 1_555
Ba1 I6 3.474644 1_554
Ba1 I4 3.616039 1_555
Ba2 I8 3.385720 1_565
Ba2 I7 3.453109 1_565
Ba2 I47 3.479700 1_565
Ba2 I6 3.617774 1_555
Ba2 I5 3.629635 1_556
Ba2 I11 3.630942 1_555
Ba3 I25 3.375060 1_555
Ba3 I12 3.399162 1_555
Ba3 I17 3.461972 1_555
Ba3 I16 3.474644 1_555
Ba3 I19 3.616039 1_555
Ba4 I15 3.385720 1_545
Ba4 I18 3.453109 1_545
Ba4 I26 3.479700 1_545
Ba4 I16 3.617774 1_555
Ba4 I17 3.629635 1_555
Ba4 I13 3.630942 1_555
Ba5 I24 3.347200 1_556
Ba5 I14 3.388739 1_555
Ba5 I27 3.448739 1_555
Ba5 I19 3.519504 1_556
Ba5 I36 3.718321 1_556
Ba6 I23 3.347200 1_554
Ba6 I33 3.388739 1_555
Ba6 I20 3.448739 1_555
Ba6 I28 3.519504 1_554
Ba6 I11 3.718321 1_554
Ba7 I32 3.385720 1_565
Ba7 I29 3.453109 1_565
Ba7 I21 3.479700 1_565
Ba7 I31 3.617774 1_555
Ba7 I30 3.629635 1_555
Ba7 I34 3.630942 1_555
Ba8 I22 3.375060 1_555
Ba8 I35 3.399162 1_555
Ba8 I30 3.461972 1_555
Ba8 I31 3.474644 1_555
Ba8 I28 3.616039 1_555
Ba9 I39 3.385720 1_545
Ba9 I40 3.453109 1_545
Ba9 I0 3.479700 1_545
Ba9 I41 3.617774 1_555
Ba9 I42 3.629635 1_554
Ba9 I36 3.630942 1_555
Ba10 I3 3.375060 1_555
Ba10 I37 3.399162 1_655
Ba10 I42 3.461972 1_555
Ba10 I41 3.474644 1_556
Ba10 I43 3.616039 1_555
Ba11 I1 3.347200 1_555
Ba11 I38 3.388739 1_555
Ba11 I2 3.448739 1_555
Ba11 I43 3.519504 1_555
Ba11 I13 3.718321 1_555
I0 Y0 3.018009 1_555
I1 Y2 3.040304 1_555
I2 Y1 3.077837 1_555
I3 Y3 3.024424 1_645
I4 Y1 3.058480 1_455
I5 Y0 3.054699 1_555
I6 Y3 3.166733 1_555
I7 Y2 2.993658 1_555
I8 Y3 3.030809 1_545
I9 Y2 3.068346 1_555
I10 Y1 2.989882 1_555
I11 Y0 3.135415 1_556
I12 Y0 2.989882 1_555
I13 Y1 3.135415 1_555
I14 Y3 3.068346 1_655
I15 Y2 3.030809 1_565
I16 Y2 3.166733 1_555
I17 Y1 3.054699 1_555
I18 Y3 2.993658 1_655
I19 Y0 3.058480 1_555
I20 Y0 3.077837 1_555
I21 Y1 3.018009 1_455
I22 Y2 3.024424 1_565
I23 Y3 3.040304 1_555
I24 Y4 3.040304 1_555
I25 Y5 3.024424 1_545
I26 Y6 3.018009 1_655
I27 Y7 3.077837 1_555
I28 Y7 3.058480 1_555
I29 Y4 2.993658 1_455
I30 Y6 3.054699 1_555
I31 Y5 3.166733 1_555
I32 Y5 3.030809 1_545
I33 Y4 3.068346 1_455
I34 Y6 3.135415 1_555
I35 Y7 2.989882 1_555
I36 Y7 3.135415 1_554
I37 Y6 2.989882 1_555
I38 Y5 3.068346 1_555
I39 Y4 3.030809 1_565
I40 Y5 2.993658 1_555
I41 Y4 3.166733 1_555
I42 Y7 3.054699 1_555
I43 Y6 3.058480 1_655
I44 Y4 3.024424 1_465
I45 Y6 3.077837 1_555
I46 Y5 3.040304 1_555
I47 Y7 3.018009 1_555
