# generated using pymatgen
data_LiMn3(BO3)3
_symmetry_space_group_name_H-M   'P 1'
_cell_length_a   5.92584600
_cell_length_b   7.98366033
_cell_length_c   9.10609091
_cell_angle_alpha   109.31553052
_cell_angle_beta   107.47079347
_cell_angle_gamma   99.32478448
_symmetry_Int_Tables_number   1
_chemical_formula_structural   LiMn3(BO3)3
_chemical_formula_sum   'Li2 Mn6 B6 O18'
_cell_volume   371.10226996
_cell_formula_units_Z   2
loop_
 _symmetry_equiv_pos_site_id
 _symmetry_equiv_pos_as_xyz
  1  'x, y, z'
loop_
 _atom_site_type_symbol
 _atom_site_label
 _atom_site_symmetry_multiplicity
 _atom_site_fract_x
 _atom_site_fract_y
 _atom_site_fract_z
 _atom_site_occupancy
  Li  Li0  1  0.56564800  0.88569000  0.05664100  1
  Li  Li1  1  0.23067600  0.55457200  0.38903700  1
  Mn  Mn0  1  0.35570700  0.11743000  0.26586500  1
  Mn  Mn1  1  0.94425100  0.21228300  0.41918600  1
  Mn  Mn2  1  0.28156000  0.53861200  0.06057800  1
  Mn  Mn3  1  0.69355900  0.44078100  0.92619400  1
  Mn  Mn4  1  0.04737100  0.79599300  0.60042100  1
  Mn  Mn5  1  0.64872700  0.90429400  0.74316800  1
  B  B0  1  0.05376200  0.79316300  0.93264900  1
  B  B1  1  0.29672000  0.54066900  0.72505500  1
  B  B2  1  0.60776600  0.85717000  0.38668200  1
  B  B3  1  0.38755600  0.14036800  0.60982400  1
  B  B4  1  0.72236300  0.45982700  0.27246200  1
  B  B5  1  0.93317100  0.20550000  0.07319300  1
  O  O0  1  0.25309900  0.94251500  0.02137600  1
  O  O1  1  0.88775700  0.76593600  0.77440900  1
  O  O2  1  0.33710600  0.66432700  0.65339400  1
  O  O3  1  0.65614100  0.97315800  0.30725000  1
  O  O4  1  0.10459800  0.38444400  0.64868500  1
  O  O5  1  0.41539100  0.69701900  0.30512100  1
  O  O6  1  0.45157800  0.59087800  0.89802100  1
  O  O7  1  0.75128300  0.91312700  0.55602000  1
  O  O8  1  0.95540900  0.32626100  0.99304500  1
  O  O9  1  0.01511700  0.64822700  0.98472200  1
  O  O10  1  0.21119900  0.09157400  0.44862400  1
  O  O11  1  0.55719500  0.42221600  0.10645900  1
  O  O12  1  0.56626800  0.30511700  0.68777000  1
  O  O13  1  0.91586800  0.61326900  0.35571800  1
  O  O14  1  0.37527600  0.00875900  0.67813100  1
  O  O15  1  0.68180400  0.32268800  0.33338000  1
  O  O16  1  0.09001300  0.26864800  0.24056300  1
  O  O17  1  0.76225600  0.03464400  0.98972500  1
loop_
_geom_bond_atom_site_label_1
_geom_bond_atom_site_label_2
_geom_bond_distance
_geom_bond_site_symmetry_2
Li0 O17 1.897243 1_564
Li0 O0 1.936706 1_555
Li0 O3 2.018085 1_555
Li0 O6 2.175361 1_554
Li1 O5 1.936261 1_555
Li1 O13 1.956851 1_455
Li1 O16 2.097279 1_555
Li1 O2 2.115267 1_555
Mn0 O0 2.032658 1_545
Mn0 O15 2.095591 1_555
Mn0 O10 2.138042 1_555
Mn0 O16 2.138153 1_555
Mn0 O3 2.277519 1_545
Mn1 O4 1.908846 1_655
Mn1 O10 1.978197 1_655
Mn1 O15 1.994082 1_555
Mn1 O3 2.051827 1_545
Mn1 O16 2.190005 1_655
Mn2 O9 1.982102 1_554
Mn2 O5 1.984609 1_555
Mn2 O11 2.011206 1_555
Mn2 O8 2.126636 1_454
Mn2 O6 2.132649 1_554
Mn3 O12 1.911043 1_555
Mn3 O8 1.968500 1_555
Mn3 O6 2.024183 1_555
Mn3 O11 2.070773 1_556
Mn3 O9 2.107491 1_655
Mn4 O13 2.034501 1_455
Mn4 O14 2.114577 1_565
Mn4 O7 2.114808 1_455
Mn4 O1 2.130757 1_455
Mn4 O2 2.169910 1_555
Mn5 O1 1.944322 1_555
Mn5 O14 1.964839 1_565
Mn5 O17 1.974055 1_565
Mn5 O7 1.991493 1_555
Mn5 O2 2.158630 1_555
B0 O0 1.342786 1_556
B0 O9 1.399473 1_555
B0 O1 1.401309 1_455
B1 O4 1.351313 1_555
B1 O2 1.378817 1_555
B1 O6 1.441814 1_555
B2 O5 1.370052 1_555
B2 O7 1.390819 1_555
B2 O3 1.394427 1_555
B3 O12 1.354622 1_555
B3 O14 1.389591 1_555
B3 O10 1.402615 1_555
B4 O13 1.341173 1_555
B4 O15 1.400284 1_555
B4 O11 1.431538 1_555
B5 O17 1.366877 1_554
B5 O16 1.389297 1_655
B5 O8 1.400574 1_554
