# generated using pymatgen
data_Li4Ti3Cr3(CuO8)2
_symmetry_space_group_name_H-M   'P 1'
_cell_length_a   5.80697499
_cell_length_b   5.84004026
_cell_length_c   9.74456707
_cell_angle_alpha   90.03387299
_cell_angle_beta   89.80788268
_cell_angle_gamma   120.26969723
_symmetry_Int_Tables_number   1
_chemical_formula_structural   Li4Ti3Cr3(CuO8)2
_chemical_formula_sum   'Li4 Ti3 Cr3 Cu2 O16'
_cell_volume   285.41020498
_cell_formula_units_Z   1
loop_
 _symmetry_equiv_pos_site_id
 _symmetry_equiv_pos_as_xyz
  1  'x, y, z'
loop_
 _atom_site_type_symbol
 _atom_site_label
 _atom_site_symmetry_multiplicity
 _atom_site_fract_x
 _atom_site_fract_y
 _atom_site_fract_z
 _atom_site_occupancy
  Li  Li0  1  0.33862500  0.66748100  0.89583300  1
  Li  Li1  1  0.98863600  0.99564500  0.99678200  1
  Li  Li2  1  0.99685500  0.99807900  0.49835500  1
  Li  Li3  1  0.66745700  0.33485000  0.39584800  1
  Ti  Ti0  1  0.16906500  0.83184700  0.21472700  1
  Ti  Ti1  1  0.17097400  0.33830600  0.21613300  1
  Ti  Ti2  1  0.34227600  0.15976100  0.72424500  1
  Cr  Cr0  1  0.66056300  0.83184900  0.21412000  1
  Cr  Cr1  1  0.83156900  0.65807000  0.71140500  1
  Cr  Cr2  1  0.84412100  0.18080700  0.70694300  1
  Cu  Cu0  1  0.32920300  0.66665100  0.49518700  1
  Cu  Cu1  1  0.66800400  0.33380700  0.99280400  1
  O  O0  1  0.15532000  0.83679600  0.60523800  1
  O  O1  1  0.03123000  0.51672800  0.33015400  1
  O  O2  1  0.33094100  0.66571000  0.10231900  1
  O  O3  1  0.99602000  0.99841200  0.31619300  1
  O  O4  1  0.99484300  0.99852600  0.81336300  1
  O  O5  1  0.15524600  0.32137800  0.60501900  1
  O  O6  1  0.49018500  0.96788300  0.32849100  1
  O  O7  1  0.48896600  0.52332800  0.32944500  1
  O  O8  1  0.31453500  0.15764100  0.10516100  1
  O  O9  1  0.68564100  0.84465100  0.61263600  1
  O  O10  1  0.52439500  0.48765800  0.82872900  1
  O  O11  1  0.52318200  0.03465000  0.83003900  1
  O  O12  1  0.66799400  0.33327200  0.60354300  1
  O  O13  1  0.83246400  0.68068500  0.10649000  1
  O  O14  1  0.96884500  0.48307500  0.82198200  1
  O  O15  1  0.83284900  0.15275400  0.10665500  1
loop_
_geom_bond_atom_site_label_1
_geom_bond_atom_site_label_2
_geom_bond_distance
_geom_bond_site_symmetry_2
Li0 O10 1.957229 1_555
Li0 O11 1.959035 1_565
Li0 O14 1.991658 1_455
Li0 O2 2.012379 1_556
Li1 O4 1.787499 1_555
Li1 O15 1.906752 1_566
Li1 O13 1.913838 1_556
Li1 O8 1.949137 1_666
Li2 O3 1.775118 1_555
Li2 O9 1.914214 1_555
Li2 O0 1.923567 1_655
Li2 O5 1.935075 1_665
Li3 O1 1.931333 1_655
Li3 O7 1.964717 1_555
Li3 O6 1.965238 1_545
Li3 O12 2.023944 1_555
Cr0 O6 1.906851 1_555
Cr0 O7 1.920183 1_555
Cr0 O15 1.927397 1_565
Cr0 O13 1.938063 1_555
Cr0 O3 1.957490 1_555
Cr0 O2 1.983065 1_555
Cr1 O14 1.915550 1_555
Cr1 O10 1.917627 1_555
Cr1 O0 1.924619 1_655
Cr1 O9 1.941475 1_555
Cr1 O12 1.947536 1_555
Cr1 O4 1.985648 1_555
Cr2 O5 1.848841 1_655
Cr2 O14 1.900402 1_555
Cr2 O9 1.930705 1_545
Cr2 O12 1.944262 1_555
Cr2 O4 1.980243 1_545
Cr2 O11 2.005798 1_555
Cu0 O0 2.039589 1_555
Cu0 O5 2.042943 1_555
Cu0 O9 2.126023 1_555
Cu0 O1 2.199206 1_555
Cu0 O7 2.222834 1_555
Cu0 O6 2.223190 1_555
Cu1 O15 2.072214 1_556
Cu1 O13 2.072957 1_556
Cu1 O8 2.080299 1_556
Cu1 O11 2.190808 1_555
Cu1 O10 2.196601 1_555
Cu1 O14 2.242679 1_555
O0 Ti2 2.005608 1_565
O1 Ti0 1.950372 1_555
O1 Ti1 1.955456 1_555
O2 Ti0 1.983969 1_555
O2 Ti1 1.988432 1_555
O3 Ti1 1.971201 1_665
O3 Ti0 1.977687 1_655
O4 Ti2 1.945569 1_665
O5 Ti2 2.112679 1_555
O6 Ti0 1.963838 1_555
O7 Ti1 1.948671 1_555
O8 Ti0 1.962043 1_545
O8 Ti1 1.963903 1_555
O10 Ti2 1.945585 1_555
O11 Ti2 1.866064 1_555
O12 Ti2 2.010478 1_555
O13 Ti0 1.996370 1_655
O15 Ti1 2.008802 1_655
