# generated using pymatgen
data_Fe3(OF2)2
_symmetry_space_group_name_H-M   'P 1'
_cell_length_a   4.84016200
_cell_length_b   5.77259900
_cell_length_c   7.87639482
_cell_angle_alpha   85.07520088
_cell_angle_beta   90.00000000
_cell_angle_gamma   90.00000000
_symmetry_Int_Tables_number   1
_chemical_formula_structural   Fe3(OF2)2
_chemical_formula_sum   'Fe6 O4 F8'
_cell_volume   219.25650356
_cell_formula_units_Z   2
loop_
 _symmetry_equiv_pos_site_id
 _symmetry_equiv_pos_as_xyz
  1  'x, y, z'
loop_
 _atom_site_type_symbol
 _atom_site_label
 _atom_site_symmetry_multiplicity
 _atom_site_fract_x
 _atom_site_fract_y
 _atom_site_fract_z
 _atom_site_occupancy
  Fe  Fe0  1  0.50000000  0.50000000  0.00000000  1
  Fe  Fe1  1  0.45009100  0.83650700  0.67801000  1
  Fe  Fe2  1  0.54990900  0.16349300  0.32199000  1
  Fe  Fe3  1  0.00000000  0.00000000  0.00000000  1
  Fe  Fe4  1  0.95009100  0.66349300  0.32199000  1
  Fe  Fe5  1  0.04990900  0.33650700  0.67801000  1
  O  O0  1  0.80541000  0.95539900  0.23766500  1
  O  O1  1  0.69459000  0.45539900  0.23766500  1
  O  O2  1  0.30541000  0.54460100  0.76233500  1
  O  O3  1  0.19459000  0.04460100  0.76233500  1
  F  F0  1  0.80119400  0.30874600  0.88389600  1
  F  F1  1  0.81233700  0.62763200  0.56477800  1
  F  F2  1  0.68766300  0.12763200  0.56477800  1
  F  F3  1  0.69880600  0.80874600  0.88389600  1
  F  F4  1  0.30119400  0.19125400  0.11610400  1
  F  F5  1  0.31233700  0.87236800  0.43522200  1
  F  F6  1  0.18766300  0.37236800  0.43522200  1
  F  F7  1  0.19880600  0.69125400  0.11610400  1
loop_
_geom_bond_atom_site_label_1
_geom_bond_atom_site_label_2
_geom_bond_distance
_geom_bond_site_symmetry_2
Fe0 O1 2.091599 1_555
Fe0 O2 2.091599 1_554
Fe1 O3 1.884263 1_565
Fe1 O2 1.891766 1_555
Fe2 O0 1.884263 1_545
Fe2 O1 1.891766 1_555
Fe3 O0 2.091599 1_445
Fe3 O3 2.091599 1_554
Fe4 O1 1.884263 1_555
Fe4 O0 1.891766 1_555
Fe5 O2 1.884263 1_555
Fe5 O3 1.891766 1_555
F0 Fe5 2.014934 1_655
F0 Fe0 2.086570 1_556
F0 Fe3 2.158435 1_656
F1 Fe4 2.018988 1_555
F1 Fe5 2.164383 1_655
F1 Fe1 2.346924 1_555
F2 Fe2 2.018988 1_555
F2 Fe1 2.164383 1_545
F2 Fe5 2.346924 1_655
F3 Fe1 2.014934 1_555
F3 Fe3 2.086570 1_666
F3 Fe0 2.158435 1_556
F4 Fe2 2.014934 1_555
F4 Fe3 2.086570 1_555
F4 Fe0 2.158435 1_555
F5 Fe1 2.018988 1_555
F5 Fe2 2.164383 1_565
F5 Fe4 2.346924 1_455
F6 Fe5 2.018988 1_555
F6 Fe4 2.164383 1_455
F6 Fe2 2.346924 1_555
F7 Fe4 2.014934 1_455
F7 Fe0 2.086570 1_555
F7 Fe3 2.158435 1_565
