# generated using pymatgen
data_Li4Cr3Sn5O16
_symmetry_space_group_name_H-M   'P 1'
_cell_length_a   6.20590948
_cell_length_b   9.93853878
_cell_length_c   10.67663737
_cell_angle_alpha   89.71226887
_cell_angle_beta   89.99996553
_cell_angle_gamma   90.00005145
_symmetry_Int_Tables_number   1
_chemical_formula_structural   Li4Cr3Sn5O16
_chemical_formula_sum   'Li8 Cr6 Sn10 O32'
_cell_volume   658.50183450
_cell_formula_units_Z   2
loop_
 _symmetry_equiv_pos_site_id
 _symmetry_equiv_pos_as_xyz
  1  'x, y, z'
loop_
 _atom_site_type_symbol
 _atom_site_label
 _atom_site_symmetry_multiplicity
 _atom_site_fract_x
 _atom_site_fract_y
 _atom_site_fract_z
 _atom_site_occupancy
  Li  Li0  1  0.50001200  0.89026400  0.16893300  1
  Li  Li1  1  0.00001300  0.89026800  0.66893200  1
  Li  Li2  1  0.50001000  0.98856200  0.49009700  1
  Li  Li3  1  0.00000900  0.98858800  0.99007700  1
  Li  Li4  1  0.49999700  0.49754600  0.49161900  1
  Li  Li5  1  0.00000200  0.49755900  0.99163400  1
  Li  Li6  1  0.00001700  0.40424100  0.33264100  1
  Li  Li7  1  0.50001700  0.40425800  0.83264700  1
  Cr  Cr0  1  0.00003100  0.21475200  0.83150300  1
  Cr  Cr1  1  0.74482400  0.71330500  0.91535200  1
  Cr  Cr2  1  0.25519300  0.71330300  0.91535800  1
  Cr  Cr3  1  0.50004400  0.21461300  0.33152500  1
  Cr  Cr4  1  0.24480400  0.71318900  0.41538600  1
  Cr  Cr5  1  0.75521100  0.71318000  0.41540000  1
  Sn  Sn0  1  0.50001000  0.49604900  0.17087000  1
  Sn  Sn1  1  0.00000800  0.49607600  0.67085300  1
  Sn  Sn2  1  0.00000200  0.71377800  0.16930500  1
  Sn  Sn3  1  0.50000000  0.71379500  0.66929900  1
  Sn  Sn4  1  0.00000800  0.98560100  0.34111200  1
  Sn  Sn5  1  0.50001100  0.98563900  0.84111400  1
  Sn  Sn6  1  0.74688600  0.21555500  0.08543600  1
  Sn  Sn7  1  0.24686700  0.21555800  0.58542400  1
  Sn  Sn8  1  0.25313600  0.21555500  0.08544900  1
  Sn  Sn9  1  0.75315000  0.21556000  0.58543600  1
  O  O0  1  0.50000700  0.34518100  0.01629800  1
  O  O1  1  0.00000700  0.34519100  0.51628400  1
  O  O2  1  0.50001900  0.10361800  0.17087700  1
  O  O3  1  0.00001800  0.10366100  0.67090000  1
  O  O4  1  0.50001500  0.31432700  0.49585800  1
  O  O5  1  0.00001800  0.31435400  0.99587300  1
  O  O6  1  0.50000200  0.80614600  0.49553000  1
  O  O7  1  0.00000700  0.80618100  0.99552800  1
  O  O8  1  0.00000900  0.09448000  0.16143900  1
  O  O9  1  0.50000800  0.09449700  0.66142000  1
  O  O10  1  0.50000500  0.60272500  0.33809400  1
  O  O11  1  0.00000900  0.60274600  0.83808000  1
  O  O12  1  0.00000300  0.60742700  0.33756700  1
  O  O13  1  0.50000800  0.60746800  0.83754800  1
  O  O14  1  0.00000700  0.83022800  0.48358300  1
  O  O15  1  0.50001300  0.83026000  0.98356600  1
  O  O16  1  0.75813600  0.59633500  0.07820600  1
  O  O17  1  0.25815000  0.59631600  0.57820600  1
  O  O18  1  0.24187300  0.59633200  0.07821100  1
  O  O19  1  0.74185200  0.59631000  0.57821100  1
  O  O20  1  0.72396800  0.34444400  0.24087300  1
  O  O21  1  0.22395800  0.34447500  0.74086100  1
  O  O22  1  0.27607600  0.34444000  0.24088200  1
  O  O23  1  0.77609000  0.34447100  0.74087300  1
  O  O24  1  0.22576600  0.83823600  0.26234000  1
  O  O25  1  0.72577900  0.83825700  0.76231800  1
  O  O26  1  0.77424500  0.83823500  0.26234600  1
  O  O27  1  0.27423200  0.83825800  0.76232400  1
  O  O28  1  0.25890100  0.09853800  0.42013600  1
  O  O29  1  0.75896300  0.09860700  0.92010400  1
  O  O30  1  0.74112600  0.09853600  0.42014600  1
  O  O31  1  0.24106600  0.09860200  0.92011300  1
loop_
_geom_bond_atom_site_label_1
_geom_bond_atom_site_label_2
_geom_bond_distance
_geom_bond_site_symmetry_2
Li0 O26 2.037948 1_555
Li0 O24 2.037980 1_555
Li0 O15 2.069858 1_554
Li0 O2 2.120633 1_565
Li1 O27 2.037719 1_555
Li1 O25 2.037766 1_455
Li1 O14 2.069779 1_555
Li1 O3 2.121024 1_565
Li2 O6 1.813585 1_555
Li2 O30 1.995801 1_565
Li2 O28 1.995821 1_565
Li2 O9 2.115092 1_565
Li3 O7 1.813501 1_555
Li3 O31 1.995795 1_565
Li3 O29 1.995809 1_465
Li3 O8 2.115239 1_566
Li4 O4 1.821264 1_555
Li4 O10 1.939651 1_555
Li4 O17 2.019895 1_555
Li4 O19 2.019927 1_555
Li5 O5 1.821125 1_555
Li5 O11 1.939954 1_555
Li5 O16 2.019938 1_456
Li5 O18 2.019971 1_556
Li6 O12 2.020321 1_555
Li6 O1 2.043811 1_555
Li6 O20 2.062480 1_455
Li6 O22 2.062497 1_555
Li7 O13 2.020551 1_555
Li7 O0 2.043969 1_556
Li7 O21 2.062583 1_555
Li7 O23 2.062605 1_555
Cr0 O5 2.019180 1_555
Cr0 O3 2.044067 1_555
Cr0 O31 2.110486 1_555
Cr0 O29 2.110559 1_455
Cr0 O23 2.125389 1_455
Cr0 O21 2.125412 1_555
Cr1 O7 2.025003 1_655
Cr1 O13 2.028182 1_555
Cr1 O15 2.048951 1_555
Cr1 O25 2.050695 1_555
Cr1 O16 2.088336 1_556
Cr1 O11 2.098822 1_655
Cr2 O7 2.025000 1_555
Cr2 O13 2.028194 1_555
Cr2 O15 2.048980 1_555
Cr2 O27 2.050711 1_555
Cr2 O18 2.088335 1_556
Cr2 O11 2.098831 1_555
Cr3 O4 2.019386 1_555
Cr3 O2 2.043952 1_555
Cr3 O30 2.110350 1_555
Cr3 O28 2.110558 1_555
Cr3 O20 2.126097 1_555
Cr3 O22 2.126210 1_555
Cr4 O6 2.025299 1_555
Cr4 O12 2.027790 1_555
Cr4 O14 2.049297 1_555
Cr4 O24 2.051362 1_555
Cr4 O17 2.087511 1_555
Cr4 O10 2.098485 1_555
Cr5 O6 2.025331 1_555
Cr5 O12 2.027764 1_655
Cr5 O14 2.049289 1_655
Cr5 O26 2.051476 1_555
Cr5 O19 2.087418 1_555
Cr5 O10 2.098520 1_555
O0 Sn6 2.131289 1_555
O0 Sn8 2.131298 1_555
O0 Sn0 2.235307 1_555
O1 Sn7 2.131253 1_555
O1 Sn9 2.131270 1_455
O1 Sn1 2.235397 1_555
O2 Sn6 2.099218 1_555
O2 Sn8 2.099233 1_555
O3 Sn7 2.099088 1_555
O3 Sn9 2.099132 1_455
O4 Sn9 2.082457 1_555
O4 Sn7 2.082467 1_555
O5 Sn6 2.082517 1_456
O5 Sn8 2.082517 1_556
O6 Sn3 2.065754 1_555
O7 Sn2 2.066058 1_556
O8 Sn8 2.136364 1_555
O8 Sn6 2.136401 1_455
O8 Sn4 2.197721 1_545
O9 Sn9 2.136342 1_555
O9 Sn7 2.136376 1_555
O9 Sn5 2.197814 1_545
O10 Sn0 2.081024 1_555
O11 Sn1 2.081021 1_555
O12 Sn2 2.079768 1_555
O13 Sn3 2.079528 1_555
O14 Sn4 2.162101 1_555
O15 Sn5 2.162002 1_555
O16 Sn0 2.128002 1_555
O16 Sn2 2.138409 1_655
O17 Sn1 2.127780 1_555
O17 Sn3 2.138506 1_555
O18 Sn0 2.128017 1_555
O18 Sn2 2.138423 1_555
O19 Sn1 2.127795 1_655
O19 Sn3 2.138523 1_555
O20 Sn6 2.106311 1_555
O20 Sn0 2.179279 1_555
O21 Sn7 2.106478 1_555
O21 Sn1 2.179238 1_555
O22 Sn8 2.106262 1_555
O22 Sn0 2.179242 1_555
O23 Sn9 2.106454 1_555
O23 Sn1 2.179180 1_655
O24 Sn2 2.119430 1_555
O24 Sn4 2.197184 1_555
O25 Sn3 2.119434 1_555
O25 Sn5 2.197435 1_555
O26 Sn2 2.119426 1_655
O26 Sn4 2.197184 1_655
O27 Sn3 2.119426 1_555
O27 Sn5 2.197446 1_555
O28 Sn7 2.119673 1_555
O28 Sn4 2.136020 1_545
O29 Sn6 2.119680 1_556
O29 Sn5 2.136314 1_545
O30 Sn9 2.119711 1_555
O30 Sn4 2.136001 1_645
O31 Sn8 2.119741 1_556
O31 Sn5 2.136294 1_545
