# generated using pymatgen
data_LiMn7(OF3)3
_symmetry_space_group_name_H-M   'P 1'
_cell_length_a   6.37121800
_cell_length_b   6.41921680
_cell_length_c   6.45250636
_cell_angle_alpha   89.83254925
_cell_angle_beta   89.60939154
_cell_angle_gamma   89.93765422
_symmetry_Int_Tables_number   1
_chemical_formula_structural   LiMn7(OF3)3
_chemical_formula_sum   'Li1 Mn7 O3 F9'
_cell_volume   263.88867682
_cell_formula_units_Z   1
loop_
 _symmetry_equiv_pos_site_id
 _symmetry_equiv_pos_as_xyz
  1  'x, y, z'
loop_
 _atom_site_type_symbol
 _atom_site_label
 _atom_site_symmetry_multiplicity
 _atom_site_fract_x
 _atom_site_fract_y
 _atom_site_fract_z
 _atom_site_occupancy
  Li  Li0  1  0.50930900  0.49332300  0.51045700  1
  Mn  Mn0  1  0.06243700  0.56425700  0.24703600  1
  Mn  Mn1  1  0.43239200  0.26108300  0.06051300  1
  Mn  Mn2  1  0.24188000  0.92818300  0.54330400  1
  Mn  Mn3  1  0.98841900  0.02720300  0.02711700  1
  Mn  Mn4  1  0.74582800  0.03834600  0.41344400  1
  Mn  Mn5  1  0.56710800  0.76740000  0.94829900  1
  Mn  Mn6  1  0.95755100  0.42765100  0.75655700  1
  O  O0  1  0.11462800  0.33019600  0.03180600  1
  O  O1  1  0.02989500  0.87856000  0.31510300  1
  O  O2  1  0.66116600  0.04207000  0.09698600  1
  F  F0  1  0.44089300  0.58137100  0.20134200  1
  F  F1  1  0.20254000  0.56849600  0.57560900  1
  F  F2  1  0.42497000  0.19249800  0.44121300  1
  F  F3  1  0.56983300  0.80968800  0.58901500  1
  F  F4  1  0.28908800  0.93758000  0.87260900  1
  F  F5  1  0.81888300  0.40929300  0.43799200  1
  F  F6  1  0.59535400  0.44272000  0.81789900  1
  F  F7  1  0.94693500  0.09709400  0.68329700  1
  F  F8  1  0.90088800  0.70298800  0.93040200  1
loop_
_geom_bond_atom_site_label_1
_geom_bond_atom_site_label_2
_geom_bond_distance
_geom_bond_site_symmetry_2
Mn0 O0 2.074016 1_555
Mn0 O1 2.075943 1_555
Mn1 O2 2.038310 1_555
Mn1 O0 2.081488 1_555
Mn2 O1 2.030899 1_555
Mn3 O1 2.104538 1_645
Mn3 O0 2.105830 1_655
Mn3 O2 2.132272 1_555
Mn4 O2 2.115603 1_555
Mn4 O1 2.171263 1_645
Mn5 O2 2.099608 1_566
Mn6 O0 2.136262 1_656
F0 Li0 2.119546 1_555
F0 Mn5 2.170568 1_554
F0 Mn1 2.251140 1_555
F0 Mn0 2.429754 1_555
F1 Li0 2.053669 1_555
F1 Mn6 2.142203 1_455
F1 Mn0 2.306214 1_555
F1 Mn2 2.331323 1_555
F2 Li0 2.056194 1_555
F2 Mn2 2.158877 1_545
F2 Mn4 2.276381 1_555
F2 Mn1 2.494483 1_555
F3 Li0 2.130783 1_555
F3 Mn4 2.161415 1_565
F3 Mn2 2.243892 1_555
F3 Mn5 2.333282 1_555
F4 Mn5 2.138685 1_555
F4 Mn2 2.149084 1_555
F4 Mn3 2.229229 1_466
F4 Mn1 2.578759 1_566
F5 Li0 2.094372 1_555
F5 Mn0 2.210365 1_655
F5 Mn6 2.246351 1_555
F5 Mn4 2.432574 1_555
F6 Li0 2.086163 1_555
F6 Mn1 2.204081 1_556
F6 Mn5 2.256452 1_555
F6 Mn6 2.340618 1_555
F7 Mn6 2.176505 1_555
F7 Mn4 2.202526 1_555
F7 Mn3 2.279211 1_556
F7 Mn2 2.345421 1_645
F8 Mn6 2.125364 1_555
F8 Mn5 2.168335 1_555
F8 Mn3 2.246493 1_566
F8 Mn0 2.458187 1_656
