# generated using pymatgen
data_LiMn7O12
_symmetry_space_group_name_H-M   'P 1'
_cell_length_a   11.50252548
_cell_length_b   11.50252548
_cell_length_c   11.50252548
_cell_angle_alpha   130.73998714
_cell_angle_beta   130.73998714
_cell_angle_gamma   72.22651179
_symmetry_Int_Tables_number   1
_chemical_formula_structural   LiMn7O12
_chemical_formula_sum   'Li4 Mn28 O48'
_cell_volume   854.15730999
_cell_formula_units_Z   4
loop_
 _symmetry_equiv_pos_site_id
 _symmetry_equiv_pos_as_xyz
  1  'x, y, z'
loop_
 _atom_site_type_symbol
 _atom_site_label
 _atom_site_symmetry_multiplicity
 _atom_site_fract_x
 _atom_site_fract_y
 _atom_site_fract_z
 _atom_site_occupancy
  Li  Li0  1  0.50000000  0.50000000  0.00000000  1
  Li  Li1  1  0.75000000  0.25000000  0.50000000  1
  Li  Li2  1  0.00000000  0.00000000  0.00000000  1
  Li  Li3  1  0.25000000  0.75000000  0.50000000  1
  Mn  Mn0  1  0.37500000  0.62500000  0.75000000  1
  Mn  Mn1  1  0.87500000  0.62500000  0.25000000  1
  Mn  Mn2  1  0.97572700  0.97572700  0.45145400  1
  Mn  Mn3  1  0.57164100  0.87500000  0.19664100  1
  Mn  Mn4  1  0.37500000  0.12500000  0.75000000  1
  Mn  Mn5  1  0.87500000  0.12500000  0.25000000  1
  Mn  Mn6  1  0.07164100  0.87500000  0.69664100  1
  Mn  Mn7  1  0.47572700  0.02427300  0.00000000  1
  Mn  Mn8  1  0.12500000  0.32164100  0.69664100  1
  Mn  Mn9  1  0.37500000  0.12500000  0.25000000  1
  Mn  Mn10  1  0.00000000  0.50000000  0.50000000  1
  Mn  Mn11  1  0.25000000  0.25000000  0.00000000  1
  Mn  Mn12  1  0.87500000  0.12500000  0.75000000  1
  Mn  Mn13  1  0.62500000  0.42835900  0.30335900  1
  Mn  Mn14  1  0.22572700  0.72572700  0.95145400  1
  Mn  Mn15  1  0.02427300  0.47572700  0.00000000  1
  Mn  Mn16  1  0.37500000  0.62500000  0.25000000  1
  Mn  Mn17  1  0.87500000  0.62500000  0.75000000  1
  Mn  Mn18  1  0.67835900  0.37500000  0.80335900  1
  Mn  Mn19  1  0.17835900  0.37500000  0.30335900  1
  Mn  Mn20  1  0.72572700  0.77427300  0.50000000  1
  Mn  Mn21  1  0.52427300  0.52427300  0.54854600  1
  Mn  Mn22  1  0.12500000  0.82164100  0.19664100  1
  Mn  Mn23  1  0.50000000  0.00000000  0.50000000  1
  Mn  Mn24  1  0.75000000  0.75000000  0.00000000  1
  Mn  Mn25  1  0.62500000  0.92835900  0.80335900  1
  Mn  Mn26  1  0.27427300  0.22572700  0.50000000  1
  Mn  Mn27  1  0.77427300  0.27427300  0.04854600  1
  O  O0  1  0.05702100  0.79885700  0.45658800  1
  O  O1  1  0.49862900  0.82828400  0.95499200  1
  O  O2  1  0.76924400  0.82327100  0.23151600  1
  O  O3  1  0.17171600  0.12670800  0.67034500  1
  O  O4  1  0.07828400  0.24862900  0.45499200  1
  O  O5  1  0.26924400  0.03772800  0.94597300  1
  O  O6  1  0.99862900  0.04363700  0.67034500  1
  O  O7  1  0.89956700  0.15773100  0.45658800  1
  O  O8  1  0.35043300  0.30702100  0.75816400  1
  O  O9  1  0.46227200  0.23075600  0.05402700  1
  O  O10  1  0.78772800  0.34175500  0.26848400  1
  O  O11  1  0.55702100  0.10043300  0.25816400  1
  O  O12  1  0.40773100  0.64956700  0.95658800  1
  O  O13  1  0.84226900  0.29885700  0.74183600  1
  O  O14  1  0.17672900  0.40824500  0.94597300  1
  O  O15  1  0.07327100  0.51924400  0.73151600  1
  O  O16  1  0.54885700  0.59226900  0.24183600  1
  O  O17  1  0.70114300  0.44297900  0.54341200  1
  O  O18  1  0.87670800  0.70636300  0.45499200  1
  O  O19  1  0.37329200  0.32828400  0.32965500  1
  O  O20  1  0.09175500  0.32327100  0.05402700  1
  O  O21  1  0.15824500  0.71227200  0.73151600  1
  O  O22  1  0.45636300  0.50137100  0.32965500  1
  O  O23  1  0.79363700  0.62329200  0.54500800  1
  O  O24  1  0.29363700  0.74862900  0.17034500  1
  O  O25  1  0.95636300  0.62670800  0.95499200  1
  O  O26  1  0.65824500  0.92672900  0.44597300  1
  O  O27  1  0.59175500  0.53772800  0.76848400  1
  O  O28  1  0.37670800  0.92171600  0.17034500  1
  O  O29  1  0.87329200  0.54363700  0.04500800  1
  O  O30  1  0.20114300  0.65773100  0.25816400  1
  O  O31  1  0.04885700  0.80702100  0.95658800  1
  O  O32  1  0.57327100  0.84175500  0.55402700  1
  O  O33  1  0.67672900  0.73075600  0.76848400  1
  O  O34  1  0.34226900  0.60043300  0.54341200  1
  O  O35  1  0.90773100  0.95114300  0.75816400  1
  O  O36  1  0.19297900  0.14956700  0.24183600  1
  O  O37  1  0.28772800  0.01924400  0.44597300  1
  O  O38  1  0.96227200  0.90824500  0.23151600  1
  O  O39  1  0.39956700  0.94297900  0.74183600  1
  O  O40  1  0.85043300  0.09226900  0.04341200  1
  O  O41  1  0.75137100  0.20636300  0.82965500  1
  O  O42  1  0.48075600  0.21227200  0.55402700  1
  O  O43  1  0.67171600  0.00137100  0.04500800  1
  O  O44  1  0.57828400  0.12329200  0.82965500  1
  O  O45  1  0.98075600  0.42672900  0.26848400  1
  O  O46  1  0.25137100  0.42171600  0.54500800  1
  O  O47  1  0.69297900  0.45114300  0.04341200  1
loop_
_geom_bond_atom_site_label_1
_geom_bond_atom_site_label_2
_geom_bond_distance
_geom_bond_site_symmetry_2
Li0 O8 1.910593 1_554
Li0 O12 1.910593 1_554
Li0 O47 1.910593 1_555
Li0 O16 1.910593 1_555
Li1 O17 1.910593 1_555
Li1 O13 1.910593 1_555
Li1 O11 1.910593 1_555
Li1 O7 1.910593 1_555
Li2 O36 1.910593 1_555
Li2 O40 1.910593 1_455
Li2 O31 1.910593 1_544
Li2 O35 1.910593 1_444
Li3 O39 1.910593 1_555
Li3 O30 1.910593 1_555
Li3 O34 1.910593 1_555
Li3 O0 1.910593 1_555
Mn0 O1 1.872559 1_555
Mn0 O46 1.872559 1_555
Mn0 O34 1.972070 1_555
Mn0 O12 1.972070 1_555
Mn0 O27 2.308200 1_555
Mn0 O21 2.308200 1_555
Mn1 O29 1.872559 1_555
Mn1 O18 1.872559 1_555
Mn1 O0 1.972070 1_655
Mn1 O47 1.972070 1_555
Mn1 O2 2.308200 1_555
Mn1 O45 2.308200 1_555
Mn2 O3 1.926571 1_665
Mn2 O6 1.926571 1_565
Mn2 O7 1.984989 1_565
Mn2 O0 1.984989 1_655
Mn2 O38 2.006421 1_555
Mn2 O2 2.006421 1_555
Mn3 O2 1.994231 1_555
Mn3 O26 1.994231 1_555
Mn3 O1 1.999783 1_554
Mn3 O28 1.999783 1_555
Mn3 O11 2.178743 1_565
Mn3 O12 2.178743 1_554
Mn4 O44 1.872559 1_555
Mn4 O3 1.872559 1_555
Mn4 O39 1.972070 1_545
Mn4 O8 1.972070 1_555
Mn4 O9 2.308200 1_556
Mn4 O37 2.308200 1_555
Mn5 O4 1.872559 1_655
Mn5 O43 1.872559 1_555
Mn5 O40 1.972070 1_555
Mn5 O7 1.972070 1_555
Mn5 O38 2.308200 1_545
Mn5 O10 2.308200 1_555
Mn6 O21 1.994231 1_555
Mn6 O5 1.994231 1_565
Mn6 O6 1.999783 1_465
Mn6 O18 1.999783 1_455
Mn6 O0 2.178743 1_555
Mn6 O35 2.178743 1_455
Mn7 O1 1.926571 1_544
Mn7 O43 1.926571 1_555
Mn7 O11 1.984989 1_555
Mn7 O39 1.984989 1_544
Mn7 O5 2.006421 1_554
Mn7 O9 2.006421 1_555
Mn8 O15 1.994231 1_555
Mn8 O14 1.994231 1_555
Mn8 O3 1.999783 1_555
Mn8 O4 1.999783 1_555
Mn8 O8 2.178743 1_555
Mn8 O7 2.178743 1_455
Mn9 O19 1.872559 1_555
Mn9 O28 1.872559 1_545
Mn9 O11 1.972070 1_555
Mn9 O36 1.972070 1_555
Mn9 O42 2.308200 1_555
Mn9 O5 2.308200 1_554
Mn10 O45 2.065419 1_455
Mn10 O15 2.065419 1_555
Mn10 O10 2.065419 1_455
Mn10 O21 2.065419 1_555
Mn10 O4 2.550329 1_555
Mn10 O46 2.550329 1_555
Mn10 O23 2.550329 1_455
Mn10 O18 2.550329 1_455
Mn11 O9 2.065419 1_555
Mn11 O14 2.065419 1_554
Mn11 O5 2.065419 1_554
Mn11 O20 2.065419 1_555
Mn11 O3 2.550329 1_554
Mn11 O22 2.550329 1_555
Mn11 O6 2.550329 1_454
Mn11 O19 2.550329 1_555
Mn12 O41 1.872559 1_555
Mn12 O6 1.872559 1_555
Mn12 O35 1.972070 1_545
Mn12 O13 1.972070 1_555
Mn12 O20 2.308200 1_656
Mn12 O26 2.308200 1_545
Mn13 O10 1.994231 1_555
Mn13 O9 1.994231 1_555
Mn13 O23 1.999783 1_555
Mn13 O22 1.999783 1_555
Mn13 O16 2.178743 1_555
Mn13 O17 2.178743 1_555
Mn14 O28 1.926571 1_556
Mn14 O24 1.926571 1_556
Mn14 O31 1.984989 1_555
Mn14 O12 1.984989 1_555
Mn14 O15 2.006421 1_555
Mn14 O21 2.006421 1_555
Mn15 O29 1.926571 1_455
Mn15 O25 1.926571 1_454
Mn15 O13 1.984989 1_454
Mn15 O30 1.984989 1_555
Mn15 O20 2.006421 1_555
Mn15 O14 2.006421 1_554
Mn16 O24 1.872559 1_555
Mn16 O22 1.872559 1_555
Mn16 O16 1.972070 1_555
Mn16 O30 1.972070 1_555
Mn16 O32 2.308200 1_555
Mn16 O14 2.308200 1_554
Mn17 O23 1.872559 1_555
Mn17 O25 1.872559 1_555
Mn17 O31 1.972070 1_655
Mn17 O17 1.972070 1_555
Mn17 O15 2.308200 1_655
Mn17 O33 2.308200 1_555
Mn18 O27 1.994231 1_555
Mn18 O42 1.994231 1_555
Mn18 O41 1.999783 1_555
Mn18 O29 1.999783 1_556
Mn18 O13 2.178743 1_555
Mn18 O47 2.178743 1_556
Mn19 O20 1.994231 1_555
Mn19 O45 1.994231 1_455
Mn19 O46 1.999783 1_555
Mn19 O19 1.999783 1_555
Mn19 O34 2.178743 1_555
Mn19 O36 2.178743 1_555
Mn20 O23 1.926571 1_555
Mn20 O18 1.926571 1_555
Mn20 O35 1.984989 1_555
Mn20 O16 1.984989 1_555
Mn20 O32 2.006421 1_555
Mn20 O26 2.006421 1_555
Mn21 O22 1.926571 1_555
Mn21 O19 1.926571 1_555
Mn21 O34 1.984989 1_555
Mn21 O17 1.984989 1_555
Mn21 O33 2.006421 1_555
Mn21 O27 2.006421 1_555
Mn22 O37 1.994231 1_565
Mn22 O38 1.994231 1_455
Mn22 O24 1.999783 1_555
Mn22 O25 1.999783 1_454
Mn22 O31 2.178743 1_554
Mn22 O30 2.178743 1_555
Mn23 O37 2.065419 1_555
Mn23 O42 2.065419 1_555
Mn23 O32 2.065419 1_545
Mn23 O26 2.065419 1_545
Mn23 O44 2.550329 1_555
Mn23 O41 2.550329 1_555
Mn23 O24 2.550329 1_545
Mn23 O28 2.550329 1_545
Mn24 O38 2.065419 1_555
Mn24 O33 2.065419 1_554
Mn24 O27 2.065419 1_554
Mn24 O2 2.065419 1_555
Mn24 O1 2.550329 1_554
Mn24 O43 2.550329 1_565
Mn24 O25 2.550329 1_554
Mn24 O29 2.550329 1_555
Mn25 O33 1.994231 1_555
Mn25 O32 1.994231 1_555
Mn25 O43 1.999783 1_566
Mn25 O44 1.999783 1_565
Mn25 O39 2.178743 1_555
Mn25 O40 2.178743 1_566
Mn26 O4 1.926571 1_555
Mn26 O46 1.926571 1_555
Mn26 O8 1.984989 1_555
Mn26 O36 1.984989 1_555
Mn26 O37 2.006421 1_555
Mn26 O42 2.006421 1_555
Mn27 O44 1.926571 1_554
Mn27 O41 1.926571 1_554
Mn27 O47 1.984989 1_555
Mn27 O40 1.984989 1_555
Mn27 O45 2.006421 1_555
Mn27 O10 2.006421 1_555
