# generated using pymatgen
data_VCo(PO4)2
_symmetry_space_group_name_H-M   'P 1'
_cell_length_a   9.91768758
_cell_length_b   5.95944000
_cell_length_c   4.89240309
_cell_angle_alpha   90.00065436
_cell_angle_beta   89.23440023
_cell_angle_gamma   89.99900494
_symmetry_Int_Tables_number   1
_chemical_formula_structural   VCo(PO4)2
_chemical_formula_sum   'V2 Co2 P4 O16'
_cell_volume   289.13411304
_cell_formula_units_Z   2
loop_
 _symmetry_equiv_pos_site_id
 _symmetry_equiv_pos_as_xyz
  1  'x, y, z'
loop_
 _atom_site_type_symbol
 _atom_site_label
 _atom_site_symmetry_multiplicity
 _atom_site_fract_x
 _atom_site_fract_y
 _atom_site_fract_z
 _atom_site_occupancy
  V  V0  1  0.22518600  0.74996900  0.48163400  1
  V  V1  1  0.77487900  0.24995000  0.51845700  1
  Co  Co0  1  0.26707000  0.25001100  0.96349900  1
  Co  Co1  1  0.73317000  0.75002600  0.03760200  1
  P  P0  1  0.09606900  0.24999000  0.42367100  1
  P  P1  1  0.39937900  0.74998900  0.90006700  1
  P  P2  1  0.60059600  0.25002400  0.09953400  1
  P  P3  1  0.90419200  0.75000200  0.57670100  1
  O  O0  1  0.05952700  0.75002300  0.65395300  1
  O  O1  1  0.10556700  0.25000900  0.73005000  1
  O  O2  1  0.16368100  0.04356800  0.27889800  1
  O  O3  1  0.16368300  0.45640600  0.27889600  1
  O  O4  1  0.32558400  0.94820700  0.74523200  1
  O  O5  1  0.32558700  0.55173200  0.74527200  1
  O  O6  1  0.35985600  0.74998500  0.20875600  1
  O  O7  1  0.45048400  0.25001000  0.13442900  1
  O  O8  1  0.54943900  0.75001500  0.86479200  1
  O  O9  1  0.64005900  0.24998800  0.79092700  1
  O  O10  1  0.67423900  0.05174900  0.25438000  1
  O  O11  1  0.67423700  0.44827200  0.25440400  1
  O  O12  1  0.83607900  0.54368500  0.72092000  1
  O  O13  1  0.83609700  0.95635300  0.72092400  1
  O  O14  1  0.89480300  0.75002700  0.27019500  1
  O  O15  1  0.94053900  0.25000900  0.34680600  1
loop_
_geom_bond_atom_site_label_1
_geom_bond_atom_site_label_2
_geom_bond_distance
_geom_bond_site_symmetry_2
Co0 O1 1.979621 1_555
Co0 O7 2.012187 1_556
Co0 O5 2.166412 1_555
Co0 O4 2.166873 1_545
Co0 O3 2.214247 1_556
Co0 O2 2.214461 1_556
Co1 O14 1.978217 1_555
Co1 O8 2.018992 1_554
Co1 O10 2.164003 1_565
Co1 O11 2.164256 1_555
Co1 O12 2.216273 1_554
Co1 O13 2.216333 1_554
O0 P3 1.591145 1_455
O0 V0 1.836579 1_555
O1 P0 1.503142 1_555
O2 P0 1.565844 1_555
O2 V0 2.105577 1_545
O3 P0 1.565859 1_555
O3 V0 2.105396 1_555
O4 P1 1.587348 1_555
O4 V0 2.021036 1_555
O5 P1 1.587418 1_555
O5 V0 2.021171 1_555
O6 P1 1.555193 1_554
O6 V0 1.875772 1_555
O7 P2 1.496252 1_555
O8 P1 1.495929 1_555
O9 P2 1.554662 1_556
O9 V1 1.875417 1_555
O10 P2 1.586922 1_555
O10 V1 2.023622 1_555
O11 P2 1.586856 1_555
O11 V1 2.023975 1_555
O12 P3 1.566281 1_555
O12 V1 2.104722 1_555
O13 P3 1.566342 1_555
O13 V1 2.104101 1_565
O14 P3 1.503681 1_555
O15 P0 1.592551 1_655
O15 V1 1.835129 1_555
