# generated using pymatgen
data_Mn2O3
_symmetry_space_group_name_H-M   'P 1'
_cell_length_a   8.49554053
_cell_length_b   8.49554053
_cell_length_c   26.16167569
_cell_angle_alpha   90.00000000
_cell_angle_beta   90.00000000
_cell_angle_gamma   90.00000000
_symmetry_Int_Tables_number   1
_chemical_formula_structural   Mn2O3
_chemical_formula_sum   'Mn64 O96'
_cell_volume   1888.19824634
_cell_formula_units_Z   32
loop_
 _symmetry_equiv_pos_site_id
 _symmetry_equiv_pos_as_xyz
  1  'x, y, z'
loop_
 _atom_site_type_symbol
 _atom_site_label
 _atom_site_symmetry_multiplicity
 _atom_site_fract_x
 _atom_site_fract_y
 _atom_site_fract_z
 _atom_site_occupancy
  Mn  Mn0  1  0.99806501  0.24833118  0.45402454  1
  Mn  Mn1  1  0.99059022  0.25158474  0.12613671  1
  Mn  Mn2  1  0.99014271  0.23482868  0.79156406  1
  Mn  Mn3  1  0.12422712  0.86787966  0.08274968  1
  Mn  Mn4  1  0.13212034  0.87577288  0.41725032  1
  Mn  Mn5  1  0.12936193  0.87063807  0.75000000  1
  Mn  Mn6  1  0.12536203  0.12536203  0.00000000  1
  Mn  Mn7  1  0.12576058  0.62309169  0.50087319  1
  Mn  Mn8  1  0.12659466  0.61957131  0.16384179  1
  Mn  Mn9  1  0.12294096  0.62008754  0.83057531  1
  Mn  Mn10  1  0.12309169  0.37423942  0.25087319  1
  Mn  Mn11  1  0.12008754  0.37705904  0.58057531  1
  Mn  Mn12  1  0.11957131  0.37340534  0.91384179  1
  Mn  Mn13  1  0.26517132  0.49014271  0.04156406  1
  Mn  Mn14  1  0.24841526  0.49059022  0.37613671  1
  Mn  Mn15  1  0.25166882  0.49806501  0.70402454  1
  Mn  Mn16  1  0.24833118  0.99806501  0.54597546  1
  Mn  Mn17  1  0.23482868  0.99014271  0.20843594  1
  Mn  Mn18  1  0.25158474  0.99059022  0.87386329  1
  Mn  Mn19  1  0.38042869  0.87340534  0.33615821  1
  Mn  Mn20  1  0.37991246  0.87705904  0.66942469  1
  Mn  Mn21  1  0.37690831  0.87423942  0.99912681  1
  Mn  Mn22  1  0.37340534  0.11957131  0.08615821  1
  Mn  Mn23  1  0.37705904  0.12008754  0.41942469  1
  Mn  Mn24  1  0.37463797  0.62536203  0.25000000  1
  Mn  Mn25  1  0.37423942  0.12309169  0.74912681  1
  Mn  Mn26  1  0.37063807  0.37063807  0.50000000  1
  Mn  Mn27  1  0.37577288  0.36787966  0.16725032  1
  Mn  Mn28  1  0.36787966  0.37577288  0.83274968  1
  Mn  Mn29  1  0.50940978  0.75158474  0.12386329  1
  Mn  Mn30  1  0.50985729  0.73482868  0.45843594  1
  Mn  Mn31  1  0.50193499  0.74833118  0.79597546  1
  Mn  Mn32  1  0.49806501  0.25166882  0.29597546  1
  Mn  Mn33  1  0.49059022  0.24841526  0.62386329  1
  Mn  Mn34  1  0.49014271  0.26517132  0.95843594  1
  Mn  Mn35  1  0.63212034  0.62422712  0.33274968  1
  Mn  Mn36  1  0.62422712  0.63212034  0.66725032  1
  Mn  Mn37  1  0.62936193  0.62936193  0.00000000  1
  Mn  Mn38  1  0.62576058  0.87690831  0.24912681  1
  Mn  Mn39  1  0.62536203  0.37463797  0.75000000  1
  Mn  Mn40  1  0.62659466  0.88042869  0.58615821  1
  Mn  Mn41  1  0.62294096  0.87991246  0.91942469  1
  Mn  Mn42  1  0.62008754  0.12294096  0.16942469  1
  Mn  Mn43  1  0.62309169  0.12576058  0.49912681  1
  Mn  Mn44  1  0.61957131  0.12659466  0.83615821  1
  Mn  Mn45  1  0.74841526  0.00940978  0.37386329  1
  Mn  Mn46  1  0.76517132  0.00985729  0.70843594  1
  Mn  Mn47  1  0.75166882  0.00193499  0.04597546  1
  Mn  Mn48  1  0.74833118  0.50193499  0.20402454  1
  Mn  Mn49  1  0.73482868  0.50985729  0.54156406  1
  Mn  Mn50  1  0.75158474  0.50940978  0.87613671  1
  Mn  Mn51  1  0.87991246  0.62294096  0.08057531  1
  Mn  Mn52  1  0.88042869  0.62659466  0.41384179  1
  Mn  Mn53  1  0.87690831  0.62576058  0.75087319  1
  Mn  Mn54  1  0.87423942  0.37690831  0.00087319  1
  Mn  Mn55  1  0.87705904  0.37991246  0.33057531  1
  Mn  Mn56  1  0.87340534  0.38042869  0.66384179  1
  Mn  Mn57  1  0.87463797  0.87463797  0.50000000  1
  Mn  Mn58  1  0.87063807  0.12936193  0.25000000  1
  Mn  Mn59  1  0.87577288  0.13212034  0.58274968  1
  Mn  Mn60  1  0.86787966  0.12422712  0.91725032  1
  Mn  Mn61  1  0.00985729  0.76517132  0.29156406  1
  Mn  Mn62  1  0.00940978  0.74841526  0.62613671  1
  Mn  Mn63  1  0.00193499  0.75166882  0.95402454  1
  O  O0  1  0.11459084  0.63858289  0.07923209  1
  O  O1  1  0.11432051  0.63903688  0.42409807  1
  O  O2  1  0.11561822  0.63252695  0.75373407  1
  O  O3  1  0.10605988  0.38723682  0.32300463  1
  O  O4  1  0.10295629  0.39744469  0.65351252  1
  O  O5  1  0.11872525  0.35630018  0.99654058  1
  O  O6  1  0.14369982  0.61872525  0.24654058  1
  O  O7  1  0.11276318  0.60605988  0.57300463  1
  O  O8  1  0.10255531  0.60295629  0.90351252  1
  O  O9  1  0.13843153  0.88896183  0.00372084  1
  O  O10  1  0.15601539  0.85625459  0.34472201  1
  O  O11  1  0.15648738  0.85838422  0.67543247  1
  O  O12  1  0.09695175  0.14875651  0.57952544  1
  O  O13  1  0.09445729  0.14088555  0.24539486  1
  O  O14  1  0.09690167  0.13337038  0.91504733  1
  O  O15  1  0.14374541  0.84398461  0.15527799  1
  O  O16  1  0.11103817  0.86156847  0.49627916  1
  O  O17  1  0.14161578  0.84351262  0.82456753  1
  O  O18  1  0.13337038  0.09690167  0.08495267  1
  O  O19  1  0.14875651  0.09695175  0.42047456  1
  O  O20  1  0.14088555  0.09445729  0.75460514  1
  O  O21  1  0.13252695  0.38438178  0.50373407  1
  O  O22  1  0.13903688  0.38567949  0.17409807  1
  O  O23  1  0.13858289  0.38540916  0.82923209  1
  O  O24  1  0.36096312  0.88567949  0.07590193  1
  O  O25  1  0.36141711  0.88540916  0.42076791  1
  O  O26  1  0.36747305  0.88438178  0.74626593  1
  O  O27  1  0.36662962  0.59690167  0.16504733  1
  O  O28  1  0.35911445  0.59445729  0.49539486  1
  O  O29  1  0.35124349  0.59695175  0.82952544  1
  O  O30  1  0.35625459  0.34398461  0.09472201  1
  O  O31  1  0.35838422  0.34351262  0.42543247  1
  O  O32  1  0.38896183  0.36156847  0.75372084  1
  O  O33  1  0.40554271  0.64088555  0.00460514  1
  O  O34  1  0.40309833  0.63337038  0.33495267  1
  O  O35  1  0.40304825  0.64875651  0.67047456  1
  O  O36  1  0.36156847  0.38896183  0.24627916  1
  O  O37  1  0.34351262  0.35838422  0.57456753  1
  O  O38  1  0.34398461  0.35625459  0.90527799  1
  O  O39  1  0.39744469  0.10295629  0.34648748  1
  O  O40  1  0.38723682  0.10605988  0.67699537  1
  O  O41  1  0.35630018  0.11872525  0.00345942  1
  O  O42  1  0.38127475  0.85630018  0.25345942  1
  O  O43  1  0.39394012  0.88723682  0.92699537  1
  O  O44  1  0.39704371  0.89744469  0.59648748  1
  O  O45  1  0.38438178  0.13252695  0.49626593  1
  O  O46  1  0.38540916  0.13858289  0.17076791  1
  O  O47  1  0.38567949  0.13903688  0.82590193  1
  O  O48  1  0.61432051  0.86096312  0.32590193  1
  O  O49  1  0.61459084  0.86141711  0.67076791  1
  O  O50  1  0.61561822  0.86747305  0.99626593  1
  O  O51  1  0.60295629  0.10255531  0.09648748  1
  O  O52  1  0.60605988  0.11276318  0.42699537  1
  O  O53  1  0.61872525  0.14369982  0.75345942  1
  O  O54  1  0.64369982  0.88127475  0.50345942  1
  O  O55  1  0.61276318  0.89394012  0.17699537  1
  O  O56  1  0.60255531  0.89704371  0.84648748  1
  O  O57  1  0.65648738  0.64161578  0.07456753  1
  O  O58  1  0.65601539  0.64374541  0.40527799  1
  O  O59  1  0.63843153  0.61103817  0.74627916  1
  O  O60  1  0.59695175  0.35124349  0.17047456  1
  O  O61  1  0.59445729  0.35911445  0.50460514  1
  O  O62  1  0.59690167  0.36662962  0.83495267  1
  O  O63  1  0.61103817  0.63843153  0.25372084  1
  O  O64  1  0.64374541  0.65601539  0.59472201  1
  O  O65  1  0.64161578  0.65648738  0.92543247  1
  O  O66  1  0.64875651  0.40304825  0.32952544  1
  O  O67  1  0.63337038  0.40309833  0.66504733  1
  O  O68  1  0.64088555  0.40554271  0.99539486  1
  O  O69  1  0.63252695  0.11561822  0.24626593  1
  O  O70  1  0.63903688  0.11432051  0.57590193  1
  O  O71  1  0.63858289  0.11459084  0.92076791  1
  O  O72  1  0.86141711  0.61459084  0.32923209  1
  O  O73  1  0.86096312  0.61432051  0.67409807  1
  O  O74  1  0.86747305  0.61561822  0.00373407  1
  O  O75  1  0.85911445  0.90554271  0.25460514  1
  O  O76  1  0.86662962  0.90309833  0.58495267  1
  O  O77  1  0.85124349  0.90304825  0.92047456  1
  O  O78  1  0.85625459  0.15601539  0.65527799  1
  O  O79  1  0.85838422  0.15648738  0.32456753  1
  O  O80  1  0.88896183  0.13843153  0.99627916  1
  O  O81  1  0.90304825  0.85124349  0.07952544  1
  O  O82  1  0.90309833  0.86662962  0.41504733  1
  O  O83  1  0.90554271  0.85911445  0.74539486  1
  O  O84  1  0.84351262  0.14161578  0.17543247  1
  O  O85  1  0.86156847  0.11103817  0.50372084  1
  O  O86  1  0.84398461  0.14374541  0.84472201  1
  O  O87  1  0.88723682  0.39394012  0.07300463  1
  O  O88  1  0.89744469  0.39704371  0.40351252  1
  O  O89  1  0.85630018  0.38127475  0.74654058  1
  O  O90  1  0.88127475  0.64369982  0.49654058  1
  O  O91  1  0.89704371  0.60255531  0.15351252  1
  O  O92  1  0.89394012  0.61276318  0.82300463  1
  O  O93  1  0.88438178  0.36747305  0.25373407  1
  O  O94  1  0.88540916  0.36141711  0.57923209  1
  O  O95  1  0.88567949  0.36096312  0.92409807  1
loop_
_geom_bond_atom_site_label_1
_geom_bond_atom_site_label_2
_geom_bond_distance
_geom_bond_site_symmetry_2
Mn0 O19 2.015751 1_655
Mn0 O88 2.018215 1_555
Mn0 O21 2.081369 1_655
Mn0 O85 2.096544 1_555
Mn1 O84 2.024178 1_555
Mn1 O87 2.041015 1_555
Mn1 O18 2.087856 1_655
Mn1 O22 2.112499 1_655
Mn2 O20 1.999271 1_655
Mn2 O86 2.018568 1_555
Mn2 O23 2.048893 1_655
Mn2 O89 2.056264 1_555
Mn3 O81 1.886229 1_455
Mn3 O15 1.915481 1_555
Mn3 O18 1.948068 1_565
Mn3 O0 1.951890 1_555
Mn3 O24 2.024818 1_555
Mn3 O9 2.078776 1_555
Mn4 O19 1.886229 1_565
Mn4 O10 1.915481 1_555
Mn4 O82 1.948068 1_455
Mn4 O25 1.951890 1_555
Mn4 O1 2.024818 1_555
Mn4 O16 2.078776 1_555
Mn5 O20 1.907792 1_565
Mn5 O83 1.907792 1_455
Mn5 O17 1.967132 1_555
Mn5 O11 1.967132 1_555
Mn5 O2 2.028603 1_555
Mn5 O26 2.028603 1_555
Mn6 O41 1.964840 1_555
Mn6 O5 1.964840 1_554
Mn6 O9 2.013768 1_545
Mn6 O80 2.013768 1_454
Mn6 O14 2.236652 1_554
Mn6 O18 2.236652 1_555
Mn7 O7 1.895837 1_555
Mn7 O28 2.002472 1_555
Mn7 O1 2.015473 1_555
Mn7 O21 2.030164 1_555
Mn7 O16 2.033401 1_555
Mn7 O90 2.087485 1_455
Mn8 O15 1.925153 1_555
Mn8 O91 1.974093 1_455
Mn8 O22 2.007856 1_555
Mn8 O27 2.048544 1_555
Mn8 O6 2.168426 1_555
Mn8 O0 2.221758 1_555
Mn9 O17 1.911209 1_555
Mn9 O8 1.921522 1_555
Mn9 O29 1.949681 1_555
Mn9 O92 1.956532 1_455
Mn9 O23 1.998452 1_555
Mn9 O2 2.014032 1_555
Mn10 O3 1.895837 1_555
Mn10 O13 2.002472 1_555
Mn10 O22 2.015473 1_555
Mn10 O93 2.030164 1_455
Mn10 O36 2.033401 1_555
Mn10 O6 2.087485 1_555
Mn11 O37 1.911209 1_555
Mn11 O4 1.921522 1_555
Mn11 O12 1.949681 1_555
Mn11 O7 1.956532 1_555
Mn11 O94 1.998452 1_455
Mn11 O21 2.014032 1_555
Mn12 O38 1.925153 1_555
Mn12 O8 1.974093 1_555
Mn12 O95 2.007856 1_455
Mn12 O14 2.048544 1_555
Mn12 O5 2.168426 1_555
Mn12 O23 2.221758 1_555
Mn13 O33 1.999271 1_555
Mn13 O30 2.018568 1_555
Mn13 O0 2.048893 1_555
Mn13 O5 2.056264 1_554
Mn14 O31 2.024178 1_555
Mn14 O3 2.041015 1_555
Mn14 O34 2.087856 1_555
Mn14 O1 2.112499 1_555
Mn15 O35 2.015751 1_555
Mn15 O4 2.018215 1_555
Mn15 O2 2.081369 1_555
Mn15 O32 2.096544 1_555
Mn16 O12 2.015751 1_565
Mn16 O44 2.018215 1_555
Mn16 O45 2.081369 1_565
Mn16 O16 2.096544 1_555
Mn17 O13 1.999271 1_565
Mn17 O15 2.018568 1_555
Mn17 O46 2.048893 1_565
Mn17 O42 2.056264 1_555
Mn18 O17 2.024178 1_555
Mn18 O43 2.041015 1_555
Mn18 O14 2.087856 1_565
Mn18 O47 2.112499 1_565
Mn19 O10 1.925153 1_555
Mn19 O39 1.974093 1_565
Mn19 O48 2.007856 1_555
Mn19 O34 2.048544 1_555
Mn19 O42 2.168426 1_555
Mn19 O25 2.221758 1_555
Mn20 O11 1.911209 1_555
Mn20 O44 1.921522 1_555
Mn20 O35 1.949681 1_555
Mn20 O40 1.956532 1_565
Mn20 O49 1.998452 1_555
Mn20 O26 2.014032 1_555
Mn21 O43 1.895837 1_555
Mn21 O33 2.002472 1_556
Mn21 O24 2.015473 1_556
Mn21 O50 2.030164 1_555
Mn21 O9 2.033401 1_556
Mn21 O41 2.087485 1_566
Mn22 O30 1.925153 1_555
Mn22 O51 1.974093 1_555
Mn22 O24 2.007856 1_545
Mn22 O18 2.048544 1_555
Mn22 O41 2.168426 1_555
Mn22 O46 2.221758 1_555
Mn23 O31 1.911209 1_555
Mn23 O39 1.921522 1_555
Mn23 O19 1.949681 1_555
Mn23 O52 1.956532 1_555
Mn23 O25 1.998452 1_545
Mn23 O45 2.014032 1_555
Mn24 O42 1.964840 1_555
Mn24 O6 1.964840 1_555
Mn24 O36 2.013768 1_555
Mn24 O63 2.013768 1_555
Mn24 O34 2.236652 1_555
Mn24 O27 2.236652 1_555
Mn25 O40 1.895837 1_555
Mn25 O20 2.002472 1_555
Mn25 O47 2.015473 1_555
Mn25 O26 2.030164 1_545
Mn25 O32 2.033401 1_555
Mn25 O53 2.087485 1_555
Mn26 O28 1.907792 1_555
Mn26 O61 1.907792 1_555
Mn26 O31 1.967132 1_555
Mn26 O37 1.967132 1_555
Mn26 O45 2.028603 1_555
Mn26 O21 2.028603 1_555
Mn27 O60 1.886229 1_555
Mn27 O30 1.915481 1_555
Mn27 O27 1.948068 1_555
Mn27 O46 1.951890 1_555
Mn27 O22 2.024818 1_555
Mn27 O36 2.078776 1_555
Mn28 O29 1.886229 1_555
Mn28 O38 1.915481 1_555
Mn28 O62 1.948068 1_555
Mn28 O23 1.951890 1_555
Mn28 O47 2.024818 1_555
Mn28 O32 2.078776 1_555
Mn29 O57 2.024178 1_555
Mn29 O55 2.041015 1_555
Mn29 O27 2.087856 1_555
Mn29 O24 2.112499 1_555
Mn30 O28 1.999271 1_555
Mn30 O58 2.018568 1_555
Mn30 O25 2.048893 1_555
Mn30 O54 2.056264 1_555
Mn31 O29 2.015751 1_555
Mn31 O56 2.018215 1_555
Mn31 O26 2.081369 1_555
Mn31 O59 2.096544 1_555
Mn32 O66 2.015751 1_555
Mn32 O39 2.018215 1_555
Mn32 O69 2.081369 1_555
Mn32 O36 2.096544 1_555
Mn33 O37 2.024178 1_555
Mn33 O40 2.041015 1_555
Mn33 O67 2.087856 1_555
Mn33 O70 2.112499 1_555
Mn34 O68 1.999271 1_555
Mn34 O38 2.018568 1_555
Mn34 O71 2.048893 1_555
Mn34 O41 2.056264 1_556
Mn35 O66 1.886229 1_555
Mn35 O58 1.915481 1_555
Mn35 O34 1.948068 1_555
Mn35 O72 1.951890 1_555
Mn35 O48 2.024818 1_555
Mn35 O63 2.078776 1_555
Mn36 O35 1.886229 1_555
Mn36 O64 1.915481 1_555
Mn36 O67 1.948068 1_555
Mn36 O49 1.951890 1_555
Mn36 O73 2.024818 1_555
Mn36 O59 2.078776 1_555
Mn37 O68 1.907792 1_554
Mn37 O33 1.907792 1_555
Mn37 O57 1.967132 1_555
Mn37 O65 1.967132 1_554
Mn37 O50 2.028603 1_554
Mn37 O74 2.028603 1_555
Mn38 O55 1.895837 1_555
Mn38 O75 2.002472 1_555
Mn38 O48 2.015473 1_555
Mn38 O69 2.030164 1_565
Mn38 O63 2.033401 1_555
Mn38 O42 2.087485 1_555
Mn39 O89 1.964840 1_555
Mn39 O53 1.964840 1_555
Mn39 O32 2.013768 1_555
Mn39 O59 2.013768 1_555
Mn39 O67 2.236652 1_555
Mn39 O62 2.236652 1_555
Mn40 O64 1.925153 1_555
Mn40 O44 1.974093 1_555
Mn40 O70 2.007856 1_565
Mn40 O76 2.048544 1_555
Mn40 O54 2.168426 1_555
Mn40 O49 2.221758 1_555
Mn41 O65 1.911209 1_555
Mn41 O56 1.921522 1_555
Mn41 O77 1.949681 1_555
Mn41 O43 1.956532 1_555
Mn41 O71 1.998452 1_565
Mn41 O50 2.014032 1_555
Mn42 O84 1.911209 1_555
Mn42 O51 1.921522 1_555
Mn42 O60 1.949681 1_555
Mn42 O55 1.956532 1_545
Mn42 O46 1.998452 1_555
Mn42 O69 2.014032 1_555
Mn43 O52 1.895837 1_555
Mn43 O61 2.002472 1_555
Mn43 O70 2.015473 1_555
Mn43 O45 2.030164 1_555
Mn43 O85 2.033401 1_555
Mn43 O54 2.087485 1_545
Mn44 O86 1.925153 1_555
Mn44 O56 1.974093 1_545
Mn44 O47 2.007856 1_555
Mn44 O62 2.048544 1_555
Mn44 O53 2.168426 1_555
Mn44 O71 2.221758 1_555
Mn45 O79 2.024178 1_555
Mn45 O52 2.041015 1_555
Mn45 O82 2.087856 1_545
Mn45 O48 2.112499 1_545
Mn46 O83 1.999271 1_545
Mn46 O78 2.018568 1_555
Mn46 O49 2.048893 1_545
Mn46 O53 2.056264 1_555
Mn47 O81 2.015751 1_545
Mn47 O51 2.018215 1_555
Mn47 O50 2.081369 1_544
Mn47 O80 2.096544 1_554
Mn48 O60 2.015751 1_555
Mn48 O91 2.018215 1_555
Mn48 O93 2.081369 1_555
Mn48 O63 2.096544 1_555
Mn49 O61 1.999271 1_555
Mn49 O64 2.018568 1_555
Mn49 O94 2.048893 1_555
Mn49 O90 2.056264 1_555
Mn50 O65 2.024178 1_555
Mn50 O92 2.041015 1_555
Mn50 O62 2.087856 1_555
Mn50 O95 2.112499 1_555
Mn51 O57 1.911209 1_555
Mn51 O91 1.921522 1_555
Mn51 O81 1.949681 1_555
Mn51 O87 1.956532 1_555
Mn51 O0 1.998452 1_655
Mn51 O74 2.014032 1_555
Mn52 O58 1.925153 1_555
Mn52 O88 1.974093 1_555
Mn52 O1 2.007856 1_655
Mn52 O82 2.048544 1_555
Mn52 O90 2.168426 1_555
Mn52 O72 2.221758 1_555
Mn53 O92 1.895837 1_555
Mn53 O83 2.002472 1_555
Mn53 O73 2.015473 1_555
Mn53 O2 2.030164 1_655
Mn53 O59 2.033401 1_555
Mn53 O89 2.087485 1_555
Mn54 O87 1.895837 1_555
Mn54 O68 2.002472 1_554
Mn54 O95 2.015473 1_554
Mn54 O74 2.030164 1_555
Mn54 O80 2.033401 1_554
Mn54 O5 2.087485 1_654
Mn55 O79 1.911209 1_555
Mn55 O88 1.921522 1_555
Mn55 O66 1.949681 1_555
Mn55 O3 1.956532 1_655
Mn55 O72 1.998452 1_555
Mn55 O93 2.014032 1_555
Mn56 O78 1.925153 1_555
Mn56 O4 1.974093 1_655
Mn56 O73 2.007856 1_555
Mn56 O67 2.048544 1_555
Mn56 O89 2.168426 1_555
Mn56 O94 2.221758 1_555
Mn57 O90 1.964840 1_555
Mn57 O54 1.964840 1_555
Mn57 O16 2.013768 1_655
Mn57 O85 2.013768 1_565
Mn57 O76 2.236652 1_555
Mn57 O82 2.236652 1_555
Mn58 O13 1.907792 1_655
Mn58 O75 1.907792 1_545
Mn58 O84 1.967132 1_555
Mn58 O79 1.967132 1_555
Mn58 O93 2.028603 1_555
Mn58 O69 2.028603 1_555
Mn59 O12 1.886229 1_655
Mn59 O78 1.915481 1_555
Mn59 O76 1.948068 1_545
Mn59 O94 1.951890 1_555
Mn59 O70 2.024818 1_555
Mn59 O85 2.078776 1_555
Mn60 O77 1.886229 1_545
Mn60 O86 1.915481 1_555
Mn60 O14 1.948068 1_655
Mn60 O71 1.951890 1_555
Mn60 O95 2.024818 1_555
Mn60 O80 2.078776 1_555
Mn61 O75 1.999271 1_455
Mn61 O10 2.018568 1_555
Mn61 O72 2.048893 1_455
Mn61 O6 2.056264 1_555
Mn62 O11 2.024178 1_555
Mn62 O7 2.041015 1_555
Mn62 O76 2.087856 1_455
Mn62 O73 2.112499 1_455
Mn63 O77 2.015751 1_455
Mn63 O8 2.018215 1_555
Mn63 O74 2.081369 1_456
Mn63 O9 2.096544 1_556
