# generated using pymatgen
data_RbAs7H24C8N3
_symmetry_space_group_name_H-M   'P 1'
_cell_length_a   9.50116500
_cell_length_b   13.48767600
_cell_length_c   19.51498176
_cell_angle_alpha   79.13828696
_cell_angle_beta   90.00000000
_cell_angle_gamma   90.00000000
_symmetry_Int_Tables_number   1
_chemical_formula_structural   RbAs7H24C8N3
_chemical_formula_sum   'Rb4 As28 H96 C32 N12'
_cell_volume   2456.01575120
_cell_formula_units_Z   4
loop_
 _symmetry_equiv_pos_site_id
 _symmetry_equiv_pos_as_xyz
  1  'x, y, z'
loop_
 _atom_site_type_symbol
 _atom_site_label
 _atom_site_symmetry_multiplicity
 _atom_site_fract_x
 _atom_site_fract_y
 _atom_site_fract_z
 _atom_site_occupancy
  Rb  Rb0  1  0.26993500  0.93153200  0.49511200  1
  Rb  Rb1  1  0.76993500  0.06846800  0.00488800  1
  Rb  Rb2  1  0.73006500  0.06846800  0.50488800  1
  Rb  Rb3  1  0.23006500  0.93153200  0.99511200  1
  As  As0  1  0.11051600  0.18256800  0.52039200  1
  As  As1  1  0.61051600  0.81743200  0.97960800  1
  As  As2  1  0.88948400  0.81743200  0.47960800  1
  As  As3  1  0.38948400  0.18256800  0.02039200  1
  As  As4  1  0.07335300  0.33555100  0.42299600  1
  As  As5  1  0.57335300  0.66444900  0.07700400  1
  As  As6  1  0.92664700  0.66444900  0.57700400  1
  As  As7  1  0.42664700  0.33555100  0.92299600  1
  As  As8  1  0.07811800  0.16045800  0.39261700  1
  As  As9  1  0.57811800  0.83954200  0.10738300  1
  As  As10  1  0.92188200  0.83954200  0.60738300  1
  As  As11  1  0.42188200  0.16045800  0.89261700  1
  As  As12  1  0.44143300  0.24352700  0.42182200  1
  As  As13  1  0.94143300  0.75647300  0.07817800  1
  As  As14  1  0.55856700  0.75647300  0.57817800  1
  As  As15  1  0.05856700  0.24352700  0.92182200  1
  As  As16  1  0.31356900  0.14172400  0.35091000  1
  As  As17  1  0.81356900  0.85827600  0.14909000  1
  As  As18  1  0.68643100  0.85827600  0.64909000  1
  As  As19  1  0.18643100  0.14172400  0.85091000  1
  As  As20  1  0.30426600  0.40124500  0.39286700  1
  As  As21  1  0.80426600  0.59875500  0.10713300  1
  As  As22  1  0.69573400  0.59875500  0.60713300  1
  As  As23  1  0.19573400  0.40124500  0.89286700  1
  As  As24  1  0.35890300  0.17276300  0.54016100  1
  As  As25  1  0.85890300  0.82723700  0.95983900  1
  As  As26  1  0.64109700  0.82723700  0.45983900  1
  As  As27  1  0.14109700  0.17276300  0.04016100  1
  H  H0  1  0.12028600  0.82454000  0.84707000  1
  H  H1  1  0.62028600  0.17546000  0.65293000  1
  H  H2  1  0.87971400  0.17546000  0.15293000  1
  H  H3  1  0.37971400  0.82454000  0.34707000  1
  H  H4  1  0.11187000  0.95564900  0.80493400  1
  H  H5  1  0.61187000  0.04435100  0.69506600  1
  H  H6  1  0.88813000  0.04435100  0.19506600  1
  H  H7  1  0.38813000  0.95564900  0.30493400  1
  H  H8  1  0.03919300  0.85899700  0.76186400  1
  H  H9  1  0.53919300  0.14100300  0.73813600  1
  H  H10  1  0.96080700  0.14100300  0.23813600  1
  H  H11  1  0.46080700  0.85899700  0.26186400  1
  H  H12  1  0.26794700  0.70791200  0.78600900  1
  H  H13  1  0.76794700  0.29208800  0.71399100  1
  H  H14  1  0.73205300  0.29208800  0.21399100  1
  H  H15  1  0.23205300  0.70791200  0.28600900  1
  H  H16  1  0.18242900  0.76032600  0.70387800  1
  H  H17  1  0.68242900  0.23967400  0.79612200  1
  H  H18  1  0.81757100  0.23967400  0.29612200  1
  H  H19  1  0.31757100  0.76032600  0.20387800  1
  H  H20  1  0.37141200  0.76449500  0.71046400  1
  H  H21  1  0.87141200  0.23550500  0.78953600  1
  H  H22  1  0.62858800  0.23550500  0.28953600  1
  H  H23  1  0.12858800  0.76449500  0.21046400  1
  H  H24  1  0.37538000  0.81670300  0.85598700  1
  H  H25  1  0.87538000  0.18329700  0.64401300  1
  H  H26  1  0.62462000  0.18329700  0.14401300  1
  H  H27  1  0.12462000  0.81670300  0.35598700  1
  H  H28  1  0.48138200  0.86637600  0.78039200  1
  H  H29  1  0.98138200  0.13362400  0.71960800  1
  H  H30  1  0.51861800  0.13362400  0.21960800  1
  H  H31  1  0.01861800  0.86637600  0.28039200  1
  H  H32  1  0.38295000  0.95161300  0.82374700  1
  H  H33  1  0.88295000  0.04838700  0.67625300  1
  H  H34  1  0.61705000  0.04838700  0.17625300  1
  H  H35  1  0.11705000  0.95161300  0.32374700  1
  H  H36  1  0.37801600  0.94619500  0.67359100  1
  H  H37  1  0.87801600  0.05380500  0.82640900  1
  H  H38  1  0.62198400  0.05380500  0.32640900  1
  H  H39  1  0.12198400  0.94619500  0.17359100  1
  H  H40  1  0.18979300  0.94030200  0.66056400  1
  H  H41  1  0.68979300  0.05969800  0.83943600  1
  H  H42  1  0.81020700  0.05969800  0.33943600  1
  H  H43  1  0.31020700  0.94030200  0.16056400  1
  H  H44  1  0.26117900  0.02406500  0.71389800  1
  H  H45  1  0.76117900  0.97593500  0.78610200  1
  H  H46  1  0.73882100  0.97593500  0.28610200  1
  H  H47  1  0.23882100  0.02406500  0.21389800  1
  H  H48  1  0.35670600  0.57839600  0.66368900  1
  H  H49  1  0.85670600  0.42160400  0.83631100  1
  H  H50  1  0.64329400  0.42160400  0.33631100  1
  H  H51  1  0.14329400  0.57839600  0.16368900  1
  H  H52  1  0.17366300  0.56340300  0.68718200  1
  H  H53  1  0.67366300  0.43659700  0.81281800  1
  H  H54  1  0.82633700  0.43659700  0.31281800  1
  H  H55  1  0.32633700  0.56340300  0.18718200  1
  H  H56  1  0.30467900  0.50382500  0.74770000  1
  H  H57  1  0.80467900  0.49617500  0.75230000  1
  H  H58  1  0.69532100  0.49617500  0.25230000  1
  H  H59  1  0.19532100  0.50382500  0.24770000  1
  H  H60  1  0.19292600  0.49239000  0.55681000  1
  H  H61  1  0.69292600  0.50761000  0.94319000  1
  H  H62  1  0.80707400  0.50761000  0.44319000  1
  H  H63  1  0.30707400  0.49239000  0.05681000  1
  H  H64  1  0.37637000  0.51639300  0.56999000  1
  H  H65  1  0.87637000  0.48360700  0.93001000  1
  H  H66  1  0.62363000  0.48360700  0.43001000  1
  H  H67  1  0.12363000  0.51639300  0.06999000  1
  H  H68  1  0.31931300  0.39138700  0.56203700  1
  H  H69  1  0.81931300  0.60861300  0.93796300  1
  H  H70  1  0.68068700  0.60861300  0.43796300  1
  H  H71  1  0.18068700  0.39138700  0.06203700  1
  H  H72  1  0.04862500  0.43935600  0.67383500  1
  H  H73  1  0.54862500  0.56064400  0.82616500  1
  H  H74  1  0.95137500  0.56064400  0.32616500  1
  H  H75  1  0.45137500  0.43935600  0.17383500  1
  H  H76  1  0.10990700  0.33580700  0.63538800  1
  H  H77  1  0.60990700  0.66419300  0.86461200  1
  H  H78  1  0.89009300  0.66419300  0.36461200  1
  H  H79  1  0.39009300  0.33580700  0.13538800  1
  H  H80  1  0.13553500  0.33271500  0.72794000  1
  H  H81  1  0.63553500  0.66728500  0.77206000  1
  H  H82  1  0.86446500  0.66728500  0.27206000  1
  H  H83  1  0.36446500  0.33271500  0.22794000  1
  H  H84  1  0.48708700  0.39803000  0.67768400  1
  H  H85  1  0.98708700  0.60197000  0.82231600  1
  H  H86  1  0.51291300  0.60197000  0.32231600  1
  H  H87  1  0.01291300  0.39803000  0.17768400  1
  H  H88  1  0.36825700  0.34529500  0.74879600  1
  H  H89  1  0.86825700  0.65470500  0.75120400  1
  H  H90  1  0.63174300  0.65470500  0.25120400  1
  H  H91  1  0.13174300  0.34529500  0.24879600  1
  H  H92  1  0.37467400  0.29231000  0.67004700  1
  H  H93  1  0.87467400  0.70769000  0.82995300  1
  H  H94  1  0.62532600  0.70769000  0.32995300  1
  H  H95  1  0.12532600  0.29231000  0.17004700  1
  C  C0  1  0.12299200  0.87742100  0.79668100  1
  C  C1  1  0.62299200  0.12257900  0.70331900  1
  C  C2  1  0.87700800  0.12257900  0.20331900  1
  C  C3  1  0.37700800  0.87742100  0.29668100  1
  C  C4  1  0.27152100  0.76721800  0.73899500  1
  C  C5  1  0.77152100  0.23278200  0.76100500  1
  C  C6  1  0.72847900  0.23278200  0.26100500  1
  C  C7  1  0.22847900  0.76721800  0.23899500  1
  C  C8  1  0.38405400  0.87661600  0.80930900  1
  C  C9  1  0.88405400  0.12338400  0.69069100  1
  C  C10  1  0.61594600  0.12338400  0.19069100  1
  C  C11  1  0.11594600  0.87661600  0.30930900  1
  C  C12  1  0.27381500  0.95093600  0.69747100  1
  C  C13  1  0.77381500  0.04906400  0.80252900  1
  C  C14  1  0.72618500  0.04906400  0.30252900  1
  C  C15  1  0.22618500  0.95093600  0.19747100  1
  C  C16  1  0.27745000  0.52682200  0.69205800  1
  C  C17  1  0.77745000  0.47317800  0.80794200  1
  C  C18  1  0.72255000  0.47317800  0.30794200  1
  C  C19  1  0.22255000  0.52682200  0.19205800  1
  C  C20  1  0.29124200  0.46033500  0.58139800  1
  C  C21  1  0.79124200  0.53966500  0.91860200  1
  C  C22  1  0.70875800  0.53966500  0.41860200  1
  C  C23  1  0.20875800  0.46033500  0.08139800  1
  C  C24  1  0.13012800  0.38114200  0.67568100  1
  C  C25  1  0.63012800  0.61885800  0.82431900  1
  C  C26  1  0.86987200  0.61885800  0.32431900  1
  C  C27  1  0.36987200  0.38114200  0.17568100  1
  C  C28  1  0.38465600  0.36151900  0.69183100  1
  C  C29  1  0.88465600  0.63848100  0.80816900  1
  C  C30  1  0.61534400  0.63848100  0.30816900  1
  C  C31  1  0.11534400  0.36151900  0.19183100  1
  N  N0  1  0.26227600  0.86813000  0.76099500  1
  N  N1  1  0.76227600  0.13187000  0.73900500  1
  N  N2  1  0.73772400  0.13187000  0.23900500  1
  N  N3  1  0.23772400  0.86813000  0.26099500  1
  N  N4  1  0.27059900  0.43337300  0.65993900  1
  N  N5  1  0.77059900  0.56662700  0.84006100  1
  N  N6  1  0.72940100  0.56662700  0.34006100  1
  N  N7  1  0.22940100  0.43337300  0.15993900  1
  N  N8  1  0.26888000  0.66877400  0.43062700  1
  N  N9  1  0.76888000  0.33122600  0.06937300  1
  N  N10  1  0.73112000  0.33122600  0.56937300  1
  N  N11  1  0.23112000  0.66877400  0.93062700  1
loop_
_geom_bond_atom_site_label_1
_geom_bond_atom_site_label_2
_geom_bond_distance
_geom_bond_site_symmetry_2
As0 As24 2.390928 1_555
As0 As4 2.552796 1_555
As0 As8 2.584880 1_555
As0 Rb0 3.825101 1_545
As0 Rb2 3.962528 1_455
As1 As25 2.390928 1_555
As1 As5 2.552796 1_556
As1 As9 2.584880 1_556
As1 Rb1 3.825101 1_566
As1 Rb3 3.962528 1_555
As2 As26 2.390928 1_555
As2 As6 2.552796 1_555
As2 Rb2 3.825101 1_565
As2 Rb0 3.962528 1_655
As3 As7 2.552796 1_554
As3 Rb3 3.825101 1_544
As3 Rb1 3.962528 1_555
As4 As8 2.541321 1_555
As5 As9 2.541321 1_555
As8 Rb0 3.811613 1_545
As8 Rb2 4.031239 1_455
As9 Rb1 3.811613 1_565
As9 Rb3 4.031239 1_554
As10 As18 2.410029 1_555
As10 As6 2.541321 1_555
As10 As2 2.584880 1_555
As10 Rb2 3.811613 1_565
As10 Rb0 4.031239 1_655
As11 As19 2.410029 1_555
As11 As7 2.541321 1_555
As11 As3 2.584880 1_556
As11 Rb3 3.811613 1_545
As11 Rb1 4.031239 1_556
As12 As16 2.447937 1_555
As12 As24 2.455273 1_555
As12 As20 2.467775 1_555
As12 Rb2 3.778976 1_555
As13 As17 2.447937 1_555
As13 As25 2.455273 1_554
As13 As21 2.467775 1_555
As13 Rb3 3.778976 1_654
As14 As18 2.447937 1_555
As14 As26 2.455273 1_555
As14 As22 2.467775 1_555
As14 Rb0 3.778976 1_555
As15 As19 2.447937 1_555
As15 As27 2.455273 1_556
As15 As23 2.467775 1_555
As15 Rb1 3.778976 1_456
As16 As8 2.410029 1_555
As16 Rb0 3.622366 1_545
As17 As9 2.410029 1_555
As17 Rb1 3.622366 1_565
As18 Rb2 3.622366 1_565
As19 Rb3 3.622366 1_545
As20 As4 2.397467 1_555
As21 As5 2.397467 1_555
As22 As6 2.397467 1_555
As23 As7 2.397467 1_555
As24 Rb0 3.626517 1_545
As24 Rb2 3.905580 1_555
As25 Rb1 3.626517 1_566
As25 Rb3 3.905580 1_655
As26 Rb2 3.626517 1_565
As26 Rb0 3.905580 1_555
As27 As3 2.390928 1_555
As27 Rb3 3.626517 1_544
As27 Rb1 3.905580 1_455
H40 Rb0 3.341082 1_555
H41 Rb1 3.341082 1_556
H42 Rb2 3.341082 1_555
H43 Rb3 3.341082 1_554
C0 H0 1.100911 1_555
C0 H4 1.102005 1_555
C0 H8 1.104969 1_555
C0 N0 1.511577 1_555
C1 H1 1.100911 1_555
C1 H5 1.102005 1_555
C1 H9 1.104969 1_555
C1 N1 1.511577 1_555
C2 H2 1.100911 1_555
C2 H6 1.102005 1_555
C2 H10 1.104969 1_555
C2 N2 1.511577 1_555
C3 H3 1.100911 1_555
C3 H7 1.102005 1_555
C3 H11 1.104969 1_555
C3 N3 1.511577 1_555
C4 H12 1.098258 1_555
C4 H16 1.104002 1_555
C4 H20 1.104453 1_555
C4 N0 1.504917 1_555
C5 H13 1.098258 1_555
C5 H17 1.104002 1_555
C5 H21 1.104453 1_555
C5 N1 1.504917 1_555
C6 H14 1.098258 1_555
C6 H18 1.104002 1_555
C6 H22 1.104453 1_555
C6 N2 1.504917 1_555
C7 H15 1.098258 1_555
C7 H19 1.104002 1_555
C7 H23 1.104453 1_555
C7 N3 1.504917 1_555
C8 H32 1.100052 1_555
C8 H24 1.100977 1_555
C8 H28 1.105452 1_555
C8 N0 1.510449 1_555
C9 H33 1.100052 1_555
C9 H25 1.100977 1_555
C9 H29 1.105452 1_555
C9 N1 1.510449 1_555
C10 H34 1.100052 1_555
C10 H26 1.100977 1_555
C10 H30 1.105452 1_555
C10 N2 1.510449 1_555
C11 H35 1.100052 1_555
C11 H27 1.100977 1_555
C11 H31 1.105452 1_555
C11 N3 1.510449 1_555
C12 H44 1.099643 1_565
C12 H36 1.101205 1_555
C12 H40 1.102517 1_555
C12 N0 1.508103 1_555
C13 H45 1.099643 1_545
C13 H37 1.101205 1_555
C13 H41 1.102517 1_555
C13 N1 1.508103 1_555
C14 H46 1.099643 1_545
C14 H38 1.101205 1_555
C14 H42 1.102517 1_555
C14 N2 1.508103 1_555
C15 H47 1.099643 1_565
C15 H39 1.101205 1_555
C15 H43 1.102517 1_555
C15 N3 1.508103 1_555
C16 H52 1.098720 1_555
C16 H48 1.101036 1_555
C16 H56 1.102397 1_555
C16 N4 1.511124 1_555
C17 H53 1.098720 1_555
C17 H49 1.101036 1_555
C17 H57 1.102397 1_555
C17 N5 1.511124 1_555
C18 H54 1.098720 1_555
C18 H50 1.101036 1_555
C18 H58 1.102397 1_555
C18 N6 1.511124 1_555
C19 H55 1.098720 1_555
C19 H51 1.101036 1_555
C19 H59 1.102397 1_555
C19 N7 1.511124 1_555
C20 H68 1.100506 1_555
C20 H60 1.100706 1_555
C20 H64 1.100900 1_555
C20 N4 1.519834 1_555
C21 H69 1.100506 1_555
C21 H61 1.100706 1_555
C21 H65 1.100900 1_555
C21 N5 1.519834 1_555
C22 H70 1.100506 1_555
C22 H62 1.100706 1_555
C22 H66 1.100900 1_555
C22 N6 1.519834 1_555
C23 H71 1.100506 1_555
C23 H63 1.100706 1_555
C23 H67 1.100900 1_555
C23 N7 1.519834 1_555
C24 H72 1.098538 1_555
C24 H76 1.100136 1_555
C24 H80 1.103757 1_555
C24 N4 1.513392 1_555
C25 H73 1.098538 1_555
C25 H77 1.100136 1_555
C25 H81 1.103757 1_555
C25 N5 1.513392 1_555
C26 H74 1.098538 1_555
C26 H78 1.100136 1_555
C26 H82 1.103757 1_555
C26 N6 1.513392 1_555
C27 H75 1.098538 1_555
C27 H79 1.100136 1_555
C27 H83 1.103757 1_555
C27 N7 1.513392 1_555
C28 H92 1.100290 1_555
C28 H84 1.102103 1_555
C28 H88 1.102857 1_555
C28 N4 1.507851 1_555
C29 H93 1.100290 1_555
C29 H85 1.102103 1_555
C29 H89 1.102857 1_555
C29 N5 1.507851 1_555
C30 H94 1.100290 1_555
C30 H86 1.102103 1_555
C30 H90 1.102857 1_555
C30 N6 1.507851 1_555
C31 H95 1.100290 1_555
C31 H87 1.102103 1_555
C31 H91 1.102857 1_555
C31 N7 1.507851 1_555
