# generated using pymatgen
data_HfPbO3
_symmetry_space_group_name_H-M   'P 1'
_cell_length_a   5.79707532
_cell_length_b   5.79311185
_cell_length_c   8.19633351
_cell_angle_alpha   90.00000000
_cell_angle_beta   90.00000000
_cell_angle_gamma   90.00000000
_symmetry_Int_Tables_number   1
_chemical_formula_structural   HfPbO3
_chemical_formula_sum   'Hf4 Pb4 O12'
_cell_volume   275.25833488
_cell_formula_units_Z   4
loop_
 _symmetry_equiv_pos_site_id
 _symmetry_equiv_pos_as_xyz
  1  'x, y, z'
loop_
 _atom_site_type_symbol
 _atom_site_label
 _atom_site_symmetry_multiplicity
 _atom_site_fract_x
 _atom_site_fract_y
 _atom_site_fract_z
 _atom_site_occupancy
  Hf  Hf0  1  -0.00000000  0.00000000  0.50000000  1
  Hf  Hf1  1  -0.00000000  0.00000000  -0.00000000  1
  Hf  Hf2  1  0.50000000  0.50000000  0.50000000  1
  Hf  Hf3  1  0.50000000  0.50000000  -0.00000000  1
  Pb  Pb0  1  0.49530682  0.01059484  0.75000000  1
  Pb  Pb1  1  0.99530682  0.48940516  0.25000000  1
  Pb  Pb2  1  0.00469318  0.51059484  0.75000000  1
  Pb  Pb3  1  0.50469318  0.98940516  0.25000000  1
  O  O0  1  0.05979230  0.00589206  0.25000000  1
  O  O1  1  0.71967826  0.21966799  0.03146874  1
  O  O2  1  0.71967826  0.21966799  0.46853126  1
  O  O3  1  0.21967826  0.28033201  0.96853126  1
  O  O4  1  0.21967826  0.28033201  0.53146874  1
  O  O5  1  0.55979230  0.49410794  0.75000000  1
  O  O6  1  0.44020770  0.50589206  0.25000000  1
  O  O7  1  0.78032174  0.71966799  0.03146874  1
  O  O8  1  0.78032174  0.71966799  0.46853126  1
  O  O9  1  0.28032174  0.78033201  0.53146874  1
  O  O10  1  0.28032174  0.78033201  0.96853126  1
  O  O11  1  0.94020770  0.99410794  0.75000000  1
loop_
_geom_bond_atom_site_label_1
_geom_bond_atom_site_label_2
_geom_bond_distance
_geom_bond_site_symmetry_2
Hf0 O11 2.078474 1_445
Hf0 O0 2.078474 1_555
Hf0 O8 2.079824 1_445
Hf0 O4 2.079824 1_555
Hf0 O2 2.080076 1_455
Hf0 O9 2.080076 1_545
Hf1 O0 2.078474 1_555
Hf1 O11 2.078474 1_444
Hf1 O3 2.079824 1_554
Hf1 O7 2.079824 1_445
Hf1 O1 2.080076 1_455
Hf1 O10 2.080076 1_544
Hf2 O5 2.078474 1_555
Hf2 O6 2.078474 1_555
Hf2 O2 2.079824 1_555
Hf2 O9 2.079824 1_555
Hf2 O4 2.080076 1_555
Hf2 O8 2.080076 1_555
Hf3 O5 2.078474 1_554
Hf3 O6 2.078474 1_555
Hf3 O1 2.079824 1_555
Hf3 O10 2.079824 1_554
Hf3 O3 2.080076 1_554
Hf3 O7 2.080076 1_555
O0 Pb3 2.580892 1_545
O1 Pb3 2.557509 1_545
O2 Pb3 2.557509 1_545
O3 Pb2 2.557509 1_555
O4 Pb2 2.557509 1_555
O5 Pb2 2.580892 1_655
O6 Pb1 2.580892 1_455
O7 Pb1 2.557509 1_555
O8 Pb1 2.557509 1_555
O9 Pb0 2.557509 1_565
O10 Pb0 2.557509 1_565
O11 Pb0 2.580892 1_565
