# generated using pymatgen
data_Mn8O13F3
_symmetry_space_group_name_H-M   'P 1'
_cell_length_a   4.51754200
_cell_length_b   5.55272262
_cell_length_c   9.96303543
_cell_angle_alpha   89.65844756
_cell_angle_beta   89.58086961
_cell_angle_gamma   87.49677094
_symmetry_Int_Tables_number   1
_chemical_formula_structural   Mn8O13F3
_chemical_formula_sum   'Mn8 O13 F3'
_cell_volume   249.67018876
_cell_formula_units_Z   1
loop_
 _symmetry_equiv_pos_site_id
 _symmetry_equiv_pos_as_xyz
  1  'x, y, z'
loop_
 _atom_site_type_symbol
 _atom_site_label
 _atom_site_symmetry_multiplicity
 _atom_site_fract_x
 _atom_site_fract_y
 _atom_site_fract_z
 _atom_site_occupancy
  Mn  Mn0  1  0.98466600  0.83885900  0.62825700  1
  Mn  Mn1  1  0.99608000  0.14619900  0.36894500  1
  Mn  Mn2  1  0.01967900  0.86211900  0.12347700  1
  Mn  Mn3  1  0.97888900  0.13668500  0.87540600  1
  Mn  Mn4  1  0.50226900  0.66096800  0.88128000  1
  Mn  Mn5  1  0.49393600  0.64908400  0.37938200  1
  Mn  Mn6  1  0.48691200  0.33871100  0.12193800  1
  Mn  Mn7  1  0.52286200  0.36006000  0.62338700  1
  O  O0  1  0.77252400  0.88932100  0.46038700  1
  O  O1  1  0.77329100  0.89509100  0.96656700  1
  O  O2  1  0.77462300  0.11331400  0.21026400  1
  O  O3  1  0.76098800  0.11228600  0.70963600  1
  O  O4  1  0.74392000  0.39309600  0.46003400  1
  O  O5  1  0.72507200  0.60829000  0.71372400  1
  O  O6  1  0.72513500  0.38252000  0.96033300  1
  O  O7  1  0.26514800  0.61612400  0.04106200  1
  O  O8  1  0.27344900  0.38798800  0.29003100  1
  O  O9  1  0.27116000  0.61068400  0.54067800  1
  O  O10  1  0.24354800  0.89150200  0.28877700  1
  O  O11  1  0.22554600  0.10426700  0.03333400  1
  O  O12  1  0.22112900  0.88383700  0.78830000  1
  F  F0  1  0.74575500  0.62579000  0.21146500  1
  F  F1  1  0.25278800  0.37265100  0.78519000  1
  F  F2  1  0.24062800  0.12055500  0.53814800  1
loop_
_geom_bond_atom_site_label_1
_geom_bond_atom_site_label_2
_geom_bond_distance
_geom_bond_site_symmetry_2
Mn0 O0 1.946436 1_555
Mn0 O12 1.949087 1_655
Mn0 O5 1.960366 1_555
Mn0 O3 1.962710 1_565
Mn0 O9 1.973605 1_655
Mn1 O2 1.891071 1_555
Mn1 O10 1.936540 1_645
Mn1 O4 1.965717 1_555
Mn1 O0 1.995333 1_545
Mn1 O8 2.027490 1_655
Mn2 O11 1.887330 1_565
Mn2 O7 1.907208 1_555
Mn2 O1 1.928883 1_454
Mn2 O2 1.945304 1_465
Mn2 O10 1.950296 1_555
Mn3 O1 1.889225 1_545
Mn3 O3 1.937304 1_555
Mn3 O11 1.937654 1_656
Mn3 O6 1.938119 1_555
Mn3 O12 1.946363 1_645
Mn4 O7 1.933209 1_556
Mn4 O5 1.959835 1_555
Mn4 O12 1.966961 1_555
Mn4 O6 1.971206 1_555
Mn4 O1 2.019539 1_555
Mn5 O9 1.905714 1_555
Mn5 O10 1.942608 1_555
Mn5 O4 1.949596 1_555
Mn5 O8 2.010226 1_555
Mn5 O0 2.046720 1_555
Mn6 O8 1.941201 1_555
Mn6 O6 1.950010 1_554
Mn6 O7 1.971791 1_555
Mn6 O2 1.972729 1_555
Mn6 O11 2.007812 1_555
Mn7 O3 1.912761 1_555
Mn7 O4 1.915287 1_555
Mn7 O5 1.918641 1_555
Mn7 O9 1.941766 1_555
F0 Mn5 2.017810 1_555
F0 Mn2 2.033250 1_655
F0 Mn6 2.213375 1_555
F1 Mn7 2.014269 1_555
F1 Mn3 2.041321 1_455
F1 Mn4 2.222932 1_555
F2 Mn1 2.023177 1_455
F2 Mn7 2.071934 1_555
F2 Mn0 2.171581 1_445
