# generated using pymatgen
data_Li2V(CO3)2
_symmetry_space_group_name_H-M   'P 1'
_cell_length_a   9.01812527
_cell_length_b   9.01812527
_cell_length_c   9.86215051
_cell_angle_alpha   56.81618735
_cell_angle_beta   56.81618735
_cell_angle_gamma   71.85790404
_symmetry_Int_Tables_number   1
_chemical_formula_structural   Li2V(CO3)2
_chemical_formula_sum   'Li8 V4 C8 O24'
_cell_volume   561.70626188
_cell_formula_units_Z   4
loop_
 _symmetry_equiv_pos_site_id
 _symmetry_equiv_pos_as_xyz
  1  'x, y, z'
loop_
 _atom_site_type_symbol
 _atom_site_label
 _atom_site_symmetry_multiplicity
 _atom_site_fract_x
 _atom_site_fract_y
 _atom_site_fract_z
 _atom_site_occupancy
  Li  Li0  1  0.62570400  0.37429600  0.00000000  1
  Li  Li1  1  0.68347700  0.31652300  0.50000000  1
  Li  Li2  1  0.28858200  0.21919800  0.00104100  1
  Li  Li3  1  0.17490200  0.17808100  0.57391400  1
  Li  Li4  1  0.78080200  0.71141800  0.99895900  1
  Li  Li5  1  0.32058400  0.67941600  0.00000000  1
  Li  Li6  1  0.82191900  0.82509800  0.42608600  1
  Li  Li7  1  0.37530500  0.62469500  0.50000000  1
  V  V0  1  0.46559100  0.46665300  0.28417900  1
  V  V1  1  0.53334700  0.53440900  0.71582100  1
  V  V2  1  0.97304300  0.02695700  0.50000000  1
  V  V3  1  0.02971000  0.97029000  0.00000000  1
  C  C0  1  0.26469100  0.32779400  0.19050700  1
  C  C1  1  0.83534300  0.23771800  0.73287100  1
  C  C2  1  0.76228200  0.16465700  0.26712900  1
  C  C3  1  0.33142300  0.25996400  0.71903400  1
  C  C4  1  0.23912600  0.83508300  0.69388800  1
  C  C5  1  0.67220600  0.73530900  0.80949300  1
  C  C6  1  0.74003600  0.66857700  0.28096600  1
  C  C7  1  0.16491700  0.76087400  0.30611200  1
  O  O0  1  0.36467600  0.42787500  0.01316000  1
  O  O1  1  0.16692300  0.21249300  0.23740300  1
  O  O2  1  0.43697600  0.35234700  0.69896200  1
  O  O3  1  0.27014800  0.34768800  0.30720500  1
  O  O4  1  0.66686200  0.29259800  0.19794100  1
  O  O5  1  0.84757100  0.22391000  0.60245400  1
  O  O6  1  0.70740200  0.33313800  0.80205900  1
  O  O7  1  0.34109600  0.27817500  0.57590800  1
  O  O8  1  0.95048000  0.16294800  0.79111600  1
  O  O9  1  0.16217400  0.95136700  0.59784500  1
  O  O10  1  0.77609000  0.15242900  0.39754600  1
  O  O11  1  0.78750700  0.83307700  0.76259700  1
  O  O12  1  0.22388700  0.15300500  0.88515400  1
  O  O13  1  0.22641100  0.84462600  0.82680900  1
  O  O14  1  0.83705200  0.04952000  0.20888400  1
  O  O15  1  0.84699500  0.77611300  0.11484600  1
  O  O16  1  0.65231200  0.72985200  0.69279500  1
  O  O17  1  0.15537400  0.77358900  0.17319100  1
  O  O18  1  0.64765300  0.56302400  0.30103800  1
  O  O19  1  0.33419800  0.70872100  0.65460800  1
  O  O20  1  0.57212500  0.63532400  0.98684000  1
  O  O21  1  0.72182500  0.65890400  0.42409200  1
  O  O22  1  0.04863300  0.83782600  0.40215500  1
  O  O23  1  0.29127900  0.66580200  0.34539200  1
loop_
_geom_bond_atom_site_label_1
_geom_bond_atom_site_label_2
_geom_bond_distance
_geom_bond_site_symmetry_2
Li0 O6 1.881445 1_554
Li0 O4 1.881445 1_555
Li0 O0 2.194868 1_555
Li0 O20 2.194868 1_554
Li1 O5 1.962568 1_555
Li1 O10 1.962568 1_555
Li1 O2 2.090000 1_555
Li1 O18 2.090000 1_555
Li2 O12 1.922638 1_554
Li2 O1 1.930954 1_555
Li2 O2 2.197433 1_554
Li2 O0 2.273070 1_555
Li3 O8 1.951802 1_455
Li3 O9 1.958899 1_545
Li3 O3 1.984161 1_555
Li3 O7 1.988882 1_555
Li4 O15 1.922638 1_556
Li4 O11 1.930954 1_555
Li4 O18 2.197433 1_556
Li4 O20 2.273070 1_555
Li5 O17 1.967905 1_555
Li5 O13 1.967905 1_554
Li5 O0 2.119722 1_555
Li5 O20 2.119722 1_554
Li6 O14 1.951802 1_565
Li6 O22 1.958899 1_655
Li6 O16 1.984161 1_555
Li6 O21 1.988882 1_555
Li7 O19 1.872865 1_555
Li7 O23 1.872865 1_555
Li7 O18 2.293528 1_555
Li7 O2 2.293528 1_555
C0 O3 1.285567 1_555
C0 O1 1.292508 1_555
C0 O0 1.318775 1_555
C1 O8 1.286712 1_555
C1 O5 1.301332 1_555
C1 O6 1.303818 1_555
C2 O14 1.286712 1_555
C2 O10 1.301332 1_555
C2 O4 1.303818 1_555
C3 O7 1.283502 1_555
C3 O12 1.291672 1_555
C3 O2 1.321530 1_555
C4 O9 1.287433 1_555
C4 O13 1.300687 1_555
C4 O19 1.301901 1_555
C5 O16 1.285567 1_555
C5 O11 1.292508 1_555
C5 O20 1.318775 1_555
C6 O21 1.283502 1_555
C6 O15 1.291672 1_555
C6 O18 1.321530 1_555
C7 O22 1.287433 1_555
C7 O17 1.300687 1_555
C7 O23 1.301901 1_555
O0 V1 2.186139 1_554
O1 V2 2.164568 1_455
O2 V1 2.196421 1_555
O3 V0 2.186736 1_555
O4 V0 2.116349 1_555
O5 V2 2.217522 1_555
O6 V1 2.116349 1_555
O7 V0 2.174054 1_555
O8 V3 2.166366 1_646
O9 V2 2.159271 1_465
O10 V2 2.217522 1_555
O11 V2 2.164568 1_565
O12 V3 2.155727 1_546
O13 V3 2.213284 1_556
O14 V3 2.166366 1_645
O15 V3 2.155727 1_655
O16 V1 2.186736 1_555
O17 V3 2.213284 1_555
O18 V0 2.196421 1_555
O19 V1 2.109703 1_555
O20 V0 2.186139 1_556
O21 V1 2.174054 1_555
O22 V2 2.159271 1_465
O23 V0 2.109703 1_555
