# generated using pymatgen
data_MnCoO4
_symmetry_space_group_name_H-M   'P 1'
_cell_length_a   4.35457418
_cell_length_b   4.35457418
_cell_length_c   2.91659300
_cell_angle_alpha   90.00000000
_cell_angle_beta   90.00000000
_cell_angle_gamma   90.50946101
_symmetry_Int_Tables_number   1
_chemical_formula_structural   MnCoO4
_chemical_formula_sum   'Mn1 Co1 O4'
_cell_volume   55.30317262
_cell_formula_units_Z   1
loop_
 _symmetry_equiv_pos_site_id
 _symmetry_equiv_pos_as_xyz
  1  'x, y, z'
loop_
 _atom_site_type_symbol
 _atom_site_label
 _atom_site_symmetry_multiplicity
 _atom_site_fract_x
 _atom_site_fract_y
 _atom_site_fract_z
 _atom_site_occupancy
  Mn  Mn0  1  0.00000000  0.00000000  0.50000000  1
  Co  Co0  1  0.50000000  0.50000000  0.00000000  1
  O  O0  1  0.69042100  0.30957900  0.50000000  1
  O  O1  1  0.20036700  0.20036700  0.00000000  1
  O  O2  1  0.79963300  0.79963300  0.00000000  1
  O  O3  1  0.30957900  0.69042100  0.50000000  1
loop_
_geom_bond_atom_site_label_1
_geom_bond_atom_site_label_2
_geom_bond_distance
_geom_bond_site_symmetry_2
Mn0 O1 1.906738 1_555
Mn0 O1 1.906738 1_556
Mn0 O2 1.906738 1_446
Mn0 O2 1.906738 1_445
Mn0 O0 1.914937 1_455
Mn0 O3 1.914937 1_545
Co0 O1 1.837007 1_555
Co0 O2 1.837007 1_555
Co0 O0 1.874569 1_554
Co0 O3 1.874569 1_555
Co0 O3 1.874569 1_554
Co0 O0 1.874569 1_555
