# generated using pymatgen
data_Mn3Ni3(TeO8)2
_symmetry_space_group_name_H-M   'P 1'
_cell_length_a   5.88188883
_cell_length_b   5.88188883
_cell_length_c   9.19070067
_cell_angle_alpha   88.29636955
_cell_angle_beta   88.29636955
_cell_angle_gamma   59.21449400
_symmetry_Int_Tables_number   1
_chemical_formula_structural   Mn3Ni3(TeO8)2
_chemical_formula_sum   'Mn3 Ni3 Te2 O16'
_cell_volume   273.00245933
_cell_formula_units_Z   1
loop_
 _symmetry_equiv_pos_site_id
 _symmetry_equiv_pos_as_xyz
  1  'x, y, z'
loop_
 _atom_site_type_symbol
 _atom_site_label
 _atom_site_symmetry_multiplicity
 _atom_site_fract_x
 _atom_site_fract_y
 _atom_site_fract_z
 _atom_site_occupancy
  Mn  Mn0  1  0.33766800  0.83398700  0.78868900  1
  Mn  Mn1  1  0.83398700  0.33766800  0.78868900  1
  Mn  Mn2  1  0.16853500  0.16853500  0.28668800  1
  Ni  Ni0  1  0.83101800  0.83101800  0.78921300  1
  Ni  Ni1  1  0.16868200  0.66379400  0.28977700  1
  Ni  Ni2  1  0.66379400  0.16868200  0.28977700  1
  Te  Te0  1  0.67149500  0.67149500  0.50977200  1
  Te  Te1  1  0.33638400  0.33638400  0.01513500  1
  O  O0  1  0.34492600  0.83381000  0.40380600  1
  O  O1  1  0.51992800  0.51992800  0.66336900  1
  O  O2  1  0.65696800  0.65696800  0.89217400  1
  O  O3  1  0.00790300  0.00790300  0.69485700  1
  O  O4  1  0.00423800  0.00423800  0.19727900  1
  O  O5  1  0.83381000  0.34492600  0.40380600  1
  O  O6  1  0.50571000  0.96168500  0.65362500  1
  O  O7  1  0.96168500  0.50571000  0.65362500  1
  O  O8  1  0.17107100  0.17107100  0.89825500  1
  O  O9  1  0.83768400  0.83768400  0.40795300  1
  O  O10  1  0.03207200  0.46904300  0.15327000  1
  O  O11  1  0.46904300  0.03207200  0.15327000  1
  O  O12  1  0.32865500  0.32865500  0.38585900  1
  O  O13  1  0.17220200  0.66318500  0.90479500  1
  O  O14  1  0.47923100  0.47923100  0.15579700  1
  O  O15  1  0.66318500  0.17220200  0.90479500  1
loop_
_geom_bond_atom_site_label_1
_geom_bond_atom_site_label_2
_geom_bond_distance
_geom_bond_site_symmetry_2
Mn0 O2 1.887197 1_555
Mn0 O3 1.888983 1_565
Mn0 O6 1.927063 1_555
Mn0 O1 1.978421 1_555
Mn0 O13 1.992639 1_555
Mn0 O8 1.994127 1_565
Mn1 O2 1.887197 1_555
Mn1 O3 1.888983 1_655
Mn1 O7 1.927063 1_555
Mn1 O1 1.978421 1_555
Mn1 O15 1.992639 1_555
Mn1 O8 1.994127 1_655
Mn2 O4 1.895630 1_555
Mn2 O12 1.901265 1_555
Mn2 O11 1.936347 1_555
Mn2 O10 1.936347 1_555
Mn2 O5 1.990153 1_455
Mn2 O0 1.990153 1_545
Ni0 O3 1.979330 1_665
Ni0 O2 1.987256 1_555
Ni0 O15 2.041250 1_565
Ni0 O13 2.041250 1_655
Ni0 O7 2.093855 1_555
Ni0 O6 2.093855 1_555
Ni1 O12 1.896892 1_555
Ni1 O4 1.906067 1_565
Ni1 O9 1.979423 1_455
Ni1 O14 1.986753 1_555
Ni1 O0 2.088320 1_555
Ni1 O10 2.149289 1_555
Ni2 O12 1.896892 1_555
Ni2 O4 1.906067 1_655
Ni2 O9 1.979423 1_545
Ni2 O14 1.986753 1_555
Ni2 O5 2.088320 1_555
Ni2 O11 2.149289 1_555
O0 Te0 1.930885 1_555
O1 Te0 2.060644 1_555
O5 Te0 1.930885 1_555
O6 Te0 1.991478 1_555
O7 Te0 1.991478 1_555
O8 Te1 2.033939 1_556
O9 Te0 1.912085 1_555
O10 Te1 1.979537 1_555
O11 Te1 1.979537 1_555
O13 Te1 1.923020 1_556
O14 Te1 1.983687 1_555
O15 Te1 1.923020 1_556
