# generated using pymatgen
data_Mn12O7F17
_symmetry_space_group_name_H-M   'P 1'
_cell_length_a   4.78120200
_cell_length_b   5.72463208
_cell_length_c   16.00249135
_cell_angle_alpha   90.09302970
_cell_angle_beta   90.30160239
_cell_angle_gamma   92.53723864
_symmetry_Int_Tables_number   1
_chemical_formula_structural   Mn12O7F17
_chemical_formula_sum   'Mn12 O7 F17'
_cell_volume   437.56194257
_cell_formula_units_Z   1
loop_
 _symmetry_equiv_pos_site_id
 _symmetry_equiv_pos_as_xyz
  1  'x, y, z'
loop_
 _atom_site_type_symbol
 _atom_site_label
 _atom_site_symmetry_multiplicity
 _atom_site_fract_x
 _atom_site_fract_y
 _atom_site_fract_z
 _atom_site_occupancy
  Mn  Mn0  1  0.01909200  0.82391800  0.58135200  1
  Mn  Mn1  1  0.01289200  0.16330000  0.75875200  1
  Mn  Mn2  1  0.99400400  0.84491100  0.92078500  1
  Mn  Mn3  1  0.04745500  0.82882100  0.24352100  1
  Mn  Mn4  1  0.01975100  0.16716500  0.42504800  1
  Mn  Mn5  1  0.01344400  0.15990200  0.09079700  1
  Mn  Mn6  1  0.47916400  0.66291600  0.42321400  1
  Mn  Mn7  1  0.50680500  0.65020400  0.07985400  1
  Mn  Mn8  1  0.52481700  0.66640100  0.73856500  1
  Mn  Mn9  1  0.48990700  0.35026600  0.91593900  1
  Mn  Mn10  1  0.49251200  0.34672300  0.58101900  1
  Mn  Mn11  1  0.48653600  0.34504900  0.24485300  1
  O  O0  1  0.22057000  0.11569800  0.86952800  1
  O  O1  1  0.23381300  0.10300500  0.53354500  1
  O  O2  1  0.23570000  0.11261800  0.19365100  1
  O  O3  1  0.26371800  0.59537700  0.52627100  1
  O  O4  1  0.29962200  0.60224100  0.18539400  1
  O  O5  1  0.70996500  0.61818300  0.97159300  1
  O  O6  1  0.73634000  0.60446100  0.62985800  1
  F  F0  1  0.21728500  0.88757500  0.69750300  1
  F  F1  1  0.22931300  0.89299000  0.36066500  1
  F  F2  1  0.22232700  0.87874600  0.02894000  1
  F  F3  1  0.25570100  0.61305800  0.85565600  1
  F  F4  1  0.26961400  0.38518800  0.69440600  1
  F  F5  1  0.26206400  0.39998200  0.35596100  1
  F  F6  1  0.26493400  0.38447800  0.02332900  1
  F  F7  1  0.71762500  0.38534400  0.80869700  1
  F  F8  1  0.71971100  0.38595900  0.46673100  1
  F  F9  1  0.74406600  0.39276900  0.13645600  1
  F  F10  1  0.73322200  0.61612800  0.30379200  1
  F  F11  1  0.76413100  0.88831700  0.81299200  1
  F  F12  1  0.76782800  0.88986000  0.47310000  1
  F  F13  1  0.75884100  0.11098900  0.64341700  1
  F  F14  1  0.76044000  0.11869800  0.98094900  1
  F  F15  1  0.76742900  0.88212900  0.13903300  1
  F  F16  1  0.75936400  0.12663000  0.30483200  1
loop_
_geom_bond_atom_site_label_1
_geom_bond_atom_site_label_2
_geom_bond_distance
_geom_bond_site_symmetry_2
Mn0 O6 1.967813 1_455
Mn0 O3 1.999794 1_555
Mn0 O1 2.014646 1_565
Mn1 O0 2.051741 1_555
Mn2 O5 2.012207 1_555
Mn2 O0 2.028308 1_665
Mn3 O2 1.992156 1_565
Mn3 O4 2.036573 1_555
Mn4 O1 2.052685 1_555
Mn5 O2 1.979912 1_555
Mn6 O3 1.978642 1_555
Mn7 O4 1.975874 1_555
Mn7 O5 2.002733 1_554
Mn8 O6 2.054980 1_555
Mn9 O0 1.961287 1_555
Mn9 O5 2.023689 1_555
Mn10 O1 1.971674 1_555
Mn10 O6 1.995300 1_555
Mn10 O3 2.030330 1_555
Mn11 O2 1.930011 1_555
Mn11 O4 1.995955 1_555
F0 Mn8 2.086681 1_555
F0 Mn0 2.105757 1_555
F0 Mn1 2.132774 1_565
F1 Mn6 2.072351 1_555
F1 Mn3 2.087440 1_555
F1 Mn4 2.161888 1_565
F2 Mn2 2.045734 1_454
F2 Mn7 2.091618 1_555
F2 Mn5 2.171486 1_565
F3 Mn2 2.137692 1_455
F3 Mn9 2.142474 1_555
F3 Mn8 2.291773 1_555
F4 Mn1 2.014912 1_555
F4 Mn8 2.095971 1_555
F4 Mn10 2.125183 1_555
F5 Mn4 2.054847 1_555
F5 Mn6 2.084696 1_555
F5 Mn11 2.111920 1_555
F6 Mn5 2.036074 1_555
F6 Mn9 2.045886 1_554
F6 Mn7 2.073235 1_555
F7 Mn9 2.042621 1_555
F7 Mn1 2.101186 1_655
F7 Mn8 2.196440 1_555
F8 Mn4 2.058667 1_655
F8 Mn6 2.116133 1_555
F8 Mn10 2.139149 1_555
F9 Mn5 2.031879 1_655
F9 Mn7 2.102536 1_555
F9 Mn11 2.143336 1_555
F10 Mn11 2.123756 1_555
F10 Mn3 2.127699 1_655
F10 Mn6 2.291492 1_555
F11 Mn8 2.047843 1_555
F11 Mn2 2.061743 1_555
F11 Mn1 2.120275 1_665
F12 Mn6 2.014014 1_555
F12 Mn4 2.099184 1_665
F12 Mn0 2.146384 1_655
F13 Mn10 2.140744 1_555
F13 Mn1 2.216734 1_655
F13 Mn0 2.328989 1_645
F14 Mn5 2.135401 1_656
F14 Mn9 2.157497 1_555
F14 Mn2 2.189040 1_545
F15 Mn7 2.012299 1_555
F15 Mn5 2.087078 1_665
F15 Mn3 2.166968 1_655
F16 Mn11 2.078789 1_555
F16 Mn4 2.291805 1_655
F16 Mn3 2.446040 1_645
