# generated using pymatgen
data_FeOF
_symmetry_space_group_name_H-M   'P 1'
_cell_length_a   3.06760000
_cell_length_b   4.76543200
_cell_length_c   14.17528934
_cell_angle_alpha   89.43494675
_cell_angle_beta   90.00000000
_cell_angle_gamma   90.00000000
_symmetry_Int_Tables_number   1
_chemical_formula_structural   FeOF
_chemical_formula_sum   'Fe6 O6 F6'
_cell_volume   207.21052833
_cell_formula_units_Z   6
loop_
 _symmetry_equiv_pos_site_id
 _symmetry_equiv_pos_as_xyz
  1  'x, y, z'
loop_
 _atom_site_type_symbol
 _atom_site_label
 _atom_site_symmetry_multiplicity
 _atom_site_fract_x
 _atom_site_fract_y
 _atom_site_fract_z
 _atom_site_occupancy
  Fe  Fe0  1  0.00000000  0.98512300  0.99618200  1
  Fe  Fe1  1  0.00000000  0.99640800  0.33344000  1
  Fe  Fe2  1  0.00000000  0.99086500  0.66795100  1
  Fe  Fe3  1  0.50000000  0.49785700  0.18850400  1
  Fe  Fe4  1  0.50000000  0.49816100  0.47874600  1
  Fe  Fe5  1  0.50000000  0.55183200  0.83293400  1
  O  O0  1  0.50000000  0.80897800  0.26950400  1
  O  O1  1  0.50000000  0.80620800  0.94014000  1
  O  O2  1  0.00000000  0.69988000  0.76810500  1
  O  O3  1  0.00000000  0.69582300  0.43631400  1
  O  O4  1  0.00000000  0.29470500  0.22822900  1
  O  O5  1  0.50000000  0.18362700  0.39828400  1
  F  F0  1  0.50000000  0.79591500  0.59936300  1
  F  F1  1  0.00000000  0.69901500  0.09853800  1
  F  F2  1  0.00000000  0.30186000  0.57049100  1
  F  F3  1  0.00000000  0.30049300  0.89964200  1
  F  F4  1  0.50000000  0.18827200  0.05756900  1
  F  F5  1  0.50000000  0.20497600  0.73606300  1
loop_
_geom_bond_atom_site_label_1
_geom_bond_atom_site_label_2
_geom_bond_distance
_geom_bond_site_symmetry_2
Fe0 O1 1.929749 1_555
Fe0 O1 1.929749 1_455
Fe1 O0 1.996920 1_455
Fe1 O0 1.996920 1_555
Fe1 O5 2.002398 1_465
Fe1 O5 2.002398 1_565
Fe1 O3 2.034003 1_555
Fe1 O4 2.050159 1_565
Fe2 O2 1.974741 1_555
Fe3 O0 1.884175 1_555
Fe3 O4 1.896343 1_555
Fe3 O4 1.896343 1_655
Fe4 O5 1.892431 1_555
Fe4 O3 1.894838 1_555
Fe4 O3 1.894838 1_655
Fe5 O2 1.918856 1_555
Fe5 O2 1.918856 1_655
Fe5 O1 1.953255 1_555
F0 Fe2 2.044191 1_555
F0 Fe2 2.044191 1_655
F0 Fe4 2.232611 1_555
F1 Fe0 1.981188 1_554
F1 Fe3 2.207652 1_555
F1 Fe3 2.207652 1_455
F2 Fe2 2.016091 1_545
F2 Fe4 2.212456 1_455
F2 Fe4 2.212456 1_555
F3 Fe0 2.022575 1_545
F3 Fe5 2.158460 1_555
F3 Fe5 2.158460 1_455
F4 Fe0 2.015830 1_644
F4 Fe0 2.015830 1_544
F4 Fe3 2.382315 1_555
F5 Fe2 2.084527 1_645
F5 Fe2 2.084527 1_545
F5 Fe5 2.159286 1_555
