# generated using pymatgen
data_Li3V2(O2F)2
_symmetry_space_group_name_H-M   'P 1'
_cell_length_a   5.94032000
_cell_length_b   7.84390180
_cell_length_c   7.95708175
_cell_angle_alpha   106.12327384
_cell_angle_beta   101.25146363
_cell_angle_gamma   100.04931873
_symmetry_Int_Tables_number   1
_chemical_formula_structural   Li3V2(O2F)2
_chemical_formula_sum   'Li9 V6 O12 F6'
_cell_volume   338.88813684
_cell_formula_units_Z   3
loop_
 _symmetry_equiv_pos_site_id
 _symmetry_equiv_pos_as_xyz
  1  'x, y, z'
loop_
 _atom_site_type_symbol
 _atom_site_label
 _atom_site_symmetry_multiplicity
 _atom_site_fract_x
 _atom_site_fract_y
 _atom_site_fract_z
 _atom_site_occupancy
  Li  Li0  1  0.83954500  0.00976400  0.36748800  1
  Li  Li1  1  0.98973900  0.31471400  0.64376100  1
  Li  Li2  1  0.70186700  0.36194900  0.36114400  1
  Li  Li3  1  0.83228200  0.67589700  0.63777000  1
  Li  Li4  1  0.50923100  0.68901300  0.36916800  1
  Li  Li5  1  0.34565600  0.00344300  0.36333900  1
  Li  Li6  1  0.48834600  0.32216500  0.63356800  1
  Li  Li7  1  0.29920600  0.64373700  0.60631600  1
  Li  Li8  1  0.15097800  0.96078600  0.62420100  1
  V  V0  1  0.99515400  0.00165600  0.99694900  1
  V  V1  1  0.83955800  0.33804400  0.00862700  1
  V  V2  1  0.50130900  0.99831000  0.98982000  1
  V  V3  1  0.66864900  0.66663500  0.00863900  1
  V  V4  1  0.33652500  0.33342600  0.00536800  1
  V  V5  1  0.16666200  0.66717500  0.00084400  1
  O  O0  1  0.99734900  0.82752400  0.13873700  1
  O  O1  1  0.81135100  0.15926900  0.14314400  1
  O  O2  1  0.84583400  0.50724600  0.86231800  1
  O  O3  1  0.67073800  0.48190400  0.14945800  1
  O  O4  1  0.65942300  0.84219900  0.85973900  1
  O  O5  1  0.51630800  0.17736500  0.86043500  1
  O  O6  1  0.48551100  0.82683700  0.14593000  1
  O  O7  1  0.33180200  0.14226400  0.13357200  1
  O  O8  1  0.34218000  0.50997300  0.85882500  1
  O  O9  1  0.16409700  0.50583700  0.14154600  1
  O  O10  1  0.00049300  0.18777800  0.86400500  1
  O  O11  1  0.17115600  0.83160900  0.84721300  1
  F  F0  1  0.99093100  0.49958600  0.53437300  1
  F  F1  1  0.82915600  0.83549800  0.49549700  1
  F  F2  1  0.66269400  0.17907100  0.48373100  1
  F  F3  1  0.52025400  0.51432600  0.51165900  1
  F  F4  1  0.33174600  0.82971200  0.49542200  1
  F  F5  1  0.16847900  0.15282600  0.51668500  1
loop_
_geom_bond_atom_site_label_1
_geom_bond_atom_site_label_2
_geom_bond_distance
_geom_bond_site_symmetry_2
Li0 O6 2.384292 1_545
Li0 O1 2.388415 1_555
Li0 O0 2.433839 1_545
Li1 O10 2.239276 1_655
Li1 O2 2.368083 1_555
Li1 O8 2.384237 1_655
Li2 O3 2.139196 1_555
Li2 O1 2.286668 1_555
Li2 O7 2.544103 1_555
Li3 O11 2.241360 1_655
Li3 O4 2.402313 1_555
Li3 O2 2.498558 1_555
Li4 O6 2.316457 1_555
Li4 O9 2.371869 1_555
Li4 O3 2.497401 1_555
Li5 O6 2.287656 1_545
Li5 O0 2.360087 1_445
Li5 O7 2.369247 1_555
Li6 O5 2.379911 1_555
Li6 O8 2.392464 1_555
Li6 O2 2.424535 1_555
Li7 O11 2.411596 1_555
Li7 O8 2.503455 1_555
Li7 O4 2.545308 1_555
Li8 O11 2.268924 1_555
Li8 O5 2.544980 1_565
Li8 O10 2.635228 1_565
O0 V5 1.975622 1_655
O0 V0 1.998756 1_564
O0 V3 2.025466 1_555
O1 V2 1.982585 1_544
O1 V1 1.990431 1_555
O1 V0 2.059554 1_554
O2 V1 1.994003 1_556
O2 V5 1.999675 1_656
O2 V3 2.038494 1_556
O3 V1 1.914663 1_555
O3 V4 2.043438 1_555
O3 V3 2.063482 1_555
O4 V2 1.878775 1_555
O4 V3 2.051929 1_556
O4 V0 2.062803 1_565
O5 V2 1.958489 1_545
O5 V1 2.027933 1_556
O5 V4 2.030222 1_556
O6 V5 2.001139 1_555
O6 V3 2.033328 1_555
O6 V2 2.071300 1_554
O7 V2 1.930332 1_544
O7 V0 2.028151 1_454
O7 V4 2.033687 1_555
O8 V5 2.004774 1_556
O8 V3 2.035844 1_556
O8 V4 2.043145 1_556
O9 V5 1.908424 1_555
O9 V1 2.028101 1_455
O9 V4 2.038343 1_555
O10 V1 1.922679 1_456
O10 V0 2.026354 1_455
O10 V4 2.041863 1_556
O11 V5 2.008768 1_556
O11 V2 2.063069 1_555
O11 V0 2.093298 1_465
F0 Li7 1.862384 1_655
F0 Li1 1.886892 1_555
F0 Li3 1.898192 1_555
F0 Li2 1.901829 1_555
F1 Li3 1.906894 1_555
F1 Li0 1.917862 1_565
F1 Li8 1.921102 1_655
F1 Li4 1.947655 1_555
F2 Li2 1.952583 1_555
F2 Li6 1.974397 1_555
F2 Li0 1.976538 1_555
F2 Li5 2.004969 1_555
F2 Li1 2.022019 1_555
F3 Li7 1.936078 1_555
F3 Li3 1.948534 1_555
F3 Li4 2.008123 1_555
F3 Li6 2.008223 1_555
F3 Li2 2.045977 1_555
F4 Li8 1.868076 1_555
F4 Li4 1.882137 1_555
F4 Li7 1.904487 1_555
F4 Li5 1.938688 1_565
F5 Li8 1.925510 1_545
F5 Li1 1.984596 1_455
F5 Li6 1.995791 1_555
F5 Li0 2.018980 1_455
F5 Li5 2.026578 1_555
