# generated using pymatgen
data_FeOF
_symmetry_space_group_name_H-M   'P 1'
_cell_length_a   3.12403800
_cell_length_b   9.44302000
_cell_length_c   14.20107944
_cell_angle_alpha   89.98579011
_cell_angle_beta   90.00000000
_cell_angle_gamma   90.00000000
_symmetry_Int_Tables_number   1
_chemical_formula_structural   FeOF
_chemical_formula_sum   'Fe12 O12 F12'
_cell_volume   418.93684795
_cell_formula_units_Z   12
loop_
 _symmetry_equiv_pos_site_id
 _symmetry_equiv_pos_as_xyz
  1  'x, y, z'
loop_
 _atom_site_type_symbol
 _atom_site_label
 _atom_site_symmetry_multiplicity
 _atom_site_fract_x
 _atom_site_fract_y
 _atom_site_fract_z
 _atom_site_occupancy
  Fe  Fe0  1  0.00000000  0.99318700  0.00500800  1
  Fe  Fe1  1  0.00000000  0.98053100  0.67900900  1
  Fe  Fe2  1  0.00000000  0.99802000  0.32255100  1
  Fe  Fe3  1  0.50000000  0.76602600  0.84395800  1
  Fe  Fe4  1  0.50000000  0.75400200  0.47841900  1
  Fe  Fe5  1  0.50000000  0.77742700  0.16390200  1
  Fe  Fe6  1  0.00000000  0.48772400  0.66983700  1
  Fe  Fe7  1  0.00000000  0.47583200  0.01170100  1
  Fe  Fe8  1  0.00000000  0.50652400  0.33332400  1
  Fe  Fe9  1  0.50000000  0.27658200  0.83918500  1
  Fe  Fe10  1  0.50000000  0.25930100  0.51117300  1
  Fe  Fe11  1  0.50000000  0.22678000  0.15849600  1
  O  O0  1  0.50000000  0.89543800  0.73089900  1
  O  O1  1  0.50000000  0.91004500  0.39944900  1
  O  O2  1  0.50000000  0.90030200  0.05898800  1
  O  O3  1  0.00000000  0.85229500  0.89715300  1
  O  O4  1  0.00000000  0.83731000  0.23266500  1
  O  O5  1  0.00000000  0.64358700  0.42935400  1
  O  O6  1  0.50000000  0.40209400  0.72855400  1
  O  O7  1  0.50000000  0.40279000  0.07427000  1
  O  O8  1  0.00000000  0.35220600  0.89972800  1
  O  O9  1  0.00000000  0.35262100  0.56192900  1
  O  O10  1  0.00000000  0.15116000  0.09518900  1
  O  O11  1  0.50000000  0.10324100  0.26889400  1
  F  F0  1  0.00000000  0.84635300  0.56506300  1
  F  F1  1  0.00000000  0.65059700  0.76891700  1
  F  F2  1  0.00000000  0.65133700  0.10082400  1
  F  F3  1  0.50000000  0.59792300  0.93699800  1
  F  F4  1  0.50000000  0.60588300  0.60171500  1
  F  F5  1  0.50000000  0.58826900  0.26375400  1
  F  F6  1  0.50000000  0.39643000  0.39447100  1
  F  F7  1  0.00000000  0.35504100  0.23913300  1
  F  F8  1  0.00000000  0.15091100  0.76488400  1
  F  F9  1  0.00000000  0.15989300  0.44232100  1
  F  F10  1  0.50000000  0.10008000  0.92556200  1
  F  F11  1  0.50000000  0.09225400  0.60272500  1
loop_
_geom_bond_atom_site_label_1
_geom_bond_atom_site_label_2
_geom_bond_distance
_geom_bond_site_symmetry_2
Fe0 O2 1.948470 1_555
Fe0 O2 1.948470 1_455
Fe0 O10 1.966304 1_565
Fe0 O3 2.029057 1_554
Fe1 O0 1.904807 1_455
Fe1 O0 1.904807 1_555
Fe2 O4 1.983288 1_555
Fe2 O11 2.001849 1_565
Fe2 O11 2.001849 1_465
Fe2 O1 2.078975 1_455
Fe2 O1 2.078975 1_555
Fe3 O3 1.916903 1_555
Fe3 O3 1.916903 1_655
Fe3 O0 2.017481 1_555
Fe4 O1 1.851514 1_555
Fe4 O5 2.003218 1_655
Fe4 O5 2.003218 1_555
Fe5 O2 1.888185 1_555
Fe5 O4 1.927047 1_555
Fe5 O4 1.927047 1_655
Fe6 O6 1.946461 1_555
Fe6 O6 1.946461 1_455
Fe6 O9 1.994208 1_555
Fe7 O7 1.924799 1_555
Fe7 O7 1.924799 1_455
Fe7 O8 1.972888 1_554
Fe8 O5 1.880377 1_555
Fe9 O8 1.920778 1_655
Fe9 O8 1.920778 1_555
Fe9 O6 1.967764 1_555
Fe10 O9 1.932954 1_555
Fe10 O9 1.932954 1_655
Fe11 O10 1.938655 1_655
Fe11 O10 1.938655 1_555
Fe11 O11 1.953947 1_555
Fe11 O7 2.047470 1_555
F0 Fe1 2.055444 1_555
F0 Fe4 2.171388 1_555
F0 Fe4 2.171388 1_455
F1 Fe6 2.084785 1_555
F1 Fe3 2.182708 1_555
F1 Fe3 2.182708 1_455
F2 Fe7 2.085552 1_555
F2 Fe5 2.158829 1_555
F2 Fe5 2.158829 1_455
F3 Fe3 2.065078 1_555
F3 Fe7 2.212221 1_656
F3 Fe7 2.212221 1_556
F4 Fe6 2.149466 1_555
F4 Fe6 2.149466 1_655
F4 Fe4 2.240736 1_555
F5 Fe8 2.002865 1_655
F5 Fe8 2.002865 1_555
F5 Fe5 2.280368 1_555
F6 Fe8 2.067439 1_555
F6 Fe8 2.067439 1_655
F6 Fe10 2.102940 1_555
F7 Fe8 1.958665 1_555
F7 Fe11 2.284481 1_555
F7 Fe11 2.284481 1_455
F8 Fe1 2.019099 1_545
F8 Fe9 2.227592 1_555
F8 Fe9 2.227592 1_455
F9 Fe10 2.068231 1_555
F9 Fe10 2.068231 1_455
F9 Fe2 2.287084 1_545
F10 Fe9 2.069197 1_555
F10 Fe0 2.175107 1_546
F10 Fe0 2.175107 1_646
F11 Fe10 2.043922 1_555
F11 Fe1 2.173922 1_545
F11 Fe1 2.173922 1_645
