# generated using pymatgen
data_Sm3ReO8
_symmetry_space_group_name_H-M   'P 1'
_cell_length_a   6.11200440
_cell_length_b   7.34776447
_cell_length_c   14.70241825
_cell_angle_alpha   69.17367621
_cell_angle_beta   90.00000000
_cell_angle_gamma   90.00000000
_symmetry_Int_Tables_number   1
_chemical_formula_structural   Sm3ReO8
_chemical_formula_sum   'Sm12 Re4 O32'
_cell_volume   617.13821967
_cell_formula_units_Z   4
loop_
 _symmetry_equiv_pos_site_id
 _symmetry_equiv_pos_as_xyz
  1  'x, y, z'
loop_
 _atom_site_type_symbol
 _atom_site_label
 _atom_site_symmetry_multiplicity
 _atom_site_fract_x
 _atom_site_fract_y
 _atom_site_fract_z
 _atom_site_occupancy
  Sm  Sm0  1  0.18704607  0.89526301  0.66628446  1
  Sm  Sm1  1  0.68704607  0.10473699  0.83371554  1
  Sm  Sm2  1  0.81295393  0.10473699  0.33371554  1
  Sm  Sm3  1  0.31295393  0.89526301  0.16628446  1
  Sm  Sm4  1  0.79897611  0.66200659  0.05398477  1
  Sm  Sm5  1  0.29897611  0.33799341  0.44601523  1
  Sm  Sm6  1  0.20102389  0.33799341  0.94601523  1
  Sm  Sm7  1  0.70102389  0.66200659  0.55398477  1
  Sm  Sm8  1  0.76070035  0.59644500  0.29882781  1
  Sm  Sm9  1  0.26070035  0.40355500  0.20117219  1
  Sm  Sm10  1  0.23929965  0.40355500  0.70117219  1
  Sm  Sm11  1  0.73929965  0.59644500  0.79882781  1
  Re  Re0  1  0.74542905  0.17922373  0.59056896  1
  Re  Re1  1  0.24542905  0.82077627  0.90943104  1
  Re  Re2  1  0.25457095  0.82077627  0.40943104  1
  Re  Re3  1  0.75457095  0.17922373  0.09056896  1
  O  O0  1  0.69787374  0.02469900  0.02060891  1
  O  O1  1  0.19787374  0.97530100  0.47939109  1
  O  O2  1  0.30212626  0.97530100  0.97939109  1
  O  O3  1  0.80212626  0.02469900  0.52060891  1
  O  O4  1  0.45698211  0.24903657  0.09589384  1
  O  O5  1  0.95698211  0.75096343  0.40410616  1
  O  O6  1  0.54301789  0.75096343  0.90410616  1
  O  O7  1  0.04301789  0.24903657  0.59589384  1
  O  O8  1  0.84923272  0.33098412  0.16916076  1
  O  O9  1  0.34923272  0.66901588  0.33083924  1
  O  O10  1  0.15076728  0.66901588  0.83083924  1
  O  O11  1  0.65076728  0.33098412  0.66916076  1
  O  O12  1  0.04934609  0.12186602  0.08945589  1
  O  O13  1  0.54934609  0.87813398  0.41054411  1
  O  O14  1  0.95065391  0.87813398  0.91054411  1
  O  O15  1  0.45065391  0.12186602  0.58945589  1
  O  O16  1  0.97053899  0.31385255  0.82692861  1
  O  O17  1  0.47053899  0.68614745  0.67307139  1
  O  O18  1  0.02946101  0.68614745  0.17307139  1
  O  O19  1  0.52946101  0.31385255  0.32692861  1
  O  O20  1  0.97054105  0.64613644  0.65917515  1
  O  O21  1  0.47054105  0.35386356  0.84082485  1
  O  O22  1  0.02945895  0.35386356  0.34082485  1
  O  O23  1  0.52945895  0.64613644  0.15917515  1
  O  O24  1  0.69762353  0.40974267  0.48191782  1
  O  O25  1  0.19762353  0.59025733  0.01808218  1
  O  O26  1  0.30237647  0.59025733  0.51808218  1
  O  O27  1  0.80237647  0.40974267  0.98191782  1
  O  O28  1  0.79632880  0.97045009  0.71113619  1
  O  O29  1  0.29632880  0.02954991  0.78886381  1
  O  O30  1  0.20367120  0.02954991  0.28886381  1
  O  O31  1  0.70367120  0.97045009  0.21113619  1
loop_
_geom_bond_atom_site_label_1
_geom_bond_atom_site_label_2
_geom_bond_distance
_geom_bond_site_symmetry_2
O0 Re3 1.815946 1_555
O0 Sm1 2.598362 1_554
O0 Sm4 2.606696 1_545
O1 Re2 1.815946 1_555
O1 Sm0 2.598362 1_555
O1 Sm5 2.606696 1_565
O2 Re1 1.815946 1_555
O2 Sm3 2.598362 1_556
O2 Sm6 2.606696 1_565
O3 Re0 1.815946 1_555
O3 Sm2 2.598362 1_555
O3 Sm7 2.606696 1_545
O4 Re3 1.898971 1_555
O4 Sm9 2.524623 1_555
O4 Sm3 2.586534 1_545
O4 Sm6 2.589636 1_554
O5 Re2 1.898971 1_655
O5 Sm8 2.524623 1_555
O5 Sm2 2.586534 1_565
O5 Sm7 2.589636 1_555
O6 Re1 1.898971 1_555
O6 Sm11 2.524623 1_555
O6 Sm1 2.586534 1_565
O6 Sm4 2.589636 1_556
O7 Re0 1.898971 1_455
O7 Sm10 2.524623 1_555
O7 Sm0 2.586534 1_545
O7 Sm5 2.589636 1_555
O8 Re3 1.956925 1_555
O8 Sm2 2.409593 1_555
O8 Sm4 2.439074 1_555
O8 Sm9 2.647448 1_655
O9 Re2 1.956925 1_555
O9 Sm3 2.409593 1_555
O9 Sm5 2.439074 1_555
O9 Sm8 2.647448 1_555
O10 Re1 1.956925 1_555
O10 Sm0 2.409593 1_555
O10 Sm6 2.439074 1_555
O10 Sm11 2.647448 1_455
O11 Re0 1.956925 1_555
O11 Sm1 2.409593 1_555
O11 Sm7 2.439074 1_555
O11 Sm10 2.647448 1_555
O12 Re3 1.851701 1_455
O12 Sm3 2.303639 1_545
O12 Sm6 2.333980 1_554
O13 Re2 1.851701 1_555
O13 Sm2 2.303639 1_565
O13 Sm7 2.333980 1_555
O14 Re1 1.851701 1_655
O14 Sm1 2.303639 1_565
O14 Sm4 2.333980 1_556
O15 Re0 1.851701 1_555
O15 Sm0 2.303639 1_545
O15 Sm5 2.333980 1_555
O16 Sm1 2.294373 1_555
O16 Sm6 2.302677 1_655
O16 Sm10 2.384272 1_655
O16 Sm11 2.422753 1_555
O17 Sm0 2.294373 1_555
O17 Sm7 2.302677 1_555
O17 Sm11 2.384272 1_555
O17 Sm10 2.422753 1_555
O18 Sm3 2.294373 1_555
O18 Sm4 2.302677 1_455
O18 Sm8 2.384272 1_455
O18 Sm9 2.422753 1_555
O19 Sm2 2.294373 1_555
O19 Sm5 2.302677 1_555
O19 Sm9 2.384272 1_555
O19 Sm8 2.422753 1_555
O20 Sm7 2.233999 1_555
O20 Sm0 2.291040 1_655
O20 Sm10 2.339666 1_655
O20 Sm11 2.411131 1_555
O21 Sm6 2.233999 1_555
O21 Sm1 2.291040 1_555
O21 Sm11 2.339666 1_555
O21 Sm10 2.411131 1_555
O22 Sm5 2.233999 1_555
O22 Sm2 2.291040 1_455
O22 Sm8 2.339666 1_455
O22 Sm9 2.411131 1_555
O23 Sm4 2.233999 1_555
O23 Sm3 2.291040 1_555
O23 Sm9 2.339666 1_555
O23 Sm8 2.411131 1_555
O24 Re0 1.892657 1_555
O24 Sm7 2.440362 1_555
O24 Sm8 2.578927 1_555
O24 Sm5 2.586725 1_555
O25 Re1 1.892657 1_554
O25 Sm6 2.440362 1_554
O25 Sm9 2.578927 1_555
O25 Sm4 2.586725 1_455
O26 Re2 1.892657 1_555
O26 Sm5 2.440362 1_555
O26 Sm10 2.578927 1_555
O26 Sm7 2.586725 1_555
O27 Re3 1.892657 1_556
O27 Sm4 2.440362 1_556
O27 Sm11 2.578927 1_555
O27 Sm6 2.586725 1_655
O28 Re0 1.912755 1_565
O28 Sm1 2.435606 1_565
O28 Sm0 2.588815 1_655
O28 Sm11 2.610827 1_555
O29 Re1 1.912755 1_545
O29 Sm0 2.435606 1_545
O29 Sm1 2.588815 1_555
O29 Sm10 2.610827 1_555
O30 Re2 1.912755 1_545
O30 Sm3 2.435606 1_545
O30 Sm2 2.588815 1_455
O30 Sm9 2.610827 1_555
O31 Re3 1.912755 1_565
O31 Sm2 2.435606 1_565
O31 Sm3 2.588815 1_555
O31 Sm8 2.610827 1_555
