# generated using pymatgen
data_Li5V3P8O29
_symmetry_space_group_name_H-M   'P 1'
_cell_length_a   9.81543188
_cell_length_b   9.78785881
_cell_length_c   14.15109447
_cell_angle_alpha   89.77829021
_cell_angle_beta   89.70002565
_cell_angle_gamma   60.01863491
_symmetry_Int_Tables_number   1
_chemical_formula_structural   Li5V3P8O29
_chemical_formula_sum   'Li10 V6 P16 O58'
_cell_volume   1177.58667966
_cell_formula_units_Z   2
loop_
 _symmetry_equiv_pos_site_id
 _symmetry_equiv_pos_as_xyz
  1  'x, y, z'
loop_
 _atom_site_type_symbol
 _atom_site_label
 _atom_site_symmetry_multiplicity
 _atom_site_fract_x
 _atom_site_fract_y
 _atom_site_fract_z
 _atom_site_occupancy
  Li  Li0  1  0.90094016  0.76196663  0.06527379  1
  Li  Li1  1  0.76574242  0.90246866  0.55547207  1
  Li  Li2  1  0.90263764  0.32807008  0.55446473  1
  Li  Li3  1  0.75995645  0.33525736  0.06191214  1
  Li  Li4  1  0.33739987  0.89883676  0.06337118  1
  Li  Li5  1  0.32984252  0.76693050  0.55715990  1
  Li  Li6  1  0.33750616  0.33936392  0.60350100  1
  Li  Li7  1  0.09471232  0.23474830  0.94333657  1
  Li  Li8  1  0.98233243  0.97526434  0.00087026  1
  Li  Li9  1  0.99019029  0.00460011  0.48733372  1
  V  V0  1  0.56227839  0.43532848  0.25231846  1
  V  V1  1  0.43633340  0.56305924  0.75335326  1
  V  V2  1  0.56717682  0.99909770  0.75326976  1
  V  V3  1  0.43667696  0.99945351  0.24983353  1
  V  V4  1  0.00017757  0.56786595  0.25165084  1
  V  V5  1  0.99880491  0.43547659  0.74783615  1
  P  P0  1  0.91518163  0.77198353  0.84302761  1
  P  P1  1  0.77363437  0.91334300  0.34409025  1
  P  P2  1  0.91037675  0.31210434  0.34079396  1
  P  P3  1  0.66667914  0.66459004  0.12943896  1
  P  P4  1  0.66328792  0.66742572  0.63094828  1
  P  P5  1  0.77323483  0.31348942  0.84550541  1
  P  P6  1  0.69210335  0.22054935  0.66239717  1
  P  P7  1  0.31031050  0.91600627  0.84282192  1
  P  P8  1  0.69431179  0.08467932  0.16179737  1
  P  P9  1  0.31249765  0.77546839  0.34260001  1
  P  P10  1  0.22271994  0.69392578  0.16001669  1
  P  P11  1  0.33041987  0.33510587  0.36804096  1
  P  P12  1  0.33228766  0.33122739  0.86844513  1
  P  P13  1  0.08849120  0.69226568  0.65989089  1
  P  P14  1  0.22456043  0.08808514  0.65907819  1
  P  P15  1  0.08761732  0.22738653  0.15986195  1
  O  O0  1  0.98816306  0.79308408  0.58100349  1
  O  O1  1  0.91470804  0.74425400  0.32852855  1
  O  O2  1  0.80107549  0.99276628  0.08164579  1
  O  O3  1  0.74331929  0.91216582  0.82787094  1
  O  O4  1  0.91571509  0.61628623  0.82846594  1
  O  O5  1  0.81224333  0.67316776  0.16676214  1
  O  O6  1  0.91112537  0.46654051  0.33100516  1
  O  O7  1  0.99921308  0.22941036  0.07182128  1
  O  O8  1  0.92022313  0.33484702  0.83332770  1
  O  O9  1  0.66279601  0.81696933  0.67331046  1
  O  O10  1  0.62075309  0.91093318  0.33081366  1
  O  O11  1  0.81245191  0.51618261  0.66931784  1
  O  O12  1  0.66844786  0.65371948  0.02384110  1
  O  O13  1  0.65857035  0.67393936  0.52595606  1
  O  O14  1  0.67156077  0.51256090  0.17370801  1
  O  O15  1  0.46815267  0.91569941  0.82354999  1
  O  O16  1  0.51206094  0.81175382  0.16619104  1
  O  O17  1  0.73943373  0.34153165  0.32781145  1
  O  O18  1  0.78516071  0.19912560  0.75993383  1
  O  O19  1  0.79581357  0.21035148  0.58214164  1
  O  O20  1  0.78580173  0.23133721  0.93696865  1
  O  O21  1  0.62159085  0.47204028  0.83047057  1
  O  O22  1  0.51535925  0.66614538  0.67335806  1
  O  O23  1  0.65673520  0.25919004  0.15958844  1
  O  O24  1  0.46983852  0.61768004  0.32678767  1
  O  O25  1  0.34497362  0.91310318  0.32906497  1
  O  O26  1  0.78837363  0.01590990  0.25935523  1
  O  O27  1  0.79141210  0.98012382  0.43523651  1
  O  O28  1  0.21927920  0.99268230  0.57925991  1
  O  O29  1  0.66096163  0.07811971  0.66092636  1
  O  O30  1  0.52856481  0.37229681  0.66864501  1
  O  O31  1  0.33890232  0.74951026  0.83671381  1
  O  O32  1  0.47902920  0.33880650  0.32172876  1
  O  O33  1  0.38242499  0.53890556  0.17162898  1
  O  O34  1  0.21291833  0.79747521  0.07903212  1
  O  O35  1  0.23442850  0.78493520  0.43491169  1
  O  O36  1  0.19868107  0.78961173  0.25796852  1
  O  O37  1  0.25739249  0.66411222  0.65747747  1
  O  O38  1  0.48030836  0.18310396  0.81982283  1
  O  O39  1  0.54119184  0.07769035  0.16985041  1
  O  O40  1  0.33593703  0.47561455  0.82187398  1
  O  O41  1  0.33935491  0.32288700  0.97261345  1
  O  O42  1  0.34300385  0.33320653  0.47332148  1
  O  O43  1  0.18789063  0.48420450  0.32794688  1
  O  O44  1  0.37778107  0.09725501  0.66968053  1
  O  O45  1  0.33440774  0.18892784  0.32486858  1
  O  O46  1  0.08486799  0.66053969  0.15782867  1
  O  O47  1  0.01541888  0.78675616  0.75865471  1
  O  O48  1  0.97582271  0.79047788  0.93553865  1
  O  O49  1  0.10118136  0.52689849  0.67034098  1
  O  O50  1  0.18650791  0.32608319  0.82837387  1
  O  O51  1  0.08678482  0.38343180  0.17414644  1
  O  O52  1  0.25641279  0.08501518  0.15798906  1
  O  O53  1  0.23367501  0.00076050  0.93330931  1
  O  O54  1  0.19888324  0.01734973  0.75690102  1
  O  O55  1  0.08419150  0.26109338  0.65611853  1
  O  O56  1  0.97608341  0.22302459  0.43107852  1
  O  O57  1  0.00451037  0.20096656  0.25154115  1
loop_
_geom_bond_atom_site_label_1
_geom_bond_atom_site_label_2
_geom_bond_distance
_geom_bond_site_symmetry_2
Li0 O2 1.976440 1_555
Li0 O48 2.043409 1_554
Li0 O46 2.045407 1_655
Li0 O5 2.075922 1_555
Li1 O0 1.926702 1_555
Li1 O27 1.926937 1_555
Li1 O29 2.115913 1_565
Li1 O9 2.306242 1_555
Li2 O19 1.944234 1_555
Li2 O56 1.971153 1_555
Li2 O55 2.127600 1_655
Li2 O11 2.279127 1_555
Li3 O20 1.994098 1_554
Li3 O7 2.044191 1_555
Li3 O23 2.054912 1_555
Li3 O14 2.183878 1_555
Li4 O34 1.932169 1_555
Li4 O52 2.074943 1_565
Li4 O16 2.082964 1_555
Li4 O53 2.099901 1_564
Li5 O35 1.936624 1_555
Li5 O28 1.939890 1_555
Li5 O37 2.056061 1_555
Li5 O22 2.283910 1_555
Li6 O42 1.843027 1_555
Li6 O30 2.257238 1_555
Li6 O49 2.319409 1_555
Li6 O44 2.387337 1_555
Li7 O53 2.001045 1_555
Li7 O7 2.053680 1_456
Li7 O8 2.157712 1_455
Li7 O50 2.244119 1_555
Li8 O2 2.043724 1_555
Li8 O48 2.063767 1_554
Li8 O34 2.334339 1_655
Li8 O20 2.447338 1_564
Li9 O27 2.211620 1_545
Li9 O56 2.217133 1_555
Li9 O19 2.376915 1_555
Li9 O35 2.400498 1_645
Li9 O0 2.462352 1_545
Li9 O28 2.555263 1_645
O0 P13 1.490477 1_655
O1 P1 1.553766 1_555
O1 V4 1.850790 1_655
O2 P8 1.499070 1_565
O3 P0 1.569236 1_555
O3 V2 1.835622 1_555
O4 P0 1.536013 1_555
O4 V5 1.913730 1_555
O5 P3 1.567016 1_555
O5 V4 2.005379 1_655
O6 P2 1.521067 1_555
O6 V4 1.963702 1_655
O7 P15 1.516406 1_655
O8 P5 1.566360 1_555
O8 V5 1.941377 1_555
O9 P4 1.581625 1_555
O9 V2 1.916078 1_555
O10 P1 1.525124 1_555
O10 V3 1.943662 1_555
O11 P4 1.570285 1_555
O11 V5 1.942865 1_555
O12 P3 1.497913 1_555
O13 P4 1.486847 1_555
O14 P3 1.590863 1_555
O14 V0 1.936729 1_555
O15 P7 1.570227 1_555
O15 V2 1.837584 1_555
O16 P3 1.568839 1_555
O16 V3 1.993176 1_555
O17 P2 1.565824 1_555
O17 V0 1.850439 1_555
O18 P6 1.613349 1_555
O18 P5 1.615893 1_555
O19 P6 1.491057 1_555
O20 P5 1.493819 1_555
O21 P5 1.536632 1_555
O21 V1 1.919716 1_555
O22 P4 1.574036 1_555
O22 V1 1.914517 1_555
O23 P8 1.557126 1_555
O23 V0 1.990236 1_555
O24 P9 1.560643 1_555
O24 V0 1.872281 1_555
O25 P9 1.542614 1_555
O25 V3 1.877252 1_555
O26 P8 1.611350 1_555
O26 P1 1.612642 1_545
O27 P1 1.498067 1_555
O28 P14 1.485803 1_565
O29 P6 1.569557 1_555
O29 V2 1.960721 1_545
O30 P6 1.551531 1_555
O30 V1 2.014778 1_555
O31 P7 1.511855 1_555
O31 V1 1.974123 1_555
O32 P11 1.612803 1_555
O32 V0 1.811345 1_555
O33 P10 1.552463 1_555
O33 V0 1.916110 1_555
O34 P10 1.498188 1_555
O35 P9 1.490542 1_555
O36 P9 1.599901 1_555
O36 P10 1.624785 1_555
O37 P13 1.538971 1_555
O37 V1 2.045059 1_555
O38 P12 1.605704 1_555
O38 V2 1.824180 1_545
O39 P8 1.541879 1_555
O39 V3 1.919932 1_545
O40 P12 1.573530 1_555
O40 V1 1.862893 1_555
O41 P12 1.476115 1_555
O42 P11 1.494867 1_555
O43 P11 1.539556 1_555
O43 V4 1.933151 1_555
O44 P14 1.558761 1_555
O44 V2 2.001832 1_545
O45 P11 1.540266 1_555
O45 V3 1.928206 1_545
O46 P10 1.543043 1_555
O46 V4 2.002319 1_555
O47 P0 1.594684 1_455
O47 P13 1.630847 1_555
O48 P0 1.489483 1_555
O49 P13 1.566545 1_555
O49 V5 1.972977 1_455
O50 P12 1.565968 1_555
O50 V5 1.969953 1_455
O51 P15 1.537407 1_555
O51 V4 1.912118 1_555
O52 P15 1.542699 1_555
O52 V3 2.013938 1_545
O53 P7 1.506036 1_545
O54 P7 1.605863 1_545
O54 P14 1.619407 1_555
O55 P14 1.560716 1_555
O55 V5 1.968838 1_455
O56 P2 1.498828 1_555
O57 P15 1.616348 1_555
O57 P2 1.620537 1_455
