# generated using pymatgen
data_Li3Mn2(SiO4)2
_symmetry_space_group_name_H-M   'P 1'
_cell_length_a   10.80809900
_cell_length_b   5.27580500
_cell_length_c   6.32925038
_cell_angle_alpha   89.04651553
_cell_angle_beta   90.00000000
_cell_angle_gamma   90.00000000
_symmetry_Int_Tables_number   1
_chemical_formula_structural   Li3Mn2(SiO4)2
_chemical_formula_sum   'Li6 Mn4 Si4 O16'
_cell_volume   360.85288914
_cell_formula_units_Z   2
loop_
 _symmetry_equiv_pos_site_id
 _symmetry_equiv_pos_as_xyz
  1  'x, y, z'
loop_
 _atom_site_type_symbol
 _atom_site_label
 _atom_site_symmetry_multiplicity
 _atom_site_fract_x
 _atom_site_fract_y
 _atom_site_fract_z
 _atom_site_occupancy
  Li  Li0  1  0.83347100  0.54469500  0.75198800  1
  Li  Li1  1  0.33347100  0.45530500  0.24801200  1
  Li  Li2  1  0.67058300  0.04514700  0.24108200  1
  Li  Li3  1  0.17075000  0.96707100  0.24057500  1
  Li  Li4  1  0.67075000  0.03292900  0.75942500  1
  Li  Li5  1  0.17058300  0.95485300  0.75891800  1
  Mn  Mn0  1  0.58265900  0.43656100  0.49372100  1
  Mn  Mn1  1  0.08265900  0.56343900  0.50627900  1
  Mn  Mn2  1  0.41775900  0.06985300  0.98186200  1
  Mn  Mn3  1  0.91775900  0.93014700  0.01813800  1
  Si  Si0  1  0.91833700  0.05534800  0.50918200  1
  Si  Si1  1  0.41833700  0.94465200  0.49081800  1
  Si  Si2  1  0.57561700  0.56178600  0.99851400  1
  Si  Si3  1  0.07561700  0.43821400  0.00148600  1
  O  O0  1  0.33975800  0.00672600  0.70144800  1
  O  O1  1  0.84263100  0.93924500  0.71562000  1
  O  O2  1  0.93613400  0.36365700  0.53866300  1
  O  O3  1  0.56310800  0.06014400  0.50414800  1
  O  O4  1  0.43613400  0.63634300  0.46133700  1
  O  O5  1  0.06310800  0.93985600  0.49585200  1
  O  O6  1  0.83975800  0.99327400  0.29855200  1
  O  O7  1  0.34263100  0.06075500  0.28438000  1
  O  O8  1  0.14970000  0.54640700  0.21692300  1
  O  O9  1  0.64313500  0.43572200  0.21367200  1
  O  O10  1  0.43428500  0.46292600  0.99683900  1
  O  O11  1  0.93428500  0.53707400  0.00316100  1
  O  O12  1  0.58944600  0.87370800  0.00110700  1
  O  O13  1  0.08944600  0.12629200  0.99889300  1
  O  O14  1  0.64970000  0.45359300  0.78307700  1
  O  O15  1  0.14313500  0.56427800  0.78632800  1
loop_
_geom_bond_atom_site_label_1
_geom_bond_atom_site_label_2
_geom_bond_distance
_geom_bond_site_symmetry_2
Li0 O11 1.927173 1_556
Li0 O2 2.002343 1_555
Li0 O14 2.052226 1_555
Li0 O1 2.092789 1_555
Li1 O10 1.927173 1_554
Li1 O4 2.002343 1_555
Li1 O8 2.052226 1_555
Li1 O7 2.092789 1_555
Li2 O6 1.883390 1_545
Li2 O12 1.984883 1_545
Li2 O3 2.032786 1_555
Li2 O9 2.086209 1_555
Li3 O13 1.942918 1_564
Li3 O7 1.943398 1_565
Li3 O5 1.994225 1_555
Li3 O8 2.238460 1_555
Li4 O12 1.942918 1_546
Li4 O1 1.943398 1_545
Li4 O3 1.994225 1_555
Li4 O14 2.238460 1_555
Li5 O0 1.883390 1_565
Li5 O13 1.984883 1_565
Li5 O5 2.032786 1_555
Li5 O15 2.086209 1_555
Mn0 O9 1.889251 1_555
Mn0 O4 1.911473 1_555
Mn0 O14 1.972974 1_555
Mn0 O3 1.997112 1_555
Mn1 O15 1.889251 1_555
Mn1 O2 1.911473 1_455
Mn1 O8 1.972974 1_555
Mn1 O5 1.997112 1_555
Mn2 O0 1.997815 1_555
Mn2 O7 2.079591 1_556
Mn2 O10 2.085181 1_555
Mn2 O12 2.127155 1_546
Mn3 O6 1.997815 1_555
Mn3 O1 2.079591 1_554
Mn3 O11 2.085181 1_555
Mn3 O13 2.127155 1_664
O0 Si1 1.618737 1_545
O1 Si0 1.650841 1_565
O2 Si0 1.651567 1_555
O3 Si1 1.681778 1_545
O4 Si1 1.651567 1_555
O5 Si0 1.681778 1_465
O6 Si0 1.618737 1_565
O7 Si1 1.650841 1_545
O8 Si3 1.688822 1_555
O9 Si2 1.673078 1_554
O10 Si2 1.614211 1_555
O11 Si3 1.614211 1_655
O12 Si2 1.652767 1_554
O13 Si3 1.652767 1_556
O14 Si2 1.688822 1_555
O15 Si3 1.673078 1_556
