# generated using pymatgen
data_Li2Ti3CrO8
_symmetry_space_group_name_H-M   'P 1'
_cell_length_a   8.44214800
_cell_length_b   8.44214800
_cell_length_c   8.44214800
_cell_angle_alpha   90.00000000
_cell_angle_beta   90.00000000
_cell_angle_gamma   90.00000000
_symmetry_Int_Tables_number   1
_chemical_formula_structural   Li2Ti3CrO8
_chemical_formula_sum   'Li8 Ti12 Cr4 O32'
_cell_volume   601.67073015
_cell_formula_units_Z   4
loop_
 _symmetry_equiv_pos_site_id
 _symmetry_equiv_pos_as_xyz
  1  'x, y, z'
loop_
 _atom_site_type_symbol
 _atom_site_label
 _atom_site_symmetry_multiplicity
 _atom_site_fract_x
 _atom_site_fract_y
 _atom_site_fract_z
 _atom_site_occupancy
  Li  Li0  1  0.00261500  0.00261500  0.00261500  1
  Li  Li1  1  0.24738500  0.24738500  0.24738500  1
  Li  Li2  1  0.25261500  0.75261500  0.74738500  1
  Li  Li3  1  0.49738500  0.99738500  0.50261500  1
  Li  Li4  1  0.50261500  0.49738500  0.99738500  1
  Li  Li5  1  0.74738500  0.25261500  0.75261500  1
  Li  Li6  1  0.75261500  0.74738500  0.25261500  1
  Li  Li7  1  0.99738500  0.50261500  0.49738500  1
  Ti  Ti0  1  0.12505700  0.12494300  0.62500000  1
  Ti  Ti1  1  0.12500000  0.37494300  0.87505700  1
  Ti  Ti2  1  0.12494300  0.62500000  0.12505700  1
  Ti  Ti3  1  0.37505700  0.37500000  0.62505700  1
  Ti  Ti4  1  0.37500000  0.62505700  0.37505700  1
  Ti  Ti5  1  0.37494300  0.87505700  0.12500000  1
  Ti  Ti6  1  0.62505700  0.37505700  0.37500000  1
  Ti  Ti7  1  0.62500000  0.12505700  0.12494300  1
  Ti  Ti8  1  0.62494300  0.87500000  0.87494300  1
  Ti  Ti9  1  0.87505700  0.12500000  0.37494300  1
  Ti  Ti10  1  0.87500000  0.87494300  0.62494300  1
  Ti  Ti11  1  0.87494300  0.62494300  0.87500000  1
  Cr  Cr0  1  0.12500000  0.87500000  0.37500000  1
  Cr  Cr1  1  0.37500000  0.12500000  0.87500000  1
  Cr  Cr2  1  0.62500000  0.62500000  0.62500000  1
  Cr  Cr3  1  0.87500000  0.37500000  0.12500000  1
  O  O0  1  0.11118800  0.11415500  0.38819500  1
  O  O1  1  0.11180500  0.88881200  0.61415500  1
  O  O2  1  0.11295100  0.61295100  0.88704900  1
  O  O3  1  0.13584500  0.13881200  0.86180500  1
  O  O4  1  0.11415500  0.38819500  0.11118800  1
  O  O5  1  0.13704900  0.36295100  0.63704900  1
  O  O6  1  0.13819500  0.63584500  0.36118800  1
  O  O7  1  0.13881200  0.86180500  0.13584500  1
  O  O8  1  0.36118800  0.13819500  0.63584500  1
  O  O9  1  0.36180500  0.36415500  0.86118800  1
  O  O10  1  0.36295100  0.63704900  0.13704900  1
  O  O11  1  0.38584500  0.61180500  0.61118800  1
  O  O12  1  0.36415500  0.86118800  0.36180500  1
  O  O13  1  0.38704900  0.38704900  0.38704900  1
  O  O14  1  0.38819500  0.11118800  0.11415500  1
  O  O15  1  0.38881200  0.88584500  0.88819500  1
  O  O16  1  0.61118800  0.38584500  0.61180500  1
  O  O17  1  0.61180500  0.61118800  0.38584500  1
  O  O18  1  0.61295100  0.88704900  0.11295100  1
  O  O19  1  0.63584500  0.36118800  0.13819500  1
  O  O20  1  0.61415500  0.11180500  0.88881200  1
  O  O21  1  0.63704900  0.13704900  0.36295100  1
  O  O22  1  0.63819500  0.86415500  0.63881200  1
  O  O23  1  0.63881200  0.63819500  0.86415500  1
  O  O24  1  0.86118800  0.36180500  0.36415500  1
  O  O25  1  0.86180500  0.13584500  0.13881200  1
  O  O26  1  0.86295100  0.86295100  0.86295100  1
  O  O27  1  0.88584500  0.88819500  0.38881200  1
  O  O28  1  0.86415500  0.63881200  0.63819500  1
  O  O29  1  0.88704900  0.11295100  0.61295100  1
  O  O30  1  0.88819500  0.38881200  0.88584500  1
  O  O31  1  0.88881200  0.61415500  0.11180500  1
loop_
_geom_bond_atom_site_label_1
_geom_bond_atom_site_label_2
_geom_bond_distance
_geom_bond_site_symmetry_2
Li0 O25 2.000046 1_455
Li0 O7 2.000046 1_545
Li0 O3 2.000046 1_554
Li0 O26 2.042199 1_444
Li1 O0 2.000046 1_555
Li1 O14 2.000046 1_555
Li1 O4 2.000046 1_555
Li1 O13 2.042199 1_555
Li2 O1 2.000046 1_555
Li2 O11 2.000046 1_555
Li2 O15 2.000046 1_555
Li2 O2 2.042199 1_555
Li3 O12 2.000046 1_555
Li3 O8 2.000046 1_565
Li3 O22 2.000046 1_555
Li3 O21 2.042199 1_565
Li4 O9 2.000046 1_555
Li4 O19 2.000046 1_556
Li4 O23 2.000046 1_555
Li4 O10 2.042199 1_556
Li5 O20 2.000046 1_555
Li5 O16 2.000046 1_555
Li5 O30 2.000046 1_555
Li5 O29 2.042199 1_555
Li6 O31 2.000046 1_555
Li6 O17 2.000046 1_555
Li6 O27 2.000046 1_555
Li6 O18 2.042199 1_555
Li7 O24 2.000046 1_555
Li7 O6 2.000046 1_655
Li7 O28 2.000046 1_555
Li7 O5 2.042199 1_655
Cr0 O0 2.025412 1_565
Cr0 O6 2.025412 1_555
Cr0 O1 2.025412 1_555
Cr0 O12 2.025412 1_555
Cr0 O27 2.025412 1_455
Cr0 O7 2.025412 1_555
Cr1 O14 2.025412 1_556
Cr1 O20 2.025412 1_555
Cr1 O8 2.025412 1_555
Cr1 O9 2.025412 1_555
Cr1 O15 2.025412 1_545
Cr1 O3 2.025412 1_555
Cr2 O28 2.025412 1_555
Cr2 O22 2.025412 1_555
Cr2 O23 2.025412 1_555
Cr2 O16 2.025412 1_555
Cr2 O17 2.025412 1_555
Cr2 O11 2.025412 1_555
Cr3 O4 2.025412 1_655
Cr3 O19 2.025412 1_555
Cr3 O31 2.025412 1_555
Cr3 O24 2.025412 1_555
Cr3 O30 2.025412 1_554
Cr3 O25 2.025412 1_555
O0 Ti9 1.998688 1_455
O0 Ti0 2.004638 1_555
O1 Ti0 1.998688 1_565
O1 Ti10 2.004638 1_455
O2 Ti2 2.014417 1_556
O2 Ti11 2.014417 1_455
O2 Ti1 2.014417 1_555
O3 Ti1 1.998688 1_555
O3 Ti0 2.004638 1_555
O4 Ti1 1.998688 1_554
O4 Ti2 2.004638 1_555
O5 Ti0 2.014417 1_555
O5 Ti3 2.014417 1_555
O5 Ti1 2.014417 1_555
O6 Ti2 1.998688 1_555
O6 Ti4 2.004638 1_555
O7 Ti5 1.998688 1_555
O7 Ti2 2.004638 1_555
O8 Ti0 1.998688 1_555
O8 Ti3 2.004638 1_555
O9 Ti3 1.998688 1_555
O9 Ti1 2.004638 1_555
O10 Ti2 2.014417 1_555
O10 Ti4 2.014417 1_555
O10 Ti5 2.014417 1_555
O11 Ti4 1.998688 1_555
O11 Ti3 2.004638 1_555
O12 Ti4 1.998688 1_555
O12 Ti5 2.004638 1_555
O13 Ti6 2.014417 1_555
O13 Ti4 2.014417 1_555
O13 Ti3 2.014417 1_555
O14 Ti5 1.998688 1_545
O14 Ti7 2.004638 1_555
O15 Ti8 1.998688 1_555
O15 Ti5 2.004638 1_556
O16 Ti3 1.998688 1_555
O16 Ti6 2.004638 1_555
O17 Ti6 1.998688 1_555
O17 Ti4 2.004638 1_555
O18 Ti7 2.014417 1_565
O18 Ti8 2.014417 1_554
O18 Ti5 2.014417 1_555
O19 Ti7 1.998688 1_555
O19 Ti6 2.004638 1_555
O20 Ti7 1.998688 1_556
O20 Ti8 2.004638 1_545
O21 Ti7 2.014417 1_555
O21 Ti9 2.014417 1_555
O21 Ti6 2.014417 1_555
O22 Ti8 1.998688 1_555
O22 Ti10 2.004638 1_555
O23 Ti11 1.998688 1_555
O23 Ti8 2.004638 1_555
O24 Ti6 1.998688 1_555
O24 Ti9 2.004638 1_555
O25 Ti9 1.998688 1_555
O25 Ti7 2.004638 1_555
O26 Ti11 2.014417 1_555
O26 Ti10 2.014417 1_555
O26 Ti8 2.014417 1_555
O27 Ti10 1.998688 1_555
O27 Ti9 2.004638 1_565
O28 Ti10 1.998688 1_555
O28 Ti11 2.004638 1_555
O29 Ti0 2.014417 1_655
O29 Ti10 2.014417 1_545
O29 Ti9 2.014417 1_555
O30 Ti11 1.998688 1_555
O30 Ti1 2.004638 1_655
O31 Ti2 1.998688 1_655
O31 Ti11 2.004638 1_554
