# generated using pymatgen
data_TiFe(PO4)2
_symmetry_space_group_name_H-M   'P 1'
_cell_length_a   8.52223921
_cell_length_b   8.52223921
_cell_length_c   8.52223932
_cell_angle_alpha   61.42866991
_cell_angle_beta   61.42866991
_cell_angle_gamma   61.42866818
_symmetry_Int_Tables_number   1
_chemical_formula_structural   TiFe(PO4)2
_chemical_formula_sum   'Ti3 Fe3 P6 O24'
_cell_volume   451.71242585
_cell_formula_units_Z   3
loop_
 _symmetry_equiv_pos_site_id
 _symmetry_equiv_pos_as_xyz
  1  'x, y, z'
loop_
 _atom_site_type_symbol
 _atom_site_label
 _atom_site_symmetry_multiplicity
 _atom_site_fract_x
 _atom_site_fract_y
 _atom_site_fract_z
 _atom_site_occupancy
  Ti  Ti0  1  0.35681200  0.35681200  0.35681200  1
  Ti  Ti1  1  0.14134600  0.14134600  0.14134600  1
  Ti  Ti2  1  0.64407800  0.64407800  0.64407800  1
  Fe  Fe0  1  0.99667200  0.99667200  0.99667200  1
  Fe  Fe1  1  0.85789700  0.85789700  0.85789700  1
  Fe  Fe2  1  0.49886700  0.49886700  0.49886700  1
  P  P0  1  0.75313000  0.04389200  0.45785600  1
  P  P1  1  0.04389200  0.45785600  0.75313000  1
  P  P2  1  0.45785600  0.75313000  0.04389200  1
  P  P3  1  0.54089500  0.25201800  0.95655000  1
  P  P4  1  0.95655000  0.54089500  0.25201800  1
  P  P5  1  0.25201800  0.95655000  0.54089500  1
  O  O0  1  0.87978100  0.50397400  0.68664400  1
  O  O1  1  0.50397400  0.68664400  0.87978100  1
  O  O2  1  0.68664400  0.87978100  0.50397400  1
  O  O3  1  0.90887100  0.05666600  0.25849600  1
  O  O4  1  0.81685200  0.01268900  0.60958000  1
  O  O5  1  0.59154400  0.24018600  0.43363000  1
  O  O6  1  0.05666600  0.25849600  0.90887100  1
  O  O7  1  0.24018600  0.43363000  0.59154400  1
  O  O8  1  0.37979800  0.18458200  0.00106600  1
  O  O9  1  0.43363000  0.59154400  0.24018600  1
  O  O10  1  0.73377300  0.09804100  0.94845800  1
  O  O11  1  0.00106600  0.37979800  0.18458200  1
  O  O12  1  0.01268900  0.60958000  0.81685200  1
  O  O13  1  0.25849600  0.90887100  0.05666600  1
  O  O14  1  0.55194600  0.41275000  0.76125500  1
  O  O15  1  0.60958000  0.81685200  0.01268900  1
  O  O16  1  0.76125500  0.55194600  0.41275000  1
  O  O17  1  0.94845800  0.73377300  0.09804100  1
  O  O18  1  0.41275000  0.76125500  0.55194600  1
  O  O19  1  0.18458200  0.00106600  0.37979800  1
  O  O20  1  0.09804100  0.94845800  0.73377300  1
  O  O21  1  0.32947700  0.11364300  0.48627600  1
  O  O22  1  0.48627600  0.32947700  0.11364300  1
  O  O23  1  0.11364300  0.48627600  0.32947700  1
loop_
_geom_bond_atom_site_label_1
_geom_bond_atom_site_label_2
_geom_bond_distance
_geom_bond_site_symmetry_2
Fe0 O10 2.150489 1_565
Fe0 O17 2.150489 1_556
Fe0 O20 2.150489 1_655
Fe0 O13 2.220003 1_656
Fe0 O6 2.220003 1_665
Fe0 O3 2.220003 1_566
Fe1 O12 1.984286 1_655
Fe1 O15 1.984286 1_556
Fe1 O4 1.984286 1_565
Fe1 O10 2.135938 1_565
Fe1 O17 2.135938 1_556
Fe1 O20 2.135938 1_655
Fe2 O18 2.196310 1_555
Fe2 O16 2.196310 1_555
Fe2 O14 2.196310 1_555
Fe2 O5 2.209024 1_555
Fe2 O7 2.209024 1_555
Fe2 O9 2.209024 1_555
O0 P1 1.565498 1_655
O0 Ti2 1.892294 1_555
O1 P2 1.565498 1_556
O1 Ti2 1.892294 1_555
O2 P0 1.565498 1_565
O2 Ti2 1.892294 1_555
O3 P0 1.569847 1_555
O3 Ti1 2.056502 1_655
O4 P0 1.497388 1_555
O5 P0 1.573392 1_555
O5 Ti0 2.036345 1_555
O6 P1 1.569847 1_555
O6 Ti1 2.056502 1_556
O7 P1 1.573392 1_555
O7 Ti0 2.036345 1_555
O8 P3 1.551466 1_554
O8 Ti1 1.914604 1_555
O9 P2 1.573392 1_555
O9 Ti0 2.036345 1_555
O10 P3 1.530880 1_555
O11 P4 1.551466 1_455
O11 Ti1 1.914604 1_555
O12 P1 1.497388 1_555
O13 P2 1.569847 1_555
O13 Ti1 2.056502 1_565
O14 P3 1.564634 1_555
O14 Ti2 2.085139 1_555
O15 P2 1.497388 1_555
O16 P4 1.564634 1_555
O16 Ti2 2.085139 1_555
O17 P4 1.530880 1_555
O18 P5 1.564634 1_555
O18 Ti2 2.085139 1_555
O19 P5 1.551466 1_545
O19 Ti1 1.914604 1_555
O20 P5 1.530880 1_555
O21 P5 1.549234 1_545
O21 Ti0 1.896077 1_555
O22 P3 1.549234 1_554
O22 Ti0 1.896077 1_555
O23 P4 1.549234 1_455
O23 Ti0 1.896076 1_555
