# generated using pymatgen
data_Li3Mn4(BO3)4
_symmetry_space_group_name_H-M   'P 1'
_cell_length_a   5.28089500
_cell_length_b   9.10928293
_cell_length_c   11.57246815
_cell_angle_alpha   111.75292639
_cell_angle_beta   102.00622378
_cell_angle_gamma   90.30953629
_symmetry_Int_Tables_number   1
_chemical_formula_structural   Li3Mn4(BO3)4
_chemical_formula_sum   'Li6 Mn8 B8 O24'
_cell_volume   503.65360098
_cell_formula_units_Z   2
loop_
 _symmetry_equiv_pos_site_id
 _symmetry_equiv_pos_as_xyz
  1  'x, y, z'
loop_
 _atom_site_type_symbol
 _atom_site_label
 _atom_site_symmetry_multiplicity
 _atom_site_fract_x
 _atom_site_fract_y
 _atom_site_fract_z
 _atom_site_occupancy
  Li  Li0  1  0.96583900  0.95800000  0.08883700  1
  Li  Li1  1  0.73469300  0.73725100  0.33488800  1
  Li  Li2  1  0.52098900  0.49472800  0.82867400  1
  Li  Li3  1  0.22853700  0.24929200  0.33889600  1
  Li  Li4  1  0.21176400  0.23039700  0.59824100  1
  Li  Li5  1  0.02072600  0.98632100  0.83044200  1
  Mn  Mn0  1  0.98137200  0.63730500  0.11776500  1
  Mn  Mn1  1  0.76296700  0.42185100  0.37518600  1
  Mn  Mn2  1  0.71738400  0.04769600  0.61955400  1
  Mn  Mn3  1  0.45366900  0.15571900  0.10695600  1
  Mn  Mn4  1  0.53106600  0.84852500  0.86694500  1
  Mn  Mn5  1  0.25563000  0.93023900  0.36455800  1
  Mn  Mn6  1  0.23284500  0.57581700  0.61651200  1
  Mn  Mn7  1  0.02490700  0.34357000  0.86958000  1
  B  B0  1  0.95743400  0.30978700  0.13397800  1
  B  B1  1  0.76970200  0.10743400  0.39196600  1
  B  B2  1  0.72870000  0.38507100  0.61508000  1
  B  B3  1  0.48979500  0.83363800  0.13266200  1
  B  B4  1  0.51152400  0.17822900  0.85451700  1
  B  B5  1  0.26691400  0.59328000  0.36934700  1
  B  B6  1  0.24447900  0.91033400  0.62887800  1
  B  B7  1  0.03341200  0.68741400  0.87522700  1
  O  O0  1  0.99600500  0.91911200  0.64611900  1
  O  O1  1  0.73882800  0.34732200  0.19013200  1
  O  O2  1  0.88255600  0.28024200  0.65407400  1
  O  O3  1  0.84200600  0.47542700  0.55975800  1
  O  O4  1  0.64547100  0.72895400  0.16256100  1
  O  O5  1  0.57666400  0.93074100  0.07629900  1
  O  O6  1  0.93417800  0.83290400  0.89423400  1
  O  O7  1  0.90692500  0.57562400  0.90566700  1
  O  O8  1  0.67241700  0.98926900  0.43016200  1
  O  O9  1  0.59522400  0.20265400  0.35275300  1
  O  O10  1  0.74393800  0.13194000  0.80983000  1
  O  O11  1  0.52528400  0.59349100  0.37048200  1
  O  O12  1  0.48146100  0.40343800  0.63396100  1
  O  O13  1  0.24153600  0.84982800  0.16205600  1
  O  O14  1  0.39927600  0.80414300  0.66040300  1
  O  O15  1  0.33802500  0.01828100  0.58293800  1
  O  O16  1  0.09295800  0.18576500  0.14767100  1
  O  O17  1  0.40313600  0.30999800  0.84841200  1
  O  O18  1  0.40152300  0.08174000  0.90398500  1
  O  O19  1  0.01959100  0.39402700  0.06576300  1
  O  O20  1  0.15240200  0.48003000  0.40449600  1
  O  O21  1  0.11152000  0.70081000  0.33617500  1
  O  O22  1  0.25827000  0.65207200  0.82778100  1
  O  O23  1  0.02911300  0.12294400  0.39494400  1
loop_
_geom_bond_atom_site_label_1
_geom_bond_atom_site_label_2
_geom_bond_distance
_geom_bond_site_symmetry_2
Li0 O13 1.982360 1_655
Li0 O16 1.991646 1_665
Li0 O5 2.037215 1_555
Li0 O6 2.082620 1_554
Li1 O11 1.918651 1_555
Li1 O4 1.923985 1_555
Li1 O21 2.017157 1_655
Li1 O8 2.208381 1_555
Li2 O17 1.898399 1_555
Li2 O22 2.001446 1_555
Li2 O12 2.055738 1_555
Li2 O7 2.057261 1_555
Li3 O23 1.918039 1_555
Li3 O9 1.971340 1_555
Li3 O20 2.027114 1_555
Li3 O16 2.032679 1_555
Li4 O2 1.975975 1_455
Li4 O12 1.982887 1_555
Li4 O15 2.004708 1_555
Li4 O23 2.182257 1_555
Li5 O6 1.898713 1_455
Li5 O0 1.963971 1_455
Li5 O10 2.015791 1_465
Li5 O18 2.060223 1_565
Mn0 O4 2.046969 1_555
Mn0 O19 2.093037 1_655
Mn0 O13 2.200216 1_655
Mn0 O7 2.251390 1_554
Mn0 O21 2.320499 1_655
Mn1 O3 1.956765 1_555
Mn1 O1 1.967528 1_555
Mn1 O11 2.019626 1_555
Mn1 O20 2.046985 1_655
Mn1 O9 2.083271 1_555
Mn2 O0 1.930992 1_545
Mn2 O15 1.954905 1_555
Mn2 O8 2.015150 1_545
Mn2 O10 2.018687 1_555
Mn2 O2 2.148385 1_555
Mn3 O16 2.051566 1_555
Mn3 O5 2.078239 1_545
Mn3 O1 2.088982 1_555
Mn3 O18 2.145418 1_554
Mn3 O9 2.653894 1_555
Mn4 O6 2.099673 1_555
Mn4 O22 2.140695 1_555
Mn4 O18 2.151195 1_565
Mn4 O5 2.213369 1_556
Mn4 O14 2.224749 1_555
Mn5 O23 2.091932 1_565
Mn5 O21 2.103540 1_555
Mn5 O13 2.165260 1_555
Mn5 O8 2.167808 1_555
Mn5 O15 2.292532 1_565
Mn6 O14 2.089946 1_555
Mn6 O12 2.092176 1_555
Mn6 O3 2.120873 1_455
Mn6 O20 2.221994 1_555
Mn6 O22 2.254266 1_555
Mn7 O17 2.073096 1_555
Mn7 O7 2.121108 1_455
Mn7 O19 2.149327 1_556
Mn7 O10 2.224931 1_455
Mn7 O2 2.294903 1_455
B0 O19 1.368889 1_655
B0 O16 1.381269 1_655
B0 O1 1.422535 1_555
B1 O23 1.368391 1_655
B1 O9 1.390573 1_555
B1 O8 1.434964 1_545
B2 O12 1.369084 1_555
B2 O2 1.396744 1_555
B2 O3 1.410670 1_555
B3 O4 1.356325 1_555
B3 O5 1.402156 1_555
B3 O13 1.416580 1_555
B4 O17 1.351608 1_555
B4 O18 1.394095 1_555
B4 O10 1.435150 1_555
B5 O11 1.361737 1_555
B5 O21 1.391610 1_555
B5 O20 1.414930 1_555
B6 O0 1.366092 1_455
B6 O14 1.372263 1_555
B6 O15 1.408936 1_565
B7 O6 1.385221 1_455
B7 O22 1.399829 1_555
B7 O7 1.401317 1_455
