# generated using pymatgen
data_Fe4O3F5
_symmetry_space_group_name_H-M   'P 1'
_cell_length_a   4.82237200
_cell_length_b   6.13450834
_cell_length_c   10.11784433
_cell_angle_alpha   72.50161581
_cell_angle_beta   89.66612812
_cell_angle_gamma   89.88051440
_symmetry_Int_Tables_number   1
_chemical_formula_structural   Fe4O3F5
_chemical_formula_sum   'Fe8 O6 F10'
_cell_volume   285.45945106
_cell_formula_units_Z   2
loop_
 _symmetry_equiv_pos_site_id
 _symmetry_equiv_pos_as_xyz
  1  'x, y, z'
loop_
 _atom_site_type_symbol
 _atom_site_label
 _atom_site_symmetry_multiplicity
 _atom_site_fract_x
 _atom_site_fract_y
 _atom_site_fract_z
 _atom_site_occupancy
  Fe  Fe0  1  0.45731700  0.12902800  0.23789400  1
  Fe  Fe1  1  0.52786500  0.39505200  0.72848300  1
  Fe  Fe2  1  0.56341500  0.86820600  0.75087900  1
  Fe  Fe3  1  0.49637200  0.62406900  0.25866700  1
  Fe  Fe4  1  0.95100500  0.48801200  0.02226000  1
  Fe  Fe5  1  0.01220500  0.76240900  0.49470500  1
  Fe  Fe6  1  0.01061700  0.00283100  0.99228000  1
  Fe  Fe7  1  0.97978900  0.23323300  0.51228700  1
  O  O0  1  0.82312600  0.79290700  0.91335500  1
  O  O1  1  0.66181300  0.42377000  0.15961300  1
  O  O2  1  0.69696100  0.17028700  0.66307100  1
  O  O3  1  0.71490800  0.67424300  0.65113400  1
  O  O4  1  0.31063100  0.83022300  0.33639300  1
  O  O5  1  0.17087800  0.20328200  0.09053200  1
  F  F0  1  0.78080200  0.06023200  0.38748300  1
  F  F1  1  0.79835200  0.54867600  0.39580300  1
  F  F2  1  0.79559000  0.29824200  0.90185400  1
  F  F3  1  0.69400600  0.92491300  0.14593000  1
  F  F4  1  0.30930000  0.07900100  0.84907700  1
  F  F5  1  0.32675600  0.57314100  0.84415500  1
  F  F6  1  0.28752500  0.32527300  0.35236200  1
  F  F7  1  0.21142200  0.44821500  0.59841800  1
  F  F8  1  0.19395500  0.69827300  0.10266100  1
  F  F9  1  0.22538600  0.94648400  0.61070500  1
loop_
_geom_bond_atom_site_label_1
_geom_bond_atom_site_label_2
_geom_bond_distance
_geom_bond_site_symmetry_2
Fe0 O4 1.937058 1_545
Fe0 O5 1.987843 1_555
Fe0 O1 2.001545 1_555
Fe1 O2 1.881995 1_555
Fe1 O3 1.884562 1_555
Fe2 O2 1.909543 1_565
Fe2 O3 1.917784 1_555
Fe2 O0 2.012288 1_555
Fe3 O4 1.898750 1_555
Fe3 O1 1.969232 1_555
Fe4 O1 1.918818 1_555
Fe4 O0 1.963800 1_554
Fe4 O5 1.981803 1_655
Fe5 O3 2.077253 1_455
Fe5 O4 2.093976 1_555
Fe6 O0 1.935261 1_445
Fe6 O5 1.961025 1_556
Fe7 O2 1.990101 1_555
F0 Fe7 2.113271 1_555
F0 Fe0 2.131429 1_555
F0 Fe5 2.138641 1_645
F1 Fe3 1.973485 1_555
F1 Fe7 2.128994 1_555
F1 Fe5 2.142582 1_655
F2 Fe6 2.050012 1_655
F2 Fe4 2.065964 1_556
F2 Fe1 2.119740 1_555
F3 Fe3 2.084262 1_555
F3 Fe0 2.102083 1_565
F3 Fe6 2.122490 1_664
F4 Fe6 1.990893 1_555
F4 Fe2 2.216490 1_545
F4 Fe1 2.220278 1_555
F5 Fe1 2.062778 1_555
F5 Fe2 2.106729 1_555
F5 Fe4 2.490666 1_456
F6 Fe3 2.055337 1_555
F6 Fe0 2.069875 1_555
F6 Fe7 2.136690 1_455
F7 Fe1 1.982445 1_555
F7 Fe7 2.110701 1_455
F7 Fe5 2.127628 1_555
F8 Fe6 2.066252 1_564
F8 Fe4 2.084826 1_455
F8 Fe3 2.101787 1_555
F9 Fe7 2.107198 1_465
F9 Fe2 2.124478 1_555
F9 Fe5 2.127292 1_555
