# generated using pymatgen
data_Na2CuH4(SO5)2
_symmetry_space_group_name_H-M   'P 1'
_cell_length_a   12.83261700
_cell_length_b   5.64092000
_cell_length_c   5.88073807
_cell_angle_alpha   70.27883475
_cell_angle_beta   90.00000000
_cell_angle_gamma   90.00000000
_symmetry_Int_Tables_number   1
_chemical_formula_structural   Na2CuH4(SO5)2
_chemical_formula_sum   'Na4 Cu2 H8 S4 O20'
_cell_volume   400.72484589
_cell_formula_units_Z   2
loop_
 _symmetry_equiv_pos_site_id
 _symmetry_equiv_pos_as_xyz
  1  'x, y, z'
loop_
 _atom_site_type_symbol
 _atom_site_label
 _atom_site_symmetry_multiplicity
 _atom_site_fract_x
 _atom_site_fract_y
 _atom_site_fract_z
 _atom_site_occupancy
  Na  Na0  1  0.62354000  0.28835500  0.56919200  1
  Na  Na1  1  0.12354000  0.21164500  0.43080800  1
  Na  Na2  1  0.37646000  0.71164500  0.43080800  1
  Na  Na3  1  0.87646000  0.78835500  0.56919200  1
  Cu  Cu0  1  0.50000000  0.50000000  0.00000000  1
  Cu  Cu1  1  0.00000000  0.00000000  0.00000000  1
  H  H0  1  0.69898700  0.51552300  0.92846600  1
  H  H1  1  0.19898700  0.98447700  0.07153400  1
  H  H2  1  0.30101300  0.48447700  0.07153400  1
  H  H3  1  0.80101300  0.01552300  0.92846600  1
  H  H4  1  0.64462500  0.71630700  0.70239300  1
  H  H5  1  0.14462500  0.78369300  0.29760700  1
  H  H6  1  0.35537500  0.28369300  0.29760700  1
  H  H7  1  0.85537500  0.21630700  0.70239300  1
  S  S0  1  0.61926000  0.95496000  0.23964200  1
  S  S1  1  0.11926000  0.54504000  0.76035800  1
  S  S2  1  0.38074000  0.04504000  0.76035800  1
  S  S3  1  0.88074000  0.45496000  0.23964200  1
  O  O0  1  0.67559700  0.01442700  0.00872300  1
  O  O1  1  0.17559700  0.48557300  0.99127700  1
  O  O2  1  0.32440300  0.98557300  0.99127700  1
  O  O3  1  0.82440300  0.51442700  0.00872300  1
  O  O4  1  0.55830100  0.71859300  0.29331300  1
  O  O5  1  0.05830100  0.78140700  0.70668700  1
  O  O6  1  0.44169900  0.28140700  0.70668700  1
  O  O7  1  0.94169900  0.21859300  0.29331300  1
  O  O8  1  0.54468500  0.16766500  0.23197500  1
  O  O9  1  0.04468500  0.33233500  0.76802500  1
  O  O10  1  0.45531500  0.83233500  0.76802500  1
  O  O11  1  0.95531500  0.66766500  0.23197500  1
  O  O12  1  0.69154600  0.93406100  0.44574900  1
  O  O13  1  0.19154600  0.56593900  0.55425100  1
  O  O14  1  0.30845400  0.06593900  0.55425100  1
  O  O15  1  0.80845400  0.43406100  0.44574900  1
  O  O16  1  0.63402200  0.54689500  0.82817400  1
  O  O17  1  0.13402200  0.95310500  0.17182600  1
  O  O18  1  0.36597800  0.45310500  0.17182600  1
  O  O19  1  0.86597800  0.04689500  0.82817400  1
loop_
_geom_bond_atom_site_label_1
_geom_bond_atom_site_label_2
_geom_bond_distance
_geom_bond_site_symmetry_2
Na0 O16 2.442050 1_555
Na0 O6 2.465591 1_555
Na0 O12 2.502377 1_545
Na0 O8 2.516197 1_555
Na0 O15 2.535873 1_555
Na0 O4 2.562364 1_555
Na0 O0 2.611407 1_556
Na1 O17 2.442050 1_545
Na1 O7 2.465591 1_455
Na1 O13 2.502377 1_555
Na1 O9 2.516197 1_555
Na1 O14 2.535873 1_555
Na1 O5 2.562364 1_545
Na1 O1 2.611407 1_554
Na2 O18 2.442050 1_555
Na2 O4 2.465591 1_555
Na2 O14 2.502377 1_565
Na2 O10 2.516197 1_555
Na2 O13 2.535873 1_555
Na2 O6 2.562364 1_555
Na2 O2 2.611407 1_554
Na3 O19 2.442050 1_565
Na3 O5 2.465591 1_655
Na3 O15 2.502377 1_555
Na3 O11 2.516197 1_555
Na3 O12 2.535873 1_555
Na3 O7 2.562364 1_565
Na3 O3 2.611407 1_556
Cu0 O16 1.966853 1_554
Cu0 O18 1.966853 1_555
Cu0 O10 1.994559 1_554
Cu0 O8 1.994559 1_555
Cu0 O4 2.547720 1_555
Cu0 O6 2.547720 1_554
Cu1 O17 1.966853 1_545
Cu1 O19 1.966853 1_454
Cu1 O9 1.994559 1_554
Cu1 O11 1.994559 1_445
Cu1 O7 2.547720 1_455
Cu1 O5 2.547720 1_544
H0 O16 1.001867 1_555
H0 O3 1.676617 1_556
H1 O17 1.001867 1_555
H1 O2 1.676617 1_554
H2 O18 1.001867 1_555
H2 O1 1.676617 1_554
H3 O19 1.001867 1_555
H3 O0 1.676617 1_556
H4 O16 1.000918 1_555
H4 O12 1.702367 1_555
H5 O17 1.000918 1_555
H5 O13 1.702367 1_555
H6 O18 1.000918 1_555
H6 O14 1.702367 1_555
H7 O19 1.000918 1_555
H7 O15 1.702367 1_555
O0 S0 1.473719 1_545
O1 S1 1.473719 1_555
O2 S2 1.473719 1_565
O3 S3 1.473719 1_555
O4 S0 1.485027 1_555
O5 S1 1.485027 1_555
O6 S2 1.485027 1_555
O7 S3 1.485027 1_555
O8 S0 1.523483 1_545
O9 S1 1.523483 1_555
O10 S2 1.523483 1_565
O11 S3 1.523483 1_555
O12 S0 1.499011 1_555
O13 S1 1.499011 1_555
O14 S2 1.499011 1_555
O15 S3 1.499011 1_555
