# generated using pymatgen
data_Li2V3NiO8
_symmetry_space_group_name_H-M   'P 1'
_cell_length_a   6.38628061
_cell_length_b   6.38628061
_cell_length_c   6.47193035
_cell_angle_alpha   74.12120273
_cell_angle_beta   74.12120273
_cell_angle_gamma   36.66118344
_symmetry_Int_Tables_number   1
_chemical_formula_structural   Li2V3NiO8
_chemical_formula_sum   'Li2 V3 Ni1 O8'
_cell_volume   150.91430364
_cell_formula_units_Z   1
loop_
 _symmetry_equiv_pos_site_id
 _symmetry_equiv_pos_as_xyz
  1  'x, y, z'
loop_
 _atom_site_type_symbol
 _atom_site_label
 _atom_site_symmetry_multiplicity
 _atom_site_fract_x
 _atom_site_fract_y
 _atom_site_fract_z
 _atom_site_occupancy
  Li  Li0  1  0.93862000  0.93862000  0.34300100  1
  Li  Li1  1  0.05928500  0.05928500  0.63991200  1
  V  V0  1  0.60715200  0.60715200  0.29803400  1
  V  V1  1  0.38844000  0.38844000  0.72519400  1
  V  V2  1  0.71054200  0.71054300  0.70784500  1
  Ni  Ni0  1  0.28685200  0.28685200  0.30931900  1
  O  O0  1  0.87902800  0.87902800  0.67133200  1
  O  O1  1  0.75910400  0.75910400  0.35897800  1
  O  O2  1  0.65546600  0.65546600  0.98531200  1
  O  O3  1  0.55956200  0.55956200  0.64037200  1
  O  O4  1  0.45213200  0.45213200  0.35092900  1
  O  O5  1  0.35487400  0.35487400  0.99395100  1
  O  O6  1  0.23552400  0.23552400  0.65717000  1
  O  O7  1  0.11341800  0.11341800  0.31865100  1
loop_
_geom_bond_atom_site_label_1
_geom_bond_atom_site_label_2
_geom_bond_distance
_geom_bond_site_symmetry_2
Li0 O4 2.017006 1_655
Li0 O4 2.017006 1_565
Li0 O0 2.037731 1_555
Li0 O7 2.079390 1_665
Li0 O1 2.149012 1_555
Li1 O7 1.991759 1_555
Li1 O3 2.008487 1_545
Li1 O3 2.008487 1_455
Li1 O0 2.135801 1_445
Li1 O6 2.171630 1_555
Ni0 O5 1.968672 1_554
Ni0 O1 2.046495 1_545
Ni0 O1 2.046495 1_455
Ni0 O7 2.086186 1_555
Ni0 O4 2.097460 1_555
Ni0 O6 2.155891 1_555
O0 V2 1.987606 1_555
O0 V1 2.047307 1_655
O0 V1 2.047307 1_565
O1 V0 1.992149 1_555
O1 V2 2.162912 1_555
O2 V2 1.726085 1_555
O2 V0 1.938025 1_556
O3 V1 1.987316 1_555
O3 V2 2.000606 1_555
O3 V0 2.122456 1_555
O4 V0 1.810781 1_555
O4 V1 2.320605 1_555
O5 V1 1.668232 1_555
O6 V1 2.025275 1_555
O6 V2 2.043533 1_545
O6 V2 2.043537 1_455
O7 V0 2.015791 1_455
O7 V0 2.015791 1_545
