# generated using pymatgen
data_Li2Mn3NiO8
_symmetry_space_group_name_H-M   'P 1'
_cell_length_a   5.90283373
_cell_length_b   5.90283373
_cell_length_c   5.90283399
_cell_angle_alpha   59.09040896
_cell_angle_beta   59.09040896
_cell_angle_gamma   59.09041196
_symmetry_Int_Tables_number   1
_chemical_formula_structural   Li2Mn3NiO8
_chemical_formula_sum   'Li2 Mn3 Ni1 O8'
_cell_volume   142.41834490
_cell_formula_units_Z   1
loop_
 _symmetry_equiv_pos_site_id
 _symmetry_equiv_pos_as_xyz
  1  'x, y, z'
loop_
 _atom_site_type_symbol
 _atom_site_label
 _atom_site_symmetry_multiplicity
 _atom_site_fract_x
 _atom_site_fract_y
 _atom_site_fract_z
 _atom_site_occupancy
  Li  Li0  1  0.88319300  0.88319300  0.88319300  1
  Li  Li1  1  0.50085200  0.50085200  0.50085200  1
  Mn  Mn0  1  0.50087600  0.50087600  0.99517700  1
  Mn  Mn1  1  0.99517700  0.50087600  0.50087600  1
  Mn  Mn2  1  0.50087600  0.99517700  0.50087600  1
  Ni  Ni0  1  0.11600800  0.11600800  0.11600800  1
  O  O0  1  0.73738100  0.73738100  0.73738100  1
  O  O1  1  0.74849300  0.29020700  0.74849300  1
  O  O2  1  0.29020700  0.74849300  0.74849300  1
  O  O3  1  0.74849300  0.74849300  0.29020700  1
  O  O4  1  0.25248500  0.25248500  0.71190600  1
  O  O5  1  0.71190600  0.25248500  0.25248500  1
  O  O6  1  0.25248500  0.71190600  0.25248500  1
  O  O7  1  0.26156800  0.26156800  0.26156800  1
loop_
_geom_bond_atom_site_label_1
_geom_bond_atom_site_label_2
_geom_bond_distance
_geom_bond_site_symmetry_2
Li0 O1 1.939318 1_565
Li0 O2 1.939318 1_655
Li0 O3 1.939318 1_556
Li0 O0 2.122662 1_555
Li1 O3 2.068889 1_555
Li1 O1 2.068890 1_555
Li1 O2 2.068890 1_555
Li1 O4 2.075109 1_555
Li1 O5 2.075109 1_555
Li1 O6 2.075109 1_555
Mn0 O2 1.899866 1_555
Mn0 O1 1.899866 1_555
Mn0 O5 1.946236 1_556
Mn0 O6 1.946236 1_556
Mn0 O0 1.962335 1_555
Mn0 O7 1.987318 1_556
Mn1 O1 1.899866 1_555
Mn1 O3 1.899866 1_555
Mn1 O6 1.946236 1_655
Mn1 O4 1.946236 1_655
Mn1 O0 1.962335 1_555
Mn1 O7 1.987318 1_655
Mn2 O2 1.899866 1_555
Mn2 O3 1.899866 1_555
Mn2 O5 1.946236 1_565
Mn2 O4 1.946236 1_565
Mn2 O0 1.962335 1_555
Mn2 O7 1.987318 1_565
Ni0 O6 1.925138 1_545
Ni0 O5 1.925138 1_455
Ni0 O4 1.925138 1_554
Ni0 O7 2.118994 1_555
