# generated using pymatgen
data_Li2BiO3
_symmetry_space_group_name_H-M   'P 1'
_cell_length_a   5.76864200
_cell_length_b   5.77971300
_cell_length_c   9.47750600
_cell_angle_alpha   90.00000000
_cell_angle_beta   90.00000000
_cell_angle_gamma   90.00000000
_symmetry_Int_Tables_number   1
_chemical_formula_structural   Li2BiO3
_chemical_formula_sum   'Li8 Bi4 O12'
_cell_volume   315.99042942
_cell_formula_units_Z   4
loop_
 _symmetry_equiv_pos_site_id
 _symmetry_equiv_pos_as_xyz
  1  'x, y, z'
loop_
 _atom_site_type_symbol
 _atom_site_label
 _atom_site_symmetry_multiplicity
 _atom_site_fract_x
 _atom_site_fract_y
 _atom_site_fract_z
 _atom_site_occupancy
  Li  Li0  1  0.50000000  0.00000000  0.00000000  1
  Li  Li1  1  0.00000000  0.00000000  0.50000000  1
  Li  Li2  1  0.75000000  0.24576400  0.75000000  1
  Li  Li3  1  0.25000000  0.25423600  0.75000000  1
  Li  Li4  1  0.50000000  0.50000000  0.00000000  1
  Li  Li5  1  0.00000000  0.50000000  0.50000000  1
  Li  Li6  1  0.75000000  0.74576400  0.25000000  1
  Li  Li7  1  0.25000000  0.75423600  0.25000000  1
  Bi  Bi0  1  0.00000000  0.25000000  0.09997800  1
  Bi  Bi1  1  0.50000000  0.25000000  0.40002200  1
  Bi  Bi2  1  0.50000000  0.75000000  0.59997800  1
  Bi  Bi3  1  0.00000000  0.75000000  0.90002200  1
  O  O0  1  0.21214700  0.08544800  0.92390900  1
  O  O1  1  0.28785300  0.08544800  0.57609100  1
  O  O2  1  0.25000000  0.09084500  0.25000000  1
  O  O3  1  0.75000000  0.40915500  0.25000000  1
  O  O4  1  0.78785300  0.41455200  0.92390900  1
  O  O5  1  0.71214700  0.41455200  0.57609100  1
  O  O6  1  0.21214700  0.58544800  0.07609100  1
  O  O7  1  0.28785300  0.58544800  0.42390900  1
  O  O8  1  0.25000000  0.59084500  0.75000000  1
  O  O9  1  0.75000000  0.90915500  0.75000000  1
  O  O10  1  0.71214700  0.91455200  0.42390900  1
  O  O11  1  0.78785300  0.91455200  0.07609100  1
loop_
_geom_bond_atom_site_label_1
_geom_bond_atom_site_label_2
_geom_bond_distance
_geom_bond_site_symmetry_2
Li0 O11 1.876511 1_545
Li0 O0 1.876511 1_554
Li1 O1 1.876511 1_555
Li1 O10 1.876511 1_445
Li2 O4 1.927696 1_555
Li2 O5 1.927696 1_555
Li2 O9 1.945503 1_545
Li3 O1 1.927696 1_555
Li3 O0 1.927696 1_555
Li3 O8 1.945503 1_555
Li4 O4 1.876511 1_554
Li4 O6 1.876511 1_555
Li5 O7 1.876511 1_555
Li5 O5 1.876511 1_455
Li6 O10 1.927696 1_555
Li6 O11 1.927696 1_555
Li6 O3 1.945503 1_555
Li7 O7 1.927696 1_555
Li7 O6 1.927696 1_555
Li7 O2 1.945503 1_565
Bi0 O3 2.224320 1_455
Bi0 O2 2.224320 1_555
Bi0 O0 2.277444 1_554
Bi0 O4 2.277444 1_454
Bi0 O6 2.303879 1_555
Bi0 O11 2.303879 1_445
Bi1 O3 2.224320 1_555
Bi1 O2 2.224320 1_555
Bi1 O5 2.277444 1_555
Bi1 O1 2.277444 1_555
Bi1 O7 2.303879 1_555
Bi1 O10 2.303879 1_545
Bi2 O9 2.224320 1_555
Bi2 O8 2.224320 1_555
Bi2 O10 2.277444 1_555
Bi2 O7 2.277444 1_555
Bi2 O5 2.303879 1_555
Bi2 O1 2.303879 1_565
Bi3 O9 2.224320 1_455
Bi3 O8 2.224320 1_555
Bi3 O6 2.277444 1_556
Bi3 O11 2.277444 1_456
Bi3 O0 2.303879 1_565
Bi3 O4 2.303879 1_455
