# generated using pymatgen
data_Y2Bi2O7
_symmetry_space_group_name_H-M   'P 1'
_cell_length_a   6.05511374
_cell_length_b   6.05511374
_cell_length_c   5.88119377
_cell_angle_alpha   84.21392885
_cell_angle_beta   84.21392885
_cell_angle_gamma   106.12625903
_symmetry_Int_Tables_number   1
_chemical_formula_structural   Y2Bi2O7
_chemical_formula_sum   'Y2 Bi2 O7'
_cell_volume   204.21002507
_cell_formula_units_Z   1
loop_
 _symmetry_equiv_pos_site_id
 _symmetry_equiv_pos_as_xyz
  1  'x, y, z'
loop_
 _atom_site_type_symbol
 _atom_site_label
 _atom_site_symmetry_multiplicity
 _atom_site_fract_x
 _atom_site_fract_y
 _atom_site_fract_z
 _atom_site_occupancy
  Y  Y0  1  0.30754800  0.69245200  0.00000000  1
  Y  Y1  1  0.69245200  0.30754800  0.00000000  1
  Bi  Bi0  1  0.74112600  0.74112600  0.39356800  1
  Bi  Bi1  1  0.25887400  0.25887400  0.60643200  1
  O  O0  1  0.94550500  0.58630900  0.18242700  1
  O  O1  1  0.58630900  0.94550500  0.18242700  1
  O  O2  1  0.54259900  0.54259900  0.74492900  1
  O  O3  1  0.00000000  0.00000000  0.50000000  1
  O  O4  1  0.45740100  0.45740100  0.25507100  1
  O  O5  1  0.05449500  0.41369100  0.81757300  1
  O  O6  1  0.41369100  0.05449500  0.81757300  1
loop_
_geom_bond_atom_site_label_1
_geom_bond_atom_site_label_2
_geom_bond_distance
_geom_bond_site_symmetry_2
Bi0 O3 2.082480 1_665
Bi0 O0 2.126398 1_555
Bi0 O1 2.126398 1_555
Bi0 O2 2.314250 1_555
Bi0 O4 2.343317 1_555
Bi1 O3 2.082480 1_555
Bi1 O6 2.126398 1_555
Bi1 O5 2.126398 1_555
Bi1 O4 2.314250 1_555
Bi1 O2 2.343317 1_555
O0 Y0 2.230247 1_655
O0 Y1 2.368099 1_555
O1 Y1 2.230247 1_565
O1 Y0 2.368099 1_555
O2 Y1 2.379230 1_556
O2 Y0 2.379230 1_556
O4 Y0 2.379230 1_555
O4 Y1 2.379230 1_555
O5 Y1 2.230247 1_456
O5 Y0 2.368099 1_556
O6 Y0 2.230247 1_546
O6 Y1 2.368099 1_556
