# generated using pymatgen
data_Li2V4Si4O13
_symmetry_space_group_name_H-M   'P 1'
_cell_length_a   6.93926900
_cell_length_b   8.01079086
_cell_length_c   10.37522651
_cell_angle_alpha   67.56335182
_cell_angle_beta   80.59947301
_cell_angle_gamma   77.53752448
_symmetry_Int_Tables_number   1
_chemical_formula_structural   Li2V4Si4O13
_chemical_formula_sum   'Li4 V8 Si8 O26'
_cell_volume   518.43004690
_cell_formula_units_Z   2
loop_
 _symmetry_equiv_pos_site_id
 _symmetry_equiv_pos_as_xyz
  1  'x, y, z'
loop_
 _atom_site_type_symbol
 _atom_site_label
 _atom_site_symmetry_multiplicity
 _atom_site_fract_x
 _atom_site_fract_y
 _atom_site_fract_z
 _atom_site_occupancy
  Li  Li0  1  0.77529200  0.51285900  0.88317100  1
  Li  Li1  1  0.26885000  0.95625100  0.57738600  1
  Li  Li2  1  0.73115000  0.04374900  0.42261400  1
  Li  Li3  1  0.22470800  0.48714100  0.11682900  1
  V  V0  1  0.08544800  0.18982200  0.99077200  1
  V  V1  1  0.57439000  0.19471000  0.98767400  1
  V  V2  1  0.57926200  0.55324200  0.62097900  1
  V  V3  1  0.08209100  0.55548200  0.61898900  1
  V  V4  1  0.91790900  0.44451800  0.38101100  1
  V  V5  1  0.42073800  0.44675800  0.37902100  1
  V  V6  1  0.42561000  0.80529000  0.01232600  1
  V  V7  1  0.91455200  0.81017800  0.00922800  1
  Si  Si0  1  0.27080000  0.58567900  0.82683200  1
  Si  Si1  1  0.72654500  0.86584000  0.71523700  1
  Si  Si2  1  0.37512300  0.15934300  0.71385600  1
  Si  Si3  1  0.93133500  0.16492400  0.71255800  1
  Si  Si4  1  0.06866500  0.83507600  0.28744200  1
  Si  Si5  1  0.62487700  0.84065700  0.28614400  1
  Si  Si6  1  0.27345500  0.13416000  0.28476300  1
  Si  Si7  1  0.72920000  0.41432100  0.17316800  1
  O  O0  1  0.86954900  0.11780100  0.87991400  1
  O  O1  1  0.21317700  0.70125100  0.93241400  1
  O  O2  1  0.50107600  0.47028600  0.84541500  1
  O  O3  1  0.09396100  0.46424800  0.84392400  1
  O  O4  1  0.71148400  0.76943600  0.88503800  1
  O  O5  1  0.38394900  0.10426700  0.88150000  1
  O  O6  1  0.86837200  0.37797400  0.61097100  1
  O  O7  1  0.39209100  0.36899100  0.61055600  1
  O  O8  1  0.28158500  0.70666900  0.65541800  1
  O  O9  1  0.78676700  0.72136700  0.63520300  1
  O  O10  1  0.17049100  0.11479900  0.68677000  1
  O  O11  1  0.51924000  0.00333800  0.65448800  1
  O  O12  1  0.87636400  0.01802300  0.65458800  1
  O  O13  1  0.12363600  0.98197700  0.34541200  1
  O  O14  1  0.48076000  0.99666200  0.34551200  1
  O  O15  1  0.82950900  0.88520100  0.31323000  1
  O  O16  1  0.21323300  0.27863300  0.36479700  1
  O  O17  1  0.71841500  0.29333100  0.34458200  1
  O  O18  1  0.60790900  0.63100900  0.38944400  1
  O  O19  1  0.13162800  0.62202600  0.38902900  1
  O  O20  1  0.61605100  0.89573300  0.11850000  1
  O  O21  1  0.28851600  0.23056400  0.11496200  1
  O  O22  1  0.90603900  0.53575200  0.15607600  1
  O  O23  1  0.49892400  0.52971400  0.15458500  1
  O  O24  1  0.78682300  0.29874900  0.06758600  1
  O  O25  1  0.13045100  0.88219900  0.12008600  1
loop_
_geom_bond_atom_site_label_1
_geom_bond_atom_site_label_2
_geom_bond_distance
_geom_bond_site_symmetry_2
Li0 O4 2.013910 1_555
Li0 O24 2.023590 1_556
Li0 O2 2.125135 1_555
Li0 O3 2.159320 1_655
Li0 O9 2.474972 1_555
Li1 O8 1.836356 1_555
Li1 O10 1.959601 1_565
Li1 O11 2.183676 1_565
Li1 O14 2.551493 1_555
Li2 O17 1.836356 1_555
Li2 O15 1.959601 1_545
Li2 O14 2.183676 1_545
Li2 O11 2.551493 1_555
Li3 O21 2.013910 1_555
Li3 O1 2.023590 1_554
Li3 O23 2.125135 1_555
Li3 O22 2.159320 1_455
Li3 O16 2.474972 1_555
O0 Si3 1.633277 1_555
O0 V1 2.248947 1_555
O0 V7 2.291582 1_546
O0 V0 2.311455 1_655
O1 Si0 1.639604 1_555
O1 V7 2.213967 1_456
O1 V6 2.238764 1_556
O2 Si0 1.664985 1_555
O2 V1 2.141059 1_555
O2 V2 2.172545 1_555
O3 Si0 1.672125 1_555
O3 V0 2.151185 1_555
O3 V3 2.173061 1_555
O4 Si1 1.627010 1_555
O4 V7 2.205690 1_556
O4 V6 2.224788 1_556
O5 Si2 1.631285 1_555
O5 V1 2.232228 1_555
O5 V6 2.238315 1_546
O5 V0 2.293231 1_555
O6 Si3 1.634046 1_555
O6 V2 2.198747 1_555
O6 V4 2.221514 1_555
O6 V3 2.295470 1_655
O7 Si2 1.628878 1_555
O7 V2 2.207339 1_555
O7 V5 2.225631 1_555
O7 V3 2.349107 1_555
O8 Si0 1.667328 1_555
O8 V3 2.184045 1_555
O8 V2 2.214405 1_555
O9 Si1 1.617117 1_555
O9 V3 2.208303 1_655
O9 V2 2.228731 1_555
O10 Si3 1.623679 1_455
O10 Si2 1.627357 1_555
O11 Si1 1.662013 1_545
O11 Si2 1.669816 1_555
O12 Si3 1.643489 1_555
O12 Si1 1.646441 1_545
O13 Si4 1.643489 1_555
O13 Si6 1.646441 1_565
O14 Si6 1.662013 1_565
O14 Si5 1.669816 1_555
O15 Si4 1.623679 1_655
O15 Si5 1.627357 1_555
O16 Si6 1.617117 1_555
O16 V4 2.208303 1_455
O16 V5 2.228731 1_555
O17 Si7 1.667328 1_555
O17 V4 2.184045 1_555
O17 V5 2.214405 1_555
O18 Si5 1.628878 1_555
O18 V5 2.207339 1_555
O18 V2 2.225631 1_555
O18 V4 2.349107 1_555
O19 Si4 1.634046 1_555
O19 V5 2.198747 1_555
O19 V3 2.221514 1_555
O19 V4 2.295470 1_455
O20 Si5 1.631285 1_555
O20 V6 2.232228 1_555
O20 V1 2.238315 1_564
O20 V7 2.293231 1_555
O21 Si6 1.627010 1_555
O21 V0 2.205690 1_554
O21 V1 2.224788 1_554
O22 Si7 1.672125 1_555
O22 V7 2.151185 1_555
O22 V4 2.173061 1_555
O23 Si7 1.664985 1_555
O23 V6 2.141059 1_555
O23 V5 2.172545 1_555
O24 Si7 1.639604 1_555
O24 V0 2.213967 1_654
O24 V1 2.238764 1_554
O25 Si4 1.633277 1_555
O25 V6 2.248947 1_555
O25 V0 2.291582 1_564
O25 V7 2.311455 1_455
