# generated using pymatgen
data_Li4Cu3Ni2Sb3O16
_symmetry_space_group_name_H-M   'P 1'
_cell_length_a   6.04408948
_cell_length_b   6.04408948
_cell_length_c   9.72395142
_cell_angle_alpha   88.90205569
_cell_angle_beta   88.90205569
_cell_angle_gamma   60.03878068
_symmetry_Int_Tables_number   1
_chemical_formula_structural   Li4Cu3Ni2Sb3O16
_chemical_formula_sum   'Li4 Cu3 Ni2 Sb3 O16'
_cell_volume   307.67937970
_cell_formula_units_Z   1
loop_
 _symmetry_equiv_pos_site_id
 _symmetry_equiv_pos_as_xyz
  1  'x, y, z'
loop_
 _atom_site_type_symbol
 _atom_site_label
 _atom_site_symmetry_multiplicity
 _atom_site_fract_x
 _atom_site_fract_y
 _atom_site_fract_z
 _atom_site_occupancy
  Li  Li0  1  0.33238100  0.33238100  0.10309100  1
  Li  Li1  1  0.98856600  0.98856600  0.99578600  1
  Li  Li2  1  0.97431700  0.97431700  0.50919400  1
  Li  Li3  1  0.66858800  0.66858800  0.62155000  1
  Cu  Cu0  1  0.66362200  0.16972300  0.78491000  1
  Cu  Cu1  1  0.16972300  0.66362200  0.78491000  1
  Cu  Cu2  1  0.83266200  0.83266200  0.28173500  1
  Ni  Ni0  1  0.34549600  0.34549600  0.52085500  1
  Ni  Ni1  1  0.67057100  0.67057100  0.99727500  1
  Sb  Sb0  1  0.17092400  0.17092400  0.78467300  1
  Sb  Sb1  1  0.83264600  0.33864900  0.28554200  1
  Sb  Sb2  1  0.33864900  0.83264600  0.28554200  1
  O  O0  1  0.68230700  0.16523700  0.39573600  1
  O  O1  1  0.48159000  0.48159000  0.67010600  1
  O  O2  1  0.33350700  0.33350700  0.89262200  1
  O  O3  1  0.00277700  0.00277700  0.68928000  1
  O  O4  1  0.00969900  0.00969900  0.17951700  1
  O  O5  1  0.16523700  0.68230700  0.39573600  1
  O  O6  1  0.48188300  0.03824800  0.66108300  1
  O  O7  1  0.03824800  0.48188300  0.66108300  1
  O  O8  1  0.83979700  0.83979700  0.89354200  1
  O  O9  1  0.15535900  0.15535900  0.40043300  1
  O  O10  1  0.96546200  0.51317600  0.16494000  1
  O  O11  1  0.51317600  0.96546200  0.16494000  1
  O  O12  1  0.65759900  0.65759900  0.40097800  1
  O  O13  1  0.84913100  0.31751500  0.90087500  1
  O  O14  1  0.51640300  0.51640300  0.16529200  1
  O  O15  1  0.31751500  0.84913100  0.90087500  1
loop_
_geom_bond_atom_site_label_1
_geom_bond_atom_site_label_2
_geom_bond_distance
_geom_bond_site_symmetry_2
Li0 O10 2.006861 1_455
Li0 O11 2.006861 1_545
Li0 O14 2.031554 1_555
Li0 O2 2.046363 1_554
Li1 O4 1.805083 1_666
Li1 O8 1.865898 1_555
Li1 O15 1.949568 1_655
Li1 O13 1.949568 1_565
Li2 O3 1.782789 1_665
Li2 O5 1.911896 1_655
Li2 O0 1.911896 1_565
Li2 O9 2.149519 1_665
Li3 O7 1.977646 1_655
Li3 O6 1.977646 1_565
Li3 O1 2.003200 1_555
Li3 O12 2.150453 1_555
Cu0 O1 1.976046 1_555
Cu0 O3 1.995449 1_655
Cu0 O2 2.011167 1_555
Cu0 O8 2.016838 1_545
Cu0 O6 2.060846 1_555
Cu0 O13 2.100976 1_555
Cu1 O1 1.976046 1_555
Cu1 O3 1.995449 1_565
Cu1 O2 2.011167 1_555
Cu1 O8 2.016838 1_455
Cu1 O7 2.060846 1_555
Cu1 O15 2.100976 1_555
Cu2 O10 2.040553 1_555
Cu2 O11 2.040553 1_555
Cu2 O0 2.077855 1_565
Cu2 O5 2.077855 1_655
Cu2 O4 2.083261 1_665
Cu2 O12 2.146585 1_555
Ni0 O1 2.055928 1_555
Ni0 O6 2.098676 1_555
Ni0 O7 2.098676 1_555
Ni0 O0 2.133532 1_555
Ni0 O5 2.133532 1_555
Ni0 O9 2.331266 1_555
Ni1 O8 2.018818 1_555
Ni1 O13 2.081968 1_555
Ni1 O15 2.081968 1_555
Ni1 O11 2.257918 1_556
Ni1 O10 2.257918 1_556
Ni1 O14 2.270759 1_556
O0 Sb1 1.985772 1_555
O2 Sb0 2.019078 1_555
O3 Sb0 2.007498 1_555
O4 Sb2 2.017966 1_545
O4 Sb1 2.017966 1_455
O5 Sb2 1.985772 1_555
O6 Sb0 2.016112 1_555
O7 Sb0 2.016112 1_555
O9 Sb1 2.039036 1_455
O9 Sb2 2.039036 1_545
O10 Sb1 1.973508 1_555
O11 Sb2 1.973508 1_555
O12 Sb1 2.023823 1_555
O12 Sb2 2.023823 1_555
O13 Sb0 2.019288 1_655
O14 Sb2 2.039942 1_555
O14 Sb1 2.039942 1_555
O15 Sb0 2.019288 1_565
