# generated using pymatgen
data_CuH16(IO8)2
_symmetry_space_group_name_H-M   'P 1'
_cell_length_a   5.60240000
_cell_length_b   10.63753700
_cell_length_c   11.73796430
_cell_angle_alpha   68.28027284
_cell_angle_beta   90.00000000
_cell_angle_gamma   90.00000000
_symmetry_Int_Tables_number   1
_chemical_formula_structural   CuH16(IO8)2
_chemical_formula_sum   'Cu2 H32 I4 O32'
_cell_volume   649.86946471
_cell_formula_units_Z   2
loop_
 _symmetry_equiv_pos_site_id
 _symmetry_equiv_pos_as_xyz
  1  'x, y, z'
loop_
 _atom_site_type_symbol
 _atom_site_label
 _atom_site_symmetry_multiplicity
 _atom_site_fract_x
 _atom_site_fract_y
 _atom_site_fract_z
 _atom_site_occupancy
  Cu  Cu0  1  0.50000000  0.00000000  0.50000000  1
  Cu  Cu1  1  0.00000000  0.00000000  0.00000000  1
  H  H0  1  0.84261900  0.51386200  0.17677400  1
  H  H1  1  0.34261900  0.48613800  0.32322600  1
  H  H2  1  0.15738100  0.48613800  0.82322600  1
  H  H3  1  0.65738100  0.51386200  0.67677400  1
  H  H4  1  0.08342900  0.36738800  0.10247500  1
  H  H5  1  0.58342900  0.63261200  0.39752500  1
  H  H6  1  0.91657100  0.63261200  0.89752500  1
  H  H7  1  0.41657100  0.36738800  0.60247500  1
  H  H8  1  0.60493800  0.24753500  0.39266300  1
  H  H9  1  0.10493800  0.75246500  0.10733700  1
  H  H10  1  0.39506200  0.75246500  0.60733700  1
  H  H11  1  0.89506200  0.24753500  0.89266300  1
  H  H12  1  0.74275900  0.19267000  0.52478100  1
  H  H13  1  0.24275900  0.80733000  0.97521900  1
  H  H14  1  0.25724100  0.80733000  0.47521900  1
  H  H15  1  0.75724100  0.19267000  0.02478100  1
  H  H16  1  0.20911500  0.20614800  0.33848000  1
  H  H17  1  0.70911500  0.79385200  0.16152000  1
  H  H18  1  0.79088500  0.79385200  0.66152000  1
  H  H19  1  0.29088500  0.20614800  0.83848000  1
  H  H20  1  0.00696800  0.10291800  0.40048200  1
  H  H21  1  0.50696800  0.89708200  0.09951800  1
  H  H22  1  0.99303200  0.89708200  0.59951800  1
  H  H23  1  0.49303200  0.10291800  0.90048200  1
  H  H24  1  0.63146700  0.05144700  0.27441400  1
  H  H25  1  0.13146700  0.94855300  0.22558600  1
  H  H26  1  0.36853300  0.94855300  0.72558600  1
  H  H27  1  0.86853300  0.05144700  0.77441400  1
  H  H28  1  0.65620500  0.89082400  0.34383900  1
  H  H29  1  0.15620500  0.10917600  0.15616100  1
  H  H30  1  0.34379500  0.10917600  0.65616100  1
  H  H31  1  0.84379500  0.89082400  0.84383900  1
  I  I0  1  0.52065700  0.37448800  0.12332500  1
  I  I1  1  0.02065700  0.62551200  0.37667500  1
  I  I2  1  0.47934300  0.62551200  0.87667500  1
  I  I3  1  0.97934300  0.37448800  0.62332500  1
  O  O0  1  0.83844500  0.43747800  0.14535300  1
  O  O1  1  0.33844500  0.56252200  0.35464700  1
  O  O2  1  0.16155500  0.56252200  0.85464700  1
  O  O3  1  0.66155500  0.43747800  0.64535300  1
  O  O4  1  0.21480200  0.31135900  0.08681100  1
  O  O5  1  0.71480200  0.68864100  0.41318900  1
  O  O6  1  0.78519800  0.68864100  0.91318900  1
  O  O7  1  0.28519800  0.31135900  0.58681100  1
  O  O8  1  0.42580000  0.35588800  0.27914500  1
  O  O9  1  0.92580000  0.64411200  0.22085500  1
  O  O10  1  0.57420000  0.64411200  0.72085500  1
  O  O11  1  0.07420000  0.35588800  0.77914500  1
  O  O12  1  0.65036400  0.21095100  0.14436600  1
  O  O13  1  0.15036400  0.78904900  0.35563400  1
  O  O14  1  0.34963600  0.78904900  0.85563400  1
  O  O15  1  0.84963600  0.21095100  0.64436600  1
  O  O16  1  0.40039300  0.56371600  0.05786900  1
  O  O17  1  0.90039300  0.43628400  0.44213100  1
  O  O18  1  0.59960700  0.43628400  0.94213100  1
  O  O19  1  0.09960700  0.56371600  0.55786900  1
  O  O20  1  0.69043900  0.16836600  0.45276000  1
  O  O21  1  0.19043900  0.83163400  0.04724000  1
  O  O22  1  0.30956100  0.83163400  0.54724000  1
  O  O23  1  0.80956100  0.16836600  0.95276000  1
  O  O24  1  0.17192100  0.10907700  0.37047900  1
  O  O25  1  0.67192100  0.89092300  0.12952100  1
  O  O26  1  0.82807900  0.89092300  0.62952100  1
  O  O27  1  0.32807900  0.10907700  0.87047900  1
  O  O28  1  0.66424700  0.97805600  0.35482500  1
  O  O29  1  0.16424700  0.02194400  0.14517500  1
  O  O30  1  0.33575300  0.02194400  0.64517500  1
  O  O31  1  0.83575300  0.97805600  0.85482500  1
loop_
_geom_bond_atom_site_label_1
_geom_bond_atom_site_label_2
_geom_bond_distance
_geom_bond_site_symmetry_2
Cu0 O20 1.979501 1_555
Cu0 O22 1.979501 1_545
Cu0 O30 2.024708 1_555
Cu0 O28 2.024708 1_545
Cu0 O24 2.393826 1_555
Cu0 O26 2.393826 1_545
Cu1 O23 1.979501 1_454
Cu1 O21 1.979501 1_545
Cu1 O29 2.024708 1_555
Cu1 O31 2.024708 1_444
Cu1 O27 2.393826 1_554
Cu1 O25 2.393826 1_445
H0 O0 1.009254 1_555
H0 O9 1.713248 1_555
H1 O1 1.009254 1_555
H1 O8 1.713248 1_555
H2 O2 1.009254 1_555
H2 O11 1.713248 1_555
H3 O3 1.009254 1_555
H3 O10 1.713248 1_555
H4 O4 1.005904 1_555
H5 O5 1.005904 1_555
H6 O6 1.005904 1_555
H7 O7 1.005904 1_555
H8 O20 0.998302 1_555
H8 O8 1.724672 1_555
H9 O21 0.998302 1_555
H9 O9 1.724672 1_455
H10 O22 0.998302 1_555
H10 O10 1.724672 1_555
H11 O23 0.998302 1_555
H11 O11 1.724672 1_655
H12 O20 1.014489 1_555
H12 O15 1.602717 1_555
H13 O21 1.014489 1_556
H13 O14 1.602717 1_555
H14 O22 1.014489 1_555
H14 O13 1.602717 1_555
H15 O23 1.014489 1_554
H15 O12 1.602717 1_555
H16 O24 0.981680 1_555
H17 O25 0.981680 1_555
H18 O26 0.981680 1_555
H19 O27 0.981680 1_555
H20 O24 0.982478 1_555
H21 O25 0.982478 1_555
H22 O26 0.982478 1_555
H23 O27 0.982478 1_555
H24 O28 0.994338 1_545
H25 O29 0.994338 1_565
H26 O30 0.994338 1_565
H27 O31 0.994338 1_545
H28 O28 0.984014 1_555
H29 O29 0.984014 1_555
H30 O30 0.984014 1_555
H31 O31 0.984014 1_555
I0 O12 1.815865 1_555
I0 O8 1.843637 1_555
I0 O4 1.945210 1_555
I0 O0 1.952895 1_555
I0 O16 1.987828 1_555
I0 O18 2.028907 1_554
I1 O13 1.815865 1_555
I1 O9 1.843637 1_455
I1 O5 1.945210 1_455
I1 O1 1.952895 1_555
I1 O17 1.987828 1_455
I1 O19 2.028907 1_555
I2 O14 1.815865 1_555
I2 O10 1.843637 1_555
I2 O6 1.945210 1_555
I2 O2 1.952895 1_555
I2 O18 1.987828 1_555
I2 O16 2.028907 1_556
I3 O15 1.815865 1_555
I3 O11 1.843637 1_655
I3 O7 1.945210 1_655
I3 O3 1.952895 1_555
I3 O19 1.987828 1_655
I3 O17 2.028907 1_555
