# generated using pymatgen
data_Y3(ClO3)2
_symmetry_space_group_name_H-M   'P 1'
_cell_length_a   3.94382000
_cell_length_b   7.53635900
_cell_length_c   13.77837400
_cell_angle_alpha   90.00000000
_cell_angle_beta   90.00000000
_cell_angle_gamma   90.00000000
_symmetry_Int_Tables_number   1
_chemical_formula_structural   Y3(ClO3)2
_chemical_formula_sum   'Y6 Cl4 O12'
_cell_volume   409.52142934
_cell_formula_units_Z   2
loop_
 _symmetry_equiv_pos_site_id
 _symmetry_equiv_pos_as_xyz
  1  'x, y, z'
loop_
 _atom_site_type_symbol
 _atom_site_label
 _atom_site_symmetry_multiplicity
 _atom_site_fract_x
 _atom_site_fract_y
 _atom_site_fract_z
 _atom_site_occupancy
  Y  Y0  1  0.50000000  0.08381700  0.35340500  1
  Y  Y1  1  0.50000000  0.08381700  0.64659500  1
  Y  Y2  1  0.00000000  0.91618300  0.14659500  1
  Y  Y3  1  0.00000000  0.91618300  0.85340500  1
  Y  Y4  1  0.00000000  0.40532800  0.50000000  1
  Y  Y5  1  0.50000000  0.59467200  0.00000000  1
  Cl  Cl0  1  0.50000000  0.57821300  0.38254300  1
  Cl  Cl1  1  0.50000000  0.57821300  0.61745700  1
  Cl  Cl2  1  0.00000000  0.42178700  0.11745700  1
  Cl  Cl3  1  0.00000000  0.42178700  0.88254300  1
  O  O0  1  0.50000000  0.93747700  0.50000000  1
  O  O1  1  0.00000000  0.06252300  0.00000000  1
  O  O2  1  0.00000000  0.94487100  0.31927400  1
  O  O3  1  0.00000000  0.94487100  0.68072600  1
  O  O4  1  0.50000000  0.05512900  0.18072600  1
  O  O5  1  0.50000000  0.05512900  0.81927400  1
  O  O6  1  0.00000000  0.24493000  0.35579700  1
  O  O7  1  0.00000000  0.24493000  0.64420300  1
  O  O8  1  0.50000000  0.75507000  0.14420300  1
  O  O9  1  0.50000000  0.75507000  0.85579700  1
  O  O10  1  0.50000000  0.23334400  0.50000000  1
  O  O11  1  0.00000000  0.76665600  0.00000000  1
loop_
_geom_bond_atom_site_label_1
_geom_bond_atom_site_label_2
_geom_bond_distance
_geom_bond_site_symmetry_2
Cl0 Y4 2.864463 1_555
Cl0 Y4 2.864463 1_655
Cl1 Y4 2.864463 1_555
Cl1 Y4 2.864463 1_655
Cl2 Y5 2.864463 1_455
Cl2 Y5 2.864463 1_555
Cl3 Y5 2.864463 1_556
Cl3 Y5 2.864463 1_456
O0 Y1 2.301321 1_565
O0 Y0 2.301321 1_565
O1 Y2 2.301321 1_545
O1 Y3 2.301321 1_544
O2 Y0 2.281688 1_565
O2 Y0 2.281688 1_465
O2 Y2 2.389039 1_555
O3 Y1 2.281688 1_465
O3 Y1 2.281688 1_565
O3 Y3 2.389039 1_555
O4 Y2 2.281688 1_645
O4 Y2 2.281688 1_545
O4 Y0 2.389039 1_555
O5 Y3 2.281688 1_545
O5 Y3 2.281688 1_645
O5 Y1 2.389039 1_555
O6 Y0 2.315990 1_455
O6 Y0 2.315990 1_555
O6 Y4 2.325713 1_555
O7 Y1 2.315990 1_555
O7 Y1 2.315990 1_455
O7 Y4 2.325713 1_555
O8 Y2 2.315990 1_655
O8 Y2 2.315990 1_555
O8 Y5 2.325713 1_555
O9 Y3 2.315990 1_655
O9 Y3 2.315990 1_555
O9 Y5 2.325713 1_556
O10 Y1 2.312928 1_555
O10 Y0 2.312928 1_555
O10 Y4 2.359744 1_655
O10 Y4 2.359744 1_555
O11 Y2 2.312928 1_555
O11 Y3 2.312928 1_554
O11 Y5 2.359744 1_455
O11 Y5 2.359744 1_555
