# generated using pymatgen
data_Rb4V2O9
_symmetry_space_group_name_H-M   'P 1'
_cell_length_a   6.52484600
_cell_length_b   7.01683338
_cell_length_c   7.38196776
_cell_angle_alpha   108.90960627
_cell_angle_beta   100.68059321
_cell_angle_gamma   95.87986294
_symmetry_Int_Tables_number   1
_chemical_formula_structural   Rb4V2O9
_chemical_formula_sum   'Rb4 V2 O9'
_cell_volume   309.35732316
_cell_formula_units_Z   1
loop_
 _symmetry_equiv_pos_site_id
 _symmetry_equiv_pos_as_xyz
  1  'x, y, z'
loop_
 _atom_site_type_symbol
 _atom_site_label
 _atom_site_symmetry_multiplicity
 _atom_site_fract_x
 _atom_site_fract_y
 _atom_site_fract_z
 _atom_site_occupancy
  Rb  Rb0  1  0.69532100  0.57562000  0.85989700  1
  Rb  Rb1  1  0.30467900  0.42438000  0.14010300  1
  Rb  Rb2  1  0.24629600  0.89209800  0.65457300  1
  Rb  Rb3  1  0.75370400  0.10790200  0.34542700  1
  V  V0  1  0.81207900  0.08490300  0.83599300  1
  V  V1  1  0.18792100  0.91509700  0.16400700  1
  O  O0  1  0.00000000  0.00000000  0.00000000  1
  O  O1  1  0.62928200  0.19768800  0.95018100  1
  O  O2  1  0.37071800  0.80231200  0.04981900  1
  O  O3  1  0.95216100  0.25525300  0.76353500  1
  O  O4  1  0.04783900  0.74474700  0.23646500  1
  O  O5  1  0.67932100  0.87215400  0.63133300  1
  O  O6  1  0.32067900  0.12784600  0.36866700  1
  O  O7  1  0.25311300  0.39439600  0.58597500  1
  O  O8  1  0.74688700  0.60560400  0.41402500  1
loop_
_geom_bond_atom_site_label_1
_geom_bond_atom_site_label_2
_geom_bond_distance
_geom_bond_site_symmetry_2
O0 V0 1.841483 1_454
O0 V1 1.841483 1_545
O0 Rb0 3.149269 1_444
O0 Rb1 3.149269 1_555
O0 Rb2 3.189808 1_544
O0 Rb3 3.189808 1_455
O1 V0 1.700913 1_555
O1 Rb0 2.946224 1_555
O1 Rb1 3.054036 1_556
O1 Rb2 3.074484 1_545
O1 Rb3 3.160245 1_556
O2 V1 1.700913 1_555
O2 Rb1 2.946224 1_555
O2 Rb0 3.054036 1_554
O2 Rb3 3.074484 1_565
O2 Rb2 3.160245 1_554
O3 V0 1.709407 1_555
O3 Rb3 2.906527 1_555
O3 Rb0 2.923195 1_555
O3 Rb1 3.059216 1_656
O3 Rb2 3.327052 1_645
O4 V1 1.709407 1_555
O4 Rb2 2.906527 1_555
O4 Rb1 2.923195 1_555
O4 Rb0 3.059216 1_454
O4 Rb3 3.327052 1_465
O5 V0 1.746290 1_565
O5 Rb2 2.877002 1_555
O5 Rb0 3.072759 1_555
O5 Rb3 3.147131 1_565
O6 V1 1.746290 1_545
O6 Rb3 2.877002 1_555
O6 Rb1 3.072759 1_555
O6 Rb2 3.147131 1_545
O7 Rb0 3.074094 1_555
O7 Rb2 3.368747 1_555
O7 Rb1 3.440304 1_555
O7 Rb3 3.465838 1_455
O8 Rb1 3.074094 1_555
O8 Rb3 3.368747 1_555
O8 Rb0 3.440304 1_555
O8 Rb2 3.465838 1_655
