# generated using pymatgen
data_Mn4OF6
_symmetry_space_group_name_H-M   'P 1'
_cell_length_a   5.60421300
_cell_length_b   7.44029874
_cell_length_c   7.44787807
_cell_angle_alpha   59.96690555
_cell_angle_beta   89.99989675
_cell_angle_gamma   89.99787606
_symmetry_Int_Tables_number   1
_chemical_formula_structural   Mn4OF6
_chemical_formula_sum   'Mn8 O2 F12'
_cell_volume   268.85818979
_cell_formula_units_Z   2
loop_
 _symmetry_equiv_pos_site_id
 _symmetry_equiv_pos_as_xyz
  1  'x, y, z'
loop_
 _atom_site_type_symbol
 _atom_site_label
 _atom_site_symmetry_multiplicity
 _atom_site_fract_x
 _atom_site_fract_y
 _atom_site_fract_z
 _atom_site_occupancy
  Mn  Mn0  1  0.98159600  0.33320200  0.33336700  1
  Mn  Mn1  1  0.50168900  0.63161200  0.18416500  1
  Mn  Mn2  1  0.00180500  0.81520600  0.81533300  1
  Mn  Mn3  1  0.00181900  0.81518300  0.36942100  1
  Mn  Mn4  1  0.48166700  0.66675200  0.66660200  1
  Mn  Mn5  1  0.50180500  0.18477300  0.63055300  1
  Mn  Mn6  1  0.50183200  0.18477300  0.18463200  1
  Mn  Mn7  1  0.00158900  0.36840100  0.81578400  1
  O  O0  1  0.62924500  0.33343900  0.33327200  1
  O  O1  1  0.12927300  0.66659400  0.66665700  1
  F  F0  1  0.89306700  0.12965800  0.73976100  1
  F  F1  1  0.89307000  0.12965600  0.13057400  1
  F  F2  1  0.39180000  0.26084100  0.86957400  1
  F  F3  1  0.89179500  0.73914700  0.13041900  1
  F  F4  1  0.39307700  0.87032800  0.86942700  1
  F  F5  1  0.39320900  0.87039600  0.26020900  1
  F  F6  1  0.22740200  0.08319900  0.45839600  1
  F  F7  1  0.22596600  0.45838200  0.45838700  1
  F  F8  1  0.22597100  0.45838200  0.08322000  1
  F  F9  1  0.72597200  0.54159100  0.91681100  1
  F  F10  1  0.72597800  0.54158800  0.54159000  1
  F  F11  1  0.72729000  0.91689500  0.54154800  1
loop_
_geom_bond_atom_site_label_1
_geom_bond_atom_site_label_2
_geom_bond_distance
_geom_bond_site_symmetry_2
Mn0 O0 1.974651 1_555
Mn1 O0 2.049324 1_555
Mn2 O1 2.045636 1_555
Mn3 O1 2.045313 1_555
Mn4 O1 1.974891 1_555
Mn5 O0 2.045583 1_555
Mn6 O0 2.045666 1_555
Mn7 O1 2.049751 1_555
F0 Mn2 2.200838 1_645
F0 Mn7 2.202872 1_655
F0 Mn5 2.302997 1_555
F0 Mn0 2.666952 1_555
F1 Mn3 2.200903 1_645
F1 Mn7 2.203010 1_654
F1 Mn6 2.302800 1_555
F1 Mn0 2.666578 1_555
F2 Mn6 2.208459 1_556
F2 Mn5 2.208621 1_555
F2 Mn7 2.293925 1_555
F2 Mn4 2.662694 1_555
F3 Mn3 2.208375 1_655
F3 Mn2 2.208648 1_654
F3 Mn1 2.293371 1_555
F3 Mn0 2.662798 1_555
F4 Mn5 2.200835 1_565
F4 Mn1 2.202805 1_556
F4 Mn2 2.303092 1_555
F4 Mn4 2.667016 1_555
F5 Mn6 2.200175 1_565
F5 Mn1 2.203159 1_555
F5 Mn3 2.303715 1_555
F5 Mn4 2.666853 1_555
F6 Mn0 2.119126 1_455
F6 Mn5 2.355873 1_555
F6 Mn6 2.356151 1_555
F7 Mn0 2.116178 1_455
F7 Mn5 2.359007 1_555
F7 Mn1 2.363324 1_555
F8 Mn0 2.115944 1_455
F8 Mn6 2.359109 1_555
F8 Mn1 2.363088 1_555
F9 Mn4 2.115954 1_555
F9 Mn2 2.359079 1_655
F9 Mn7 2.362806 1_655
F10 Mn4 2.115799 1_555
F10 Mn3 2.359051 1_655
F10 Mn7 2.362697 1_655
F11 Mn4 2.119233 1_555
F11 Mn2 2.356444 1_655
F11 Mn3 2.356746 1_655
