# generated using pymatgen
data_SmY15O24
_symmetry_space_group_name_H-M   'P 1'
_cell_length_a   9.19759507
_cell_length_b   9.19759507
_cell_length_c   10.62540560
_cell_angle_alpha   54.80516243
_cell_angle_beta   54.80516243
_cell_angle_gamma   70.60749733
_symmetry_Int_Tables_number   1
_chemical_formula_structural   SmY15O24
_chemical_formula_sum   'Sm1 Y15 O24'
_cell_volume   600.27108795
_cell_formula_units_Z   1
loop_
 _symmetry_equiv_pos_site_id
 _symmetry_equiv_pos_as_xyz
  1  'x, y, z'
loop_
 _atom_site_type_symbol
 _atom_site_label
 _atom_site_symmetry_multiplicity
 _atom_site_fract_x
 _atom_site_fract_y
 _atom_site_fract_z
 _atom_site_occupancy
  Sm  Sm0  1  0.03160256  0.96839744  0.50000000  1
  Y  Y0  1  0.96761022  0.03238978  0.00000000  1
  Y  Y1  1  0.99999321  0.49849755  0.75091032  1
  Y  Y2  1  0.71635997  0.21836314  0.78344491  1
  Y  Y3  1  0.78163686  0.28364003  0.21655509  1
  Y  Y4  1  0.25044079  0.25145813  0.03078835  1
  Y  Y5  1  0.25058620  0.25030383  0.53275222  1
  Y  Y6  1  0.50150245  0.00000679  0.24908968  1
  Y  Y7  1  0.99987930  0.50193992  0.24839470  1
  Y  Y8  1  0.49806008  0.00012070  0.75160530  1
  Y  Y9  1  0.53267254  0.46732746  0.50000000  1
  Y  Y10  1  0.46733187  0.53266813  0.00000000  1
  Y  Y11  1  0.74969617  0.74941380  0.46724778  1
  Y  Y12  1  0.74854187  0.74955921  0.96921165  1
  Y  Y13  1  0.21780316  0.71623852  0.28237060  1
  Y  Y14  1  0.28376148  0.78219684  0.71762940  1
  O  O0  1  0.45673921  0.24034269  0.78139280  1
  O  O1  1  0.04223976  0.26075158  0.97808429  1
  O  O2  1  0.03093863  0.72469393  0.76590165  1
  O  O3  1  0.72901564  0.03153085  0.26062440  1
  O  O4  1  0.53216701  0.22800289  0.47964941  1
  O  O5  1  0.22960005  0.53247854  0.97877935  1
  O  O6  1  0.75965731  0.54326079  0.21860720  1
  O  O7  1  0.73924842  0.95776024  0.02191571  1
  O  O8  1  0.22887519  0.98924495  0.79283416  1
  O  O9  1  0.98901114  0.23498799  0.28723841  1
  O  O10  1  0.51069410  0.27090223  0.01129997  1
  O  O11  1  0.27090201  0.51063696  0.51120172  1
  O  O12  1  0.01075505  0.77112481  0.20716584  1
  O  O13  1  0.48936304  0.72909799  0.48879828  1
  O  O14  1  0.76501201  0.01098886  0.71276159  1
  O  O15  1  0.72909777  0.48930590  0.98870003  1
  O  O16  1  0.23843019  0.45673549  0.28234407  1
  O  O17  1  0.26643217  0.04222772  0.47748379  1
  O  O18  1  0.77199711  0.46783299  0.52035059  1
  O  O19  1  0.46752146  0.77039995  0.02122065  1
  O  O20  1  0.27530607  0.96906137  0.23409835  1
  O  O21  1  0.96846915  0.27098436  0.73937560  1
  O  O22  1  0.54326451  0.76156981  0.71765593  1
  O  O23  1  0.95777228  0.73356783  0.52251621  1
loop_
_geom_bond_atom_site_label_1
_geom_bond_atom_site_label_2
_geom_bond_distance
_geom_bond_site_symmetry_2
O0 Y4 2.240619 1_556
O0 Y9 2.269744 1_555
O0 Y8 2.288265 1_555
O0 Y2 2.340451 1_555
O1 Y4 2.249490 1_556
O1 Y0 2.268557 1_456
O1 Y1 2.278524 1_455
O1 Y3 2.342814 1_456
O2 Y14 2.253724 1_555
O2 Y12 2.274310 1_455
O2 Y1 2.293950 1_455
O2 Sm0 2.386598 1_555
O3 Y3 2.250058 1_555
O3 Y11 2.275092 1_545
O3 Y6 2.284178 1_555
O3 Y0 2.337883 1_555
O4 Y3 2.253508 1_555
O4 Y5 2.272447 1_555
O4 Y8 2.291656 1_555
O4 Y9 2.334251 1_555
O5 Y14 2.245665 1_555
O5 Y4 2.273645 1_556
O5 Y7 2.288958 1_456
O5 Y10 2.324477 1_556
O6 Y12 2.240619 1_554
O6 Y9 2.269744 1_555
O6 Y7 2.288265 1_555
O6 Y3 2.340451 1_555
O7 Y12 2.249490 1_554
O7 Y0 2.268557 1_565
O7 Y6 2.278524 1_565
O7 Y2 2.342814 1_564
O8 Y0 2.248020 1_466
O8 Y14 2.273898 1_555
O8 Y8 2.279358 1_565
O8 Y5 2.339991 1_565
O9 Y3 2.258169 1_555
O9 Y7 2.270727 1_555
O9 Sm0 2.295573 1_645
O9 Y4 2.333043 1_655
O10 Y10 2.248202 1_555
O10 Y2 2.266210 1_554
O10 Y6 2.288211 1_555
O10 Y4 2.339853 1_555
O11 Y9 2.248798 1_555
O11 Y13 2.276350 1_555
O11 Y1 2.291211 1_455
O11 Y5 2.331623 1_555
O12 Y0 2.248020 1_465
O12 Y13 2.273898 1_555
O12 Y7 2.279358 1_455
O12 Y11 2.339991 1_455
O13 Y9 2.248798 1_555
O13 Y14 2.276350 1_555
O13 Y6 2.291211 1_565
O13 Y11 2.331623 1_555
O14 Y2 2.258169 1_555
O14 Y8 2.270727 1_555
O14 Sm0 2.295573 1_645
O14 Y12 2.333043 1_545
O15 Y10 2.248202 1_556
O15 Y3 2.266210 1_556
O15 Y1 2.288211 1_555
O15 Y12 2.339853 1_555
O16 Y5 2.252863 1_555
O16 Y10 2.280561 1_555
O16 Y7 2.291439 1_455
O16 Y13 2.330844 1_555
O17 Y5 2.245074 1_555
O17 Y6 2.279303 1_555
O17 Sm0 2.318287 1_545
O17 Y14 2.331812 1_545
O18 Y2 2.253508 1_555
O18 Y11 2.272447 1_555
O18 Y7 2.291656 1_555
O18 Y9 2.334251 1_555
O19 Y13 2.245665 1_555
O19 Y12 2.273645 1_554
O19 Y8 2.288958 1_564
O19 Y10 2.324477 1_555
O20 Y13 2.253724 1_555
O20 Y4 2.274310 1_565
O20 Y6 2.293950 1_565
O20 Sm0 2.386598 1_555
O21 Y2 2.250058 1_555
O21 Y5 2.275092 1_655
O21 Y1 2.284178 1_555
O21 Y0 2.337883 1_556
O22 Y11 2.252863 1_555
O22 Y10 2.280561 1_556
O22 Y8 2.291439 1_565
O22 Y14 2.330844 1_555
O23 Y11 2.245074 1_555
O23 Y1 2.279303 1_555
O23 Sm0 2.318287 1_655
O23 Y13 2.331812 1_655
