# generated using pymatgen
data_NaSn2(PO4)3
_symmetry_space_group_name_H-M   'P 1'
_cell_length_a   8.61544700
_cell_length_b   8.64924085
_cell_length_c   9.13777391
_cell_angle_alpha   62.11144336
_cell_angle_beta   62.19591472
_cell_angle_gamma   60.14067892
_symmetry_Int_Tables_number   1
_chemical_formula_structural   NaSn2(PO4)3
_chemical_formula_sum   'Na2 Sn4 P6 O24'
_cell_volume   497.12291060
_cell_formula_units_Z   2
loop_
 _symmetry_equiv_pos_site_id
 _symmetry_equiv_pos_as_xyz
  1  'x, y, z'
loop_
 _atom_site_type_symbol
 _atom_site_label
 _atom_site_symmetry_multiplicity
 _atom_site_fract_x
 _atom_site_fract_y
 _atom_site_fract_z
 _atom_site_occupancy
  Na  Na0  1  0.83520200  0.51882800  0.43813500  1
  Na  Na1  1  0.16479800  0.48117200  0.56186500  1
  Sn  Sn0  1  0.14703000  0.65207900  0.06437400  1
  Sn  Sn1  1  0.64901600  0.14668700  0.55799400  1
  Sn  Sn2  1  0.35098400  0.85331300  0.44200600  1
  Sn  Sn3  1  0.85297000  0.34792100  0.93562600  1
  P  P0  1  0.53960800  0.45960600  0.74770500  1
  P  P1  1  0.74755200  0.97024600  0.24439000  1
  P  P2  1  0.03579100  0.25105500  0.24730600  1
  P  P3  1  0.96420900  0.74894500  0.75269400  1
  P  P4  1  0.25244800  0.02975400  0.75561000  1
  P  P5  1  0.46039200  0.54039400  0.25229500  1
  O  O0  1  0.88938800  0.76969800  0.23522400  1
  O  O1  1  0.53327200  0.63203200  0.57998800  1
  O  O2  1  0.39019000  0.51082500  0.91023300  1
  O  O3  1  0.74163200  0.39539100  0.75426000  1
  O  O4  1  0.10665600  0.39689300  0.22725400  1
  O  O5  1  0.79344200  0.10912100  0.06080900  1
  O  O6  1  0.52069000  0.30257600  0.72806100  1
  O  O7  1  0.22407500  0.99478400  0.62059400  1
  O  O8  1  0.84272000  0.28290900  0.39399400  1
  O  O9  1  0.54432100  0.98350400  0.29733000  1
  O  O10  1  0.01374800  0.29014400  0.07457300  1
  O  O11  1  0.17278700  0.05060700  0.29908200  1
  O  O12  1  0.82721300  0.94939300  0.70091800  1
  O  O13  1  0.98625200  0.70985600  0.92542700  1
  O  O14  1  0.45567900  0.01649600  0.70267000  1
  O  O15  1  0.15728000  0.71709100  0.60600600  1
  O  O16  1  0.77592500  0.00521600  0.37940600  1
  O  O17  1  0.47931000  0.69742400  0.27193900  1
  O  O18  1  0.20655800  0.89087900  0.93919100  1
  O  O19  1  0.89334400  0.60310700  0.77274600  1
  O  O20  1  0.25836800  0.60460900  0.24574000  1
  O  O21  1  0.60981000  0.48917500  0.08976700  1
  O  O22  1  0.46672800  0.36796800  0.42001200  1
  O  O23  1  0.11061200  0.23030200  0.76477600  1
loop_
_geom_bond_atom_site_label_1
_geom_bond_atom_site_label_2
_geom_bond_distance
_geom_bond_site_symmetry_2
Na0 O0 2.191213 1_555
Na0 O1 2.216093 1_555
Na0 O8 2.223645 1_555
Na0 O4 2.352877 1_655
Na0 O3 2.435897 1_555
Na1 O23 2.191213 1_555
Na1 O22 2.216093 1_555
Na1 O15 2.223645 1_555
Na1 O19 2.352877 1_455
Na1 O20 2.435897 1_555
O0 P1 1.561687 1_555
O0 Sn0 2.098508 1_655
O1 P0 1.560338 1_555
O1 Sn2 2.077502 1_555
O2 P0 1.524188 1_555
O2 Sn0 2.042994 1_556
O3 P0 1.563664 1_555
O3 Sn3 2.071132 1_555
O4 P2 1.563229 1_555
O4 Sn0 2.101451 1_555
O5 P1 1.543472 1_545
O5 Sn3 2.033413 1_554
O6 P0 1.542485 1_555
O6 Sn1 2.080467 1_555
O7 P4 1.541893 1_565
O7 Sn2 2.055991 1_555
O8 P2 1.564800 1_655
O8 Sn1 2.095714 1_555
O9 P1 1.541005 1_555
O9 Sn2 2.052058 1_555
O10 P2 1.535638 1_555
O10 Sn3 2.034295 1_454
O11 P2 1.529286 1_555
O11 Sn2 2.037531 1_545
O12 P3 1.529286 1_555
O12 Sn1 2.037531 1_565
O13 P3 1.535638 1_555
O13 Sn0 2.034295 1_656
O14 P4 1.541005 1_555
O14 Sn1 2.052058 1_555
O15 P3 1.564800 1_455
O15 Sn2 2.095714 1_555
O16 P1 1.541893 1_545
O16 Sn1 2.055991 1_555
O17 P5 1.542485 1_555
O17 Sn2 2.080467 1_555
O18 P4 1.543472 1_565
O18 Sn0 2.033413 1_556
O19 P3 1.563229 1_555
O19 Sn3 2.101451 1_555
O20 P5 1.563664 1_555
O20 Sn0 2.071132 1_555
O21 P5 1.524188 1_555
O21 Sn3 2.042994 1_554
O22 P5 1.560338 1_555
O22 Sn1 2.077502 1_555
O23 P4 1.561687 1_555
O23 Sn3 2.098508 1_455
