# generated using pymatgen
data_NaH8O5
_symmetry_space_group_name_H-M   'P 1'
_cell_length_a   7.74928515
_cell_length_b   7.74928626
_cell_length_c   11.14174828
_cell_angle_alpha   64.24100161
_cell_angle_beta   64.24101620
_cell_angle_gamma   48.67596542
_symmetry_Int_Tables_number   1
_chemical_formula_structural   NaH8O5
_chemical_formula_sum   'Na4 H32 O20'
_cell_volume   441.62836145
_cell_formula_units_Z   4
loop_
 _symmetry_equiv_pos_site_id
 _symmetry_equiv_pos_as_xyz
  1  'x, y, z'
loop_
 _atom_site_type_symbol
 _atom_site_label
 _atom_site_symmetry_multiplicity
 _atom_site_fract_x
 _atom_site_fract_y
 _atom_site_fract_z
 _atom_site_occupancy
  Na  Na0  1  0.69605706  0.70505589  0.56993360  1
  Na  Na1  1  0.29494493  0.30394218  0.93006629  1
  Na  Na2  1  0.30394327  0.29494696  0.43006883  1
  Na  Na3  1  0.70505315  0.69605649  0.06993102  1
  H  H0  1  0.12544236  0.64039308  0.57203922  1
  H  H1  1  0.35960713  0.87455821  0.92796012  1
  H  H2  1  0.87455077  0.35962234  0.42796122  1
  H  H3  1  0.64037797  0.12544817  0.07203938  1
  H  H4  1  0.04821930  0.79217552  0.43178012  1
  H  H5  1  0.20782475  0.95178053  0.06821952  1
  H  H6  1  0.95178578  0.20782530  0.56821740  1
  H  H7  1  0.79217609  0.04821274  0.93178306  1
  H  H8  1  0.84202804  0.31339467  0.79172100  1
  H  H9  1  0.68660521  0.15797242  0.70827898  1
  H  H10  1  0.15796858  0.68660310  0.20827811  1
  H  H11  1  0.31339667  0.84203128  0.29172193  1
  H  H12  1  0.57710320  0.53336673  0.83646331  1
  H  H13  1  0.46663314  0.42289755  0.66353651  1
  H  H14  1  0.42289959  0.46663389  0.16353423  1
  H  H15  1  0.53336680  0.57710011  0.33646564  1
  H  H16  1  0.21349879  0.82513564  0.62617357  1
  H  H17  1  0.17486608  0.78650015  0.87382605  1
  H  H18  1  0.78650648  0.17485969  0.37382660  1
  H  H19  1  0.82514044  0.21349318  0.12617342  1
  H  H20  1  0.39445497  0.74183843  0.48525827  1
  H  H21  1  0.25816239  0.60554517  0.01474129  1
  H  H22  1  0.60554796  0.25816071  0.51474334  1
  H  H23  1  0.74183985  0.39445213  0.98525646  1
  H  H24  1  0.39949649  0.13015864  0.68854236  1
  H  H25  1  0.86984174  0.60050374  0.81145742  1
  H  H26  1  0.60049681  0.86984701  0.31145911  1
  H  H27  1  0.13015237  0.39950388  0.18854090  1
  H  H28  1  0.23340265  0.05755204  0.71218311  1
  H  H29  1  0.94244824  0.76659683  0.78781711  1
  H  H30  1  0.76659575  0.94244924  0.28781731  1
  H  H31  1  0.05755176  0.23340367  0.21218288  1
  O  O0  1  -0.00002771  0.03933885  0.80096638  1
  O  O1  1  0.96066056  0.00002865  0.69903332  1
  O  O2  1  0.00001767  0.96065631  0.19903786  1
  O  O3  1  0.03934482  -0.00001803  0.30096210  1
  O  O4  1  0.05173827  0.66134995  0.51092830  1
  O  O5  1  0.33864956  0.94826248  0.98907147  1
  O  O6  1  0.94826318  0.33865236  0.48906965  1
  O  O7  1  0.66134805  0.05173695  0.01092993  1
  O  O8  1  0.74235599  0.48317259  0.79746944  1
  O  O9  1  0.51682717  0.25764470  0.70253044  1
  O  O10  1  0.25764775  0.51682305  0.20253410  1
  O  O11  1  0.48317712  0.74235211  0.29746615  1
  O  O12  1  0.37814186  0.69938333  0.58407173  1
  O  O13  1  0.30061785  0.62185776  0.91592782  1
  O  O14  1  0.62186877  0.30061524  0.41592746  1
  O  O15  1  0.69938471  0.37813096  0.08407241  1
  O  O16  1  0.37443726  0.05464960  0.65294879  1
  O  O17  1  0.94535087  0.62556257  0.84705093  1
  O  O18  1  0.62556369  0.94535020  0.34705110  1
  O  O19  1  0.05465002  0.37443605  0.15294891  1
loop_
_geom_bond_atom_site_label_1
_geom_bond_atom_site_label_2
_geom_bond_distance
_geom_bond_site_symmetry_2
Na0 O4 2.351528 1_655
Na0 O16 2.379879 1_565
Na0 O8 2.387316 1_555
Na0 O18 2.397738 1_555
Na0 O12 2.428136 1_555
Na0 O6 2.461277 1_555
Na1 O5 2.351523 1_545
Na1 O17 2.379882 1_455
Na1 O9 2.387314 1_555
Na1 O19 2.397741 1_556
Na1 O13 2.428139 1_555
Na1 O7 2.461273 1_556
Na2 O6 2.351530 1_455
Na2 O18 2.379907 1_545
Na2 O10 2.387293 1_555
Na2 O16 2.397720 1_555
Na2 O14 2.428180 1_555
Na2 O4 2.461249 1_555
Na3 O7 2.351534 1_565
Na3 O19 2.379907 1_655
Na3 O11 2.387297 1_555
Na3 O17 2.397722 1_554
Na3 O15 2.428181 1_555
Na3 O5 2.461251 1_554
H0 O4 0.967263 1_555
H1 O5 0.967266 1_555
H2 O6 0.967235 1_555
H3 O7 0.967238 1_555
H4 O4 1.006743 1_555
H4 O3 1.619621 1_565
H5 O5 1.006741 1_554
H5 O2 1.619624 1_555
H6 O6 1.006741 1_555
H6 O1 1.619566 1_555
H7 O7 1.006738 1_556
H7 O0 1.619570 1_655
H8 O8 1.009880 1_555
H8 O0 1.582901 1_655
H9 O9 1.009881 1_555
H9 O1 1.582898 1_555
H10 O10 1.009873 1_555
H10 O2 1.582891 1_555
H11 O11 1.009876 1_555
H11 O3 1.582882 1_565
H12 O8 0.992698 1_555
H13 O9 0.992699 1_555
H14 O10 0.992706 1_555
H15 O11 0.992705 1_555
H16 O12 1.016201 1_555
H16 O1 1.549734 1_465
H17 O13 1.016197 1_555
H17 O0 1.549737 1_565
H18 O14 1.016188 1_555
H18 O3 1.549721 1_655
H19 O15 1.016189 1_555
H19 O2 1.549715 1_645
H20 O12 0.977473 1_555
H21 O13 0.977473 1_554
H22 O14 0.977490 1_555
H23 O15 0.977490 1_556
H24 O16 0.977785 1_555
H25 O17 0.977783 1_555
H26 O18 0.977777 1_555
H27 O19 0.977776 1_555
H28 O16 0.991991 1_555
H28 O0 1.712063 1_555
H29 O17 0.991987 1_555
H29 O1 1.712070 1_565
H30 O18 0.991979 1_555
H30 O2 1.711979 1_655
H31 O19 0.991979 1_555
H31 O3 1.711976 1_555
O0 O1 1.483045 1_455
O2 O3 1.483114 1_565
