# generated using pymatgen
data_Sr2HfO4
_symmetry_space_group_name_H-M   'P 1'
_cell_length_a   5.79631372
_cell_length_b   5.79631372
_cell_length_c   12.61355157
_cell_angle_alpha   90.00000000
_cell_angle_beta   90.00000000
_cell_angle_gamma   90.00000000
_symmetry_Int_Tables_number   1
_chemical_formula_structural   Sr2HfO4
_chemical_formula_sum   'Sr8 Hf4 O16'
_cell_volume   423.78068005
_cell_formula_units_Z   4
loop_
 _symmetry_equiv_pos_site_id
 _symmetry_equiv_pos_as_xyz
  1  'x, y, z'
loop_
 _atom_site_type_symbol
 _atom_site_label
 _atom_site_symmetry_multiplicity
 _atom_site_fract_x
 _atom_site_fract_y
 _atom_site_fract_z
 _atom_site_occupancy
  Sr  Sr0  1  0.26210619  0.76210619  0.10183542  1
  Sr  Sr1  1  0.26210619  0.23789381  0.60183542  1
  Sr  Sr2  1  0.73789381  0.76210619  0.60183542  1
  Sr  Sr3  1  0.73789381  0.23789381  0.10183542  1
  Sr  Sr4  1  0.76210619  0.26210619  0.39816458  1
  Sr  Sr5  1  0.76210619  0.73789381  0.89816458  1
  Sr  Sr6  1  0.23789381  0.26210619  0.89816458  1
  Sr  Sr7  1  0.23789381  0.73789381  0.39816458  1
  Hf  Hf0  1  0.25000000  0.75000000  0.75000000  1
  Hf  Hf1  1  0.25000000  0.25000000  0.25000000  1
  Hf  Hf2  1  0.75000000  0.25000000  0.75000000  1
  Hf  Hf3  1  0.75000000  0.75000000  0.25000000  1
  O  O0  1  0.29130547  0.20869453  0.08708261  1
  O  O1  1  0.29130547  0.79130547  0.58708261  1
  O  O2  1  0.50000000  -0.00000000  0.77470970  1
  O  O3  1  0.50000000  -0.00000000  0.27470970  1
  O  O4  1  0.50000000  0.50000000  0.75000000  1
  O  O5  1  0.50000000  0.50000000  0.25000000  1
  O  O6  1  0.70869453  0.20869453  0.58708261  1
  O  O7  1  0.70869453  0.79130547  0.08708261  1
  O  O8  1  0.79130547  0.29130547  0.91291739  1
  O  O9  1  0.79130547  0.70869453  0.41291739  1
  O  O10  1  -0.00000000  -0.00000000  0.25000000  1
  O  O11  1  -0.00000000  0.50000000  0.22529030  1
  O  O12  1  -0.00000000  -0.00000000  0.75000000  1
  O  O13  1  -0.00000000  0.50000000  0.72529030  1
  O  O14  1  0.20869453  0.70869453  0.91291739  1
  O  O15  1  0.20869453  0.29130547  0.41291739  1
loop_
_geom_bond_atom_site_label_1
_geom_bond_atom_site_label_2
_geom_bond_distance
_geom_bond_site_symmetry_2
Hf0 O12 2.049306 1_565
Hf0 O4 2.049306 1_555
Hf0 O2 2.072872 1_565
Hf0 O13 2.072872 1_555
Hf0 O1 2.082674 1_555
Hf0 O14 2.082674 1_555
Hf1 O5 2.049306 1_555
Hf1 O10 2.049306 1_555
Hf1 O3 2.072872 1_555
Hf1 O11 2.072872 1_555
Hf1 O0 2.082674 1_555
Hf1 O15 2.082674 1_555
Hf2 O12 2.049306 1_655
Hf2 O4 2.049306 1_555
Hf2 O2 2.072872 1_555
Hf2 O13 2.072872 1_655
Hf2 O6 2.082674 1_555
Hf2 O8 2.082674 1_555
Hf3 O10 2.049306 1_665
Hf3 O5 2.049306 1_555
Hf3 O3 2.072872 1_565
Hf3 O11 2.072872 1_655
Hf3 O9 2.082674 1_555
Hf3 O7 2.082674 1_555
O0 Sr6 2.422816 1_554
O0 Sr3 2.600759 1_555
O0 Sr0 2.600759 1_545
O0 Sr0 3.217595 1_555
O0 Sr3 3.217595 1_455
O1 Sr7 2.422816 1_555
O1 Sr2 2.600759 1_555
O1 Sr1 2.600759 1_565
O1 Sr1 3.217595 1_555
O1 Sr2 3.217595 1_455
O2 Sr6 2.653512 1_555
O2 Sr5 2.653512 1_545
O2 Sr2 2.925339 1_545
O2 Sr1 2.925339 1_555
O3 Sr4 2.653512 1_555
O3 Sr7 2.653512 1_545
O3 Sr0 2.925339 1_545
O3 Sr3 2.925339 1_555
O4 Sr6 2.775288 1_555
O4 Sr1 2.775288 1_555
O4 Sr5 2.775288 1_555
O4 Sr2 2.775288 1_555
O5 Sr0 2.775288 1_555
O5 Sr3 2.775288 1_555
O5 Sr4 2.775288 1_555
O5 Sr7 2.775288 1_555
O6 Sr4 2.422816 1_555
O6 Sr2 2.600759 1_545
O6 Sr1 2.600759 1_555
O6 Sr1 3.217595 1_655
O6 Sr2 3.217595 1_555
O7 Sr5 2.422816 1_554
O7 Sr3 2.600759 1_565
O7 Sr0 2.600759 1_555
O7 Sr0 3.217595 1_655
O7 Sr3 3.217595 1_555
O8 Sr3 2.422816 1_556
O8 Sr5 2.600759 1_555
O8 Sr6 2.600759 1_655
O8 Sr6 3.217595 1_555
O8 Sr5 3.217595 1_545
O9 Sr2 2.422816 1_555
O9 Sr4 2.600759 1_555
O9 Sr7 2.600759 1_655
O9 Sr4 3.217595 1_565
O9 Sr7 3.217595 1_555
O10 Sr3 2.775288 1_455
O10 Sr4 2.775288 1_455
O10 Sr7 2.775288 1_545
O10 Sr0 2.775288 1_545
O11 Sr0 2.653512 1_555
O11 Sr3 2.653512 1_455
O11 Sr4 2.925339 1_455
O11 Sr7 2.925339 1_555
O12 Sr2 2.775288 1_445
O12 Sr5 2.775288 1_445
O12 Sr6 2.775288 1_555
O12 Sr1 2.775288 1_555
O13 Sr2 2.653512 1_455
O13 Sr1 2.653512 1_555
O13 Sr6 2.925339 1_555
O13 Sr5 2.925339 1_455
O14 Sr0 2.422816 1_556
O14 Sr5 2.600759 1_455
O14 Sr6 2.600759 1_555
O14 Sr6 3.217595 1_565
O14 Sr5 3.217595 1_555
O15 Sr1 2.422816 1_555
O15 Sr7 2.600759 1_555
O15 Sr4 2.600759 1_455
O15 Sr4 3.217595 1_555
O15 Sr7 3.217595 1_545
