# generated using pymatgen
data_LiMnF3
_symmetry_space_group_name_H-M   'P 1'
_cell_length_a   5.42586978
_cell_length_b   5.42586978
_cell_length_c   10.48540700
_cell_angle_alpha   90.00000000
_cell_angle_beta   90.00000000
_cell_angle_gamma   119.99999728
_symmetry_Int_Tables_number   1
_chemical_formula_structural   LiMnF3
_chemical_formula_sum   'Li4 Mn4 F12'
_cell_volume   267.33429070
_cell_formula_units_Z   4
loop_
 _symmetry_equiv_pos_site_id
 _symmetry_equiv_pos_as_xyz
  1  'x, y, z'
loop_
 _atom_site_type_symbol
 _atom_site_label
 _atom_site_symmetry_multiplicity
 _atom_site_fract_x
 _atom_site_fract_y
 _atom_site_fract_z
 _atom_site_occupancy
  Li  Li0  1  0.33333300  0.66666700  0.91719400  1
  Li  Li1  1  0.33333300  0.66666700  0.58280600  1
  Li  Li2  1  0.66666700  0.33333300  0.41719400  1
  Li  Li3  1  0.66666700  0.33333300  0.08280600  1
  Mn  Mn0  1  0.33333300  0.66666700  0.25000000  1
  Mn  Mn1  1  0.00000000  0.00000000  0.25000000  1
  Mn  Mn2  1  0.00000000  0.00000000  0.75000000  1
  Mn  Mn3  1  0.66666700  0.33333300  0.75000000  1
  F  F0  1  0.99558700  0.66333600  0.63875900  1
  F  F1  1  0.33666400  0.00441300  0.86124100  1
  F  F2  1  0.99558700  0.33225100  0.86124100  1
  F  F3  1  0.33666400  0.33225100  0.63875900  1
  F  F4  1  0.66774900  0.00441300  0.63875900  1
  F  F5  1  0.33225100  0.33666400  0.36124100  1
  F  F6  1  0.66774900  0.66333600  0.86124100  1
  F  F7  1  0.33225100  0.99558700  0.13875900  1
  F  F8  1  0.66333600  0.66774900  0.13875900  1
  F  F9  1  0.00441300  0.66774900  0.36124100  1
  F  F10  1  0.66333600  0.99558700  0.36124100  1
  F  F11  1  0.00441300  0.33666400  0.13875900  1
loop_
_geom_bond_atom_site_label_1
_geom_bond_atom_site_label_2
_geom_bond_distance
_geom_bond_site_symmetry_2
F0 Li1 1.915648 1_655
F0 Mn3 2.134502 1_555
F0 Mn2 2.157349 1_665
F1 Li0 1.915648 1_545
F1 Mn3 2.134502 1_555
F1 Mn2 2.157349 1_555
F2 Li0 1.915651 1_655
F2 Mn3 2.134500 1_555
F2 Mn2 2.157349 1_655
F3 Li1 1.915653 1_555
F3 Mn3 2.134504 1_555
F3 Mn2 2.157349 1_555
F4 Li1 1.915651 1_545
F4 Mn3 2.134500 1_555
F4 Mn2 2.157349 1_655
F5 Li2 1.915653 1_555
F5 Mn0 2.134504 1_555
F5 Mn1 2.157349 1_555
F6 Li0 1.915653 1_555
F6 Mn3 2.134504 1_555
F6 Mn2 2.157349 1_665
F7 Li3 1.915651 1_565
F7 Mn0 2.134500 1_555
F7 Mn1 2.157349 1_565
F8 Li3 1.915653 1_555
F8 Mn0 2.134504 1_555
F8 Mn1 2.157349 1_665
F9 Li2 1.915651 1_455
F9 Mn0 2.134500 1_555
F9 Mn1 2.157349 1_565
F10 Li2 1.915648 1_565
F10 Mn0 2.134502 1_555
F10 Mn1 2.157349 1_665
F11 Li3 1.915648 1_455
F11 Mn0 2.134502 1_555
F11 Mn1 2.157349 1_555
