# generated using pymatgen
data_Al13Si5H18ClO38
_symmetry_space_group_name_H-M   'P 1'
_cell_length_a   9.95476382
_cell_length_b   9.95476382
_cell_length_c   9.95476382
_cell_angle_alpha   60.00000000
_cell_angle_beta   60.00000000
_cell_angle_gamma   60.00000000
_symmetry_Int_Tables_number   1
_chemical_formula_structural   Al13Si5H18ClO38
_chemical_formula_sum   'Al13 Si5 H18 Cl1 O38'
_cell_volume   697.55408101
_cell_formula_units_Z   1
loop_
 _symmetry_equiv_pos_site_id
 _symmetry_equiv_pos_as_xyz
  1  'x, y, z'
loop_
 _atom_site_type_symbol
 _atom_site_label
 _atom_site_symmetry_multiplicity
 _atom_site_fract_x
 _atom_site_fract_y
 _atom_site_fract_z
 _atom_site_occupancy
  Al  Al0  1  0.76570000  0.40641800  0.06218200  1
  Al  Al1  1  0.40641800  0.76570000  0.06218200  1
  Al  Al2  1  0.76570000  0.76570000  0.06218200  1
  Al  Al3  1  0.76570000  0.76570000  0.40641800  1
  Al  Al4  1  0.76570000  0.40641800  0.76570000  1
  Al  Al5  1  0.76570000  0.06218200  0.40641800  1
  Al  Al6  1  0.75000000  0.75000000  0.75000000  1
  Al  Al7  1  0.40641800  0.76570000  0.76570000  1
  Al  Al8  1  0.40641800  0.06218200  0.76570000  1
  Al  Al9  1  0.76570000  0.06218200  0.76570000  1
  Al  Al10  1  0.06218200  0.76570000  0.40641800  1
  Al  Al11  1  0.06218200  0.40641800  0.76570000  1
  Al  Al12  1  0.06218200  0.76570000  0.76570000  1
  Si  Si0  1  0.11329500  0.11329500  0.11329500  1
  Si  Si1  1  0.66011600  0.11329500  0.11329500  1
  Si  Si2  1  0.25000000  0.25000000  0.25000000  1
  Si  Si3  1  0.11329500  0.11329500  0.66011600  1
  Si  Si4  1  0.11329500  0.66011600  0.11329500  1
  H  H0  1  0.48018400  0.48018400  0.13024600  1
  H  H1  1  0.90938600  0.48018400  0.13024600  1
  H  H2  1  0.65186900  0.34813100  0.34813100  1
  H  H3  1  0.48018400  0.90938600  0.13024600  1
  H  H4  1  0.65186900  0.34813100  0.65186900  1
  H  H5  1  0.34813100  0.65186900  0.34813100  1
  H  H6  1  0.65186900  0.65186900  0.34813100  1
  H  H7  1  0.90938600  0.48018400  0.48018400  1
  H  H8  1  0.34813100  0.65186900  0.65186900  1
  H  H9  1  0.48018400  0.48018400  0.90938600  1
  H  H10  1  0.48018400  0.90938600  0.48018400  1
  H  H11  1  0.48018400  0.13024600  0.48018400  1
  H  H12  1  0.90938600  0.13024600  0.48018400  1
  H  H13  1  0.48018400  0.13024600  0.90938600  1
  H  H14  1  0.34813100  0.34813100  0.65186900  1
  H  H15  1  0.13024600  0.48018400  0.48018400  1
  H  H16  1  0.13024600  0.90938600  0.48018400  1
  H  H17  1  0.13024600  0.48018400  0.90938600  1
  Cl  Cl0  1  0.50000000  0.50000000  0.50000000  1
  O  O0  1  0.72222100  0.27777900  0.27777900  1
  O  O1  1  0.54477300  0.54477300  0.09953800  1
  O  O2  1  0.81091500  0.54477300  0.09953800  1
  O  O3  1  0.54477300  0.81091500  0.09953800  1
  O  O4  1  0.27777900  0.72222100  0.27777900  1
  O  O5  1  0.72222100  0.72222100  0.27777900  1
  O  O6  1  0.72222100  0.27777900  0.72222100  1
  O  O7  1  0.27529600  0.00199300  0.00199300  1
  O  O8  1  0.72071800  0.00199300  0.00199300  1
  O  O9  1  0.81091500  0.54477300  0.54477300  1
  O  O10  1  0.00199300  0.00199300  0.27529600  1
  O  O11  1  0.00199300  0.27529600  0.00199300  1
  O  O12  1  0.72071800  0.00199300  0.27529600  1
  O  O13  1  0.72071800  0.27529600  0.00199300  1
  O  O14  1  0.82473200  0.82473200  0.52580500  1
  O  O15  1  0.82473200  0.52580500  0.82473200  1
  O  O16  1  0.54477300  0.54477300  0.81091500  1
  O  O17  1  0.54477300  0.81091500  0.54477300  1
  O  O18  1  0.18268100  0.18268100  0.18268100  1
  O  O19  1  0.45195800  0.18268100  0.18268100  1
  O  O20  1  0.27777900  0.72222100  0.72222100  1
  O  O21  1  0.18268100  0.45195800  0.18268100  1
  O  O22  1  0.18268100  0.18268100  0.45195800  1
  O  O23  1  0.54477300  0.09953800  0.54477300  1
  O  O24  1  0.81091500  0.09953800  0.54477300  1
  O  O25  1  0.52580500  0.82473200  0.82473200  1
  O  O26  1  0.82473200  0.82473200  0.82473200  1
  O  O27  1  0.27529600  0.72071800  0.00199300  1
  O  O28  1  0.00199300  0.00199300  0.72071800  1
  O  O29  1  0.27529600  0.00199300  0.72071800  1
  O  O30  1  0.00199300  0.72071800  0.00199300  1
  O  O31  1  0.54477300  0.09953800  0.81091500  1
  O  O32  1  0.00199300  0.27529600  0.72071800  1
  O  O33  1  0.00199300  0.72071800  0.27529600  1
  O  O34  1  0.27777900  0.27777900  0.72222100  1
  O  O35  1  0.09953800  0.54477300  0.54477300  1
  O  O36  1  0.09953800  0.81091500  0.54477300  1
  O  O37  1  0.09953800  0.54477300  0.81091500  1
loop_
_geom_bond_atom_site_label_1
_geom_bond_atom_site_label_2
_geom_bond_distance
_geom_bond_site_symmetry_2
Al0 O0 1.819448 1_555
Al0 O2 1.880769 1_555
Al0 O1 1.880776 1_555
Al0 O15 1.960927 1_554
Al0 O11 1.974377 1_655
Al0 O13 1.974377 1_555
Al1 O4 1.819448 1_555
Al1 O3 1.880769 1_555
Al1 O1 1.880776 1_555
Al1 O25 1.960927 1_554
Al1 O7 1.974377 1_565
Al1 O27 1.974377 1_555
Al2 O5 1.819448 1_555
Al2 O2 1.880779 1_555
Al2 O3 1.880779 1_555
Al2 O26 1.960925 1_554
Al2 O8 1.974377 1_565
Al2 O30 1.974377 1_655
Al3 O5 1.819448 1_555
Al3 O9 1.880776 1_555
Al3 O17 1.880776 1_555
Al3 O14 1.960934 1_555
Al3 O12 1.974377 1_565
Al3 O33 1.974377 1_655
Al4 O6 1.819448 1_555
Al4 O16 1.880776 1_555
Al4 O9 1.880776 1_555
Al4 O15 1.960934 1_555
Al4 O32 1.974377 1_655
Al4 O13 1.974377 1_556
Al5 O0 1.819448 1_555
Al5 O24 1.880769 1_555
Al5 O23 1.880776 1_555
Al5 O14 1.960927 1_545
Al5 O10 1.974377 1_655
Al5 O12 1.974377 1_555
Al6 O14 1.822264 1_555
Al6 O15 1.822264 1_555
Al6 O25 1.822264 1_555
Al6 O26 1.822272 1_555
Al7 O20 1.819448 1_555
Al7 O16 1.880776 1_555
Al7 O17 1.880776 1_555
Al7 O25 1.960934 1_555
Al7 O29 1.974377 1_565
Al7 O27 1.974377 1_556
Al8 O34 1.819448 1_555
Al8 O31 1.880769 1_555
Al8 O23 1.880776 1_555
Al8 O25 1.960927 1_545
Al8 O7 1.974377 1_556
Al8 O29 1.974377 1_555
Al9 O6 1.819448 1_555
Al9 O31 1.880779 1_555
Al9 O24 1.880779 1_555
Al9 O26 1.960925 1_545
Al9 O28 1.974377 1_655
Al9 O8 1.974377 1_556
Al10 O4 1.819448 1_555
Al10 O36 1.880769 1_555
Al10 O35 1.880776 1_555
Al10 O14 1.960927 1_455
Al10 O10 1.974377 1_565
Al10 O33 1.974377 1_555
Al11 O34 1.819448 1_555
Al11 O37 1.880769 1_555
Al11 O35 1.880776 1_555
Al11 O15 1.960927 1_455
Al11 O11 1.974377 1_556
Al11 O32 1.974377 1_555
Al12 O20 1.819448 1_555
Al12 O37 1.880779 1_555
Al12 O36 1.880779 1_555
Al12 O26 1.960925 1_455
Al12 O28 1.974377 1_565
Al12 O30 1.974377 1_556
H0 O1 0.969831 1_555
H1 O2 0.969839 1_555
H2 O0 0.990427 1_555
H3 O3 0.969839 1_555
H4 O6 0.990427 1_555
H5 O4 0.990427 1_555
H6 O5 0.990427 1_555
H7 O9 0.969835 1_555
H8 O20 0.990427 1_555
H9 O16 0.969835 1_555
H10 O17 0.969835 1_555
H11 O23 0.969831 1_555
H12 O24 0.969839 1_555
H13 O31 0.969839 1_555
H14 O34 0.990427 1_555
H15 O35 0.969831 1_555
H16 O36 0.969839 1_555
H17 O37 0.969839 1_555
O7 Si0 1.646202 1_555
O8 Si1 1.646205 1_555
O10 Si0 1.646202 1_555
O11 Si0 1.646202 1_555
O12 Si1 1.646197 1_555
O13 Si1 1.646197 1_555
O18 Si2 1.641513 1_555
O18 Si0 1.691915 1_555
O19 Si2 1.641521 1_555
O19 Si1 1.691915 1_555
O21 Si2 1.641521 1_555
O21 Si4 1.691915 1_555
O22 Si2 1.641521 1_555
O22 Si3 1.691915 1_555
O27 Si4 1.646197 1_555
O28 Si3 1.646205 1_555
O29 Si3 1.646197 1_555
O30 Si4 1.646205 1_555
O32 Si3 1.646197 1_555
O33 Si4 1.646197 1_555
