# generated using pymatgen
data_SmH12(NO5)3
_symmetry_space_group_name_H-M   'P 1'
_cell_length_a   9.94094100
_cell_length_b   11.95611949
_cell_length_c   7.18383012
_cell_angle_alpha   97.27276355
_cell_angle_beta   110.13724706
_cell_angle_gamma   105.89065669
_symmetry_Int_Tables_number   1
_chemical_formula_structural   SmH12(NO5)3
_chemical_formula_sum   'Sm2 H24 N6 O30'
_cell_volume   747.59003483
_cell_formula_units_Z   2
loop_
 _symmetry_equiv_pos_site_id
 _symmetry_equiv_pos_as_xyz
  1  'x, y, z'
loop_
 _atom_site_type_symbol
 _atom_site_label
 _atom_site_symmetry_multiplicity
 _atom_site_fract_x
 _atom_site_fract_y
 _atom_site_fract_z
 _atom_site_occupancy
  Sm  Sm0  1  0.78585300  0.88510400  0.62400800  1
  Sm  Sm1  1  0.21414700  0.11489600  0.37599200  1
  H  H0  1  0.99369600  0.72081300  0.60823800  1
  H  H1  1  0.00630400  0.27918700  0.39176200  1
  H  H2  1  0.98242200  0.76303000  0.45947800  1
  H  H3  1  0.01757800  0.23697000  0.54052200  1
  H  H4  1  0.52553900  0.82880800  0.21803400  1
  H  H5  1  0.47446100  0.17119200  0.78196600  1
  H  H6  1  0.55408800  0.65889000  0.55837200  1
  H  H7  1  0.44591200  0.34111000  0.44162800  1
  H  H8  1  0.77346300  0.72334900  0.89211100  1
  H  H9  1  0.22653700  0.27665100  0.10788900  1
  H  H10  1  0.83718400  0.56558000  0.70938500  1
  H  H11  1  0.16281600  0.43442000  0.29061500  1
  H  H12  1  0.93252300  0.20605300  0.15116100  1
  H  H13  1  0.06747700  0.79394700  0.84883900  1
  H  H14  1  0.57392700  0.44963200  0.34981900  1
  H  H15  1  0.42607300  0.55036800  0.65018100  1
  H  H16  1  0.90379000  0.44972700  0.15376800  1
  H  H17  1  0.09621000  0.55027300  0.84623200  1
  H  H18  1  0.80430800  0.22484800  0.16901900  1
  H  H19  1  0.19569200  0.77515200  0.83098100  1
  H  H20  1  0.34894000  0.41117900  0.14882900  1
  H  H21  1  0.65106000  0.58882100  0.85117100  1
  H  H22  1  0.50833200  0.29566900  0.17462500  1
  H  H23  1  0.49166800  0.70433100  0.82537500  1
  N  N0  1  0.66660400  0.15394600  0.80342200  1
  N  N1  1  0.33339600  0.84605400  0.19657800  1
  N  N2  1  0.00814100  0.27275300  0.82206000  1
  N  N3  1  0.99185900  0.72724700  0.17794000  1
  N  N4  1  0.69759500  0.96275800  0.27914800  1
  N  N5  1  0.30240500  0.03724200  0.72085200  1
  O  O0  1  0.94073800  0.75678000  0.53092700  1
  O  O1  1  0.05926200  0.24322000  0.46907300  1
  O  O2  1  0.71197700  0.69945700  0.93825000  1
  O  O3  1  0.28802300  0.30054300  0.06175000  1
  O  O4  1  0.86537200  0.71378200  0.76217000  1
  O  O5  1  0.13462800  0.28621800  0.23783000  1
  O  O6  1  0.61891100  0.65948900  0.51637800  1
  O  O7  1  0.38108900  0.34051100  0.48362200  1
  O  O8  1  0.88931200  0.30046700  0.20197800  1
  O  O9  1  0.11068800  0.69953300  0.79802200  1
  O  O10  1  0.54651500  0.30249500  0.27687600  1
  O  O11  1  0.45348500  0.69750500  0.72312400  1
  O  O12  1  0.64305900  0.13212500  0.66573300  1
  O  O13  1  0.35694100  0.86787500  0.33426700  1
  O  O14  1  0.75859100  0.09813500  0.86320300  1
  O  O15  1  0.24140900  0.90186500  0.13679700  1
  O  O16  1  0.60238600  0.22375600  0.88063700  1
  O  O17  1  0.39761400  0.77624400  0.11936300  1
  O  O18  1  0.94503600  0.24651300  0.68813900  1
  O  O19  1  0.05496400  0.75348700  0.31186100  1
  O  O20  1  0.99447000  0.14404100  0.87538300  1
  O  O21  1  0.00553000  0.85595900  0.12461700  1
  O  O22  1  0.09045900  0.44393600  0.90728000  1
  O  O23  1  0.90954100  0.55606400  0.09272000  1
  O  O24  1  0.79766600  0.00027200  0.37982000  1
  O  O25  1  0.20233400  0.99972800  0.62018000  1
  O  O26  1  0.60927000  0.84519800  0.29604200  1
  O  O27  1  0.39073000  0.15480200  0.70395800  1
  O  O28  1  0.67721700  0.02158900  0.17603900  1
  O  O29  1  0.32278300  0.97841100  0.82396100  1
loop_
_geom_bond_atom_site_label_1
_geom_bond_atom_site_label_2
_geom_bond_distance
_geom_bond_site_symmetry_2
H0 O0 0.868131 1_555
H0 O9 1.560198 1_655
H1 O1 0.868131 1_555
H1 O8 1.560198 1_455
H2 O0 0.761543 1_555
H2 O19 1.482765 1_655
H3 O1 0.761543 1_555
H3 O18 1.482765 1_455
H4 O26 0.779089 1_555
H4 O17 1.159100 1_555
H5 O27 0.779089 1_555
H5 O16 1.159100 1_555
H6 O6 0.798866 1_555
H7 O7 0.798866 1_555
H8 O2 0.795560 1_555
H8 O4 1.528618 1_555
H9 O3 0.795560 1_555
H9 O5 1.528618 1_555
H10 O4 1.687258 1_555
H11 O5 1.687258 1_555
H12 O8 1.364260 1_555
H13 O9 1.364260 1_555
H14 O10 1.688004 1_555
H15 O11 1.688004 1_555
H16 O23 1.389473 1_555
H17 O22 1.389473 1_555
H18 O8 0.988539 1_555
H19 O9 0.988539 1_555
H20 O3 1.264433 1_555
H21 O2 1.264433 1_555
H22 O10 0.682779 1_555
H23 O11 0.682779 1_555
N0 O12 0.918179 1_555
N0 O14 1.265778 1_555
N0 O16 1.352873 1_555
N1 O13 0.918179 1_555
N1 O15 1.265778 1_555
N1 O17 1.352873 1_555
N2 O18 0.904315 1_455
N2 O20 1.613685 1_455
N2 O22 1.911550 1_555
N3 O19 0.904315 1_655
N3 O21 1.613685 1_655
N3 O23 1.911550 1_555
N4 O24 0.944457 1_565
N4 O28 1.091367 1_565
N4 O26 1.483921 1_555
N5 O25 0.944457 1_545
N5 O29 1.091367 1_545
N5 O27 1.483921 1_555
O0 Sm0 2.629546 1_555
O1 Sm1 2.629546 1_555
O4 Sm0 2.582039 1_555
O5 Sm1 2.582039 1_555
O6 Sm0 2.601032 1_555
O7 Sm1 2.601032 1_555
O14 Sm0 3.017282 1_545
O15 Sm1 3.017282 1_565
O20 Sm0 3.104265 1_545
O21 Sm1 3.104265 1_565
O24 Sm0 2.377374 1_545
O25 Sm1 2.377374 1_565
O26 Sm0 2.295459 1_555
O27 Sm1 2.295459 1_555
