# generated using pymatgen
data_Li7TiFe3(PO4)6
_symmetry_space_group_name_H-M   'P 1'
_cell_length_a   8.87568715
_cell_length_b   8.87568715
_cell_length_c   8.87568718
_cell_angle_alpha   59.58656024
_cell_angle_beta   59.58656024
_cell_angle_gamma   59.58655952
_symmetry_Int_Tables_number   1
_chemical_formula_structural   Li7TiFe3(PO4)6
_chemical_formula_sum   'Li7 Ti1 Fe3 P6 O24'
_cell_volume   489.76783239
_cell_formula_units_Z   1
loop_
 _symmetry_equiv_pos_site_id
 _symmetry_equiv_pos_as_xyz
  1  'x, y, z'
loop_
 _atom_site_type_symbol
 _atom_site_label
 _atom_site_symmetry_multiplicity
 _atom_site_fract_x
 _atom_site_fract_y
 _atom_site_fract_z
 _atom_site_occupancy
  Li  Li0  1  0.93214600  0.74805700  0.20141400  1
  Li  Li1  1  0.74805700  0.20141400  0.93214600  1
  Li  Li2  1  0.53125300  0.53125300  0.53125300  1
  Li  Li3  1  0.20141400  0.93214600  0.74805700  1
  Li  Li4  1  0.72708500  0.21796800  0.38883700  1
  Li  Li5  1  0.38883700  0.72708500  0.21796800  1
  Li  Li6  1  0.21796800  0.38883700  0.72708500  1
  Ti  Ti0  1  0.14530400  0.14530400  0.14530400  1
  Fe  Fe0  1  0.64735200  0.64735200  0.64735200  1
  Fe  Fe1  1  0.85344000  0.85344000  0.85344000  1
  Fe  Fe2  1  0.35366200  0.35366200  0.35366200  1
  P  P0  1  0.95779600  0.24843300  0.54554300  1
  P  P1  1  0.54554300  0.95779600  0.24843300  1
  P  P2  1  0.24843300  0.54554300  0.95779600  1
  P  P3  1  0.75165500  0.45928400  0.04438900  1
  P  P4  1  0.45928400  0.04438900  0.75165500  1
  P  P5  1  0.04438900  0.75165500  0.45928400  1
  O  O0  1  0.93343300  0.08091500  0.73257100  1
  O  O1  1  0.99663600  0.19329400  0.38242500  1
  O  O2  1  0.77343800  0.41146900  0.55879700  1
  O  O3  1  0.52404600  0.12101500  0.28054700  1
  O  O4  1  0.73257100  0.93343300  0.08091500  1
  O  O5  1  0.55879700  0.77343800  0.41146900  1
  O  O6  1  0.28054700  0.52404600  0.12101500  1
  O  O7  1  0.41146900  0.55879700  0.77343800  1
  O  O8  1  0.80627500  0.62069500  0.99175600  1
  O  O9  1  0.90617000  0.26765400  0.10083800  1
  O  O10  1  0.12101500  0.28054700  0.52404600  1
  O  O11  1  0.62069500  0.99175600  0.80627500  1
  O  O12  1  0.38242500  0.99663600  0.19329400  1
  O  O13  1  0.88861100  0.72327700  0.45773200  1
  O  O14  1  0.08091500  0.73257100  0.93343300  1
  O  O15  1  0.19329400  0.38242500  0.99663600  1
  O  O16  1  0.58124000  0.46108500  0.22617000  1
  O  O17  1  0.72327700  0.45773200  0.88861100  1
  O  O18  1  0.46108500  0.22617000  0.58124000  1
  O  O19  1  0.26765400  0.10083800  0.90617000  1
  O  O20  1  0.45773200  0.88861100  0.72327700  1
  O  O21  1  0.99175600  0.80627500  0.62069500  1
  O  O22  1  0.22617000  0.58124000  0.46108500  1
  O  O23  1  0.10083800  0.90617000  0.26765400  1
loop_
_geom_bond_atom_site_label_1
_geom_bond_atom_site_label_2
_geom_bond_distance
_geom_bond_site_symmetry_2
Li0 O13 2.015617 1_555
Li0 O4 2.043123 1_555
Li0 O14 2.094559 1_654
Li1 O17 2.015617 1_555
Li1 O0 2.043123 1_555
Li1 O4 2.094559 1_546
Li2 O2 1.940555 1_555
Li2 O5 1.940555 1_555
Li2 O7 1.940555 1_555
Li3 O20 2.015617 1_555
Li3 O14 2.043123 1_555
Li3 O0 2.094559 1_465
Li4 O16 2.079967 1_555
Li4 O18 2.089343 1_555
Li4 O9 2.170192 1_555
Li4 O1 2.262588 1_555
Li5 O22 2.079967 1_555
Li5 O16 2.089343 1_555
Li5 O23 2.170192 1_555
Li5 O12 2.262588 1_555
Li6 O18 2.079967 1_555
Li6 O22 2.089343 1_555
Li6 O19 2.170192 1_555
Li6 O15 2.262588 1_555
Fe0 O20 2.129753 1_555
Fe0 O17 2.129753 1_555
Fe0 O13 2.129753 1_555
Fe0 O2 2.157948 1_555
Fe0 O5 2.157948 1_555
Fe0 O7 2.157948 1_555
Fe1 O11 1.933220 1_555
Fe1 O21 1.933220 1_555
Fe1 O8 1.933220 1_555
Fe1 O14 2.053903 1_655
Fe1 O4 2.053903 1_556
Fe1 O0 2.053903 1_565
Fe2 O3 2.042885 1_555
Fe2 O6 2.042885 1_555
Fe2 O10 2.042885 1_555
Fe2 O22 2.193840 1_555
Fe2 O18 2.193840 1_555
Fe2 O16 2.193840 1_555
O0 P0 1.573596 1_555
O1 P0 1.579769 1_555
O1 Ti0 1.969471 1_655
O2 P0 1.537987 1_555
O3 P1 1.516403 1_545
O4 P1 1.573596 1_555
O5 P1 1.537987 1_555
O6 P2 1.516403 1_554
O7 P2 1.537987 1_555
O8 P3 1.517227 1_556
O9 P3 1.579852 1_555
O9 Ti0 1.980025 1_655
O10 P0 1.516403 1_455
O11 P4 1.517227 1_565
O12 P1 1.579769 1_555
O12 Ti0 1.969471 1_565
O13 P5 1.533201 1_655
O14 P2 1.573596 1_555
O15 P2 1.579769 1_555
O15 Ti0 1.969471 1_556
O16 P3 1.556285 1_555
O17 P3 1.533201 1_556
O18 P4 1.556285 1_555
O19 P4 1.579852 1_555
O19 Ti0 1.980025 1_556
O20 P4 1.533201 1_565
O21 P5 1.517227 1_655
O22 P5 1.556285 1_555
O23 P5 1.579852 1_555
O23 Ti0 1.980025 1_565
