# generated using pymatgen
data_SbH32C8N4Cl7
_symmetry_space_group_name_H-M   'P 1'
_cell_length_a   8.65108900
_cell_length_b   10.41257800
_cell_length_c   13.84895700
_cell_angle_alpha   90.00000000
_cell_angle_beta   90.00000000
_cell_angle_gamma   90.00000000
_symmetry_Int_Tables_number   1
_chemical_formula_structural   SbH32C8N4Cl7
_chemical_formula_sum   'Sb2 H64 C16 N8 Cl14'
_cell_volume   1247.51597153
_cell_formula_units_Z   2
loop_
 _symmetry_equiv_pos_site_id
 _symmetry_equiv_pos_as_xyz
  1  'x, y, z'
loop_
 _atom_site_type_symbol
 _atom_site_label
 _atom_site_symmetry_multiplicity
 _atom_site_fract_x
 _atom_site_fract_y
 _atom_site_fract_z
 _atom_site_occupancy
  Sb  Sb0  1  0.57396400  0.00000000  0.00000000  1
  Sb  Sb1  1  0.42603600  0.50000000  0.50000000  1
  H  H0  1  0.87945800  0.82032400  0.06960500  1
  H  H1  1  0.87945800  0.17967600  0.93039500  1
  H  H2  1  0.12054200  0.67967600  0.56960500  1
  H  H3  1  0.12054200  0.32032400  0.43039500  1
  H  H4  1  0.96909100  0.67696700  0.05878700  1
  H  H5  1  0.96909100  0.32303300  0.94121300  1
  H  H6  1  0.03090900  0.82303300  0.55878700  1
  H  H7  1  0.03090900  0.17696700  0.44121300  1
  H  H8  1  0.49054200  0.70926400  0.81153900  1
  H  H9  1  0.49054200  0.29073600  0.18846100  1
  H  H10  1  0.50945800  0.79073600  0.31153900  1
  H  H11  1  0.50945800  0.20926400  0.68846100  1
  H  H12  1  0.51969100  0.57332500  0.74684900  1
  H  H13  1  0.51969100  0.42667500  0.25315100  1
  H  H14  1  0.48030900  0.92667500  0.24684900  1
  H  H15  1  0.48030900  0.07332500  0.75315100  1
  H  H16  1  0.13562400  0.92160400  0.09943300  1
  H  H17  1  0.13562400  0.07839600  0.90056700  1
  H  H18  1  0.86437600  0.57839600  0.59943300  1
  H  H19  1  0.86437600  0.42160400  0.40056700  1
  H  H20  1  0.21652500  0.76503000  0.07853100  1
  H  H21  1  0.21652500  0.23497000  0.92146900  1
  H  H22  1  0.78347500  0.73497000  0.57853100  1
  H  H23  1  0.78347500  0.26503000  0.42146900  1
  H  H24  1  0.11507800  0.84431800  0.98405000  1
  H  H25  1  0.11507800  0.15568200  0.01595000  1
  H  H26  1  0.88492200  0.65568200  0.48405000  1
  H  H27  1  0.88492200  0.34431800  0.51595000  1
  H  H28  1  0.05551800  0.68802200  0.22450000  1
  H  H29  1  0.05551800  0.31197800  0.77550000  1
  H  H30  1  0.94448200  0.81197800  0.72450000  1
  H  H31  1  0.94448200  0.18802200  0.27550000  1
  H  H32  1  0.95756300  0.83933800  0.23651800  1
  H  H33  1  0.95756300  0.16066200  0.76348200  1
  H  H34  1  0.04243700  0.66066200  0.73651800  1
  H  H35  1  0.04243700  0.33933800  0.26348200  1
  H  H36  1  0.84904000  0.69611200  0.21329600  1
  H  H37  1  0.84904000  0.30388800  0.78670400  1
  H  H38  1  0.15096000  0.80388800  0.71329600  1
  H  H39  1  0.15096000  0.19611200  0.28670400  1
  H  H40  1  0.64435700  0.62262000  0.94320100  1
  H  H41  1  0.64435700  0.37738000  0.05679900  1
  H  H42  1  0.35564300  0.87738000  0.44320100  1
  H  H43  1  0.35564300  0.12262000  0.55679900  1
  H  H44  1  0.67882300  0.48157800  0.87132800  1
  H  H45  1  0.67882300  0.51842200  0.12867200  1
  H  H46  1  0.32117700  0.01842200  0.37132800  1
  H  H47  1  0.32117700  0.98157800  0.62867200  1
  H  H48  1  0.75040100  0.63524300  0.83319300  1
  H  H49  1  0.75040100  0.36475700  0.16680700  1
  H  H50  1  0.24959900  0.86475700  0.33319300  1
  H  H51  1  0.24959900  0.13524300  0.66680700  1
  H  H52  1  0.38469500  0.45145500  0.87423500  1
  H  H53  1  0.38469500  0.54854500  0.12576500  1
  H  H54  1  0.61530500  0.04854500  0.37423500  1
  H  H55  1  0.61530500  0.95145500  0.62576500  1
  H  H56  1  0.35582800  0.60226300  0.93459100  1
  H  H57  1  0.35582800  0.39773700  0.06540900  1
  H  H58  1  0.64417200  0.89773700  0.43459100  1
  H  H59  1  0.64417200  0.10226300  0.56540900  1
  H  H60  1  0.26905800  0.57526400  0.81993600  1
  H  H61  1  0.26905800  0.42473600  0.18006400  1
  H  H62  1  0.73094200  0.92473600  0.31993600  1
  H  H63  1  0.73094200  0.07526400  0.68006400  1
  C  C0  1  0.11996900  0.82957500  0.06233900  1
  C  C1  1  0.11996900  0.17042500  0.93766100  1
  C  C2  1  0.88003100  0.67042500  0.56233900  1
  C  C3  1  0.88003100  0.32957500  0.43766100  1
  C  C4  1  0.95829200  0.74651800  0.19936300  1
  C  C5  1  0.95829200  0.25348200  0.80063700  1
  C  C6  1  0.04170800  0.75348200  0.69936300  1
  C  C7  1  0.04170800  0.24651800  0.30063700  1
  C  C8  1  0.65601600  0.58511000  0.86995500  1
  C  C9  1  0.65601600  0.41489000  0.13004500  1
  C  C10  1  0.34398400  0.91489000  0.36995500  1
  C  C11  1  0.34398400  0.08511000  0.63004500  1
  C  C12  1  0.37023100  0.55526000  0.86462500  1
  C  C13  1  0.37023100  0.44474000  0.13537500  1
  C  C14  1  0.62976900  0.94474000  0.36462500  1
  C  C15  1  0.62976900  0.05526000  0.63537500  1
  N  N0  1  0.97342800  0.76737400  0.09356900  1
  N  N1  1  0.97342800  0.23262600  0.90643100  1
  N  N2  1  0.02657200  0.73262600  0.59356900  1
  N  N3  1  0.02657200  0.26737400  0.40643100  1
  N  N4  1  0.50945700  0.61010500  0.81650000  1
  N  N5  1  0.50945700  0.38989500  0.18350000  1
  N  N6  1  0.49054300  0.88989500  0.31650000  1
  N  N7  1  0.49054300  0.11010500  0.68350000  1
  Cl  Cl0  1  0.57581300  0.22421300  0.90758500  1
  Cl  Cl1  1  0.57581300  0.77578700  0.09241500  1
  Cl  Cl2  1  0.42418700  0.27578700  0.40758500  1
  Cl  Cl3  1  0.42418700  0.72421300  0.59241500  1
  Cl  Cl4  1  0.37957300  0.09641000  0.14774000  1
  Cl  Cl5  1  0.37957300  0.90359000  0.85226000  1
  Cl  Cl6  1  0.62042700  0.40359000  0.64774000  1
  Cl  Cl7  1  0.62042700  0.59641000  0.35226000  1
  Cl  Cl8  1  0.79609000  0.92568800  0.88808900  1
  Cl  Cl9  1  0.79609000  0.07431200  0.11191100  1
  Cl  Cl10  1  0.20391000  0.57431200  0.38808900  1
  Cl  Cl11  1  0.20391000  0.42568800  0.61191100  1
  Cl  Cl12  1  0.01031500  0.50000000  0.00000000  1
  Cl  Cl13  1  0.98968500  0.00000000  0.50000000  1
loop_
_geom_bond_atom_site_label_1
_geom_bond_atom_site_label_2
_geom_bond_distance
_geom_bond_site_symmetry_2
H0 N0 1.036822 1_555
H1 N1 1.036822 1_555
H2 N2 1.036822 1_555
H3 N3 1.036822 1_555
H4 N0 1.058118 1_555
H5 N1 1.058118 1_555
H6 N2 1.058118 1_555
H7 N3 1.058118 1_555
H8 N4 1.047642 1_555
H9 N5 1.047642 1_555
H10 N6 1.047642 1_555
H11 N7 1.047642 1_555
H12 N4 1.041609 1_555
H13 N5 1.041609 1_555
H14 N6 1.041609 1_555
H15 N7 1.041609 1_555
C0 H20 1.095320 1_555
C0 H16 1.095675 1_555
C0 H24 1.095852 1_554
C0 N0 1.487851 1_455
C1 H21 1.095320 1_555
C1 H17 1.095675 1_555
C1 H25 1.095852 1_556
C1 N1 1.487851 1_455
C2 H22 1.095320 1_555
C2 H18 1.095675 1_555
C2 H26 1.095852 1_555
C2 N2 1.487851 1_655
C3 H23 1.095320 1_555
C3 H19 1.095675 1_555
C3 H27 1.095852 1_555
C3 N3 1.487851 1_655
C4 H32 1.094954 1_555
C4 H28 1.095286 1_655
C4 H36 1.098186 1_555
C4 N0 1.486920 1_555
C5 H33 1.094954 1_555
C5 H29 1.095286 1_655
C5 H37 1.098186 1_555
C5 N1 1.486920 1_555
C6 H34 1.094954 1_555
C6 H30 1.095286 1_455
C6 H38 1.098186 1_555
C6 N2 1.486920 1_555
C7 H35 1.094954 1_555
C7 H31 1.095286 1_455
C7 H39 1.098186 1_555
C7 N3 1.486920 1_555
C8 H40 1.091646 1_555
C8 H48 1.094725 1_555
C8 H44 1.096107 1_555
C8 N4 1.491084 1_555
C9 H41 1.091646 1_555
C9 H49 1.094725 1_555
C9 H45 1.096107 1_555
C9 N5 1.491084 1_555
C10 H42 1.091646 1_555
C10 H50 1.094725 1_555
C10 H46 1.096107 1_565
C10 N6 1.491084 1_555
C11 H43 1.091646 1_555
C11 H51 1.094725 1_555
C11 H47 1.096107 1_545
C11 N7 1.491084 1_555
C12 H60 1.092013 1_555
C12 H56 1.092674 1_555
C12 H52 1.096205 1_555
C12 N4 1.490316 1_555
C13 H61 1.092013 1_555
C13 H57 1.092674 1_555
C13 H53 1.096205 1_555
C13 N5 1.490316 1_555
C14 H62 1.092013 1_555
C14 H58 1.092674 1_555
C14 H54 1.096205 1_565
C14 N6 1.490316 1_555
C15 H63 1.092013 1_555
C15 H59 1.092674 1_555
C15 H55 1.096205 1_545
C15 N7 1.490316 1_555
Cl0 Sb0 2.662480 1_556
Cl1 Sb0 2.662480 1_565
Cl2 Sb1 2.662480 1_555
Cl3 Sb1 2.662480 1_555
Cl4 Sb0 2.832342 1_555
Cl5 Sb0 2.832342 1_566
Cl6 Sb1 2.832342 1_555
Cl7 Sb1 2.832342 1_555
Cl8 Sb0 2.587168 1_566
Cl9 Sb0 2.587168 1_555
Cl10 Sb1 2.587168 1_555
Cl11 Sb1 2.587168 1_555
Cl12 H5 2.045847 1_454
Cl12 H4 2.045847 1_455
Cl13 H7 2.045847 1_655
Cl13 H6 2.045847 1_645
