# generated using pymatgen
data_SrLiLa3MnO8
_symmetry_space_group_name_H-M   'P 1'
_cell_length_a   6.88322996
_cell_length_b   6.88322996
_cell_length_c   5.44325600
_cell_angle_alpha   90.00000000
_cell_angle_beta   90.00000000
_cell_angle_gamma   133.56050713
_symmetry_Int_Tables_number   1
_chemical_formula_structural   SrLiLa3MnO8
_chemical_formula_sum   'Sr1 Li1 La3 Mn1 O8'
_cell_volume   186.88301605
_cell_formula_units_Z   1
loop_
 _symmetry_equiv_pos_site_id
 _symmetry_equiv_pos_as_xyz
  1  'x, y, z'
loop_
 _atom_site_type_symbol
 _atom_site_label
 _atom_site_symmetry_multiplicity
 _atom_site_fract_x
 _atom_site_fract_y
 _atom_site_fract_z
 _atom_site_occupancy
  Sr  Sr0  1  0.64113900  0.35886100  0.00000000  1
  Li  Li0  1  0.50495100  0.49504900  0.50000000  1
  La  La0  1  0.86008700  0.13991300  0.50000000  1
  La  La1  1  0.36661900  0.63338100  0.00000000  1
  La  La2  1  0.13697000  0.86303000  0.50000000  1
  Mn  Mn0  1  0.00009100  0.99990900  0.00000000  1
  O  O0  1  0.75181800  0.75851300  0.75593700  1
  O  O1  1  0.75181800  0.75851300  0.24406300  1
  O  O2  1  0.24148700  0.24818200  0.75593700  1
  O  O3  1  0.24148700  0.24818200  0.24406300  1
  O  O4  1  0.84164500  0.15835500  0.00000000  1
  O  O5  1  0.31696300  0.68303700  0.50000000  1
  O  O6  1  0.68144800  0.31855200  0.50000000  1
  O  O7  1  0.16359800  0.83640200  0.00000000  1
loop_
_geom_bond_atom_site_label_1
_geom_bond_atom_site_label_2
_geom_bond_distance
_geom_bond_site_symmetry_2
Li0 O3 1.967192 1_555
Li0 O2 1.967192 1_555
Li0 O1 1.967192 1_555
Li0 O0 1.967192 1_555
Li0 O6 2.232929 1_555
Li0 O5 2.378306 1_555
La0 O6 2.260028 1_555
La0 O0 2.586841 1_545
La0 O1 2.586841 1_545
La0 O2 2.586841 1_655
La0 O3 2.586841 1_655
La0 O4 2.731610 1_556
La0 O4 2.731610 1_555
La0 O5 2.768071 1_545
La0 O5 2.768071 1_655
La1 O0 2.527702 1_554
La1 O1 2.527702 1_555
La1 O3 2.527702 1_555
La1 O2 2.527702 1_554
La1 O7 2.568494 1_555
La1 O4 2.732104 1_455
La1 O4 2.732104 1_565
La1 O5 2.793191 1_555
La1 O5 2.793191 1_554
La2 O5 2.277158 1_555
La2 O2 2.618783 1_565
La2 O3 2.618783 1_565
La2 O1 2.618783 1_455
La2 O0 2.618783 1_455
La2 O7 2.742398 1_556
La2 O7 2.742398 1_555
La2 O6 2.771498 1_565
La2 O6 2.771498 1_455
Mn0 O2 1.879532 1_564
Mn0 O0 1.879532 1_454
Mn0 O3 1.879532 1_565
Mn0 O1 1.879532 1_455
Mn0 O4 2.004559 1_465
Mn0 O7 2.068588 1_555
O0 Sr0 2.650344 1_556
O1 Sr0 2.650344 1_555
O2 Sr0 2.650344 1_556
O3 Sr0 2.650344 1_555
O4 Sr0 2.536676 1_555
O6 Sr0 2.768993 1_556
O6 Sr0 2.768993 1_555
O7 Sr0 2.728607 1_455
O7 Sr0 2.728607 1_565
