# generated using pymatgen
data_Na3Li3Fe2P2(CO7)2
_symmetry_space_group_name_H-M   'P 1'
_cell_length_a   6.63714691
_cell_length_b   10.31073407
_cell_length_c   8.76839052
_cell_angle_alpha   87.61756415
_cell_angle_beta   86.70241601
_cell_angle_gamma   90.46953597
_symmetry_Int_Tables_number   1
_chemical_formula_structural   Na3Li3Fe2P2(CO7)2
_chemical_formula_sum   'Na6 Li6 Fe4 P4 C4 O28'
_cell_volume   598.50971131
_cell_formula_units_Z   2
loop_
 _symmetry_equiv_pos_site_id
 _symmetry_equiv_pos_as_xyz
  1  'x, y, z'
loop_
 _atom_site_type_symbol
 _atom_site_label
 _atom_site_symmetry_multiplicity
 _atom_site_fract_x
 _atom_site_fract_y
 _atom_site_fract_z
 _atom_site_occupancy
  Na  Na0  1  0.22392700  0.37787300  0.08351100  1
  Na  Na1  1  0.22249000  0.88020600  0.08539800  1
  Na  Na2  1  0.51060700  0.12188300  0.25210400  1
  Na  Na3  1  0.50699100  0.63153800  0.25693200  1
  Na  Na4  1  0.49569800  0.37384700  0.74241400  1
  Na  Na5  1  0.49799500  0.87488300  0.74744000  1
  Li  Li0  1  0.04459100  0.11089600  0.29275400  1
  Li  Li1  1  0.04484700  0.61431100  0.29428100  1
  Li  Li2  1  0.95962200  0.38126900  0.71264300  1
  Li  Li3  1  0.96956900  0.87917700  0.72123700  1
  Li  Li4  1  0.79922600  0.12640600  0.90505000  1
  Li  Li5  1  0.80301500  0.62147100  0.90930700  1
  Fe  Fe0  1  0.76080700  0.88829700  0.35537900  1
  Fe  Fe1  1  0.23610300  0.10775600  0.65382500  1
  Fe  Fe2  1  0.75628300  0.39430200  0.34419100  1
  Fe  Fe3  1  0.23535400  0.60788100  0.65649400  1
  P  P0  1  0.24219700  0.35732000  0.41905800  1
  P  P1  1  0.24478600  0.85595200  0.42144400  1
  P  P2  1  0.75097200  0.14434500  0.58261500  1
  P  P3  1  0.75166200  0.64527000  0.58716900  1
  C  C0  1  0.76336500  0.35886800  0.03873800  1
  C  C1  1  0.76351800  0.86221700  0.03937200  1
  C  C2  1  0.23464600  0.13883900  0.95205500  1
  C  C3  1  0.23395300  0.64028000  0.95387900  1
  O  O0  1  0.23408800  0.14652100  0.09949200  1
  O  O1  1  0.23459100  0.64935000  0.10101000  1
  O  O2  1  0.75835500  0.48088400  0.07148100  1
  O  O3  1  0.75149100  0.98516900  0.06155400  1
  O  O4  1  0.76437100  0.27063100  0.14981700  1
  O  O5  1  0.77030800  0.78001600  0.15707300  1
  O  O6  1  0.07080800  0.41320700  0.32081500  1
  O  O7  1  0.07592400  0.91358100  0.32351700  1
  O  O8  1  0.44368000  0.39972600  0.33023000  1
  O  O9  1  0.44610100  0.89448400  0.33178200  1
  O  O10  1  0.22749700  0.20586500  0.43119400  1
  O  O11  1  0.22537100  0.70431900  0.43536500  1
  O  O12  1  0.77385200  0.08492600  0.42270700  1
  O  O13  1  0.77428100  0.59253900  0.42393900  1
  O  O14  1  0.22493600  0.41047000  0.58160100  1
  O  O15  1  0.22964200  0.90972900  0.58397200  1
  O  O16  1  0.76977800  0.29526900  0.56391600  1
  O  O17  1  0.77475600  0.79635700  0.57496300  1
  O  O18  1  0.54708100  0.10606300  0.66776400  1
  O  O19  1  0.54627300  0.60648200  0.66927600  1
  O  O20  1  0.91697000  0.09169600  0.68941400  1
  O  O21  1  0.91551800  0.58777500  0.69259700  1
  O  O22  1  0.23250800  0.24291100  0.86296800  1
  O  O23  1  0.22871400  0.74361300  0.86354600  1
  O  O24  1  0.23522500  0.02666100  0.88922100  1
  O  O25  1  0.23628600  0.52772800  0.89207900  1
  O  O26  1  0.76887000  0.32241900  0.89831200  1
  O  O27  1  0.77049800  0.81651800  0.90310400  1
loop_
_geom_bond_atom_site_label_1
_geom_bond_atom_site_label_2
_geom_bond_distance
_geom_bond_site_symmetry_2
Na0 O25 2.231165 1_554
Na0 O6 2.306725 1_555
Na0 O0 2.385434 1_555
Na0 O22 2.427270 1_554
Na0 O8 2.693736 1_555
Na0 O1 2.810227 1_555
Na1 O24 2.238657 1_564
Na1 O7 2.292529 1_555
Na1 O1 2.380820 1_555
Na1 O23 2.447211 1_554
Na1 O9 2.698770 1_555
Na1 O0 2.754455 1_565
Na2 O0 2.342103 1_555
Na2 O4 2.379691 1_555
Na2 O12 2.387438 1_555
Na2 O9 2.445760 1_545
Na2 O10 2.558673 1_555
Na2 O3 2.694476 1_545
Na3 O1 2.332504 1_555
Na3 O13 2.390595 1_555
Na3 O5 2.415244 1_555
Na3 O8 2.475323 1_555
Na3 O11 2.507771 1_555
Na3 O2 2.789420 1_555
Na3 O9 2.842512 1_555
Na4 O14 2.370399 1_555
Na4 O22 2.371012 1_555
Na4 O26 2.382790 1_555
Na4 O19 2.472157 1_555
Na4 O16 2.493446 1_555
Na4 O25 2.676182 1_555
Na4 O18 2.882387 1_555
Na5 O15 2.370078 1_555
Na5 O23 2.387288 1_555
Na5 O27 2.393721 1_555
Na5 O18 2.469530 1_565
Na5 O17 2.474578 1_555
Na5 O24 2.644485 1_565
Na5 O19 2.894466 1_555
Li0 O10 2.038377 1_555
Li0 O7 2.054948 1_545
Li0 O0 2.069764 1_555
Li0 O12 2.080931 1_455
Li1 O11 2.018659 1_555
Li1 O1 2.069914 1_555
Li1 O13 2.074865 1_455
Li1 O6 2.086554 1_555
Li2 O14 2.059504 1_655
Li2 O26 2.071152 1_555
Li2 O16 2.083619 1_555
Li2 O21 2.152955 1_555
Li3 O15 2.061066 1_655
Li3 O17 2.076015 1_555
Li3 O27 2.089042 1_555
Li3 O20 2.230274 1_565
Li3 O23 2.571080 1_655
Li4 O3 1.969902 1_546
Li4 O26 2.031451 1_555
Li4 O20 2.050537 1_555
Li5 O2 1.996062 1_556
Li5 O27 2.023201 1_555
Li5 O21 2.045709 1_555
Fe0 O5 2.103307 1_555
Fe0 O7 2.106675 1_655
Fe0 O9 2.112004 1_555
Fe0 O17 2.117681 1_555
Fe0 O12 2.137484 1_565
Fe1 O18 2.074802 1_555
Fe1 O20 2.127252 1_455
Fe1 O15 2.156737 1_545
Fe1 O10 2.164926 1_555
Fe1 O24 2.194199 1_555
Fe1 O22 2.348088 1_555
Fe2 O8 2.086487 1_555
Fe2 O6 2.092523 1_655
Fe2 O16 2.149509 1_555
Fe2 O4 2.169087 1_555
Fe2 O13 2.192141 1_555
Fe2 O2 2.516675 1_555
Fe3 O19 2.073219 1_555
Fe3 O21 2.135295 1_455
Fe3 O11 2.146671 1_555
Fe3 O14 2.166365 1_555
Fe3 O25 2.193121 1_555
Fe3 O23 2.336593 1_555
C0 O26 1.300853 1_554
C0 O2 1.302268 1_555
C0 O4 1.305213 1_555
C1 O3 1.292943 1_555
C1 O27 1.301012 1_554
C1 O5 1.311013 1_555
C2 O0 1.298287 1_556
C2 O22 1.301417 1_555
C2 O24 1.301608 1_555
C3 O1 1.297605 1_556
C3 O25 1.300860 1_555
C3 O23 1.302830 1_555
O6 P0 1.565345 1_555
O7 P1 1.557462 1_555
O8 P0 1.558333 1_555
O9 P1 1.551043 1_555
O10 P0 1.562680 1_555
O11 P1 1.566810 1_555
O12 P2 1.553331 1_555
O13 P3 1.551765 1_555
O14 P0 1.546589 1_555
O15 P1 1.548747 1_555
O16 P2 1.561178 1_555
O17 P3 1.562717 1_555
O18 P2 1.547594 1_555
O19 P3 1.546219 1_555
O20 P2 1.572173 1_555
O21 P3 1.571435 1_555
