# generated using pymatgen
data_Li3V3P8O29
_symmetry_space_group_name_H-M   'P 1'
_cell_length_a   9.73952600
_cell_length_b   9.77728936
_cell_length_c   14.26358488
_cell_angle_alpha   89.51538486
_cell_angle_beta   89.61402261
_cell_angle_gamma   60.17934846
_symmetry_Int_Tables_number   1
_chemical_formula_structural   Li3V3P8O29
_chemical_formula_sum   'Li6 V6 P16 O58'
_cell_volume   1178.36617688
_cell_formula_units_Z   2
loop_
 _symmetry_equiv_pos_site_id
 _symmetry_equiv_pos_as_xyz
  1  'x, y, z'
loop_
 _atom_site_type_symbol
 _atom_site_label
 _atom_site_symmetry_multiplicity
 _atom_site_fract_x
 _atom_site_fract_y
 _atom_site_fract_z
 _atom_site_occupancy
  Li  Li0  1  0.31061600  0.91575700  0.43777200  1
  Li  Li1  1  0.90905200  0.32310100  0.94331800  1
  Li  Li2  1  0.22462600  0.68528500  0.55597800  1
  Li  Li3  1  0.77342000  0.31752000  0.43960700  1
  Li  Li4  1  0.69305100  0.08390200  0.55930100  1
  Li  Li5  1  0.01462000  0.94342400  0.00746800  1
  V  V0  1  0.43527200  0.56910100  0.75891300  1
  V  V1  1  0.56228500  0.43390500  0.24156700  1
  V  V2  1  0.99860400  0.56813500  0.25161300  1
  V  V3  1  0.00275100  0.43497500  0.74637700  1
  V  V4  1  0.56489800  0.99591700  0.75821500  1
  V  V5  1  0.43583300  0.00451500  0.24286000  1
  P  P0  1  0.78364300  0.91648800  0.16134600  1
  P  P1  1  0.91224300  0.77524200  0.66044400  1
  P  P2  1  0.31904900  0.91089600  0.65754700  1
  P  P3  1  0.67139000  0.66190800  0.87089700  1
  P  P4  1  0.66177000  0.66584200  0.36623900  1
  P  P5  1  0.30492000  0.78059300  0.15927100  1
  P  P6  1  0.23024900  0.68016500  0.34069300  1
  P  P7  1  0.91606200  0.31457400  0.15629500  1
  P  P8  1  0.07993800  0.69222900  0.84369900  1
  P  P9  1  0.76676000  0.32331200  0.65780900  1
  P  P10  1  0.69273900  0.22243200  0.83858900  1
  P  P11  1  0.34127000  0.33377400  0.63427100  1
  P  P12  1  0.32785900  0.33770900  0.13002000  1
  P  P13  1  0.68122400  0.09071500  0.34259000  1
  P  P14  1  0.08737200  0.22547200  0.33753700  1
  P  P15  1  0.21760600  0.08481300  0.83902300  1
  O  O0  1  0.74753700  0.01768100  0.43499300  1
  O  O1  1  0.74176000  0.91848500  0.66240400  1
  O  O2  1  0.00893000  0.78283900  0.92945700  1
  O  O3  1  0.91535200  0.74117700  0.17089700  1
  O  O4  1  0.62013600  0.92086600  0.17084200  1
  O  O5  1  0.67251600  0.81103300  0.82651300  1
  O  O6  1  0.47819500  0.90374600  0.68233200  1
  O  O7  1  0.20341400  0.00163600  0.92184000  1
  O  O8  1  0.34948200  0.91241100  0.16877200  1
  O  O9  1  0.81464100  0.65900200  0.32211700  1
  O  O10  1  0.90442000  0.62069900  0.67767500  1
  O  O11  1  0.51661200  0.81962300  0.32620600  1
  O  O12  1  0.66801700  0.65982200  0.97458500  1
  O  O13  1  0.66408200  0.65764400  0.47041700  1
  O  O14  1  0.51787700  0.66998000  0.82601300  1
  O  O15  1  0.91430100  0.47147100  0.17292300  1
  O  O16  1  0.81562600  0.51133000  0.82857500  1
  O  O17  1  0.33866600  0.74317800  0.66692100  1
  O  O18  1  0.20897200  0.79820200  0.25588800  1
  O  O19  1  0.24236700  0.75299000  0.43022600  1
  O  O20  1  0.20566700  0.80150000  0.07734200  1
  O  O21  1  0.46165900  0.61850500  0.16841100  1
  O  O22  1  0.65782800  0.52014900  0.32251800  1
  O  O23  1  0.25638600  0.65198000  0.83042000  1
  O  O24  1  0.61687500  0.48127700  0.67985100  1
  O  O25  1  0.91329300  0.34516800  0.66695300  1
  O  O26  1  0.99296100  0.79837500  0.75265600  1
  O  O27  1  0.00540400  0.76726400  0.57603400  1
  O  O28  1  0.99236600  0.22764600  0.41985400  1
  O  O29  1  0.08500600  0.65687900  0.33567300  1
  O  O30  1  0.38111800  0.52175100  0.31978700  1
  O  O31  1  0.74316300  0.34542100  0.16988700  1
  O  O32  1  0.34083800  0.48176200  0.67555300  1
  O  O33  1  0.53372800  0.38222800  0.82949800  1
  O  O34  1  0.79354700  0.21380700  0.91810100  1
  O  O35  1  0.75712800  0.25182700  0.56740800  1
  O  O36  1  0.78573600  0.20225900  0.74046100  1
  O  O37  1  0.65823900  0.25995900  0.33466000  1
  O  O38  1  0.18535900  0.48266800  0.17694500  1
  O  O39  1  0.07749900  0.53616100  0.82879000  1
  O  O40  1  0.48117600  0.33131500  0.17377300  1
  O  O41  1  0.33043100  0.33438300  0.02651800  1
  O  O42  1  0.33710100  0.33662000  0.53025100  1
  O  O43  1  0.48529900  0.18114100  0.67607200  1
  O  O44  1  0.09275900  0.38011900  0.32320300  1
  O  O45  1  0.18663500  0.34107900  0.68003600  1
  O  O46  1  0.65481000  0.08607900  0.83475900  1
  O  O47  1  0.79890600  0.99427700  0.25801500  1
  O  O48  1  0.80497100  0.99480200  0.07825200  1
  O  O49  1  0.52293700  0.09601300  0.31934900  1
  O  O50  1  0.32858900  0.18737900  0.17484200  1
  O  O51  1  0.38033300  0.08312100  0.82776300  1
  O  O52  1  0.08221100  0.26065300  0.83435600  1
  O  O53  1  0.98167800  0.23855900  0.06488300  1
  O  O54  1  0.01270800  0.19997400  0.24165900  1
  O  O55  1  0.25829700  0.08189300  0.33737300  1
  O  O56  1  0.25601000  0.98216100  0.56440300  1
  O  O57  1  0.20018500  0.01192300  0.74094400  1
loop_
_geom_bond_atom_site_label_1
_geom_bond_atom_site_label_2
_geom_bond_distance
_geom_bond_site_symmetry_2
Li0 O56 1.905322 1_555
Li0 O19 2.010474 1_555
Li0 O55 2.023913 1_565
Li0 O11 2.355375 1_555
Li1 O53 1.897616 1_556
Li1 O34 1.935042 1_555
Li1 O52 2.142228 1_655
Li1 O16 2.279723 1_555
Li2 O27 1.891188 1_555
Li2 O19 1.942892 1_555
Li2 O17 2.173083 1_555
Li2 O32 2.424523 1_555
Li3 O28 1.879160 1_555
Li3 O35 1.959172 1_555
Li3 O37 2.116778 1_555
Li3 O22 2.394320 1_555
Li4 O0 1.873403 1_555
Li4 O35 2.030220 1_555
Li4 O1 2.051730 1_545
Li4 O43 2.416671 1_555
Li5 O20 1.953125 1_555
Li5 O2 1.955327 1_554
Li5 O48 2.098009 1_455
Li5 O7 2.489089 1_564
O0 P13 1.483581 1_555
O1 P1 1.551275 1_555
O1 V4 2.024037 1_555
O2 P8 1.468663 1_555
O3 P0 1.553601 1_555
O3 V2 1.860280 1_555
O4 P0 1.576569 1_555
O4 V5 1.864262 1_565
O5 P3 1.589646 1_555
O5 V4 1.847926 1_555
O6 P2 1.559353 1_555
O6 V4 1.866123 1_555
O7 P15 1.472826 1_555
O8 P5 1.558163 1_555
O8 V5 1.848330 1_565
O9 P4 1.583159 1_555
O9 V2 1.848923 1_555
O10 P1 1.567589 1_555
O10 V3 1.851429 1_655
O11 P4 1.570891 1_555
O11 V5 1.965174 1_565
O12 P3 1.479300 1_555
O13 P4 1.487153 1_555
O14 P3 1.595691 1_555
O14 V0 1.830762 1_555
O15 P7 1.545871 1_555
O15 V2 1.905081 1_555
O16 P3 1.565882 1_555
O16 V3 1.971369 1_655
O17 P2 1.558347 1_555
O17 V0 1.972291 1_555
O18 P6 1.606219 1_555
O18 P5 1.621336 1_555
O19 P6 1.500932 1_555
O20 P5 1.468512 1_555
O21 P5 1.565877 1_555
O21 V1 1.878717 1_555
O22 P4 1.577741 1_555
O22 V1 1.929126 1_555
O23 P8 1.571086 1_555
O23 V0 1.821621 1_555
O24 P9 1.541074 1_555
O24 V0 1.901691 1_555
O25 P9 1.551053 1_555
O25 V3 1.898564 1_655
O26 P1 1.610885 1_555
O26 P8 1.612041 1_655
O27 P1 1.481697 1_455
O28 P14 1.483736 1_655
O29 P6 1.542728 1_555
O29 V2 1.912065 1_455
O30 P6 1.544467 1_555
O30 V1 1.891634 1_555
O31 P7 1.567073 1_555
O31 V1 1.836340 1_555
O32 P11 1.564814 1_555
O32 V0 1.949856 1_555
O33 P10 1.564942 1_555
O33 V0 1.873724 1_555
O34 P10 1.479313 1_555
O35 P9 1.497348 1_555
O36 P9 1.608294 1_555
O36 P10 1.621182 1_555
O37 P13 1.558796 1_555
O37 V1 1.981597 1_555
O38 P12 1.558882 1_555
O38 V2 1.902172 1_455
O39 P8 1.554295 1_555
O39 V3 1.907382 1_555
O40 P12 1.594421 1_555
O40 V1 1.838475 1_555
O41 P12 1.476712 1_555
O42 P11 1.484174 1_555
O43 P11 1.569874 1_555
O43 V4 1.957922 1_545
O44 P14 1.550584 1_555
O44 V2 1.888702 1_455
O45 P11 1.606245 1_555
O45 V3 1.817226 1_555
O46 P10 1.551801 1_555
O46 V4 1.879604 1_545
O47 P13 1.607414 1_565
O47 P0 1.623184 1_555
O48 P0 1.474350 1_555
O49 P13 1.554478 1_555
O49 V5 1.869254 1_555
O50 P12 1.594656 1_555
O50 V5 1.831895 1_555
O51 P15 1.583813 1_555
O51 V4 1.846148 1_545
O52 P15 1.563188 1_555
O52 V3 1.934860 1_555
O53 P7 1.481087 1_555
O54 P7 1.602319 1_455
O54 P14 1.631154 1_555
O55 P14 1.554907 1_555
O55 V5 2.016024 1_555
O56 P2 1.482363 1_555
O57 P2 1.610877 1_545
O57 P15 1.622989 1_555
