# generated using pymatgen
data_Li5Fe3(CoO5)2
_symmetry_space_group_name_H-M   'P 1'
_cell_length_a   5.06787040
_cell_length_b   5.18634892
_cell_length_c   7.91874927
_cell_angle_alpha   107.83241652
_cell_angle_beta   100.98262821
_cell_angle_gamma   101.44069887
_symmetry_Int_Tables_number   1
_chemical_formula_structural   Li5Fe3(CoO5)2
_chemical_formula_sum   'Li5 Fe3 Co2 O10'
_cell_volume   187.02443069
_cell_formula_units_Z   1
loop_
 _symmetry_equiv_pos_site_id
 _symmetry_equiv_pos_as_xyz
  1  'x, y, z'
loop_
 _atom_site_type_symbol
 _atom_site_label
 _atom_site_symmetry_multiplicity
 _atom_site_fract_x
 _atom_site_fract_y
 _atom_site_fract_z
 _atom_site_occupancy
  Li  Li0  1  0.21343700  0.91268500  0.41311500  1
  Li  Li1  1  0.37823600  0.28575000  0.77244500  1
  Li  Li2  1  0.50000000  0.50000000  0.50000000  1
  Li  Li3  1  0.62176400  0.71425000  0.22755500  1
  Li  Li4  1  0.78656300  0.08731500  0.58688500  1
  Fe  Fe0  1  0.00000000  0.50000000  0.00000000  1
  Fe  Fe1  1  0.69147400  0.89352000  0.89256100  1
  Fe  Fe2  1  0.30852600  0.10648000  0.10743900  1
  Co  Co0  1  0.09921300  0.69161500  0.68267800  1
  Co  Co1  1  0.90078700  0.30838500  0.31732200  1
  O  O0  1  0.04836600  0.11227100  0.86372000  1
  O  O1  1  0.34145200  0.71467900  0.94877300  1
  O  O2  1  0.13496500  0.31385200  0.54581900  1
  O  O3  1  0.22723300  0.47382400  0.23495900  1
  O  O4  1  0.44309800  0.89749300  0.66382600  1
  O  O5  1  0.55690200  0.10250700  0.33617400  1
  O  O6  1  0.77276700  0.52617600  0.76504100  1
  O  O7  1  0.86503500  0.68614800  0.45418100  1
  O  O8  1  0.65854800  0.28532100  0.05122700  1
  O  O9  1  0.95163400  0.88772900  0.13628000  1
loop_
_geom_bond_atom_site_label_1
_geom_bond_atom_site_label_2
_geom_bond_distance
_geom_bond_site_symmetry_2
Li0 O7 2.057548 1_455
Li0 O5 2.112318 1_565
Li0 O4 2.134033 1_555
Li0 O2 2.177082 1_565
Li0 O9 2.287501 1_455
Li0 O3 2.304298 1_555
Li1 O2 2.037213 1_555
Li1 O4 2.052347 1_545
Li1 O0 2.094904 1_555
Li1 O6 2.157869 1_555
Li1 O1 2.300955 1_555
Li1 O8 2.387661 1_556
Li2 O2 2.061015 1_555
Li2 O7 2.061015 1_555
Li2 O5 2.180930 1_555
Li2 O4 2.180930 1_555
Li2 O6 2.231557 1_555
Li2 O3 2.231557 1_555
Li3 O7 2.037213 1_555
Li3 O5 2.052347 1_565
Li3 O9 2.094904 1_555
Li3 O3 2.157869 1_555
Li3 O8 2.300955 1_555
Li3 O1 2.387661 1_554
Li4 O2 2.057548 1_655
Li4 O4 2.112318 1_545
Li4 O5 2.134033 1_555
Li4 O7 2.177082 1_545
Li4 O0 2.287501 1_655
Li4 O6 2.304298 1_555
Fe0 O1 2.044109 1_554
Fe0 O8 2.044109 1_455
Fe0 O3 2.051020 1_555
Fe0 O6 2.051020 1_454
Fe0 O9 2.058058 1_455
Fe0 O0 2.058058 1_554
Fe1 O4 2.007504 1_555
Fe1 O1 2.026345 1_555
Fe1 O6 2.027488 1_555
Fe1 O0 2.027973 1_665
Fe1 O8 2.094343 1_566
Fe1 O9 2.132045 1_556
Fe2 O5 2.007504 1_555
Fe2 O8 2.026345 1_555
Fe2 O3 2.027488 1_555
Fe2 O9 2.027973 1_445
Fe2 O1 2.094343 1_544
Fe2 O0 2.132045 1_554
Co0 O4 1.912632 1_555
Co0 O7 1.954547 1_455
Co0 O2 1.990237 1_555
Co0 O6 2.022208 1_455
Co0 O1 2.182470 1_555
Co0 O0 2.308578 1_565
Co1 O5 1.912632 1_555
Co1 O2 1.954547 1_655
Co1 O7 1.990237 1_555
Co1 O3 2.022208 1_655
Co1 O8 2.182470 1_555
Co1 O9 2.308578 1_545
