# generated using pymatgen
data_Li5Sn(P2O7)2
_symmetry_space_group_name_H-M   'P 1'
_cell_length_a   7.16271100
_cell_length_b   8.68764008
_cell_length_c   9.72956054
_cell_angle_alpha   77.08868739
_cell_angle_beta   77.77776357
_cell_angle_gamma   69.27907503
_symmetry_Int_Tables_number   1
_chemical_formula_structural   Li5Sn(P2O7)2
_chemical_formula_sum   'Li10 Sn2 P8 O28'
_cell_volume   546.08790834
_cell_formula_units_Z   2
loop_
 _symmetry_equiv_pos_site_id
 _symmetry_equiv_pos_as_xyz
  1  'x, y, z'
loop_
 _atom_site_type_symbol
 _atom_site_label
 _atom_site_symmetry_multiplicity
 _atom_site_fract_x
 _atom_site_fract_y
 _atom_site_fract_z
 _atom_site_occupancy
  Li  Li0  1  0.33223000  0.18758100  0.27621000  1
  Li  Li1  1  0.28091800  0.25987300  0.57144400  1
  Li  Li2  1  0.75055600  0.26916600  0.09370000  1
  Li  Li3  1  0.03992800  0.49766300  0.14242100  1
  Li  Li4  1  0.42446700  0.48447000  0.35193900  1
  Li  Li5  1  0.57553300  0.51553000  0.64806100  1
  Li  Li6  1  0.96007200  0.50233700  0.85757900  1
  Li  Li7  1  0.24944400  0.73083400  0.90630000  1
  Li  Li8  1  0.71908200  0.74012700  0.42855600  1
  Li  Li9  1  0.66777000  0.81241900  0.72379000  1
  Sn  Sn0  1  0.86611800  0.13456700  0.76172700  1
  Sn  Sn1  1  0.13388200  0.86543300  0.23827300  1
  P  P0  1  0.16784400  0.12911500  0.96914700  1
  P  P1  1  0.69607100  0.10188000  0.45790100  1
  P  P2  1  0.40713300  0.34523200  0.94517100  1
  P  P3  1  0.88237300  0.36721100  0.42970600  1
  P  P4  1  0.11762700  0.63278900  0.57029400  1
  P  P5  1  0.59286700  0.65476800  0.05482900  1
  P  P6  1  0.30392900  0.89812000  0.54209900  1
  P  P7  1  0.83215600  0.87088500  0.03085300  1
  O  O0  1  0.21257200  0.05132900  0.61733700  1
  O  O1  1  0.09621400  0.15341000  0.12668300  1
  O  O2  1  0.78280500  0.04985500  0.04794800  1
  O  O3  1  0.68357000  0.05595000  0.62241200  1
  O  O4  1  0.00970100  0.25447400  0.87389800  1
  O  O5  1  0.49660100  0.22412200  0.41047100  1
  O  O6  1  0.36930500  0.18045200  0.91536200  1
  O  O7  1  0.08413000  0.36779500  0.34257800  1
  O  O8  1  0.45266800  0.31293900  0.09665700  1
  O  O9  1  0.85814300  0.19959100  0.39962100  1
  O  O10  1  0.59019800  0.35165800  0.82811700  1
  O  O11  1  0.87768400  0.34220800  0.59399000  1
  O  O12  1  0.21638100  0.49658200  0.92358800  1
  O  O13  1  0.29929400  0.47985700  0.60665600  1
  O  O14  1  0.70070600  0.52014300  0.39334400  1
  O  O15  1  0.78361900  0.50341800  0.07641200  1
  O  O16  1  0.12231600  0.65779200  0.40601000  1
  O  O17  1  0.40980200  0.64834200  0.17188300  1
  O  O18  1  0.14185700  0.80040900  0.60037900  1
  O  O19  1  0.54733200  0.68706100  0.90334300  1
  O  O20  1  0.91587000  0.63220500  0.65742200  1
  O  O21  1  0.63069500  0.81954800  0.08463800  1
  O  O22  1  0.50339900  0.77587800  0.58952900  1
  O  O23  1  0.99029900  0.74552600  0.12610200  1
  O  O24  1  0.31643000  0.94405000  0.37758800  1
  O  O25  1  0.21719500  0.95014500  0.95205200  1
  O  O26  1  0.90378600  0.84659000  0.87331700  1
  O  O27  1  0.78742800  0.94867100  0.38266300  1
loop_
_geom_bond_atom_site_label_1
_geom_bond_atom_site_label_2
_geom_bond_distance
_geom_bond_site_symmetry_2
Li0 O7 2.005810 1_555
Li0 O8 2.039278 1_555
Li0 O5 2.072274 1_555
Li0 O24 2.156741 1_545
Li0 O1 2.579142 1_555
Li1 O5 1.946652 1_555
Li1 O0 1.973584 1_555
Li1 O13 2.068056 1_555
Li2 O2 1.976287 1_555
Li2 O8 2.025531 1_555
Li2 O15 2.096951 1_555
Li2 O1 2.382108 1_655
Li2 O4 2.511730 1_654
Li3 O23 2.029262 1_455
Li3 O7 2.047461 1_555
Li3 O15 2.050683 1_455
Li3 O12 2.234258 1_554
Li4 O17 1.991083 1_555
Li4 O5 2.104534 1_555
Li4 O16 2.189480 1_555
Li4 O14 2.236177 1_555
Li4 O13 2.446955 1_555
Li5 O10 1.991083 1_555
Li5 O22 2.104534 1_555
Li5 O11 2.189480 1_555
Li5 O13 2.236177 1_555
Li5 O14 2.446955 1_555
Li6 O4 2.029262 1_655
Li6 O20 2.047461 1_555
Li6 O12 2.050683 1_655
Li6 O15 2.234258 1_556
Li7 O25 1.976287 1_555
Li7 O19 2.025531 1_555
Li7 O12 2.096951 1_555
Li7 O26 2.382108 1_455
Li7 O23 2.511730 1_456
Li8 O22 1.946652 1_555
Li8 O27 1.973584 1_555
Li8 O14 2.068056 1_555
Li9 O20 2.005810 1_555
Li9 O19 2.039278 1_555
Li9 O22 2.072274 1_555
Li9 O3 2.156741 1_565
Li9 O26 2.579142 1_555
O0 P6 1.533612 1_545
O0 Sn0 2.522435 1_455
O1 P0 1.546641 1_554
O1 Sn1 2.437886 1_545
O2 P7 1.507268 1_545
O2 Sn0 2.710005 1_554
O3 P1 1.551903 1_555
O3 Sn0 2.410298 1_555
O4 P0 1.564760 1_555
O4 Sn0 2.252858 1_455
O5 P1 1.539011 1_555
O6 P0 1.608234 1_555
O6 P2 1.643215 1_555
O7 P3 1.513806 1_455
O8 P2 1.520344 1_554
O9 P1 1.610363 1_555
O9 P3 1.620871 1_555
O10 P2 1.552616 1_555
O10 Sn0 2.290513 1_555
O11 P3 1.559007 1_555
O11 Sn0 2.158073 1_555
O12 P2 1.538372 1_555
O13 P4 1.531361 1_555
O14 P3 1.531361 1_555
O15 P5 1.538372 1_555
O16 P4 1.559007 1_555
O16 Sn1 2.158073 1_555
O17 P5 1.552616 1_555
O17 Sn1 2.290513 1_555
O18 P6 1.610363 1_555
O18 P4 1.620871 1_555
O19 P5 1.520344 1_556
O20 P4 1.513806 1_655
O21 P7 1.608234 1_555
O21 P5 1.643215 1_555
O22 P6 1.539011 1_555
O23 P7 1.564760 1_555
O23 Sn1 2.252858 1_655
O24 P6 1.551903 1_555
O24 Sn1 2.410298 1_555
O25 P0 1.507268 1_565
O25 Sn1 2.710005 1_556
O26 P7 1.546641 1_556
O26 Sn0 2.437886 1_565
O27 P1 1.533612 1_565
O27 Sn1 2.522435 1_655
