# generated using pymatgen
data_Na6Ni2As(CO4)4
_symmetry_space_group_name_H-M   'P 1'
_cell_length_a   9.88804546
_cell_length_b   9.88804546
_cell_length_c   9.88804546
_cell_angle_alpha   60.00000000
_cell_angle_beta   60.00000000
_cell_angle_gamma   60.00000000
_symmetry_Int_Tables_number   1
_chemical_formula_structural   Na6Ni2As(CO4)4
_chemical_formula_sum   'Na12 Ni4 As2 C8 O32'
_cell_volume   683.62252784
_cell_formula_units_Z   2
loop_
 _symmetry_equiv_pos_site_id
 _symmetry_equiv_pos_as_xyz
  1  'x, y, z'
loop_
 _atom_site_type_symbol
 _atom_site_label
 _atom_site_symmetry_multiplicity
 _atom_site_fract_x
 _atom_site_fract_y
 _atom_site_fract_z
 _atom_site_occupancy
  Na  Na0  1  0.03482900  0.46517100  0.46517100  1
  Na  Na1  1  0.03482900  0.03482900  0.46517100  1
  Na  Na2  1  0.78482900  0.78482900  0.21517100  1
  Na  Na3  1  0.46517100  0.03482900  0.03482900  1
  Na  Na4  1  0.21517100  0.78482900  0.21517100  1
  Na  Na5  1  0.78482900  0.21517100  0.78482900  1
  Na  Na6  1  0.46517100  0.03482900  0.46517100  1
  Na  Na7  1  0.03482900  0.46517100  0.03482900  1
  Na  Na8  1  0.78482900  0.21517100  0.21517100  1
  Na  Na9  1  0.21517100  0.78482900  0.78482900  1
  Na  Na10  1  0.21517100  0.21517100  0.78482900  1
  Na  Na11  1  0.46517100  0.46517100  0.03482900  1
  Ni  Ni0  1  0.62500000  0.12500000  0.62500000  1
  Ni  Ni1  1  0.62500000  0.62500000  0.12500000  1
  Ni  Ni2  1  0.12500000  0.62500000  0.62500000  1
  Ni  Ni3  1  0.62500000  0.62500000  0.62500000  1
  As  As0  1  0.00000000  0.00000000  0.00000000  1
  As  As1  1  0.25000000  0.25000000  0.25000000  1
  C  C0  1  0.84081400  0.84081400  0.47755800  1
  C  C1  1  0.77244200  0.40918600  0.40918600  1
  C  C2  1  0.40918600  0.40918600  0.40918600  1
  C  C3  1  0.84081400  0.84081400  0.84081400  1
  C  C4  1  0.40918600  0.77244200  0.40918600  1
  C  C5  1  0.84081400  0.47755800  0.84081400  1
  C  C6  1  0.47755800  0.84081400  0.84081400  1
  C  C7  1  0.40918600  0.40918600  0.77244200  1
  O  O0  1  0.07100700  0.07100700  0.78698000  1
  O  O1  1  0.07100700  0.07100700  0.07100700  1
  O  O2  1  0.07100700  0.78698000  0.07100700  1
  O  O3  1  0.72504800  0.98355400  0.81681400  1
  O  O4  1  0.78698000  0.07100700  0.07100700  1
  O  O5  1  0.98355400  0.72504800  0.47458400  1
  O  O6  1  0.47458400  0.81681400  0.98355400  1
  O  O7  1  0.81681400  0.98355400  0.47458400  1
  O  O8  1  0.77541600  0.52495200  0.43318600  1
  O  O9  1  0.52495200  0.77541600  0.26644600  1
  O  O10  1  0.98355400  0.81681400  0.72504800  1
  O  O11  1  0.72504800  0.81681400  0.47458400  1
  O  O12  1  0.77541600  0.26644600  0.52495200  1
  O  O13  1  0.43318600  0.52495200  0.26644600  1
  O  O14  1  0.98355400  0.47458400  0.81681400  1
  O  O15  1  0.81681400  0.47458400  0.72504800  1
  O  O16  1  0.43318600  0.77541600  0.52495200  1
  O  O17  1  0.81681400  0.72504800  0.98355400  1
  O  O18  1  0.26644600  0.77541600  0.43318600  1
  O  O19  1  0.47458400  0.98355400  0.72504800  1
  O  O20  1  0.52495200  0.43318600  0.77541600  1
  O  O21  1  0.26644600  0.43318600  0.52495200  1
  O  O22  1  0.72504800  0.47458400  0.98355400  1
  O  O23  1  0.47458400  0.72504800  0.81681400  1
  O  O24  1  0.43318600  0.26644600  0.77541600  1
  O  O25  1  0.77541600  0.43318600  0.26644600  1
  O  O26  1  0.26644600  0.52495200  0.77541600  1
  O  O27  1  0.46302000  0.17899300  0.17899300  1
  O  O28  1  0.52495200  0.26644600  0.43318600  1
  O  O29  1  0.17899300  0.46302000  0.17899300  1
  O  O30  1  0.17899300  0.17899300  0.17899300  1
  O  O31  1  0.17899300  0.17899300  0.46302000  1
loop_
_geom_bond_atom_site_label_1
_geom_bond_atom_site_label_2
_geom_bond_distance
_geom_bond_site_symmetry_2
Na0 O5 2.399602 1_455
Na0 O15 2.399602 1_455
Na0 O29 2.456829 1_555
Na0 O31 2.456829 1_555
Na0 O21 2.477329 1_555
Na0 O8 2.477329 1_455
Na1 O10 2.399602 1_445
Na1 O7 2.399602 1_445
Na1 O31 2.456820 1_555
Na1 O30 2.456826 1_555
Na1 O12 2.477329 1_455
Na1 O18 2.477329 1_545
Na2 O8 2.399602 1_555
Na2 O9 2.399602 1_555
Na2 O4 2.456829 1_565
Na2 O2 2.456829 1_655
Na2 O11 2.477329 1_555
Na2 O17 2.477329 1_554
Na3 O3 2.399602 1_544
Na3 O6 2.399602 1_544
Na3 O27 2.456820 1_555
Na3 O30 2.456826 1_555
Na3 O9 2.477329 1_545
Na3 O24 2.477329 1_554
Na4 O18 2.399602 1_555
Na4 O13 2.399602 1_555
Na4 O2 2.456820 1_555
Na4 O1 2.456826 1_565
Na4 O6 2.477329 1_554
Na4 O5 2.477329 1_455
Na5 O20 2.399602 1_555
Na5 O12 2.399602 1_555
Na5 O0 2.456829 1_655
Na5 O4 2.456829 1_556
Na5 O15 2.477329 1_555
Na5 O3 2.477329 1_545
Na6 O19 2.399602 1_545
Na6 O11 2.399602 1_545
Na6 O31 2.456829 1_555
Na6 O27 2.456829 1_555
Na6 O28 2.477329 1_555
Na6 O16 2.477329 1_545
Na7 O17 2.399602 1_454
Na7 O14 2.399602 1_454
Na7 O29 2.456820 1_555
Na7 O30 2.456826 1_555
Na7 O26 2.477329 1_554
Na7 O25 2.477329 1_455
Na8 O25 2.399602 1_555
Na8 O28 2.399602 1_555
Na8 O4 2.456820 1_555
Na8 O1 2.456826 1_655
Na8 O7 2.477329 1_545
Na8 O22 2.477329 1_554
Na9 O16 2.399602 1_555
Na9 O26 2.399602 1_555
Na9 O0 2.456829 1_565
Na9 O2 2.456829 1_556
Na9 O23 2.477329 1_555
Na9 O10 2.477329 1_455
Na10 O24 2.399602 1_555
Na10 O21 2.399602 1_555
Na10 O0 2.456820 1_555
Na10 O1 2.456826 1_556
Na10 O14 2.477329 1_455
Na10 O19 2.477329 1_545
Na11 O22 2.399602 1_554
Na11 O23 2.399602 1_554
Na11 O29 2.456829 1_555
Na11 O27 2.456829 1_555
Na11 O13 2.477329 1_555
Na11 O20 2.477329 1_554
Ni0 O3 2.090967 1_545
Ni0 O12 2.090967 1_555
Ni0 O24 2.090967 1_555
Ni0 O7 2.090967 1_545
Ni0 O28 2.090967 1_555
Ni0 O19 2.090967 1_545
Ni1 O17 2.090967 1_554
Ni1 O9 2.090967 1_555
Ni1 O25 2.090967 1_555
Ni1 O6 2.090967 1_554
Ni1 O13 2.090967 1_555
Ni1 O22 2.090967 1_554
Ni2 O10 2.090967 1_455
Ni2 O26 2.090967 1_555
Ni2 O18 2.090967 1_555
Ni2 O14 2.090967 1_455
Ni2 O21 2.090967 1_555
Ni2 O5 2.090967 1_455
Ni3 O15 2.090967 1_555
Ni3 O23 2.090967 1_555
Ni3 O11 2.090967 1_555
Ni3 O20 2.090967 1_555
Ni3 O8 2.090967 1_555
Ni3 O16 2.090967 1_555
As0 O0 1.719829 1_554
As0 O2 1.719829 1_545
As0 O4 1.719829 1_455
As0 O1 1.719837 1_555
As1 O27 1.719829 1_555
As1 O29 1.719829 1_555
As1 O31 1.719829 1_555
As1 O30 1.719837 1_555
C0 O7 1.296076 1_555
C0 O5 1.296076 1_555
C0 O11 1.296076 1_555
C1 O8 1.296076 1_555
C1 O12 1.296076 1_555
C1 O25 1.296076 1_555
C2 O28 1.296076 1_555
C2 O13 1.296076 1_555
C2 O21 1.296076 1_555
C3 O10 1.296076 1_555
C3 O3 1.296076 1_555
C3 O17 1.296076 1_555
C4 O16 1.296076 1_555
C4 O9 1.296076 1_555
C4 O18 1.296076 1_555
C5 O14 1.296076 1_555
C5 O22 1.296076 1_555
C5 O15 1.296076 1_555
C6 O6 1.296076 1_555
C6 O19 1.296076 1_555
C6 O23 1.296076 1_555
C7 O20 1.296076 1_555
C7 O26 1.296076 1_555
C7 O24 1.296076 1_555
