# generated using pymatgen
data_LiVF4
_symmetry_space_group_name_H-M   'P 1'
_cell_length_a   6.09777305
_cell_length_b   6.09777305
_cell_length_c   6.09777305
_cell_angle_alpha   131.91146326
_cell_angle_beta   131.91146326
_cell_angle_gamma   70.36889702
_symmetry_Int_Tables_number   1
_chemical_formula_structural   LiVF4
_chemical_formula_sum   'Li2 V2 F8'
_cell_volume   123.05189527
_cell_formula_units_Z   2
loop_
 _symmetry_equiv_pos_site_id
 _symmetry_equiv_pos_as_xyz
  1  'x, y, z'
loop_
 _atom_site_type_symbol
 _atom_site_label
 _atom_site_symmetry_multiplicity
 _atom_site_fract_x
 _atom_site_fract_y
 _atom_site_fract_z
 _atom_site_occupancy
  Li  Li0  1  0.75000000  0.25000000  0.50000000  1
  Li  Li1  1  0.00000000  0.00000000  0.00000000  1
  V  V0  1  0.50000000  0.50000000  0.00000000  1
  V  V1  1  0.25000000  0.75000000  0.50000000  1
  F  F0  1  0.12002700  0.13721500  0.56450900  1
  F  F1  1  0.57270600  0.55551800  0.43549100  1
  F  F2  1  0.86278500  0.42729400  0.98281200  1
  F  F3  1  0.30551800  0.37002700  0.48281200  1
  F  F4  1  0.88721500  0.82270600  0.51718800  1
  F  F5  1  0.44448200  0.87997300  0.01718800  1
  F  F6  1  0.17729400  0.69448200  0.06450900  1
  F  F7  1  0.62997300  0.11278500  0.93549100  1
loop_
_geom_bond_atom_site_label_1
_geom_bond_atom_site_label_2
_geom_bond_distance
_geom_bond_site_symmetry_2
F0 Li0 1.962597 1_455
F0 V1 2.067891 1_545
F0 V0 2.165631 1_556
F1 Li0 1.962597 1_555
F1 V1 2.067891 1_555
F1 V0 2.165631 1_555
F2 Li0 1.962597 1_555
F2 V1 2.067891 1_656
F2 V0 2.165631 1_556
F3 Li1 1.962597 1_555
F3 V0 2.067891 1_556
F3 V1 2.165631 1_555
F4 Li1 1.962597 1_666
F4 V0 2.067891 1_555
F4 V1 2.165631 1_655
F5 Li0 1.962597 1_565
F5 V1 2.067891 1_554
F5 V0 2.165631 1_555
F6 Li1 1.962597 1_565
F6 V0 2.067891 1_555
F6 V1 2.165631 1_555
F7 Li1 1.962597 1_656
F7 V0 2.067891 1_556
F7 V1 2.165631 1_545
