# generated using pymatgen
data_CeZn3Cu2
_symmetry_space_group_name_H-M   'P 1'
_cell_length_a   5.17381050
_cell_length_b   5.17381141
_cell_length_c   4.19471586
_cell_angle_alpha   90.00000000
_cell_angle_beta   90.00000000
_cell_angle_gamma   120.00006794
_symmetry_Int_Tables_number   1
_chemical_formula_structural   CeZn3Cu2
_chemical_formula_sum   'Ce1 Zn3 Cu2'
_cell_volume   97.24202503
_cell_formula_units_Z   1
loop_
 _symmetry_equiv_pos_site_id
 _symmetry_equiv_pos_as_xyz
  1  'x, y, z'
loop_
 _atom_site_type_symbol
 _atom_site_label
 _atom_site_symmetry_multiplicity
 _atom_site_fract_x
 _atom_site_fract_y
 _atom_site_fract_z
 _atom_site_occupancy
  Ce  Ce0  1  0.00000000  0.00000000  0.00000000  1
  Zn  Zn0  1  0.00000000  0.50000000  0.50000000  1
  Zn  Zn1  1  0.50000000  0.00000000  0.50000000  1
  Zn  Zn2  1  0.50000000  0.50000000  0.50000000  1
  Cu  Cu0  1  0.66666700  0.33333300  -0.00000000  1
  Cu  Cu1  1  0.33333300  0.66666700  0.00000000  1
loop_
_geom_bond_atom_site_label_1
_geom_bond_atom_site_label_2
_geom_bond_distance
_geom_bond_site_symmetry_2
Ce0 Cu1 2.987099 1_545
Ce0 Cu0 2.987099 1_455
Ce0 Cu0 2.987100 1_555
Ce0 Cu1 2.987100 1_445
Ce0 Cu0 2.987101 1_445
Ce0 Cu1 2.987101 1_555
Ce0 Zn2 3.330312 1_445
Ce0 Zn2 3.330312 1_555
Ce0 Zn2 3.330312 1_554
Ce0 Zn2 3.330312 1_444
Ce0 Zn1 3.330314 1_554
Ce0 Zn1 3.330314 1_454
Ce0 Zn1 3.330314 1_555
Ce0 Zn1 3.330314 1_455
Ce0 Zn0 3.330314 1_545
Ce0 Zn0 3.330314 1_554
Ce0 Zn0 3.330314 1_544
Ce0 Zn0 3.330314 1_555
Zn0 Zn1 2.586903 1_455
Zn0 Zn1 2.586903 1_565
Zn0 Zn2 2.586905 1_455
Zn0 Zn2 2.586905 1_555
Zn1 Zn2 2.586906 1_555
Zn1 Zn2 2.586906 1_545
Cu0 Zn0 2.574800 1_655
Cu0 Zn0 2.574800 1_654
Cu0 Zn1 2.574800 1_555
Cu0 Zn1 2.574800 1_554
Cu0 Zn2 2.574804 1_555
Cu0 Zn2 2.574804 1_554
Cu0 Cu1 2.987096 1_655
Cu0 Cu1 2.987096 1_545
Cu0 Cu1 2.987108 1_555
Cu1 Zn0 2.574800 1_554
Cu1 Zn0 2.574800 1_555
Cu1 Zn1 2.574800 1_564
Cu1 Zn1 2.574800 1_565
Cu1 Zn2 2.574804 1_555
Cu1 Zn2 2.574804 1_554
