# generated using pymatgen
data_Er(BiO2)3
_symmetry_space_group_name_H-M   'P 1'
_cell_length_a   6.99176598
_cell_length_b   6.99176598
_cell_length_c   6.99176560
_cell_angle_alpha   93.00927502
_cell_angle_beta   93.00927502
_cell_angle_gamma   93.00926585
_symmetry_Int_Tables_number   1
_chemical_formula_structural   Er(BiO2)3
_chemical_formula_sum   'Er2 Bi6 O12'
_cell_volume   340.32545011
_cell_formula_units_Z   2
loop_
 _symmetry_equiv_pos_site_id
 _symmetry_equiv_pos_as_xyz
  1  'x, y, z'
loop_
 _atom_site_type_symbol
 _atom_site_label
 _atom_site_symmetry_multiplicity
 _atom_site_fract_x
 _atom_site_fract_y
 _atom_site_fract_z
 _atom_site_occupancy
  Er  Er0  1  0.00000000  0.00000000  0.00000000  1
  Er  Er1  1  0.50000000  0.50000000  0.50000000  1
  Bi  Bi0  1  0.74961100  0.93077400  0.44659800  1
  Bi  Bi1  1  0.44659800  0.74961100  0.93077400  1
  Bi  Bi2  1  0.06922600  0.55340200  0.25038900  1
  Bi  Bi3  1  0.93077400  0.44659800  0.74961100  1
  Bi  Bi4  1  0.55340200  0.25038900  0.06922600  1
  Bi  Bi5  1  0.25038900  0.06922600  0.55340200  1
  O  O0  1  0.07408000  0.92887300  0.30765700  1
  O  O1  1  0.69234300  0.92592000  0.07112700  1
  O  O2  1  0.47266300  0.80919700  0.59848100  1
  O  O3  1  0.07112700  0.69234300  0.92592000  1
  O  O4  1  0.80919700  0.59848100  0.47266300  1
  O  O5  1  0.40151900  0.52733700  0.19080300  1
  O  O6  1  0.59848100  0.47266300  0.80919700  1
  O  O7  1  0.19080300  0.40151900  0.52733700  1
  O  O8  1  0.92887300  0.30765700  0.07408000  1
  O  O9  1  0.52733700  0.19080300  0.40151900  1
  O  O10  1  0.30765700  0.07408000  0.92887300  1
  O  O11  1  0.92592000  0.07112700  0.69234300  1
loop_
_geom_bond_atom_site_label_1
_geom_bond_atom_site_label_2
_geom_bond_distance
_geom_bond_site_symmetry_2
Er0 O11 2.272674 1_454
Er0 O0 2.272674 1_545
Er0 O3 2.272674 1_544
Er0 O8 2.272674 1_455
Er0 O1 2.272674 1_445
Er0 O10 2.272674 1_554
Er1 O5 2.255011 1_555
Er1 O6 2.255011 1_555
Er1 O9 2.255011 1_555
Er1 O2 2.255011 1_555
Er1 O7 2.255011 1_555
Er1 O4 2.255011 1_555
Bi0 O11 2.215472 1_565
Bi0 O2 2.395327 1_555
Bi0 O4 2.396389 1_555
Bi0 O9 2.474928 1_565
Bi0 O0 2.514692 1_655
Bi0 O1 2.632875 1_555
Bi1 O1 2.215472 1_556
Bi1 O6 2.395327 1_555
Bi1 O2 2.396389 1_555
Bi1 O5 2.474928 1_556
Bi1 O10 2.514692 1_565
Bi1 O3 2.632875 1_555
Bi2 O8 2.215472 1_455
Bi2 O7 2.395327 1_555
Bi2 O5 2.396389 1_555
Bi2 O4 2.474928 1_455
Bi2 O3 2.514692 1_554
Bi2 O0 2.632875 1_555
Bi3 O3 2.215472 1_655
Bi3 O4 2.395327 1_555
Bi3 O6 2.396389 1_555
Bi3 O7 2.474928 1_655
Bi3 O8 2.514692 1_556
Bi3 O11 2.632875 1_555
Bi4 O10 2.215472 1_554
Bi4 O5 2.395327 1_555
Bi4 O9 2.396389 1_555
Bi4 O6 2.474928 1_554
Bi4 O1 2.514692 1_545
Bi4 O8 2.632875 1_555
Bi5 O0 2.215472 1_545
Bi5 O9 2.395327 1_555
Bi5 O7 2.396389 1_555
Bi5 O2 2.474928 1_545
Bi5 O11 2.514692 1_455
Bi5 O10 2.632875 1_555
