# generated using pymatgen
data_K2NiP4(HO2)8
_symmetry_space_group_name_H-M   'P 1'
_cell_length_a   8.73333108
_cell_length_b   9.69647658
_cell_length_c   10.66713833
_cell_angle_alpha   93.73279982
_cell_angle_beta   108.70328858
_cell_angle_gamma   116.07431382
_symmetry_Int_Tables_number   1
_chemical_formula_structural   K2NiP4(HO2)8
_chemical_formula_sum   'K4 Ni2 P8 H16 O32'
_cell_volume   745.65776084
_cell_formula_units_Z   2
loop_
 _symmetry_equiv_pos_site_id
 _symmetry_equiv_pos_as_xyz
  1  'x, y, z'
loop_
 _atom_site_type_symbol
 _atom_site_label
 _atom_site_symmetry_multiplicity
 _atom_site_fract_x
 _atom_site_fract_y
 _atom_site_fract_z
 _atom_site_occupancy
  K  K0  1  0.29748600  0.83820000  0.57477700  1
  K  K1  1  0.29751100  0.33809300  0.07465400  1
  K  K2  1  0.70260900  0.66192900  0.92527500  1
  K  K3  1  0.70245100  0.16174300  0.42527300  1
  Ni  Ni0  1  0.49987300  0.74981600  0.24995600  1
  Ni  Ni1  1  0.50008200  0.25009600  0.74994400  1
  P  P0  1  0.24334200  0.14920700  0.41919800  1
  P  P1  1  0.24334200  0.64920200  0.91919700  1
  P  P2  1  0.75666500  0.35081000  0.08081000  1
  P  P3  1  0.75666300  0.85080700  0.58080800  1
  P  P4  1  0.75711700  0.10069500  0.90961100  1
  P  P5  1  0.75715100  0.60068900  0.40963200  1
  P  P6  1  0.24288900  0.39935800  0.59037800  1
  P  P7  1  0.24283400  0.89930200  0.09036300  1
  H  H0  1  0.07641800  0.93005300  0.19904400  1
  H  H1  1  0.07647800  0.43007000  0.69905500  1
  H  H2  1  0.92355900  0.56996500  0.30094200  1
  H  H3  1  0.92357000  0.06996900  0.80094300  1
  H  H4  1  0.47333400  0.33911700  0.38435400  1
  H  H5  1  0.47334200  0.83914000  0.88436900  1
  H  H6  1  0.52672200  0.16088600  0.11567900  1
  H  H7  1  0.52671700  0.66088200  0.61567600  1
  H  H8  1  0.70823600  0.45405800  0.63962500  1
  H  H9  1  0.70806200  0.95392900  0.13960500  1
  H  H10  1  0.29193800  0.04607300  0.86040100  1
  H  H11  1  0.29176900  0.54595700  0.36037600  1
  H  H12  1  0.85202800  0.45156400  0.77435100  1
  H  H13  1  0.85188800  0.95145200  0.27433600  1
  H  H14  1  0.14804700  0.04848600  0.72569100  1
  H  H15  1  0.14786000  0.54835600  0.22565400  1
  O  O0  1  0.08127000  0.99085900  0.33035900  1
  O  O1  1  0.08126400  0.49085100  0.83035100  1
  O  O2  1  0.91873000  0.50914800  0.16964400  1
  O  O3  1  0.91873200  0.00915800  0.66964100  1
  O  O4  1  0.33841300  0.24620400  0.32713400  1
  O  O5  1  0.33841600  0.74620800  0.82714600  1
  O  O6  1  0.66162400  0.25379900  0.17288600  1
  O  O7  1  0.66166300  0.75381800  0.67291100  1
  O  O8  1  0.93781700  0.11411700  0.89854500  1
  O  O9  1  0.93785400  0.61411700  0.39856300  1
  O  O10  1  0.06217300  0.38591000  0.60143200  1
  O  O11  1  0.06215200  0.88589300  0.10145000  1
  O  O12  1  0.66611200  0.45835900  0.46556800  1
  O  O13  1  0.66610400  0.95836200  0.96555200  1
  O  O14  1  0.33390000  0.04165100  0.03444600  1
  O  O15  1  0.33401900  0.54168500  0.53446700  1
  O  O16  1  0.38796000  0.14509000  0.54179800  1
  O  O17  1  0.38794900  0.64507200  0.04180600  1
  O  O18  1  0.61203500  0.35491800  0.95818800  1
  O  O19  1  0.61203000  0.85489800  0.45819200  1
  O  O20  1  0.62895000  0.11049300  0.78018600  1
  O  O21  1  0.62906100  0.61047900  0.28016800  1
  O  O22  1  0.37094400  0.38952200  0.71982800  1
  O  O23  1  0.37092500  0.88947700  0.21978800  1
  O  O24  1  0.14860100  0.24094400  0.46966700  1
  O  O25  1  0.14854600  0.74088000  0.96967000  1
  O  O26  1  0.85144100  0.25911700  0.03032000  1
  O  O27  1  0.85144700  0.75911500  0.53032400  1
  O  O28  1  0.27336500  0.05866900  0.76584100  1
  O  O29  1  0.27322000  0.55859000  0.26582800  1
  O  O30  1  0.72670300  0.44137500  0.73416200  1
  O  O31  1  0.72659700  0.94131700  0.23416300  1
loop_
_geom_bond_atom_site_label_1
_geom_bond_atom_site_label_2
_geom_bond_distance
_geom_bond_site_symmetry_2
K0 O9 2.793164 1_455
K0 O16 2.801932 1_565
K0 O5 2.854191 1_555
K0 O20 2.934612 1_565
K0 O28 2.978631 1_565
K0 O15 3.047391 1_555
K0 O19 3.308342 1_555
K1 O8 2.792929 1_454
K1 O17 2.802396 1_555
K1 O4 2.854866 1_555
K1 O21 2.935669 1_555
K1 O29 2.980496 1_555
K1 O14 3.045864 1_555
K1 O18 3.307002 1_554
K2 O11 2.792338 1_656
K2 O18 2.802715 1_555
K2 O7 2.853708 1_555
K2 O22 2.935842 1_555
K2 O30 2.979413 1_555
K2 O13 3.046434 1_555
K2 O17 3.308463 1_556
K3 O10 2.793651 1_655
K3 O19 2.801404 1_545
K3 O6 2.854670 1_555
K3 O23 2.934995 1_545
K3 O31 2.978793 1_545
K3 O12 3.047377 1_555
K3 O16 3.307626 1_555
Ni0 O17 2.087762 1_555
Ni0 O19 2.089089 1_555
Ni0 O21 2.089429 1_555
Ni0 O23 2.090604 1_555
Ni0 O29 2.101024 1_555
Ni0 O31 2.102277 1_555
Ni1 O16 2.088113 1_555
Ni1 O18 2.088784 1_555
Ni1 O20 2.089579 1_555
Ni1 O22 2.089839 1_555
Ni1 O30 2.100683 1_555
Ni1 O28 2.102389 1_555
H0 O11 1.046199 1_555
H0 O0 1.464233 1_555
H1 O10 1.046358 1_555
H1 O1 1.464229 1_555
H2 O9 1.046348 1_555
H2 O2 1.464192 1_555
H3 O8 1.046308 1_555
H3 O3 1.464176 1_555
H4 O4 1.051944 1_555
H4 O12 1.464518 1_555
H5 O5 1.052034 1_555
H5 O13 1.464328 1_555
H6 O6 1.051829 1_555
H6 O14 1.464771 1_555
H7 O7 1.052165 1_555
H7 O15 1.463973 1_555
H8 O30 0.993661 1_555
H9 O31 0.993634 1_555
H10 O28 0.993578 1_555
H11 O29 0.993571 1_555
H12 O30 0.994982 1_555
H13 O31 0.994913 1_555
H14 O28 0.994920 1_555
H15 O29 0.995072 1_555
O0 P0 1.516188 1_565
O1 P1 1.516239 1_555
O2 P2 1.516102 1_555
O3 P3 1.516180 1_545
O4 P0 1.579601 1_555
O5 P1 1.579534 1_555
O6 P2 1.579641 1_555
O7 P3 1.579628 1_555
O8 P4 1.569151 1_555
O9 P5 1.569169 1_555
O10 P6 1.569149 1_555
O11 P7 1.569130 1_555
O12 P5 1.529615 1_555
O13 P4 1.529612 1_565
O14 P7 1.529678 1_545
O15 P6 1.529628 1_555
O16 P0 1.516205 1_555
O17 P1 1.516264 1_554
O18 P2 1.516365 1_556
O19 P3 1.516268 1_555
O20 P4 1.512429 1_555
O21 P5 1.512358 1_555
O22 P6 1.512311 1_555
O23 P7 1.512231 1_555
O24 P0 1.623577 1_555
O24 P6 1.626685 1_555
O25 P1 1.623579 1_555
O25 P7 1.626628 1_556
O26 P2 1.623622 1_555
O26 P4 1.626674 1_554
O27 P3 1.623645 1_555
O27 P5 1.626637 1_555
