# generated using pymatgen
data_V6O5F19
_symmetry_space_group_name_H-M   'P 1'
_cell_length_a   5.36934100
_cell_length_b   5.50306503
_cell_length_c   15.13683008
_cell_angle_alpha   100.29694800
_cell_angle_beta   89.94513745
_cell_angle_gamma   90.68651650
_symmetry_Int_Tables_number   1
_chemical_formula_structural   V6O5F19
_chemical_formula_sum   'V6 O5 F19'
_cell_volume   440.02528802
_cell_formula_units_Z   1
loop_
 _symmetry_equiv_pos_site_id
 _symmetry_equiv_pos_as_xyz
  1  'x, y, z'
loop_
 _atom_site_type_symbol
 _atom_site_label
 _atom_site_symmetry_multiplicity
 _atom_site_fract_x
 _atom_site_fract_y
 _atom_site_fract_z
 _atom_site_occupancy
  V  V0  1  0.95115500  0.97927500  0.00416000  1
  V  V1  1  0.50720000  0.81289800  0.66714700  1
  V  V2  1  0.97514000  0.73249100  0.33624700  1
  V  V3  1  0.44937800  0.52290800  0.99570600  1
  V  V4  1  0.02813200  0.28247900  0.66434100  1
  V  V5  1  0.52069600  0.22960500  0.33528900  1
  O  O0  1  0.80689300  0.98501700  0.35964700  1
  O  O1  1  0.73462800  0.77079200  0.01736800  1
  O  O2  1  0.69348300  0.48387400  0.35791300  1
  O  O3  1  0.23365700  0.72676200  0.98277300  1
  O  O4  1  0.20597900  0.03714100  0.64509900  1
  F  F0  1  0.27519000  0.84955700  0.30715600  1
  F  F1  1  0.95264700  0.95810300  0.88610900  1
  F  F2  1  0.56727300  0.80556100  0.55171000  1
  F  F3  1  0.90306400  0.60610900  0.22342900  1
  F  F4  1  0.40714100  0.88656700  0.77994400  1
  F  F5  1  0.07485300  0.67824900  0.44250900  1
  F  F6  1  0.45367400  0.54069400  0.11359700  1
  F  F7  1  0.78459200  0.63882800  0.68982600  1
  F  F8  1  0.77278800  0.26207100  0.02003800  1
  F  F9  1  0.29860400  0.51477900  0.64218200  1
  F  F10  1  0.22602600  0.34681800  0.30578300  1
  F  F11  1  0.58000900  0.44136100  0.88678500  1
  F  F12  1  0.91664100  0.30614200  0.55658500  1
  F  F13  1  0.59730100  0.09892900  0.22349900  1
  F  F14  1  0.07732600  0.40270600  0.77894600  1
  F  F15  1  0.42358800  0.18088500  0.44260200  1
  F  F16  1  0.08375700  0.05962600  0.11290000  1
  F  F17  1  0.72647000  0.12652600  0.69100500  1
  F  F18  1  0.27271500  0.23325000  0.97970600  1
loop_
_geom_bond_atom_site_label_1
_geom_bond_atom_site_label_2
_geom_bond_distance
_geom_bond_site_symmetry_2
O0 V2 1.651127 1_555
O0 V5 2.130045 1_565
O1 V0 1.660574 1_555
O1 V3 2.026116 1_554
O2 V5 1.653517 1_555
O2 V2 2.091977 1_555
O3 V3 1.657861 1_555
O3 V0 2.055567 1_456
O4 V4 1.645992 1_555
O4 V1 2.108586 1_545
F0 V2 1.810983 1_455
F0 V5 2.430987 1_565
F1 V0 1.769825 1_556
F2 V1 1.770004 1_555
F3 V2 1.766339 1_555
F4 V1 1.767534 1_555
F5 V2 1.772017 1_455
F6 V3 1.769780 1_554
F7 V1 1.845680 1_555
F7 V4 2.344007 1_655
F8 V0 1.816160 1_545
F8 V3 2.336967 1_554
F9 V1 1.955470 1_555
F9 V4 1.990887 1_555
F10 V5 1.802123 1_555
F10 V2 2.499850 1_455
F11 V3 1.775513 1_555
F12 V4 1.765057 1_655
F13 V5 1.766466 1_555
F14 V4 1.761607 1_555
F15 V5 1.770050 1_555
F16 V0 1.773752 1_445
F17 V4 1.900585 1_655
F17 V1 2.055387 1_545
F18 V3 1.823590 1_555
F18 V0 2.279768 1_446
