# generated using pymatgen
data_Li2MnCr3O8
_symmetry_space_group_name_H-M   'P 1'
_cell_length_a   5.88301350
_cell_length_b   5.88301350
_cell_length_c   9.36752800
_cell_angle_alpha   90.00000000
_cell_angle_beta   90.00000000
_cell_angle_gamma   119.99999440
_symmetry_Int_Tables_number   1
_chemical_formula_structural   Li2MnCr3O8
_chemical_formula_sum   'Li4 Mn2 Cr6 O16'
_cell_volume   280.77300260
_cell_formula_units_Z   2
loop_
 _symmetry_equiv_pos_site_id
 _symmetry_equiv_pos_as_xyz
  1  'x, y, z'
loop_
 _atom_site_type_symbol
 _atom_site_label
 _atom_site_symmetry_multiplicity
 _atom_site_fract_x
 _atom_site_fract_y
 _atom_site_fract_z
 _atom_site_occupancy
  Li  Li0  1  0.33333300  0.66666700  0.89700200  1
  Li  Li1  1  0.00000000  0.00000000  0.99586000  1
  Li  Li2  1  0.00000000  0.00000000  0.49586000  1
  Li  Li3  1  0.66666700  0.33333300  0.39700200  1
  Mn  Mn0  1  0.33333300  0.66666700  0.48264800  1
  Mn  Mn1  1  0.66666700  0.33333300  0.98264800  1
  Cr  Cr0  1  0.16959300  0.83040700  0.21091500  1
  Cr  Cr1  1  0.16959300  0.33918500  0.21091500  1
  Cr  Cr2  1  0.66081500  0.83040700  0.21091500  1
  Cr  Cr3  1  0.33918500  0.16959300  0.71091500  1
  Cr  Cr4  1  0.83040700  0.66081500  0.71091500  1
  Cr  Cr5  1  0.83040700  0.16959300  0.71091500  1
  O  O0  1  0.16688800  0.83311200  0.60020900  1
  O  O1  1  0.04312100  0.52156100  0.34445100  1
  O  O2  1  0.33333300  0.66666700  0.10312900  1
  O  O3  1  0.00000000  0.00000000  0.30858000  1
  O  O4  1  0.00000000  0.00000000  0.80858000  1
  O  O5  1  0.16688800  0.33377700  0.60020900  1
  O  O6  1  0.47843900  0.95687900  0.34445100  1
  O  O7  1  0.47843900  0.52156100  0.34445100  1
  O  O8  1  0.33377700  0.16688800  0.10020900  1
  O  O9  1  0.66622300  0.83311200  0.60020900  1
  O  O10  1  0.52156100  0.47843900  0.84445100  1
  O  O11  1  0.52156100  0.04312100  0.84445100  1
  O  O12  1  0.66666700  0.33333300  0.60312900  1
  O  O13  1  0.83311200  0.66622300  0.10020900  1
  O  O14  1  0.95687900  0.47843900  0.84445100  1
  O  O15  1  0.83311200  0.16688800  0.10020900  1
loop_
_geom_bond_atom_site_label_1
_geom_bond_atom_site_label_2
_geom_bond_distance
_geom_bond_site_symmetry_2
Li0 O2 1.930900 1_556
Li0 O11 1.980139 1_565
Li0 O14 1.980139 1_455
Li0 O10 1.980149 1_555
Li1 O4 1.754351 1_555
Li1 O15 1.961456 1_456
Li1 O13 1.961461 1_446
Li1 O8 1.961461 1_556
Li2 O3 1.754351 1_555
Li2 O0 1.961456 1_545
Li2 O5 1.961461 1_555
Li2 O9 1.961461 1_445
Li3 O12 1.930900 1_555
Li3 O1 1.980139 1_655
Li3 O6 1.980139 1_545
Li3 O7 1.980149 1_555
Mn0 O7 1.965224 1_555
Mn0 O6 1.965224 1_555
Mn0 O1 1.965224 1_555
Mn0 O0 2.022190 1_555
Mn0 O9 2.022190 1_555
Mn0 O5 2.022190 1_555
Mn1 O10 1.965224 1_555
Mn1 O14 1.965224 1_555
Mn1 O11 1.965224 1_555
Mn1 O15 2.022190 1_556
Mn1 O13 2.022190 1_556
Mn1 O8 2.022190 1_556
Cr0 O2 1.950185 1_555
Cr0 O3 1.955333 1_565
Cr0 O8 2.003723 1_565
Cr0 O13 2.003723 1_455
Cr0 O6 2.016870 1_555
Cr0 O1 2.016870 1_555
Cr1 O2 1.950194 1_555
Cr1 O3 1.955329 1_555
Cr1 O8 2.003723 1_555
Cr1 O15 2.003723 1_455
Cr1 O7 2.016871 1_555
Cr1 O1 2.016878 1_555
Cr2 O2 1.950194 1_555
Cr2 O3 1.955329 1_665
Cr2 O13 2.003723 1_555
Cr2 O15 2.003723 1_565
Cr2 O7 2.016871 1_555
Cr2 O6 2.016878 1_555
Cr3 O12 1.950194 1_555
Cr3 O4 1.955329 1_555
Cr3 O5 2.003723 1_555
Cr3 O0 2.003723 1_545
Cr3 O10 2.016871 1_555
Cr3 O11 2.016878 1_555
Cr4 O12 1.950194 1_555
Cr4 O4 1.955329 1_665
Cr4 O9 2.003723 1_555
Cr4 O0 2.003723 1_655
Cr4 O10 2.016871 1_555
Cr4 O14 2.016878 1_555
Cr5 O12 1.950185 1_555
Cr5 O4 1.955333 1_655
Cr5 O5 2.003723 1_655
Cr5 O9 2.003723 1_545
Cr5 O14 2.016870 1_555
Cr5 O11 2.016870 1_555
