# generated using pymatgen
data_Li3VF6
_symmetry_space_group_name_H-M   'P 1'
_cell_length_a   4.98831311
_cell_length_b   8.42172822
_cell_length_c   9.45556537
_cell_angle_alpha   90.00000000
_cell_angle_beta   90.00000000
_cell_angle_gamma   90.00000000
_symmetry_Int_Tables_number   1
_chemical_formula_structural   Li3VF6
_chemical_formula_sum   'Li12 V4 F24'
_cell_volume   397.23035578
_cell_formula_units_Z   4
loop_
 _symmetry_equiv_pos_site_id
 _symmetry_equiv_pos_as_xyz
  1  'x, y, z'
loop_
 _atom_site_type_symbol
 _atom_site_label
 _atom_site_symmetry_multiplicity
 _atom_site_fract_x
 _atom_site_fract_y
 _atom_site_fract_z
 _atom_site_occupancy
  Li  Li0  1  0.49656253  0.44519287  0.10173559  1
  Li  Li1  1  0.00563045  0.86165785  0.12507120  1
  Li  Li2  1  0.50074685  0.04885627  0.14696268  1
  Li  Li3  1  0.00074685  0.54885627  0.35303732  1
  Li  Li4  1  0.50563045  0.36165785  0.37492880  1
  Li  Li5  1  0.99656253  0.94519287  0.39826441  1
  Li  Li6  1  0.49656253  0.05480713  0.60173559  1
  Li  Li7  1  0.00563045  0.63834215  0.62507120  1
  Li  Li8  1  0.50074685  0.45114373  0.64696268  1
  Li  Li9  1  0.00074685  0.95114373  0.85303732  1
  Li  Li10  1  0.50563045  0.13834215  0.87492880  1
  Li  Li11  1  0.99656253  0.55480713  0.89826441  1
  V  V0  1  0.99928331  0.23945074  0.12934119  1
  V  V1  1  0.49928331  0.73945074  0.37065881  1
  V  V2  1  0.99928331  0.26054926  0.62934119  1
  V  V3  1  0.49928331  0.76054926  0.87065881  1
  F  F0  1  0.81830388  0.08057490  0.00807140  1
  F  F1  1  0.33176468  0.24532954  0.02242127  1
  F  F2  1  0.84477785  0.40851887  0.02101674  1
  F  F3  1  0.14842584  0.05816160  0.23136783  1
  F  F4  1  0.67659798  0.23189093  0.24190973  1
  F  F5  1  0.18511765  0.39089052  0.25252484  1
  F  F6  1  0.68511765  0.89089052  0.24747516  1
  F  F7  1  0.17659798  0.73189093  0.25809027  1
  F  F8  1  0.64842584  0.55816160  0.26863217  1
  F  F9  1  0.34477785  0.90851887  0.47898326  1
  F  F10  1  0.83176468  0.74532954  0.47757873  1
  F  F11  1  0.31830388  0.58057490  0.49192860  1
  F  F12  1  0.81830388  0.41942510  0.50807140  1
  F  F13  1  0.33176468  0.25467046  0.52242127  1
  F  F14  1  0.84477785  0.09148113  0.52101674  1
  F  F15  1  0.14842584  0.44183840  0.73136783  1
  F  F16  1  0.67659798  0.26810907  0.74190973  1
  F  F17  1  0.18511765  0.10910948  0.75252484  1
  F  F18  1  0.68511765  0.60910948  0.74747516  1
  F  F19  1  0.17659798  0.76810907  0.75809027  1
  F  F20  1  0.64842584  0.94183840  0.76863217  1
  F  F21  1  0.34477785  0.59148113  0.97898326  1
  F  F22  1  0.83176468  0.75467046  0.97757873  1
  F  F23  1  0.31830388  0.91942510  0.99192860  1
loop_
_geom_bond_atom_site_label_1
_geom_bond_atom_site_label_2
_geom_bond_distance
_geom_bond_site_symmetry_2
F0 V0 1.979936 1_555
F0 Li9 2.040929 1_644
F0 Li10 2.062599 1_554
F0 Li2 2.074944 1_555
F0 Li1 2.344390 1_645
F1 Li10 1.873237 1_554
F1 V0 1.942998 1_455
F1 Li0 2.017765 1_555
F1 Li2 2.198898 1_555
F2 Li11 1.854267 1_554
F2 V0 1.915849 1_555
F2 Li0 1.922271 1_555
F3 Li2 1.931804 1_555
F3 V0 1.953252 1_455
F3 Li5 1.992340 1_445
F3 Li1 2.063079 1_545
F4 Li4 1.871809 1_555
F4 V0 1.930800 1_555
F4 Li2 1.987866 1_555
F4 Li0 2.406291 1_555
F5 Li3 1.875881 1_555
F5 V0 1.960262 1_455
F5 Li4 1.989070 1_555
F5 Li0 2.157699 1_555
F6 Li2 1.875881 1_565
F6 V1 1.960262 1_555
F6 Li1 1.989070 1_655
F6 Li5 2.157699 1_555
F7 Li1 1.871809 1_555
F7 V1 1.930800 1_555
F7 Li3 1.987866 1_555
F7 Li5 2.406291 1_455
F8 Li3 1.931804 1_655
F8 V1 1.953252 1_555
F8 Li0 1.992340 1_555
F8 Li4 2.063079 1_555
F9 Li6 1.854267 1_565
F9 V1 1.915849 1_555
F9 Li5 1.922271 1_455
F10 Li7 1.873237 1_655
F10 V1 1.942998 1_555
F10 Li5 2.017765 1_555
F10 Li3 2.198898 1_655
F11 V1 1.979936 1_555
F11 Li8 2.040929 1_555
F11 Li7 2.062599 1_555
F11 Li3 2.074944 1_555
F11 Li4 2.344390 1_555
F12 V2 1.979936 1_555
F12 Li3 2.040929 1_655
F12 Li4 2.062599 1_555
F12 Li8 2.074944 1_555
F12 Li7 2.344390 1_655
F13 Li4 1.873237 1_555
F13 V2 1.942998 1_455
F13 Li6 2.017765 1_555
F13 Li8 2.198898 1_555
F14 Li5 1.854267 1_545
F14 V2 1.915849 1_555
F14 Li6 1.922271 1_555
F15 Li8 1.931804 1_555
F15 V2 1.953252 1_455
F15 Li11 1.992340 1_455
F15 Li7 2.063079 1_555
F16 Li10 1.871809 1_555
F16 V2 1.930800 1_555
F16 Li8 1.987866 1_555
F16 Li6 2.406291 1_555
F17 Li9 1.875881 1_545
F17 V2 1.960262 1_455
F17 Li10 1.989070 1_555
F17 Li6 2.157699 1_555
F18 Li8 1.875881 1_555
F18 V3 1.960262 1_555
F18 Li7 1.989070 1_655
F18 Li11 2.157699 1_555
F19 Li7 1.871809 1_555
F19 V3 1.930800 1_555
F19 Li9 1.987866 1_555
F19 Li11 2.406291 1_455
F20 Li9 1.931804 1_655
F20 V3 1.953252 1_555
F20 Li6 1.992340 1_565
F20 Li10 2.063079 1_565
F21 Li0 1.854267 1_556
F21 V3 1.915849 1_555
F21 Li11 1.922271 1_455
F22 Li1 1.873237 1_656
F22 V3 1.942998 1_555
F22 Li11 2.017765 1_555
F22 Li9 2.198898 1_655
F23 V3 1.979936 1_555
F23 Li2 2.040929 1_566
F23 Li1 2.062599 1_556
F23 Li9 2.074944 1_555
F23 Li10 2.344390 1_565
