# generated using pymatgen
data_Li5V3P8O29
_symmetry_space_group_name_H-M   'P 1'
_cell_length_a   9.79909800
_cell_length_b   9.80674855
_cell_length_c   14.12671670
_cell_angle_alpha   90.23925789
_cell_angle_beta   90.07009719
_cell_angle_gamma   119.70902964
_symmetry_Int_Tables_number   1
_chemical_formula_structural   Li5V3P8O29
_chemical_formula_sum   'Li10 V6 P16 O58'
_cell_volume   1179.07655515
_cell_formula_units_Z   2
loop_
 _symmetry_equiv_pos_site_id
 _symmetry_equiv_pos_as_xyz
  1  'x, y, z'
loop_
 _atom_site_type_symbol
 _atom_site_label
 _atom_site_symmetry_multiplicity
 _atom_site_fract_x
 _atom_site_fract_y
 _atom_site_fract_z
 _atom_site_occupancy
  Li  Li0  1  0.69000000  0.91366300  0.93724400  1
  Li  Li1  1  0.66505800  0.76775200  0.44260500  1
  Li  Li2  1  0.23067700  0.90201300  0.44271000  1
  Li  Li3  1  0.08885100  0.77158400  0.93786000  1
  Li  Li4  1  0.23037800  0.32439900  0.94030200  1
  Li  Li5  1  0.09954700  0.33333400  0.44124300  1
  Li  Li6  1  0.67342400  0.33729900  0.39248400  1
  Li  Li7  1  0.67224000  0.34119600  0.89040400  1
  Li  Li8  1  0.30682000  0.08167300  0.06020000  1
  Li  Li9  1  0.99367800  0.99205100  0.50947000  1
  V  V0  1  0.00002200  0.56641700  0.74448400  1
  V  V1  1  0.00213100  0.43156300  0.24774900  1
  V  V2  1  0.56850700  0.57285300  0.24773000  1
  V  V3  1  0.43727800  0.43480900  0.74708400  1
  V  V4  1  0.57128700  0.00103200  0.74766100  1
  V  V5  1  0.42969700  0.99628500  0.25144900  1
  P  P0  1  0.68194200  0.91552400  0.15663600  1
  P  P1  1  0.68712800  0.76998700  0.65631000  1
  P  P2  1  0.22683800  0.91491500  0.65893200  1
  P  P3  1  0.33429400  0.66742100  0.86974500  1
  P  P4  1  0.33164300  0.66386000  0.37232900  1
  P  P5  1  0.08405100  0.76402100  0.15578000  1
  P  P6  1  0.91229400  0.68947600  0.33866100  1
  P  P7  1  0.23248800  0.31785500  0.15743800  1
  P  P8  1  0.77399800  0.68253700  0.83880200  1
  P  P9  1  0.08398200  0.30832000  0.65593700  1
  P  P10  1  0.91279000  0.23013900  0.83932500  1
  P  P11  1  0.66810000  0.33374500  0.62998200  1
  P  P12  1  0.66230000  0.32992900  0.13118500  1
  P  P13  1  0.77783600  0.08887600  0.33908100  1
  P  P14  1  0.31269400  0.22606200  0.34067700  1
  P  P15  1  0.32141600  0.09130800  0.84123200  1
  O  O0  1  0.78730500  0.99325800  0.41783600  1
  O  O1  1  0.66060300  0.91234400  0.67326300  1
  O  O2  1  0.76755300  0.77354300  0.92052100  1
  O  O3  1  0.66065400  0.74736800  0.17029700  1
  O  O4  1  0.52178300  0.90406400  0.18204800  1
  O  O5  1  0.48068500  0.81971000  0.83331300  1
  O  O6  1  0.38118200  0.91486000  0.67036300  1
  O  O7  1  0.24559700  0.99693800  0.92869000  1
  O  O8  1  0.24774100  0.91505900  0.16501000  1
  O  O9  1  0.48581500  0.67042600  0.32813800  1
  O  O10  1  0.52918800  0.61882800  0.66798400  1
  O  O11  1  0.32365400  0.80962300  0.33429900  1
  O  O12  1  0.32137300  0.66145600  0.97475100  1
  O  O13  1  0.34319600  0.66410100  0.47755100  1
  O  O14  1  0.18158800  0.65893200  0.82387100  1
  O  O15  1  0.38201900  0.47882400  0.18126100  1
  O  O16  1  0.34461600  0.52272900  0.82897000  1
  O  O17  1  0.08532700  0.74390000  0.67093900  1
  O  O18  1  0.97973100  0.77843900  0.23893100  1
  O  O19  1  0.00633400  0.79726300  0.41739200  1
  O  O20  1  0.01139600  0.75101800  0.06218700  1
  O  O21  1  0.09920000  0.61815500  0.18253700  1
  O  O22  1  0.18827000  0.51059700  0.33328500  1
  O  O23  1  0.92135100  0.65969600  0.84042800  1
  O  O24  1  0.08074000  0.46577600  0.67322200  1
  O  O25  1  0.25053100  0.33930600  0.66843000  1
  O  O26  1  0.80017100  0.77994700  0.74169200  1
  O  O27  1  0.76987000  0.78869700  0.56449700  1
  O  O28  1  0.20858600  0.21574600  0.42015500  1
  O  O29  1  0.73935800  0.65976500  0.34047200  1
  O  O30  1  0.90105000  0.52706700  0.33309600  1
  O  O31  1  0.08673800  0.33578000  0.16257700  1
  O  O32  1  0.81599500  0.48542300  0.67412600  1
  O  O33  1  0.89215000  0.37715300  0.82416100  1
  O  O34  1  0.01368700  0.24395900  0.92086900  1
  O  O35  1  0.01161200  0.23164300  0.56373200  1
  O  O36  1  0.98277000  0.20029500  0.74252800  1
  O  O37  1  0.91982900  0.25980700  0.33969500  1
  O  O38  1  0.65573000  0.47616700  0.17839900  1
  O  O39  1  0.62956100  0.51579100  0.82703900  1
  O  O40  1  0.80918100  0.33343100  0.17384100  1
  O  O41  1  0.66024600  0.33765700  0.02566700  1
  O  O42  1  0.67142100  0.34199300  0.52468900  1
  O  O43  1  0.67235600  0.19125500  0.67136100  1
  O  O44  1  0.47488900  0.37802600  0.33253900  1
  O  O45  1  0.52110600  0.33582400  0.67291000  1
  O  O46  1  0.74509800  0.08561400  0.84347300  1
  O  O47  1  0.79963500  0.01784100  0.23966500  1
  O  O48  1  0.74200600  0.98396700  0.06308200  1
  O  O49  1  0.62744500  0.10283400  0.33188200  1
  O  O50  1  0.51015300  0.18091500  0.16726700  1
  O  O51  1  0.48676200  0.11132900  0.82391300  1
  O  O52  1  0.33750400  0.25522600  0.84402200  1
  O  O53  1  0.25191700  0.25090900  0.06628800  1
  O  O54  1  0.21992300  0.20256600  0.24157300  1
  O  O55  1  0.34356000  0.08397100  0.34178300  1
  O  O56  1  0.20478400  0.98088100  0.56879600  1
  O  O57  1  0.21098900  0.00602500  0.75016400  1
loop_
_geom_bond_atom_site_label_1
_geom_bond_atom_site_label_2
_geom_bond_distance
_geom_bond_site_symmetry_2
Li0 O48 1.880021 1_556
Li0 O2 1.885295 1_555
Li0 O46 2.001948 1_565
Li0 O5 2.306449 1_555
Li1 O0 1.956972 1_555
Li1 O27 1.961051 1_555
Li1 O29 2.118326 1_555
Li1 O9 2.220209 1_555
Li2 O19 1.942313 1_555
Li2 O56 2.004821 1_555
Li2 O55 2.123484 1_565
Li2 O11 2.192376 1_555
Li3 O20 1.885719 1_556
Li3 O7 1.974422 1_555
Li3 O23 1.997299 1_455
Li3 O14 2.371312 1_555
Li4 O34 1.882251 1_555
Li4 O53 1.972839 1_556
Li4 O52 2.028219 1_555
Li4 O16 2.319779 1_555
Li5 O28 1.944057 1_555
Li5 O35 1.974209 1_555
Li5 O37 2.098985 1_455
Li5 O22 2.151990 1_555
Li6 O42 1.868364 1_555
Li6 O30 2.246244 1_555
Li6 O49 2.275664 1_555
Li6 O44 2.330328 1_555
Li7 O41 1.913980 1_556
Li7 O39 2.151625 1_555
Li7 O33 2.213199 1_555
Li7 O51 2.276924 1_555
Li8 O53 1.983745 1_555
Li8 O7 1.998028 1_544
Li8 O8 2.069267 1_545
Li8 O50 2.294144 1_555
Li9 O27 2.252349 1_555
Li9 O56 2.283597 1_655
Li9 O19 2.360259 1_655
Li9 O35 2.390508 1_665
Li9 O0 2.404758 1_555
Li9 O28 2.507937 1_665
O0 P13 1.490088 1_565
O1 P1 1.559142 1_555
O1 V4 1.837437 1_565
O2 P8 1.476694 1_555
O3 P0 1.569062 1_555
O3 V2 1.851267 1_555
O4 P0 1.559312 1_555
O4 V5 1.843102 1_555
O5 P3 1.561352 1_555
O5 V4 1.967232 1_565
O6 P2 1.521098 1_555
O6 V4 1.950311 1_565
O7 P15 1.505054 1_565
O8 P5 1.557801 1_555
O8 V5 1.970656 1_555
O9 P4 1.606997 1_555
O9 V2 1.903729 1_555
O10 P1 1.532504 1_555
O10 V3 1.929966 1_555
O11 P4 1.566954 1_555
O11 V5 1.983929 1_555
O12 P3 1.487865 1_555
O13 P4 1.490511 1_555
O14 P3 1.593661 1_555
O14 V0 1.906039 1_555
O15 P7 1.566486 1_555
O15 V2 1.841132 1_555
O16 P3 1.578304 1_555
O16 V3 1.917355 1_555
O17 P2 1.569126 1_555
O17 V0 1.839219 1_555
O18 P5 1.609221 1_655
O18 P6 1.619817 1_555
O19 P6 1.491880 1_455
O20 P5 1.475653 1_555
O21 P5 1.557567 1_555
O21 V1 1.841964 1_555
O22 P4 1.560527 1_555
O22 V1 1.993313 1_555
O23 P8 1.567218 1_555
O23 V0 1.989802 1_655
O24 P9 1.578122 1_555
O24 V0 1.838635 1_555
O25 P9 1.514693 1_555
O25 V3 1.935984 1_555
O26 P1 1.606215 1_555
O26 P8 1.621497 1_555
O27 P1 1.493456 1_555
O28 P14 1.487623 1_555
O29 P6 1.570999 1_555
O29 V2 1.953650 1_555
O30 P6 1.542731 1_555
O30 V1 2.055466 1_655
O31 P7 1.524787 1_555
O31 V1 1.944809 1_555
O32 P11 1.598461 1_555
O32 V0 1.854716 1_655
O33 P10 1.567443 1_555
O33 V0 1.976091 1_655
O34 P10 1.478504 1_455
O35 P9 1.491975 1_555
O36 P9 1.604562 1_655
O36 P10 1.619761 1_555
O37 P13 1.560129 1_555
O37 V1 1.961893 1_655
O38 P12 1.609141 1_555
O38 V2 1.840214 1_555
O39 P8 1.551754 1_555
O39 V3 1.990175 1_555
O40 P12 1.544212 1_555
O40 V1 1.942770 1_655
O41 P12 1.493482 1_555
O42 P11 1.489499 1_555
O43 P11 1.536421 1_555
O43 V4 1.952123 1_555
O44 P14 1.553823 1_555
O44 V2 2.052295 1_555
O45 P11 1.572926 1_555
O45 V3 1.870560 1_555
O46 P10 1.550773 1_555
O46 V4 2.001387 1_555
O47 P0 1.597649 1_545
O47 P13 1.625845 1_555
O48 P0 1.470145 1_555
O49 P13 1.549373 1_555
O49 V5 2.028681 1_545
O50 P12 1.570567 1_555
O50 V5 1.979776 1_545
O51 P15 1.552303 1_555
O51 V4 1.974033 1_555
O52 P15 1.535819 1_555
O52 V3 2.061429 1_555
O53 P7 1.497579 1_555
O54 P7 1.606142 1_555
O54 P14 1.620529 1_555
O55 P14 1.565679 1_555
O55 V5 1.947637 1_545
O56 P2 1.493765 1_555
O57 P2 1.616135 1_545
O57 P15 1.617414 1_555
