# generated using pymatgen
data_ThU8O18
_symmetry_space_group_name_H-M   'P 1'
_cell_length_a   6.66987484
_cell_length_b   6.73245263
_cell_length_c   8.65421709
_cell_angle_alpha   82.54160744
_cell_angle_beta   75.18529999
_cell_angle_gamma   80.68400314
_symmetry_Int_Tables_number   1
_chemical_formula_structural   ThU8O18
_chemical_formula_sum   'Th1 U8 O18'
_cell_volume   369.14510307
_cell_formula_units_Z   1
loop_
 _symmetry_equiv_pos_site_id
 _symmetry_equiv_pos_as_xyz
  1  'x, y, z'
loop_
 _atom_site_type_symbol
 _atom_site_label
 _atom_site_symmetry_multiplicity
 _atom_site_fract_x
 _atom_site_fract_y
 _atom_site_fract_z
 _atom_site_occupancy
  Th  Th0  1  -0.00000000  -0.00000000  0.50000000  1
  U  U0  1  0.33312520  0.66827947  0.16530023  1
  U  U1  1  0.77469604  0.55799918  0.38734855  1
  U  U2  1  0.11185629  0.22559470  0.05243321  1
  U  U3  1  0.66687480  0.33172053  0.83469977  1
  U  U4  1  0.22530396  0.44200082  0.61265145  1
  U  U5  1  0.55519402  0.11431935  0.27522022  1
  U  U6  1  0.88814371  0.77440530  0.94756679  1
  U  U7  1  0.44480598  0.88568065  0.72477978  1
  O  O0  1  0.58793192  0.66373509  0.92596425  1
  O  O1  1  0.01902918  0.55731483  0.13624704  1
  O  O2  1  0.41206808  0.33626491  0.07403575  1
  O  O3  1  0.08119264  0.66516819  0.40732892  1
  O  O4  1  0.80393071  0.11796137  0.03156025  1
  O  O5  1  0.47612706  0.45658665  0.35264799  1
  O  O6  1  0.85119155  0.22735572  0.31234397  1
  O  O7  1  0.52387294  0.54341335  0.64735201  1
  O  O8  1  0.24750963  0.00868497  0.24283550  1
  O  O9  1  0.91880736  0.33483181  0.59267108  1
  O  O10  1  0.19606929  0.88203863  0.96843975  1
  O  O11  1  0.75249037  0.99131503  0.75716450  1
  O  O12  1  0.68619029  0.87948244  0.48013013  1
  O  O13  1  0.36232800  0.21128351  0.80212222  1
  O  O14  1  0.63767200  0.78871649  0.19787778  1
  O  O15  1  0.31380971  0.12051756  0.51986987  1
  O  O16  1  0.98097082  0.44268517  0.86375296  1
  O  O17  1  0.14880845  0.77264428  0.68765603  1
loop_
_geom_bond_atom_site_label_1
_geom_bond_atom_site_label_2
_geom_bond_distance
_geom_bond_site_symmetry_2
O0 U6 2.304394 1_555
O0 U0 2.319250 1_556
O0 U3 2.400442 1_555
O0 U7 2.426566 1_555
O1 U6 2.293655 1_454
O1 U1 2.359510 1_455
O1 U2 2.374924 1_555
O1 U0 2.415598 1_555
O2 U2 2.304394 1_555
O2 U3 2.319250 1_554
O2 U0 2.400442 1_555
O2 U5 2.426566 1_555
O3 U0 2.326236 1_555
O3 U1 2.328156 1_455
O3 Th0 2.422824 1_565
O3 U4 2.459975 1_555
O4 U5 2.326003 1_555
O4 U2 2.341255 1_655
O4 U3 2.354408 1_554
O4 U6 2.449653 1_544
O5 U0 2.306635 1_555
O5 U1 2.306803 1_555
O5 U5 2.421491 1_555
O5 U4 2.437678 1_555
O6 U5 2.335456 1_555
O6 U1 2.339865 1_555
O6 Th0 2.377512 1_655
O6 U2 2.466315 1_655
O7 U3 2.306635 1_555
O7 U4 2.306803 1_555
O7 U7 2.421491 1_555
O7 U1 2.437678 1_555
O8 U2 2.318695 1_555
O8 U5 2.369455 1_555
O8 Th0 2.408412 1_555
O8 U0 2.410000 1_545
O9 U3 2.326236 1_555
O9 U4 2.328156 1_655
O9 Th0 2.422824 1_655
O9 U1 2.459975 1_555
O10 U7 2.326003 1_555
O10 U6 2.341255 1_455
O10 U0 2.354408 1_556
O10 U2 2.449653 1_566
O11 U6 2.318695 1_555
O11 U7 2.369455 1_555
O11 Th0 2.408412 1_665
O11 U3 2.410000 1_565
O12 U7 2.309671 1_555
O12 U1 2.339409 1_555
O12 Th0 2.416395 1_665
O12 U5 2.454590 1_565
O13 U7 2.314771 1_545
O13 U4 2.362670 1_555
O13 U2 2.375760 1_556
O13 U3 2.397610 1_555
O14 U5 2.314771 1_565
O14 U1 2.362670 1_555
O14 U6 2.375760 1_554
O14 U0 2.397610 1_555
O15 U5 2.309671 1_555
O15 U4 2.339409 1_555
O15 Th0 2.416395 1_555
O15 U7 2.454590 1_545
O16 U2 2.293655 1_656
O16 U4 2.359510 1_655
O16 U6 2.374924 1_555
O16 U3 2.415598 1_555
O17 U7 2.335456 1_555
O17 U4 2.339865 1_555
O17 Th0 2.377512 1_565
O17 U6 2.466315 1_455
