# generated using pymatgen
data_Li5Fe8(BO3)8
_symmetry_space_group_name_H-M   'P 1'
_cell_length_a   5.28798800
_cell_length_b   9.03423714
_cell_length_c   11.35121449
_cell_angle_alpha   113.27587217
_cell_angle_beta   102.14573993
_cell_angle_gamma   89.84956589
_symmetry_Int_Tables_number   1
_chemical_formula_structural   Li5Fe8(BO3)8
_chemical_formula_sum   'Li5 Fe8 B8 O24'
_cell_volume   485.03424038
_cell_formula_units_Z   1
loop_
 _symmetry_equiv_pos_site_id
 _symmetry_equiv_pos_as_xyz
  1  'x, y, z'
loop_
 _atom_site_type_symbol
 _atom_site_label
 _atom_site_symmetry_multiplicity
 _atom_site_fract_x
 _atom_site_fract_y
 _atom_site_fract_z
 _atom_site_occupancy
  Li  Li0  1  0.83298100  0.17771400  0.34511600  1
  Li  Li1  1  0.63805200  0.29464200  0.58902500  1
  Li  Li2  1  0.38556400  0.04406000  0.09183000  1
  Li  Li3  1  0.89052000  0.54502600  0.09443100  1
  Li  Li4  1  0.57404500  0.90695000  0.83821500  1
  Fe  Fe0  1  0.60094500  0.58977600  0.87267600  1
  Fe  Fe1  1  0.90222600  0.88842800  0.11655600  1
  Fe  Fe2  1  0.15276100  0.48561000  0.62472600  1
  Fe  Fe3  1  0.33575300  0.00471900  0.36403100  1
  Fe  Fe4  1  0.65667900  0.97777600  0.62232300  1
  Fe  Fe5  1  0.84455000  0.51988700  0.36177100  1
  Fe  Fe6  1  0.08997600  0.10818200  0.87390700  1
  Fe  Fe7  1  0.39234300  0.40073600  0.12047300  1
  B  B0  1  0.36436200  0.35228900  0.37435200  1
  B  B1  1  0.10352800  0.77529800  0.87170400  1
  B  B2  1  0.84453500  0.85566100  0.36975600  1
  B  B3  1  0.60063300  0.26077600  0.87424300  1
  B  B4  1  0.14596300  0.14879900  0.62042800  1
  B  B5  1  0.39310800  0.72987900  0.11984500  1
  B  B6  1  0.65294300  0.63673000  0.61807200  1
  B  B7  1  0.90021400  0.23121400  0.13121000  1
  O  O0  1  0.86547200  0.78515100  0.90794500  1
  O  O1  1  0.53272300  0.52048900  0.64694600  1
  O  O2  1  0.76326700  0.11053900  0.14222400  1
  O  O3  1  0.49301700  0.22785000  0.38995200  1
  O  O4  1  0.11819700  0.38180300  0.40771100  1
  O  O5  1  0.19896400  0.62400200  0.81241500  1
  O  O6  1  0.73816600  0.39096200  0.87902100  1
  O  O7  1  0.94545500  0.96398400  0.32789500  1
  O  O8  1  0.30436800  0.88555300  0.15993800  1
  O  O9  1  0.38793700  0.12220400  0.58937300  1
  O  O10  1  0.01984900  0.27976900  0.60864300  1
  O  O11  1  0.62880000  0.70859200  0.07988700  1
  O  O12  1  0.38216500  0.27521400  0.92418900  1
  O  O13  1  0.63880500  0.89893300  0.43160400  1
  O  O14  1  0.68812100  0.10375000  0.82134900  1
  O  O15  1  0.02784600  0.04588000  0.65950500  1
  O  O16  1  0.24913800  0.60421400  0.11812600  1
  O  O17  1  0.80627000  0.38666900  0.16605300  1
  O  O18  1  0.86970000  0.59246900  0.56254400  1
  O  O19  1  0.56970800  0.78538900  0.64637800  1
  O  O20  1  0.94372800  0.71029100  0.35050400  1
  O  O21  1  0.25206800  0.91210100  0.89373500  1
  O  O22  1  0.47414400  0.45753700  0.33288400  1
  O  O23  1  0.13151200  0.20909300  0.09092000  1
loop_
_geom_bond_atom_site_label_1
_geom_bond_atom_site_label_2
_geom_bond_distance
_geom_bond_site_symmetry_2
Li0 O7 1.965927 1_545
Li0 O3 1.973459 1_555
Li0 O2 2.085098 1_555
Li0 O4 2.169660 1_655
Li1 O10 1.994189 1_655
Li1 O1 1.998369 1_555
Li1 O9 2.047942 1_555
Li1 O3 2.062563 1_555
Li2 O8 1.962270 1_545
Li2 O2 1.982701 1_555
Li2 O23 2.005899 1_555
Li2 O21 2.047853 1_544
Li3 O16 1.905651 1_655
Li3 O17 1.995280 1_555
Li3 O11 2.052348 1_555
Li3 O6 2.247754 1_554
Li4 O21 1.930325 1_555
Li4 O14 1.971002 1_565
Li4 O19 2.009372 1_555
Li4 O0 2.092443 1_555
Fe0 O6 1.957348 1_555
Fe0 O0 2.109801 1_555
Fe0 O11 2.136806 1_556
Fe0 O5 2.152636 1_555
Fe0 O1 2.330671 1_555
Fe1 O11 2.031754 1_555
Fe1 O2 2.066783 1_565
Fe1 O8 2.081930 1_655
Fe1 O0 2.139356 1_554
Fe1 O7 2.179238 1_555
Fe2 O10 1.915736 1_555
Fe2 O18 1.938306 1_455
Fe2 O5 1.959410 1_555
Fe2 O1 1.981715 1_555
Fe2 O4 2.228635 1_555
Fe3 O7 2.022815 1_445
Fe3 O13 2.030732 1_545
Fe3 O3 2.068515 1_555
Fe3 O8 2.102780 1_545
Fe3 O9 2.303135 1_555
Fe4 O19 1.933667 1_555
Fe4 O15 1.965073 1_665
Fe4 O13 1.974489 1_555
Fe4 O9 2.003551 1_565
Fe4 O14 2.058571 1_565
Fe5 O20 1.859347 1_555
Fe5 O22 1.962366 1_555
Fe5 O4 2.027115 1_655
Fe5 O17 2.030766 1_555
Fe5 O18 2.081692 1_555
Fe6 O12 1.987622 1_555
Fe6 O21 2.036984 1_545
Fe6 O14 2.078766 1_455
Fe6 O15 2.220284 1_555
Fe6 O23 2.223969 1_556
Fe7 O16 1.994066 1_555
Fe7 O12 2.050887 1_554
Fe7 O23 2.090768 1_555
Fe7 O17 2.156113 1_555
Fe7 O22 2.201908 1_555
B0 O3 1.364065 1_555
B0 O22 1.390783 1_555
B0 O4 1.426447 1_555
B1 O21 1.373012 1_555
B1 O0 1.396500 1_455
B1 O5 1.410026 1_555
B2 O20 1.365819 1_555
B2 O13 1.389774 1_555
B2 O7 1.394716 1_555
B3 O6 1.361114 1_555
B3 O12 1.374567 1_555
B3 O14 1.423821 1_555
B4 O15 1.377311 1_555
B4 O9 1.393021 1_555
B4 O10 1.395006 1_555
B5 O16 1.360012 1_555
B5 O11 1.401338 1_555
B5 O8 1.409192 1_555
B6 O19 1.347604 1_555
B6 O18 1.404775 1_555
B6 O1 1.406265 1_555
B7 O2 1.370611 1_555
B7 O23 1.380921 1_655
B7 O17 1.419727 1_555
