# generated using pymatgen
data_LiV2O5F
_symmetry_space_group_name_H-M   'P 1'
_cell_length_a   4.98633000
_cell_length_b   5.63665900
_cell_length_c   14.06815000
_cell_angle_alpha   90.00000000
_cell_angle_beta   90.00000000
_cell_angle_gamma   90.00000000
_symmetry_Int_Tables_number   1
_chemical_formula_structural   LiV2O5F
_chemical_formula_sum   'Li4 V8 O20 F4'
_cell_volume   395.40282658
_cell_formula_units_Z   4
loop_
 _symmetry_equiv_pos_site_id
 _symmetry_equiv_pos_as_xyz
  1  'x, y, z'
loop_
 _atom_site_type_symbol
 _atom_site_label
 _atom_site_symmetry_multiplicity
 _atom_site_fract_x
 _atom_site_fract_y
 _atom_site_fract_z
 _atom_site_occupancy
  Li  Li0  1  0.50000000  0.95019400  0.00000000  1
  Li  Li1  1  0.00000000  0.57074800  0.00000000  1
  Li  Li2  1  0.00000000  0.04980600  0.50000000  1
  Li  Li3  1  0.50000000  0.42925200  0.50000000  1
  V  V0  1  0.47967400  0.39234600  0.82769800  1
  V  V1  1  0.94528700  0.06511700  0.84285400  1
  V  V2  1  0.44528700  0.93488300  0.65714600  1
  V  V3  1  0.97967400  0.60765400  0.67230200  1
  V  V4  1  0.55471300  0.93488300  0.34285400  1
  V  V5  1  0.02032600  0.60765400  0.32769800  1
  V  V6  1  0.05471300  0.06511700  0.15714600  1
  V  V7  1  0.52032600  0.39234600  0.17230200  1
  O  O0  1  0.81281500  0.86647100  0.91572200  1
  O  O1  1  0.75597100  0.34235800  0.90022900  1
  O  O2  1  0.24729300  0.13792600  0.89631600  1
  O  O3  1  0.09465400  0.39357000  0.75025900  1
  O  O4  1  0.58807500  0.12078000  0.75728800  1
  O  O5  1  0.08807500  0.87922000  0.74271200  1
  O  O6  1  0.59465400  0.60643000  0.74974100  1
  O  O7  1  0.74729300  0.86207400  0.60368400  1
  O  O8  1  0.25597100  0.65764200  0.59977100  1
  O  O9  1  0.31281500  0.13352900  0.58427800  1
  O  O10  1  0.68718500  0.13352900  0.41572200  1
  O  O11  1  0.25270700  0.86207400  0.39631600  1
  O  O12  1  0.74402900  0.65764200  0.40022900  1
  O  O13  1  0.91192500  0.87922000  0.25728800  1
  O  O14  1  0.40534600  0.60643000  0.25025900  1
  O  O15  1  0.41192500  0.12078000  0.24271200  1
  O  O16  1  0.90534600  0.39357000  0.24974100  1
  O  O17  1  0.75270700  0.13792600  0.10368400  1
  O  O18  1  0.24402900  0.34235800  0.09977100  1
  O  O19  1  0.18718500  0.86647100  0.08427800  1
  F  F0  1  0.30176800  0.59445800  0.91153400  1
  F  F1  1  0.80176800  0.40554200  0.58846600  1
  F  F2  1  0.19823200  0.40554200  0.41153400  1
  F  F3  1  0.69823200  0.59445800  0.08846600  1
loop_
_geom_bond_atom_site_label_1
_geom_bond_atom_site_label_2
_geom_bond_distance
_geom_bond_site_symmetry_2
Li0 O0 2.015294 1_554
Li0 O19 2.015294 1_555
Li0 O17 2.198906 1_565
Li0 O2 2.198906 1_564
Li1 O0 2.248427 1_454
Li1 O19 2.248427 1_555
Li1 O18 2.260085 1_555
Li1 O1 2.260085 1_454
Li2 O9 2.015294 1_555
Li2 O10 2.015294 1_455
Li2 O7 2.198906 1_445
Li2 O11 2.198906 1_545
Li3 O9 2.248427 1_555
Li3 O10 2.248427 1_555
Li3 O12 2.260085 1_555
Li3 O8 2.260085 1_555
O0 V1 1.655572 1_565
O1 V0 1.737423 1_555
O1 V1 1.996171 1_555
O2 V1 1.732582 1_455
O2 V0 2.081128 1_555
O3 V3 1.728482 1_455
O3 V0 2.207411 1_555
O3 V1 2.383105 1_455
O4 V2 1.894636 1_545
O4 V0 1.901697 1_555
O4 V1 2.172570 1_555
O5 V1 1.894636 1_465
O5 V3 1.901697 1_455
O5 V2 2.172570 1_555
O6 V0 1.728482 1_555
O6 V3 2.207411 1_555
O6 V2 2.383105 1_555
O7 V2 1.732582 1_555
O7 V3 2.081128 1_555
O8 V3 1.737423 1_455
O8 V2 1.996171 1_555
O9 V2 1.655572 1_545
O10 V4 1.655572 1_545
O11 V4 1.732582 1_555
O11 V5 2.081128 1_555
O12 V5 1.737423 1_655
O12 V4 1.996171 1_555
O13 V6 1.894636 1_665
O13 V5 1.901697 1_655
O13 V4 2.172570 1_555
O14 V7 1.728482 1_555
O14 V5 2.207411 1_555
O14 V4 2.383105 1_555
O15 V4 1.894636 1_545
O15 V7 1.901697 1_555
O15 V6 2.172570 1_555
O16 V5 1.728482 1_655
O16 V7 2.207411 1_555
O16 V6 2.383105 1_655
O17 V6 1.732582 1_655
O17 V7 2.081128 1_555
O18 V7 1.737423 1_555
O18 V6 1.996171 1_555
O19 V6 1.655572 1_565
F0 V0 1.864357 1_555
F0 Li1 1.957279 1_556
F1 V3 1.864357 1_555
F1 Li3 1.957279 1_555
F2 V5 1.864357 1_555
F2 Li3 1.957279 1_555
F3 V7 1.864357 1_555
F3 Li1 1.957279 1_655
