# generated using pymatgen
data_Li5Fe8(BO3)8
_symmetry_space_group_name_H-M   'P 1'
_cell_length_a   5.26450000
_cell_length_b   9.03936042
_cell_length_c   11.44185419
_cell_angle_alpha   112.97766703
_cell_angle_beta   102.49538123
_cell_angle_gamma   89.62036681
_symmetry_Int_Tables_number   1
_chemical_formula_structural   Li5Fe8(BO3)8
_chemical_formula_sum   'Li5 Fe8 B8 O24'
_cell_volume   487.57785774
_cell_formula_units_Z   1
loop_
 _symmetry_equiv_pos_site_id
 _symmetry_equiv_pos_as_xyz
  1  'x, y, z'
loop_
 _atom_site_type_symbol
 _atom_site_label
 _atom_site_symmetry_multiplicity
 _atom_site_fract_x
 _atom_site_fract_y
 _atom_site_fract_z
 _atom_site_occupancy
  Li  Li0  1  0.27211500  0.26670300  0.87492000  1
  Li  Li1  1  0.48688300  0.50992500  0.66531400  1
  Li  Li2  1  0.25980900  0.23851300  0.15315100  1
  Li  Li3  1  0.52585600  0.54238900  0.40831500  1
  Li  Li4  1  0.77182800  0.74987200  0.16846000  1
  Fe  Fe0  1  0.01389500  0.34788300  0.37982800  1
  Fe  Fe1  1  0.26661100  0.93107000  0.88232000  1
  Fe  Fe2  1  0.49511900  0.15165400  0.63114300  1
  Fe  Fe3  1  0.25026700  0.56350300  0.12925800  1
  Fe  Fe4  1  0.77385200  0.45316000  0.88760800  1
  Fe  Fe5  1  0.51677500  0.85745000  0.38137200  1
  Fe  Fe6  1  0.96653800  0.66146100  0.63538800  1
  Fe  Fe7  1  0.74594500  0.05629600  0.12455000  1
  B  B0  1  0.01479600  0.67456500  0.37017800  1
  B  B1  1  0.26512700  0.60104500  0.87435400  1
  B  B2  1  0.46367500  0.81277900  0.62841100  1
  B  B3  1  0.23509000  0.89304200  0.12670800  1
  B  B4  1  0.52260000  0.19624900  0.38357900  1
  B  B5  1  0.76816600  0.10491400  0.87695500  1
  B  B6  1  0.99590600  0.31830500  0.63223700  1
  B  B7  1  0.73935300  0.39658300  0.13010400  1
  O  O0  1  0.03406700  0.10095500  0.88609700  1
  O  O1  1  0.11070700  0.71739400  0.84792400  1
  O  O2  1  0.16499700  0.49585900  0.91916300  1
  O  O3  1  0.15762600  0.21282300  0.66177800  1
  O  O4  1  0.08493100  0.42139400  0.58035800  1
  O  O5  1  0.25366300  0.83994200  0.68776700  1
  O  O6  1  0.25930100  0.65546400  0.34136800  1
  O  O7  1  0.50748900  0.58951000  0.85008500  1
  O  O8  1  0.62789000  0.21020600  0.82964700  1
  O  O9  1  0.44120900  0.09840400  0.43731000  1
  O  O10  1  0.37046900  0.31501400  0.36260200  1
  O  O11  1  0.63539000  0.01295900  0.92125700  1
  O  O12  1  0.33965800  0.00412900  0.08509900  1
  O  O13  1  0.58031400  0.66885700  0.60393400  1
  O  O14  1  0.55045000  0.92586400  0.58884200  1
  O  O15  1  0.40085000  0.79290300  0.16581600  1
  O  O16  1  0.47480300  0.37874200  0.11891100  1
  O  O17  1  0.74667800  0.33523700  0.65800300  1
  O  O18  1  0.75515900  0.17727500  0.34258900  1
  O  O19  1  0.91907200  0.56707100  0.41850800  1
  O  O20  1  0.86179600  0.78773100  0.35315000  1
  O  O21  1  0.84525300  0.50844300  0.09467000  1
  O  O22  1  0.90581400  0.29730100  0.17690500  1
  O  O23  1  0.97870300  0.88935500  0.13002300  1
loop_
_geom_bond_atom_site_label_1
_geom_bond_atom_site_label_2
_geom_bond_distance
_geom_bond_site_symmetry_2
Li0 O0 2.018780 1_555
Li0 O2 2.038241 1_555
Li0 O8 2.058593 1_555
Li0 O3 2.233480 1_555
Li0 O16 2.544756 1_556
Li1 O7 1.926961 1_555
Li1 O13 1.935377 1_555
Li1 O17 2.070939 1_555
Li1 O4 2.141987 1_555
Li2 O16 1.907853 1_555
Li2 O22 1.980551 1_455
Li2 O12 2.028212 1_555
Li2 O10 2.160593 1_555
Li3 O6 1.930757 1_555
Li3 O13 2.031689 1_555
Li3 O10 2.040816 1_555
Li3 O19 2.056689 1_555
Li4 O23 1.904635 1_555
Li4 O20 1.952298 1_555
Li4 O15 1.984951 1_555
Li4 O21 2.077604 1_555
Fe0 O18 1.918050 1_455
Fe0 O10 1.938539 1_555
Fe0 O19 1.941281 1_455
Fe0 O4 2.070624 1_555
Fe0 O22 2.127576 1_455
Fe1 O0 1.950640 1_565
Fe1 O1 1.961364 1_555
Fe1 O11 1.975572 1_565
Fe1 O5 2.035172 1_555
Fe1 O12 2.094797 1_566
Fe2 O3 1.921074 1_555
Fe2 O14 1.940786 1_545
Fe2 O17 2.014194 1_555
Fe2 O9 2.031474 1_555
Fe2 O8 2.075254 1_555
Fe3 O16 2.020058 1_555
Fe3 O15 2.074715 1_555
Fe3 O21 2.108491 1_455
Fe3 O2 2.177868 1_554
Fe3 O6 2.226824 1_555
Fe4 O7 1.949231 1_555
Fe4 O2 2.024743 1_655
Fe4 O8 2.125578 1_555
Fe4 O21 2.167206 1_556
Fe4 O17 2.389859 1_555
Fe5 O20 1.969865 1_555
Fe5 O9 2.078990 1_565
Fe5 O6 2.119502 1_555
Fe5 O14 2.173059 1_555
Fe5 O15 2.241805 1_555
Fe6 O13 1.992119 1_555
Fe6 O5 2.032815 1_655
Fe6 O4 2.139900 1_655
Fe6 O1 2.234241 1_655
Fe6 O19 2.242713 1_555
Fe7 O23 1.949022 1_545
Fe7 O12 2.104851 1_555
Fe7 O22 2.144861 1_555
Fe7 O11 2.146740 1_554
Fe7 O18 2.289199 1_555
B0 O20 1.345340 1_455
B0 O6 1.389812 1_555
B0 O19 1.431953 1_455
B1 O7 1.358265 1_555
B1 O2 1.396053 1_555
B1 O1 1.410337 1_555
B2 O14 1.384055 1_555
B2 O13 1.388293 1_555
B2 O5 1.391049 1_555
B3 O23 1.359452 1_455
B3 O15 1.384885 1_555
B3 O12 1.425486 1_565
B4 O9 1.373811 1_555
B4 O18 1.389673 1_555
B4 O10 1.399346 1_555
B5 O0 1.382266 1_655
B5 O11 1.387963 1_555
B5 O8 1.401487 1_555
B6 O3 1.365492 1_655
B6 O17 1.400476 1_555
B6 O4 1.413648 1_655
B7 O16 1.375412 1_555
B7 O21 1.386703 1_555
B7 O22 1.421914 1_555
