# generated using pymatgen
data_LiMnBO3
_symmetry_space_group_name_H-M   'P 1'
_cell_length_a   5.73220316
_cell_length_b   7.68422800
_cell_length_c   6.57796043
_cell_angle_alpha   90.00031683
_cell_angle_beta   75.08977083
_cell_angle_gamma   89.99971793
_symmetry_Int_Tables_number   1
_chemical_formula_structural   LiMnBO3
_chemical_formula_sum   'Li4 Mn4 B4 O12'
_cell_volume   279.98747674
_cell_formula_units_Z   4
loop_
 _symmetry_equiv_pos_site_id
 _symmetry_equiv_pos_as_xyz
  1  'x, y, z'
loop_
 _atom_site_type_symbol
 _atom_site_label
 _atom_site_symmetry_multiplicity
 _atom_site_fract_x
 _atom_site_fract_y
 _atom_site_fract_z
 _atom_site_occupancy
  Li  Li0  1  0.09379300  0.28222400  0.75899900  1
  Li  Li1  1  0.40621900  0.78222700  0.74100100  1
  Li  Li2  1  0.59379300  0.21778300  0.25901300  1
  Li  Li3  1  0.90622600  0.71777200  0.24098400  1
  Mn  Mn0  1  0.27608100  0.51756200  0.40119900  1
  Mn  Mn1  1  0.77606200  0.98243500  0.90117900  1
  Mn  Mn2  1  0.22395100  0.01757600  0.09886000  1
  Mn  Mn3  1  0.72394800  0.48243600  0.59882800  1
  B  B0  1  0.06489100  0.33009900  0.17622100  1
  B  B1  1  0.43510000  0.83007900  0.32377000  1
  B  B2  1  0.56490300  0.16990000  0.67621400  1
  B  B3  1  0.93510100  0.66991800  0.82376200  1
  O  O0  1  0.95660600  0.20732300  0.07365500  1
  O  O1  1  0.54338400  0.70730500  0.42632200  1
  O  O2  1  0.45660100  0.29266800  0.57365300  1
  O  O3  1  0.04338400  0.79269300  0.92631400  1
  O  O4  1  0.06003100  0.53019400  0.71482500  1
  O  O5  1  0.56003400  0.96980200  0.21484500  1
  O  O6  1  0.43996100  0.03019800  0.78520200  1
  O  O7  1  0.93994100  0.46980200  0.28520400  1
  O  O8  1  0.30424900  0.30688400  0.17959300  1
  O  O9  1  0.19574900  0.80689400  0.32037800  1
  O  O10  1  0.80425300  0.19312200  0.67959200  1
  O  O11  1  0.69573900  0.69310200  0.82038600  1
loop_
_geom_bond_atom_site_label_1
_geom_bond_atom_site_label_2
_geom_bond_distance
_geom_bond_site_symmetry_2
Li0 O4 1.944634 1_555
Li0 O10 1.985540 1_455
Li0 O0 2.096694 1_456
Li0 O2 2.124423 1_555
Li1 O6 1.944655 1_565
Li1 O11 1.985424 1_555
Li1 O1 2.096849 1_555
Li1 O3 2.124487 1_555
Li2 O5 1.944706 1_545
Li2 O8 1.985595 1_555
Li2 O2 2.096561 1_555
Li2 O0 2.124476 1_555
Li3 O7 1.944649 1_555
Li3 O9 1.985464 1_655
Li3 O3 2.096798 1_654
Li3 O1 2.124575 1_555
Mn0 O4 2.117643 1_555
Mn0 O1 2.152029 1_555
Mn0 O8 2.156544 1_555
Mn0 O7 2.277300 1_455
Mn0 O9 2.358749 1_555
Mn0 O2 2.438883 1_555
Mn1 O5 2.117820 1_556
Mn1 O3 2.152115 1_655
Mn1 O10 2.156514 1_565
Mn1 O6 2.277028 1_565
Mn1 O11 2.358691 1_555
Mn1 O0 2.439007 1_566
Mn2 O6 2.117738 1_554
Mn2 O0 2.152357 1_455
Mn2 O9 2.156181 1_545
Mn2 O5 2.276975 1_545
Mn2 O8 2.358365 1_555
Mn2 O3 2.439316 1_544
Mn3 O7 2.117524 1_555
Mn3 O2 2.152432 1_555
Mn3 O11 2.156244 1_555
Mn3 O4 2.277000 1_655
Mn3 O10 2.358476 1_555
Mn3 O1 2.439081 1_555
B0 O7 1.383871 1_455
B0 O8 1.389421 1_555
B0 O0 1.395010 1_455
B1 O5 1.383819 1_555
B1 O9 1.389389 1_555
B1 O1 1.394942 1_555
B2 O6 1.383871 1_555
B2 O10 1.389395 1_555
B2 O2 1.395005 1_555
B3 O4 1.383835 1_655
B3 O11 1.389420 1_555
B3 O3 1.394943 1_655
