# generated using pymatgen
data_Li3Nb4VO12
_symmetry_space_group_name_H-M   'P 1'
_cell_length_a   5.22968500
_cell_length_b   5.64723306
_cell_length_c   7.66800926
_cell_angle_alpha   95.61977768
_cell_angle_beta   90.02213222
_cell_angle_gamma   90.21311333
_symmetry_Int_Tables_number   1
_chemical_formula_structural   Li3Nb4VO12
_chemical_formula_sum   'Li3 Nb4 V1 O12'
_cell_volume   225.37116117
_cell_formula_units_Z   1
loop_
 _symmetry_equiv_pos_site_id
 _symmetry_equiv_pos_as_xyz
  1  'x, y, z'
loop_
 _atom_site_type_symbol
 _atom_site_label
 _atom_site_symmetry_multiplicity
 _atom_site_fract_x
 _atom_site_fract_y
 _atom_site_fract_z
 _atom_site_occupancy
  Li  Li0  1  0.50322900  0.93261100  0.78447700  1
  Li  Li1  1  0.99945400  0.43504000  0.78545800  1
  Li  Li2  1  0.50020600  0.93562500  0.27943900  1
  Nb  Nb0  1  0.00766200  0.99806000  0.99568700  1
  Nb  Nb1  1  0.49671500  0.51438200  0.49575500  1
  Nb  Nb2  1  0.99709200  0.00630700  0.50313900  1
  Nb  Nb3  1  0.50480300  0.49817900  0.98927600  1
  V  V0  1  0.99879200  0.40070900  0.30039600  1
  O  O0  1  0.30624000  0.21566800  0.41352800  1
  O  O1  1  0.12783800  0.03726400  0.74034900  1
  O  O2  1  0.32015500  0.84816400  0.04460100  1
  O  O3  1  0.18584200  0.71379600  0.41324200  1
  O  O4  1  0.80351300  0.72214300  0.91960400  1
  O  O5  1  0.37410900  0.53689000  0.73810700  1
  O  O6  1  0.63542700  0.53951600  0.23494600  1
  O  O7  1  0.17745600  0.35303500  0.05091200  1
  O  O8  1  0.82248900  0.34438500  0.54581100  1
  O  O9  1  0.69606400  0.22177900  0.91451900  1
  O  O10  1  0.86566000  0.04474100  0.23699300  1
  O  O11  1  0.67725200  0.84250700  0.54335600  1
loop_
_geom_bond_atom_site_label_1
_geom_bond_atom_site_label_2
_geom_bond_distance
_geom_bond_site_symmetry_2
Li0 O11 2.079941 1_555
Li0 O9 2.084725 1_565
Li0 O1 2.089288 1_565
Li0 O4 2.281721 1_555
Li0 O2 2.303697 1_556
Li0 O5 2.325807 1_555
Li1 O8 2.075170 1_555
Li1 O5 2.081991 1_655
Li1 O4 2.103185 1_555
Li1 O9 2.273246 1_555
Li1 O7 2.326084 1_656
Li1 O1 2.340015 1_655
Li2 O10 2.041902 1_565
Li2 O2 2.047994 1_555
Li2 O0 2.069171 1_565
Li2 O11 2.332347 1_555
Li2 O6 2.341532 1_555
Li2 O3 2.358499 1_555
Nb0 O2 1.897361 1_556
Nb0 O4 1.928003 1_455
Nb0 O10 1.987893 1_466
Nb0 O1 2.088618 1_565
Nb0 O7 2.192385 1_566
Nb0 O9 2.192611 1_465
Nb1 O5 1.958581 1_555
Nb1 O0 2.003540 1_555
Nb1 O8 2.013792 1_555
Nb1 O11 2.076658 1_555
Nb1 O3 2.112819 1_555
Nb1 O6 2.145198 1_555
Nb2 O1 1.934545 1_655
Nb2 O11 1.947643 1_545
Nb2 O3 1.991956 1_645
Nb2 O8 2.115837 1_555
Nb2 O0 2.151659 1_655
Nb2 O10 2.184317 1_555
Nb3 O9 1.897967 1_555
Nb3 O7 1.972804 1_556
Nb3 O6 1.995381 1_556
Nb3 O5 2.075295 1_555
Nb3 O4 2.108010 1_555
Nb3 O2 2.206602 1_556
O0 V0 2.149111 1_455
O3 V0 2.125695 1_455
O6 V0 2.136542 1_555
O7 V0 2.123118 1_455
O8 V0 2.146858 1_555
O10 V0 2.135432 1_555
