# generated using pymatgen
data_Ca3(PO4)2
_symmetry_space_group_name_H-M   'P 1'
_cell_length_a   5.27190972
_cell_length_b   5.27190972
_cell_length_c   7.23381342
_cell_angle_alpha   89.71337223
_cell_angle_beta   89.71337223
_cell_angle_gamma   115.55942578
_symmetry_Int_Tables_number   1
_chemical_formula_structural   Ca3(PO4)2
_chemical_formula_sum   'Ca3 P2 O8'
_cell_volume   181.36656506
_cell_formula_units_Z   1
loop_
 _symmetry_equiv_pos_site_id
 _symmetry_equiv_pos_as_xyz
  1  'x, y, z'
loop_
 _atom_site_type_symbol
 _atom_site_label
 _atom_site_symmetry_multiplicity
 _atom_site_fract_x
 _atom_site_fract_y
 _atom_site_fract_z
 _atom_site_occupancy
  Ca  Ca0  1  0.31171900  0.68828100  0.00000000  1
  Ca  Ca1  1  0.98664100  0.00297800  0.27298100  1
  Ca  Ca2  1  0.99702200  0.01335900  0.72701900  1
  P  P0  1  0.34851700  0.65148300  0.50000000  1
  P  P1  1  0.65267900  0.34732100  0.00000000  1
  O  O0  1  0.67450500  0.77793600  0.50594600  1
  O  O1  1  0.22206400  0.32549500  0.49405400  1
  O  O2  1  0.26408600  0.75953400  0.31942500  1
  O  O3  1  0.24046600  0.73591400  0.68057500  1
  O  O4  1  0.73112400  0.22981800  0.82850000  1
  O  O5  1  0.77018200  0.26887600  0.17149900  1
  O  O6  1  0.76971100  0.68066300  0.99155700  1
  O  O7  1  0.31933700  0.23028900  0.00844300  1
loop_
_geom_bond_atom_site_label_1
_geom_bond_atom_site_label_2
_geom_bond_distance
_geom_bond_site_symmetry_2
Ca0 O3 2.372255 1_554
Ca0 O2 2.372255 1_555
Ca0 O7 2.432558 1_555
Ca0 O6 2.432558 1_554
Ca0 O7 2.841289 1_565
Ca0 O6 2.841289 1_454
Ca1 O5 2.276965 1_555
Ca1 O1 2.283621 1_655
Ca1 O0 2.285391 1_545
Ca1 O2 2.349436 1_645
Ca1 O7 2.510800 1_655
Ca1 O6 2.592421 1_544
Ca2 O4 2.276963 1_555
Ca2 O0 2.283621 1_545
Ca2 O1 2.285391 1_655
Ca2 O3 2.349436 1_645
Ca2 O6 2.510800 1_545
Ca2 O7 2.592421 1_656
O0 P0 1.553127 1_555
O1 P0 1.553127 1_555
O2 P0 1.563985 1_555
O3 P0 1.563985 1_555
O4 P1 1.522322 1_556
O5 P1 1.522316 1_555
O6 P1 1.592365 1_556
O7 P1 1.592365 1_555
