# generated using pymatgen
data_Na2VO3
_symmetry_space_group_name_H-M   'P 1'
_cell_length_a   5.40418100
_cell_length_b   9.37202200
_cell_length_c   6.09416900
_cell_angle_alpha   89.99998448
_cell_angle_beta   89.99987058
_cell_angle_gamma   90.00002283
_symmetry_Int_Tables_number   1
_chemical_formula_structural   Na2VO3
_chemical_formula_sum   'Na8 V4 O12'
_cell_volume   308.65810058
_cell_formula_units_Z   4
loop_
 _symmetry_equiv_pos_site_id
 _symmetry_equiv_pos_as_xyz
  1  'x, y, z'
loop_
 _atom_site_type_symbol
 _atom_site_label
 _atom_site_symmetry_multiplicity
 _atom_site_fract_x
 _atom_site_fract_y
 _atom_site_fract_z
 _atom_site_occupancy
  Na  Na0  1  0.23486100  0.42076500  0.60446800  1
  Na  Na1  1  0.23486100  0.07923500  0.60446800  1
  Na  Na2  1  0.26517000  0.57923200  0.10444800  1
  Na  Na3  1  0.26517000  0.92076700  0.10444700  1
  Na  Na4  1  0.73486000  0.07923400  0.89553300  1
  Na  Na5  1  0.73486200  0.42076600  0.89553200  1
  Na  Na6  1  0.76516900  0.57923300  0.39555300  1
  Na  Na7  1  0.76517200  0.92076800  0.39555300  1
  V  V0  1  0.27802900  0.24999900  0.14701700  1
  V  V1  1  0.77802800  0.25000100  0.35298300  1
  V  V2  1  0.22190700  0.74999900  0.64699800  1
  V  V3  1  0.72190700  0.75000100  0.85299900  1
  O  O0  1  0.15227100  0.75000000  0.37021800  1
  O  O1  1  0.34774200  0.25000000  0.87020200  1
  O  O2  1  0.65227100  0.75000000  0.12978300  1
  O  O3  1  0.84774100  0.25000000  0.62979800  1
  O  O4  1  0.01121000  0.11443300  0.22194500  1
  O  O5  1  0.01121100  0.38556700  0.22194400  1
  O  O6  1  0.48878400  0.88555100  0.72190900  1
  O  O7  1  0.48878500  0.61444900  0.72190900  1
  O  O8  1  0.51121100  0.11443200  0.27805600  1
  O  O9  1  0.51121000  0.38556800  0.27805600  1
  O  O10  1  0.98878400  0.61444900  0.77809200  1
  O  O11  1  0.98878500  0.88555100  0.77809200  1
loop_
_geom_bond_atom_site_label_1
_geom_bond_atom_site_label_2
_geom_bond_distance
_geom_bond_site_symmetry_2
Na0 O1 2.357119 1_555
Na0 O7 2.385435 1_555
Na0 O10 2.486571 1_455
Na0 O9 2.509207 1_555
Na0 O3 2.638539 1_455
Na0 O5 2.646505 1_555
Na1 O1 2.357119 1_555
Na1 O6 2.385433 1_545
Na1 O11 2.486567 1_445
Na1 O8 2.509210 1_555
Na1 O3 2.638540 1_455
Na1 O4 2.646502 1_555
Na2 O0 2.357313 1_555
Na2 O5 2.385507 1_555
Na2 O9 2.486288 1_555
Na2 O10 2.509085 1_454
Na2 O2 2.638477 1_555
Na2 O7 2.646516 1_554
Na3 O0 2.357309 1_555
Na3 O4 2.385522 1_565
Na3 O8 2.486300 1_565
Na3 O11 2.509076 1_454
Na3 O2 2.638473 1_555
Na3 O6 2.646508 1_554
Na4 O3 2.357127 1_555
Na4 O11 2.385430 1_545
Na4 O6 2.486563 1_545
Na4 O4 2.509218 1_656
Na4 O1 2.638538 1_555
Na4 O8 2.646492 1_556
Na5 O3 2.357121 1_555
Na5 O10 2.385418 1_555
Na5 O7 2.486564 1_555
Na5 O5 2.509214 1_656
Na5 O1 2.638546 1_555
Na5 O9 2.646505 1_556
Na6 O2 2.357306 1_555
Na6 O9 2.385511 1_555
Na6 O5 2.486308 1_655
Na6 O7 2.509072 1_555
Na6 O0 2.638475 1_655
Na6 O10 2.646520 1_555
Na7 O2 2.357317 1_555
Na7 O8 2.385510 1_565
Na7 O4 2.486286 1_665
Na7 O6 2.509086 1_555
Na7 O0 2.638469 1_655
Na7 O11 2.646516 1_555
O0 V2 1.728216 1_555
O1 V0 1.728513 1_556
O2 V3 1.728238 1_554
O3 V1 1.728515 1_555
O4 V1 1.959590 1_455
O4 V0 1.975329 1_555
O5 V1 1.959583 1_455
O5 V0 1.975337 1_555
O6 V3 1.959407 1_555
O6 V2 1.975452 1_555
O7 V3 1.959415 1_555
O7 V2 1.975444 1_555
O8 V0 1.959588 1_555
O8 V1 1.975340 1_555
O9 V0 1.959597 1_555
O9 V1 1.975332 1_555
O10 V2 1.959414 1_655
O10 V3 1.975445 1_555
O11 V2 1.959423 1_655
O11 V3 1.975436 1_555
