# generated using pymatgen
data_Li5VF8
_symmetry_space_group_name_H-M   'P 1'
_cell_length_a   7.74482800
_cell_length_b   7.62155400
_cell_length_c   10.54361320
_cell_angle_alpha   74.49171050
_cell_angle_beta   90.00000000
_cell_angle_gamma   90.00000000
_symmetry_Int_Tables_number   1
_chemical_formula_structural   Li5VF8
_chemical_formula_sum   'Li20 V4 F32'
_cell_volume   599.70526199
_cell_formula_units_Z   4
loop_
 _symmetry_equiv_pos_site_id
 _symmetry_equiv_pos_as_xyz
  1  'x, y, z'
loop_
 _atom_site_type_symbol
 _atom_site_label
 _atom_site_symmetry_multiplicity
 _atom_site_fract_x
 _atom_site_fract_y
 _atom_site_fract_z
 _atom_site_occupancy
  Li  Li0  1  0.18293000  0.97564700  0.54465100  1
  Li  Li1  1  0.77819500  0.86796900  0.70471300  1
  Li  Li2  1  0.42653700  0.78785700  0.80302600  1
  Li  Li3  1  0.31707000  0.97564700  0.04465100  1
  Li  Li4  1  0.72180500  0.86796900  0.20471300  1
  Li  Li5  1  0.07346300  0.78785700  0.30302600  1
  Li  Li6  1  0.16455200  0.55326900  0.74670200  1
  Li  Li7  1  0.34559300  0.43872300  0.97819100  1
  Li  Li8  1  0.84559300  0.56127700  0.52180900  1
  Li  Li9  1  0.66455200  0.44673100  0.75329800  1
  Li  Li10  1  0.33544800  0.55326900  0.24670200  1
  Li  Li11  1  0.15440700  0.43872300  0.47819100  1
  Li  Li12  1  0.65440700  0.56127700  0.02180900  1
  Li  Li13  1  0.83544800  0.44673100  0.25329800  1
  Li  Li14  1  0.92653700  0.21214300  0.69697400  1
  Li  Li15  1  0.27819500  0.13203100  0.79528700  1
  Li  Li16  1  0.68293000  0.02435300  0.95534900  1
  Li  Li17  1  0.57346300  0.21214300  0.19697400  1
  Li  Li18  1  0.22180500  0.13203100  0.29528700  1
  Li  Li19  1  0.81707000  0.02435300  0.45534900  1
  V  V0  1  0.01907500  0.72447500  0.99173800  1
  V  V1  1  0.48092500  0.72447500  0.49173800  1
  V  V2  1  0.51907500  0.27552500  0.50826200  1
  V  V3  1  0.98092500  0.27552500  0.00826200  1
  F  F0  1  0.46292500  0.98774200  0.87871500  1
  F  F1  1  0.10922600  0.97317800  0.90482500  1
  F  F2  1  0.80870500  0.84352200  0.88524100  1
  F  F3  1  0.03707500  0.98774200  0.37871500  1
  F  F4  1  0.39077400  0.97317800  0.40482500  1
  F  F5  1  0.23114100  0.66802300  0.90005200  1
  F  F6  1  0.31928900  0.76118200  0.63862800  1
  F  F7  1  0.69129500  0.84352200  0.38524100  1
  F  F8  1  0.69730400  0.68103000  0.62423100  1
  F  F9  1  0.54041500  0.54928900  0.86863800  1
  F  F10  1  0.93580900  0.54059000  0.88863000  1
  F  F11  1  0.26885900  0.66802300  0.40005200  1
  F  F12  1  0.18071100  0.76118200  0.13862800  1
  F  F13  1  0.80269600  0.68103000  0.12423100  1
  F  F14  1  0.95958500  0.54928900  0.36863800  1
  F  F15  1  0.43580900  0.45941000  0.61137000  1
  F  F16  1  0.56419100  0.54059000  0.38863000  1
  F  F17  1  0.04041500  0.45071100  0.63136200  1
  F  F18  1  0.19730400  0.31897000  0.87576900  1
  F  F19  1  0.81928900  0.23881800  0.86137200  1
  F  F20  1  0.73114100  0.33197700  0.59994800  1
  F  F21  1  0.06419100  0.45941000  0.11137000  1
  F  F22  1  0.45958500  0.45071100  0.13136200  1
  F  F23  1  0.30269600  0.31897000  0.37576900  1
  F  F24  1  0.30870500  0.15647800  0.61475900  1
  F  F25  1  0.68071100  0.23881800  0.36137200  1
  F  F26  1  0.76885900  0.33197700  0.09994800  1
  F  F27  1  0.60922600  0.02682200  0.59517500  1
  F  F28  1  0.96292500  0.01225800  0.62128500  1
  F  F29  1  0.19129500  0.15647800  0.11475900  1
  F  F30  1  0.89077400  0.02682200  0.09517500  1
  F  F31  1  0.53707500  0.01225800  0.12128500  1
loop_
_geom_bond_atom_site_label_1
_geom_bond_atom_site_label_2
_geom_bond_distance
_geom_bond_site_symmetry_2
F0 Li15 1.874227 1_565
F0 Li2 1.920226 1_555
F0 Li16 1.937670 1_565
F0 Li3 2.063801 1_556
F1 Li15 1.940221 1_565
F1 V0 1.997824 1_555
F1 Li3 2.186287 1_556
F2 Li1 1.877205 1_555
F2 Li16 1.984829 1_565
F2 V0 2.047877 1_655
F3 Li18 1.874227 1_565
F3 Li5 1.920226 1_555
F3 Li19 1.937670 1_465
F3 Li0 2.063801 1_555
F4 Li18 1.940221 1_565
F4 V1 1.997824 1_555
F4 Li0 2.186287 1_555
F5 Li2 1.916026 1_555
F5 Li7 1.936161 1_555
F5 V0 2.009869 1_555
F5 Li6 2.097940 1_555
F6 Li0 1.975544 1_555
F6 Li2 1.980960 1_555
F6 V1 2.067779 1_555
F6 Li6 2.068831 1_555
F7 Li4 1.877205 1_555
F7 Li19 1.984829 1_565
F7 V1 2.047877 1_555
F8 Li1 1.946547 1_555
F8 Li9 1.950774 1_555
F8 Li8 1.960935 1_555
F8 V1 2.149915 1_555
F9 Li12 1.864088 1_556
F9 Li9 1.876840 1_555
F9 Li7 1.949484 1_555
F9 Li2 1.972272 1_555
F10 V0 2.092045 1_655
F10 V3 2.105155 1_556
F10 Li6 2.304301 1_655
F11 Li5 1.916026 1_555
F11 Li11 1.936161 1_555
F11 V1 2.009869 1_555
F11 Li10 2.097940 1_555
F12 Li3 1.975544 1_555
F12 Li5 1.980960 1_555
F12 V0 2.067779 1_554
F12 Li10 2.068831 1_555
F13 Li4 1.946547 1_555
F13 Li13 1.950774 1_555
F13 Li12 1.960935 1_555
F13 V0 2.149915 1_654
F14 Li8 1.864088 1_555
F14 Li13 1.876840 1_555
F14 Li11 1.949484 1_655
F14 Li5 1.972272 1_655
F15 V2 2.092045 1_555
F15 V1 2.105155 1_555
F15 Li9 2.304301 1_555
F16 V1 2.092045 1_555
F16 V2 2.105155 1_555
F16 Li10 2.304301 1_555
F17 Li11 1.864088 1_555
F17 Li6 1.876840 1_555
F17 Li8 1.949484 1_455
F17 Li14 1.972272 1_455
F18 Li15 1.946547 1_555
F18 Li6 1.950774 1_555
F18 Li7 1.960935 1_555
F18 V3 2.149915 1_456
F19 Li16 1.975544 1_555
F19 Li14 1.980960 1_555
F19 V3 2.067779 1_556
F19 Li9 2.068831 1_555
F20 Li14 1.916026 1_555
F20 Li8 1.936161 1_555
F20 V2 2.009869 1_555
F20 Li9 2.097940 1_555
F21 V3 2.092045 1_455
F21 V0 2.105155 1_554
F21 Li13 2.304301 1_455
F22 Li7 1.864088 1_554
F22 Li10 1.876840 1_555
F22 Li12 1.949484 1_555
F22 Li17 1.972272 1_555
F23 Li18 1.946547 1_555
F23 Li10 1.950774 1_555
F23 Li11 1.960935 1_555
F23 V2 2.149915 1_555
F24 Li15 1.877205 1_555
F24 Li0 1.984829 1_545
F24 V2 2.047877 1_555
F25 Li19 1.975544 1_555
F25 Li17 1.980960 1_555
F25 V2 2.067779 1_555
F25 Li13 2.068831 1_555
F26 Li17 1.916026 1_555
F26 Li12 1.936161 1_555
F26 V3 2.009869 1_555
F26 Li13 2.097940 1_555
F27 Li1 1.940221 1_545
F27 V2 1.997824 1_555
F27 Li19 2.186287 1_555
F28 Li1 1.874227 1_545
F28 Li14 1.920226 1_555
F28 Li0 1.937670 1_645
F28 Li19 2.063801 1_555
F29 Li18 1.877205 1_555
F29 Li3 1.984829 1_545
F29 V3 2.047877 1_455
F30 Li4 1.940221 1_545
F30 V3 1.997824 1_555
F30 Li16 2.186287 1_554
F31 Li4 1.874227 1_545
F31 Li17 1.920226 1_555
F31 Li3 1.937670 1_545
F31 Li16 2.063801 1_554
