# generated using pymatgen
data_CsVH24(SO10)2
_symmetry_space_group_name_H-M   'P 1'
_cell_length_a   12.32354200
_cell_length_b   12.32354200
_cell_length_c   12.32354200
_cell_angle_alpha   90.00035497
_cell_angle_beta   90.00035497
_cell_angle_gamma   89.99964503
_symmetry_Int_Tables_number   1
_chemical_formula_structural   CsVH24(SO10)2
_chemical_formula_sum   'Cs4 V4 H96 S8 O80'
_cell_volume   1871.57247146
_cell_formula_units_Z   4
loop_
 _symmetry_equiv_pos_site_id
 _symmetry_equiv_pos_as_xyz
  1  'x, y, z'
loop_
 _atom_site_type_symbol
 _atom_site_label
 _atom_site_symmetry_multiplicity
 _atom_site_fract_x
 _atom_site_fract_y
 _atom_site_fract_z
 _atom_site_occupancy
  Cs  Cs0  1  0.00000000  -0.00000000  0.50000000  1
  Cs  Cs1  1  0.00000000  0.50000000  -0.00000000  1
  Cs  Cs2  1  0.50000000  -0.00000000  -0.00000000  1
  Cs  Cs3  1  0.50000000  0.50000000  0.50000000  1
  V  V0  1  0.50000000  0.50000000  -0.00000000  1
  V  V1  1  0.50000000  -0.00000000  0.50000000  1
  V  V2  1  0.00000000  0.50000000  0.50000000  1
  V  V3  1  0.00000000  -0.00000000  -0.00000000  1
  H  H0  1  0.22045380  0.50754522  0.23238830  1
  H  H1  1  0.77956176  0.00753648  0.26768246  1
  H  H2  1  0.27958701  0.49244022  0.73234022  1
  H  H3  1  0.72040725  0.99245119  0.76760125  1
  H  H4  1  0.23239875  0.22040725  0.50754881  1
  H  H5  1  0.26765978  0.77958701  0.00755978  1
  H  H6  1  0.73231754  0.27956176  0.49246352  1
  H  H7  1  0.76761170  0.72045380  0.99245478  1
  H  H8  1  0.50753648  0.23231754  0.22043824  1
  H  H9  1  0.00754522  0.26761170  0.77954620  1
  H  H10  1  0.49245119  0.73239875  0.27959275  1
  H  H11  1  0.99244022  0.76765978  0.72041299  1
  H  H12  1  0.77954620  0.49245478  0.76761170  1
  H  H13  1  0.22043824  0.99246352  0.73231754  1
  H  H14  1  0.72041299  0.50755978  0.26765978  1
  H  H15  1  0.27959275  0.00754881  0.23239875  1
  H  H16  1  0.76760125  0.77959275  0.49245119  1
  H  H17  1  0.73234022  0.22041299  0.99244022  1
  H  H18  1  0.26768246  0.72043824  0.50753648  1
  H  H19  1  0.23238830  0.27954620  0.00754522  1
  H  H20  1  0.49246352  0.76768246  0.77956176  1
  H  H21  1  0.99245478  0.73238830  0.22045380  1
  H  H22  1  0.50754881  0.26760125  0.72040725  1
  H  H23  1  0.00755978  0.23234022  0.27958701  1
  H  H24  1  0.18363213  0.62735222  0.22319715  1
  H  H25  1  0.81640278  0.12733121  0.27685540  1
  H  H26  1  0.31641700  0.37263763  0.72314428  1
  H  H27  1  0.68357603  0.87265083  0.77679077  1
  H  H28  1  0.22320923  0.18357603  0.62734917  1
  H  H29  1  0.27685572  0.81641700  0.12736237  1
  H  H30  1  0.72314460  0.31640278  0.37266879  1
  H  H31  1  0.77680285  0.68363213  0.87264778  1
  H  H32  1  0.62733121  0.22314460  0.18359722  1
  H  H33  1  0.12735222  0.27680285  0.81636787  1
  H  H34  1  0.37265083  0.72320923  0.31642397  1
  H  H35  1  0.87263763  0.77685572  0.68358300  1
  H  H36  1  0.81636787  0.37264778  0.77680285  1
  H  H37  1  0.18359722  0.87266879  0.72314460  1
  H  H38  1  0.68358300  0.62736237  0.27685572  1
  H  H39  1  0.31642397  0.12734917  0.22320923  1
  H  H40  1  0.77679077  0.81642397  0.37265083  1
  H  H41  1  0.72314428  0.18358300  0.87263763  1
  H  H42  1  0.27685540  0.68359722  0.62733121  1
  H  H43  1  0.22319715  0.31636787  0.12735222  1
  H  H44  1  0.37266879  0.77685540  0.81640278  1
  H  H45  1  0.87264778  0.72319715  0.18363213  1
  H  H46  1  0.62734917  0.27679077  0.68357603  1
  H  H47  1  0.12736237  0.22314428  0.31641700  1
  H  H48  1  0.47668031  0.71030517  0.93647236  1
  H  H49  1  0.52333574  0.21030866  0.56350890  1
  H  H50  1  0.02335773  0.28969718  0.43649576  1
  H  H51  1  0.97666765  0.78971042  0.06352214  1
  H  H52  1  0.93647786  0.47666765  0.71028958  1
  H  H53  1  0.56350424  0.52335773  0.21030282  1
  H  H54  1  0.43649110  0.02333574  0.28969134  1
  H  H55  1  0.06352764  0.97668031  0.78969483  1
  H  H56  1  0.71030866  0.93649110  0.47666426  1
  H  H57  1  0.21030517  0.56352764  0.52331969  1
  H  H58  1  0.28971042  0.43647786  0.02333235  1
  H  H59  1  0.78969718  0.06350424  0.97664227  1
  H  H60  1  0.52331969  0.28969483  0.06352764  1
  H  H61  1  0.47666426  0.78969134  0.43649110  1
  H  H62  1  0.97664227  0.71030282  0.56350424  1
  H  H63  1  0.02333235  0.21028958  0.93647786  1
  H  H64  1  0.06352214  0.52333235  0.28971042  1
  H  H65  1  0.43649576  0.47664227  0.78969718  1
  H  H66  1  0.56350890  0.97666426  0.71030866  1
  H  H67  1  0.93647236  0.02331969  0.21030517  1
  H  H68  1  0.28969134  0.06350890  0.52333574  1
  H  H69  1  0.78969483  0.43647236  0.47668031  1
  H  H70  1  0.71028958  0.56352214  0.97666765  1
  H  H71  1  0.21030282  0.93649576  0.02335773  1
  H  H72  1  0.52549041  0.70590591  0.06082448  1
  H  H73  1  0.47448723  0.20589341  0.43915970  1
  H  H74  1  0.97446982  0.29409854  0.56081662  1
  H  H75  1  0.02552255  0.79410153  0.93917924  1
  H  H76  1  0.06082076  0.52552255  0.70589847  1
  H  H77  1  0.43918338  0.47446982  0.20590146  1
  H  H78  1  0.56084030  0.97448723  0.29410659  1
  H  H79  1  0.93917552  0.02549041  0.79409409  1
  H  H80  1  0.70589341  0.06084030  0.52551277  1
  H  H81  1  0.20590591  0.43917552  0.47450959  1
  H  H82  1  0.29410153  0.56082076  0.97447745  1
  H  H83  1  0.79409854  0.93918338  0.02553018  1
  H  H84  1  0.47450959  0.29409409  0.93917552  1
  H  H85  1  0.52551277  0.79410659  0.56084030  1
  H  H86  1  0.02553018  0.70590146  0.43918338  1
  H  H87  1  0.97447745  0.20589847  0.06082076  1
  H  H88  1  0.93917924  0.47447745  0.29410153  1
  H  H89  1  0.56081662  0.52553018  0.79409854  1
  H  H90  1  0.43915970  0.02551277  0.70589341  1
  H  H91  1  0.06082448  0.97450959  0.20590591  1
  H  H92  1  0.29410659  0.93915970  0.47448723  1
  H  H93  1  0.79409409  0.56082448  0.52549041  1
  H  H94  1  0.70589847  0.43917924  0.02552255  1
  H  H95  1  0.20590146  0.06081662  0.97446982  1
  S  S0  1  0.17408379  0.82596086  0.32595261  1
  S  S1  1  0.82592483  0.32592483  0.17407517  1
  S  S2  1  0.32596086  0.17404739  0.82591621  1
  S  S3  1  0.67404739  0.67408379  0.67403914  1
  S  S4  1  0.82591621  0.17403914  0.67404739  1
  S  S5  1  0.17407517  0.67407517  0.82592483  1
  S  S6  1  0.67403914  0.82595261  0.17408379  1
  S  S7  1  0.32595261  0.32591621  0.32596086  1
  O  O0  1  0.24361240  0.75644272  0.25640791  1
  O  O1  1  0.75639928  0.25639928  0.24360072  1
  O  O2  1  0.25644272  0.24359209  0.75638760  1
  O  O3  1  0.74359209  0.74361240  0.74355728  1
  O  O4  1  0.75638760  0.24355728  0.74359209  1
  O  O5  1  0.24360072  0.74360072  0.75639928  1
  O  O6  1  0.74355728  0.75640791  0.24361240  1
  O  O7  1  0.25640791  0.25638760  0.25644272  1
  O  O8  1  0.06432177  0.77849807  0.33352454  1
  O  O9  1  0.93568803  0.27846664  0.16649613  1
  O  O10  1  0.43572505  0.22148319  0.83349982  1
  O  O11  1  0.56429125  0.72153757  0.66649245  1
  O  O12  1  0.33350755  0.06429125  0.77846243  1
  O  O13  1  0.16650018  0.93572505  0.27851681  1
  O  O14  1  0.83350387  0.43568803  0.22153336  1
  O  O15  1  0.66647546  0.56432177  0.72150193  1
  O  O16  1  0.77846664  0.33350387  0.06431197  1
  O  O17  1  0.27849807  0.16647546  0.93567823  1
  O  O18  1  0.22153757  0.83350755  0.43570875  1
  O  O19  1  0.72148319  0.66650018  0.56427495  1
  O  O20  1  0.93567823  0.22150193  0.66647546  1
  O  O21  1  0.06431197  0.72153336  0.83350387  1
  O  O22  1  0.56427495  0.77851681  0.16650018  1
  O  O23  1  0.43570875  0.27846243  0.33350755  1
  O  O24  1  0.66649245  0.93570875  0.22153757  1
  O  O25  1  0.83349982  0.06427495  0.72148319  1
  O  O26  1  0.16649613  0.56431197  0.77846664  1
  O  O27  1  0.33352454  0.43567823  0.27849807  1
  O  O28  1  0.22153336  0.66649613  0.93568803  1
  O  O29  1  0.72150193  0.83352454  0.06432177  1
  O  O30  1  0.77846243  0.16649245  0.56429125  1
  O  O31  1  0.27851681  0.33349982  0.43572505  1
  O  O32  1  0.15842051  0.55291902  0.21128061  1
  O  O33  1  0.84161096  0.05289577  0.28877421  1
  O  O34  1  0.34162650  0.44707359  0.71123877  1
  O  O35  1  0.65837462  0.94708287  0.78872972  1
  O  O36  1  0.21127028  0.15837462  0.55291713  1
  O  O37  1  0.28876123  0.84162650  0.05292641  1
  O  O38  1  0.71122579  0.34161096  0.44710423  1
  O  O39  1  0.78871939  0.65842051  0.94708098  1
  O  O40  1  0.55289577  0.21122579  0.15838904  1
  O  O41  1  0.05291902  0.28871939  0.84157949  1
  O  O42  1  0.44708287  0.71127028  0.34162538  1
  O  O43  1  0.94707359  0.78876123  0.65837350  1
  O  O44  1  0.84157949  0.44708098  0.78871939  1
  O  O45  1  0.15838904  0.94710423  0.71122579  1
  O  O46  1  0.65837350  0.55292641  0.28876123  1
  O  O47  1  0.34162538  0.05291713  0.21127028  1
  O  O48  1  0.78872972  0.84162538  0.44708287  1
  O  O49  1  0.71123877  0.15837350  0.94707359  1
  O  O50  1  0.28877421  0.65838904  0.55289577  1
  O  O51  1  0.21128061  0.34157949  0.05291902  1
  O  O52  1  0.44710423  0.78877421  0.84161096  1
  O  O53  1  0.94708098  0.71128061  0.15842051  1
  O  O54  1  0.55291713  0.28872972  0.65837462  1
  O  O55  1  0.05292641  0.21123877  0.34162650  1
  O  O56  1  0.50118393  0.66214508  0.99819013  1
  O  O57  1  0.49881176  0.16214178  0.50179720  1
  O  O58  1  0.99883565  0.33785983  0.49820664  1
  O  O59  1  0.00118698  0.83786104  0.00180488  1
  O  O60  1  0.99819512  0.50118698  0.66213896  1
  O  O61  1  0.50179336  0.49883565  0.16214017  1
  O  O62  1  0.49820280  0.99881176  0.33785822  1
  O  O63  1  0.00180987  0.00118393  0.83785492  1
  O  O64  1  0.66214178  0.99820280  0.50118824  1
  O  O65  1  0.16214508  0.50180987  0.49881607  1
  O  O66  1  0.33786104  0.49819512  0.99881302  1
  O  O67  1  0.83785983  0.00179336  0.00116435  1
  O  O68  1  0.49881607  0.33785492  0.00180987  1
  O  O69  1  0.50118824  0.83785822  0.49820280  1
  O  O70  1  0.00116435  0.66214017  0.50179336  1
  O  O71  1  0.99881302  0.16213896  0.99819512  1
  O  O72  1  0.00180488  0.49881302  0.33786104  1
  O  O73  1  0.49820664  0.50116435  0.83785983  1
  O  O74  1  0.50179720  0.00118824  0.66214178  1
  O  O75  1  0.99819013  0.99881607  0.16214508  1
  O  O76  1  0.33785822  0.00179720  0.49881176  1
  O  O77  1  0.83785492  0.49819013  0.50118393  1
  O  O78  1  0.66213896  0.50180488  0.00118698  1
  O  O79  1  0.16214017  0.99820664  0.99883565  1
loop_
_geom_bond_atom_site_label_1
_geom_bond_atom_site_label_2
_geom_bond_distance
_geom_bond_site_symmetry_2
Cs0 O45 3.318238 1_545
Cs0 O33 3.318238 1_455
Cs0 O43 3.318349 1_445
Cs0 O55 3.318349 1_555
Cs0 O36 3.318628 1_555
Cs0 O48 3.318628 1_445
Cs0 O13 3.505361 1_545
Cs0 O25 3.505361 1_455
Cs0 O20 3.505479 1_455
Cs0 O8 3.505479 1_545
Cs0 O30 3.505860 1_455
Cs0 O18 3.505860 1_545
Cs1 O41 3.319051 1_554
Cs1 O53 3.319051 1_455
Cs1 O44 3.319051 1_454
Cs1 O39 3.319051 1_454
Cs1 O32 3.319051 1_555
Cs1 O51 3.319051 1_555
Cs1 O14 3.505929 1_455
Cs1 O21 3.505929 1_554
Cs1 O28 3.505929 1_554
Cs1 O9 3.505929 1_455
Cs1 O26 3.505929 1_554
Cs1 O16 3.505929 1_455
Cs2 O52 3.318238 1_544
Cs2 O40 3.318238 1_555
Cs2 O49 3.318349 1_554
Cs2 O37 3.318349 1_545
Cs2 O35 3.318628 1_544
Cs2 O47 3.318628 1_555
Cs2 O10 3.505361 1_554
Cs2 O22 3.505361 1_545
Cs2 O17 3.505479 1_554
Cs2 O29 3.505479 1_545
Cs2 O12 3.505860 1_554
Cs2 O24 3.505860 1_545
Cs3 O38 3.318238 1_555
Cs3 O50 3.318238 1_555
Cs3 O46 3.318349 1_555
Cs3 O34 3.318349 1_555
Cs3 O54 3.318628 1_555
Cs3 O42 3.318628 1_555
Cs3 O31 3.505361 1_555
Cs3 O19 3.505361 1_555
Cs3 O27 3.505479 1_555
Cs3 O15 3.505479 1_555
Cs3 O11 3.505860 1_555
Cs3 O23 3.505860 1_555
H0 O32 0.982211 1_555
H1 O33 0.982213 1_555
H2 O34 0.982200 1_555
H3 O35 0.982242 1_555
H4 O36 0.982242 1_555
H5 O37 0.982200 1_555
H6 O38 0.982213 1_555
H7 O39 0.982211 1_555
H8 O40 0.982213 1_555
H9 O41 0.982211 1_555
H10 O42 0.982242 1_555
H11 O43 0.982200 1_555
H12 O44 0.982211 1_555
H13 O45 0.982213 1_555
H14 O46 0.982200 1_555
H15 O47 0.982242 1_555
H16 O48 0.982242 1_555
H17 O49 0.982200 1_555
H18 O50 0.982213 1_555
H19 O51 0.982211 1_555
H20 O52 0.982213 1_555
H21 O53 0.982211 1_555
H22 O54 0.982242 1_555
H23 O55 0.982200 1_555
H24 O32 0.979542 1_555
H25 O33 0.979557 1_555
H26 O34 0.979548 1_555
H27 O35 0.979528 1_555
H28 O36 0.979528 1_555
H29 O37 0.979548 1_555
H30 O38 0.979557 1_555
H31 O39 0.979542 1_555
H32 O40 0.979557 1_555
H33 O41 0.979542 1_555
H34 O42 0.979528 1_555
H35 O43 0.979548 1_555
H36 O44 0.979542 1_555
H37 O45 0.979557 1_555
H38 O46 0.979548 1_555
H39 O47 0.979528 1_555
H40 O48 0.979528 1_555
H41 O49 0.979548 1_555
H42 O50 0.979557 1_555
H43 O51 0.979542 1_555
H44 O52 0.979557 1_555
H45 O53 0.979542 1_555
H46 O54 0.979528 1_555
H47 O55 0.979548 1_555
H48 O56 1.010899 1_555
H48 O52 1.560320 1_555
H49 O57 1.010964 1_555
H49 O54 1.560003 1_555
H50 O58 1.010919 1_455
H50 O55 1.560285 1_555
H51 O59 1.010889 1_655
H51 O53 1.560399 1_555
H52 O60 1.010889 1_555
H52 O44 1.560399 1_555
H53 O61 1.010919 1_555
H53 O46 1.560285 1_555
H54 O62 1.010964 1_545
H54 O47 1.560003 1_555
H55 O63 1.010899 1_565
H55 O45 1.560320 1_555
H56 O64 1.010964 1_555
H56 O48 1.560003 1_555
H57 O65 1.010899 1_555
H57 O50 1.560320 1_555
H58 O66 1.010889 1_554
H58 O51 1.560399 1_555
H59 O67 1.010919 1_556
H59 O49 1.560285 1_555
H60 O68 1.010899 1_555
H60 O40 1.560320 1_555
H61 O69 1.010964 1_555
H61 O42 1.560003 1_555
H62 O70 1.010919 1_655
H62 O43 1.560285 1_555
H63 O71 1.010889 1_455
H63 O41 1.560399 1_555
H64 O72 1.010889 1_555
H64 O32 1.560399 1_555
H65 O73 1.010919 1_555
H65 O34 1.560285 1_555
H66 O74 1.010964 1_565
H66 O35 1.560003 1_555
H67 O75 1.010899 1_545
H67 O33 1.560320 1_555
H68 O76 1.010964 1_555
H68 O36 1.560003 1_555
H69 O77 1.010899 1_555
H69 O38 1.560320 1_555
H70 O78 1.010889 1_556
H70 O39 1.560399 1_555
H71 O79 1.010919 1_554
H71 O37 1.560285 1_555
H72 O56 0.988102 1_554
H72 O22 1.650795 1_555
H73 O57 0.988141 1_555
H73 O23 1.650270 1_555
H74 O58 0.988101 1_555
H74 O20 1.650574 1_555
H75 O59 0.988119 1_556
H75 O21 1.650525 1_555
H76 O60 0.988119 1_455
H76 O26 1.650525 1_555
H77 O61 0.988101 1_555
H77 O27 1.650574 1_555
H78 O62 0.988141 1_555
H78 O24 1.650270 1_555
H79 O63 0.988102 1_655
H79 O25 1.650795 1_555
H80 O64 0.988141 1_545
H80 O30 1.650270 1_555
H81 O65 0.988102 1_555
H81 O31 1.650795 1_555
H82 O66 0.988119 1_555
H82 O28 1.650525 1_555
H83 O67 0.988101 1_565
H83 O29 1.650574 1_555
H84 O68 0.988102 1_556
H84 O10 1.650795 1_555
H85 O69 0.988141 1_555
H85 O11 1.650270 1_555
H86 O70 0.988101 1_555
H86 O8 1.650574 1_555
H87 O71 0.988119 1_554
H87 O9 1.650525 1_555
H88 O72 0.988119 1_655
H88 O14 1.650525 1_555
H89 O73 0.988101 1_555
H89 O15 1.650574 1_555
H90 O74 0.988141 1_555
H90 O12 1.650270 1_555
H91 O75 0.988102 1_455
H91 O13 1.650795 1_555
H92 O76 0.988141 1_565
H92 O18 1.650270 1_555
H93 O77 0.988102 1_555
H93 O19 1.650795 1_555
H94 O78 0.988119 1_555
H94 O16 1.650525 1_555
H95 O79 0.988101 1_545
H95 O17 1.650574 1_555
O0 S0 1.484125 1_555
O1 S1 1.484032 1_555
O2 S2 1.484125 1_555
O3 S3 1.484125 1_555
O4 S4 1.484125 1_555
O5 S5 1.484032 1_555
O6 S6 1.484125 1_555
O7 S7 1.484125 1_555
O8 S0 1.476658 1_555
O9 S1 1.476647 1_555
O10 S2 1.476559 1_555
O11 S3 1.476520 1_555
O12 S2 1.476520 1_555
O13 S0 1.476559 1_555
O14 S1 1.476647 1_555
O15 S3 1.476658 1_555
O16 S1 1.476647 1_555
O17 S2 1.476658 1_555
O18 S0 1.476520 1_555
O19 S3 1.476559 1_555
O20 S4 1.476658 1_555
O21 S5 1.476647 1_555
O22 S6 1.476559 1_555
O23 S7 1.476520 1_555
O24 S6 1.476520 1_555
O25 S4 1.476559 1_555
O26 S5 1.476647 1_555
O27 S7 1.476658 1_555
O28 S5 1.476647 1_555
O29 S6 1.476658 1_555
O30 S4 1.476520 1_555
O31 S7 1.476559 1_555
O56 V0 1.998380 1_556
O57 V1 1.998337 1_555
O58 V2 1.998315 1_655
O59 V3 1.998304 1_565
O60 V2 1.998304 1_655
O61 V0 1.998315 1_555
O62 V1 1.998337 1_565
O63 V3 1.998380 1_556
O64 V1 1.998337 1_565
O65 V2 1.998380 1_555
O66 V0 1.998304 1_556
O67 V3 1.998315 1_655
O68 V0 1.998380 1_555
O69 V1 1.998337 1_565
O70 V2 1.998315 1_555
O71 V3 1.998304 1_656
O72 V2 1.998304 1_555
O73 V0 1.998315 1_556
O74 V1 1.998337 1_555
O75 V3 1.998380 1_665
O76 V1 1.998337 1_555
O77 V2 1.998380 1_655
O78 V0 1.998304 1_555
O79 V3 1.998315 1_566
