# generated using pymatgen
data_Li4Ti5S12
_symmetry_space_group_name_H-M   'P 1'
_cell_length_a   6.49327300
_cell_length_b   11.66061611
_cell_length_c   12.01612406
_cell_angle_alpha   72.86033161
_cell_angle_beta   76.55552563
_cell_angle_gamma   78.38063955
_symmetry_Int_Tables_number   1
_chemical_formula_structural   Li4Ti5S12
_chemical_formula_sum   'Li8 Ti10 S24'
_cell_volume   836.88863270
_cell_formula_units_Z   2
loop_
 _symmetry_equiv_pos_site_id
 _symmetry_equiv_pos_as_xyz
  1  'x, y, z'
loop_
 _atom_site_type_symbol
 _atom_site_label
 _atom_site_symmetry_multiplicity
 _atom_site_fract_x
 _atom_site_fract_y
 _atom_site_fract_z
 _atom_site_occupancy
  Li  Li0  1  0.14659300  0.40715100  0.40421600  1
  Li  Li1  1  0.35599500  0.58065900  0.11071400  1
  Li  Li2  1  0.27445000  0.91211400  0.02172600  1
  Li  Li3  1  0.30961500  0.76691300  0.55631600  1
  Li  Li4  1  0.69038500  0.23308700  0.44368400  1
  Li  Li5  1  0.72555000  0.08788600  0.97827400  1
  Li  Li6  1  0.64400500  0.41934100  0.88928600  1
  Li  Li7  1  0.85340700  0.59284900  0.59578400  1
  Ti  Ti0  1  0.26126100  0.09157900  0.27628800  1
  Ti  Ti1  1  0.19178100  0.09226900  0.67766000  1
  Ti  Ti2  1  0.18933700  0.27541800  0.92257100  1
  Ti  Ti3  1  0.12426400  0.59236900  0.86018300  1
  Ti  Ti4  1  0.42059500  0.42597600  0.64679900  1
  Ti  Ti5  1  0.57940500  0.57402400  0.35320100  1
  Ti  Ti6  1  0.87573600  0.40763100  0.13981700  1
  Ti  Ti7  1  0.81066300  0.72458200  0.07742900  1
  Ti  Ti8  1  0.80821900  0.90773100  0.32234000  1
  Ti  Ti9  1  0.73873900  0.90842100  0.72371200  1
  S  S0  1  0.05008500  0.26545700  0.30243800  1
  S  S1  1  0.24502900  0.42018500  0.01717200  1
  S  S2  1  0.34147000  0.10220300  0.08268900  1
  S  S3  1  0.10252200  0.10337800  0.86693400  1
  S  S4  1  0.04638200  0.42970300  0.77227600  1
  S  S5  1  0.11053300  0.91835400  0.38440400  1
  S  S6  1  0.32008400  0.26364200  0.56930700  1
  S  S7  1  0.25278400  0.57070200  0.48401400  1
  S  S8  1  0.56883900  0.08036900  0.34296900  1
  S  S9  1  0.17164900  0.73115800  0.94697000  1
  S  S10  1  0.54049300  0.41764800  0.27049700  1
  S  S11  1  0.46557700  0.73126300  0.19259600  1
  S  S12  1  0.53442300  0.26873700  0.80740400  1
  S  S13  1  0.45950700  0.58235200  0.72950300  1
  S  S14  1  0.82835100  0.26884200  0.05303000  1
  S  S15  1  0.43116100  0.91963100  0.65703100  1
  S  S16  1  0.74721600  0.42929800  0.51598600  1
  S  S17  1  0.67991600  0.73635800  0.43069300  1
  S  S18  1  0.88946700  0.08164600  0.61559600  1
  S  S19  1  0.95361800  0.57029700  0.22772400  1
  S  S20  1  0.89747800  0.89662200  0.13306600  1
  S  S21  1  0.65853000  0.89779700  0.91731100  1
  S  S22  1  0.75497100  0.57981500  0.98282800  1
  S  S23  1  0.94991500  0.73454300  0.69756200  1
loop_
_geom_bond_atom_site_label_1
_geom_bond_atom_site_label_2
_geom_bond_distance
_geom_bond_site_symmetry_2
Li0 S6 2.515517 1_555
Li0 S0 2.565674 1_555
Li0 S16 2.628798 1_455
Li0 S7 2.635694 1_555
Li0 S10 2.690304 1_555
Li0 S19 2.753959 1_455
Li1 S11 2.530946 1_555
Li1 S9 2.568602 1_554
Li1 S10 2.595346 1_555
Li1 S19 2.671461 1_455
Li1 S22 2.687094 1_554
Li1 S1 2.728269 1_555
Li2 S21 2.514455 1_554
Li2 S20 2.515360 1_455
Li2 S2 2.670754 1_565
Li2 S3 2.682826 1_564
Li2 S9 2.769148 1_554
Li2 S11 2.789550 1_555
Li3 S17 2.543843 1_555
Li3 S23 2.571465 1_455
Li3 S5 2.688636 1_555
Li3 S13 2.714391 1_555
Li3 S15 2.745759 1_555
Li3 S7 2.790413 1_555
Li4 S6 2.543843 1_555
Li4 S0 2.571465 1_655
Li4 S18 2.688636 1_555
Li4 S10 2.714391 1_555
Li4 S8 2.745759 1_555
Li4 S16 2.790413 1_555
Li5 S2 2.514455 1_556
Li5 S3 2.515360 1_655
Li5 S21 2.670754 1_545
Li5 S20 2.682826 1_546
Li5 S14 2.769148 1_556
Li5 S12 2.789550 1_555
Li6 S12 2.530946 1_555
Li6 S14 2.568602 1_556
Li6 S13 2.595346 1_555
Li6 S4 2.671461 1_655
Li6 S1 2.687094 1_556
Li6 S22 2.728269 1_555
Li7 S17 2.515517 1_555
Li7 S23 2.565674 1_555
Li7 S7 2.628798 1_655
Li7 S16 2.635694 1_555
Li7 S13 2.690304 1_555
Li7 S4 2.753959 1_655
S0 Ti0 2.268278 1_555
S0 Ti6 2.492336 1_455
S1 Ti2 2.416730 1_554
S1 Ti3 2.454764 1_554
S1 Ti6 2.512822 1_455
S2 Ti0 2.234066 1_555
S2 Ti2 2.558666 1_554
S3 Ti1 2.248503 1_555
S3 Ti2 2.492064 1_555
S4 Ti2 2.356182 1_555
S4 Ti4 2.543997 1_555
S4 Ti3 2.604806 1_555
S5 Ti8 2.293045 1_455
S5 Ti0 2.320365 1_565
S6 Ti1 2.239469 1_555
S6 Ti4 2.587514 1_555
S7 Ti5 2.327498 1_555
S7 Ti4 2.483174 1_555
S8 Ti0 2.285842 1_555
S8 Ti8 2.320438 1_545
S9 Ti3 2.268440 1_555
S9 Ti7 2.500088 1_456
S10 Ti6 2.373636 1_555
S10 Ti5 2.397245 1_555
S11 Ti7 2.343789 1_555
S11 Ti5 2.379958 1_555
S12 Ti2 2.343789 1_555
S12 Ti4 2.379958 1_555
S13 Ti3 2.373636 1_555
S13 Ti4 2.397245 1_555
S14 Ti6 2.268440 1_555
S14 Ti2 2.500088 1_654
S15 Ti9 2.285842 1_555
S15 Ti1 2.320438 1_565
S16 Ti4 2.327498 1_555
S16 Ti5 2.483174 1_555
S17 Ti8 2.239469 1_555
S17 Ti5 2.587514 1_555
S18 Ti1 2.293045 1_655
S18 Ti9 2.320365 1_545
S19 Ti7 2.356182 1_555
S19 Ti5 2.543997 1_555
S19 Ti6 2.604806 1_555
S20 Ti8 2.248503 1_555
S20 Ti7 2.492064 1_555
S21 Ti9 2.234066 1_555
S21 Ti7 2.558666 1_556
S22 Ti7 2.416730 1_556
S22 Ti6 2.454764 1_556
S22 Ti3 2.512822 1_655
S23 Ti9 2.268278 1_555
S23 Ti3 2.492336 1_655
