# generated using pymatgen
data_LiCrPO4
_symmetry_space_group_name_H-M   'P 1'
_cell_length_a   5.19426200
_cell_length_b   8.08810200
_cell_length_c   8.87563782
_cell_angle_alpha   82.25882120
_cell_angle_beta   90.00000000
_cell_angle_gamma   90.00000000
_symmetry_Int_Tables_number   1
_chemical_formula_structural   LiCrPO4
_chemical_formula_sum   'Li4 Cr4 P4 O16'
_cell_volume   369.48262414
_cell_formula_units_Z   4
loop_
 _symmetry_equiv_pos_site_id
 _symmetry_equiv_pos_as_xyz
  1  'x, y, z'
loop_
 _atom_site_type_symbol
 _atom_site_label
 _atom_site_symmetry_multiplicity
 _atom_site_fract_x
 _atom_site_fract_y
 _atom_site_fract_z
 _atom_site_occupancy
  Li  Li0  1  0.87433400  0.01935600  0.12492300  1
  Li  Li1  1  0.56695200  0.43043900  0.69557100  1
  Li  Li2  1  0.06695200  0.56956100  0.30442900  1
  Li  Li3  1  0.37433400  0.98064400  0.87507700  1
  Cr  Cr0  1  0.02320200  0.82410600  0.59070800  1
  Cr  Cr1  1  0.47608300  0.62424500  0.06258600  1
  Cr  Cr2  1  0.97608300  0.37575500  0.93741400  1
  Cr  Cr3  1  0.52320200  0.17589400  0.40929200  1
  P  P0  1  0.56339600  0.79127400  0.38131700  1
  P  P1  1  0.92484300  0.73468700  0.93887700  1
  P  P2  1  0.42484300  0.26531300  0.06112300  1
  P  P3  1  0.06339600  0.20872600  0.61868300  1
  O  O0  1  0.63269800  0.96984900  0.30311400  1
  O  O1  1  0.39726300  0.80580700  0.52243000  1
  O  O2  1  0.21244900  0.77493900  0.94840600  1
  O  O3  1  0.74818000  0.87114400  0.98296300  1
  O  O4  1  0.82300300  0.69796700  0.43039400  1
  O  O5  1  0.41050700  0.69174500  0.27331300  1
  O  O6  1  0.85231000  0.68273200  0.78246500  1
  O  O7  1  0.88239200  0.57230500  0.06460400  1
  O  O8  1  0.38239200  0.42769500  0.93539600  1
  O  O9  1  0.35231000  0.31726800  0.21753500  1
  O  O10  1  0.91050700  0.30825500  0.72668700  1
  O  O11  1  0.32300300  0.30203300  0.56960600  1
  O  O12  1  0.24818000  0.12885600  0.01703700  1
  O  O13  1  0.71244900  0.22506100  0.05159400  1
  O  O14  1  0.89726300  0.19419300  0.47757000  1
  O  O15  1  0.13269800  0.03015100  0.69688600  1
loop_
_geom_bond_atom_site_label_1
_geom_bond_atom_site_label_2
_geom_bond_distance
_geom_bond_site_symmetry_2
Li0 O13 1.899225 1_555
Li0 O3 1.964908 1_544
Li0 O0 2.016528 1_545
Li0 O12 2.289895 1_655
Li1 O10 2.040552 1_555
Li1 O11 2.060828 1_555
Li1 O8 2.331892 1_555
Li2 O5 2.040552 1_555
Li2 O4 2.060828 1_455
Li2 O7 2.331892 1_455
Li3 O2 1.899225 1_555
Li3 O12 1.964908 1_566
Li3 O15 2.016528 1_565
Li3 O3 2.289895 1_555
Cr0 O1 2.046571 1_555
Cr0 O15 2.100464 1_565
Cr0 O6 2.113722 1_455
Cr0 O4 2.130237 1_455
Cr1 O2 2.013708 1_554
Cr1 O5 2.046294 1_555
Cr1 O8 2.126475 1_554
Cr1 O7 2.151483 1_555
Cr1 O3 2.470743 1_554
Cr2 O13 2.013708 1_556
Cr2 O10 2.046294 1_555
Cr2 O7 2.126475 1_556
Cr2 O8 2.151483 1_655
Cr2 O12 2.470743 1_656
Cr3 O14 2.046571 1_555
Cr3 O0 2.100464 1_545
Cr3 O9 2.113722 1_555
Cr3 O11 2.130237 1_555
O0 P0 1.558005 1_555
O1 P0 1.538446 1_555
O2 P1 1.533721 1_455
O3 P1 1.526305 1_555
O4 P0 1.577682 1_555
O5 P0 1.550968 1_555
O6 P1 1.550142 1_555
O7 P1 1.619866 1_554
O8 P2 1.619866 1_556
O9 P2 1.550142 1_555
O10 P3 1.550968 1_655
O11 P3 1.577682 1_555
O12 P2 1.526305 1_555
O13 P2 1.533721 1_555
O14 P3 1.538446 1_655
O15 P3 1.558005 1_555
