# generated using pymatgen
data_Sr4Ta2O9
_symmetry_space_group_name_H-M   'P 1'
_cell_length_a   5.94614421
_cell_length_b   5.94614421
_cell_length_c   15.38652000
_cell_angle_alpha   90.00000000
_cell_angle_beta   90.00000000
_cell_angle_gamma   120.00000233
_symmetry_Int_Tables_number   1
_chemical_formula_structural   Sr4Ta2O9
_chemical_formula_sum   'Sr8 Ta4 O18'
_cell_volume   471.13124009
_cell_formula_units_Z   2
loop_
 _symmetry_equiv_pos_site_id
 _symmetry_equiv_pos_as_xyz
  1  'x, y, z'
loop_
 _atom_site_type_symbol
 _atom_site_label
 _atom_site_symmetry_multiplicity
 _atom_site_fract_x
 _atom_site_fract_y
 _atom_site_fract_z
 _atom_site_occupancy
  Sr  Sr0  1  0.33333300  0.66666700  0.52781000  1
  Sr  Sr1  1  0.33333300  0.66666700  0.80105200  1
  Sr  Sr2  1  0.33333300  0.66666700  0.30105200  1
  Sr  Sr3  1  0.33333300  0.66666700  0.02781000  1
  Sr  Sr4  1  0.66666700  0.33333300  0.69894800  1
  Sr  Sr5  1  0.66666700  0.33333300  0.19894800  1
  Sr  Sr6  1  0.66666700  0.33333300  0.97219000  1
  Sr  Sr7  1  0.66666700  0.33333300  0.47219000  1
  Ta  Ta0  1  0.00000000  0.00000000  0.64951900  1
  Ta  Ta1  1  0.00000000  0.00000000  0.85048100  1
  Ta  Ta2  1  0.00000000  0.00000000  0.14951900  1
  Ta  Ta3  1  0.00000000  0.00000000  0.35048100  1
  O  O0  1  0.00000000  0.75159700  0.25000000  1
  O  O1  1  0.03985800  0.73055300  0.90710000  1
  O  O2  1  0.26944700  0.96014200  0.40710000  1
  O  O3  1  0.03985800  0.30930500  0.40710000  1
  O  O4  1  0.00000000  0.24840300  0.75000000  1
  O  O5  1  0.24840300  0.24840300  0.25000000  1
  O  O6  1  0.26944700  0.30930500  0.90710000  1
  O  O7  1  0.69069500  0.96014200  0.90710000  1
  O  O8  1  0.30930500  0.26944700  0.59290000  1
  O  O9  1  0.24840300  0.00000000  0.75000000  1
  O  O10  1  0.69069500  0.73055300  0.40710000  1
  O  O11  1  0.30930500  0.03985800  0.09290000  1
  O  O12  1  0.73055300  0.69069500  0.09290000  1
  O  O13  1  0.75159700  0.75159700  0.75000000  1
  O  O14  1  0.96014200  0.69069500  0.59290000  1
  O  O15  1  0.73055300  0.03985800  0.59290000  1
  O  O16  1  0.75159700  0.00000000  0.25000000  1
  O  O17  1  0.96014200  0.26944700  0.09290000  1
loop_
_geom_bond_atom_site_label_1
_geom_bond_atom_site_label_2
_geom_bond_distance
_geom_bond_site_symmetry_2
O0 Ta2 2.138206 1_565
O0 Ta3 2.138206 1_565
O0 Sr2 2.408633 1_555
O0 Sr5 2.408637 1_455
O1 Ta1 1.939529 1_565
O1 Sr6 2.502931 1_455
O1 Sr1 2.552423 1_555
O1 Sr3 2.702217 1_556
O2 Ta3 1.939529 1_565
O2 Sr7 2.502931 1_565
O2 Sr2 2.552423 1_555
O2 Sr0 2.702217 1_555
O3 Ta3 1.939529 1_555
O3 Sr7 2.502928 1_455
O3 Sr2 2.552426 1_555
O3 Sr0 2.702219 1_555
O4 Ta1 2.138206 1_555
O4 Ta0 2.138206 1_555
O4 Sr4 2.408633 1_455
O4 Sr1 2.408637 1_555
O5 Ta2 2.138206 1_555
O5 Ta3 2.138206 1_555
O5 Sr5 2.408639 1_555
O5 Sr2 2.408639 1_555
O6 Ta1 1.939529 1_555
O6 Sr6 2.502933 1_555
O6 Sr1 2.552427 1_555
O6 Sr3 2.702221 1_556
O7 Ta1 1.939529 1_665
O7 Sr6 2.502928 1_565
O7 Sr1 2.552426 1_555
O7 Sr3 2.702219 1_556
O8 Ta0 1.939529 1_555
O8 Sr0 2.502933 1_555
O8 Sr4 2.552427 1_555
O8 Sr7 2.702221 1_555
O9 Ta1 2.138206 1_555
O9 Ta0 2.138206 1_555
O9 Sr1 2.408633 1_545
O9 Sr4 2.408637 1_555
O10 Ta3 1.939529 1_665
O10 Sr7 2.502933 1_555
O10 Sr2 2.552427 1_555
O10 Sr0 2.702221 1_555
O11 Ta2 1.939529 1_555
O11 Sr3 2.502928 1_545
O11 Sr5 2.552426 1_555
O11 Sr6 2.702219 1_554
O12 Ta2 1.939529 1_665
O12 Sr3 2.502933 1_555
O12 Sr5 2.552427 1_555
O12 Sr6 2.702221 1_554
O13 Ta0 2.138206 1_665
O13 Ta1 2.138206 1_665
O13 Sr4 2.408639 1_555
O13 Sr1 2.408639 1_555
O14 Ta0 1.939529 1_665
O14 Sr0 2.502928 1_655
O14 Sr4 2.552426 1_555
O14 Sr7 2.702219 1_555
O15 Ta0 1.939529 1_655
O15 Sr0 2.502931 1_545
O15 Sr4 2.552423 1_555
O15 Sr7 2.702217 1_555
O16 Ta3 2.138206 1_655
O16 Ta2 2.138206 1_655
O16 Sr5 2.408633 1_555
O16 Sr2 2.408637 1_545
O17 Ta2 1.939529 1_655
O17 Sr3 2.502931 1_655
O17 Sr5 2.552423 1_555
O17 Sr6 2.702217 1_554
