# generated using pymatgen
data_Li12V3FeP4(CO7)4
_symmetry_space_group_name_H-M   'P 1'
_cell_length_a   6.59927200
_cell_length_b   8.48456500
_cell_length_c   10.01196074
_cell_angle_alpha   84.88296564
_cell_angle_beta   90.00000000
_cell_angle_gamma   90.00000000
_symmetry_Int_Tables_number   1
_chemical_formula_structural   Li12V3FeP4(CO7)4
_chemical_formula_sum   'Li12 V3 Fe1 P4 C4 O28'
_cell_volume   558.35505123
_cell_formula_units_Z   1
loop_
 _symmetry_equiv_pos_site_id
 _symmetry_equiv_pos_as_xyz
  1  'x, y, z'
loop_
 _atom_site_type_symbol
 _atom_site_label
 _atom_site_symmetry_multiplicity
 _atom_site_fract_x
 _atom_site_fract_y
 _atom_site_fract_z
 _atom_site_occupancy
  Li  Li0  1  0.00000000  0.90585400  0.61922100  1
  Li  Li1  1  0.00000000  0.90695700  0.11945700  1
  Li  Li2  1  0.22191900  0.72289800  0.87648200  1
  Li  Li3  1  0.77808100  0.72289800  0.87648200  1
  Li  Li4  1  0.22118600  0.72381000  0.37674400  1
  Li  Li5  1  0.77881400  0.72381000  0.37674400  1
  Li  Li6  1  0.72498200  0.27659100  0.62365800  1
  Li  Li7  1  0.27501800  0.27659100  0.62365800  1
  Li  Li8  1  0.72345000  0.27630300  0.12334900  1
  Li  Li9  1  0.27655000  0.27630300  0.12334900  1
  Li  Li10  1  0.50000000  0.09350500  0.88104500  1
  Li  Li11  1  0.50000000  0.09180100  0.38067400  1
  V  V0  1  0.50000000  0.67001600  0.60371900  1
  V  V1  1  0.50000000  0.67011200  0.10330300  1
  V  V2  1  0.00000000  0.33012400  0.89637000  1
  Fe  Fe0  1  0.00000000  0.33456900  0.39473200  1
  P  P0  1  0.00000000  0.58867800  0.64029300  1
  P  P1  1  0.00000000  0.58899100  0.13998500  1
  P  P2  1  0.50000000  0.41079600  0.85966200  1
  P  P3  1  0.50000000  0.41107100  0.35958900  1
  C  C0  1  0.50000000  0.96580200  0.64993500  1
  C  C1  1  0.50000000  0.96561700  0.15001200  1
  C  C2  1  0.00000000  0.03434800  0.85013100  1
  C  C3  1  0.00000000  0.03451000  0.35099200  1
  O  O0  1  0.50000000  0.92577000  0.52752200  1
  O  O1  1  0.00000000  0.88793900  0.82300700  1
  O  O2  1  0.50000000  0.92590900  0.02744800  1
  O  O3  1  0.50000000  0.85238600  0.74692700  1
  O  O4  1  0.00000000  0.88788000  0.32183100  1
  O  O5  1  0.50000000  0.85214900  0.24685400  1
  O  O6  1  0.18301500  0.69153700  0.58652800  1
  O  O7  1  0.81698500  0.69153700  0.58652800  1
  O  O8  1  0.18312000  0.69173500  0.08654200  1
  O  O9  1  0.81688000  0.69173500  0.08654200  1
  O  O10  1  0.50000000  0.57831800  0.90934000  1
  O  O11  1  0.00000000  0.57118800  0.79724100  1
  O  O12  1  0.50000000  0.57823000  0.40973000  1
  O  O13  1  0.00000000  0.57074000  0.29668000  1
  O  O14  1  0.50000000  0.42923800  0.70308100  1
  O  O15  1  0.00000000  0.42127300  0.59130900  1
  O  O16  1  0.50000000  0.42903700  0.20291600  1
  O  O17  1  0.00000000  0.42182900  0.08996800  1
  O  O18  1  0.31709300  0.30804400  0.91350500  1
  O  O19  1  0.68290700  0.30804400  0.91350500  1
  O  O20  1  0.68533100  0.30950200  0.41263500  1
  O  O21  1  0.31466900  0.30950200  0.41263500  1
  O  O22  1  0.00000000  0.14764200  0.75334600  1
  O  O23  1  0.50000000  0.11211400  0.67693700  1
  O  O24  1  0.00000000  0.14799600  0.25421500  1
  O  O25  1  0.00000000  0.07404500  0.97269600  1
  O  O26  1  0.50000000  0.11184500  0.17721400  1
  O  O27  1  0.00000000  0.07088500  0.47373100  1
loop_
_geom_bond_atom_site_label_1
_geom_bond_atom_site_label_2
_geom_bond_distance
_geom_bond_site_symmetry_2
Li0 O27 1.928362 1_565
Li0 O1 2.032387 1_555
Li0 O7 2.231264 1_455
Li0 O6 2.231264 1_555
Li0 O22 2.550133 1_565
Li1 O25 1.948651 1_564
Li1 O4 2.018174 1_555
Li1 O8 2.238488 1_555
Li1 O9 2.238488 1_455
Li1 O24 2.548528 1_565
Li2 O1 2.063619 1_555
Li2 O8 2.111719 1_556
Li2 O11 2.147840 1_555
Li2 O10 2.215567 1_555
Li2 O3 2.450103 1_555
Li3 O1 2.063619 1_655
Li3 O9 2.111719 1_556
Li3 O11 2.147840 1_655
Li3 O10 2.215567 1_555
Li3 O3 2.450103 1_555
Li4 O4 2.057719 1_555
Li4 O6 2.108864 1_555
Li4 O13 2.155365 1_555
Li4 O12 2.224290 1_555
Li4 O5 2.451484 1_555
Li5 O4 2.057719 1_655
Li5 O7 2.108864 1_555
Li5 O13 2.155365 1_655
Li5 O12 2.224290 1_555
Li5 O5 2.451484 1_555
Li6 O23 2.074514 1_555
Li6 O20 2.122483 1_555
Li6 O14 2.167442 1_555
Li6 O15 2.198822 1_655
Li6 O22 2.433814 1_655
Li7 O23 2.074514 1_555
Li7 O21 2.122483 1_555
Li7 O14 2.167442 1_555
Li7 O15 2.198822 1_555
Li7 O22 2.433814 1_555
Li8 O26 2.068354 1_555
Li8 O19 2.111202 1_554
Li8 O16 2.161603 1_555
Li8 O17 2.212094 1_655
Li8 O24 2.445015 1_655
Li9 O26 2.068354 1_555
Li9 O18 2.111202 1_554
Li9 O16 2.161603 1_555
Li9 O17 2.212094 1_555
Li9 O24 2.445015 1_555
Li10 O2 1.949035 1_546
Li10 O23 2.035523 1_555
Li10 O18 2.231928 1_555
Li10 O19 2.231928 1_555
Li10 O3 2.545260 1_545
Li11 O0 1.943344 1_545
Li11 O26 2.028948 1_555
Li11 O21 2.261736 1_555
Li11 O20 2.261736 1_555
Li11 O5 2.532885 1_545
Fe0 O21 2.093507 1_555
Fe0 O20 2.093507 1_455
Fe0 O13 2.151295 1_555
Fe0 O15 2.161699 1_555
Fe0 O24 2.209604 1_555
Fe0 O27 2.305470 1_555
C0 O23 1.293835 1_565
C0 O0 1.300654 1_555
C0 O3 1.304722 1_555
C1 O26 1.293729 1_565
C1 O2 1.301169 1_555
C1 O5 1.304000 1_555
C2 O1 1.295000 1_545
C2 O25 1.301146 1_555
C2 O22 1.302622 1_555
C3 O27 1.293443 1_555
C3 O4 1.302995 1_545
C3 O24 1.303662 1_555
O0 V0 2.235045 1_555
O2 V1 2.234518 1_555
O3 V0 2.201304 1_555
O5 V1 2.201610 1_555
O6 P0 1.557655 1_555
O6 V0 2.105536 1_555
O7 P0 1.557655 1_655
O7 V0 2.105536 1_555
O8 P1 1.556726 1_555
O8 V1 2.104602 1_555
O9 P1 1.556726 1_655
O9 V1 2.104602 1_555
O10 P2 1.547167 1_555
O10 V1 2.155816 1_556
O11 P0 1.565116 1_555
O11 V2 2.192317 1_555
O12 P3 1.546128 1_555
O12 V0 2.156029 1_555
O13 P1 1.562643 1_555
O14 P2 1.561524 1_555
O14 V0 2.191015 1_555
O15 P0 1.543435 1_555
O16 P3 1.562403 1_555
O16 V1 2.194195 1_555
O17 P1 1.545648 1_555
O17 V2 2.152073 1_554
O18 P2 1.556853 1_555
O18 V2 2.106584 1_555
O19 P2 1.556853 1_555
O19 V2 2.106584 1_655
O20 P3 1.561703 1_555
O21 P3 1.561703 1_555
O22 V2 2.200713 1_555
O25 V2 2.237967 1_555
