# generated using pymatgen
data_Li3NiOF3
_symmetry_space_group_name_H-M   'P 1'
_cell_length_a   2.90949338
_cell_length_b   16.88782488
_cell_length_c   5.81896131
_cell_angle_alpha   99.92056635
_cell_angle_beta   90.00019495
_cell_angle_gamma   90.00002180
_symmetry_Int_Tables_number   1
_chemical_formula_structural   Li3NiOF3
_chemical_formula_sum   'Li12 Ni4 O4 F12'
_cell_volume   281.63962311
_cell_formula_units_Z   4
loop_
 _symmetry_equiv_pos_site_id
 _symmetry_equiv_pos_as_xyz
  1  'x, y, z'
loop_
 _atom_site_type_symbol
 _atom_site_label
 _atom_site_symmetry_multiplicity
 _atom_site_fract_x
 _atom_site_fract_y
 _atom_site_fract_z
 _atom_site_occupancy
  Li  Li0  1  0.00007000  0.25000000  0.62496400  1
  Li  Li1  1  0.00007000  0.75000000  0.87496400  1
  Li  Li2  1  0.00007000  0.25000000  0.12496400  1
  Li  Li3  1  0.00007000  0.75000000  0.37496400  1
  Li  Li4  1  0.50005500  0.12570300  0.31282300  1
  Li  Li5  1  0.50005500  0.62570300  0.56282300  1
  Li  Li6  1  0.50005500  0.12570300  0.81282300  1
  Li  Li7  1  0.50005500  0.62570300  0.06282300  1
  Li  Li8  1  0.50005400  0.37429600  0.43712000  1
  Li  Li9  1  0.50005400  0.87429600  0.68712000  1
  Li  Li10  1  0.50005400  0.37429600  0.93712000  1
  Li  Li11  1  0.50005400  0.87429600  0.18712000  1
  Ni  Ni0  1  0.99979000  0.00000200  0.00011100  1
  Ni  Ni1  1  0.99979000  0.50000200  0.25011100  1
  Ni  Ni2  1  0.99979000  0.00000200  0.50011100  1
  Ni  Ni3  1  0.99979000  0.50000200  0.75011100  1
  O  O0  1  0.49988700  0.50000000  0.50005800  1
  O  O1  1  0.49988700  0.00000000  0.75005800  1
  O  O2  1  0.49988700  0.50000000  0.00005800  1
  O  O3  1  0.49988700  0.00000000  0.25005800  1
  F  F0  1  0.50002600  0.24999900  0.37498600  1
  F  F1  1  0.50002600  0.74999900  0.62498600  1
  F  F2  1  0.50002600  0.24999900  0.87498600  1
  F  F3  1  0.50002600  0.74999900  0.12498600  1
  F  F4  1  0.00006100  0.12988100  0.56490900  1
  F  F5  1  0.00006100  0.62988100  0.81490900  1
  F  F6  1  0.00006100  0.12988100  0.06490900  1
  F  F7  1  0.00006100  0.62988100  0.31490900  1
  F  F8  1  0.00005700  0.37011800  0.68502800  1
  F  F9  1  0.00005700  0.87011800  0.93502800  1
  F  F10  1  0.00005700  0.37011800  0.18502800  1
  F  F11  1  0.00005700  0.87011800  0.43502800  1
loop_
_geom_bond_atom_site_label_1
_geom_bond_atom_site_label_2
_geom_bond_distance
_geom_bond_site_symmetry_2
Li4 O3 2.091109 1_555
Li5 O0 2.091109 1_555
Li6 O1 2.091109 1_555
Li7 O2 2.091109 1_555
Li8 O0 2.091125 1_555
Li9 O1 2.091125 1_565
Li10 O2 2.091125 1_556
Li11 O3 2.091125 1_565
Ni0 O3 2.056908 1_555
Ni0 O3 2.057300 1_655
Ni0 O1 2.057329 1_554
Ni0 O1 2.057735 1_654
Ni1 O0 2.056908 1_555
Ni1 O0 2.057300 1_655
Ni1 O2 2.057329 1_555
Ni1 O2 2.057735 1_655
Ni2 O1 2.056908 1_555
Ni2 O1 2.057300 1_655
Ni2 O3 2.057329 1_555
Ni2 O3 2.057735 1_655
Ni3 O2 2.056908 1_556
Ni3 O2 2.057300 1_656
Ni3 O0 2.057329 1_555
Ni3 O0 2.057735 1_655
F0 Li0 2.057138 1_555
F0 Li0 2.057312 1_655
F0 Li2 2.057317 1_555
F0 Li2 2.057505 1_655
F0 Li4 2.067703 1_555
F0 Li8 2.067719 1_555
F1 Li1 2.057138 1_555
F1 Li1 2.057312 1_655
F1 Li3 2.057317 1_555
F1 Li3 2.057505 1_655
F1 Li5 2.067703 1_555
F1 Li9 2.067719 1_555
F2 Li2 2.057138 1_556
F2 Li2 2.057312 1_656
F2 Li0 2.057317 1_555
F2 Li0 2.057505 1_655
F2 Li6 2.067703 1_555
F2 Li10 2.067719 1_555
F3 Li3 2.057138 1_555
F3 Li3 2.057312 1_655
F3 Li1 2.057317 1_554
F3 Li1 2.057505 1_654
F3 Li7 2.067703 1_555
F3 Li11 2.067719 1_555
F4 Li0 1.998217 1_555
F4 Li4 2.058471 1_555
F4 Li4 2.058488 1_455
F4 Li6 2.058488 1_555
F4 Li6 2.058520 1_455
F4 Ni2 2.160578 1_455
F5 Li1 1.998217 1_555
F5 Li5 2.058471 1_555
F5 Li5 2.058488 1_455
F5 Li7 2.058488 1_556
F5 Li7 2.058520 1_456
F5 Ni3 2.160578 1_455
F6 Li2 1.998217 1_555
F6 Li6 2.058471 1_554
F6 Li6 2.058488 1_454
F6 Li4 2.058488 1_555
F6 Li4 2.058520 1_455
F6 Ni0 2.160578 1_455
F7 Li3 1.998217 1_555
F7 Li7 2.058471 1_555
F7 Li7 2.058488 1_455
F7 Li5 2.058488 1_555
F7 Li5 2.058520 1_455
F7 Ni1 2.160578 1_455
F8 Li0 1.998200 1_555
F8 Li8 2.058477 1_555
F8 Li8 2.058482 1_455
F8 Li10 2.058494 1_555
F8 Li10 2.058514 1_455
F8 Ni3 2.160661 1_455
F9 Li1 1.998200 1_555
F9 Li9 2.058477 1_555
F9 Li9 2.058482 1_455
F9 Li11 2.058494 1_556
F9 Li11 2.058514 1_456
F9 Ni0 2.160661 1_466
F10 Li2 1.998200 1_555
F10 Li10 2.058477 1_554
F10 Li10 2.058482 1_454
F10 Li8 2.058494 1_555
F10 Li8 2.058514 1_455
F10 Ni1 2.160661 1_455
F11 Li3 1.998200 1_555
F11 Li11 2.058477 1_555
F11 Li11 2.058482 1_455
F11 Li9 2.058494 1_555
F11 Li9 2.058514 1_455
F11 Ni2 2.160661 1_465
