# generated using pymatgen
data_Li4CrCo3O8
_symmetry_space_group_name_H-M   'P 1'
_cell_length_a   5.89439733
_cell_length_b   5.89439733
_cell_length_c   5.89439716
_cell_angle_alpha   59.85810717
_cell_angle_beta   59.85810717
_cell_angle_gamma   59.85811791
_symmetry_Int_Tables_number   1
_chemical_formula_structural   Li4CrCo3O8
_chemical_formula_sum   'Li4 Cr1 Co3 O8'
_cell_volume   144.34528251
_cell_formula_units_Z   1
loop_
 _symmetry_equiv_pos_site_id
 _symmetry_equiv_pos_as_xyz
  1  'x, y, z'
loop_
 _atom_site_type_symbol
 _atom_site_label
 _atom_site_symmetry_multiplicity
 _atom_site_fract_x
 _atom_site_fract_y
 _atom_site_fract_z
 _atom_site_occupancy
  Li  Li0  1  0.50000000  0.50000000  0.50000000  1
  Li  Li1  1  0.50000000  0.00000000  0.00000000  1
  Li  Li2  1  0.00000000  0.00000000  0.50000000  1
  Li  Li3  1  0.00000000  0.50000000  0.00000000  1
  Cr  Cr0  1  0.00000000  0.00000000  0.00000000  1
  Co  Co0  1  0.50000000  0.50000000  0.00000000  1
  Co  Co1  1  0.50000000  0.00000000  0.50000000  1
  Co  Co2  1  0.00000000  0.50000000  0.50000000  1
  O  O0  1  0.75850100  0.25688400  0.75850100  1
  O  O1  1  0.74372700  0.74372700  0.74372700  1
  O  O2  1  0.75850100  0.75850100  0.25688400  1
  O  O3  1  0.25688400  0.75850100  0.75850100  1
  O  O4  1  0.74311600  0.24149900  0.24149900  1
  O  O5  1  0.24149900  0.24149900  0.74311600  1
  O  O6  1  0.25627300  0.25627300  0.25627300  1
  O  O7  1  0.24149900  0.74311600  0.24149900  1
loop_
_geom_bond_atom_site_label_1
_geom_bond_atom_site_label_2
_geom_bond_distance
_geom_bond_site_symmetry_2
Li0 O5 2.154722 1_555
Li0 O2 2.154722 1_555
Li0 O4 2.154722 1_555
Li0 O3 2.154722 1_555
Li0 O0 2.154722 1_555
Li0 O7 2.154722 1_555
Li1 O6 2.135490 1_555
Li1 O1 2.135490 1_544
Li1 O0 2.148222 1_554
Li1 O7 2.148222 1_545
Li1 O2 2.148222 1_545
Li1 O5 2.148222 1_554
Li2 O6 2.135490 1_555
Li2 O1 2.135490 1_445
Li2 O3 2.148222 1_545
Li2 O7 2.148222 1_545
Li2 O0 2.148222 1_455
Li2 O4 2.148222 1_455
Li3 O6 2.135490 1_555
Li3 O1 2.135490 1_454
Li3 O3 2.148222 1_554
Li3 O4 2.148222 1_455
Li3 O2 2.148222 1_455
Li3 O5 2.148222 1_554
Cr0 O2 2.012731 1_445
Cr0 O5 2.012731 1_554
Cr0 O4 2.012731 1_455
Cr0 O3 2.012731 1_544
Cr0 O7 2.012731 1_545
Cr0 O0 2.012731 1_454
Co0 O0 2.019667 1_554
Co0 O3 2.019667 1_554
Co0 O7 2.019667 1_555
Co0 O4 2.019667 1_555
Co0 O1 2.030637 1_554
Co0 O6 2.030637 1_555
Co1 O4 2.019667 1_555
Co1 O3 2.019667 1_545
Co1 O2 2.019667 1_545
Co1 O5 2.019667 1_555
Co1 O1 2.030637 1_545
Co1 O6 2.030637 1_555
Co2 O0 2.019667 1_455
Co2 O7 2.019667 1_555
Co2 O2 2.019667 1_455
Co2 O5 2.019667 1_555
Co2 O1 2.030637 1_455
Co2 O6 2.030637 1_555
