# generated using pymatgen
data_LiFeF3
_symmetry_space_group_name_H-M   'P 1'
_cell_length_a   5.33027000
_cell_length_b   5.35338600
_cell_length_c   7.89610100
_cell_angle_alpha   90.00000000
_cell_angle_beta   90.00000000
_cell_angle_gamma   90.00000000
_symmetry_Int_Tables_number   1
_chemical_formula_structural   LiFeF3
_chemical_formula_sum   'Li4 Fe4 F12'
_cell_volume   225.31518514
_cell_formula_units_Z   4
loop_
 _symmetry_equiv_pos_site_id
 _symmetry_equiv_pos_as_xyz
  1  'x, y, z'
loop_
 _atom_site_type_symbol
 _atom_site_label
 _atom_site_symmetry_multiplicity
 _atom_site_fract_x
 _atom_site_fract_y
 _atom_site_fract_z
 _atom_site_occupancy
  Li  Li0  1  0.02484200  0.01649300  0.25000000  1
  Li  Li1  1  0.47515800  0.51649300  0.75000000  1
  Li  Li2  1  0.52484200  0.48350700  0.25000000  1
  Li  Li3  1  0.97515800  0.98350700  0.75000000  1
  Fe  Fe0  1  0.00000000  0.50000000  0.00000000  1
  Fe  Fe1  1  0.00000000  0.50000000  0.50000000  1
  Fe  Fe2  1  0.50000000  0.00000000  0.50000000  1
  Fe  Fe3  1  0.50000000  0.00000000  0.00000000  1
  F  F0  1  0.10525300  0.63360200  0.75000000  1
  F  F1  1  0.16999800  0.16322900  0.92544400  1
  F  F2  1  0.16999800  0.16322900  0.57455600  1
  F  F3  1  0.33000200  0.66322900  0.07455600  1
  F  F4  1  0.33000200  0.66322900  0.42544400  1
  F  F5  1  0.39474700  0.13360200  0.25000000  1
  F  F6  1  0.60525300  0.86639800  0.75000000  1
  F  F7  1  0.66999800  0.33677100  0.57455600  1
  F  F8  1  0.66999800  0.33677100  0.92544400  1
  F  F9  1  0.83000200  0.83677100  0.07455600  1
  F  F10  1  0.83000200  0.83677100  0.42544400  1
  F  F11  1  0.89474700  0.36639800  0.25000000  1
loop_
_geom_bond_atom_site_label_1
_geom_bond_atom_site_label_2
_geom_bond_distance
_geom_bond_site_symmetry_2
F0 Li3 1.997411 1_455
F0 Li1 2.068965 1_555
F0 Fe1 2.173263 1_555
F0 Fe0 2.173263 1_556
F1 Li3 1.980753 1_445
F1 Fe3 2.050421 1_556
F1 Fe0 2.101898 1_556
F2 Li3 1.980753 1_445
F2 Fe2 2.050421 1_555
F2 Fe1 2.101898 1_555
F3 Li2 1.980753 1_555
F3 Fe0 2.050421 1_555
F3 Fe3 2.101898 1_565
F4 Li2 1.980753 1_555
F4 Fe1 2.050421 1_555
F4 Fe2 2.101898 1_565
F5 Li2 1.997411 1_555
F5 Li0 2.068965 1_555
F5 Fe2 2.173263 1_555
F5 Fe3 2.173263 1_555
F6 Li1 1.997411 1_555
F6 Li3 2.068965 1_555
F6 Fe3 2.173263 1_566
F6 Fe2 2.173263 1_565
F7 Li1 1.980753 1_555
F7 Fe1 2.050421 1_655
F7 Fe2 2.101898 1_555
F8 Li1 1.980753 1_555
F8 Fe0 2.050421 1_656
F8 Fe3 2.101898 1_556
F9 Li0 1.980753 1_665
F9 Fe3 2.050421 1_565
F9 Fe0 2.101898 1_655
F10 Li0 1.980753 1_665
F10 Fe2 2.050421 1_565
F10 Fe1 2.101898 1_655
F11 Li0 1.997411 1_655
F11 Li2 2.068965 1_555
F11 Fe1 2.173263 1_655
F11 Fe0 2.173263 1_655
