# generated using pymatgen
data_Na4Mn2C4SO16
_symmetry_space_group_name_H-M   'P 1'
_cell_length_a   10.08079789
_cell_length_b   9.87035325
_cell_length_c   9.84091735
_cell_angle_alpha   61.51711357
_cell_angle_beta   59.38521227
_cell_angle_gamma   59.09767415
_symmetry_Int_Tables_number   1
_chemical_formula_structural   Na4Mn2C4SO16
_chemical_formula_sum   'Na8 Mn4 C8 S2 O32'
_cell_volume   691.63797204
_cell_formula_units_Z   2
loop_
 _symmetry_equiv_pos_site_id
 _symmetry_equiv_pos_as_xyz
  1  'x, y, z'
loop_
 _atom_site_type_symbol
 _atom_site_label
 _atom_site_symmetry_multiplicity
 _atom_site_fract_x
 _atom_site_fract_y
 _atom_site_fract_z
 _atom_site_occupancy
  Na  Na0  1  0.54591400  0.54591400  0.95408600  1
  Na  Na1  1  0.95983300  0.54016700  0.54016700  1
  Na  Na2  1  0.70983300  0.29016700  0.29016700  1
  Na  Na3  1  0.29591400  0.29591400  0.70408600  1
  Na  Na4  1  0.95408600  0.95408600  0.54591400  1
  Na  Na5  1  0.54016700  0.95983300  0.95983300  1
  Na  Na6  1  0.29016700  0.70983300  0.70983300  1
  Na  Na7  1  0.70408600  0.70408600  0.29591400  1
  Mn  Mn0  1  0.12500000  0.12500000  0.12500000  1
  Mn  Mn1  1  0.12500000  0.62500000  0.12500000  1
  Mn  Mn2  1  0.62500000  0.12500000  0.12500000  1
  Mn  Mn3  1  0.12500000  0.12500000  0.62500000  1
  C  C0  1  0.91989800  0.26892600  0.91300800  1
  C  C1  1  0.26892600  0.91989800  0.89816800  1
  C  C2  1  0.33699200  0.35183200  0.33010200  1
  C  C3  1  0.89816800  0.91300800  0.26892600  1
  C  C4  1  0.35183200  0.33699200  0.98107400  1
  C  C5  1  0.91300800  0.89816800  0.91989800  1
  C  C6  1  0.98107400  0.33010200  0.35183200  1
  C  C7  1  0.33010200  0.98107400  0.33699200  1
  S  S0  1  0.50000000  0.50000000  0.50000000  1
  S  S1  1  0.75000000  0.75000000  0.75000000  1
  O  O0  1  0.94750000  0.27363000  0.76567900  1
  O  O1  1  0.28069000  0.77645400  0.91957000  1
  O  O2  1  0.77645400  0.28069000  0.02328600  1
  O  O3  1  0.31041700  0.48755700  0.21086700  1
  O  O4  1  0.76244300  0.93958300  0.25884100  1
  O  O5  1  0.27363000  0.94750000  0.01319000  1
  O  O6  1  0.48432100  0.23681000  0.30250000  1
  O  O7  1  0.01319000  0.76567900  0.27363000  1
  O  O8  1  0.22671400  0.33043000  0.47354600  1
  O  O9  1  0.91957000  0.02328600  0.28069000  1
  O  O10  1  0.56590400  0.55640100  0.31538900  1
  O  O11  1  0.69359900  0.68409600  0.68769400  1
  O  O12  1  0.25884100  0.03913300  0.76244300  1
  O  O13  1  0.21086700  0.99115900  0.31041700  1
  O  O14  1  0.56230600  0.31538900  0.55640100  1
  O  O15  1  0.31538900  0.56230600  0.56590400  1
  O  O16  1  0.93461100  0.68769400  0.68409600  1
  O  O17  1  0.68769400  0.93461100  0.69359900  1
  O  O18  1  0.03913300  0.25884100  0.93958300  1
  O  O19  1  0.99115900  0.21086700  0.48755700  1
  O  O20  1  0.55640100  0.56590400  0.56230600  1
  O  O21  1  0.68409600  0.69359900  0.93461100  1
  O  O22  1  0.33043000  0.22671400  0.96931000  1
  O  O23  1  0.02328600  0.91957000  0.77645400  1
  O  O24  1  0.23681000  0.48432100  0.97637000  1
  O  O25  1  0.76567900  0.01319000  0.94750000  1
  O  O26  1  0.97637000  0.30250000  0.23681000  1
  O  O27  1  0.48755700  0.31041700  0.99115900  1
  O  O28  1  0.93958300  0.76244300  0.03913300  1
  O  O29  1  0.47354600  0.96931000  0.22671400  1
  O  O30  1  0.96931000  0.47354600  0.33043000  1
  O  O31  1  0.30250000  0.97637000  0.48432100  1
loop_
_geom_bond_atom_site_label_1
_geom_bond_atom_site_label_2
_geom_bond_distance
_geom_bond_site_symmetry_2
Na0 O21 2.376836 1_555
Na0 O11 2.376836 1_555
Na0 O3 2.501862 1_556
Na0 O27 2.501862 1_555
Na0 O2 2.525957 1_556
Na0 O1 2.525957 1_555
Na1 O11 2.326210 1_555
Na1 O16 2.326210 1_555
Na1 O30 2.393908 1_555
Na1 O8 2.393908 1_655
Na1 O7 2.519519 1_655
Na1 O0 2.519521 1_555
Na2 O14 2.326210 1_555
Na2 O10 2.326210 1_555
Na2 O2 2.393908 1_555
Na2 O9 2.393908 1_555
Na2 O6 2.519514 1_555
Na2 O26 2.519524 1_555
Na3 O14 2.376836 1_555
Na3 O15 2.376836 1_555
Na3 O18 2.501862 1_555
Na3 O12 2.501862 1_555
Na3 O22 2.525957 1_555
Na3 O8 2.525957 1_555
Na4 O17 2.376836 1_555
Na4 O16 2.376836 1_555
Na4 O19 2.501862 1_565
Na4 O13 2.501862 1_655
Na4 O23 2.525957 1_655
Na4 O9 2.525957 1_565
Na5 O17 2.326210 1_555
Na5 O21 2.326210 1_555
Na5 O22 2.393908 1_565
Na5 O29 2.393908 1_556
Na5 O25 2.519514 1_565
Na5 O5 2.519524 1_556
Na6 O15 2.326210 1_555
Na6 O20 2.326210 1_555
Na6 O23 2.393908 1_555
Na6 O1 2.393908 1_555
Na6 O24 2.519519 1_555
Na6 O31 2.519521 1_555
Na7 O20 2.376836 1_555
Na7 O10 2.376836 1_555
Na7 O4 2.501862 1_555
Na7 O28 2.501862 1_555
Na7 O30 2.525957 1_555
Na7 O29 2.525957 1_555
Mn0 O13 1.989707 1_545
Mn0 O18 1.989707 1_554
Mn0 O26 1.997071 1_455
Mn0 O5 1.997071 1_545
Mn0 O22 2.254045 1_554
Mn0 O9 2.254045 1_455
Mn1 O3 1.989707 1_555
Mn1 O28 1.989707 1_455
Mn1 O24 1.997063 1_554
Mn1 O7 1.997063 1_555
Mn1 O1 2.254045 1_554
Mn1 O30 2.254045 1_455
Mn2 O4 1.989707 1_545
Mn2 O27 1.989707 1_554
Mn2 O25 1.997071 1_554
Mn2 O6 1.997071 1_555
Mn2 O2 2.254045 1_555
Mn2 O29 2.254045 1_545
Mn3 O12 1.989707 1_555
Mn3 O19 1.989707 1_455
Mn3 O31 1.997065 1_545
Mn3 O0 1.997065 1_455
Mn3 O8 2.254045 1_555
Mn3 O23 2.254045 1_545
C0 O2 1.277337 1_556
C0 O18 1.302118 1_655
C0 O0 1.311419 1_555
C1 O1 1.277337 1_555
C1 O12 1.302118 1_565
C1 O5 1.311409 1_556
C2 O8 1.277337 1_555
C2 O3 1.302118 1_555
C2 O6 1.311415 1_555
C3 O9 1.277337 1_565
C3 O4 1.302118 1_555
C3 O7 1.311415 1_655
C4 O22 1.277337 1_555
C4 O27 1.302118 1_555
C4 O24 1.311415 1_555
C5 O23 1.277337 1_655
C5 O28 1.302118 1_556
C5 O25 1.311415 1_565
C6 O30 1.277337 1_555
C6 O19 1.302118 1_555
C6 O26 1.311409 1_555
C7 O29 1.277337 1_555
C7 O13 1.302118 1_555
C7 O31 1.311419 1_555
O10 S0 1.495912 1_555
O11 S1 1.495912 1_555
O14 S0 1.495912 1_555
O15 S0 1.495912 1_555
O16 S1 1.495912 1_555
O17 S1 1.495912 1_555
O20 S0 1.495912 1_555
O21 S1 1.495912 1_555
