# generated using pymatgen
data_K8Li3(FeO4)4
_symmetry_space_group_name_H-M   'P 1'
_cell_length_a   5.55322800
_cell_length_b   8.45075587
_cell_length_c   10.94827275
_cell_angle_alpha   86.27140274
_cell_angle_beta   84.78058377
_cell_angle_gamma   89.05727873
_symmetry_Int_Tables_number   1
_chemical_formula_structural   K8Li3(FeO4)4
_chemical_formula_sum   'K8 Li3 Fe4 O16'
_cell_volume   510.54909572
_cell_formula_units_Z   1
loop_
 _symmetry_equiv_pos_site_id
 _symmetry_equiv_pos_as_xyz
  1  'x, y, z'
loop_
 _atom_site_type_symbol
 _atom_site_label
 _atom_site_symmetry_multiplicity
 _atom_site_fract_x
 _atom_site_fract_y
 _atom_site_fract_z
 _atom_site_occupancy
  K  K0  1  0.20551500  0.98328700  0.16762000  1
  K  K1  1  0.20071800  0.25794700  0.63218800  1
  K  K2  1  0.29051400  0.49299600  0.34163800  1
  K  K3  1  0.32339200  0.76934300  0.86499300  1
  K  K4  1  0.67977000  0.26027300  0.11014800  1
  K  K5  1  0.72120600  0.50144400  0.69887900  1
  K  K6  1  0.80338400  0.73786200  0.36839700  1
  K  K7  1  0.79335700  0.01377000  0.82735400  1
  Li  Li0  1  0.21648800  0.02444200  0.43166400  1
  Li  Li1  1  0.27918300  0.51614000  0.06125400  1
  Li  Li2  1  0.78980700  0.97327100  0.56654500  1
  Fe  Fe0  1  0.20071600  0.27986300  0.93356800  1
  Fe  Fe1  1  0.29390700  0.77442100  0.56704700  1
  Fe  Fe2  1  0.71422700  0.22302700  0.43179200  1
  Fe  Fe3  1  0.79326600  0.71396300  0.06286300  1
  O  O0  1  0.16590900  0.30082800  0.09185500  1
  O  O1  1  0.06880600  0.68834600  0.12043700  1
  O  O2  1  0.12038600  0.94030400  0.61506800  1
  O  O3  1  0.19253400  0.58290200  0.58961700  1
  O  O4  1  0.44037300  0.19005100  0.37154600  1
  O  O5  1  0.31499300  0.80081600  0.40608200  1
  O  O6  1  0.30860400  0.09246700  0.90340900  1
  O  O7  1  0.37615500  0.44363600  0.89398600  1
  O  O8  1  0.58563000  0.57960600  0.12261600  1
  O  O9  1  0.70553700  0.89929600  0.09400200  1
  O  O10  1  0.68930600  0.19726000  0.59273400  1
  O  O11  1  0.56684700  0.80701600  0.62886000  1
  O  O12  1  0.80843500  0.41654300  0.40938100  1
  O  O13  1  0.88636300  0.05421800  0.38704000  1
  O  O14  1  0.93376700  0.28866000  0.86816000  1
  O  O15  1  0.83190200  0.70534800  0.91041200  1
loop_
_geom_bond_atom_site_label_1
_geom_bond_atom_site_label_2
_geom_bond_distance
_geom_bond_site_symmetry_2
K0 O1 2.712324 1_555
K0 O0 2.767972 1_565
K0 O9 2.909647 1_555
K0 O13 2.940924 1_465
K0 O6 2.985873 1_564
K0 O5 3.049223 1_555
K0 O9 3.067365 1_455
K1 O2 2.749506 1_545
K1 O10 2.753374 1_555
K1 O3 2.755672 1_555
K1 O14 2.883945 1_455
K1 O10 2.969017 1_455
K2 O4 2.687825 1_555
K2 O5 2.747890 1_555
K2 O12 2.787056 1_455
K2 O8 2.840374 1_555
K2 O3 2.868820 1_555
K2 O12 3.082901 1_555
K2 O1 3.172026 1_555
K3 O7 2.763956 1_555
K3 O15 2.784922 1_455
K3 O6 2.788504 1_565
K3 O11 2.807823 1_555
K3 O15 2.946904 1_555
K4 O0 2.714549 1_655
K4 O8 2.750074 1_555
K4 O14 2.883523 1_554
K4 O0 2.891954 1_555
K4 O9 3.067347 1_545
K4 O4 3.069628 1_555
K5 O7 2.761072 1_555
K5 O11 2.789271 1_555
K5 O14 2.820709 1_555
K5 O3 2.852737 1_655
K5 O10 2.903574 1_555
K5 O15 3.086016 1_555
K5 O12 3.286360 1_555
K5 O3 3.315016 1_555
K6 O12 2.723375 1_555
K6 O13 2.744073 1_565
K6 O5 2.754356 1_555
K6 O5 2.969269 1_655
K6 O1 3.019411 1_655
K6 O11 3.115871 1_555
K6 O9 3.304676 1_555
K7 O14 2.542044 1_555
K7 O15 2.715664 1_545
K7 O6 2.826214 1_555
Li0 O4 1.930335 1_555
Li0 O13 1.947981 1_455
Li0 O5 1.988970 1_545
Li0 O2 2.110473 1_545
Li1 O0 1.933578 1_555
Li1 O1 1.957417 1_555
Li1 O8 1.979875 1_555
Li1 O7 1.993667 1_554
Li2 O11 1.936832 1_555
Li2 O2 1.967558 1_655
Li2 O10 1.995842 1_565
Li2 O13 2.064760 1_565
Fe0 O14 1.702504 1_455
Fe0 O7 1.715222 1_555
Fe0 O6 1.725306 1_555
Fe0 O0 1.746366 1_556
Fe1 O3 1.717587 1_555
Fe1 O11 1.748086 1_555
Fe1 O5 1.755368 1_555
Fe1 O2 1.768988 1_555
Fe2 O12 1.720726 1_555
Fe2 O4 1.745229 1_555
Fe2 O10 1.754441 1_555
Fe2 O13 1.774747 1_555
Fe3 O15 1.669515 1_554
Fe3 O9 1.679489 1_555
Fe3 O8 1.689941 1_555
Fe3 O1 1.712407 1_655
