# generated using pymatgen
data_K2LuSi4O11
_symmetry_space_group_name_H-M   'P 1'
_cell_length_a   8.62504600
_cell_length_b   11.68512100
_cell_length_c   11.83010728
_cell_angle_alpha   68.01074026
_cell_angle_beta   90.00000000
_cell_angle_gamma   90.00000000
_symmetry_Int_Tables_number   1
_chemical_formula_structural   K2LuSi4O11
_chemical_formula_sum   'K8 Lu4 Si16 O44'
_cell_volume   1105.55934578
_cell_formula_units_Z   4
loop_
 _symmetry_equiv_pos_site_id
 _symmetry_equiv_pos_as_xyz
  1  'x, y, z'
loop_
 _atom_site_type_symbol
 _atom_site_label
 _atom_site_symmetry_multiplicity
 _atom_site_fract_x
 _atom_site_fract_y
 _atom_site_fract_z
 _atom_site_occupancy
  K  K0  1  0.75000000  0.44412400  0.94096000  1
  K  K1  1  0.25000000  0.55587600  0.05904000  1
  K  K2  1  0.75000000  0.01054200  0.97469900  1
  K  K3  1  0.25000000  0.98945800  0.02530100  1
  K  K4  1  0.25000000  0.08774300  0.41917000  1
  K  K5  1  0.75000000  0.91225700  0.58083000  1
  K  K6  1  0.25000000  0.47104100  0.46184800  1
  K  K7  1  0.75000000  0.52895900  0.53815200  1
  Lu  Lu0  1  0.00264000  0.28861500  0.79156000  1
  Lu  Lu1  1  0.50264000  0.71138500  0.20844000  1
  Lu  Lu2  1  0.99736000  0.71138500  0.20844000  1
  Lu  Lu3  1  0.49736000  0.28861500  0.79156000  1
  Si  Si0  1  0.93690400  0.39190000  0.26774700  1
  Si  Si1  1  0.43690400  0.60810000  0.73225300  1
  Si  Si2  1  0.06309600  0.60810000  0.73225300  1
  Si  Si3  1  0.56309600  0.39190000  0.26774700  1
  Si  Si4  1  0.92854200  0.98808600  0.25714200  1
  Si  Si5  1  0.42854200  0.01191400  0.74285800  1
  Si  Si6  1  0.07145800  0.01191400  0.74285800  1
  Si  Si7  1  0.57145800  0.98808600  0.25714200  1
  Si  Si8  1  0.92885000  0.22031200  0.53357400  1
  Si  Si9  1  0.42885000  0.77968800  0.46642600  1
  Si  Si10  1  0.07115000  0.77968800  0.46642600  1
  Si  Si11  1  0.57115000  0.22031200  0.53357400  1
  Si  Si12  1  0.06841100  0.24800400  0.11611500  1
  Si  Si13  1  0.56841100  0.75199600  0.88388500  1
  Si  Si14  1  0.93158900  0.75199600  0.88388500  1
  Si  Si15  1  0.43158900  0.24800400  0.11611500  1
  O  O0  1  0.75000000  0.25708900  0.83165500  1
  O  O1  1  0.25000000  0.74291100  0.16834500  1
  O  O2  1  0.75000000  0.17021800  0.53024800  1
  O  O3  1  0.25000000  0.82978200  0.46975200  1
  O  O4  1  0.75000000  0.04100500  0.25051400  1
  O  O5  1  0.25000000  0.95899500  0.74948600  1
  O  O6  1  0.75000000  0.40863700  0.27970300  1
  O  O7  1  0.25000000  0.59136300  0.72029700  1
  O  O8  1  0.96274700  0.34817200  0.15091600  1
  O  O9  1  0.46274700  0.65182800  0.84908400  1
  O  O10  1  0.03725300  0.65182800  0.84908400  1
  O  O11  1  0.53725300  0.34817200  0.15091600  1
  O  O12  1  0.94356300  0.31528800  0.60110400  1
  O  O13  1  0.44356300  0.68471200  0.39889600  1
  O  O14  1  0.05643700  0.68471200  0.39889600  1
  O  O15  1  0.55643700  0.31528800  0.60110400  1
  O  O16  1  0.96845700  0.48539200  0.74960000  1
  O  O17  1  0.46845700  0.51460800  0.25040000  1
  O  O18  1  0.03154300  0.51460800  0.25040000  1
  O  O19  1  0.53154300  0.48539200  0.74960000  1
  O  O20  1  0.02732800  0.25363000  0.98334000  1
  O  O21  1  0.52732800  0.74637000  0.01666000  1
  O  O22  1  0.97267200  0.74637000  0.01666000  1
  O  O23  1  0.47267200  0.25363000  0.98334000  1
  O  O24  1  0.99650700  0.27654800  0.39240400  1
  O  O25  1  0.49650700  0.72345200  0.60759600  1
  O  O26  1  0.00349300  0.72345200  0.60759600  1
  O  O27  1  0.50349300  0.27654800  0.39240400  1
  O  O28  1  0.03417300  0.09280700  0.59651500  1
  O  O29  1  0.53417300  0.90719300  0.40348500  1
  O  O30  1  0.96582700  0.90719300  0.40348500  1
  O  O31  1  0.46582700  0.09280700  0.59651500  1
  O  O32  1  0.04576500  0.10840800  0.22207700  1
  O  O33  1  0.54576500  0.89159200  0.77792300  1
  O  O34  1  0.95423500  0.89159200  0.77792300  1
  O  O35  1  0.45423500  0.10840800  0.22207700  1
  O  O36  1  0.25000000  0.32521900  0.74146800  1
  O  O37  1  0.75000000  0.67478100  0.25853200  1
  O  O38  1  0.25000000  0.28599000  0.13289000  1
  O  O39  1  0.75000000  0.71401000  0.86711000  1
  O  O40  1  0.04432800  0.09049000  0.82653800  1
  O  O41  1  0.54432800  0.90951000  0.17346200  1
  O  O42  1  0.95567200  0.90951000  0.17346200  1
  O  O43  1  0.45567200  0.09049000  0.82653800  1
loop_
_geom_bond_atom_site_label_1
_geom_bond_atom_site_label_2
_geom_bond_distance
_geom_bond_site_symmetry_2
K0 O16 2.844307 1_555
K0 O19 2.844307 1_555
K0 O0 2.926596 1_555
K0 O39 2.940325 1_555
K0 O8 2.950923 1_556
K0 O11 2.950923 1_556
K0 O20 3.176785 1_655
K0 O23 3.176785 1_555
K0 O10 3.351833 1_655
K0 O9 3.351833 1_555
K1 O17 2.844307 1_555
K1 O18 2.844307 1_555
K1 O1 2.926596 1_555
K1 O38 2.940325 1_555
K1 O9 2.950923 1_554
K1 O10 2.950923 1_554
K1 O22 3.176785 1_455
K1 O21 3.176785 1_555
K1 O11 3.351833 1_555
K1 O8 3.351833 1_455
K2 O0 2.740900 1_555
K2 O42 2.826794 1_546
K2 O41 2.826794 1_546
K2 O40 3.027068 1_655
K2 O43 3.027068 1_555
K3 O1 2.740900 1_555
K3 O43 2.826794 1_564
K3 O40 2.826794 1_564
K3 O41 3.027068 1_555
K3 O42 3.027068 1_455
K4 O31 2.821944 1_555
K4 O28 2.821944 1_555
K4 O3 2.844882 1_545
K4 O32 2.859404 1_555
K4 O35 2.859404 1_555
K4 O27 3.037231 1_555
K4 O24 3.037231 1_455
K4 O29 3.284214 1_545
K4 O30 3.284214 1_445
K4 O38 3.310746 1_555
K5 O29 2.821944 1_555
K5 O30 2.821944 1_555
K5 O2 2.844882 1_565
K5 O34 2.859404 1_555
K5 O33 2.859404 1_555
K5 O26 3.037231 1_655
K5 O25 3.037231 1_555
K5 O28 3.284214 1_665
K5 O31 3.284214 1_565
K5 O39 3.310746 1_555
K6 O13 2.860635 1_555
K6 O14 2.860635 1_555
K6 O17 3.018775 1_555
K6 O18 3.018775 1_555
K6 O36 3.102395 1_555
K6 O15 3.281259 1_555
K6 O12 3.281259 1_455
K7 O12 2.860635 1_555
K7 O15 2.860635 1_555
K7 O16 3.018775 1_555
K7 O19 3.018775 1_555
K7 O37 3.102395 1_555
K7 O14 3.281259 1_655
K7 O13 3.281259 1_555
Lu0 O20 2.159920 1_555
Lu0 O16 2.183038 1_455
Lu0 O36 2.212710 1_555
Lu0 O12 2.215269 1_455
Lu0 O40 2.223256 1_555
Lu0 O0 2.231148 1_455
Lu1 O21 2.159920 1_555
Lu1 O17 2.183038 1_555
Lu1 O37 2.212710 1_555
Lu1 O13 2.215269 1_555
Lu1 O41 2.223256 1_555
Lu1 O1 2.231148 1_555
Lu2 O22 2.159920 1_555
Lu2 O18 2.183038 1_655
Lu2 O37 2.212710 1_555
Lu2 O14 2.215269 1_655
Lu2 O42 2.223256 1_555
Lu2 O1 2.231148 1_655
Lu3 O23 2.159920 1_555
Lu3 O19 2.183038 1_555
Lu3 O36 2.212710 1_555
Lu3 O15 2.215269 1_555
Lu3 O43 2.223256 1_555
Lu3 O0 2.231148 1_555
O2 Si11 1.655602 1_555
O2 Si8 1.655602 1_555
O3 Si9 1.655602 1_555
O3 Si10 1.655602 1_555
O4 Si7 1.650336 1_545
O4 Si4 1.650336 1_545
O5 Si5 1.650336 1_565
O5 Si6 1.650336 1_565
O6 Si0 1.636366 1_555
O6 Si3 1.636366 1_555
O7 Si1 1.636366 1_555
O7 Si2 1.636366 1_555
O8 Si12 1.652558 1_655
O8 Si0 1.658282 1_555
O9 Si13 1.652558 1_555
O9 Si1 1.658282 1_555
O10 Si14 1.652558 1_455
O10 Si2 1.658282 1_555
O11 Si15 1.652558 1_555
O11 Si3 1.658282 1_555
O12 Si8 1.596855 1_555
O13 Si9 1.596855 1_555
O14 Si10 1.596855 1_555
O15 Si11 1.596855 1_555
O16 Si2 1.594991 1_655
O17 Si3 1.594991 1_555
O18 Si0 1.594991 1_455
O19 Si1 1.594991 1_555
O20 Si12 1.587383 1_556
O21 Si13 1.587383 1_554
O22 Si14 1.587383 1_554
O23 Si15 1.587383 1_556
O24 Si8 1.655172 1_555
O24 Si0 1.663523 1_555
O25 Si9 1.655172 1_555
O25 Si1 1.663523 1_555
O26 Si10 1.655172 1_555
O26 Si2 1.663523 1_555
O27 Si11 1.655172 1_555
O27 Si3 1.663523 1_555
O28 Si6 1.663928 1_555
O28 Si8 1.663941 1_455
O29 Si7 1.663928 1_555
O29 Si9 1.663941 1_555
O30 Si4 1.663928 1_555
O30 Si10 1.663941 1_655
O31 Si5 1.663928 1_555
O31 Si11 1.663941 1_555
O32 Si4 1.653577 1_445
O32 Si12 1.655010 1_555
O33 Si5 1.653577 1_565
O33 Si13 1.655010 1_555
O34 Si6 1.653577 1_665
O34 Si14 1.655010 1_555
O35 Si7 1.653577 1_545
O35 Si15 1.655010 1_555
O38 Si15 1.659938 1_555
O38 Si12 1.659938 1_555
O39 Si14 1.659938 1_555
O39 Si13 1.659938 1_555
O40 Si6 1.599516 1_555
O41 Si7 1.599516 1_555
O42 Si4 1.599516 1_555
O43 Si5 1.599516 1_555
