# generated using pymatgen
data_LiMn3P2(HO3)4
_symmetry_space_group_name_H-M   'P 1'
_cell_length_a   10.36078500
_cell_length_b   7.46522200
_cell_length_c   13.04146932
_cell_angle_alpha   63.58643255
_cell_angle_beta   90.00000000
_cell_angle_gamma   90.00000000
_symmetry_Int_Tables_number   1
_chemical_formula_structural   LiMn3P2(HO3)4
_chemical_formula_sum   'Li4 Mn12 P8 H16 O48'
_cell_volume   903.39799849
_cell_formula_units_Z   4
loop_
 _symmetry_equiv_pos_site_id
 _symmetry_equiv_pos_as_xyz
  1  'x, y, z'
loop_
 _atom_site_type_symbol
 _atom_site_label
 _atom_site_symmetry_multiplicity
 _atom_site_fract_x
 _atom_site_fract_y
 _atom_site_fract_z
 _atom_site_occupancy
  Li  Li0  1  0.39306700  0.23296600  0.17327100  1
  Li  Li1  1  0.89306700  0.76703400  0.32672900  1
  Li  Li2  1  0.10693300  0.23296600  0.67327100  1
  Li  Li3  1  0.60693300  0.76703400  0.82672900  1
  Mn  Mn0  1  0.78341000  0.51047000  0.04051500  1
  Mn  Mn1  1  0.23894200  0.02690600  0.03754000  1
  Mn  Mn2  1  0.42858400  0.75462300  0.23390300  1
  Mn  Mn3  1  0.92858400  0.24537700  0.26609700  1
  Mn  Mn4  1  0.28341000  0.48953000  0.45948500  1
  Mn  Mn5  1  0.73894200  0.97309400  0.46246000  1
  Mn  Mn6  1  0.26105800  0.02690600  0.53754000  1
  Mn  Mn7  1  0.71659000  0.51047000  0.54051500  1
  Mn  Mn8  1  0.07141600  0.75462300  0.73390300  1
  Mn  Mn9  1  0.57141600  0.24537700  0.76609700  1
  Mn  Mn10  1  0.76105800  0.97309400  0.96246000  1
  Mn  Mn11  1  0.21659000  0.48953000  0.95948500  1
  P  P0  1  0.16920100  0.55579700  0.19495800  1
  P  P1  1  0.68207300  0.04740900  0.18146300  1
  P  P2  1  0.66920100  0.44420300  0.30504200  1
  P  P3  1  0.18207300  0.95259100  0.31853700  1
  P  P4  1  0.81792700  0.04740900  0.68146300  1
  P  P5  1  0.33079900  0.55579700  0.69495800  1
  P  P6  1  0.31792700  0.95259100  0.81853700  1
  P  P7  1  0.83079900  0.44420300  0.80504200  1
  H  H0  1  0.38872900  0.77823300  0.03043800  1
  H  H1  1  0.96054200  0.77146700  0.05686700  1
  H  H2  1  0.59609400  0.66317600  0.06928500  1
  H  H3  1  0.99321600  0.28300500  0.06850900  1
  H  H4  1  0.09609400  0.33682400  0.43071500  1
  H  H5  1  0.46054200  0.22853300  0.44313300  1
  H  H6  1  0.88872900  0.22176700  0.46956200  1
  H  H7  1  0.49321600  0.71699500  0.43149100  1
  H  H8  1  0.50678400  0.28300500  0.56850900  1
  H  H9  1  0.11127100  0.77823300  0.53043800  1
  H  H10  1  0.53945800  0.77146700  0.55686700  1
  H  H11  1  0.90390600  0.66317600  0.56928500  1
  H  H12  1  0.00678400  0.71699500  0.93149100  1
  H  H13  1  0.40390600  0.33682400  0.93071500  1
  H  H14  1  0.03945800  0.22853300  0.94313300  1
  H  H15  1  0.61127100  0.22176700  0.96956200  1
  O  O0  1  0.64373400  0.70125100  0.99640000  1
  O  O1  1  0.10516200  0.22851300  0.99912200  1
  O  O2  1  0.39254800  0.86450100  0.07022400  1
  O  O3  1  0.12218400  0.76886600  0.11093400  1
  O  O4  1  0.22056000  0.44047900  0.13027500  1
  O  O5  1  0.93341600  0.34797900  0.10242400  1
  O  O6  1  0.66398100  0.27137200  0.09357500  1
  O  O7  1  0.75340100  0.93082300  0.12599200  1
  O  O8  1  0.78477400  0.43692100  0.22767600  1
  O  O9  1  0.55919100  0.55302200  0.22023900  1
  O  O10  1  0.26613800  0.98424900  0.21221000  1
  O  O11  1  0.05919100  0.44697800  0.27976100  1
  O  O12  1  0.28477400  0.56307900  0.27232400  1
  O  O13  1  0.54140700  0.97653300  0.21952200  1
  O  O14  1  0.04140700  0.02346700  0.28047800  1
  O  O15  1  0.76613800  0.01575100  0.28779000  1
  O  O16  1  0.72056000  0.55952100  0.36972500  1
  O  O17  1  0.62218400  0.23113400  0.38906600  1
  O  O18  1  0.25340100  0.06917700  0.37400800  1
  O  O19  1  0.89254800  0.13549900  0.42977600  1
  O  O20  1  0.16398100  0.72862800  0.40642500  1
  O  O21  1  0.43341600  0.65202100  0.39757600  1
  O  O22  1  0.14373400  0.29874900  0.50360000  1
  O  O23  1  0.39483800  0.22851300  0.49912200  1
  O  O24  1  0.60516200  0.77148700  0.50087800  1
  O  O25  1  0.85626600  0.70125100  0.49640000  1
  O  O26  1  0.56658400  0.34797900  0.60242400  1
  O  O27  1  0.83601900  0.27137200  0.59357500  1
  O  O28  1  0.10745200  0.86450100  0.57022400  1
  O  O29  1  0.74659900  0.93082300  0.62599200  1
  O  O30  1  0.37781600  0.76886600  0.61093400  1
  O  O31  1  0.27944000  0.44047900  0.63027500  1
  O  O32  1  0.23386200  0.98424900  0.71221000  1
  O  O33  1  0.95859300  0.97653300  0.71952200  1
  O  O34  1  0.45859300  0.02346700  0.78047800  1
  O  O35  1  0.71522600  0.43692100  0.72767600  1
  O  O36  1  0.94080900  0.55302200  0.72023900  1
  O  O37  1  0.73386200  0.01575100  0.78779000  1
  O  O38  1  0.44080900  0.44697800  0.77976100  1
  O  O39  1  0.21522600  0.56307900  0.77232400  1
  O  O40  1  0.24659900  0.06917700  0.87400800  1
  O  O41  1  0.33601900  0.72862800  0.90642500  1
  O  O42  1  0.06658400  0.65202100  0.89757600  1
  O  O43  1  0.77944000  0.55952100  0.86972500  1
  O  O44  1  0.87781600  0.23113400  0.88906600  1
  O  O45  1  0.60745200  0.13549900  0.92977600  1
  O  O46  1  0.89483800  0.77148700  0.00087800  1
  O  O47  1  0.35626600  0.29874900  0.00360000  1
loop_
_geom_bond_atom_site_label_1
_geom_bond_atom_site_label_2
_geom_bond_distance
_geom_bond_site_symmetry_2
Li0 O47 2.077513 1_555
Li0 O10 2.143802 1_545
Li0 O4 2.266245 1_555
Li0 O13 2.315877 1_545
Li1 O25 2.077513 1_555
Li1 O15 2.143802 1_565
Li1 O16 2.266245 1_555
Li1 O14 2.315877 1_665
Li2 O22 2.077513 1_555
Li2 O32 2.143802 1_545
Li2 O31 2.266245 1_555
Li2 O33 2.315877 1_445
Li3 O0 2.077513 1_555
Li3 O37 2.143802 1_565
Li3 O43 2.266245 1_555
Li3 O34 2.315877 1_565
Mn0 O5 1.915056 1_555
Mn0 O0 1.929936 1_554
Mn0 O6 2.024103 1_555
Mn0 O43 2.090751 1_554
Mn0 O46 2.121494 1_555
Mn0 O8 2.251020 1_555
Mn1 O2 1.929924 1_545
Mn1 O1 1.940739 1_554
Mn1 O40 2.013829 1_554
Mn1 O3 2.109467 1_545
Mn1 O10 2.173589 1_545
Mn1 O47 2.234433 1_555
Mn2 O21 1.921153 1_555
Mn2 O2 1.952179 1_555
Mn2 O13 1.967106 1_555
Mn2 O12 1.969349 1_555
Mn2 O9 2.089617 1_555
Mn2 O10 2.328046 1_555
Mn3 O5 1.921153 1_555
Mn3 O19 1.952179 1_555
Mn3 O14 1.967106 1_655
Mn3 O8 1.969349 1_555
Mn3 O11 2.089617 1_655
Mn3 O15 2.328046 1_555
Mn4 O21 1.915056 1_555
Mn4 O22 1.929936 1_555
Mn4 O20 2.024103 1_555
Mn4 O31 2.090751 1_555
Mn4 O23 2.121494 1_555
Mn4 O12 2.251020 1_555
Mn5 O19 1.929924 1_565
Mn5 O24 1.940739 1_555
Mn5 O29 2.013829 1_555
Mn5 O17 2.109467 1_565
Mn5 O15 2.173589 1_565
Mn5 O25 2.234433 1_555
Mn6 O28 1.929924 1_545
Mn6 O23 1.940739 1_555
Mn6 O18 2.013829 1_555
Mn6 O30 2.109467 1_545
Mn6 O32 2.173589 1_545
Mn6 O22 2.234433 1_555
Mn7 O26 1.915056 1_555
Mn7 O25 1.929936 1_555
Mn7 O27 2.024103 1_555
Mn7 O16 2.090751 1_555
Mn7 O24 2.121494 1_555
Mn7 O35 2.251020 1_555
Mn8 O42 1.921153 1_555
Mn8 O28 1.952179 1_555
Mn8 O33 1.967106 1_455
Mn8 O39 1.969349 1_555
Mn8 O36 2.089617 1_455
Mn8 O32 2.328046 1_555
Mn9 O26 1.921153 1_555
Mn9 O45 1.952179 1_555
Mn9 O34 1.967106 1_555
Mn9 O35 1.969349 1_555
Mn9 O38 2.089617 1_555
Mn9 O37 2.328046 1_555
Mn10 O45 1.929924 1_565
Mn10 O46 1.940739 1_556
Mn10 O7 2.013829 1_556
Mn10 O44 2.109467 1_565
Mn10 O37 2.173589 1_565
Mn10 O0 2.234433 1_555
Mn11 O42 1.915056 1_555
Mn11 O47 1.929936 1_556
Mn11 O41 2.024103 1_555
Mn11 O4 2.090751 1_556
Mn11 O1 2.121494 1_555
Mn11 O39 2.251020 1_555
H0 O2 0.991380 1_555
H1 O46 0.998237 1_555
H2 O0 0.993755 1_554
H3 O5 1.002818 1_555
H3 O1 1.630060 1_654
H4 O22 0.993755 1_555
H5 O23 0.998237 1_555
H6 O19 0.991380 1_555
H7 O21 1.002818 1_555
H7 O24 1.630060 1_555
H8 O26 1.002818 1_555
H8 O23 1.630060 1_555
H9 O28 0.991380 1_555
H10 O24 0.998237 1_555
H11 O25 0.993755 1_555
H12 O42 1.002818 1_555
H12 O46 1.630060 1_456
H13 O47 0.993755 1_556
H14 O1 0.998237 1_555
H15 O45 0.991380 1_555
O3 P0 1.554792 1_555
O4 P0 1.543356 1_555
O6 P1 1.561819 1_555
O7 P1 1.545040 1_565
O8 P2 1.582276 1_555
O9 P2 1.543650 1_555
O10 P3 1.563880 1_555
O11 P0 1.543650 1_555
O12 P0 1.582276 1_555
O13 P1 1.554575 1_565
O14 P3 1.554575 1_545
O15 P1 1.563880 1_555
O16 P2 1.543356 1_555
O17 P2 1.554792 1_555
O18 P3 1.545040 1_545
O20 P3 1.561819 1_555
O27 P4 1.561819 1_555
O29 P4 1.545040 1_565
O30 P5 1.554792 1_555
O31 P5 1.543356 1_555
O32 P6 1.563880 1_555
O33 P4 1.554575 1_565
O34 P6 1.554575 1_545
O35 P7 1.582276 1_555
O36 P7 1.543650 1_555
O37 P4 1.563880 1_555
O38 P5 1.543650 1_555
O39 P5 1.582276 1_555
O40 P6 1.545040 1_545
O41 P6 1.561819 1_555
O43 P7 1.543356 1_555
O44 P7 1.554792 1_555
