# generated using pymatgen
data_Ba2MnO4
_symmetry_space_group_name_H-M   'P 1'
_cell_length_a   7.24369857
_cell_length_b   7.24369857
_cell_length_c   7.24342895
_cell_angle_alpha   147.45625313
_cell_angle_beta   147.45693704
_cell_angle_gamma   46.69308803
_symmetry_Int_Tables_number   1
_chemical_formula_structural   Ba2MnO4
_chemical_formula_sum   'Ba2 Mn1 O4'
_cell_volume   109.58221476
_cell_formula_units_Z   1
loop_
 _symmetry_equiv_pos_site_id
 _symmetry_equiv_pos_as_xyz
  1  'x, y, z'
loop_
 _atom_site_type_symbol
 _atom_site_label
 _atom_site_symmetry_multiplicity
 _atom_site_fract_x
 _atom_site_fract_y
 _atom_site_fract_z
 _atom_site_occupancy
  Ba  Ba0  1  0.35774500  0.35774500  0.00000000  1
  Ba  Ba1  1  0.64225500  0.64225500  0.00000000  1
  Mn  Mn0  1  0.00000000  0.00000000  0.00000000  1
  O  O0  1  0.50000000  0.00000000  0.50000000  1
  O  O1  1  0.14819700  0.14819700  0.00000000  1
  O  O2  1  0.85180300  0.85180300  0.00000000  1
  O  O3  1  0.00000000  0.50000000  0.50000000  1
loop_
_geom_bond_atom_site_label_1
_geom_bond_atom_site_label_2
_geom_bond_distance
_geom_bond_site_symmetry_2
Ba0 O3 2.774790 1_554
Ba0 O3 2.774791 1_655
Ba0 O0 2.774820 1_554
Ba0 O0 2.774822 1_565
Ba0 O1 2.787248 1_555
Ba0 O2 2.871029 1_556
Ba0 O2 2.871029 1_444
Ba0 O2 2.871704 1_455
Ba0 O2 2.871704 1_545
Ba1 O3 2.774790 1_655
Ba1 O3 2.774791 1_554
Ba1 O0 2.774820 1_565
Ba1 O0 2.774822 1_554
Ba1 O2 2.787248 1_555
Ba1 O1 2.871029 1_554
Ba1 O1 2.871029 1_666
Ba1 O1 2.871704 1_655
Ba1 O1 2.871704 1_565
Mn0 O1 1.971204 1_555
Mn0 O2 1.971204 1_445
Mn0 O0 2.029573 1_555
Mn0 O0 2.029573 1_454
Mn0 O3 2.029614 1_544
Mn0 O3 2.029614 1_555
