# generated using pymatgen
data_MnV2(PO4)3
_symmetry_space_group_name_H-M   'P 1'
_cell_length_a   8.63937039
_cell_length_b   8.63937039
_cell_length_c   8.63937038
_cell_angle_alpha   59.98629868
_cell_angle_beta   59.98629868
_cell_angle_gamma   59.98628984
_symmetry_Int_Tables_number   1
_chemical_formula_structural   MnV2(PO4)3
_chemical_formula_sum   'Mn2 V4 P6 O24'
_cell_volume   455.82307896
_cell_formula_units_Z   2
loop_
 _symmetry_equiv_pos_site_id
 _symmetry_equiv_pos_as_xyz
  1  'x, y, z'
loop_
 _atom_site_type_symbol
 _atom_site_label
 _atom_site_symmetry_multiplicity
 _atom_site_fract_x
 _atom_site_fract_y
 _atom_site_fract_z
 _atom_site_occupancy
  Mn  Mn0  1  0.00000000  0.00000000  0.00000000  1
  Mn  Mn1  1  0.50000000  0.50000000  0.50000000  1
  V  V0  1  0.85617700  0.85617700  0.85617700  1
  V  V1  1  0.64382300  0.64382300  0.64382300  1
  V  V2  1  0.35617700  0.35617700  0.35617700  1
  V  V3  1  0.14382300  0.14382300  0.14382300  1
  P  P0  1  0.54137900  0.95862100  0.25000000  1
  P  P1  1  0.25000000  0.54137900  0.95862100  1
  P  P2  1  0.95862100  0.25000000  0.54137900  1
  P  P3  1  0.04137900  0.75000000  0.45862100  1
  P  P4  1  0.75000000  0.45862100  0.04137900  1
  P  P5  1  0.45862100  0.04137900  0.75000000  1
  O  O0  1  0.49512800  0.88157800  0.69242600  1
  O  O1  1  0.88157800  0.69242600  0.49512800  1
  O  O2  1  0.73571600  0.94093800  0.08575600  1
  O  O3  1  0.69242600  0.49512800  0.88157800  1
  O  O4  1  0.38157800  0.99512800  0.19242600  1
  O  O5  1  0.55906200  0.76428400  0.41424400  1
  O  O6  1  0.08575600  0.73571600  0.94093800  1
  O  O7  1  0.41424400  0.55906200  0.76428400  1
  O  O8  1  0.00487200  0.80757400  0.61842200  1
  O  O9  1  0.76428400  0.41424400  0.55906200  1
  O  O10  1  0.05906200  0.91424400  0.26428400  1
  O  O11  1  0.80757400  0.61842200  0.00487200  1
  O  O12  1  0.19242600  0.38157800  0.99512800  1
  O  O13  1  0.94093800  0.08575600  0.73571600  1
  O  O14  1  0.23571600  0.58575600  0.44093800  1
  O  O15  1  0.99512800  0.19242600  0.38157800  1
  O  O16  1  0.58575600  0.44093800  0.23571600  1
  O  O17  1  0.91424400  0.26428400  0.05906200  1
  O  O18  1  0.44093800  0.23571600  0.58575600  1
  O  O19  1  0.61842200  0.00487200  0.80757400  1
  O  O20  1  0.30757400  0.50487200  0.11842200  1
  O  O21  1  0.26428400  0.05906200  0.91424400  1
  O  O22  1  0.11842200  0.30757400  0.50487200  1
  O  O23  1  0.50487200  0.11842200  0.30757400  1
loop_
_geom_bond_atom_site_label_1
_geom_bond_atom_site_label_2
_geom_bond_distance
_geom_bond_site_symmetry_2
Mn0 O17 2.262191 1_455
Mn0 O6 2.262191 1_544
Mn0 O10 2.262191 1_545
Mn0 O13 2.262191 1_454
Mn0 O21 2.262191 1_554
Mn0 O2 2.262191 1_445
Mn1 O9 2.262191 1_555
Mn1 O14 2.262191 1_555
Mn1 O7 2.262191 1_555
Mn1 O16 2.262191 1_555
Mn1 O5 2.262191 1_555
Mn1 O18 2.262191 1_555
O0 P5 1.532096 1_565
O0 V1 1.931100 1_555
O1 P3 1.532096 1_655
O1 V1 1.931100 1_555
O2 P0 1.559673 1_555
O2 V0 2.044226 1_554
O3 P4 1.532096 1_556
O3 V1 1.931100 1_555
O4 P0 1.532096 1_555
O4 V3 1.931100 1_565
O5 P0 1.559673 1_555
O5 V1 2.044226 1_555
O6 P1 1.559673 1_555
O6 V0 2.044225 1_455
O7 P1 1.559673 1_555
O7 V1 2.044226 1_555
O8 P3 1.532096 1_555
O8 V0 1.931100 1_455
O9 P2 1.559673 1_555
O9 V1 2.044225 1_555
O10 P3 1.559673 1_555
O10 V3 2.044226 1_565
O11 P4 1.532096 1_555
O11 V0 1.931100 1_554
O12 P1 1.532096 1_555
O12 V3 1.931100 1_556
O13 P2 1.559673 1_555
O13 V0 2.044226 1_545
O14 P3 1.559673 1_555
O14 V2 2.044225 1_555
O15 P2 1.532096 1_555
O15 V3 1.931100 1_655
O16 P4 1.559673 1_555
O16 V2 2.044226 1_555
O17 P4 1.559673 1_555
O17 V3 2.044225 1_655
O18 P5 1.559673 1_555
O18 V2 2.044226 1_555
O19 P5 1.532096 1_555
O19 V0 1.931100 1_545
O20 P1 1.532096 1_554
O20 V2 1.931100 1_555
O21 P5 1.559673 1_555
O21 V3 2.044226 1_556
O22 P2 1.532096 1_455
O22 V2 1.931100 1_555
O23 P0 1.532096 1_545
O23 V2 1.931100 1_555
