# generated using pymatgen
data_Li2MnP2O7
_symmetry_space_group_name_H-M   'P 1'
_cell_length_a   7.74509078
_cell_length_b   7.74509078
_cell_length_c   8.00886654
_cell_angle_alpha   64.94632996
_cell_angle_beta   64.94632996
_cell_angle_gamma   42.92515517
_symmetry_Int_Tables_number   1
_chemical_formula_structural   Li2MnP2O7
_chemical_formula_sum   'Li4 Mn2 P4 O14'
_cell_volume   291.35543017
_cell_formula_units_Z   2
loop_
 _symmetry_equiv_pos_site_id
 _symmetry_equiv_pos_as_xyz
  1  'x, y, z'
loop_
 _atom_site_type_symbol
 _atom_site_label
 _atom_site_symmetry_multiplicity
 _atom_site_fract_x
 _atom_site_fract_y
 _atom_site_fract_z
 _atom_site_occupancy
  Li  Li0  1  0.92588200  0.62091600  0.80739100  1
  Li  Li1  1  0.37908400  0.07411800  0.69260900  1
  Li  Li2  1  0.62091600  0.92588200  0.30739100  1
  Li  Li3  1  0.07411800  0.37908400  0.19260900  1
  Mn  Mn0  1  0.00000000  0.00000000  0.50000000  1
  Mn  Mn1  1  0.00000000  0.00000000  0.00000000  1
  P  P0  1  0.52371600  0.24747500  0.85751100  1
  P  P1  1  0.24747500  0.52371600  0.35751100  1
  P  P2  1  0.75252500  0.47628400  0.64248900  1
  P  P3  1  0.47628400  0.75252500  0.14248900  1
  O  O0  1  0.69297900  0.06105100  0.71799300  1
  O  O1  1  0.24825200  0.36427600  0.91350200  1
  O  O2  1  0.11803700  0.65266800  0.52687200  1
  O  O3  1  0.06105100  0.69297900  0.21799300  1
  O  O4  1  0.36427600  0.24825200  0.41350200  1
  O  O5  1  0.65266800  0.11803700  0.02687200  1
  O  O6  1  0.34733200  0.88196300  0.97312800  1
  O  O7  1  0.63572400  0.75174800  0.58649800  1
  O  O8  1  0.93894900  0.30702100  0.78200700  1
  O  O9  1  0.88196300  0.34733200  0.47312800  1
  O  O10  1  0.75174800  0.63572400  0.08649800  1
  O  O11  1  0.30702100  0.93894900  0.28200700  1
  O  O12  1  0.50949300  0.49050700  0.75000000  1
  O  O13  1  0.49050700  0.50949300  0.25000000  1
loop_
_geom_bond_atom_site_label_1
_geom_bond_atom_site_label_2
_geom_bond_distance
_geom_bond_site_symmetry_2
Li0 O1 2.001365 1_655
Li0 O10 2.065456 1_556
Li0 O2 2.135194 1_655
Li0 O0 2.325600 1_565
Li0 O8 2.450077 1_555
Li1 O7 2.001365 1_545
Li1 O4 2.065456 1_555
Li1 O6 2.135194 1_545
Li1 O8 2.325600 1_455
Li1 O0 2.450077 1_555
Li2 O4 2.001365 1_565
Li2 O7 2.065456 1_555
Li2 O5 2.135194 1_565
Li2 O3 2.325600 1_655
Li2 O11 2.450077 1_555
Li3 O10 2.001365 1_455
Li3 O1 2.065456 1_554
Li3 O9 2.135194 1_455
Li3 O11 2.325600 1_545
Li3 O3 2.450077 1_555
Mn0 O9 2.047798 1_455
Mn0 O2 2.047798 1_545
Mn0 O0 2.112476 1_455
Mn0 O11 2.112476 1_545
Mn1 O5 2.047798 1_455
Mn1 O6 2.047798 1_544
Mn1 O8 2.112476 1_454
Mn1 O3 2.112476 1_545
O0 P0 1.551011 1_555
O1 P0 1.509315 1_555
O2 P1 1.540021 1_555
O3 P1 1.551011 1_555
O4 P1 1.509315 1_555
O5 P0 1.540021 1_554
O6 P3 1.540021 1_556
O7 P2 1.509315 1_555
O8 P2 1.551011 1_555
O9 P2 1.540021 1_555
O10 P3 1.509315 1_555
O11 P3 1.551011 1_555
O12 P2 1.643352 1_555
O12 P0 1.643352 1_555
O13 P3 1.643352 1_555
O13 P1 1.643352 1_555
