# generated using pymatgen
data_Li4V3P8O29
_symmetry_space_group_name_H-M   'P 1'
_cell_length_a   9.75970100
_cell_length_b   9.77116265
_cell_length_c   14.15848630
_cell_angle_alpha   90.21434484
_cell_angle_beta   90.02953719
_cell_angle_gamma   119.85808648
_symmetry_Int_Tables_number   1
_chemical_formula_structural   Li4V3P8O29
_chemical_formula_sum   'Li8 V6 P16 O58'
_cell_volume   1170.96742363
_cell_formula_units_Z   2
loop_
 _symmetry_equiv_pos_site_id
 _symmetry_equiv_pos_as_xyz
  1  'x, y, z'
loop_
 _atom_site_type_symbol
 _atom_site_label
 _atom_site_symmetry_multiplicity
 _atom_site_fract_x
 _atom_site_fract_y
 _atom_site_fract_z
 _atom_site_occupancy
  Li  Li0  1  0.09508100  0.32275100  0.44553700  1
  Li  Li1  1  0.68839500  0.77112400  0.43916800  1
  Li  Li2  1  0.66622100  0.90142000  0.94065700  1
  Li  Li3  1  0.09272800  0.76282200  0.93821600  1
  Li  Li4  1  0.77467300  0.09043300  0.56130600  1
  Li  Li5  1  0.22207900  0.91534100  0.44440100  1
  Li  Li6  1  0.33050200  0.09997100  0.05549200  1
  Li  Li7  1  0.98993000  0.03782900  0.99899800  1
  V  V0  1  0.56678500  0.99850200  0.74921100  1
  V  V1  1  0.43260300  0.00018800  0.25288800  1
  V  V2  1  0.99934500  0.43476000  0.24424300  1
  V  V3  1  0.99774000  0.56316100  0.75090600  1
  V  V4  1  0.43105500  0.43627300  0.75353100  1
  V  V5  1  0.56572500  0.56081900  0.24596200  1
  P  P0  1  0.22313100  0.30501800  0.15927300  1
  P  P1  1  0.08867600  0.31654800  0.66053600  1
  P  P2  1  0.68151300  0.76601700  0.65396100  1
  P  P3  1  0.33405600  0.66861100  0.87176400  1
  P  P4  1  0.33193700  0.66339200  0.36790600  1
  P  P5  1  0.68465100  0.91065400  0.15851700  1
  P  P6  1  0.77260000  0.09157600  0.33923500  1
  P  P7  1  0.08687900  0.77372200  0.15487000  1
  P  P8  1  0.91535400  0.22226500  0.84266900  1
  P  P9  1  0.22763500  0.90808300  0.66034600  1
  P  P10  1  0.31455700  0.08913100  0.83963000  1
  P  P11  1  0.66473500  0.33282600  0.63211400  1
  P  P12  1  0.66514800  0.33162900  0.12955200  1
  P  P13  1  0.31525400  0.23138400  0.34498600  1
  P  P14  1  0.91403700  0.68576300  0.33787100  1
  P  P15  1  0.77686100  0.69479000  0.83843600  1
  O  O0  1  0.23445200  0.24454400  0.42966500  1
  O  O1  1  0.25684200  0.34170200  0.66584100  1
  O  O2  1  0.99630100  0.20342400  0.92522900  1
  O  O3  1  0.08628500  0.34226400  0.16551200  1
  O  O4  1  0.38309100  0.46254600  0.16954100  1
  O  O5  1  0.32835500  0.51778700  0.82457100  1
  O  O6  1  0.52094600  0.61837900  0.67935200  1
  O  O7  1  0.79256900  0.80283100  0.91766900  1
  O  O8  1  0.65486400  0.73944700  0.17187200  1
  O  O9  1  0.18210100  0.51446300  0.32399800  1
  O  O10  1  0.09648300  0.47727700  0.68049500  1
  O  O11  1  0.48103400  0.66373800  0.32449500  1
  O  O12  1  0.33166400  0.66508000  0.97672200  1
  O  O13  1  0.33081500  0.65659300  0.47283900  1
  O  O14  1  0.48869800  0.81262600  0.83332100  1
  O  O15  1  0.09174200  0.61789400  0.17299400  1
  O  O16  1  0.18573800  0.67492400  0.83152500  1
  O  O17  1  0.66522600  0.91645200  0.66050200  1
  O  O18  1  0.79548200  0.00410500  0.24882700  1
  O  O19  1  0.76010100  0.00294800  0.42816800  1
  O  O20  1  0.77108300  0.97815000  0.06867000  1
  O  O21  1  0.52992500  0.91270500  0.17096900  1
  O  O22  1  0.32958700  0.81389900  0.33028100  1
  O  O23  1  0.74072800  0.08497300  0.83653800  1
  O  O24  1  0.38047800  0.90064100  0.68084200  1
  O  O25  1  0.08389500  0.73868500  0.67167900  1
  O  O26  1  0.99245100  0.20139100  0.74545400  1
  O  O27  1  0.00198000  0.24527600  0.56995200  1
  O  O28  1  0.00851900  0.77312200  0.42121200  1
  O  O29  1  0.92062000  0.25854900  0.33879700  1
  O  O30  1  0.62185000  0.10262200  0.32096900  1
  O  O31  1  0.25616000  0.91765400  0.16503400  1
  O  O32  1  0.66867800  0.18234300  0.66716900  1
  O  O33  1  0.47076400  0.09030200  0.82923200  1
  O  O34  1  0.22384000  0.00632700  0.92748500  1
  O  O35  1  0.23337800  0.98376500  0.56959400  1
  O  O36  1  0.20658100  0.00181000  0.74812500  1
  O  O37  1  0.33836300  0.08522200  0.34378800  1
  O  O38  1  0.81352400  0.32979200  0.17534400  1
  O  O39  1  0.92104700  0.38301500  0.83136200  1
  O  O40  1  0.51133500  0.18667900  0.16676700  1
  O  O41  1  0.67250200  0.34315700  0.02540700  1
  O  O42  1  0.67285900  0.34489800  0.52796900  1
  O  O43  1  0.52469000  0.34043000  0.68083700  1
  O  O44  1  0.90853600  0.52571200  0.31966900  1
  O  O45  1  0.81771800  0.47593500  0.68209100  1
  O  O46  1  0.34196000  0.25943900  0.83364700  1
  O  O47  1  0.20614100  0.20517700  0.25244800  1
  O  O48  1  0.20917700  0.20588400  0.07547400  1
  O  O49  1  0.47573700  0.38175400  0.32249600  1
  O  O50  1  0.67075600  0.48248700  0.17761300  1
  O  O51  1  0.61679700  0.53867200  0.83101600  1
  O  O52  1  0.91551000  0.65823500  0.84032600  1
  O  O53  1  0.01560300  0.77571100  0.06275600  1
  O  O54  1  0.98918900  0.78724400  0.24178300  1
  O  O55  1  0.74337700  0.65941000  0.33848600  1
  O  O56  1  0.74717600  0.75323400  0.56246000  1
  O  O57  1  0.79927300  0.78455800  0.73925400  1
loop_
_geom_bond_atom_site_label_1
_geom_bond_atom_site_label_2
_geom_bond_distance
_geom_bond_site_symmetry_2
Li0 O0 1.875812 1_555
Li0 O27 1.956632 1_555
Li0 O29 2.122107 1_455
Li0 O9 2.373407 1_555
Li1 O56 1.872964 1_555
Li1 O19 2.017279 1_565
Li1 O55 2.020873 1_555
Li1 O11 2.387931 1_555
Li2 O7 1.932715 1_555
Li2 O20 2.029400 1_556
Li2 O14 2.134189 1_555
Li2 O23 2.154291 1_565
Li3 O53 1.945703 1_556
Li3 O52 2.045424 1_455
Li3 O34 2.071967 1_565
Li3 O16 2.147444 1_555
Li4 O27 1.970253 1_655
Li4 O19 2.042284 1_555
Li4 O17 2.053003 1_545
Li4 O32 2.244956 1_555
Li5 O28 1.869503 1_555
Li5 O35 1.875791 1_555
Li5 O37 2.053350 1_565
Li5 O22 2.391532 1_555
Li6 O48 1.942018 1_555
Li6 O34 2.059821 1_554
Li6 O40 2.193866 1_555
Li6 O31 2.200063 1_545
Li7 O2 1.904047 1_555
Li7 O20 2.154399 1_546
Li7 O48 2.221089 1_656
Li7 O7 2.425425 1_545
O0 P13 1.475346 1_555
O1 P1 1.535522 1_555
O1 V4 1.926421 1_555
O2 P8 1.473052 1_555
O3 P0 1.551733 1_555
O3 V2 1.880535 1_455
O4 P0 1.559812 1_555
O4 V5 1.885720 1_555
O5 P3 1.591345 1_555
O5 V4 1.854903 1_555
O6 P2 1.555498 1_555
O6 V4 1.870696 1_555
O7 P15 1.492069 1_555
O8 P5 1.561094 1_555
O8 V5 1.845643 1_555
O9 P4 1.586187 1_555
O9 V2 1.916047 1_455
O10 P1 1.558740 1_555
O10 V3 1.851156 1_455
O11 P4 1.578374 1_555
O11 V5 1.936771 1_555
O12 P3 1.486501 1_555
O13 P4 1.487228 1_555
O14 P3 1.564030 1_555
O14 V0 1.984075 1_555
O15 P7 1.568866 1_555
O15 V2 1.854887 1_455
O16 P3 1.584955 1_555
O16 V3 1.963515 1_455
O17 P2 1.557617 1_555
O17 V0 1.975847 1_555
O18 P6 1.612773 1_555
O18 P5 1.626391 1_545
O19 P6 1.501146 1_555
O20 P5 1.489365 1_555
O21 P5 1.530426 1_555
O21 V1 1.944298 1_565
O22 P4 1.576861 1_555
O22 V1 1.928396 1_565
O23 P8 1.560214 1_555
O23 V0 1.919997 1_545
O24 P9 1.556404 1_555
O24 V0 1.848683 1_555
O25 P9 1.556809 1_555
O25 V3 1.867146 1_455
O26 P1 1.597725 1_655
O26 P8 1.629134 1_555
O27 P1 1.500428 1_555
O28 P14 1.476107 1_455
O29 P6 1.549876 1_555
O29 V2 2.012012 1_555
O30 P6 1.549553 1_555
O30 V1 1.868840 1_555
O31 P7 1.553334 1_555
O31 V1 1.941779 1_565
O32 P11 1.572152 1_555
O32 V0 1.950170 1_545
O33 P10 1.526068 1_555
O33 V0 1.948574 1_545
O34 P10 1.510357 1_555
O35 P9 1.472044 1_555
O36 P9 1.613899 1_545
O36 P10 1.616189 1_555
O37 P13 1.552861 1_555
O37 V1 1.986666 1_555
O38 P12 1.594579 1_555
O38 V2 1.852340 1_555
O39 P8 1.552692 1_555
O39 V3 1.913194 1_555
O40 P12 1.557725 1_555
O40 V1 2.005285 1_555
O41 P12 1.478309 1_555
O42 P11 1.478704 1_555
O43 P11 1.565645 1_555
O43 V4 1.901941 1_555
O44 P14 1.558333 1_555
O44 V2 1.869184 1_555
O45 P11 1.611819 1_555
O45 V3 1.806547 1_555
O46 P10 1.551092 1_555
O46 V4 1.883616 1_555
O47 P0 1.602603 1_555
O47 P13 1.625039 1_555
O48 P0 1.491451 1_555
O49 P13 1.557560 1_555
O49 V5 1.868688 1_555
O50 P12 1.597188 1_555
O50 V5 1.830239 1_555
O51 P15 1.550573 1_555
O51 V4 1.916924 1_555
O52 P15 1.562263 1_555
O52 V3 1.960755 1_555
O53 P7 1.482539 1_555
O54 P7 1.601927 1_655
O54 P14 1.630649 1_555
O55 P14 1.553563 1_555
O55 V5 1.993843 1_555
O56 P2 1.477836 1_555
O57 P2 1.612970 1_555
O57 P15 1.614830 1_555
