# generated using pymatgen
data_Li2Fe3SbO8
_symmetry_space_group_name_H-M   'P 1'
_cell_length_a   8.60719100
_cell_length_b   8.60719100
_cell_length_c   8.60719100
_cell_angle_alpha   90.00000000
_cell_angle_beta   90.00000000
_cell_angle_gamma   90.00000000
_symmetry_Int_Tables_number   1
_chemical_formula_structural   Li2Fe3SbO8
_chemical_formula_sum   'Li8 Fe12 Sb4 O32'
_cell_volume   637.65287358
_cell_formula_units_Z   4
loop_
 _symmetry_equiv_pos_site_id
 _symmetry_equiv_pos_as_xyz
  1  'x, y, z'
loop_
 _atom_site_type_symbol
 _atom_site_label
 _atom_site_symmetry_multiplicity
 _atom_site_fract_x
 _atom_site_fract_y
 _atom_site_fract_z
 _atom_site_occupancy
  Li  Li0  1  0.00155700  0.00155700  0.00155700  1
  Li  Li1  1  0.24844300  0.24844300  0.24844300  1
  Li  Li2  1  0.25155700  0.75155700  0.74844300  1
  Li  Li3  1  0.49844300  0.99844300  0.50155700  1
  Li  Li4  1  0.50155700  0.49844300  0.99844300  1
  Li  Li5  1  0.74844300  0.25155700  0.75155700  1
  Li  Li6  1  0.75155700  0.74844300  0.25155700  1
  Li  Li7  1  0.99844300  0.50155700  0.49844300  1
  Fe  Fe0  1  0.11633600  0.13366400  0.62500000  1
  Fe  Fe1  1  0.12500000  0.38366400  0.86633600  1
  Fe  Fe2  1  0.13366400  0.62500000  0.11633600  1
  Fe  Fe3  1  0.36633600  0.37500000  0.61633600  1
  Fe  Fe4  1  0.37500000  0.61633600  0.36633600  1
  Fe  Fe5  1  0.38366400  0.86633600  0.12500000  1
  Fe  Fe6  1  0.61633600  0.36633600  0.37500000  1
  Fe  Fe7  1  0.62500000  0.11633600  0.13366400  1
  Fe  Fe8  1  0.63366400  0.87500000  0.88366400  1
  Fe  Fe9  1  0.86633600  0.12500000  0.38366400  1
  Fe  Fe10  1  0.87500000  0.88366400  0.63366400  1
  Fe  Fe11  1  0.88366400  0.63366400  0.87500000  1
  Sb  Sb0  1  0.12500000  0.87500000  0.37500000  1
  Sb  Sb1  1  0.37500000  0.12500000  0.87500000  1
  Sb  Sb2  1  0.62500000  0.62500000  0.62500000  1
  Sb  Sb3  1  0.87500000  0.37500000  0.12500000  1
  O  O0  1  0.11376400  0.10970400  0.38633000  1
  O  O1  1  0.11367000  0.88623600  0.60970400  1
  O  O2  1  0.11645900  0.61645900  0.88354100  1
  O  O3  1  0.14029600  0.13623600  0.86367000  1
  O  O4  1  0.10970400  0.38633000  0.11376400  1
  O  O5  1  0.13354100  0.36645900  0.63354100  1
  O  O6  1  0.13633000  0.64029600  0.36376400  1
  O  O7  1  0.13623600  0.86367000  0.14029600  1
  O  O8  1  0.36376400  0.13633000  0.64029600  1
  O  O9  1  0.36367000  0.35970400  0.86376400  1
  O  O10  1  0.36645900  0.63354100  0.13354100  1
  O  O11  1  0.39029600  0.61367000  0.61376400  1
  O  O12  1  0.35970400  0.86376400  0.36367000  1
  O  O13  1  0.38354100  0.38354100  0.38354100  1
  O  O14  1  0.38633000  0.11376400  0.10970400  1
  O  O15  1  0.38623600  0.89029600  0.88633000  1
  O  O16  1  0.61376400  0.39029600  0.61367000  1
  O  O17  1  0.61367000  0.61376400  0.39029600  1
  O  O18  1  0.61645900  0.88354100  0.11645900  1
  O  O19  1  0.64029600  0.36376400  0.13633000  1
  O  O20  1  0.60970400  0.11367000  0.88623600  1
  O  O21  1  0.63354100  0.13354100  0.36645900  1
  O  O22  1  0.63633000  0.85970400  0.63623600  1
  O  O23  1  0.63623600  0.63633000  0.85970400  1
  O  O24  1  0.86376400  0.36367000  0.35970400  1
  O  O25  1  0.86367000  0.14029600  0.13623600  1
  O  O26  1  0.86645900  0.86645900  0.86645900  1
  O  O27  1  0.89029600  0.88633000  0.38623600  1
  O  O28  1  0.85970400  0.63623600  0.63633000  1
  O  O29  1  0.88354100  0.11645900  0.61645900  1
  O  O30  1  0.88633000  0.38623600  0.89029600  1
  O  O31  1  0.88623600  0.60970400  0.11367000  1
loop_
_geom_bond_atom_site_label_1
_geom_bond_atom_site_label_2
_geom_bond_distance
_geom_bond_site_symmetry_2
Li0 O26 2.014053 1_444
Li0 O7 2.044090 1_545
Li0 O25 2.044090 1_455
Li0 O3 2.044090 1_554
Li1 O13 2.014053 1_555
Li1 O0 2.044090 1_555
Li1 O14 2.044090 1_555
Li1 O4 2.044090 1_555
Li2 O2 2.014053 1_555
Li2 O1 2.044090 1_555
Li2 O15 2.044090 1_555
Li2 O11 2.044090 1_555
Li3 O21 2.014053 1_565
Li3 O22 2.044090 1_555
Li3 O12 2.044090 1_555
Li3 O8 2.044090 1_565
Li4 O10 2.014053 1_556
Li4 O23 2.044090 1_555
Li4 O19 2.044090 1_556
Li4 O9 2.044090 1_555
Li5 O29 2.014053 1_555
Li5 O30 2.044090 1_555
Li5 O20 2.044090 1_555
Li5 O16 2.044090 1_555
Li6 O18 2.014053 1_555
Li6 O31 2.044090 1_555
Li6 O27 2.044090 1_555
Li6 O17 2.044090 1_555
Li7 O5 2.014053 1_655
Li7 O28 2.044090 1_555
Li7 O24 2.044090 1_555
Li7 O6 2.044090 1_655
Fe0 O29 2.010520 1_455
Fe0 O5 2.010520 1_555
Fe0 O0 2.064723 1_555
Fe0 O3 2.064723 1_555
Fe0 O8 2.133849 1_555
Fe0 O1 2.133849 1_545
Fe1 O5 2.010520 1_555
Fe1 O2 2.010520 1_555
Fe1 O9 2.064723 1_555
Fe1 O30 2.064723 1_455
Fe1 O4 2.133849 1_556
Fe1 O3 2.133849 1_555
Fe2 O2 2.010520 1_554
Fe2 O10 2.010520 1_555
Fe2 O4 2.064723 1_555
Fe2 O7 2.064723 1_555
Fe2 O31 2.133849 1_455
Fe2 O6 2.133849 1_555
Fe3 O13 2.010520 1_555
Fe3 O5 2.010520 1_555
Fe3 O8 2.064723 1_555
Fe3 O11 2.064723 1_555
Fe3 O9 2.133849 1_555
Fe3 O16 2.133849 1_555
Fe4 O13 2.010520 1_555
Fe4 O10 2.010520 1_555
Fe4 O6 2.064723 1_555
Fe4 O17 2.064723 1_555
Fe4 O11 2.133849 1_555
Fe4 O12 2.133849 1_555
Fe5 O18 2.010520 1_555
Fe5 O10 2.010520 1_555
Fe5 O12 2.064723 1_555
Fe5 O15 2.064723 1_554
Fe5 O14 2.133849 1_565
Fe5 O7 2.133849 1_555
Fe6 O13 2.010520 1_555
Fe6 O21 2.010520 1_555
Fe6 O19 2.064723 1_555
Fe6 O16 2.064723 1_555
Fe6 O17 2.133849 1_555
Fe6 O24 2.133849 1_555
Fe7 O21 2.010520 1_555
Fe7 O18 2.010520 1_545
Fe7 O14 2.064723 1_555
Fe7 O25 2.064723 1_555
Fe7 O20 2.133849 1_554
Fe7 O19 2.133849 1_555
Fe8 O26 2.010520 1_555
Fe8 O18 2.010520 1_556
Fe8 O20 2.064723 1_565
Fe8 O23 2.064723 1_555
Fe8 O15 2.133849 1_555
Fe8 O22 2.133849 1_555
Fe9 O29 2.010520 1_555
Fe9 O21 2.010520 1_555
Fe9 O24 2.064723 1_555
Fe9 O27 2.064723 1_545
Fe9 O0 2.133849 1_655
Fe9 O25 2.133849 1_555
Fe10 O26 2.010520 1_555
Fe10 O29 2.010520 1_565
Fe10 O1 2.064723 1_655
Fe10 O22 2.064723 1_555
Fe10 O27 2.133849 1_555
Fe10 O28 2.133849 1_555
Fe11 O26 2.010520 1_555
Fe11 O2 2.010520 1_655
Fe11 O31 2.064723 1_556
Fe11 O28 2.064723 1_555
Fe11 O23 2.133849 1_555
Fe11 O30 2.133849 1_555
O0 Sb0 2.024805 1_545
O1 Sb0 2.024805 1_555
O3 Sb1 2.024805 1_555
O4 Sb3 2.024805 1_455
O6 Sb0 2.024805 1_555
O7 Sb0 2.024805 1_555
O8 Sb1 2.024805 1_555
O9 Sb1 2.024805 1_555
O11 Sb2 2.024805 1_555
O12 Sb0 2.024805 1_555
O14 Sb1 2.024805 1_554
O15 Sb1 2.024805 1_565
O16 Sb2 2.024805 1_555
O17 Sb2 2.024805 1_555
O19 Sb3 2.024805 1_555
O20 Sb1 2.024805 1_555
O22 Sb2 2.024805 1_555
O23 Sb2 2.024805 1_555
O24 Sb3 2.024805 1_555
O25 Sb3 2.024805 1_555
O27 Sb0 2.024805 1_655
O28 Sb2 2.024805 1_555
O30 Sb3 2.024805 1_556
O31 Sb3 2.024805 1_555
