# generated using pymatgen
data_La17Mn17O54
_symmetry_space_group_name_H-M   'P 1'
_cell_length_a   7.86366800
_cell_length_b   9.52452651
_cell_length_c   16.66030025
_cell_angle_alpha   73.90158307
_cell_angle_beta   76.82924311
_cell_angle_gamma   66.47433662
_symmetry_Int_Tables_number   1
_chemical_formula_structural   La17Mn17O54
_chemical_formula_sum   'La17 Mn17 O54'
_cell_volume   1089.47062440
_cell_formula_units_Z   1
loop_
 _symmetry_equiv_pos_site_id
 _symmetry_equiv_pos_as_xyz
  1  'x, y, z'
loop_
 _atom_site_type_symbol
 _atom_site_label
 _atom_site_symmetry_multiplicity
 _atom_site_fract_x
 _atom_site_fract_y
 _atom_site_fract_z
 _atom_site_occupancy
  La  La0  1  0.59843300  0.26715200  0.05256100  1
  La  La1  1  0.23911800  0.83766300  0.16134300  1
  La  La2  1  0.07923100  0.26276200  0.05184500  1
  La  La3  1  0.91353400  0.39001900  0.28025500  1
  La  La4  1  0.75811800  0.84004700  0.16130300  1
  La  La5  1  0.58554600  0.94127400  0.39058800  1
  La  La6  1  0.41339500  0.39314000  0.28326600  1
  La  La7  1  0.08607200  0.93400400  0.39203100  1
  La  La8  1  0.91903600  0.05569100  0.61014500  1
  La  La9  1  0.74893700  0.50000100  0.49996000  1
  La  La10  1  0.58123500  0.61103000  0.72134000  1
  La  La11  1  0.41467100  0.06582300  0.60863000  1
  La  La12  1  0.24198800  0.16133200  0.83710000  1
  La  La13  1  0.08681000  0.60549900  0.71696000  1
  La  La14  1  0.92102200  0.73724100  0.94760900  1
  La  La15  1  0.76070900  0.16377800  0.83738100  1
  La  La16  1  0.40097600  0.73344000  0.94785200  1
  Mn  Mn0  1  0.66664500  0.55509600  0.11117600  1
  Mn  Mn1  1  0.33368000  0.11066400  0.22294800  1
  Mn  Mn2  1  0.17054700  0.54942000  0.11155100  1
  Mn  Mn3  1  0.00227100  0.66442100  0.33559700  1
  Mn  Mn4  1  0.83399200  0.11067500  0.22383300  1
  Mn  Mn5  1  0.66266000  0.22573000  0.44504900  1
  Mn  Mn6  1  0.49835700  0.66578200  0.33432500  1
  Mn  Mn7  1  0.33326200  0.77445300  0.55469900  1
  Mn  Mn8  1  0.16769400  0.22537400  0.44518900  1
  Mn  Mn9  1  0.00245900  0.33480500  0.66434400  1
  Mn  Mn10  1  0.83746300  0.77519200  0.55467400  1
  Mn  Mn11  1  0.66664900  0.88900000  0.77722700  1
  Mn  Mn12  1  0.49684400  0.33474500  0.66592900  1
  Mn  Mn13  1  0.33260300  0.44505800  0.88910300  1
  Mn  Mn14  1  0.16592200  0.88872400  0.77617100  1
  Mn  Mn15  1  0.82957500  0.45041900  0.88875800  1
  Mn  Mn16  1  0.49989300  0.00024200  0.99980100  1
  O  O0  1  0.73541900  0.98312900  0.01924800  1
  O  O1  1  0.37383200  0.08151800  0.10479600  1
  O  O2  1  0.54130000  0.78344900  0.06797600  1
  O  O3  1  0.12630200  0.75574000  0.04845100  1
  O  O4  1  0.41728700  0.53241400  0.13280600  1
  O  O5  1  0.29336200  0.46940800  0.00800000  1
  O  O6  1  0.04550400  0.63771500  0.21462900  1
  O  O7  1  0.91645900  0.57631400  0.09147600  1
  O  O8  1  0.20735000  0.33929800  0.18155200  1
  O  O9  1  0.79064900  0.32583100  0.15294400  1
  O  O10  1  0.08276100  0.09068500  0.24433800  1
  O  O11  1  0.94537100  0.03483500  0.12458400  1
  O  O12  1  0.71060500  0.19271300  0.32613600  1
  O  O13  1  0.58395700  0.12997000  0.20256100  1
  O  O14  1  0.87936500  0.89540300  0.29065400  1
  O  O15  1  0.45742900  0.88519700  0.26304800  1
  O  O16  1  0.75077800  0.64694400  0.35185600  1
  O  O17  1  0.62192000  0.58565700  0.22786400  1
  O  O18  1  0.38853700  0.76047200  0.43521000  1
  O  O19  1  0.25000200  0.68973000  0.31023600  1
  O  O20  1  0.56629900  0.44669900  0.39433000  1
  O  O21  1  0.11091000  0.43574900  0.36958700  1
  O  O22  1  0.42775600  0.18788900  0.45976400  1
  O  O23  1  0.28885400  0.14094400  0.33951300  1
  O  O24  1  0.03345800  0.29150900  0.55272200  1
  O  O25  1  0.91718400  0.23797300  0.42654000  1
  O  O26  1  0.21411200  0.00582400  0.51276400  1
  O  O27  1  0.78876300  0.99414100  0.48808700  1
  O  O28  1  0.07365000  0.77503400  0.57706200  1
  O  O29  1  0.93436700  0.71138300  0.44696900  1
  O  O30  1  0.70647300  0.86038600  0.66074200  1
  O  O31  1  0.58265100  0.79698000  0.53822600  1
  O  O32  1  0.87374900  0.56340600  0.62596500  1
  O  O33  1  0.46568300  0.55222400  0.60461500  1
  O  O34  1  0.74938900  0.31315300  0.68774100  1
  O  O35  1  0.62601400  0.24822300  0.56225600  1
  O  O36  1  0.37798700  0.41703600  0.77174000  1
  O  O37  1  0.24947200  0.34309600  0.65738400  1
  O  O38  1  0.54486000  0.11504700  0.73606900  1
  O  O39  1  0.12120400  0.10362800  0.70802200  1
  O  O40  1  0.41611800  0.86957100  0.79780300  1
  O  O41  1  0.28857100  0.80711900  0.67376400  1
  O  O42  1  0.05417200  0.96636900  0.87496600  1
  O  O43  1  0.91700100  0.90748700  0.75735400  1
  O  O44  1  0.21054700  0.67351000  0.84702100  1
  O  O45  1  0.79473800  0.65934700  0.81759100  1
  O  O46  1  0.08378500  0.42330100  0.90857600  1
  O  O47  1  0.95228800  0.36346600  0.78458100  1
  O  O48  1  0.70647000  0.53072600  0.99246300  1
  O  O49  1  0.58196300  0.46694700  0.86884400  1
  O  O50  1  0.87372000  0.24419100  0.95148200  1
  O  O51  1  0.45896300  0.21659100  0.93132000  1
  O  O52  1  0.62661900  0.91810000  0.89469900  1
  O  O53  1  0.26467600  0.01683500  0.98052400  1
loop_
_geom_bond_atom_site_label_1
_geom_bond_atom_site_label_2
_geom_bond_distance
_geom_bond_site_symmetry_2
La0 O50 2.394774 1_554
La0 O13 2.478638 1_555
La0 O5 2.519205 1_555
La0 O0 2.649581 1_545
La0 O51 2.735953 1_554
La0 O9 2.781862 1_555
La0 O1 2.818166 1_555
La0 O48 2.819130 1_554
La0 O4 2.886497 1_555
La0 O11 2.996523 1_555
La0 O49 3.124121 1_554
La0 O8 3.266251 1_555
La1 O11 2.404443 1_465
La1 O2 2.472719 1_555
La1 O19 2.491611 1_555
La1 O3 2.657102 1_555
La1 O6 2.737540 1_555
La1 O1 2.774921 1_565
La1 O4 2.802296 1_555
La1 O10 2.817643 1_565
La1 O15 2.897368 1_555
La1 O53 3.028968 1_564
La1 O14 3.095883 1_455
La1 O17 3.213698 1_555
La2 O46 2.453025 1_554
La2 O1 2.453417 1_555
La2 O9 2.465489 1_455
La2 O53 2.655562 1_554
La2 O50 2.657526 1_454
La2 O11 2.659585 1_455
La2 O5 2.920738 1_555
La2 O7 2.941063 1_455
La2 O8 2.944183 1_555
La2 O51 3.138639 1_554
La2 O48 3.167613 1_454
La2 O10 3.171918 1_555
La3 O25 2.465581 1_555
La3 O17 2.468095 1_555
La3 O8 2.468576 1_655
La3 O21 2.601080 1_655
La3 O16 2.733519 1_555
La3 O12 2.775582 1_555
La3 O10 2.794936 1_655
La3 O6 2.800912 1_655
La3 O9 2.816228 1_555
La3 O20 2.895964 1_555
La3 O23 3.122933 1_655
La3 O7 3.153635 1_555
La4 O0 2.387441 1_555
La4 O6 2.469608 1_655
La4 O15 2.532831 1_555
La4 O11 2.669357 1_565
La4 O13 2.752794 1_565
La4 O7 2.770762 1_555
La4 O14 2.792661 1_555
La4 O2 2.832278 1_555
La4 O17 2.878853 1_555
La4 O3 3.010478 1_655
La4 O1 3.139265 1_565
La4 O16 3.198078 1_555
La5 O31 2.462549 1_555
La5 O14 2.479067 1_555
La5 O23 2.499841 1_565
La5 O18 2.610204 1_555
La5 O22 2.628312 1_565
La5 O16 2.770687 1_555
La5 O27 2.779334 1_555
La5 O12 2.797892 1_565
La5 O15 2.801746 1_555
La5 O29 2.905092 1_555
La5 O26 3.098963 1_565
La5 O13 3.149756 1_565
La6 O21 2.425904 1_555
La6 O12 2.461589 1_555
La6 O4 2.489488 1_555
La6 O20 2.675220 1_555
La6 O19 2.715875 1_555
La6 O17 2.770383 1_555
La6 O23 2.796169 1_555
La6 O8 2.855936 1_555
La6 O13 2.872812 1_555
La6 O22 3.044369 1_555
La6 O6 3.123085 1_555
La6 O9 3.200660 1_555
La7 O18 2.426617 1_555
La7 O27 2.467661 1_455
La7 O10 2.498809 1_565
La7 O29 2.683710 1_455
La7 O19 2.737750 1_555
La7 O14 2.775341 1_455
La7 O26 2.786297 1_565
La7 O25 2.825225 1_465
La7 O23 2.847824 1_565
La7 O28 3.032706 1_555
La7 O15 3.157873 1_555
La7 O12 3.188002 1_465
La8 O35 2.441701 1_555
La8 O26 2.464528 1_655
La8 O43 2.467389 1_545
La8 O24 2.607497 1_655
La8 O28 2.616246 1_645
La8 O39 2.751119 1_655
La8 O27 2.760111 1_545
La8 O34 2.797288 1_555
La8 O30 2.816987 1_545
La9 O33 2.464860 1_555
La9 O24 2.470468 1_655
La9 O16 2.476303 1_555
La9 O20 2.765275 1_555
La9 O29 2.780352 1_555
La9 O35 2.788429 1_555
La9 O31 2.790090 1_555
La9 O25 2.791888 1_555
La9 O32 2.801816 1_555
La10 O32 2.433683 1_555
La10 O41 2.447824 1_555
La10 O49 2.460139 1_555
La10 O33 2.595523 1_555
La10 O36 2.749381 1_555
La10 O34 2.767612 1_555
La10 O30 2.777440 1_555
La10 O40 2.793910 1_555
La10 O45 2.802664 1_555
La11 O22 2.427659 1_555
La11 O39 2.474497 1_555
La11 O30 2.495824 1_545
La11 O37 2.700301 1_555
La11 O35 2.711546 1_555
La11 O38 2.775158 1_555
La11 O26 2.781794 1_555
La11 O31 2.817219 1_545
La11 O41 2.865251 1_545
La11 O24 3.080980 1_555
La11 O27 3.101276 1_545
La11 O40 3.187385 1_545
La12 O53 2.410410 1_555
La12 O47 2.476831 1_455
La12 O38 2.538975 1_555
La12 O42 2.672571 1_545
La12 O40 2.754730 1_545
La12 O46 2.772365 1_555
La12 O39 2.798525 1_555
La12 O51 2.836875 1_555
La12 O36 2.887698 1_555
La12 O37 3.015253 1_555
La12 O50 3.022479 1_455
La12 O52 3.151513 1_545
La13 O28 2.437171 1_555
La13 O36 2.461799 1_555
La13 O45 2.476015 1_455
La13 O37 2.666958 1_555
La13 O32 2.701277 1_455
La13 O47 2.768718 1_455
La13 O41 2.805065 1_555
La13 O43 2.847251 1_455
La13 O44 2.881678 1_555
La13 O33 3.068512 1_555
La13 O30 3.152003 1_455
La13 O46 3.182664 1_555
La14 O52 2.451166 1_555
La14 O7 2.462296 1_556
La14 O44 2.466273 1_655
La14 O0 2.658394 1_556
La14 O3 2.662062 1_656
La14 O42 2.665628 1_655
La14 O48 2.921209 1_555
La14 O46 2.940367 1_655
La14 O45 2.947611 1_555
La14 O43 3.135556 1_555
La14 O2 3.137343 1_556
La14 O5 3.170024 1_656
La15 O42 2.407174 1_645
La15 O51 2.474703 1_555
La15 O34 2.506062 1_555
La15 O50 2.666576 1_555
La15 O47 2.723307 1_555
La15 O52 2.787625 1_545
La15 O49 2.802116 1_555
La15 O43 2.812469 1_545
La15 O38 2.883473 1_555
La15 O0 3.047627 1_546
La15 O39 3.100510 1_655
La15 O36 3.211478 1_555
La16 O3 2.387668 1_556
La16 O40 2.476829 1_555
La16 O48 2.523152 1_555
La16 O53 2.640102 1_565
La16 O2 2.721087 1_556
La16 O44 2.784012 1_555
La16 O52 2.817370 1_555
La16 O5 2.821230 1_556
La16 O49 2.883751 1_555
La16 O42 3.003137 1_555
La16 O4 3.144762 1_556
La16 O45 3.292132 1_555
Mn0 O17 1.976940 1_555
Mn0 O2 1.990909 1_555
Mn0 O9 1.992496 1_555
Mn0 O48 1.994473 1_554
Mn0 O7 1.998493 1_555
Mn0 O4 1.998632 1_555
Mn1 O15 1.958890 1_545
Mn1 O23 1.973909 1_555
Mn1 O8 1.989203 1_555
Mn1 O13 1.993043 1_555
Mn1 O10 1.999551 1_555
Mn1 O1 2.000346 1_555
Mn2 O3 1.887598 1_555
Mn2 O8 1.961163 1_555
Mn2 O5 1.967752 1_555
Mn2 O4 1.986638 1_555
Mn2 O6 1.998627 1_555
Mn2 O7 2.004537 1_455
Mn3 O29 1.935492 1_455
Mn3 O21 1.960924 1_555
Mn3 O19 1.993724 1_555
Mn3 O16 2.001472 1_455
Mn3 O14 2.013337 1_455
Mn3 O6 2.035926 1_555
Mn4 O11 1.876262 1_555
Mn4 O12 1.958739 1_555
Mn4 O14 1.975288 1_545
Mn4 O10 1.987699 1_655
Mn4 O9 1.998526 1_555
Mn4 O13 2.004556 1_555
Mn5 O20 1.936500 1_555
Mn5 O35 1.966793 1_555
Mn5 O22 1.969340 1_555
Mn5 O25 1.999945 1_555
Mn5 O27 2.015845 1_545
Mn5 O12 2.019003 1_555
Mn6 O20 1.958452 1_555
Mn6 O18 1.985345 1_555
Mn6 O19 1.994497 1_555
Mn6 O16 2.002089 1_555
Mn6 O17 2.011407 1_555
Mn6 O15 2.035202 1_555
Mn7 O18 1.968788 1_555
Mn7 O33 1.978617 1_555
Mn7 O28 1.987985 1_555
Mn7 O26 2.004599 1_565
Mn7 O31 2.006316 1_555
Mn7 O41 2.022993 1_555
Mn8 O21 1.985738 1_555
Mn8 O24 1.988430 1_555
Mn8 O22 1.990970 1_555
Mn8 O26 2.011412 1_555
Mn8 O25 2.015210 1_455
Mn8 O23 2.015741 1_555
Mn9 O37 1.951267 1_555
Mn9 O24 1.956081 1_555
Mn9 O32 1.984318 1_455
Mn9 O39 2.007316 1_555
Mn9 O34 2.020978 1_455
Mn9 O47 2.024858 1_455
Mn10 O29 1.944699 1_555
Mn10 O28 1.975304 1_655
Mn10 O32 1.981749 1_555
Mn10 O27 1.999810 1_555
Mn10 O31 2.004976 1_555
Mn10 O30 2.034854 1_555
Mn11 O38 1.963980 1_565
Mn11 O30 1.971495 1_555
Mn11 O52 1.989133 1_555
Mn11 O43 1.990908 1_555
Mn11 O40 1.995275 1_555
Mn11 O45 1.996320 1_555
Mn12 O37 1.951153 1_555
Mn12 O33 1.982316 1_555
Mn12 O35 2.003941 1_555
Mn12 O36 2.006512 1_555
Mn12 O34 2.019814 1_555
Mn12 O38 2.025088 1_555
Mn13 O36 1.979187 1_555
Mn13 O44 1.985118 1_555
Mn13 O51 1.990162 1_555
Mn13 O46 1.993413 1_555
Mn13 O49 1.997044 1_555
Mn13 O5 1.997975 1_556
Mn14 O42 1.877606 1_555
Mn14 O41 1.957626 1_555
Mn14 O39 1.980126 1_565
Mn14 O43 1.982693 1_455
Mn14 O44 1.997714 1_555
Mn14 O40 2.008531 1_555
Mn15 O50 1.885032 1_555
Mn15 O45 1.960884 1_555
Mn15 O48 1.971522 1_555
Mn15 O49 1.986688 1_555
Mn15 O46 2.003276 1_655
Mn15 O47 2.006332 1_555
Mn16 O53 1.886422 1_555
Mn16 O0 1.888115 1_546
Mn16 O51 1.996374 1_555
Mn16 O1 1.997483 1_556
Mn16 O2 1.997714 1_546
Mn16 O52 2.003351 1_545
