# generated using pymatgen
data_Na5MnHO4
_symmetry_space_group_name_H-M   'P 1'
_cell_length_a   10.09625223
_cell_length_b   10.36104672
_cell_length_c   12.14891514
_cell_angle_alpha   90.00000000
_cell_angle_beta   90.00000000
_cell_angle_gamma   90.00000000
_symmetry_Int_Tables_number   1
_chemical_formula_structural   Na5MnHO4
_chemical_formula_sum   'Na40 Mn8 H8 O32'
_cell_volume   1270.87056903
_cell_formula_units_Z   8
loop_
 _symmetry_equiv_pos_site_id
 _symmetry_equiv_pos_as_xyz
  1  'x, y, z'
loop_
 _atom_site_type_symbol
 _atom_site_label
 _atom_site_symmetry_multiplicity
 _atom_site_fract_x
 _atom_site_fract_y
 _atom_site_fract_z
 _atom_site_occupancy
  Na  Na0  1  0.98923548  0.58779751  0.20890639  1
  Na  Na1  1  0.98923548  0.91220249  0.20890639  1
  Na  Na2  1  0.06998440  0.06340994  0.41729979  1
  Na  Na3  1  0.06998440  0.43659006  0.41729979  1
  Na  Na4  1  0.08080010  0.75000000  0.44616061  1
  Na  Na5  1  0.11780868  0.25000000  0.98297011  1
  Na  Na6  1  0.12348526  0.56392257  0.99078774  1
  Na  Na7  1  0.12348526  0.93607743  0.99078774  1
  Na  Na8  1  0.21597100  0.57681645  0.67028538  1
  Na  Na9  1  0.21597100  0.92318355  0.67028538  1
  Na  Na10  1  0.28402900  0.07681645  0.17028538  1
  Na  Na11  1  0.28402900  0.42318355  0.17028538  1
  Na  Na12  1  0.37651474  0.06392257  0.49078774  1
  Na  Na13  1  0.37651474  0.43607743  0.49078774  1
  Na  Na14  1  0.38219132  0.75000000  0.48297011  1
  Na  Na15  1  0.41919990  0.25000000  0.94616061  1
  Na  Na16  1  0.43001560  0.56340994  0.91729979  1
  Na  Na17  1  0.43001560  0.93659006  0.91729979  1
  Na  Na18  1  0.51076452  0.08779751  0.70890639  1
  Na  Na19  1  0.51076452  0.41220249  0.70890639  1
  Na  Na20  1  0.48923548  0.58779751  0.29109361  1
  Na  Na21  1  0.48923548  0.91220249  0.29109361  1
  Na  Na22  1  0.56998440  0.06340994  0.08270021  1
  Na  Na23  1  0.56998440  0.43659006  0.08270021  1
  Na  Na24  1  0.58080010  0.75000000  0.05383939  1
  Na  Na25  1  0.61780868  0.25000000  0.51702989  1
  Na  Na26  1  0.62348526  0.56392257  0.50921226  1
  Na  Na27  1  0.62348526  0.93607743  0.50921226  1
  Na  Na28  1  0.71597100  0.57681645  0.82971462  1
  Na  Na29  1  0.71597100  0.92318355  0.82971462  1
  Na  Na30  1  0.78402900  0.07681645  0.32971462  1
  Na  Na31  1  0.78402900  0.42318355  0.32971462  1
  Na  Na32  1  0.87651474  0.06392257  0.00921226  1
  Na  Na33  1  0.87651474  0.43607743  0.00921226  1
  Na  Na34  1  0.88219132  0.75000000  0.01702989  1
  Na  Na35  1  0.91919990  0.25000000  0.55383939  1
  Na  Na36  1  0.93001560  0.93659006  0.58270021  1
  Na  Na37  1  0.93001560  0.56340994  0.58270021  1
  Na  Na38  1  0.01076452  0.08779751  0.79109361  1
  Na  Na39  1  0.01076452  0.41220249  0.79109361  1
  Mn  Mn0  1  0.01229802  0.25000000  0.20682581  1
  Mn  Mn1  1  0.20387684  0.25000000  0.62510272  1
  Mn  Mn2  1  0.29612316  0.75000000  0.12510272  1
  Mn  Mn3  1  0.48770198  0.75000000  0.70682581  1
  Mn  Mn4  1  0.51229802  0.25000000  0.29317419  1
  Mn  Mn5  1  0.70387684  0.25000000  0.87489728  1
  Mn  Mn6  1  0.79612316  0.75000000  0.37489728  1
  Mn  Mn7  1  0.98770198  0.75000000  0.79317419  1
  H  H0  1  0.23190636  0.62545558  0.31130332  1
  H  H1  1  0.23190636  0.87454442  0.31130332  1
  H  H2  1  0.26809364  0.12545558  0.81130332  1
  H  H3  1  0.26809364  0.37454442  0.81130332  1
  H  H4  1  0.73190636  0.62545558  0.18869668  1
  H  H5  1  0.73190636  0.87454442  0.18869668  1
  H  H6  1  0.76809364  0.12545558  0.68869668  1
  H  H7  1  0.76809364  0.37454442  0.68869668  1
  O  O0  1  0.06210059  0.75000000  0.64257198  1
  O  O1  1  0.06430813  0.40664207  0.12174252  1
  O  O2  1  0.06430813  0.09335793  0.12174252  1
  O  O3  1  0.09077005  0.40650972  0.60841576  1
  O  O4  1  0.09077005  0.09349028  0.60841576  1
  O  O5  1  0.10089364  0.75000000  0.11250760  1
  O  O6  1  0.24279356  0.07978904  0.87884035  1
  O  O7  1  0.24279356  0.42021096  0.87884035  1
  O  O8  1  0.25720644  0.57978904  0.37884035  1
  O  O9  1  0.25720644  0.92021096  0.37884035  1
  O  O10  1  0.39910636  0.25000000  0.61250760  1
  O  O11  1  0.40922995  0.59349028  0.10841576  1
  O  O12  1  0.40922995  0.90650972  0.10841576  1
  O  O13  1  0.43569187  0.59335793  0.62174252  1
  O  O14  1  0.43569187  0.90664207  0.62174252  1
  O  O15  1  0.43789941  0.25000000  0.14257198  1
  O  O16  1  0.56210059  0.75000000  0.85742802  1
  O  O17  1  0.56430813  0.09335793  0.37825748  1
  O  O18  1  0.56430813  0.40664207  0.37825748  1
  O  O19  1  0.59077005  0.09349028  0.89158424  1
  O  O20  1  0.59077005  0.40650972  0.89158424  1
  O  O21  1  0.60089364  0.75000000  0.38749240  1
  O  O22  1  0.74279356  0.07978904  0.62115965  1
  O  O23  1  0.74279356  0.42021096  0.62115965  1
  O  O24  1  0.75720644  0.57978904  0.12115965  1
  O  O25  1  0.75720644  0.92021096  0.12115965  1
  O  O26  1  0.89910636  0.25000000  0.88749240  1
  O  O27  1  0.90922995  0.90650972  0.39158424  1
  O  O28  1  0.90922995  0.59349028  0.39158424  1
  O  O29  1  0.93569187  0.90664207  0.87825748  1
  O  O30  1  0.93569187  0.59335793  0.87825748  1
  O  O31  1  0.93789941  0.25000000  0.35742802  1
loop_
_geom_bond_atom_site_label_1
_geom_bond_atom_site_label_2
_geom_bond_distance
_geom_bond_site_symmetry_2
Na0 O1 2.284478 1_655
Na0 O5 2.338122 1_655
Na0 O28 2.362500 1_555
Na1 O2 2.284478 1_665
Na1 O5 2.338122 1_655
Na1 O27 2.362500 1_555
Na2 O27 2.318303 1_445
Na2 O4 2.352056 1_555
Na2 O9 2.447992 1_545
Na2 O31 2.458657 1_455
Na3 O28 2.318303 1_455
Na3 O3 2.352056 1_555
Na3 O8 2.447992 1_555
Na3 O31 2.458657 1_455
Na4 O0 2.393642 1_555
Na4 O27 2.463696 1_455
Na4 O28 2.463696 1_455
Na5 O2 2.401706 1_556
Na5 O1 2.401706 1_556
Na5 O26 2.494208 1_455
Na5 O6 2.510554 1_555
Na5 O7 2.510554 1_555
Na6 O7 2.349003 1_555
Na6 O1 2.354502 1_556
Na6 O30 2.357304 1_455
Na6 O5 2.440448 1_556
Na7 O6 2.349003 1_565
Na7 O2 2.354502 1_566
Na7 O29 2.357304 1_455
Na7 O5 2.440448 1_556
Na8 O3 2.297059 1_555
Na8 O13 2.301799 1_555
Na8 O0 2.397187 1_555
Na9 O4 2.297059 1_565
Na9 O14 2.301799 1_555
Na9 O0 2.397187 1_555
Na10 O12 2.297059 1_545
Na10 O2 2.301799 1_555
Na10 O15 2.397187 1_555
Na11 O11 2.297059 1_555
Na11 O1 2.301799 1_555
Na11 O15 2.397187 1_555
Na12 O9 2.349003 1_545
Na12 O14 2.354502 1_545
Na12 O17 2.357304 1_555
Na12 O10 2.440448 1_555
Na13 O8 2.349003 1_555
Na13 O13 2.354502 1_555
Na13 O18 2.357304 1_555
Na13 O10 2.440448 1_555
Na14 O13 2.401706 1_555
Na14 O14 2.401706 1_555
Na14 O21 2.494208 1_555
Na14 O9 2.510554 1_555
Na14 O8 2.510554 1_555
Na15 O15 2.393642 1_556
Na15 O19 2.463696 1_555
Na15 O20 2.463696 1_555
Na16 O20 2.318303 1_555
Na16 O11 2.352056 1_556
Na16 O7 2.447992 1_555
Na16 O16 2.458657 1_555
Na17 O19 2.318303 1_565
Na17 O12 2.352056 1_556
Na17 O6 2.447992 1_565
Na17 O16 2.458657 1_555
Na18 O14 2.284478 1_545
Na18 O10 2.338122 1_555
Na18 O19 2.362500 1_555
Na19 O13 2.284478 1_555
Na19 O10 2.338122 1_555
Na19 O20 2.362500 1_555
Na20 O18 2.284478 1_555
Na20 O21 2.338122 1_555
Na20 O11 2.362500 1_555
Na21 O17 2.284478 1_565
Na21 O21 2.338122 1_555
Na21 O12 2.362500 1_555
Na22 O12 2.318303 1_545
Na22 O19 2.352056 1_554
Na22 O25 2.447992 1_545
Na22 O15 2.458657 1_555
Na23 O11 2.318303 1_555
Na23 O20 2.352056 1_554
Na23 O24 2.447992 1_555
Na23 O15 2.458657 1_555
Na24 O16 2.393642 1_554
Na24 O12 2.463696 1_555
Na24 O11 2.463696 1_555
Na25 O17 2.401706 1_555
Na25 O18 2.401706 1_555
Na25 O10 2.494208 1_555
Na25 O22 2.510554 1_555
Na25 O23 2.510554 1_555
Na26 O23 2.349003 1_555
Na26 O18 2.354502 1_555
Na26 O13 2.357304 1_555
Na26 O21 2.440448 1_555
Na27 O22 2.349003 1_565
Na27 O17 2.354502 1_565
Na27 O14 2.357304 1_555
Na27 O21 2.440448 1_555
Na28 O20 2.297059 1_555
Na28 O30 2.301799 1_555
Na28 O16 2.397187 1_555
Na29 O19 2.297059 1_565
Na29 O29 2.301799 1_555
Na29 O16 2.397187 1_555
Na30 O27 2.297059 1_545
Na30 O17 2.301799 1_555
Na30 O31 2.397187 1_555
Na31 O28 2.297059 1_555
Na31 O18 2.301799 1_555
Na31 O31 2.397187 1_555
Na32 O25 2.349003 1_545
Na32 O29 2.354502 1_544
Na32 O2 2.357304 1_655
Na32 O26 2.440448 1_554
Na33 O24 2.349003 1_555
Na33 O30 2.354502 1_554
Na33 O1 2.357304 1_655
Na33 O26 2.440448 1_554
Na34 O29 2.401706 1_554
Na34 O30 2.401706 1_554
Na34 O5 2.494208 1_655
Na34 O24 2.510554 1_555
Na34 O25 2.510554 1_555
Na35 O31 2.393642 1_555
Na35 O3 2.463696 1_655
Na35 O4 2.463696 1_655
Na36 O4 2.318303 1_665
Na36 O27 2.352056 1_555
Na36 O22 2.447992 1_565
Na36 O0 2.458657 1_655
Na37 O3 2.318303 1_655
Na37 O28 2.352056 1_555
Na37 O23 2.447992 1_555
Na37 O0 2.458657 1_655
Na38 O29 2.284478 1_445
Na38 O26 2.338122 1_455
Na38 O4 2.362500 1_555
Na39 O30 2.284478 1_455
Na39 O26 2.338122 1_455
Na39 O3 2.362500 1_555
Mn0 O31 1.977841 1_455
Mn0 O2 1.994558 1_555
Mn0 O1 1.994558 1_555
Mn1 O10 1.977017 1_555
Mn1 O3 1.993680 1_555
Mn1 O4 1.993680 1_555
Mn2 O5 1.977017 1_555
Mn2 O12 1.993680 1_555
Mn2 O11 1.993680 1_555
Mn3 O16 1.977841 1_555
Mn3 O13 1.994558 1_555
Mn3 O14 1.994558 1_555
Mn4 O15 1.977841 1_555
Mn4 O17 1.994558 1_555
Mn4 O18 1.994558 1_555
Mn5 O26 1.977017 1_555
Mn5 O19 1.993680 1_555
Mn5 O20 1.993680 1_555
Mn6 O21 1.977017 1_555
Mn6 O27 1.993680 1_555
Mn6 O28 1.993680 1_555
Mn7 O0 1.977841 1_655
Mn7 O29 1.994558 1_555
Mn7 O30 1.994558 1_555
H0 O8 0.980992 1_555
H1 O9 0.980992 1_555
H2 O6 0.980992 1_555
H3 O7 0.980992 1_555
H4 O24 0.980992 1_555
H5 O25 0.980992 1_555
H6 O22 0.980992 1_555
H7 O23 0.980992 1_555
