# generated using pymatgen
data_H12Cl2O13
_symmetry_space_group_name_H-M   'P 1'
_cell_length_a   7.23028900
_cell_length_b   11.17431300
_cell_length_c   15.69823811
_cell_angle_alpha   54.70976453
_cell_angle_beta   90.00000000
_cell_angle_gamma   90.00000000
_symmetry_Int_Tables_number   1
_chemical_formula_structural   H12Cl2O13
_chemical_formula_sum   'H48 Cl8 O52'
_cell_volume   1035.24508532
_cell_formula_units_Z   4
loop_
 _symmetry_equiv_pos_site_id
 _symmetry_equiv_pos_as_xyz
  1  'x, y, z'
loop_
 _atom_site_type_symbol
 _atom_site_label
 _atom_site_symmetry_multiplicity
 _atom_site_fract_x
 _atom_site_fract_y
 _atom_site_fract_z
 _atom_site_occupancy
  H  H0  1  0.57324700  0.07960600  0.88682100  1
  H  H1  1  0.07324700  0.92039400  0.61317900  1
  H  H2  1  0.42675300  0.92039400  0.11317900  1
  H  H3  1  0.92675300  0.07960600  0.38682100  1
  H  H4  1  0.91725600  0.05222000  0.55890100  1
  H  H5  1  0.41725600  0.94778000  0.94109900  1
  H  H6  1  0.08274400  0.94778000  0.44109900  1
  H  H7  1  0.58274400  0.05222000  0.05890100  1
  H  H8  1  0.91065100  0.92650200  0.69077800  1
  H  H9  1  0.41065100  0.07349800  0.80922200  1
  H  H10  1  0.08934900  0.07349800  0.30922200  1
  H  H11  1  0.58934900  0.92650200  0.19077800  1
  H  H12  1  0.64973500  0.86755600  0.76688300  1
  H  H13  1  0.14973500  0.13244400  0.73311700  1
  H  H14  1  0.35026500  0.13244400  0.23311700  1
  H  H15  1  0.85026500  0.86755600  0.26688300  1
  H  H16  1  0.80147000  0.91484000  0.81450100  1
  H  H17  1  0.30147000  0.08516000  0.68549900  1
  H  H18  1  0.19853000  0.08516000  0.18549900  1
  H  H19  1  0.69853000  0.91484000  0.31450100  1
  H  H20  1  0.82140900  0.67016600  0.87112300  1
  H  H21  1  0.32140900  0.32983400  0.62887700  1
  H  H22  1  0.17859100  0.32983400  0.12887700  1
  H  H23  1  0.67859100  0.67016600  0.37112300  1
  H  H24  1  0.76316800  0.50860100  0.88859800  1
  H  H25  1  0.26316800  0.49139900  0.61140200  1
  H  H26  1  0.23683200  0.49139900  0.11140200  1
  H  H27  1  0.73683200  0.50860100  0.38859800  1
  H  H28  1  0.98431100  0.57637700  0.86895000  1
  H  H29  1  0.48431100  0.42362300  0.63105000  1
  H  H30  1  0.01568900  0.42362300  0.13105000  1
  H  H31  1  0.51568900  0.57637700  0.36895000  1
  H  H32  1  0.59360400  0.49317800  0.79253900  1
  H  H33  1  0.09360400  0.50682200  0.70746100  1
  H  H34  1  0.40639600  0.50682200  0.20746100  1
  H  H35  1  0.90639600  0.49317800  0.29253900  1
  H  H36  1  0.50738500  0.42851400  0.90348500  1
  H  H37  1  0.00738500  0.57148600  0.59651500  1
  H  H38  1  0.49261500  0.57148600  0.09651500  1
  H  H39  1  0.99261500  0.42851400  0.40348500  1
  H  H40  1  0.66785700  0.24712500  0.91795900  1
  H  H41  1  0.16785700  0.75287500  0.58204100  1
  H  H42  1  0.33214300  0.75287500  0.08204100  1
  H  H43  1  0.83214300  0.24712500  0.41795900  1
  H  H44  1  0.81493100  0.11854200  0.96246400  1
  H  H45  1  0.31493100  0.88145800  0.53753600  1
  H  H46  1  0.18506900  0.88145800  0.03753600  1
  H  H47  1  0.68506900  0.11854200  0.46246400  1
  Cl  Cl0  1  0.66733900  0.72322700  0.59479200  1
  Cl  Cl1  1  0.16733900  0.27677300  0.90520800  1
  Cl  Cl2  1  0.33266100  0.27677300  0.40520800  1
  Cl  Cl3  1  0.83266100  0.72322700  0.09479200  1
  Cl  Cl4  1  0.80635200  0.25113800  0.67019500  1
  Cl  Cl5  1  0.30635200  0.74886200  0.82980500  1
  Cl  Cl6  1  0.19364800  0.74886200  0.32980500  1
  Cl  Cl7  1  0.69364800  0.25113800  0.17019500  1
  O  O0  1  0.76147000  0.68194400  0.53318100  1
  O  O1  1  0.26147000  0.31805600  0.96681900  1
  O  O2  1  0.23853000  0.31805600  0.46681900  1
  O  O3  1  0.73853000  0.68194400  0.03318100  1
  O  O4  1  0.58049800  0.86705800  0.52472900  1
  O  O5  1  0.08049800  0.13294200  0.97527100  1
  O  O6  1  0.41950200  0.13294200  0.47527100  1
  O  O7  1  0.91950200  0.86705800  0.02472900  1
  O  O8  1  0.52189000  0.61441200  0.65942200  1
  O  O9  1  0.02189000  0.38558800  0.84057800  1
  O  O10  1  0.47811000  0.38558800  0.34057800  1
  O  O11  1  0.97811000  0.61441200  0.15942200  1
  O  O12  1  0.79871800  0.72682100  0.66352000  1
  O  O13  1  0.29871800  0.27317900  0.83648000  1
  O  O14  1  0.20128200  0.27317900  0.33648000  1
  O  O15  1  0.70128200  0.72682100  0.16352000  1
  O  O16  1  0.93848700  0.35643700  0.59373700  1
  O  O17  1  0.43848700  0.64356300  0.90626300  1
  O  O18  1  0.06151300  0.64356300  0.40626300  1
  O  O19  1  0.56151300  0.35643700  0.09373700  1
  O  O20  1  0.90933800  0.12986200  0.76217700  1
  O  O21  1  0.40933800  0.87013800  0.73782300  1
  O  O22  1  0.09066200  0.87013800  0.23782300  1
  O  O23  1  0.59066200  0.12986200  0.26217700  1
  O  O24  1  0.69226700  0.19129200  0.62707500  1
  O  O25  1  0.19226700  0.80870800  0.87292500  1
  O  O26  1  0.30773300  0.80870800  0.37292500  1
  O  O27  1  0.80773300  0.19129200  0.12707500  1
  O  O28  1  0.68813400  0.32081200  0.70626200  1
  O  O29  1  0.18813400  0.67918800  0.79373800  1
  O  O30  1  0.31186600  0.67918800  0.29373800  1
  O  O31  1  0.81186600  0.32081200  0.20626200  1
  O  O32  1  0.99771300  0.98551300  0.62578000  1
  O  O33  1  0.49771300  0.01448700  0.87422000  1
  O  O34  1  0.00228700  0.01448700  0.37422000  1
  O  O35  1  0.50228700  0.98551300  0.12578000  1
  O  O36  1  0.78327800  0.85768700  0.78568600  1
  O  O37  1  0.28327800  0.14231300  0.71431400  1
  O  O38  1  0.21672200  0.14231300  0.21431400  1
  O  O39  1  0.71672200  0.85768700  0.28568600  1
  O  O40  1  0.86320200  0.56658400  0.90266300  1
  O  O41  1  0.36320200  0.43341600  0.59733700  1
  O  O42  1  0.13679800  0.43341600  0.09733700  1
  O  O43  1  0.63679800  0.56658400  0.40266300  1
  O  O44  1  0.62394500  0.43492300  0.86843900  1
  O  O45  1  0.12394500  0.56507700  0.63156100  1
  O  O46  1  0.37605500  0.56507700  0.13156100  1
  O  O47  1  0.87605500  0.43492300  0.36843900  1
  O  O48  1  0.68074600  0.13926500  0.95317900  1
  O  O49  1  0.18074600  0.86073500  0.54682100  1
  O  O50  1  0.31925400  0.86073500  0.04682100  1
  O  O51  1  0.81925400  0.13926500  0.45317900  1
loop_
_geom_bond_atom_site_label_1
_geom_bond_atom_site_label_2
_geom_bond_distance
_geom_bond_site_symmetry_2
H0 O33 1.016462 1_555
H1 O32 1.016462 1_455
H2 O35 1.016462 1_555
H3 O34 1.016462 1_655
H4 O32 1.045016 1_545
H4 O51 1.528856 1_555
H5 O33 1.045016 1_565
H5 O50 1.528856 1_556
H6 O34 1.045016 1_565
H6 O49 1.528856 1_555
H7 O35 1.045016 1_545
H7 O48 1.528856 1_554
H8 O32 1.046317 1_555
H8 O36 1.528221 1_555
H9 O33 1.046317 1_555
H9 O37 1.528221 1_555
H10 O34 1.046317 1_555
H10 O38 1.528221 1_555
H11 O35 1.046317 1_555
H11 O39 1.528221 1_555
H12 O36 0.996982 1_555
H13 O37 0.996982 1_555
H14 O38 0.996982 1_555
H15 O39 0.996982 1_555
H16 O36 0.981619 1_555
H17 O37 0.981619 1_555
H18 O38 0.981619 1_555
H19 O39 0.981619 1_555
H20 O40 1.006977 1_555
H21 O41 1.006977 1_555
H22 O42 1.006977 1_555
H23 O43 1.006977 1_555
H24 O40 1.075626 1_555
H24 O44 1.446479 1_555
H25 O41 1.075626 1_555
H25 O45 1.446479 1_555
H26 O42 1.075626 1_555
H26 O46 1.446479 1_555
H27 O43 1.075626 1_555
H27 O47 1.446479 1_555
H28 O40 0.995950 1_555
H29 O41 0.995950 1_555
H30 O42 0.995950 1_555
H31 O43 0.995950 1_555
H32 O44 0.997678 1_555
H33 O45 0.997678 1_555
H34 O46 0.997678 1_555
H35 O47 0.997678 1_555
H36 O44 0.986169 1_555
H37 O45 0.986169 1_555
H38 O46 0.986169 1_555
H39 O47 0.986169 1_555
H40 O48 0.998534 1_555
H41 O49 0.998534 1_555
H42 O50 0.998534 1_555
H43 O51 0.998534 1_555
H44 O48 0.988509 1_555
H45 O49 0.988509 1_555
H46 O50 0.988509 1_555
H47 O51 0.988509 1_555
Cl0 O12 1.455351 1_555
Cl0 O0 1.458418 1_555
Cl0 O4 1.464442 1_555
Cl0 O8 1.479320 1_555
Cl1 O13 1.455351 1_555
Cl1 O1 1.458418 1_555
Cl1 O5 1.464442 1_555
Cl1 O9 1.479320 1_555
Cl2 O14 1.455351 1_555
Cl2 O2 1.458418 1_555
Cl2 O6 1.464442 1_555
Cl2 O10 1.479320 1_555
Cl3 O15 1.455351 1_555
Cl3 O3 1.458418 1_555
Cl3 O7 1.464442 1_555
Cl3 O11 1.479320 1_555
Cl4 O16 1.451224 1_555
Cl4 O24 1.452191 1_555
Cl4 O28 1.471955 1_555
Cl4 O20 1.488285 1_555
Cl5 O17 1.451224 1_555
Cl5 O25 1.452191 1_555
Cl5 O29 1.471955 1_555
Cl5 O21 1.488285 1_555
Cl6 O18 1.451224 1_555
Cl6 O26 1.452191 1_555
Cl6 O30 1.471955 1_555
Cl6 O22 1.488285 1_555
Cl7 O19 1.451224 1_555
Cl7 O27 1.452191 1_555
Cl7 O31 1.471955 1_555
Cl7 O23 1.488285 1_555
