# generated using pymatgen
data_Li2NbFe3O8
_symmetry_space_group_name_H-M   'P 1'
_cell_length_a   6.04113064
_cell_length_b   6.02837662
_cell_length_c   10.62775027
_cell_angle_alpha   73.48758689
_cell_angle_beta   89.95188545
_cell_angle_gamma   119.89928285
_symmetry_Int_Tables_number   1
_chemical_formula_structural   Li2NbFe3O8
_chemical_formula_sum   'Li4 Nb2 Fe6 O16'
_cell_volume   316.92692474
_cell_formula_units_Z   2
loop_
 _symmetry_equiv_pos_site_id
 _symmetry_equiv_pos_as_xyz
  1  'x, y, z'
loop_
 _atom_site_type_symbol
 _atom_site_label
 _atom_site_symmetry_multiplicity
 _atom_site_fract_x
 _atom_site_fract_y
 _atom_site_fract_z
 _atom_site_occupancy
  Li  Li0  1  0.93461400  0.86983800  0.19503600  1
  Li  Li1  1  0.43459000  0.86982800  0.69504700  1
  Li  Li2  1  0.56540000  0.13018000  0.30492600  1
  Li  Li3  1  0.06538700  0.13016800  0.80493000  1
  Nb  Nb0  1  0.75012700  0.49994200  0.75004800  1
  Nb  Nb1  1  0.25012800  0.49993200  0.25005600  1
  Fe  Fe0  1  0.50001100  0.50009300  0.99996900  1
  Fe  Fe1  1  0.49987700  0.99999000  0.00003400  1
  Fe  Fe2  1  0.50003600  0.50006100  0.50004200  1
  Fe  Fe3  1  0.99997300  0.50001100  0.49995200  1
  Fe  Fe4  1  0.99988000  0.99998500  0.50002800  1
  Fe  Fe5  1  0.00002700  0.49995000  0.00010800  1
  O  O0  1  0.86481100  0.73230800  0.40067900  1
  O  O1  1  0.36478600  0.73231500  0.90070500  1
  O  O2  1  0.63518600  0.26771700  0.09931900  1
  O  O3  1  0.13522300  0.26770300  0.59928100  1
  O  O4  1  0.09475400  0.73563700  0.62354400  1
  O  O5  1  0.59477400  0.73566700  0.12355500  1
  O  O6  1  0.64112500  0.28165300  0.62407300  1
  O  O7  1  0.14099400  0.28159500  0.12409900  1
  O  O8  1  0.64091800  0.73563400  0.62409600  1
  O  O9  1  0.14098300  0.73563600  0.12411900  1
  O  O10  1  0.85907200  0.26434200  0.87590700  1
  O  O11  1  0.35913300  0.26441500  0.37583200  1
  O  O12  1  0.85882000  0.71827500  0.87583800  1
  O  O13  1  0.35886500  0.71835500  0.37592200  1
  O  O14  1  0.40523000  0.26439800  0.87643500  1
  O  O15  1  0.90527400  0.26437200  0.37642000  1
loop_
_geom_bond_atom_site_label_1
_geom_bond_atom_site_label_2
_geom_bond_distance
_geom_bond_site_symmetry_2
Li0 O9 2.031598 1_655
Li0 O7 2.033118 1_665
Li0 O5 2.035344 1_555
Li0 O0 2.064364 1_555
Li1 O8 2.031533 1_555
Li1 O6 2.033464 1_565
Li1 O4 2.035438 1_555
Li1 O1 2.064514 1_555
Li2 O11 2.031203 1_555
Li2 O13 2.033469 1_545
Li2 O15 2.035578 1_555
Li2 O2 2.064002 1_555
Li3 O10 2.031505 1_455
Li3 O12 2.033780 1_445
Li3 O14 2.035483 1_555
Li3 O3 2.064425 1_555
Nb0 O12 2.022576 1_555
Nb0 O10 2.023121 1_555
Nb0 O6 2.024063 1_555
Nb0 O8 2.025030 1_555
Nb0 O4 2.030058 1_655
Nb0 O14 2.030587 1_555
Nb1 O11 2.022620 1_555
Nb1 O13 2.023627 1_555
Nb1 O7 2.024098 1_555
Nb1 O9 2.024744 1_555
Nb1 O5 2.030121 1_555
Nb1 O15 2.030298 1_455
Fe0 O1 2.010502 1_555
Fe0 O2 2.011269 1_556
Fe0 O5 2.078622 1_556
Fe0 O14 2.078688 1_555
Fe0 O12 2.082162 1_555
Fe0 O7 2.082941 1_556
Fe1 O2 2.010147 1_565
Fe1 O1 2.010256 1_554
Fe1 O14 2.076719 1_564
Fe1 O5 2.076999 1_555
Fe1 O9 2.082163 1_555
Fe1 O10 2.083547 1_564
Fe2 O3 2.002544 1_555
Fe2 O0 2.002802 1_555
Fe2 O6 2.081280 1_555
Fe2 O13 2.081618 1_555
Fe2 O8 2.083397 1_555
Fe2 O11 2.085066 1_555
Fe3 O0 2.010585 1_555
Fe3 O3 2.011230 1_655
Fe3 O15 2.078457 1_555
Fe3 O4 2.078895 1_655
Fe3 O13 2.081974 1_655
Fe3 O6 2.082214 1_555
Fe4 O3 2.009852 1_665
Fe4 O0 2.010424 1_555
Fe4 O15 2.076504 1_565
Fe4 O4 2.076994 1_655
Fe4 O8 2.082358 1_555
Fe4 O11 2.084113 1_665
Fe5 O2 2.002573 1_455
Fe5 O1 2.002869 1_554
Fe5 O7 2.080343 1_555
Fe5 O12 2.082623 1_454
Fe5 O9 2.083498 1_555
Fe5 O10 2.084858 1_454
