# generated using pymatgen
data_SrMgUH24C3O23
_symmetry_space_group_name_H-M   'P 1'
_cell_length_a   14.82618000
_cell_length_b   6.55127700
_cell_length_c   11.36695964
_cell_angle_alpha   80.18725017
_cell_angle_beta   90.00000000
_cell_angle_gamma   90.00000000
_symmetry_Int_Tables_number   1
_chemical_formula_structural   SrMgUH24C3O23
_chemical_formula_sum   'Sr2 Mg2 U2 H48 C6 O46'
_cell_volume   1087.92481796
_cell_formula_units_Z   2
loop_
 _symmetry_equiv_pos_site_id
 _symmetry_equiv_pos_as_xyz
  1  'x, y, z'
loop_
 _atom_site_type_symbol
 _atom_site_label
 _atom_site_symmetry_multiplicity
 _atom_site_fract_x
 _atom_site_fract_y
 _atom_site_fract_z
 _atom_site_occupancy
  Sr  Sr0  1  0.25000000  0.21163700  0.59021300  1
  Sr  Sr1  1  0.75000000  0.78836300  0.40978700  1
  Mg  Mg0  1  0.50000000  0.00000000  0.00000000  1
  Mg  Mg1  1  0.00000000  0.00000000  0.00000000  1
  U  U0  1  0.25000000  0.44932900  0.21745400  1
  U  U1  1  0.75000000  0.55067100  0.78254600  1
  H  H0  1  0.25000000  0.87947600  0.39873200  1
  H  H1  1  0.75000000  0.12052400  0.60126800  1
  H  H2  1  0.25000000  0.74629800  0.52670400  1
  H  H3  1  0.75000000  0.25370200  0.47329600  1
  H  H4  1  0.25000000  0.88095400  0.81672000  1
  H  H5  1  0.75000000  0.11904600  0.18328000  1
  H  H6  1  0.25000000  0.07246300  0.88075700  1
  H  H7  1  0.75000000  0.92753700  0.11924300  1
  H  H8  1  0.45402300  0.16740600  0.55399600  1
  H  H9  1  0.95402300  0.83259400  0.44600400  1
  H  H10  1  0.54597700  0.83259400  0.44600400  1
  H  H11  1  0.04597700  0.16740600  0.55399600  1
  H  H12  1  0.44839500  0.93637400  0.61992300  1
  H  H13  1  0.94839500  0.06362600  0.38007700  1
  H  H14  1  0.55160500  0.06362600  0.38007700  1
  H  H15  1  0.05160500  0.93637400  0.61992300  1
  H  H16  1  0.33088600  0.54383000  0.73040300  1
  H  H17  1  0.83088600  0.45617000  0.26959700  1
  H  H18  1  0.66911400  0.45617000  0.26959700  1
  H  H19  1  0.16911400  0.54383000  0.73040300  1
  H  H20  1  0.40850000  0.56458000  0.63327200  1
  H  H21  1  0.90850000  0.43542000  0.36672800  1
  H  H22  1  0.59150000  0.43542000  0.36672800  1
  H  H23  1  0.09150000  0.56458000  0.63327200  1
  H  H24  1  0.41784000  0.65097600  0.94833900  1
  H  H25  1  0.91784000  0.34902400  0.05166100  1
  H  H26  1  0.58216000  0.34902400  0.05166100  1
  H  H27  1  0.08216000  0.65097600  0.94833900  1
  H  H28  1  0.50551800  0.67677900  0.86604000  1
  H  H29  1  0.00551800  0.32322100  0.13396000  1
  H  H30  1  0.49448200  0.32322100  0.13396000  1
  H  H31  1  0.99448200  0.67677900  0.86604000  1
  H  H32  1  0.47757300  0.68025000  0.19141700  1
  H  H33  1  0.97757300  0.31975000  0.80858300  1
  H  H34  1  0.52242700  0.31975000  0.80858300  1
  H  H35  1  0.02242700  0.68025000  0.19141700  1
  H  H36  1  0.53260300  0.85539800  0.24107800  1
  H  H37  1  0.03260300  0.14460200  0.75892200  1
  H  H38  1  0.46739700  0.14460200  0.75892200  1
  H  H39  1  0.96739700  0.85539800  0.24107800  1
  H  H40  1  0.33469400  0.00540500  0.10136000  1
  H  H41  1  0.83469400  0.99459500  0.89864000  1
  H  H42  1  0.66530600  0.99459500  0.89864000  1
  H  H43  1  0.16530600  0.00540500  0.10136000  1
  H  H44  1  0.35302900  0.20922000  0.01299300  1
  H  H45  1  0.85302900  0.79078000  0.98700700  1
  H  H46  1  0.64697100  0.79078000  0.98700700  1
  H  H47  1  0.14697100  0.20922000  0.01299300  1
  C  C0  1  0.25000000  0.54020500  0.95524700  1
  C  C1  1  0.75000000  0.45979500  0.04475300  1
  C  C2  1  0.41865600  0.36420400  0.34901300  1
  C  C3  1  0.91865600  0.63579600  0.65098700  1
  C  C4  1  0.58134400  0.63579600  0.65098700  1
  C  C5  1  0.08134400  0.36420400  0.34901300  1
  O  O0  1  0.25000000  0.72650800  0.22313800  1
  O  O1  1  0.75000000  0.27349200  0.77686200  1
  O  O2  1  0.25000000  0.17334000  0.20878800  1
  O  O3  1  0.75000000  0.82666000  0.79121200  1
  O  O4  1  0.32449700  0.50371600  0.01808500  1
  O  O5  1  0.82449700  0.49628400  0.98191500  1
  O  O6  1  0.67550300  0.49628400  0.98191500  1
  O  O7  1  0.17550300  0.50371600  0.01808500  1
  O  O8  1  0.25000000  0.60626800  0.84377000  1
  O  O9  1  0.75000000  0.39373200  0.15623000  1
  O  O10  1  0.41925300  0.43260600  0.23307200  1
  O  O11  1  0.91925300  0.56739400  0.76692800  1
  O  O12  1  0.58074700  0.56739400  0.76692800  1
  O  O13  1  0.08074700  0.43260600  0.23307200  1
  O  O14  1  0.33899700  0.36491700  0.39799800  1
  O  O15  1  0.83899700  0.63508300  0.60200200  1
  O  O16  1  0.66100300  0.63508300  0.60200200  1
  O  O17  1  0.16100300  0.36491700  0.39799800  1
  O  O18  1  0.48881400  0.30166900  0.40879400  1
  O  O19  1  0.98881400  0.69833100  0.59120600  1
  O  O20  1  0.51118600  0.69833100  0.59120600  1
  O  O21  1  0.01118600  0.30166900  0.40879400  1
  O  O22  1  0.25000000  0.88871100  0.48352200  1
  O  O23  1  0.75000000  0.11128900  0.51647800  1
  O  O24  1  0.25000000  0.03423900  0.80188100  1
  O  O25  1  0.75000000  0.96576100  0.19811900  1
  O  O26  1  0.42908900  0.07807500  0.62649400  1
  O  O27  1  0.92908900  0.92192500  0.37350600  1
  O  O28  1  0.57091100  0.92192500  0.37350600  1
  O  O29  1  0.07091100  0.07807500  0.62649400  1
  O  O30  1  0.34934300  0.49894400  0.65573800  1
  O  O31  1  0.84934300  0.50105600  0.34426200  1
  O  O32  1  0.65065700  0.50105600  0.34426200  1
  O  O33  1  0.15065700  0.49894400  0.65573800  1
  O  O34  1  0.46793200  0.74622300  0.91908600  1
  O  O35  1  0.96793200  0.25377700  0.08091400  1
  O  O36  1  0.53206800  0.25377700  0.08091400  1
  O  O37  1  0.03206800  0.74622300  0.91908600  1
  O  O38  1  0.50544300  0.81743000  0.16744700  1
  O  O39  1  0.00544300  0.18257000  0.83255300  1
  O  O40  1  0.49455700  0.18257000  0.83255300  1
  O  O41  1  0.99455700  0.81743000  0.16744700  1
  O  O42  1  0.36012600  0.05765600  0.02257700  1
  O  O43  1  0.86012600  0.94234400  0.97742300  1
  O  O44  1  0.63987400  0.94234400  0.97742300  1
  O  O45  1  0.13987400  0.05765600  0.02257700  1
loop_
_geom_bond_atom_site_label_1
_geom_bond_atom_site_label_2
_geom_bond_distance
_geom_bond_site_symmetry_2
Mg0 O40 2.069759 1_554
Mg0 O38 2.069759 1_545
Mg0 O36 2.087419 1_555
Mg0 O34 2.087419 1_544
Mg0 O42 2.131246 1_555
Mg0 O44 2.131246 1_544
Mg1 O41 2.069759 1_445
Mg1 O39 2.069759 1_554
Mg1 O35 2.087419 1_455
Mg1 O37 2.087419 1_544
Mg1 O45 2.131246 1_555
Mg1 O43 2.131246 1_444
H0 O22 0.975938 1_555
H1 O23 0.975938 1_555
H2 O22 0.977394 1_555
H3 O23 0.977394 1_555
H4 O24 0.989524 1_565
H5 O25 0.989524 1_545
H6 O24 0.971130 1_555
H7 O25 0.971130 1_555
H8 O26 0.996935 1_555
H9 O27 0.996935 1_555
H10 O28 0.996935 1_555
H11 O29 0.996935 1_555
H12 O26 0.986370 1_565
H13 O27 0.986370 1_545
H14 O28 0.986370 1_545
H15 O29 0.986370 1_565
H16 O30 0.983229 1_555
H17 O31 0.983229 1_555
H18 O32 0.983229 1_555
H19 O33 0.983229 1_555
H20 O30 0.990929 1_555
H21 O31 0.990929 1_555
H22 O32 0.990929 1_555
H23 O33 0.990929 1_555
H24 O34 0.990339 1_555
H25 O35 0.990339 1_555
H26 O36 0.990339 1_555
H27 O37 0.990339 1_555
H28 O34 0.987214 1_555
H29 O35 0.987214 1_455
H30 O36 0.987214 1_555
H31 O37 0.987214 1_655
H32 O38 0.984470 1_555
H33 O39 0.984470 1_655
H34 O40 0.984470 1_555
H35 O41 0.984470 1_455
H36 O38 0.997740 1_555
H37 O39 0.997740 1_555
H38 O40 0.997740 1_555
H39 O41 0.997740 1_555
H40 O42 0.978173 1_555
H41 O43 0.978173 1_555
H42 O44 0.978173 1_555
H43 O45 0.978173 1_555
H44 O42 0.985898 1_555
H45 O43 0.985898 1_555
H46 O44 0.985898 1_555
H47 O45 0.985898 1_555
C0 O8 1.267304 1_555
C0 O4 1.314941 1_556
C0 O7 1.314941 1_556
C1 O9 1.267304 1_555
C1 O6 1.314941 1_554
C1 O5 1.314941 1_554
C2 O18 1.271484 1_555
C2 O14 1.306062 1_555
C2 O10 1.317740 1_555
C3 O19 1.271484 1_555
C3 O15 1.306062 1_555
C3 O11 1.317740 1_555
C4 O20 1.271484 1_555
C4 O16 1.306062 1_555
C4 O12 1.317740 1_555
C5 O21 1.271484 1_555
C5 O17 1.306062 1_555
C5 O13 1.317740 1_555
O0 U0 1.827997 1_555
O1 U1 1.827997 1_555
O2 U0 1.827448 1_555
O3 U1 1.827448 1_555
O4 U0 2.491467 1_555
O5 U1 2.491467 1_555
O6 U1 2.491467 1_555
O7 U0 2.491467 1_555
O10 U0 2.516715 1_555
O11 U1 2.516715 1_555
O12 U1 2.516715 1_555
O13 U0 2.516715 1_555
O14 U0 2.423158 1_555
O14 Sr0 2.602951 1_555
O15 U1 2.423158 1_555
O15 Sr1 2.602951 1_555
O16 U1 2.423158 1_555
O16 Sr1 2.602951 1_555
O17 U0 2.423158 1_555
O17 Sr0 2.602951 1_555
O22 Sr0 2.611698 1_565
O23 Sr1 2.611698 1_545
O24 Sr0 2.487266 1_555
O25 Sr1 2.487266 1_555
O26 Sr0 2.804073 1_555
O27 Sr1 2.804073 1_555
O28 Sr1 2.804073 1_555
O29 Sr0 2.804073 1_555
O30 Sr0 2.597068 1_555
O31 Sr1 2.597068 1_555
O32 Sr1 2.597068 1_555
O33 Sr0 2.597068 1_555
