# generated using pymatgen
data_Li2MnFe(BO3)2
_symmetry_space_group_name_H-M   'P 1'
_cell_length_a   5.25826814
_cell_length_b   8.20086738
_cell_length_c   5.98117459
_cell_angle_alpha   77.44160703
_cell_angle_beta   89.15820122
_cell_angle_gamma   90.30623706
_symmetry_Int_Tables_number   1
_chemical_formula_structural   Li2MnFe(BO3)2
_chemical_formula_sum   'Li4 Mn2 Fe2 B4 O12'
_cell_volume   251.71474126
_cell_formula_units_Z   2
loop_
 _symmetry_equiv_pos_site_id
 _symmetry_equiv_pos_as_xyz
  1  'x, y, z'
loop_
 _atom_site_type_symbol
 _atom_site_label
 _atom_site_symmetry_multiplicity
 _atom_site_fract_x
 _atom_site_fract_y
 _atom_site_fract_z
 _atom_site_occupancy
  Li  Li0  1  0.65180100  0.27848600  0.04676700  1
  Li  Li1  1  0.34832100  0.72152700  0.95313900  1
  Li  Li2  1  0.84382200  0.22510400  0.45924100  1
  Li  Li3  1  0.15614000  0.77487400  0.54074800  1
  Mn  Mn0  1  0.32746000  0.08157600  0.68213500  1
  Mn  Mn1  1  0.67275700  0.91828400  0.31773100  1
  Fe  Fe0  1  0.16327000  0.42156700  0.81877900  1
  Fe  Fe1  1  0.83659100  0.57813900  0.18145500  1
  B  B0  1  0.16990900  0.09679500  0.16772800  1
  B  B1  1  0.83001900  0.90323200  0.83227000  1
  B  B2  1  0.32670200  0.41053700  0.33376900  1
  B  B3  1  0.67323800  0.58956300  0.66628000  1
  O  O0  1  0.91111400  0.12258000  0.17885000  1
  O  O1  1  0.08884600  0.87742400  0.82109000  1
  O  O2  1  0.68326700  0.80754200  0.01237700  1
  O  O3  1  0.31671200  0.19255000  0.98762100  1
  O  O4  1  0.20651200  0.52561800  0.16146600  1
  O  O5  1  0.79357600  0.47450700  0.83862500  1
  O  O6  1  0.58512000  0.38558900  0.32079800  1
  O  O7  1  0.41484100  0.61450500  0.67919600  1
  O  O8  1  0.17943200  0.31570800  0.51307200  1
  O  O9  1  0.82055500  0.68424500  0.48692200  1
  O  O10  1  0.71104200  0.01975400  0.66193000  1
  O  O11  1  0.28895200  0.98029400  0.33801100  1
loop_
_geom_bond_atom_site_label_1
_geom_bond_atom_site_label_2
_geom_bond_distance
_geom_bond_site_symmetry_2
Li0 O0 1.931091 1_555
Li0 O5 1.944076 1_554
Li0 O3 1.959562 1_554
Li0 O6 2.047749 1_555
Li1 O1 1.931603 1_555
Li1 O4 1.944016 1_556
Li1 O2 1.959290 1_556
Li1 O7 2.046742 1_555
Li2 O6 1.961281 1_555
Li2 O10 1.966707 1_555
Li2 O8 1.968944 1_655
Li2 O0 2.060003 1_555
Li3 O7 1.960732 1_555
Li3 O11 1.967300 1_555
Li3 O9 1.968902 1_455
Li3 O1 2.059866 1_555
Mn0 O10 2.090516 1_555
Mn0 O1 2.099961 1_545
Mn0 O8 2.123647 1_555
Mn0 O3 2.211476 1_555
Mn0 O11 2.391914 1_545
Mn1 O11 2.092093 1_555
Mn1 O0 2.099909 1_565
Mn1 O9 2.122796 1_555
Mn1 O2 2.209609 1_555
Mn1 O10 2.393046 1_565
Fe0 O5 2.001543 1_455
Fe0 O7 2.078737 1_555
Fe0 O3 2.100849 1_555
Fe0 O8 2.188783 1_555
Fe0 O4 2.398581 1_556
Fe1 O4 2.001977 1_655
Fe1 O6 2.075949 1_555
Fe1 O2 2.103522 1_555
Fe1 O9 2.188614 1_555
Fe1 O5 2.397397 1_554
B0 O0 1.381118 1_455
B0 O11 1.394247 1_545
B0 O3 1.405068 1_554
B1 O1 1.381339 1_655
B1 O10 1.394378 1_565
B1 O2 1.404717 1_556
B2 O6 1.378796 1_555
B2 O4 1.398120 1_555
B2 O8 1.400380 1_555
B3 O7 1.378654 1_555
B3 O5 1.398527 1_555
B3 O9 1.400258 1_555
