# generated using pymatgen
data_V6O5F19
_symmetry_space_group_name_H-M   'P 1'
_cell_length_a   5.39191600
_cell_length_b   5.55645265
_cell_length_c   14.85956211
_cell_angle_alpha   100.64274120
_cell_angle_beta   89.48300094
_cell_angle_gamma   92.89731271
_symmetry_Int_Tables_number   1
_chemical_formula_structural   V6O5F19
_chemical_formula_sum   'V6 O5 F19'
_cell_volume   436.97382502
_cell_formula_units_Z   1
loop_
 _symmetry_equiv_pos_site_id
 _symmetry_equiv_pos_as_xyz
  1  'x, y, z'
loop_
 _atom_site_type_symbol
 _atom_site_label
 _atom_site_symmetry_multiplicity
 _atom_site_fract_x
 _atom_site_fract_y
 _atom_site_fract_z
 _atom_site_occupancy
  V  V0  1  0.03498000  0.95347700  0.99621800  1
  V  V1  1  0.43781100  0.86020300  0.66074400  1
  V  V2  1  0.96238600  0.72474900  0.33745000  1
  V  V3  1  0.54272300  0.46496400  0.00357100  1
  V  V4  1  0.94580500  0.32016700  0.67246400  1
  V  V5  1  0.48820900  0.18177900  0.33193900  1
  O  O0  1  0.79492000  0.96570600  0.35766400  1
  O  O1  1  0.76795900  0.30008400  0.02068000  1
  O  O2  1  0.20518900  0.72040200  0.97895500  1
  O  O3  1  0.71433400  0.12412100  0.68742400  1
  O  O4  1  0.21598000  0.03751100  0.64305600  1
  F  F0  1  0.72639500  0.78705600  0.02723600  1
  F  F1  1  0.27722100  0.86971500  0.30879600  1
  F  F2  1  0.90961100  0.95687400  0.88636300  1
  F  F3  1  0.59742500  0.78434100  0.55482300  1
  F  F4  1  0.92595300  0.60782700  0.21959000  1
  F  F5  1  0.44159400  0.88407300  0.78107300  1
  F  F6  1  0.08927100  0.69543700  0.44393400  1
  F  F7  1  0.40711500  0.54742600  0.11345100  1
  F  F8  1  0.79633500  0.60569700  0.69302000  1
  F  F9  1  0.70156900  0.48518600  0.35736200  1
  F  F10  1  0.28657500  0.55295400  0.64428300  1
  F  F11  1  0.21760300  0.34377600  0.30776300  1
  F  F12  1  0.56613800  0.47851200  0.88540900  1
  F  F13  1  0.95002800  0.28699900  0.55186600  1
  F  F14  1  0.60059300  0.11071900  0.21843900  1
  F  F15  1  0.10022300  0.37264000  0.77948800  1
  F  F16  1  0.43659300  0.19657400  0.45056500  1
  F  F17  1  0.07383800  0.07697000  0.11425100  1
  F  F18  1  0.28562400  0.20405900  0.97212100  1
loop_
_geom_bond_atom_site_label_1
_geom_bond_atom_site_label_2
_geom_bond_distance
_geom_bond_site_symmetry_2
O0 V2 1.633066 1_555
O0 V5 2.168901 1_565
O1 V3 1.607152 1_555
O2 V0 1.605763 1_555
O3 V4 1.655511 1_555
O3 V1 2.026224 1_545
O4 V1 1.640365 1_545
O4 V4 2.178551 1_455
F0 V0 1.955512 1_654
F0 V3 1.975367 1_555
F1 V2 1.920221 1_455
F1 V5 2.001625 1_565
F2 V0 1.776122 1_655
F3 V1 1.778430 1_555
F4 V2 1.760943 1_555
F5 V1 1.768578 1_555
F6 V2 1.767562 1_455
F7 V3 1.773838 1_555
F8 V4 1.790456 1_555
F9 V2 1.945725 1_555
F9 V5 1.971005 1_555
F10 V1 1.829752 1_555
F10 V4 2.273851 1_455
F11 V5 1.824798 1_555
F12 V3 1.774380 1_556
F13 V4 1.767361 1_555
F14 V5 1.768432 1_555
F15 V4 1.770729 1_455
F16 V5 1.769567 1_555
F17 V0 1.771591 1_544
F18 V3 1.949369 1_556
F18 V0 1.969381 1_545
