# generated using pymatgen
data_Ho2TiO5
_symmetry_space_group_name_H-M   'P 1'
_cell_length_a   3.66336532
_cell_length_b   10.28715041
_cell_length_c   11.20216640
_cell_angle_alpha   90.00000000
_cell_angle_beta   90.00000000
_cell_angle_gamma   90.00000000
_symmetry_Int_Tables_number   1
_chemical_formula_structural   Ho2TiO5
_chemical_formula_sum   'Ho8 Ti4 O20'
_cell_volume   422.16025066
_cell_formula_units_Z   4
loop_
 _symmetry_equiv_pos_site_id
 _symmetry_equiv_pos_as_xyz
  1  'x, y, z'
loop_
 _atom_site_type_symbol
 _atom_site_label
 _atom_site_symmetry_multiplicity
 _atom_site_fract_x
 _atom_site_fract_y
 _atom_site_fract_z
 _atom_site_occupancy
  Ho  Ho0  1  0.25000000  0.11758713  0.27585219  1
  Ho  Ho1  1  0.25000000  0.13578955  0.94373596  1
  Ho  Ho2  1  0.75000000  0.36421045  0.44373596  1
  Ho  Ho3  1  0.75000000  0.38241287  0.77585219  1
  Ho  Ho4  1  0.25000000  0.61758713  0.22414781  1
  Ho  Ho5  1  0.25000000  0.63578955  0.55626404  1
  Ho  Ho6  1  0.75000000  0.86421045  0.05626404  1
  Ho  Ho7  1  0.75000000  0.88241287  0.72414781  1
  Ti  Ti0  1  0.25000000  0.17214851  0.61808842  1
  Ti  Ti1  1  0.75000000  0.32785149  0.11808842  1
  Ti  Ti2  1  0.25000000  0.67214851  0.88191158  1
  Ti  Ti3  1  0.75000000  0.82785149  0.38191158  1
  O  O0  1  0.75000000  0.00547814  0.89464190  1
  O  O1  1  0.25000000  0.00334539  0.65347417  1
  O  O2  1  0.25000000  0.22520059  0.45570348  1
  O  O3  1  0.75000000  0.23593074  0.61557542  1
  O  O4  1  0.75000000  0.24569841  0.27030312  1
  O  O5  1  0.25000000  0.25430159  0.77030312  1
  O  O6  1  0.25000000  0.26406926  0.11557542  1
  O  O7  1  0.75000000  0.27479941  0.95570348  1
  O  O8  1  0.75000000  0.49665461  0.15347417  1
  O  O9  1  0.25000000  0.49452186  0.39464190  1
  O  O10  1  0.75000000  0.50547814  0.60535810  1
  O  O11  1  0.25000000  0.50334539  0.84652583  1
  O  O12  1  0.25000000  0.72520059  0.04429652  1
  O  O13  1  0.75000000  0.73593074  0.88442458  1
  O  O14  1  0.75000000  0.74569841  0.22969688  1
  O  O15  1  0.25000000  0.75430159  0.72969688  1
  O  O16  1  0.25000000  0.76406926  0.38442458  1
  O  O17  1  0.75000000  0.77479941  0.54429652  1
  O  O18  1  0.75000000  0.99665461  0.34652583  1
  O  O19  1  0.25000000  0.99452186  0.10535810  1
loop_
_geom_bond_atom_site_label_1
_geom_bond_atom_site_label_2
_geom_bond_distance
_geom_bond_site_symmetry_2
Ho0 O4 2.257385 1_455
Ho0 O4 2.257385 1_555
Ho0 O19 2.291389 1_545
Ho0 O2 2.298835 1_555
Ho0 O6 2.343998 1_555
Ho0 O18 2.351491 1_445
Ho0 O18 2.351491 1_545
Ho1 O5 2.293664 1_555
Ho1 O19 2.321613 1_546
Ho1 O7 2.327655 1_455
Ho1 O7 2.327655 1_555
Ho1 O6 2.333871 1_556
Ho1 O0 2.335497 1_455
Ho1 O0 2.335497 1_555
Ho2 O4 2.293664 1_555
Ho2 O10 2.321613 1_555
Ho2 O2 2.327655 1_555
Ho2 O2 2.327655 1_655
Ho2 O3 2.333871 1_555
Ho2 O9 2.335497 1_555
Ho2 O9 2.335497 1_655
Ho3 O5 2.257385 1_655
Ho3 O5 2.257385 1_555
Ho3 O10 2.291389 1_555
Ho3 O7 2.298835 1_555
Ho3 O3 2.343998 1_555
Ho3 O11 2.351491 1_655
Ho3 O11 2.351491 1_555
Ho4 O14 2.257385 1_555
Ho4 O14 2.257385 1_455
Ho4 O9 2.291389 1_555
Ho4 O12 2.298835 1_555
Ho4 O16 2.343998 1_555
Ho4 O8 2.351491 1_455
Ho4 O8 2.351491 1_555
Ho5 O15 2.293664 1_555
Ho5 O9 2.321613 1_555
Ho5 O17 2.327655 1_455
Ho5 O17 2.327655 1_555
Ho5 O16 2.333871 1_555
Ho5 O10 2.335497 1_455
Ho5 O10 2.335497 1_555
Ho6 O14 2.293664 1_555
Ho6 O0 2.321613 1_564
Ho6 O12 2.327655 1_555
Ho6 O12 2.327655 1_655
Ho6 O13 2.333871 1_554
Ho6 O19 2.335497 1_555
Ho6 O19 2.335497 1_655
Ho7 O15 2.257385 1_555
Ho7 O15 2.257385 1_655
Ho7 O0 2.291389 1_565
Ho7 O17 2.298835 1_555
Ho7 O13 2.343998 1_555
Ho7 O1 2.351491 1_565
Ho7 O1 2.351491 1_665
O1 Ti0 1.781172 1_555
O2 Ti0 1.899168 1_555
O3 Ti0 1.945860 1_555
O3 Ti0 1.945860 1_655
O4 Ti1 1.903080 1_555
O5 Ti0 1.903080 1_555
O6 Ti1 1.945860 1_555
O6 Ti1 1.945860 1_455
O7 Ti1 1.899168 1_556
O8 Ti1 1.781172 1_555
O11 Ti2 1.781172 1_555
O12 Ti2 1.899168 1_554
O13 Ti2 1.945860 1_555
O13 Ti2 1.945860 1_655
O14 Ti3 1.903080 1_555
O15 Ti2 1.903080 1_555
O16 Ti3 1.945860 1_555
O16 Ti3 1.945860 1_455
O17 Ti3 1.899168 1_555
O18 Ti3 1.781172 1_555
