# generated using pymatgen
data_Li3MnV(PO4)3
_symmetry_space_group_name_H-M   'P 1'
_cell_length_a   9.86304368
_cell_length_b   9.86304368
_cell_length_c   9.80810726
_cell_angle_alpha   86.76591468
_cell_angle_beta   86.76591468
_cell_angle_gamma   85.09616720
_symmetry_Int_Tables_number   1
_chemical_formula_structural   Li3MnV(PO4)3
_chemical_formula_sum   'Li12 Mn4 V4 P12 O48'
_cell_volume   947.84511556
_cell_formula_units_Z   4
loop_
 _symmetry_equiv_pos_site_id
 _symmetry_equiv_pos_as_xyz
  1  'x, y, z'
loop_
 _atom_site_type_symbol
 _atom_site_label
 _atom_site_symmetry_multiplicity
 _atom_site_fract_x
 _atom_site_fract_y
 _atom_site_fract_z
 _atom_site_occupancy
  Li  Li0  1  0.51321700  0.98809400  0.24697600  1
  Li  Li1  1  0.25044100  0.02306800  0.38664100  1
  Li  Li2  1  0.56360500  0.77475600  0.46745400  1
  Li  Li3  1  0.73458700  0.77194200  0.17992600  1
  Li  Li4  1  0.97693200  0.74955900  0.61335900  1
  Li  Li5  1  0.74910700  0.62741600  0.80909500  1
  Li  Li6  1  0.01190600  0.48678300  0.75302400  1
  Li  Li7  1  0.22524400  0.43639500  0.53254600  1
  Li  Li8  1  0.91923800  0.30828900  0.97996500  1
  Li  Li9  1  0.22805800  0.26541300  0.82007400  1
  Li  Li10  1  0.37258400  0.25089300  0.19090500  1
  Li  Li11  1  0.69171100  0.08076200  0.02003500  1
  Mn  Mn0  1  0.53364500  0.46635500  0.50000000  1
  Mn  Mn1  1  0.97355500  0.25718500  0.27757300  1
  Mn  Mn2  1  0.75625000  0.24375000  0.50000000  1
  Mn  Mn3  1  0.74281500  0.02644500  0.72242700  1
  V  V0  1  0.24753700  0.97201100  0.78232000  1
  V  V1  1  0.24729200  0.75270800  0.00000000  1
  V  V2  1  0.02798900  0.75246300  0.21768000  1
  V  V3  1  0.47175900  0.52824100  0.00000000  1
  P  P0  1  0.81667500  0.94649200  0.40547500  1
  P  P1  1  0.94632900  0.82733400  0.90303900  1
  P  P2  1  0.54824900  0.84038400  0.93171500  1
  P  P3  1  0.34071600  0.67581500  0.30173700  1
  P  P4  1  0.32418500  0.65928400  0.69826300  1
  P  P5  1  0.83750700  0.55609100  0.42532100  1
  P  P6  1  0.15961600  0.45175100  0.06828500  1
  P  P7  1  0.68777800  0.35013700  0.80050000  1
  P  P8  1  0.64986300  0.31222200  0.19950000  1
  P  P9  1  0.44390900  0.16249300  0.57467900  1
  P  P10  1  0.05350800  0.18332500  0.59452500  1
  P  P11  1  0.17266600  0.05367100  0.09696100  1
  O  O0  1  0.87257100  0.96778000  0.87005000  1
  O  O1  1  0.82423100  0.90735400  0.55925500  1
  O  O2  1  0.61174500  0.88374800  0.79405800  1
  O  O3  1  0.95334200  0.89048000  0.33393500  1
  O  O4  1  0.69241900  0.89519800  0.34225600  1
  O  O5  1  0.38947100  0.87484700  0.92893000  1
  O  O6  1  0.60153500  0.90219400  0.05626300  1
  O  O7  1  0.16329900  0.89399700  0.12480100  1
  O  O8  1  0.10600300  0.83670100  0.87519900  1
  O  O9  1  0.31083000  0.81736800  0.67375800  1
  O  O10  1  0.91027500  0.79138600  0.05742900  1
  O  O11  1  0.40559300  0.79911600  0.34838900  1
  O  O12  1  0.91229900  0.71497500  0.81314600  1
  O  O13  1  0.58011300  0.67812800  0.94692500  1
  O  O14  1  0.18263200  0.68917000  0.32624200  1
  O  O15  1  0.37741400  0.66723700  0.13839800  1
  O  O16  1  0.87910900  0.63271600  0.28820400  1
  O  O17  1  0.90459800  0.59729600  0.55057400  1
  O  O18  1  0.33276300  0.62258600  0.86160200  1
  O  O19  1  0.46267600  0.61244800  0.63081700  1
  O  O20  1  0.67652700  0.58910000  0.43894200  1
  O  O21  1  0.20088400  0.59440700  0.65161100  1
  O  O22  1  0.12515300  0.61052900  0.07107000  1
  O  O23  1  0.38755200  0.53732400  0.36918300  1
  O  O24  1  0.80724500  0.42676000  0.84149200  1
  O  O25  1  0.58105200  0.44982000  0.13945300  1
  O  O26  1  0.55018000  0.41894800  0.86054700  1
  O  O27  1  0.87362400  0.39953900  0.40943400  1
  O  O28  1  0.67563000  0.37180200  0.64090400  1
  O  O29  1  0.09780600  0.39846500  0.94373700  1
  O  O30  1  0.32187200  0.41988700  0.05307500  1
  O  O31  1  0.11625200  0.38825500  0.20594200  1
  O  O32  1  0.62819800  0.32437000  0.35909600  1
  O  O33  1  0.80059500  0.30137300  0.14959100  1
  O  O34  1  0.41090000  0.32347300  0.56105800  1
  O  O35  1  0.10480200  0.30758100  0.65774400  1
  O  O36  1  0.69862700  0.19940500  0.85040900  1
  O  O37  1  0.89461500  0.18181100  0.62440200  1
  O  O38  1  0.57324000  0.19275500  0.15850800  1
  O  O39  1  0.09264600  0.17576900  0.44074500  1
  O  O40  1  0.60046100  0.12637600  0.59056600  1
  O  O41  1  0.81818900  0.10538500  0.37559800  1
  O  O42  1  0.36728400  0.12089100  0.71179600  1
  O  O43  1  0.20861400  0.08972500  0.94257100  1
  O  O44  1  0.40270400  0.09540200  0.44942600  1
  O  O45  1  0.03222000  0.12742900  0.12995000  1
  O  O46  1  0.28502500  0.08770100  0.18685400  1
  O  O47  1  0.10952000  0.04665800  0.66606500  1
loop_
_geom_bond_atom_site_label_1
_geom_bond_atom_site_label_2
_geom_bond_distance
_geom_bond_site_symmetry_2
Li0 O4 2.156311 1_555
Li0 O6 2.200973 1_555
Li0 O38 2.264238 1_565
Li0 O11 2.366477 1_555
Li0 O44 2.459016 1_565
Li0 O46 2.466728 1_565
Li1 O44 1.865644 1_555
Li1 O46 2.045315 1_555
Li1 O39 2.137372 1_555
Li1 O11 2.610045 1_545
Li2 O11 1.989980 1_555
Li2 O20 2.084625 1_555
Li2 O4 2.109649 1_555
Li2 O19 2.433939 1_555
Li3 O4 2.059861 1_555
Li3 O10 2.068542 1_555
Li3 O6 2.135230 1_555
Li3 O16 2.171856 1_555
Li4 O17 1.865644 1_555
Li4 O12 2.045315 1_555
Li4 O1 2.137372 1_555
Li4 O21 2.610045 1_655
Li5 O12 1.893893 1_555
Li5 O24 2.025367 1_555
Li5 O13 2.129649 1_555
Li6 O35 2.156311 1_555
Li6 O29 2.200973 1_555
Li6 O24 2.264238 1_455
Li6 O21 2.366477 1_555
Li6 O17 2.459016 1_455
Li6 O12 2.466728 1_455
Li7 O21 1.989980 1_555
Li7 O34 2.084625 1_555
Li7 O35 2.109649 1_555
Li7 O23 2.433939 1_555
Li8 O33 1.980678 1_556
Li8 O29 2.044691 1_655
Li8 O24 2.049296 1_555
Li8 O45 2.477275 1_656
Li9 O35 2.059861 1_555
Li9 O43 2.068542 1_555
Li9 O29 2.135230 1_555
Li9 O42 2.171856 1_555
Li10 O46 1.893893 1_555
Li10 O38 2.025367 1_555
Li10 O30 2.129649 1_555
Li11 O36 1.980678 1_554
Li11 O6 2.044691 1_545
Li11 O38 2.049296 1_555
Li11 O0 2.477275 1_544
Mn0 O34 1.981145 1_555
Mn0 O20 1.981145 1_555
Mn0 O23 2.036493 1_555
Mn0 O19 2.036493 1_555
Mn0 O32 2.142530 1_555
Mn0 O28 2.142530 1_555
Mn1 O45 2.014206 1_655
Mn1 O31 2.059774 1_655
Mn1 O27 2.107107 1_555
Mn1 O39 2.119353 1_655
Mn1 O33 2.174520 1_555
Mn1 O41 2.361736 1_555
Mn2 O37 1.919795 1_555
Mn2 O41 1.919795 1_555
Mn2 O28 2.009622 1_555
Mn2 O32 2.009622 1_555
Mn2 O40 2.127044 1_555
Mn2 O27 2.127044 1_555
Mn3 O0 2.014206 1_545
Mn3 O2 2.059774 1_545
Mn3 O40 2.107107 1_555
Mn3 O1 2.119353 1_545
Mn3 O36 2.174520 1_555
Mn3 O37 2.361736 1_555
O0 P1 1.535078 1_555
O1 P0 1.539993 1_555
O2 P2 1.511055 1_555
O3 P0 1.556992 1_555
O3 V2 1.898506 1_655
O4 P0 1.539323 1_555
O5 P2 1.575284 1_555
O5 V1 1.996843 1_556
O5 V0 2.188185 1_555
O6 P2 1.533419 1_554
O7 P11 1.592741 1_565
O7 V1 2.001811 1_555
O7 V2 2.144174 1_555
O8 P1 1.592741 1_455
O8 V1 2.001811 1_556
O8 V0 2.144174 1_555
O9 P4 1.559604 1_555
O9 V0 1.948159 1_555
O10 P1 1.563780 1_554
O10 V2 2.006834 1_655
O11 P3 1.525333 1_555
O12 P1 1.524910 1_555
O13 P2 1.604516 1_555
O13 V3 1.928500 1_556
O14 P3 1.559604 1_555
O14 V2 1.948159 1_555
O15 P3 1.627683 1_555
O15 V1 2.020605 1_555
O15 V3 2.106481 1_555
O16 P5 1.557000 1_555
O16 V2 2.029615 1_655
O17 P5 1.518642 1_555
O18 P4 1.627683 1_555
O18 V1 2.020605 1_556
O18 V3 2.106481 1_556
O19 P4 1.530178 1_555
O20 P5 1.592922 1_555
O21 P4 1.525333 1_555
O22 P6 1.575284 1_555
O22 V1 1.996843 1_555
O22 V2 2.188185 1_555
O23 P3 1.530178 1_555
O24 P7 1.536612 1_555
O25 P8 1.564204 1_555
O25 V3 1.880291 1_555
O26 P7 1.564204 1_555
O26 V3 1.880291 1_556
O27 P5 1.569141 1_555
O28 P7 1.577762 1_555
O29 P6 1.533419 1_556
O30 P6 1.604516 1_555
O30 V3 1.928500 1_555
O31 P6 1.511055 1_555
O32 P8 1.577762 1_555
O33 P8 1.535539 1_555
O34 P9 1.592922 1_555
O35 P10 1.539323 1_555
O36 P7 1.535539 1_555
O37 P10 1.579178 1_655
O38 P8 1.536612 1_555
O39 P10 1.539993 1_555
O40 P9 1.569141 1_555
O41 P0 1.579178 1_545
O42 P9 1.557000 1_555
O42 V0 2.029615 1_545
O43 P11 1.563780 1_556
O43 V0 2.006834 1_545
O44 P9 1.518642 1_555
O45 P11 1.535078 1_555
O46 P11 1.524910 1_555
O47 P10 1.556992 1_555
O47 V0 1.898506 1_545
