# generated using pymatgen
data_FeOF
_symmetry_space_group_name_H-M   'P 1'
_cell_length_a   3.07153500
_cell_length_b   9.52001900
_cell_length_c   14.19304973
_cell_angle_alpha   89.65005195
_cell_angle_beta   90.00000000
_cell_angle_gamma   90.00000000
_symmetry_Int_Tables_number   1
_chemical_formula_structural   FeOF
_chemical_formula_sum   'Fe12 O12 F12'
_cell_volume   415.01224181
_cell_formula_units_Z   12
loop_
 _symmetry_equiv_pos_site_id
 _symmetry_equiv_pos_as_xyz
  1  'x, y, z'
loop_
 _atom_site_type_symbol
 _atom_site_label
 _atom_site_symmetry_multiplicity
 _atom_site_fract_x
 _atom_site_fract_y
 _atom_site_fract_z
 _atom_site_occupancy
  Fe  Fe0  1  0.00000000  0.99579600  0.98589800  1
  Fe  Fe1  1  0.00000000  0.50722400  0.99535300  1
  Fe  Fe2  1  0.50000000  0.22330800  0.82841700  1
  Fe  Fe3  1  0.50000000  0.74378900  0.84859100  1
  Fe  Fe4  1  0.00000000  0.00679800  0.65974000  1
  Fe  Fe5  1  0.00000000  0.50071500  0.65534200  1
  Fe  Fe6  1  0.50000000  0.75527600  0.51572300  1
  Fe  Fe7  1  0.50000000  0.25166600  0.51278900  1
  Fe  Fe8  1  0.00000000  0.00541700  0.31969200  1
  Fe  Fe9  1  0.00000000  0.49506500  0.31929100  1
  Fe  Fe10  1  0.50000000  0.25238200  0.17622300  1
  Fe  Fe11  1  0.50000000  0.75190100  0.18223200  1
  O  O0  1  0.50000000  0.89675300  0.93435200  1
  O  O1  1  0.00000000  0.15459200  0.89840700  1
  O  O2  1  0.00000000  0.65018000  0.90069400  1
  O  O3  1  0.50000000  0.09127000  0.72831700  1
  O  O4  1  0.50000000  0.40620500  0.60306900  1
  O  O5  1  0.50000000  0.90529000  0.60496800  1
  O  O6  1  0.00000000  0.15401500  0.55969900  1
  O  O7  1  0.00000000  0.65622700  0.56536900  1
  O  O8  1  0.50000000  0.39885400  0.26471700  1
  O  O9  1  0.50000000  0.90683100  0.26920400  1
  O  O10  1  0.00000000  0.16055300  0.22977700  1
  O  O11  1  0.00000000  0.65324100  0.23111500  1
  F  F0  1  0.50000000  0.40145700  0.93293400  1
  F  F1  1  0.00000000  0.34987200  0.76885600  1
  F  F2  1  0.00000000  0.83326100  0.77732900  1
  F  F3  1  0.50000000  0.59758800  0.73664800  1
  F  F4  1  0.00000000  0.35231400  0.43223100  1
  F  F5  1  0.00000000  0.85135600  0.43514200  1
  F  F6  1  0.50000000  0.10033000  0.39759400  1
  F  F7  1  0.50000000  0.59438600  0.39608900  1
  F  F8  1  0.00000000  0.34890300  0.10068500  1
  F  F9  1  0.00000000  0.84906100  0.10072500  1
  F  F10  1  0.50000000  0.09673100  0.06531800  1
  F  F11  1  0.50000000  0.60139300  0.06747400  1
loop_
_geom_bond_atom_site_label_1
_geom_bond_atom_site_label_2
_geom_bond_distance
_geom_bond_site_symmetry_2
Fe0 O0 1.947122 1_455
Fe0 O0 1.947122 1_555
Fe0 O1 1.950489 1_565
Fe1 O2 1.906522 1_555
Fe2 O3 1.902717 1_555
Fe2 O1 1.940458 1_655
Fe2 O1 1.940458 1_555
Fe3 O0 1.903636 1_555
Fe3 O2 1.921343 1_555
Fe3 O2 1.921343 1_655
Fe4 O5 1.976342 1_545
Fe4 O5 1.976342 1_445
Fe4 O6 1.988969 1_555
Fe4 O3 1.990524 1_555
Fe4 O3 1.990524 1_455
Fe5 O4 1.930466 1_555
Fe5 O4 1.930466 1_455
Fe5 O7 1.949212 1_555
Fe6 O5 1.914705 1_555
Fe6 O7 1.932904 1_555
Fe6 O7 1.932904 1_655
Fe7 O6 1.912730 1_655
Fe7 O6 1.912730 1_555
Fe7 O4 1.956873 1_555
Fe8 O9 1.939366 1_545
Fe8 O9 1.939366 1_445
Fe8 O10 1.945972 1_555
Fe9 O8 1.950933 1_555
Fe9 O8 1.950933 1_455
Fe9 O11 1.952114 1_555
Fe10 O8 1.882372 1_555
Fe10 O10 1.921577 1_655
Fe10 O10 1.921577 1_555
Fe11 O11 1.927216 1_555
Fe11 O11 1.927216 1_655
Fe11 O9 1.929097 1_555
F0 Fe1 2.041612 1_655
F0 Fe1 2.041612 1_555
F0 Fe2 2.260001 1_555
F1 Fe2 2.124270 1_555
F1 Fe2 2.124270 1_455
F1 Fe5 2.151648 1_555
F2 Fe3 2.023996 1_455
F2 Fe3 2.023996 1_555
F2 Fe4 2.341165 1_565
F3 Fe3 2.118619 1_555
F3 Fe5 2.133955 1_655
F3 Fe5 2.133955 1_555
F4 Fe9 2.095171 1_555
F4 Fe7 2.137889 1_555
F4 Fe7 2.137889 1_455
F5 Fe6 2.119074 1_555
F5 Fe6 2.119074 1_455
F5 Fe8 2.192422 1_565
F6 Fe8 2.099936 1_655
F6 Fe8 2.099936 1_555
F6 Fe7 2.185766 1_555
F7 Fe9 2.110286 1_655
F7 Fe9 2.110286 1_555
F7 Fe6 2.293667 1_555
F8 Fe10 2.083344 1_555
F8 Fe10 2.083344 1_455
F8 Fe1 2.116402 1_554
F9 Fe11 2.130571 1_455
F9 Fe11 2.130571 1_555
F9 Fe0 2.140011 1_554
F10 Fe0 2.136763 1_644
F10 Fe0 2.136763 1_544
F10 Fe10 2.168399 1_555
F11 Fe1 2.054575 1_554
F11 Fe1 2.054575 1_654
F11 Fe11 2.175871 1_555
