# generated using pymatgen
data_Ga2NiO4
_symmetry_space_group_name_H-M   'P 1'
_cell_length_a   5.94743271
_cell_length_b   5.94743271
_cell_length_c   5.94743271
_cell_angle_alpha   60.00000000
_cell_angle_beta   60.00000000
_cell_angle_gamma   60.00000000
_symmetry_Int_Tables_number   1
_chemical_formula_structural   Ga2NiO4
_chemical_formula_sum   'Ga4 Ni2 O8'
_cell_volume   148.75569913
_cell_formula_units_Z   2
loop_
 _symmetry_equiv_pos_site_id
 _symmetry_equiv_pos_as_xyz
  1  'x, y, z'
loop_
 _atom_site_type_symbol
 _atom_site_label
 _atom_site_symmetry_multiplicity
 _atom_site_fract_x
 _atom_site_fract_y
 _atom_site_fract_z
 _atom_site_occupancy
  Ga  Ga0  1  0.62500000  0.62500000  0.62500000  1
  Ga  Ga1  1  0.62500000  0.12500000  0.62500000  1
  Ga  Ga2  1  0.12500000  0.62500000  0.62500000  1
  Ga  Ga3  1  0.62500000  0.62500000  0.12500000  1
  Ni  Ni0  1  0.00000000  0.00000000  0.00000000  1
  Ni  Ni1  1  0.25000000  0.25000000  0.25000000  1
  O  O0  1  0.38615200  0.38615200  0.84154500  1
  O  O1  1  0.38615200  0.84154500  0.38615200  1
  O  O2  1  0.86384800  0.40845500  0.86384800  1
  O  O3  1  0.84154500  0.38615200  0.38615200  1
  O  O4  1  0.86384800  0.86384800  0.40845500  1
  O  O5  1  0.38615200  0.38615200  0.38615200  1
  O  O6  1  0.86384800  0.86384800  0.86384800  1
  O  O7  1  0.40845500  0.86384800  0.86384800  1
loop_
_geom_bond_atom_site_label_1
_geom_bond_atom_site_label_2
_geom_bond_distance
_geom_bond_site_symmetry_2
Ga0 O7 2.013311 1_555
Ga0 O4 2.013311 1_555
Ga0 O2 2.013311 1_555
Ga0 O3 2.013311 1_555
Ga0 O1 2.013311 1_555
Ga0 O0 2.013311 1_555
Ga1 O6 2.013311 1_545
Ga1 O5 2.013311 1_555
Ga1 O0 2.013315 1_555
Ga1 O3 2.013315 1_555
Ga1 O4 2.013315 1_545
Ga1 O7 2.013315 1_545
Ga2 O6 2.013311 1_455
Ga2 O5 2.013311 1_555
Ga2 O0 2.013315 1_555
Ga2 O1 2.013315 1_555
Ga2 O2 2.013315 1_455
Ga2 O4 2.013315 1_455
Ga3 O6 2.013311 1_554
Ga3 O5 2.013311 1_555
Ga3 O1 2.013315 1_555
Ga3 O3 2.013315 1_555
Ga3 O2 2.013315 1_554
Ga3 O7 2.013315 1_554
Ni0 O4 1.983481 1_445
Ni0 O2 1.983481 1_454
Ni0 O7 1.983481 1_544
Ni0 O6 1.983486 1_444
Ni1 O1 1.983481 1_545
Ni1 O3 1.983481 1_455
Ni1 O0 1.983481 1_554
Ni1 O5 1.983486 1_555
