# generated using pymatgen
data_Ti3Mn2Co3O16
_symmetry_space_group_name_H-M   'P 1'
_cell_length_a   5.71431243
_cell_length_b   5.68710879
_cell_length_c   8.70461118
_cell_angle_alpha   88.64536301
_cell_angle_beta   88.41289195
_cell_angle_gamma   60.59695213
_symmetry_Int_Tables_number   1
_chemical_formula_structural   Ti3Mn2Co3O16
_chemical_formula_sum   'Ti3 Mn2 Co3 O16'
_cell_volume   246.33215543
_cell_formula_units_Z   1
loop_
 _symmetry_equiv_pos_site_id
 _symmetry_equiv_pos_as_xyz
  1  'x, y, z'
loop_
 _atom_site_type_symbol
 _atom_site_label
 _atom_site_symmetry_multiplicity
 _atom_site_fract_x
 _atom_site_fract_y
 _atom_site_fract_z
 _atom_site_occupancy
  Ti  Ti0  1  0.82809268  0.32487337  0.20666685  1
  Ti  Ti1  1  0.32479334  0.82639736  0.20751759  1
  Ti  Ti2  1  0.15650586  0.15841441  0.70952390  1
  Mn  Mn0  1  0.66356198  0.66885822  0.48399374  1
  Mn  Mn1  1  0.33626924  0.33085204  0.97879298  1
  Co  Co0  1  0.82740590  0.82762708  0.21100649  1
  Co  Co1  1  0.66329914  0.16160358  0.70656375  1
  Co  Co2  1  0.16877278  0.65572530  0.71023895  1
  O  O0  1  0.82633961  0.34439337  0.60245425  1
  O  O1  1  0.52256744  0.52165295  0.34866165  1
  O  O2  1  0.67386017  0.67345448  0.09714867  1
  O  O3  1  0.99053840  0.99147242  0.32002668  1
  O  O4  1  0.99125221  0.98281160  0.81718960  1
  O  O5  1  0.33873317  0.83108254  0.59949398  1
  O  O6  1  0.95393102  0.53288291  0.34372075  1
  O  O7  1  0.53087508  0.95692060  0.34295293  1
  O  O8  1  0.17410273  0.17218781  0.10202203  1
  O  O9  1  0.82967707  0.84062429  0.60611060  1
  O  O10  1  0.47914200  0.04357770  0.84160311  1
  O  O11  1  0.04388789  0.48311841  0.84469307  1
  O  O12  1  0.33749618  0.34506087  0.60146696  1
  O  O13  1  0.65933509  0.16973703  0.09822276  1
  O  O14  1  0.48030296  0.47408759  0.83210834  1
  O  O15  1  0.17245004  0.65577607  0.09938537  1
loop_
_geom_bond_atom_site_label_1
_geom_bond_atom_site_label_2
_geom_bond_distance
_geom_bond_site_symmetry_2
Mn0 O1 1.870614 1_555
Mn0 O7 1.871576 1_555
Mn0 O6 1.874717 1_555
Mn0 O5 1.888476 1_555
Mn0 O0 1.900348 1_555
Mn0 O9 2.000169 1_555
Mn1 O10 1.868245 1_555
Mn1 O14 1.876757 1_555
Mn1 O11 1.882418 1_555
Mn1 O8 1.882485 1_556
Mn1 O13 1.930995 1_556
Mn1 O15 1.931740 1_556
Co0 O2 1.834533 1_555
Co0 O6 1.852508 1_555
Co0 O7 1.854663 1_555
Co0 O3 1.892488 1_555
Co0 O13 1.949043 1_565
Co0 O15 1.957918 1_655
Co1 O9 1.823745 1_545
Co1 O10 1.878139 1_555
Co1 O12 1.879757 1_555
Co1 O0 1.905145 1_555
Co1 O14 1.910430 1_555
Co1 O4 1.912012 1_545
Co2 O12 1.817548 1_555
Co2 O11 1.852000 1_555
Co2 O4 1.879552 1_455
Co2 O14 1.899641 1_555
Co2 O5 1.928936 1_555
Co2 O9 1.932228 1_455
O0 Ti2 1.907423 1_655
O1 Ti1 1.960459 1_555
O1 Ti0 1.963565 1_555
O2 Ti0 1.963969 1_555
O2 Ti1 1.971816 1_555
O3 Ti0 1.914306 1_565
O3 Ti1 1.915170 1_655
O4 Ti2 1.897394 1_665
O5 Ti2 1.895458 1_565
O6 Ti0 2.071051 1_555
O7 Ti1 2.074662 1_555
O8 Ti0 1.935178 1_455
O8 Ti1 1.935910 1_545
O10 Ti2 2.011715 1_555
O11 Ti2 2.025456 1_555
O12 Ti2 2.014436 1_555
O13 Ti0 1.877400 1_555
O15 Ti1 1.871724 1_555
