# generated using pymatgen
data_LiNiPO4
_symmetry_space_group_name_H-M   'P 1'
_cell_length_a   9.90099372
_cell_length_b   9.90099372
_cell_length_c   22.58012900
_cell_angle_alpha   90.00000000
_cell_angle_beta   90.00000000
_cell_angle_gamma   119.99999811
_symmetry_Int_Tables_number   1
_chemical_formula_structural   LiNiPO4
_chemical_formula_sum   'Li24 Ni24 P24 O96'
_cell_volume   1916.96696392
_cell_formula_units_Z   24
loop_
 _symmetry_equiv_pos_site_id
 _symmetry_equiv_pos_as_xyz
  1  'x, y, z'
loop_
 _atom_site_type_symbol
 _atom_site_label
 _atom_site_symmetry_multiplicity
 _atom_site_fract_x
 _atom_site_fract_y
 _atom_site_fract_z
 _atom_site_occupancy
  Li  Li0  1  0.04106400  0.94193600  0.41325900  1
  Li  Li1  1  0.07420100  0.58186400  0.91333200  1
  Li  Li2  1  0.06382600  0.51838200  0.25456300  1
  Li  Li3  1  0.00503900  0.46658000  0.58781600  1
  Li  Li4  1  0.46154100  0.99496100  0.92115000  1
  Li  Li5  1  0.45455600  0.93617400  0.58789700  1
  Li  Li6  1  0.05806400  0.09912800  0.07992600  1
  Li  Li7  1  0.50766300  0.92579900  0.24666500  1
  Li  Li8  1  0.09912800  0.04106400  0.24659300  1
  Li  Li9  1  0.41813600  0.49233700  0.57999800  1
  Li  Li10  1  0.48161800  0.54544400  0.92123000  1
  Li  Li11  1  0.53342000  0.53845900  0.25448300  1
  Li  Li12  1  0.46658000  0.46154100  0.75448300  1
  Li  Li13  1  0.51838200  0.45455600  0.42123000  1
  Li  Li14  1  0.58186400  0.50766300  0.07999800  1
  Li  Li15  1  0.90087200  0.95893600  0.74659300  1
  Li  Li16  1  0.49233700  0.07420100  0.74666500  1
  Li  Li17  1  0.94193600  0.90087200  0.57992600  1
  Li  Li18  1  0.54544400  0.06382600  0.08789700  1
  Li  Li19  1  0.53845900  0.00503900  0.42115000  1
  Li  Li20  1  0.99496100  0.53342000  0.08781600  1
  Li  Li21  1  0.93617400  0.48161800  0.75456300  1
  Li  Li22  1  0.92579900  0.41813600  0.41333200  1
  Li  Li23  1  0.95893600  0.05806400  0.91325900  1
  Ni  Ni0  1  0.14549300  0.83075000  0.67899100  1
  Ni  Ni1  1  0.19203600  0.89645600  0.01349600  1
  Ni  Ni2  1  0.18037400  0.77815500  0.37844400  1
  Ni  Ni3  1  0.10354400  0.29558100  0.68016300  1
  Ni  Ni4  1  0.34594000  0.69988100  0.81658500  1
  Ni  Ni5  1  0.30011900  0.64605900  0.48325200  1
  Ni  Ni6  1  0.35394100  0.65406000  0.14991800  1
  Ni  Ni7  1  0.16925000  0.31474300  0.34565800  1
  Ni  Ni8  1  0.22184500  0.40221900  0.04511100  1
  Ni  Ni9  1  0.59778100  0.81962600  0.71177700  1
  Ni  Ni10  1  0.29558100  0.19203600  0.84682900  1
  Ni  Ni11  1  0.31474300  0.14549300  0.51232400  1
  Ni  Ni12  1  0.68525700  0.85450700  0.01232400  1
  Ni  Ni13  1  0.70441900  0.80796400  0.34682900  1
  Ni  Ni14  1  0.40221900  0.18037400  0.21177700  1
  Ni  Ni15  1  0.77815500  0.59778100  0.54511100  1
  Ni  Ni16  1  0.83075000  0.68525700  0.84565800  1
  Ni  Ni17  1  0.64605900  0.34594000  0.64991800  1
  Ni  Ni18  1  0.69988100  0.35394100  0.98325200  1
  Ni  Ni19  1  0.65406000  0.30011900  0.31658500  1
  Ni  Ni20  1  0.89645600  0.70441900  0.18016300  1
  Ni  Ni21  1  0.81962600  0.22184500  0.87844400  1
  Ni  Ni22  1  0.80796400  0.10354400  0.51349600  1
  Ni  Ni23  1  0.85450700  0.16925000  0.17899100  1
  P  P0  1  0.17171600  0.85511700  0.81320900  1
  P  P1  1  0.12581700  0.77993000  0.51221600  1
  P  P2  1  0.23287900  0.87579100  0.14669500  1
  P  P3  1  0.12420900  0.35708800  0.81336200  1
  P  P4  1  0.32221600  0.68675500  0.00724500  1
  P  P5  1  0.14488300  0.31659800  0.47987600  1
  P  P6  1  0.31324500  0.63546100  0.67391200  1
  P  P7  1  0.36453900  0.67778400  0.34057800  1
  P  P8  1  0.22007000  0.34588700  0.17888300  1
  P  P9  1  0.65411300  0.87418300  0.84554900  1
  P  P10  1  0.35708800  0.23287900  0.98002900  1
  P  P11  1  0.31659800  0.17171600  0.64654300  1
  P  P12  1  0.68340200  0.82828400  0.14654300  1
  P  P13  1  0.64291200  0.76712100  0.48002900  1
  P  P14  1  0.34588700  0.12581700  0.34554900  1
  P  P15  1  0.77993000  0.65411300  0.67888300  1
  P  P16  1  0.63546100  0.32221600  0.84057800  1
  P  P17  1  0.68675500  0.36453900  0.17391200  1
  P  P18  1  0.85511700  0.68340200  0.97987600  1
  P  P19  1  0.67778400  0.31324500  0.50724500  1
  P  P20  1  0.87579100  0.64291200  0.31336200  1
  P  P21  1  0.76712100  0.12420900  0.64669500  1
  P  P22  1  0.87418300  0.22007000  0.01221600  1
  P  P23  1  0.82828400  0.14488300  0.31320900  1
  O  O0  1  0.01283400  0.70395600  0.80102600  1
  O  O1  1  0.13543500  0.97898500  0.83757400  1
  O  O2  1  0.00691200  0.68772300  0.56195300  1
  O  O3  1  0.12250800  0.93305800  0.49986400  1
  O  O4  1  0.20526500  0.99182200  0.18401500  1
  O  O5  1  0.07345900  0.72786100  0.13400600  1
  O  O6  1  0.08118600  0.67675400  0.45530700  1
  O  O7  1  0.26259800  0.90605000  0.75352400  1
  O  O8  1  0.31042200  0.95124400  0.08680600  1
  O  O9  1  0.16222000  0.64323500  0.67297100  1
  O  O10  1  0.19985600  0.71743800  0.97766200  1
  O  O11  1  0.27677100  0.83059400  0.85810700  1
  O  O12  1  0.21970000  0.66976100  0.31093300  1
  O  O13  1  0.29059600  0.81289600  0.52984400  1
  O  O14  1  0.04875600  0.35917800  0.75347300  1
  O  O15  1  0.34445100  0.83669900  0.18094800  1
  O  O16  1  0.16330100  0.50775200  0.84761500  1
  O  O17  1  0.00817800  0.21344300  0.85068200  1
  O  O18  1  0.09395000  0.35654700  0.42019000  1
  O  O19  1  0.02101500  0.15645000  0.50424000  1
  O  O20  1  0.25478800  0.62023400  0.07084800  1
  O  O21  1  0.06694200  0.18945000  0.16653100  1
  O  O22  1  0.16940600  0.44617600  0.52477400  1
  O  O23  1  0.18710400  0.47769900  0.19651100  1
  O  O24  1  0.36544600  0.74521200  0.40418200  1
  O  O25  1  0.28256200  0.48241900  0.64432900  1
  O  O26  1  0.37976600  0.63455400  0.73751500  1
  O  O27  1  0.33023900  0.54993800  0.97759900  1
  O  O28  1  0.45006200  0.78030000  0.64426600  1
  O  O29  1  0.48101500  0.83778000  0.00630400  1
  O  O30  1  0.35676500  0.51898500  0.33963800  1
  O  O31  1  0.15645000  0.13543500  0.67090700  1
  O  O32  1  0.21344300  0.20526500  0.01734800  1
  O  O33  1  0.27213900  0.34559800  0.80067300  1
  O  O34  1  0.32324600  0.40443200  0.12197300  1
  O  O35  1  0.51758100  0.80014400  0.31099600  1
  O  O36  1  0.18945000  0.12250800  0.33319700  1
  O  O37  1  0.29604400  0.30887800  0.46769300  1
  O  O38  1  0.31227700  0.31918900  0.22862000  1
  O  O39  1  0.52230100  0.70940400  0.86317700  1
  O  O40  1  0.59556800  0.91881400  0.78864000  1
  O  O41  1  0.55382400  0.72322900  0.19144000  1
  O  O42  1  0.35917800  0.31042200  0.92013900  1
  O  O43  1  0.68081100  0.99308800  0.89528600  1
  O  O44  1  0.49224800  0.65554900  0.51428200  1
  O  O45  1  0.35654700  0.26259800  0.58685700  1
  O  O46  1  0.65440200  0.92654100  0.46734000  1
  O  O47  1  0.69112200  0.98716600  0.13436000  1
  O  O48  1  0.30887800  0.01283400  0.63436000  1
  O  O49  1  0.34559800  0.07345900  0.96734000  1
  O  O50  1  0.64345300  0.73740200  0.08685700  1
  O  O51  1  0.50775200  0.34445100  0.01428200  1
  O  O52  1  0.31918900  0.00691200  0.39528600  1
  O  O53  1  0.64082200  0.68957800  0.42013900  1
  O  O54  1  0.44617600  0.27677100  0.69144000  1
  O  O55  1  0.40443200  0.08118600  0.28864000  1
  O  O56  1  0.47769900  0.29059600  0.36317700  1
  O  O57  1  0.68772300  0.68081100  0.72862000  1
  O  O58  1  0.70395600  0.69112200  0.96769300  1
  O  O59  1  0.81055000  0.87749200  0.83319700  1
  O  O60  1  0.48241900  0.19985600  0.81099600  1
  O  O61  1  0.67675400  0.59556800  0.62197300  1
  O  O62  1  0.72786100  0.65440200  0.30067300  1
  O  O63  1  0.78655700  0.79473500  0.51734800  1
  O  O64  1  0.84355000  0.86456500  0.17090700  1
  O  O65  1  0.64323500  0.48101500  0.83963800  1
  O  O66  1  0.51898500  0.16222000  0.50630400  1
  O  O67  1  0.54993800  0.21970000  0.14426600  1
  O  O68  1  0.66976100  0.45006200  0.47759900  1
  O  O69  1  0.62023400  0.36544600  0.23751500  1
  O  O70  1  0.71743800  0.51758100  0.14432900  1
  O  O71  1  0.63455400  0.25478800  0.90418200  1
  O  O72  1  0.81289600  0.52230100  0.69651100  1
  O  O73  1  0.83059400  0.55382400  0.02477400  1
  O  O74  1  0.93305800  0.81055000  0.66653100  1
  O  O75  1  0.74521200  0.37976600  0.57084800  1
  O  O76  1  0.97898500  0.84355000  0.00424000  1
  O  O77  1  0.90605000  0.64345300  0.92019000  1
  O  O78  1  0.99182200  0.78655700  0.35068200  1
  O  O79  1  0.83669900  0.49224800  0.34761500  1
  O  O80  1  0.65554900  0.16330100  0.68094800  1
  O  O81  1  0.95124400  0.64082200  0.25347300  1
  O  O82  1  0.70940400  0.18710400  0.02984400  1
  O  O83  1  0.78030000  0.33023900  0.81093300  1
  O  O84  1  0.72322900  0.16940600  0.35810700  1
  O  O85  1  0.80014400  0.28256200  0.47766200  1
  O  O86  1  0.83778000  0.35676500  0.17297100  1
  O  O87  1  0.68957800  0.04875600  0.58680600  1
  O  O88  1  0.73740200  0.09395000  0.25352400  1
  O  O89  1  0.91881400  0.32324600  0.95530700  1
  O  O90  1  0.92654100  0.27213900  0.63400600  1
  O  O91  1  0.79473500  0.00817800  0.68401500  1
  O  O92  1  0.87749200  0.06694200  0.99986400  1
  O  O93  1  0.99308800  0.31227700  0.06195300  1
  O  O94  1  0.86456500  0.02101500  0.33757400  1
  O  O95  1  0.98716600  0.29604400  0.30102600  1
loop_
_geom_bond_atom_site_label_1
_geom_bond_atom_site_label_2
_geom_bond_distance
_geom_bond_site_symmetry_2
Li0 O78 1.962374 1_455
Li0 O3 2.133784 1_555
Li0 O36 2.448749 1_565
Li0 O52 2.527839 1_565
Li1 O10 1.946695 1_555
Li1 O16 2.041068 1_555
Li1 O77 2.045192 1_455
Li1 O89 2.425366 1_455
Li1 O11 2.589035 1_555
Li2 O23 1.965186 1_555
Li2 O12 1.983739 1_555
Li2 O81 2.015940 1_455
Li2 O95 2.202714 1_455
Li3 O90 1.975308 1_455
Li3 O22 2.245961 1_555
Li3 O2 2.257177 1_555
Li3 O75 2.300519 1_455
Li3 O9 2.540935 1_555
Li4 O49 1.975308 1_565
Li4 O11 2.245971 1_555
Li4 O43 2.257183 1_555
Li4 O71 2.300519 1_565
Li4 O29 2.540918 1_556
Li5 O13 1.965196 1_555
Li5 O28 1.983728 1_555
Li5 O87 2.015940 1_565
Li5 O48 2.202714 1_565
Li6 O32 1.962390 1_555
Li6 O21 2.133784 1_555
Li6 O92 2.448749 1_454
Li6 O93 2.527839 1_455
Li7 O35 1.946708 1_555
Li7 O15 2.041068 1_555
Li7 O88 2.045187 1_565
Li7 O55 2.425366 1_565
Li7 O41 2.589041 1_555
Li8 O4 1.962390 1_545
Li8 O36 2.133763 1_555
Li8 O21 2.448749 1_555
Li8 O38 2.527839 1_555
Li9 O25 1.946715 1_555
Li9 O44 2.041051 1_555
Li9 O45 2.045185 1_555
Li9 O61 2.425366 1_555
Li9 O22 2.589021 1_555
Li10 O39 1.965194 1_555
Li10 O27 1.983721 1_555
Li10 O42 2.015940 1_555
Li10 O58 2.202714 1_555
Li11 O62 1.975308 1_555
Li11 O41 2.245968 1_555
Li11 O38 2.257177 1_555
Li11 O69 2.300518 1_555
Li11 O30 2.540935 1_555
Li12 O33 1.975308 1_555
Li12 O54 2.245968 1_555
Li12 O57 2.257177 1_555
Li12 O26 2.300518 1_555
Li12 O65 2.540935 1_555
Li13 O56 1.965194 1_555
Li13 O68 1.983721 1_555
Li13 O53 2.015940 1_555
Li13 O37 2.202714 1_555
Li14 O70 1.946715 1_555
Li14 O51 2.041051 1_555
Li14 O50 2.045185 1_555
Li14 O34 2.425366 1_555
Li14 O73 2.589021 1_555
Li15 O91 1.962390 1_565
Li15 O59 2.133763 1_555
Li15 O74 2.448749 1_555
Li15 O57 2.527839 1_555
Li16 O60 1.946708 1_555
Li16 O80 2.041068 1_555
Li16 O7 2.045187 1_545
Li16 O40 2.425366 1_545
Li16 O54 2.589041 1_555
Li17 O63 1.962390 1_555
Li17 O74 2.133784 1_555
Li17 O3 2.448749 1_655
Li17 O2 2.527839 1_655
Li18 O82 1.965196 1_555
Li18 O67 1.983728 1_555
Li18 O8 2.015940 1_545
Li18 O47 2.202714 1_545
Li19 O46 1.975308 1_545
Li19 O84 2.245971 1_555
Li19 O52 2.257183 1_555
Li19 O24 2.300519 1_545
Li19 O66 2.540918 1_555
Li20 O5 1.975308 1_655
Li20 O73 2.245961 1_555
Li20 O93 2.257177 1_555
Li20 O20 2.300519 1_655
Li20 O86 2.540935 1_555
Li21 O72 1.965186 1_555
Li21 O83 1.983739 1_555
Li21 O14 2.015940 1_655
Li21 O0 2.202714 1_655
Li22 O85 1.946695 1_555
Li22 O79 2.041068 1_555
Li22 O18 2.045192 1_655
Li22 O6 2.425366 1_655
Li22 O84 2.589035 1_555
Li23 O17 1.962374 1_655
Li23 O92 2.133784 1_555
Li23 O59 2.448749 1_545
Li23 O43 2.527839 1_545
Ni0 O9 1.949433 1_555
Ni0 O7 1.966753 1_555
Ni0 O48 1.991544 1_565
Ni0 O74 2.030379 1_455
Ni1 O76 1.913831 1_455
Ni1 O8 1.942297 1_555
Ni1 O49 1.950539 1_564
Ni1 O10 1.984825 1_554
Ni2 O6 1.999666 1_555
Ni2 O78 2.010055 1_455
Ni2 O12 2.011236 1_555
Ni2 O52 2.012601 1_565
Ni2 O24 2.097496 1_555
Ni3 O31 1.913841 1_555
Ni3 O14 1.942292 1_555
Ni3 O90 1.950548 1_455
Ni3 O25 1.984825 1_555
Ni4 O11 1.977192 1_555
Ni4 O26 1.983641 1_555
Ni4 O16 1.984853 1_555
Ni4 O39 2.000026 1_555
Ni4 O40 2.418269 1_555
Ni5 O22 1.977199 1_555
Ni5 O24 1.983641 1_555
Ni5 O44 1.984853 1_555
Ni5 O13 2.000018 1_555
Ni5 O6 2.418269 1_555
Ni6 O41 1.977200 1_555
Ni6 O20 1.983641 1_555
Ni6 O15 1.984853 1_555
Ni6 O23 2.000034 1_555
Ni6 O34 2.418269 1_555
Ni7 O30 1.949433 1_555
Ni7 O18 1.966730 1_555
Ni7 O95 1.991555 1_455
Ni7 O36 2.030382 1_555
Ni8 O34 1.999647 1_555
Ni8 O32 2.010062 1_555
Ni8 O27 2.011249 1_554
Ni8 O93 2.012601 1_455
Ni8 O20 2.097490 1_555
Ni9 O40 1.999666 1_555
Ni9 O91 2.010055 1_565
Ni9 O28 2.011230 1_555
Ni9 O57 2.012606 1_555
Ni9 O26 2.097496 1_555
Ni10 O1 1.913832 1_545
Ni10 O42 1.942296 1_555
Ni10 O33 1.950544 1_555
Ni10 O60 1.984816 1_555
Ni11 O66 1.949433 1_555
Ni11 O45 1.966754 1_555
Ni11 O37 1.991544 1_555
Ni11 O3 2.030379 1_545
Ni12 O29 1.949433 1_555
Ni12 O50 1.966754 1_555
Ni12 O58 1.991544 1_554
Ni12 O92 2.030379 1_564
Ni13 O94 1.913832 1_565
Ni13 O53 1.942296 1_555
Ni13 O62 1.950544 1_555
Ni13 O35 1.984816 1_555
Ni14 O55 1.999666 1_555
Ni14 O4 2.010055 1_545
Ni14 O67 2.011230 1_555
Ni14 O38 2.012606 1_555
Ni14 O69 2.097496 1_555
Ni15 O61 1.999647 1_555
Ni15 O63 2.010062 1_555
Ni15 O68 2.011249 1_555
Ni15 O2 2.012601 1_655
Ni15 O75 2.097490 1_555
Ni16 O65 1.949433 1_555
Ni16 O77 1.966730 1_555
Ni16 O0 1.991555 1_655
Ni16 O59 2.030382 1_555
Ni17 O54 1.977200 1_555
Ni17 O75 1.983641 1_555
Ni17 O80 1.984853 1_555
Ni17 O72 2.000034 1_555
Ni17 O61 2.418269 1_555
Ni18 O73 1.977199 1_556
Ni18 O71 1.983641 1_555
Ni18 O51 1.984853 1_556
Ni18 O82 2.000018 1_556
Ni18 O89 2.418269 1_555
Ni19 O84 1.977192 1_555
Ni19 O69 1.983641 1_555
Ni19 O79 1.984853 1_555
Ni19 O56 2.000026 1_555
Ni19 O55 2.418269 1_555
Ni20 O64 1.913841 1_555
Ni20 O81 1.942292 1_555
Ni20 O5 1.950548 1_655
Ni20 O70 1.984825 1_555
Ni21 O89 1.999666 1_555
Ni21 O17 2.010055 1_655
Ni21 O83 2.011236 1_555
Ni21 O43 2.012601 1_545
Ni21 O71 2.097496 1_555
Ni22 O19 1.913831 1_655
Ni22 O87 1.942297 1_555
Ni22 O46 1.950539 1_545
Ni22 O85 1.984825 1_555
Ni23 O86 1.949433 1_555
Ni23 O88 1.966753 1_555
Ni23 O47 1.991544 1_545
Ni23 O21 2.030379 1_655
O0 P0 1.560729 1_555
O1 P0 1.541547 1_555
O2 P1 1.551109 1_555
O3 P1 1.557932 1_555
O4 P2 1.555238 1_555
O5 P2 1.551409 1_555
O6 P1 1.561623 1_555
O7 P0 1.557722 1_555
O8 P2 1.550066 1_555
O9 P6 1.535378 1_555
O10 P4 1.540855 1_556
O11 P0 1.556023 1_555
O12 P7 1.548217 1_555
O13 P1 1.547313 1_555
O14 P3 1.550066 1_555
O15 P2 1.547863 1_555
O16 P3 1.547863 1_555
O17 P3 1.555238 1_555
O18 P5 1.557742 1_555
O19 P5 1.541533 1_555
O20 P4 1.581881 1_555
O21 P8 1.557933 1_555
O22 P5 1.556023 1_555
O23 P8 1.547304 1_555
O24 P7 1.581902 1_555
O25 P6 1.540846 1_555
O26 P6 1.581881 1_555
O27 P4 1.548235 1_556
O28 P6 1.548231 1_555
O29 P4 1.535378 1_555
O30 P7 1.535377 1_555
O31 P11 1.541530 1_555
O32 P10 1.555226 1_554
O33 P3 1.551409 1_555
O34 P8 1.561642 1_555
O35 P7 1.540840 1_555
O36 P14 1.557932 1_555
O37 P5 1.560724 1_555
O38 P8 1.551109 1_555
O39 P9 1.547310 1_555
O40 P9 1.561623 1_555
O41 P12 1.556009 1_555
O42 P10 1.550086 1_555
O43 P9 1.551109 1_555
O44 P13 1.547863 1_555
O45 P11 1.557742 1_555
O46 P13 1.551409 1_555
O47 P12 1.560734 1_555
O48 P11 1.560734 1_555
O49 P10 1.551409 1_555
O50 P12 1.557742 1_555
O51 P10 1.547863 1_554
O52 P14 1.551109 1_555
O53 P13 1.550086 1_555
O54 P11 1.556009 1_555
O55 P14 1.561623 1_555
O56 P14 1.547310 1_555
O57 P15 1.551109 1_555
O58 P18 1.560724 1_555
O59 P9 1.557932 1_555
O60 P16 1.540840 1_555
O61 P15 1.561642 1_555
O62 P20 1.551409 1_555
O63 P13 1.555226 1_555
O64 P12 1.541530 1_555
O65 P16 1.535377 1_555
O66 P19 1.535378 1_555
O67 P17 1.548231 1_555
O68 P19 1.548235 1_555
O69 P17 1.581881 1_555
O70 P17 1.540846 1_555
O71 P16 1.581902 1_555
O72 P15 1.547304 1_555
O73 P18 1.556023 1_554
O74 P15 1.557933 1_555
O75 P19 1.581881 1_555
O76 P18 1.541533 1_554
O77 P18 1.557742 1_555
O78 P20 1.555238 1_555
O79 P20 1.547863 1_555
O80 P21 1.547863 1_555
O81 P20 1.550066 1_555
O82 P22 1.547313 1_555
O83 P16 1.548217 1_555
O84 P23 1.556023 1_555
O85 P19 1.540855 1_555
O86 P17 1.535378 1_555
O87 P21 1.550066 1_555
O88 P23 1.557722 1_555
O89 P22 1.561623 1_556
O90 P21 1.551409 1_555
O91 P21 1.555238 1_555
O92 P22 1.557932 1_556
O93 P22 1.551109 1_555
O94 P23 1.541547 1_555
O95 P23 1.560729 1_555
