# generated using pymatgen
data_Na3SbO4
_symmetry_space_group_name_H-M   'P 1'
_cell_length_a   5.41565206
_cell_length_b   5.75387704
_cell_length_c   6.54645147
_cell_angle_alpha   90.00000000
_cell_angle_beta   90.00000000
_cell_angle_gamma   109.46209623
_symmetry_Int_Tables_number   1
_chemical_formula_structural   Na3SbO4
_chemical_formula_sum   'Na6 Sb2 O8'
_cell_volume   192.33816515
_cell_formula_units_Z   2
loop_
 _symmetry_equiv_pos_site_id
 _symmetry_equiv_pos_as_xyz
  1  'x, y, z'
loop_
 _atom_site_type_symbol
 _atom_site_label
 _atom_site_symmetry_multiplicity
 _atom_site_fract_x
 _atom_site_fract_y
 _atom_site_fract_z
 _atom_site_occupancy
  Na  Na0  1  0.75000000  0.00000000  0.38500666  1
  Na  Na1  1  0.25000000  0.50000000  0.39965746  1
  Na  Na2  1  0.75000000  0.50000000  0.12491935  1
  Na  Na3  1  0.25000000  0.50000000  0.87508065  1
  Na  Na4  1  0.25000000  0.00000000  0.61499334  1
  Na  Na5  1  0.75000000  0.50000000  0.60034254  1
  Sb  Sb0  1  0.75000000  0.00000000  0.86810193  1
  Sb  Sb1  1  0.25000000  0.00000000  0.13189807  1
  O  O0  1  0.96038040  0.22835394  0.66570168  1
  O  O1  1  0.53961960  0.77164606  0.66570168  1
  O  O2  1  0.03961960  0.77164606  0.33429832  1
  O  O3  1  0.46038040  0.22835394  0.33429832  1
  O  O4  1  0.49875165  0.19701738  0.90302741  1
  O  O5  1  0.00124835  0.80298262  0.90302741  1
  O  O6  1  0.99875165  0.19701738  0.09697259  1
  O  O7  1  0.50124835  0.80298262  0.09697259  1
loop_
_geom_bond_atom_site_label_1
_geom_bond_atom_site_label_2
_geom_bond_distance
_geom_bond_site_symmetry_2
Na0 O0 2.324555 1_555
Na0 O1 2.324555 1_545
Na0 O7 2.374395 1_545
Na0 O6 2.374395 1_555
Na0 O2 2.381175 1_645
Na0 O3 2.381175 1_555
Na1 O3 2.260727 1_555
Na1 O2 2.260727 1_555
Na1 O1 2.510546 1_555
Na1 O0 2.510546 1_455
Na1 O7 2.690041 1_555
Na1 O6 2.690041 1_455
Na2 O2 2.268987 1_655
Na2 O3 2.268987 1_555
Na2 O5 2.328087 1_654
Na2 O4 2.328087 1_554
Na2 O6 2.540167 1_555
Na2 O7 2.540167 1_555
Na3 O1 2.268987 1_555
Na3 O0 2.268987 1_455
Na3 O6 2.328087 1_456
Na3 O7 2.328087 1_556
Na3 O4 2.540167 1_555
Na3 O5 2.540167 1_555
Na4 O3 2.324555 1_555
Na4 O2 2.324555 1_545
Na4 O5 2.374395 1_545
Na4 O4 2.374395 1_555
Na4 O1 2.381175 1_545
Na4 O0 2.381175 1_455
Na5 O0 2.260727 1_555
Na5 O1 2.260727 1_555
Na5 O2 2.510546 1_655
Na5 O3 2.510546 1_555
Na5 O4 2.690041 1_555
Na5 O5 2.690041 1_655
O0 Sb0 1.944884 1_555
O1 Sb0 1.944884 1_565
O2 Sb1 1.944884 1_565
O3 Sb1 1.944884 1_555
O4 Sb0 2.053447 1_555
O4 Sb1 2.080176 1_556
O5 Sb0 2.053447 1_465
O5 Sb1 2.080176 1_566
O6 Sb1 2.053447 1_655
O6 Sb0 2.080176 1_554
O7 Sb1 2.053447 1_565
O7 Sb0 2.080176 1_564
