# generated using pymatgen
data_NaFe(PO3)3
_symmetry_space_group_name_H-M   'P 1'
_cell_length_a   8.69311100
_cell_length_b   8.77609400
_cell_length_c   9.03868300
_cell_angle_alpha   90.00000000
_cell_angle_beta   90.00000000
_cell_angle_gamma   90.00000000
_symmetry_Int_Tables_number   1
_chemical_formula_structural   NaFe(PO3)3
_chemical_formula_sum   'Na4 Fe4 P12 O36'
_cell_volume   689.57521998
_cell_formula_units_Z   4
loop_
 _symmetry_equiv_pos_site_id
 _symmetry_equiv_pos_as_xyz
  1  'x, y, z'
loop_
 _atom_site_type_symbol
 _atom_site_label
 _atom_site_symmetry_multiplicity
 _atom_site_fract_x
 _atom_site_fract_y
 _atom_site_fract_z
 _atom_site_occupancy
  Na  Na0  1  0.88183600  0.59752000  0.35705800  1
  Na  Na1  1  0.61816400  0.40248000  0.85705800  1
  Na  Na2  1  0.11816400  0.09752000  0.14294200  1
  Na  Na3  1  0.38183600  0.90248000  0.64294200  1
  Fe  Fe0  1  0.60709200  0.62254900  0.59077000  1
  Fe  Fe1  1  0.89290800  0.37745100  0.09077000  1
  Fe  Fe2  1  0.39290800  0.12254900  0.90923000  1
  Fe  Fe3  1  0.10709200  0.87745100  0.40923000  1
  P  P0  1  0.07401800  0.71817300  0.06224700  1
  P  P1  1  0.23000600  0.55646000  0.55875600  1
  P  P2  1  0.55788300  0.55231300  0.18988200  1
  P  P3  1  0.94211700  0.44768700  0.68988200  1
  P  P4  1  0.26999400  0.44354000  0.05875600  1
  P  P5  1  0.42598200  0.28182700  0.56224700  1
  P  P6  1  0.92598200  0.21817300  0.43775300  1
  P  P7  1  0.76999400  0.05646000  0.94124400  1
  P  P8  1  0.44211700  0.05231300  0.31011800  1
  P  P9  1  0.05788300  0.94768700  0.81011800  1
  P  P10  1  0.73000600  0.94354000  0.44124400  1
  P  P11  1  0.57401800  0.78182700  0.93775300  1
  O  O0  1  0.53041500  0.70631900  0.09462500  1
  O  O1  1  0.36597800  0.64330900  0.61785300  1
  O  O2  1  0.62616900  0.66166300  0.83111200  1
  O  O3  1  0.13987300  0.63046400  0.43551800  1
  O  O4  1  0.94369500  0.61705900  0.11070800  1
  O  O5  1  0.21734800  0.61184100  0.00866900  1
  O  O6  1  0.60178600  0.59631700  0.34403800  1
  O  O7  1  0.83821300  0.55503300  0.60564200  1
  O  O8  1  0.11455500  0.51789500  0.69487400  1
  O  O9  1  0.38544500  0.48210500  0.19487400  1
  O  O10  1  0.66178700  0.44496700  0.10564200  1
  O  O11  1  0.89821400  0.40368300  0.84403800  1
  O  O12  1  0.28265200  0.38815900  0.50866900  1
  O  O13  1  0.55630500  0.38294100  0.61070800  1
  O  O14  1  0.36012700  0.36953600  0.93551800  1
  O  O15  1  0.87383100  0.33833700  0.33111200  1
  O  O16  1  0.13402200  0.35669100  0.11785300  1
  O  O17  1  0.96958500  0.29368100  0.59462500  1
  O  O18  1  0.46958500  0.20631900  0.40537500  1
  O  O19  1  0.63402200  0.14330900  0.88214700  1
  O  O20  1  0.37383100  0.16166300  0.66888800  1
  O  O21  1  0.86012700  0.13046400  0.06448200  1
  O  O22  1  0.05630500  0.11705900  0.38929200  1
  O  O23  1  0.78265200  0.11184100  0.49133100  1
  O  O24  1  0.39821400  0.09631700  0.15596200  1
  O  O25  1  0.16178700  0.05503300  0.89435800  1
  O  O26  1  0.88544500  0.01789500  0.80512600  1
  O  O27  1  0.61455500  0.98210500  0.30512600  1
  O  O28  1  0.33821300  0.94496700  0.39435800  1
  O  O29  1  0.10178600  0.90368300  0.65596200  1
  O  O30  1  0.71734800  0.88815900  0.99133100  1
  O  O31  1  0.44369500  0.88294100  0.88929200  1
  O  O32  1  0.63987300  0.86953600  0.56448200  1
  O  O33  1  0.12616900  0.83833700  0.16888800  1
  O  O34  1  0.86597800  0.85669100  0.38214700  1
  O  O35  1  0.03041500  0.79368100  0.90537500  1
loop_
_geom_bond_atom_site_label_1
_geom_bond_atom_site_label_2
_geom_bond_distance
_geom_bond_site_symmetry_2
Na0 O15 2.287731 1_555
Na0 O34 2.289939 1_555
Na0 O4 2.297102 1_555
Na0 O7 2.308955 1_555
Na0 O3 2.370278 1_655
Na0 O6 2.437371 1_555
Na1 O2 2.287731 1_555
Na1 O19 2.289939 1_555
Na1 O13 2.297102 1_555
Na1 O10 2.308955 1_556
Na1 O14 2.370278 1_555
Na1 O11 2.437371 1_555
Na2 O33 2.287731 1_545
Na2 O16 2.289939 1_555
Na2 O22 2.297102 1_555
Na2 O25 2.308955 1_554
Na2 O21 2.370278 1_455
Na2 O24 2.437371 1_555
Na3 O20 2.287731 1_565
Na3 O1 2.289939 1_555
Na3 O31 2.297102 1_555
Na3 O28 2.308955 1_555
Na3 O32 2.370278 1_555
Na3 O29 2.437371 1_555
Fe0 O7 2.099020 1_555
Fe0 O1 2.118127 1_555
Fe0 O13 2.156214 1_555
Fe0 O32 2.199107 1_555
Fe0 O2 2.205572 1_555
Fe0 O6 2.242458 1_555
Fe1 O10 2.099020 1_555
Fe1 O16 2.118127 1_655
Fe1 O4 2.156214 1_555
Fe1 O21 2.199107 1_555
Fe1 O15 2.205572 1_555
Fe1 O11 2.242458 1_554
Fe2 O25 2.099020 1_555
Fe2 O19 2.118127 1_555
Fe2 O31 2.156214 1_545
Fe2 O14 2.199107 1_555
Fe2 O20 2.205572 1_555
Fe2 O24 2.242458 1_556
Fe3 O28 2.099020 1_555
Fe3 O34 2.118127 1_455
Fe3 O22 2.156214 1_565
Fe3 O3 2.199107 1_555
Fe3 O33 2.205572 1_555
Fe3 O29 2.242458 1_555
O0 P11 1.610369 1_554
O0 P2 1.620209 1_555
O1 P1 1.504473 1_555
O2 P11 1.498913 1_555
O3 P1 1.508817 1_555
O4 P0 1.504264 1_655
O5 P4 1.611214 1_555
O5 P0 1.630283 1_555
O6 P2 1.495416 1_555
O7 P3 1.511003 1_555
O8 P3 1.621341 1_455
O8 P1 1.623430 1_555
O9 P2 1.621341 1_555
O9 P4 1.623430 1_555
O10 P2 1.511003 1_555
O11 P3 1.495416 1_555
O12 P1 1.611214 1_555
O12 P5 1.630283 1_555
O13 P5 1.504264 1_555
O14 P4 1.508817 1_556
O15 P6 1.498913 1_555
O16 P4 1.504473 1_555
O17 P6 1.610369 1_555
O17 P3 1.620209 1_555
O18 P5 1.610369 1_555
O18 P8 1.620209 1_555
O19 P7 1.504473 1_555
O20 P5 1.498913 1_555
O21 P7 1.508817 1_554
O22 P6 1.504264 1_455
O23 P10 1.611214 1_545
O23 P6 1.630283 1_555
O24 P8 1.495416 1_555
O25 P9 1.511003 1_545
O26 P9 1.621341 1_645
O26 P7 1.623430 1_555
O27 P8 1.621341 1_565
O27 P10 1.623430 1_555
O28 P8 1.511003 1_565
O29 P9 1.495416 1_555
O30 P7 1.611214 1_565
O30 P11 1.630283 1_555
O31 P11 1.504264 1_555
O32 P10 1.508817 1_555
O33 P0 1.498913 1_555
O34 P10 1.504473 1_555
O35 P0 1.610369 1_556
O35 P9 1.620209 1_555
