# generated using pymatgen
data_LiCo3CuO8
_symmetry_space_group_name_H-M   'P 1'
_cell_length_a   5.95232436
_cell_length_b   5.71130573
_cell_length_c   5.69115375
_cell_angle_alpha   59.88280285
_cell_angle_beta   60.81474520
_cell_angle_gamma   90.00000845
_symmetry_Int_Tables_number   1
_chemical_formula_structural   LiCo3CuO8
_chemical_formula_sum   'Li1 Co3 Cu1 O8'
_cell_volume   138.22736748
_cell_formula_units_Z   1
loop_
 _symmetry_equiv_pos_site_id
 _symmetry_equiv_pos_as_xyz
  1  'x, y, z'
loop_
 _atom_site_type_symbol
 _atom_site_label
 _atom_site_symmetry_multiplicity
 _atom_site_fract_x
 _atom_site_fract_y
 _atom_site_fract_z
 _atom_site_occupancy
  Li  Li0  1  0.50000000  0.00000000  0.00000000  1
  Co  Co0  1  0.00000000  0.00000000  0.50000000  1
  Co  Co1  1  0.00000000  0.50000000  0.00000000  1
  Co  Co2  1  0.00000000  0.50000000  0.50000000  1
  Cu  Cu0  1  0.00000000  0.00000000  0.00000000  1
  O  O0  1  0.19728800  0.23377100  0.04198800  1
  O  O1  1  0.19150500  0.23385800  0.53228500  1
  O  O2  1  0.19728800  0.72424100  0.04198800  1
  O  O3  1  0.19759100  0.73777000  0.52446200  1
  O  O4  1  0.80240900  0.26223000  0.47553800  1
  O  O5  1  0.80271200  0.27575900  0.95801200  1
  O  O6  1  0.80849500  0.76614200  0.46771500  1
  O  O7  1  0.80271200  0.76622900  0.95801200  1
loop_
_geom_bond_atom_site_label_1
_geom_bond_atom_site_label_2
_geom_bond_distance
_geom_bond_site_symmetry_2
Li0 O3 2.160140 1_545
Li0 O4 2.160140 1_554
Li0 O5 2.233064 1_554
Li0 O2 2.233064 1_545
Li0 O0 2.233064 1_555
Li0 O7 2.233064 1_544
Co0 O0 1.865007 1_555
Co0 O7 1.865007 1_445
Co0 O1 1.888807 1_555
Co0 O6 1.888807 1_445
Co0 O3 1.896347 1_545
Co0 O4 1.896347 1_455
Co1 O2 1.912367 1_555
Co1 O5 1.912367 1_454
Co1 O7 1.912367 1_454
Co1 O0 1.912367 1_555
Co1 O4 1.938883 1_455
Co1 O3 1.938883 1_554
Co2 O5 1.865007 1_455
Co2 O2 1.865007 1_555
Co2 O6 1.888803 1_455
Co2 O1 1.888803 1_555
Co2 O3 1.896356 1_555
Co2 O4 1.896356 1_455
Cu0 O6 1.908311 1_445
Cu0 O1 1.908311 1_554
Cu0 O0 1.952582 1_555
Cu0 O7 1.952582 1_444
Cu0 O5 1.952583 1_454
Cu0 O2 1.952583 1_545
