# generated using pymatgen
data_Sn2N2O
_symmetry_space_group_name_H-M   'P 1'
_cell_length_a   8.83653900
_cell_length_b   8.83747851
_cell_length_c   8.84701650
_cell_angle_alpha   109.45200518
_cell_angle_beta   109.40988056
_cell_angle_gamma   109.39716906
_symmetry_Int_Tables_number   1
_chemical_formula_structural   Sn2N2O
_chemical_formula_sum   'Sn16 N16 O8'
_cell_volume   532.85780915
_cell_formula_units_Z   8
loop_
 _symmetry_equiv_pos_site_id
 _symmetry_equiv_pos_as_xyz
  1  'x, y, z'
loop_
 _atom_site_type_symbol
 _atom_site_label
 _atom_site_symmetry_multiplicity
 _atom_site_fract_x
 _atom_site_fract_y
 _atom_site_fract_z
 _atom_site_occupancy
  Sn  Sn0  1  0.22331100  0.26035600  0.97512500  1
  Sn  Sn1  1  0.99706100  0.49064500  0.99172100  1
  Sn  Sn2  1  0.75436500  0.97334700  0.72473000  1
  Sn  Sn3  1  0.25024200  0.53730700  0.78707100  1
  Sn  Sn4  1  0.53710400  0.77863900  0.24593100  1
  Sn  Sn5  1  0.02925600  0.28007000  0.25236100  1
  Sn  Sn6  1  0.99177700  0.99183500  0.48889200  1
  Sn  Sn7  1  0.50515900  0.50129200  0.51359400  1
  Sn  Sn8  1  0.51057400  0.00657000  0.00136300  1
  Sn  Sn9  1  0.72172300  0.25656100  0.47186700  1
  Sn  Sn10  1  0.28554300  0.75157000  0.53560500  1
  Sn  Sn11  1  0.47306500  0.20886600  0.74935300  1
  Sn  Sn12  1  0.95580600  0.70769500  0.73866300  1
  Sn  Sn13  1  0.73581500  0.46192700  0.20974700  1
  Sn  Sn14  1  0.25044700  0.03248100  0.29584600  1
  Sn  Sn15  1  0.77855200  0.75032200  0.03263700  1
  N  N0  1  0.27528900  0.53952900  0.04727800  1
  N  N1  1  0.26303500  0.49979600  0.53808300  1
  N  N2  1  0.76247000  0.03688400  0.50469600  1
  N  N3  1  0.53165100  0.77047500  0.99123900  1
  N  N4  1  0.45047000  0.22748300  0.99509600  1
  N  N5  1  0.96896300  0.46402800  0.72978700  1
  N  N6  1  0.22288600  0.95105100  0.49906000  1
  N  N7  1  0.74030600  0.74472700  0.77834700  1
  N  N8  1  0.99904900  0.03683900  0.26119300  1
  N  N9  1  0.77242800  0.23407700  0.23688800  1
  N  N10  1  0.72702500  0.50679100  0.45852200  1
  N  N11  1  0.54254100  0.99725500  0.76715300  1
  N  N12  1  0.76309100  0.72476900  0.26770600  1
  N  N13  1  0.96755400  0.22571000  0.97032400  1
  N  N14  1  0.73514200  0.46292000  0.95762500  1
  N  N15  1  0.50254300  0.26573500  0.54140500  1
  O  O0  1  0.48631200  0.71835400  0.44855400  1
  O  O1  1  0.22170200  0.26881000  0.71987600  1
  O  O2  1  0.05875500  0.77664300  0.04370600  1
  O  O3  1  0.44537200  0.99178200  0.22140600  1
  O  O4  1  0.22175300  0.78237400  0.76845800  1
  O  O5  1  0.01350600  0.96270800  0.73234400  1
  O  O6  1  0.28341400  0.27270700  0.23545500  1
  O  O7  1  0.04494300  0.54907000  0.27129600  1
loop_
_geom_bond_atom_site_label_1
_geom_bond_atom_site_label_2
_geom_bond_distance
_geom_bond_site_symmetry_2
N0 Sn4 2.117373 1_555
N0 Sn0 2.170008 1_554
N0 Sn1 2.196065 1_454
N0 Sn3 2.230962 1_554
N1 Sn3 2.163110 1_555
N1 Sn10 2.175387 1_555
N1 Sn7 2.217194 1_555
N1 Sn5 2.241305 1_555
N2 Sn9 2.180218 1_555
N2 Sn4 2.210539 1_545
N2 Sn2 2.214454 1_545
N2 Sn6 2.229557 1_545
N3 Sn8 2.130931 1_566
N3 Sn15 2.167105 1_556
N3 Sn3 2.196458 1_555
N3 Sn4 2.214041 1_556
N4 Sn0 2.081028 1_555
N4 Sn8 2.199532 1_556
N4 Sn11 2.205834 1_555
N4 Sn13 2.232405 1_556
N5 Sn9 2.140307 1_555
N5 Sn1 2.168583 1_555
N5 Sn12 2.171765 1_555
N5 Sn3 2.174654 1_655
N6 Sn10 2.104260 1_555
N6 Sn6 2.167258 1_455
N6 Sn14 2.201300 1_565
N6 Sn11 2.241028 1_565
N7 Sn15 2.141802 1_556
N7 Sn12 2.153697 1_555
N7 Sn2 2.198481 1_555
N7 Sn7 2.207234 1_555
N8 Sn5 2.107731 1_655
N8 Sn14 2.154650 1_655
N8 Sn6 2.196140 1_545
N8 Sn15 2.234008 1_545
N9 Sn5 2.116172 1_655
N9 Sn8 2.157143 1_555
N9 Sn13 2.218133 1_555
N9 Sn9 2.228230 1_555
N10 Sn13 2.135449 1_555
N10 Sn7 2.161199 1_555
N10 Sn12 2.176401 1_555
N10 Sn9 2.239461 1_555
N11 Sn2 2.089475 1_555
N11 Sn8 2.161218 1_566
N11 Sn10 2.176783 1_555
N11 Sn11 2.189408 1_565
N12 Sn13 2.114090 1_555
N12 Sn6 2.147314 1_555
N12 Sn4 2.165275 1_555
N12 Sn15 2.208119 1_555
N13 Sn2 2.122527 1_545
N13 Sn0 2.161270 1_655
N13 Sn1 2.202786 1_555
N13 Sn5 2.208492 1_656
N14 Sn1 2.148910 1_555
N14 Sn11 2.180367 1_555
N14 Sn13 2.231506 1_556
N14 Sn15 2.258250 1_556
N15 Sn11 2.133630 1_555
N15 Sn14 2.163774 1_555
N15 Sn7 2.169707 1_555
N15 Sn9 2.235897 1_555
O0 Sn4 2.170426 1_555
O0 Sn7 2.218628 1_555
O0 Sn10 2.220403 1_555
O0 Sn2 2.366297 1_555
O1 Sn3 2.147259 1_555
O1 Sn6 2.213828 1_445
O1 Sn0 2.279682 1_555
O1 Sn11 2.402267 1_555
O2 Sn14 2.131376 1_565
O2 Sn1 2.245191 1_454
O2 Sn12 2.320944 1_454
O2 Sn15 2.373921 1_455
O3 Sn14 2.130178 1_565
O3 Sn8 2.236894 1_565
O3 Sn4 2.328469 1_555
O3 Sn9 2.345924 1_565
O4 Sn12 2.114236 1_455
O4 Sn8 2.260932 1_566
O4 Sn10 2.266248 1_555
O4 Sn3 2.313699 1_555
O5 Sn12 2.163732 1_455
O5 Sn6 2.206650 1_455
O5 Sn2 2.302557 1_455
O5 Sn0 2.306700 1_565
O6 Sn0 2.139980 1_554
O6 Sn7 2.197879 1_555
O6 Sn14 2.307711 1_555
O6 Sn5 2.320435 1_555
O7 Sn10 2.138221 1_555
O7 Sn1 2.207279 1_454
O7 Sn5 2.280172 1_555
O7 Sn13 2.384555 1_455
