# generated using pymatgen
data_Mn3SbO8
_symmetry_space_group_name_H-M   'P 1'
_cell_length_a   8.41074100
_cell_length_b   8.41074100
_cell_length_c   8.71104900
_cell_angle_alpha   90.00000000
_cell_angle_beta   90.00000000
_cell_angle_gamma   90.00000000
_symmetry_Int_Tables_number   1
_chemical_formula_structural   Mn3SbO8
_chemical_formula_sum   'Mn12 Sb4 O32'
_cell_volume   616.22452076
_cell_formula_units_Z   4
loop_
 _symmetry_equiv_pos_site_id
 _symmetry_equiv_pos_as_xyz
  1  'x, y, z'
loop_
 _atom_site_type_symbol
 _atom_site_label
 _atom_site_symmetry_multiplicity
 _atom_site_fract_x
 _atom_site_fract_y
 _atom_site_fract_z
 _atom_site_occupancy
  Mn  Mn0  1  0.36384300  0.63615700  0.25000000  1
  Mn  Mn1  1  0.37924300  0.88217600  0.50143600  1
  Mn  Mn2  1  0.38217600  0.12075700  0.75143600  1
  Mn  Mn3  1  0.61782400  0.87924300  0.25143600  1
  Mn  Mn4  1  0.62075700  0.11782400  0.00143600  1
  Mn  Mn5  1  0.63615700  0.36384300  0.75000000  1
  Mn  Mn6  1  0.86384300  0.86384300  0.00000000  1
  Mn  Mn7  1  0.87924300  0.61782400  0.74856400  1
  Mn  Mn8  1  0.88217600  0.37924300  0.49856400  1
  Mn  Mn9  1  0.11782400  0.62075700  0.99856400  1
  Mn  Mn10  1  0.12075700  0.38217600  0.24856400  1
  Mn  Mn11  1  0.13615700  0.13615700  0.50000000  1
  Sb  Sb0  1  0.37472500  0.37472500  0.00000000  1
  Sb  Sb1  1  0.62527500  0.62527500  0.50000000  1
  Sb  Sb2  1  0.87472500  0.12527500  0.25000000  1
  Sb  Sb3  1  0.12527500  0.87472500  0.75000000  1
  O  O0  1  0.34748400  0.61028400  0.99628200  1
  O  O1  1  0.35168300  0.39677200  0.23297600  1
  O  O2  1  0.36800100  0.11396600  0.52867000  1
  O  O3  1  0.38971600  0.65251600  0.50371800  1
  O  O4  1  0.36889000  0.88928600  0.73030300  1
  O  O5  1  0.38603400  0.86800100  0.27867000  1
  O  O6  1  0.38928600  0.13111000  0.98030300  1
  O  O7  1  0.39677200  0.35168300  0.76702400  1
  O  O8  1  0.60322800  0.64831700  0.26702400  1
  O  O9  1  0.61071400  0.86889000  0.48030300  1
  O  O10  1  0.61396600  0.13199900  0.77867000  1
  O  O11  1  0.63111000  0.11071400  0.23030300  1
  O  O12  1  0.61028400  0.34748400  0.00371800  1
  O  O13  1  0.63199900  0.88603400  0.02867000  1
  O  O14  1  0.64831700  0.60322800  0.73297600  1
  O  O15  1  0.65251600  0.38971600  0.49628200  1
  O  O16  1  0.84748400  0.88971600  0.25371800  1
  O  O17  1  0.85168300  0.10322800  0.01702400  1
  O  O18  1  0.86800100  0.38603400  0.72133000  1
  O  O19  1  0.88971600  0.84748400  0.74628200  1
  O  O20  1  0.86889000  0.61071400  0.51969700  1
  O  O21  1  0.88603400  0.63199900  0.97133000  1
  O  O22  1  0.88928600  0.36889000  0.26969700  1
  O  O23  1  0.89677200  0.14831700  0.48297600  1
  O  O24  1  0.10322800  0.85168300  0.98297600  1
  O  O25  1  0.11071400  0.63111000  0.76969700  1
  O  O26  1  0.11396600  0.36800100  0.47133000  1
  O  O27  1  0.13111000  0.38928600  0.01969700  1
  O  O28  1  0.11028400  0.15251600  0.24628200  1
  O  O29  1  0.13199900  0.61396600  0.22133000  1
  O  O30  1  0.14831700  0.89677200  0.51702400  1
  O  O31  1  0.15251600  0.11028400  0.75371800  1
loop_
_geom_bond_atom_site_label_1
_geom_bond_atom_site_label_2
_geom_bond_distance
_geom_bond_site_symmetry_2
Mn0 O29 1.974748 1_555
Mn0 O5 1.974748 1_555
Mn0 O8 2.021448 1_555
Mn0 O1 2.021448 1_555
Mn0 O0 2.225095 1_554
Mn0 O3 2.225095 1_555
Mn1 O3 1.933720 1_555
Mn1 O5 1.945023 1_555
Mn1 O30 1.950866 1_555
Mn1 O9 1.958717 1_555
Mn1 O2 1.966182 1_565
Mn1 O4 1.996468 1_555
Mn2 O31 1.933720 1_555
Mn2 O2 1.945023 1_555
Mn2 O7 1.950866 1_555
Mn2 O4 1.958717 1_545
Mn2 O10 1.966182 1_555
Mn2 O6 1.996468 1_555
Mn3 O16 1.933720 1_555
Mn3 O13 1.945023 1_555
Mn3 O8 1.950866 1_555
Mn3 O11 1.958717 1_565
Mn3 O5 1.966182 1_555
Mn3 O9 1.996468 1_555
Mn4 O12 1.933720 1_555
Mn4 O10 1.945023 1_554
Mn4 O17 1.950866 1_555
Mn4 O6 1.958717 1_554
Mn4 O13 1.966182 1_545
Mn4 O11 1.996468 1_555
Mn5 O10 1.974748 1_555
Mn5 O18 1.974748 1_555
Mn5 O7 2.021448 1_555
Mn5 O14 2.021448 1_555
Mn5 O15 2.225095 1_555
Mn5 O12 2.225095 1_556
Mn6 O13 1.974748 1_555
Mn6 O21 1.974748 1_554
Mn6 O24 2.021448 1_654
Mn6 O17 2.021448 1_565
Mn6 O19 2.225095 1_554
Mn6 O16 2.225095 1_555
Mn7 O19 1.933720 1_555
Mn7 O21 1.945023 1_555
Mn7 O14 1.950866 1_555
Mn7 O25 1.958717 1_655
Mn7 O18 1.966182 1_555
Mn7 O20 1.996468 1_555
Mn8 O15 1.933720 1_555
Mn8 O18 1.945023 1_555
Mn8 O23 1.950866 1_555
Mn8 O20 1.958717 1_555
Mn8 O26 1.966182 1_655
Mn8 O22 1.996468 1_555
Mn9 O0 1.933720 1_555
Mn9 O29 1.945023 1_556
Mn9 O24 1.950866 1_555
Mn9 O27 1.958717 1_556
Mn9 O21 1.966182 1_455
Mn9 O25 1.996468 1_555
Mn10 O28 1.933720 1_555
Mn10 O26 1.945023 1_555
Mn10 O1 1.950866 1_555
Mn10 O22 1.958717 1_455
Mn10 O29 1.966182 1_555
Mn10 O27 1.996468 1_555
Mn11 O2 1.974748 1_555
Mn11 O26 1.974748 1_555
Mn11 O23 2.021448 1_455
Mn11 O30 2.021448 1_545
Mn11 O31 2.225095 1_555
Mn11 O28 2.225095 1_555
O0 Sb0 1.994693 1_556
O1 Sb0 2.047113 1_555
O3 Sb1 1.994693 1_555
O4 Sb3 2.059798 1_555
O6 Sb0 2.059798 1_556
O7 Sb0 2.047113 1_556
O8 Sb1 2.047113 1_555
O9 Sb1 2.059798 1_555
O11 Sb2 2.059798 1_555
O12 Sb0 1.994693 1_555
O14 Sb1 2.047113 1_555
O15 Sb1 1.994693 1_555
O16 Sb2 1.994693 1_565
O17 Sb2 2.047113 1_555
O19 Sb3 1.994693 1_655
O20 Sb1 2.059798 1_555
O22 Sb2 2.059798 1_555
O23 Sb2 2.047113 1_555
O24 Sb3 2.047113 1_555
O25 Sb3 2.059798 1_555
O27 Sb0 2.059798 1_555
O28 Sb2 1.994693 1_455
O30 Sb3 2.047113 1_555
O31 Sb3 1.994693 1_545
