# generated using pymatgen
data_Ba2B2O5
_symmetry_space_group_name_H-M   'P 1'
_cell_length_a   4.26556646
_cell_length_b   10.72728556
_cell_length_c   13.30360528
_cell_angle_alpha   74.79795154
_cell_angle_beta   90.00000000
_cell_angle_gamma   90.00000000
_symmetry_Int_Tables_number   1
_chemical_formula_structural   Ba2B2O5
_chemical_formula_sum   'Ba8 B8 O20'
_cell_volume   587.44393318
_cell_formula_units_Z   4
loop_
 _symmetry_equiv_pos_site_id
 _symmetry_equiv_pos_as_xyz
  1  'x, y, z'
loop_
 _atom_site_type_symbol
 _atom_site_label
 _atom_site_symmetry_multiplicity
 _atom_site_fract_x
 _atom_site_fract_y
 _atom_site_fract_z
 _atom_site_occupancy
  Ba  Ba0  1  0.72283909  0.57744432  0.09041546  1
  Ba  Ba1  1  0.25292763  0.90031425  0.13883876  1
  Ba  Ba2  1  0.75292763  0.09968575  0.36116124  1
  Ba  Ba3  1  0.22283909  0.42255568  0.40958454  1
  Ba  Ba4  1  0.77716091  0.57744432  0.59041546  1
  Ba  Ba5  1  0.24707237  0.90031425  0.63883876  1
  Ba  Ba6  1  0.74707237  0.09968575  0.86116124  1
  Ba  Ba7  1  0.27716091  0.42255568  0.90958454  1
  B  B0  1  0.83575679  0.17684550  0.07094153  1
  B  B1  1  0.17611667  0.29704129  0.18426375  1
  B  B2  1  0.67611667  0.70295871  0.31573625  1
  B  B3  1  0.33575679  0.82315450  0.42905847  1
  B  B4  1  0.66424321  0.17684550  0.57094153  1
  B  B5  1  0.32388333  0.29704129  0.68426375  1
  B  B6  1  0.82388333  0.70295871  0.81573625  1
  B  B7  1  0.16424321  0.82315450  0.92905847  1
  O  O0  1  0.21957643  0.72435239  0.01466055  1
  O  O1  1  0.21602832  0.41314683  0.11421602  1
  O  O2  1  0.01416109  0.19255930  0.15784817  1
  O  O3  1  0.74340427  0.05294457  0.07895460  1
  O  O4  1  0.77007711  0.73144300  0.21439481  1
  O  O5  1  0.27007711  0.26855700  0.28560519  1
  O  O6  1  0.51416109  0.80744070  0.34215183  1
  O  O7  1  0.71602832  0.58685317  0.38578398  1
  O  O8  1  0.71957643  0.27564761  0.48533945  1
  O  O9  1  0.24340427  0.94705543  0.42104540  1
  O  O10  1  0.28042357  0.72435239  0.51466055  1
  O  O11  1  0.28397168  0.41314683  0.61421602  1
  O  O12  1  0.48583891  0.19255930  0.65784817  1
  O  O13  1  0.75659573  0.05294457  0.57895460  1
  O  O14  1  0.72992289  0.73144300  0.71439481  1
  O  O15  1  0.22992289  0.26855700  0.78560519  1
  O  O16  1  0.98583891  0.80744070  0.84215183  1
  O  O17  1  0.78397168  0.58685317  0.88578398  1
  O  O18  1  0.78042357  0.27564761  0.98533945  1
  O  O19  1  0.25659573  0.94705543  0.92104540  1
loop_
_geom_bond_atom_site_label_1
_geom_bond_atom_site_label_2
_geom_bond_distance
_geom_bond_site_symmetry_2
Ba0 O4 2.630414 1_555
Ba0 O0 2.675046 1_655
Ba0 O0 2.697147 1_555
Ba0 O1 2.709162 1_655
Ba0 O17 2.710203 1_554
Ba0 O1 2.754524 1_555
Ba1 O3 2.647361 1_565
Ba1 O3 2.712024 1_465
Ba1 O4 2.753020 1_455
Ba1 O19 2.808003 1_554
Ba1 O0 2.819187 1_555
Ba1 O6 2.852532 1_555
Ba1 O4 2.864122 1_555
Ba2 O9 2.647361 1_645
Ba2 O9 2.712024 1_545
Ba2 O5 2.753020 1_555
Ba2 O13 2.808003 1_555
Ba2 O8 2.819187 1_555
Ba2 O2 2.852532 1_655
Ba2 O5 2.864122 1_655
Ba3 O5 2.630414 1_555
Ba3 O8 2.675046 1_555
Ba3 O8 2.697147 1_455
Ba3 O7 2.709162 1_555
Ba3 O11 2.710203 1_555
Ba3 O7 2.754524 1_455
Ba4 O14 2.630414 1_555
Ba4 O10 2.675046 1_555
Ba4 O10 2.697147 1_655
Ba4 O11 2.709162 1_555
Ba4 O7 2.710203 1_555
Ba4 O11 2.754524 1_655
Ba5 O13 2.647361 1_465
Ba5 O13 2.712024 1_565
Ba5 O14 2.753020 1_555
Ba5 O9 2.808003 1_555
Ba5 O10 2.819187 1_555
Ba5 O16 2.852532 1_455
Ba5 O14 2.864122 1_455
Ba6 O19 2.647361 1_545
Ba6 O19 2.712024 1_645
Ba6 O15 2.753020 1_655
Ba6 O3 2.808003 1_556
Ba6 O18 2.819187 1_555
Ba6 O12 2.852532 1_555
Ba6 O15 2.864122 1_555
Ba7 O15 2.630414 1_555
Ba7 O18 2.675046 1_455
Ba7 O18 2.697147 1_555
Ba7 O17 2.709162 1_455
Ba7 O1 2.710203 1_556
Ba7 O17 2.754524 1_555
B0 O18 1.357550 1_554
B0 O3 1.363379 1_555
B0 O2 1.430550 1_655
B1 O1 1.356449 1_555
B1 O5 1.362209 1_555
B1 O2 1.436498 1_555
B2 O7 1.356449 1_555
B2 O4 1.362209 1_555
B2 O6 1.436498 1_555
B3 O10 1.357550 1_555
B3 O9 1.363379 1_555
B3 O6 1.430550 1_555
B4 O8 1.357550 1_555
B4 O13 1.363379 1_555
B4 O12 1.430550 1_555
B5 O11 1.356449 1_555
B5 O15 1.362209 1_555
B5 O12 1.436498 1_555
B6 O17 1.356449 1_555
B6 O14 1.362209 1_555
B6 O16 1.436498 1_555
B7 O0 1.357550 1_556
B7 O19 1.363379 1_555
B7 O16 1.430550 1_455
