# generated using pymatgen
data_CdGeO3
_symmetry_space_group_name_H-M   'P 1'
_cell_length_a   10.89885762
_cell_length_b   10.89885762
_cell_length_c   10.89885762
_cell_angle_alpha   109.12437034
_cell_angle_beta   109.12437034
_cell_angle_gamma   110.16717081
_symmetry_Int_Tables_number   1
_chemical_formula_structural   CdGeO3
_chemical_formula_sum   'Cd16 Ge16 O48'
_cell_volume   996.48994216
_cell_formula_units_Z   16
loop_
 _symmetry_equiv_pos_site_id
 _symmetry_equiv_pos_as_xyz
  1  'x, y, z'
loop_
 _atom_site_type_symbol
 _atom_site_label
 _atom_site_symmetry_multiplicity
 _atom_site_fract_x
 _atom_site_fract_y
 _atom_site_fract_z
 _atom_site_occupancy
  Cd  Cd0  1  0.12500000  0.37500000  0.25000000  1
  Cd  Cd1  1  0.12500000  0.87500000  0.25000000  1
  Cd  Cd2  1  0.62500000  0.87500000  0.75000000  1
  Cd  Cd3  1  0.12500000  0.87500000  0.75000000  1
  Cd  Cd4  1  0.49911300  0.99911300  0.50000000  1
  Cd  Cd5  1  0.24911300  0.24911300  0.00000000  1
  Cd  Cd6  1  0.75088700  0.75088700  0.00000000  1
  Cd  Cd7  1  0.00088700  0.50088700  0.50000000  1
  Cd  Cd8  1  0.24241400  0.11223200  0.61800300  1
  Cd  Cd9  1  0.87441200  0.99241400  0.63018200  1
  Cd  Cd10  1  0.36223200  0.24423000  0.36981800  1
  Cd  Cd11  1  0.49423000  0.62441200  0.38199700  1
  Cd  Cd12  1  0.00758600  0.63776800  0.88199700  1
  Cd  Cd13  1  0.37558800  0.75758600  0.86981800  1
  Cd  Cd14  1  0.88776800  0.50577000  0.13018200  1
  Cd  Cd15  1  0.75577000  0.12558800  0.11800300  1
  Ge  Ge0  1  0.73795700  0.59923500  0.60759100  1
  Ge  Ge1  1  0.38036700  0.48795700  0.63872200  1
  Ge  Ge2  1  0.84923500  0.74164400  0.36127800  1
  Ge  Ge3  1  0.99164400  0.13036700  0.39240900  1
  Ge  Ge4  1  0.51204300  0.15076500  0.89240900  1
  Ge  Ge5  1  0.86963300  0.26204300  0.86127800  1
  Ge  Ge6  1  0.40076500  0.00835600  0.13872200  1
  Ge  Ge7  1  0.25835600  0.61963300  0.10759100  1
  Ge  Ge8  1  0.50000000  0.50000000  0.00000000  1
  Ge  Ge9  1  0.75000000  0.25000000  0.50000000  1
  Ge  Ge10  1  0.00000000  0.00000000  0.00000000  1
  Ge  Ge11  1  0.25000000  0.75000000  0.50000000  1
  Ge  Ge12  1  0.62500000  0.87500000  0.25000000  1
  Ge  Ge13  1  0.62500000  0.37500000  0.25000000  1
  Ge  Ge14  1  0.12500000  0.37500000  0.75000000  1
  Ge  Ge15  1  0.62500000  0.37500000  0.75000000  1
  O  O0  1  0.94443500  0.38049300  0.64140700  1
  O  O1  1  0.55302900  0.69443500  0.06394200  1
  O  O2  1  0.63049300  0.48908600  0.93605800  1
  O  O3  1  0.73908600  0.30302900  0.35859300  1
  O  O4  1  0.30556500  0.36950700  0.85859300  1
  O  O5  1  0.69697100  0.05556500  0.43605800  1
  O  O6  1  0.61950700  0.26091400  0.56394200  1
  O  O7  1  0.51091400  0.44697100  0.14140700  1
  O  O8  1  0.22091100  0.74039500  0.64931900  1
  O  O9  1  0.82159200  0.97091100  0.98051600  1
  O  O10  1  0.99039500  0.84107600  0.01948400  1
  O  O11  1  0.09107600  0.57159200  0.35068100  1
  O  O12  1  0.02908900  0.00960500  0.85068100  1
  O  O13  1  0.42840800  0.77908900  0.51948400  1
  O  O14  1  0.25960500  0.90892400  0.48051600  1
  O  O15  1  0.15892400  0.17840800  0.14931900  1
  O  O16  1  0.70934900  0.75014800  0.61378000  1
  O  O17  1  0.34556900  0.45934900  0.45920100  1
  O  O18  1  0.00014800  0.88636800  0.54079900  1
  O  O19  1  0.71237800  0.55708600  0.74792700  1
  O  O20  1  0.13636800  0.09556900  0.38622000  1
  O  O21  1  0.90443100  0.29065100  0.04079900  1
  O  O22  1  0.24985200  0.86363200  0.95920100  1
  O  O23  1  0.11363200  0.65443100  0.11378000  1
  O  O24  1  0.58992800  0.45284700  0.41427900  1
  O  O25  1  0.42564900  0.33992800  0.63708100  1
  O  O26  1  0.70284700  0.78856800  0.36291900  1
  O  O27  1  0.03856800  0.17564900  0.58572100  1
  O  O28  1  0.66007200  0.29715300  0.08572100  1
  O  O29  1  0.82435100  0.41007200  0.86291900  1
  O  O30  1  0.54715300  0.96143200  0.13708100  1
  O  O31  1  0.21143200  0.57435100  0.91427900  1
  O  O32  1  0.27354000  0.48647100  0.16125100  1
  O  O33  1  0.36228900  0.02354000  0.28707000  1
  O  O34  1  0.73647100  0.07522000  0.71293000  1
  O  O35  1  0.32522000  0.11228900  0.83874900  1
  O  O36  1  0.97646000  0.26352900  0.33874900  1
  O  O37  1  0.88771100  0.72646000  0.21293000  1
  O  O38  1  0.51352900  0.67478000  0.78707000  1
  O  O39  1  0.92478000  0.63771100  0.66125100  1
  O  O40  1  0.44084100  0.78554900  0.24792700  1
  O  O41  1  0.44291400  0.19084100  0.15529200  1
  O  O42  1  0.03554900  0.28762200  0.84470800  1
  O  O43  1  0.53762200  0.19291400  0.75207300  1
  O  O44  1  0.80915900  0.96445100  0.25207300  1
  O  O45  1  0.80708600  0.55915900  0.34470800  1
  O  O46  1  0.21445100  0.46237800  0.65529200  1
  O  O47  1  0.54065100  0.99985200  0.88622000  1
loop_
_geom_bond_atom_site_label_1
_geom_bond_atom_site_label_2
_geom_bond_distance
_geom_bond_site_symmetry_2
Cd0 O15 2.281046 1_555
Cd0 O11 2.281046 1_555
Cd0 O21 2.309554 1_455
Cd0 O17 2.309554 1_555
Cd0 O32 2.339307 1_555
Cd0 O36 2.339307 1_455
Cd1 O14 2.281046 1_555
Cd1 O10 2.281046 1_455
Cd1 O23 2.309554 1_555
Cd1 O20 2.309554 1_565
Cd1 O37 2.339303 1_455
Cd1 O33 2.339303 1_565
Cd2 O9 2.281046 1_555
Cd2 O13 2.281046 1_555
Cd2 O47 2.309554 1_555
Cd2 O16 2.309554 1_555
Cd2 O38 2.339314 1_555
Cd2 O34 2.339314 1_565
Cd3 O8 2.281046 1_555
Cd3 O12 2.281046 1_565
Cd3 O22 2.309554 1_555
Cd3 O18 2.309554 1_555
Cd3 O39 2.339307 1_455
Cd3 O35 2.339307 1_565
Cd4 O13 2.357136 1_555
Cd4 O14 2.357136 1_555
Cd4 O5 2.421816 1_565
Cd4 O6 2.421826 1_565
Cd4 O33 2.468045 1_565
Cd4 O34 2.468048 1_565
Cd4 O43 2.648812 1_565
Cd4 O40 2.648812 1_555
Cd5 O12 2.357136 1_554
Cd5 O15 2.357136 1_555
Cd5 O7 2.421823 1_555
Cd5 O4 2.421826 1_554
Cd5 O32 2.468053 1_555
Cd5 O35 2.468053 1_554
Cd5 O41 2.648812 1_555
Cd5 O42 2.648812 1_554
Cd6 O9 2.357136 1_554
Cd6 O10 2.357136 1_555
Cd6 O1 2.421816 1_555
Cd6 O2 2.421826 1_554
Cd6 O37 2.468045 1_555
Cd6 O38 2.468048 1_554
Cd6 O44 2.648812 1_555
Cd6 O19 2.648812 1_554
Cd7 O11 2.357136 1_555
Cd7 O8 2.357136 1_555
Cd7 O3 2.421823 1_455
Cd7 O0 2.421826 1_455
Cd7 O36 2.468053 1_455
Cd7 O39 2.468053 1_455
Cd7 O46 2.648812 1_555
Cd7 O45 2.648812 1_455
Cd8 O35 2.275669 1_555
Cd8 O20 2.322048 1_555
Cd8 O14 2.342001 1_545
Cd8 O25 2.482440 1_555
Cd8 O27 2.498675 1_555
Cd8 O18 2.538673 1_545
Cd8 O43 2.717904 1_555
Cd8 O4 2.807297 1_555
Cd9 O34 2.275673 1_565
Cd9 O18 2.322038 1_655
Cd9 O12 2.341997 1_665
Cd9 O27 2.482435 1_665
Cd9 O26 2.498675 1_555
Cd9 O16 2.538676 1_555
Cd9 O42 2.717904 1_665
Cd9 O5 2.807308 1_565
Cd10 O33 2.275678 1_555
Cd10 O17 2.322038 1_555
Cd10 O15 2.341997 1_555
Cd10 O24 2.482435 1_555
Cd10 O25 2.498675 1_555
Cd10 O20 2.538676 1_555
Cd10 O41 2.717904 1_555
Cd10 O6 2.807302 1_555
Cd11 O32 2.275673 1_555
Cd11 O16 2.322044 1_555
Cd11 O13 2.342003 1_555
Cd11 O26 2.482428 1_555
Cd11 O24 2.498678 1_555
Cd11 O17 2.538685 1_555
Cd11 O40 2.717897 1_555
Cd11 O7 2.807299 1_555
Cd12 O39 2.275669 1_455
Cd12 O23 2.322048 1_556
Cd12 O10 2.342001 1_456
Cd12 O29 2.482440 1_455
Cd12 O31 2.498675 1_555
Cd12 O22 2.538673 1_555
Cd12 O19 2.717904 1_455
Cd12 O0 2.807297 1_455
Cd13 O38 2.275673 1_555
Cd13 O22 2.322038 1_555
Cd13 O8 2.341997 1_555
Cd13 O31 2.482435 1_555
Cd13 O30 2.498675 1_556
Cd13 O47 2.538676 1_555
Cd13 O46 2.717904 1_555
Cd13 O1 2.807308 1_556
Cd14 O37 2.275678 1_555
Cd14 O21 2.322038 1_555
Cd14 O11 2.341997 1_655
Cd14 O28 2.482435 1_555
Cd14 O29 2.498675 1_554
Cd14 O23 2.538676 1_655
Cd14 O45 2.717904 1_555
Cd14 O2 2.807302 1_554
Cd15 O36 2.275673 1_555
Cd15 O47 2.322044 1_544
Cd15 O9 2.342003 1_544
Cd15 O30 2.482428 1_545
Cd15 O28 2.498678 1_555
Cd15 O21 2.538685 1_555
Cd15 O44 2.717897 1_545
Cd15 O3 2.807299 1_555
Ge0 O16 1.761181 1_555
Ge0 O39 1.770340 1_555
Ge0 O19 1.810965 1_555
Ge0 O24 1.839207 1_555
Ge1 O17 1.761179 1_555
Ge1 O38 1.770342 1_555
Ge1 O46 1.810975 1_555
Ge1 O25 1.839201 1_555
Ge2 O18 1.761181 1_655
Ge2 O37 1.770351 1_555
Ge2 O45 1.810965 1_555
Ge2 O26 1.839207 1_555
Ge3 O20 1.761187 1_655
Ge3 O36 1.770330 1_555
Ge3 O44 1.810968 1_545
Ge3 O27 1.839210 1_655
Ge4 O47 1.761181 1_545
Ge4 O35 1.770340 1_555
Ge4 O43 1.810965 1_555
Ge4 O28 1.839207 1_556
Ge5 O21 1.761179 1_556
Ge5 O34 1.770342 1_555
Ge5 O42 1.810975 1_655
Ge5 O29 1.839201 1_555
Ge6 O22 1.761181 1_544
Ge6 O33 1.770351 1_555
Ge6 O41 1.810965 1_555
Ge6 O30 1.839207 1_545
Ge7 O23 1.761187 1_555
Ge7 O32 1.770330 1_555
Ge7 O40 1.810968 1_555
Ge7 O31 1.839210 1_554
Ge8 O1 1.798414 1_555
Ge8 O2 1.798416 1_554
Ge8 O4 1.798416 1_554
Ge8 O7 1.798423 1_555
Ge9 O5 1.798414 1_555
Ge9 O6 1.798416 1_555
Ge9 O0 1.798416 1_555
Ge9 O3 1.798423 1_555
Ge10 O10 1.785143 1_445
Ge10 O12 1.785143 1_554
Ge10 O15 1.785143 1_555
Ge10 O9 1.785143 1_444
Ge11 O14 1.785143 1_555
Ge11 O8 1.785143 1_555
Ge11 O11 1.785143 1_555
Ge11 O13 1.785143 1_555
Ge12 O44 1.893707 1_555
Ge12 O40 1.893707 1_555
Ge12 O26 1.936073 1_555
Ge12 O30 1.936073 1_555
Ge12 O1 1.969444 1_555
Ge12 O5 1.969444 1_565
Ge13 O45 1.893707 1_555
Ge13 O41 1.893707 1_555
Ge13 O24 1.936073 1_555
Ge13 O28 1.936073 1_555
Ge13 O7 1.969432 1_555
Ge13 O3 1.969432 1_555
Ge14 O42 1.893707 1_555
Ge14 O46 1.893707 1_555
Ge14 O31 1.936073 1_555
Ge14 O27 1.936073 1_555
Ge14 O0 1.969441 1_455
Ge14 O4 1.969441 1_555
Ge15 O43 1.893707 1_555
Ge15 O19 1.893707 1_555
Ge15 O29 1.936073 1_555
Ge15 O25 1.936073 1_555
Ge15 O6 1.969441 1_555
Ge15 O2 1.969441 1_555
