# generated using pymatgen
data_Mn8O13F3
_symmetry_space_group_name_H-M   'P 1'
_cell_length_a   4.49561100
_cell_length_b   4.97141401
_cell_length_c   11.05410150
_cell_angle_alpha   89.55388368
_cell_angle_beta   87.76097085
_cell_angle_gamma   89.41852835
_symmetry_Int_Tables_number   1
_chemical_formula_structural   Mn8O13F3
_chemical_formula_sum   'Mn8 O13 F3'
_cell_volume   246.84604155
_cell_formula_units_Z   1
loop_
 _symmetry_equiv_pos_site_id
 _symmetry_equiv_pos_as_xyz
  1  'x, y, z'
loop_
 _atom_site_type_symbol
 _atom_site_label
 _atom_site_symmetry_multiplicity
 _atom_site_fract_x
 _atom_site_fract_y
 _atom_site_fract_z
 _atom_site_occupancy
  Mn  Mn0  1  0.01768900  0.24689200  0.43344500  1
  Mn  Mn1  1  0.01196800  0.74414000  0.08352400  1
  Mn  Mn2  1  0.98173400  0.75144900  0.56540900  1
  Mn  Mn3  1  0.00951400  0.26548000  0.92600000  1
  Mn  Mn4  1  0.49739700  0.74622300  0.82652600  1
  Mn  Mn5  1  0.51051400  0.23518200  0.67768200  1
  Mn  Mn6  1  0.49120100  0.24462700  0.16743200  1
  Mn  Mn7  1  0.49358800  0.76294300  0.32476900  1
  O  O0  1  0.22828600  0.07739600  0.05437000  1
  O  O1  1  0.23304700  0.57950400  0.44393500  1
  O  O2  1  0.22842600  0.07036500  0.55575000  1
  O  O3  1  0.22618400  0.58265000  0.94420700  1
  O  O4  1  0.27613700  0.57837400  0.19514400  1
  O  O5  1  0.26907600  0.08620900  0.30725600  1
  O  O6  1  0.26366200  0.07901900  0.80554100  1
  O  O7  1  0.73263400  0.92336800  0.19467800  1
  O  O8  1  0.73025600  0.91256700  0.69221800  1
  O  O9  1  0.72522100  0.41606300  0.80482300  1
  O  O10  1  0.77379800  0.92813300  0.44382200  1
  O  O11  1  0.77027400  0.42745200  0.05642100  1
  O  O12  1  0.76224600  0.41955400  0.55440900  1
  F  F0  1  0.24810500  0.56742300  0.68379700  1
  F  F1  1  0.74558400  0.42147800  0.31141200  1
  F  F2  1  0.77346200  0.93350500  0.94743200  1
loop_
_geom_bond_atom_site_label_1
_geom_bond_atom_site_label_2
_geom_bond_distance
_geom_bond_site_symmetry_2
Mn0 O2 1.886868 1_555
Mn0 O12 1.929097 1_455
Mn0 O1 1.931134 1_555
Mn0 O5 1.933117 1_555
Mn0 O10 1.936276 1_445
Mn1 O4 1.921127 1_555
Mn1 O7 1.937623 1_455
Mn1 O0 1.947899 1_565
Mn1 O11 1.953606 1_455
Mn1 O3 1.957377 1_554
Mn2 O10 1.874816 1_555
Mn2 O1 1.920928 1_655
Mn2 O12 1.938151 1_555
Mn2 O8 1.939051 1_555
Mn2 O2 1.943925 1_665
Mn3 O3 1.878027 1_555
Mn3 O11 1.939836 1_456
Mn3 O6 1.953617 1_555
Mn3 O0 1.981144 1_556
Mn3 O9 2.021604 1_455
Mn4 O3 1.928689 1_555
Mn4 O9 1.937379 1_555
Mn4 O8 1.964933 1_555
Mn4 O6 1.967993 1_565
Mn5 O8 1.884221 1_545
Mn5 O6 1.926062 1_555
Mn5 O9 1.964392 1_555
Mn5 O12 1.964393 1_555
Mn5 O2 2.065948 1_555
Mn6 O4 1.932295 1_555
Mn6 O11 1.947164 1_555
Mn6 O0 1.949813 1_555
Mn6 O7 1.949977 1_545
Mn6 O5 1.970483 1_555
Mn7 O5 1.901693 1_565
Mn7 O7 1.933313 1_555
Mn7 O1 1.954789 1_555
Mn7 O4 1.999721 1_555
Mn7 O10 2.039750 1_555
F0 Mn2 2.016231 1_455
F0 Mn5 2.019983 1_555
F0 Mn4 2.171549 1_555
F1 Mn7 2.034387 1_555
F1 Mn0 2.039263 1_655
F1 Mn6 2.190511 1_555
F2 Mn3 1.978852 1_665
F2 Mn4 2.089458 1_555
F2 Mn1 2.093460 1_656
