# generated using pymatgen
data_Na6CoO4
_symmetry_space_group_name_H-M   'P 1'
_cell_length_a   9.26945299
_cell_length_b   9.26945179
_cell_length_c   9.26944088
_cell_angle_alpha   107.58647287
_cell_angle_beta   69.57853648
_cell_angle_gamma   69.57812243
_symmetry_Int_Tables_number   1
_chemical_formula_structural   Na6CoO4
_chemical_formula_sum   'Na24 Co4 O16'
_cell_volume   612.61742157
_cell_formula_units_Z   4
loop_
 _symmetry_equiv_pos_site_id
 _symmetry_equiv_pos_as_xyz
  1  'x, y, z'
loop_
 _atom_site_type_symbol
 _atom_site_label
 _atom_site_symmetry_multiplicity
 _atom_site_fract_x
 _atom_site_fract_y
 _atom_site_fract_z
 _atom_site_occupancy
  Na  Na0  1  0.25002200  0.33065600  0.08064700  1
  Na  Na1  1  0.25002200  0.83065600  0.58064700  1
  Na  Na2  1  0.25001000  0.08066000  0.83065900  1
  Na  Na3  1  0.25001000  0.58066000  0.33065900  1
  Na  Na4  1  0.75000000  0.16934300  0.41933400  1
  Na  Na5  1  0.75000000  0.66934300  0.91933400  1
  Na  Na6  1  0.75000400  0.41934200  0.66933500  1
  Na  Na7  1  0.75000400  0.91934200  0.16933500  1
  Na  Na8  1  0.03725300  0.62500300  0.08774400  1
  Na  Na9  1  0.03725300  0.12500300  0.58774400  1
  Na  Na10  1  0.03725900  0.83775200  0.87499000  1
  Na  Na11  1  0.03725900  0.33775200  0.37499000  1
  Na  Na12  1  0.46276200  0.41224600  0.87499100  1
  Na  Na13  1  0.46276200  0.91224600  0.37499100  1
  Na  Na14  1  0.46277800  0.62499800  0.66222100  1
  Na  Na15  1  0.46277800  0.12499800  0.16222100  1
  Na  Na16  1  0.53725300  0.87499500  0.83774700  1
  Na  Na17  1  0.53725300  0.37499500  0.33774700  1
  Na  Na18  1  0.53724700  0.08775300  0.62499400  1
  Na  Na19  1  0.53724700  0.58775300  0.12499400  1
  Na  Na20  1  0.96275900  0.66224900  0.62499300  1
  Na  Na21  1  0.96275900  0.16224900  0.12499300  1
  Na  Na22  1  0.96275400  0.87500400  0.41224600  1
  Na  Na23  1  0.96275400  0.37500400  0.91224600  1
  Co  Co0  1  0.25000000  0.87500000  0.12499700  1
  Co  Co1  1  0.75002300  0.62499600  0.37498200  1
  Co  Co2  1  0.25000000  0.37500000  0.62499700  1
  Co  Co3  1  0.75002300  0.12499600  0.87498200  1
  O  O0  1  0.99475100  0.09246700  0.84245600  1
  O  O1  1  0.99475100  0.59246700  0.34245600  1
  O  O2  1  0.25000900  0.58720400  0.59245200  1
  O  O3  1  0.25000900  0.08720400  0.09245200  1
  O  O4  1  0.25000200  0.34246000  0.83720100  1
  O  O5  1  0.25000200  0.84246000  0.33720100  1
  O  O6  1  0.50527500  0.33720600  0.08719700  1
  O  O7  1  0.50527500  0.83720600  0.58719700  1
  O  O8  1  0.49475000  0.16279400  0.41278800  1
  O  O9  1  0.49475000  0.66279400  0.91278800  1
  O  O10  1  0.75000900  0.91279300  0.90752000  1
  O  O11  1  0.75000900  0.41279300  0.40752000  1
  O  O12  1  0.75000300  0.15753600  0.66278700  1
  O  O13  1  0.75000300  0.65753600  0.16278700  1
  O  O14  1  0.00525700  0.40754400  0.65753700  1
  O  O15  1  0.00525700  0.90754400  0.15753700  1
loop_
_geom_bond_atom_site_label_1
_geom_bond_atom_site_label_2
_geom_bond_distance
_geom_bond_site_symmetry_2
Na0 O4 2.292103 1_554
Na0 O3 2.292143 1_555
Na0 O6 2.409121 1_555
Na0 O1 2.409218 1_455
Na1 O5 2.292103 1_555
Na1 O2 2.292143 1_555
Na1 O7 2.409121 1_555
Na1 O0 2.409218 1_465
Na2 O0 2.292141 1_455
Na2 O7 2.292170 1_545
Na2 O3 2.409038 1_556
Na2 O4 2.409087 1_555
Na3 O1 2.292141 1_455
Na3 O6 2.292170 1_555
Na3 O2 2.409038 1_555
Na3 O5 2.409087 1_555
Na4 O12 2.292126 1_555
Na4 O11 2.292141 1_555
Na4 O8 2.409077 1_555
Na4 O15 2.409102 1_645
Na5 O13 2.292126 1_556
Na5 O10 2.292141 1_555
Na5 O9 2.409077 1_555
Na5 O14 2.409102 1_655
Na6 O9 2.292101 1_555
Na6 O14 2.292110 1_655
Na6 O12 2.409157 1_555
Na6 O11 2.409215 1_555
Na7 O8 2.292101 1_565
Na7 O15 2.292110 1_655
Na7 O13 2.409157 1_555
Na7 O10 2.409215 1_554
Na8 O15 2.380298 1_555
Na8 O4 2.380305 1_554
Na8 O1 2.384274 1_455
Na8 O13 2.384299 1_455
Na9 O14 2.380298 1_555
Na9 O5 2.380305 1_545
Na9 O0 2.384274 1_455
Na9 O12 2.384299 1_455
Na10 O2 2.380300 1_555
Na10 O15 2.380332 1_556
Na10 O0 2.384284 1_465
Na10 O10 2.384308 1_455
Na11 O3 2.380300 1_555
Na11 O14 2.380332 1_555
Na11 O1 2.384284 1_455
Na11 O11 2.384308 1_455
Na12 O9 2.380288 1_555
Na12 O4 2.380351 1_555
Na12 O12 2.384232 1_555
Na12 O6 2.384279 1_556
Na13 O8 2.380288 1_565
Na13 O5 2.380351 1_555
Na13 O13 2.384232 1_555
Na13 O7 2.384279 1_555
Na14 O2 2.380362 1_555
Na14 O9 2.380380 1_555
Na14 O11 2.384162 1_555
Na14 O7 2.384178 1_555
Na15 O3 2.380362 1_555
Na15 O8 2.380380 1_555
Na15 O10 2.384162 1_544
Na15 O6 2.384178 1_555
Na16 O7 2.380262 1_555
Na16 O10 2.380277 1_555
Na16 O9 2.384211 1_555
Na16 O3 2.384238 1_566
Na17 O6 2.380262 1_555
Na17 O11 2.380277 1_555
Na17 O8 2.384211 1_555
Na17 O2 2.384238 1_555
Na18 O7 2.380202 1_545
Na18 O12 2.380310 1_555
Na18 O8 2.384232 1_555
Na18 O4 2.384244 1_555
Na19 O6 2.380202 1_555
Na19 O13 2.380310 1_555
Na19 O9 2.384232 1_554
Na19 O5 2.384244 1_555
Na20 O10 2.380234 1_555
Na20 O1 2.380284 1_555
Na20 O14 2.384251 1_655
Na20 O2 2.384268 1_655
Na21 O11 2.380234 1_555
Na21 O0 2.380284 1_554
Na21 O15 2.384251 1_645
Na21 O3 2.384268 1_655
Na22 O12 2.380248 1_565
Na22 O1 2.380262 1_555
Na22 O5 2.384243 1_655
Na22 O15 2.384263 1_655
Na23 O13 2.380248 1_556
Na23 O0 2.380262 1_555
Na23 O4 2.384243 1_655
Na23 O14 2.384263 1_655
Co0 O15 2.078119 1_555
Co0 O5 2.078140 1_555
Co0 O3 2.078181 1_565
Co0 O9 2.078184 1_554
Co1 O1 2.078057 1_555
Co1 O13 2.078104 1_555
Co1 O11 2.078156 1_555
Co1 O7 2.078202 1_555
Co2 O14 2.078119 1_555
Co2 O4 2.078140 1_555
Co2 O2 2.078181 1_555
Co2 O8 2.078184 1_555
Co3 O0 2.078057 1_555
Co3 O12 2.078104 1_555
Co3 O10 2.078156 1_545
Co3 O6 2.078202 1_556
