# generated using pymatgen
data_CaGd2O4
_symmetry_space_group_name_H-M   'P 1'
_cell_length_a   5.87161110
_cell_length_b   5.87161110
_cell_length_c   11.06238300
_cell_angle_alpha   90.00000000
_cell_angle_beta   90.00000000
_cell_angle_gamma   146.64069234
_symmetry_Int_Tables_number   1
_chemical_formula_structural   CaGd2O4
_chemical_formula_sum   'Ca2 Gd4 O8'
_cell_volume   209.71874269
_cell_formula_units_Z   2
loop_
 _symmetry_equiv_pos_site_id
 _symmetry_equiv_pos_as_xyz
  1  'x, y, z'
loop_
 _atom_site_type_symbol
 _atom_site_label
 _atom_site_symmetry_multiplicity
 _atom_site_fract_x
 _atom_site_fract_y
 _atom_site_fract_z
 _atom_site_occupancy
  Ca  Ca0  1  0.88903500  0.11096500  0.25000000  1
  Ca  Ca1  1  0.11096500  0.88903500  0.75000000  1
  Gd  Gd0  1  0.63214700  0.36785300  0.42512000  1
  Gd  Gd1  1  0.63214700  0.36785300  0.07488000  1
  Gd  Gd2  1  0.36785300  0.63214700  0.57488000  1
  Gd  Gd3  1  0.36785300  0.63214700  0.92512000  1
  O  O0  1  0.00000000  0.00000000  0.00000000  1
  O  O1  1  0.00000000  0.00000000  0.50000000  1
  O  O2  1  0.73326200  0.26673800  0.61396800  1
  O  O3  1  0.52878300  0.47121700  0.25000000  1
  O  O4  1  0.47121700  0.52878300  0.75000000  1
  O  O5  1  0.26673800  0.73326200  0.38603200  1
  O  O6  1  0.73326200  0.26673800  0.88603200  1
  O  O7  1  0.26673800  0.73326200  0.11396800  1
loop_
_geom_bond_atom_site_label_1
_geom_bond_atom_site_label_2
_geom_bond_distance
_geom_bond_site_symmetry_2
Ca0 O3 2.304660 1_545
Ca0 O3 2.304660 1_655
Ca0 O7 2.645245 1_655
Ca0 O5 2.645245 1_655
Ca0 O5 2.645245 1_545
Ca0 O7 2.645245 1_545
Ca0 O1 3.034249 1_655
Ca0 O0 3.034249 1_655
Ca1 O4 2.304660 1_565
Ca1 O4 2.304660 1_455
Ca1 O6 2.645245 1_565
Ca1 O2 2.645245 1_565
Ca1 O6 2.645245 1_455
Ca1 O2 2.645245 1_455
Ca1 O1 3.034249 1_565
Ca1 O0 3.034249 1_566
Gd0 O3 2.259406 1_555
Gd0 O5 2.306383 1_655
Gd0 O5 2.306383 1_545
Gd0 O2 2.378693 1_555
Gd0 O1 2.395016 1_555
Gd0 O1 2.395016 1_665
Gd1 O3 2.259406 1_555
Gd1 O7 2.306383 1_655
Gd1 O7 2.306383 1_545
Gd1 O6 2.378693 1_554
Gd1 O0 2.395016 1_555
Gd1 O0 2.395016 1_665
Gd2 O4 2.259406 1_555
Gd2 O2 2.306383 1_565
Gd2 O2 2.306383 1_455
Gd2 O5 2.378693 1_555
Gd2 O1 2.395016 1_555
Gd2 O1 2.395016 1_665
Gd3 O4 2.259406 1_555
Gd3 O6 2.306383 1_565
Gd3 O6 2.306383 1_455
Gd3 O7 2.378693 1_556
Gd3 O0 2.395016 1_556
Gd3 O0 2.395016 1_666
