# generated using pymatgen
data_BaY2Br8
_symmetry_space_group_name_H-M   'P 1'
_cell_length_a   10.37257490
_cell_length_b   10.37257490
_cell_length_c   11.10699797
_cell_angle_alpha   65.79951444
_cell_angle_beta   65.79951444
_cell_angle_gamma   68.77851776
_symmetry_Int_Tables_number   1
_chemical_formula_structural   BaY2Br8
_chemical_formula_sum   'Ba2 Y4 Br16'
_cell_volume   966.80503423
_cell_formula_units_Z   2
loop_
 _symmetry_equiv_pos_site_id
 _symmetry_equiv_pos_as_xyz
  1  'x, y, z'
loop_
 _atom_site_type_symbol
 _atom_site_label
 _atom_site_symmetry_multiplicity
 _atom_site_fract_x
 _atom_site_fract_y
 _atom_site_fract_z
 _atom_site_occupancy
  Ba  Ba0  1  0.97196600  0.02803400  0.25000000  1
  Ba  Ba1  1  0.02803400  0.97196600  0.75000000  1
  Y  Y0  1  0.49193300  0.93958400  0.22961600  1
  Y  Y1  1  0.93958400  0.49193300  0.72961600  1
  Y  Y2  1  0.06041600  0.50806700  0.27038400  1
  Y  Y3  1  0.50806700  0.06041600  0.77038400  1
  Br  Br0  1  0.59779100  0.66318600  0.32896200  1
  Br  Br1  1  0.21163500  0.97899000  0.41502700  1
  Br  Br2  1  0.93694700  0.36770900  0.20461500  1
  Br  Br3  1  0.32393500  0.97985400  0.05563700  1
  Br  Br4  1  0.66318600  0.59779100  0.82896200  1
  Br  Br5  1  0.97899000  0.21163500  0.91502700  1
  Br  Br6  1  0.36770900  0.93694700  0.70461500  1
  Br  Br7  1  0.97985400  0.32393500  0.55563700  1
  Br  Br8  1  0.02014600  0.67606500  0.44436300  1
  Br  Br9  1  0.63229100  0.06305300  0.29538500  1
  Br  Br10  1  0.02101000  0.78836500  0.08497300  1
  Br  Br11  1  0.33681400  0.40220900  0.17103800  1
  Br  Br12  1  0.67606500  0.02014600  0.94436300  1
  Br  Br13  1  0.06305300  0.63229100  0.79538500  1
  Br  Br14  1  0.78836500  0.02101000  0.58497300  1
  Br  Br15  1  0.40220900  0.33681400  0.67103800  1
loop_
_geom_bond_atom_site_label_1
_geom_bond_atom_site_label_2
_geom_bond_distance
_geom_bond_site_symmetry_2
Ba0 Br9 3.250724 1_555
Ba0 Br2 3.250724 1_555
Ba0 Br8 3.367594 1_645
Ba0 Br3 3.367594 1_645
Ba0 Br5 3.397598 1_554
Ba0 Br14 3.397598 1_555
Ba0 Br1 3.443032 1_645
Ba0 Br10 3.443032 1_645
Ba1 Br13 3.250724 1_555
Ba1 Br6 3.250724 1_555
Ba1 Br12 3.367594 1_465
Ba1 Br7 3.367594 1_465
Ba1 Br1 3.397598 1_555
Ba1 Br10 3.397598 1_556
Ba1 Br14 3.443032 1_465
Ba1 Br5 3.443032 1_465
Br0 Y0 2.600654 1_555
Br1 Y0 2.789627 1_555
Br2 Y2 2.698542 1_655
Br3 Y3 2.899635 1_564
Br3 Y0 2.918419 1_555
Br4 Y1 2.600654 1_555
Br5 Y1 2.789627 1_555
Br6 Y3 2.698542 1_565
Br7 Y2 2.899635 1_655
Br7 Y1 2.918419 1_555
Br8 Y1 2.899635 1_455
Br8 Y2 2.918419 1_555
Br9 Y0 2.698542 1_545
Br10 Y2 2.789627 1_555
Br11 Y2 2.600654 1_555
Br12 Y0 2.899635 1_546
Br12 Y3 2.918419 1_555
Br13 Y1 2.698542 1_455
Br14 Y3 2.789627 1_555
Br15 Y3 2.600654 1_555
