# generated using pymatgen
data_Li3Fe2Ni5O12
_symmetry_space_group_name_H-M   'P 1'
_cell_length_a   5.06848360
_cell_length_b   5.01039872
_cell_length_c   28.80463502
_cell_angle_alpha   88.99730409
_cell_angle_beta   89.60333754
_cell_angle_gamma   60.52392560
_symmetry_Int_Tables_number   1
_chemical_formula_structural   Li3Fe2Ni5O12
_chemical_formula_sum   'Li9 Fe6 Ni15 O36'
_cell_volume   636.71446581
_cell_formula_units_Z   3
loop_
 _symmetry_equiv_pos_site_id
 _symmetry_equiv_pos_as_xyz
  1  'x, y, z'
loop_
 _atom_site_type_symbol
 _atom_site_label
 _atom_site_symmetry_multiplicity
 _atom_site_fract_x
 _atom_site_fract_y
 _atom_site_fract_z
 _atom_site_occupancy
  Li  Li0  1  0.16756200  0.16824400  0.99996700  1
  Li  Li1  1  0.15486700  0.17784500  0.49974300  1
  Li  Li2  1  0.16649900  0.49854000  0.33399600  1
  Li  Li3  1  0.16376300  0.50349000  0.83241300  1
  Li  Li4  1  0.16770700  0.83200000  0.16588400  1
  Li  Li5  1  0.83610100  0.16593000  0.08319000  1
  Li  Li6  1  0.83514000  0.49787500  0.41690800  1
  Li  Li7  1  0.83884500  0.50063400  0.66733800  1
  Li  Li8  1  0.83471300  0.83974400  0.75018700  1
  Fe  Fe0  1  0.51859600  0.15728500  0.41691000  1
  Fe  Fe1  1  0.50385400  0.16148100  0.91713500  1
  Fe  Fe2  1  0.50301200  0.50268200  0.24942800  1
  Fe  Fe3  1  0.50383200  0.50678100  0.74931900  1
  Fe  Fe4  1  0.51974500  0.82381400  0.08303400  1
  Fe  Fe5  1  0.50476900  0.82353700  0.58369200  1
  Ni  Ni0  1  0.16547800  0.16713200  0.25006300  1
  Ni  Ni1  1  0.16363900  0.16440700  0.74983900  1
  Ni  Ni2  1  0.16498500  0.50110100  0.08300100  1
  Ni  Ni3  1  0.16618500  0.50141900  0.58350400  1
  Ni  Ni4  1  0.16354000  0.83465000  0.41719100  1
  Ni  Ni5  1  0.50183200  0.16508500  0.16551100  1
  Ni  Ni6  1  0.16316900  0.83777600  0.91672300  1
  Ni  Ni7  1  0.51231500  0.15565200  0.66739100  1
  Ni  Ni8  1  0.50100000  0.50193500  0.00064600  1
  Ni  Ni9  1  0.50692600  0.49946800  0.49970800  1
  Ni  Ni10  1  0.50788800  0.82701700  0.33445500  1
  Ni  Ni11  1  0.83934700  0.15781800  0.58329500  1
  Ni  Ni12  1  0.50567500  0.83231500  0.83236300  1
  Ni  Ni13  1  0.82701200  0.50439300  0.91681100  1
  Ni  Ni14  1  0.82631600  0.83746200  0.25018000  1
  O  O0  1  0.18490200  0.18183100  0.62091300  1
  O  O1  1  0.20605300  0.15687300  0.11876300  1
  O  O2  1  0.20367100  0.16281500  0.87729500  1
  O  O3  1  0.20408500  0.13652300  0.38074700  1
  O  O4  1  0.18167100  0.51182200  0.21312800  1
  O  O5  1  0.17871500  0.47602200  0.95318600  1
  O  O6  1  0.20978000  0.49023700  0.45356500  1
  O  O7  1  0.20209900  0.45985600  0.71281600  1
  O  O8  1  0.45458600  0.20689700  0.04495600  1
  O  O9  1  0.50652600  0.14896000  0.28916300  1
  O  O10  1  0.20229000  0.79865500  0.28837300  1
  O  O11  1  0.46756200  0.19443200  0.54482100  1
  O  O12  1  0.18875400  0.81003600  0.54654300  1
  O  O13  1  0.20562000  0.80388200  0.04700700  1
  O  O14  1  0.45706500  0.18019500  0.78769200  1
  O  O15  1  0.19761700  0.82113500  0.78665000  1
  O  O16  1  0.45562900  0.53602700  0.37927200  1
  O  O17  1  0.45562700  0.50547500  0.12112700  1
  O  O18  1  0.50462200  0.48354000  0.62263000  1
  O  O19  1  0.50718700  0.51242500  0.87838600  1
  O  O20  1  0.83220800  0.15311900  0.45322600  1
  O  O21  1  0.49252000  0.84493200  0.20983300  1
  O  O22  1  0.81058400  0.16041700  0.21379000  1
  O  O23  1  0.49700700  0.83840100  0.71071200  1
  O  O24  1  0.45587600  0.84151000  0.45540700  1
  O  O25  1  0.81636600  0.20190400  0.71348800  1
  O  O26  1  0.81158100  0.19763100  0.95342900  1
  O  O27  1  0.49183500  0.83400500  0.95669400  1
  O  O28  1  0.82942500  0.51700000  0.04713500  1
  O  O29  1  0.82009700  0.52697300  0.28705300  1
  O  O30  1  0.80660600  0.50579500  0.78765200  1
  O  O31  1  0.82237500  0.50155900  0.54312600  1
  O  O32  1  0.83174200  0.81949500  0.11881500  1
  O  O33  1  0.83180200  0.84637200  0.38122200  1
  O  O34  1  0.82468000  0.81843700  0.62129800  1
  O  O35  1  0.82008700  0.82021900  0.87966800  1
loop_
_geom_bond_atom_site_label_1
_geom_bond_atom_site_label_2
_geom_bond_distance
_geom_bond_site_symmetry_2
Li0 O8 2.036019 1_556
Li0 O5 2.051591 1_555
Li0 O27 2.096540 1_545
Li0 O13 2.185509 1_546
Li0 O26 2.199823 1_455
Li0 O28 2.222670 1_456
Li1 O24 2.077632 1_545
Li1 O11 2.089656 1_555
Li1 O31 2.093825 1_455
Li1 O6 2.155770 1_555
Li1 O20 2.172726 1_455
Li1 O12 2.201746 1_545
Li2 O16 2.046843 1_555
Li2 O10 2.053533 1_555
Li2 O29 2.170542 1_455
Li2 O3 2.172050 1_555
Li2 O9 2.187102 1_555
Li2 O33 2.215191 1_455
Li3 O14 2.042043 1_555
Li3 O2 2.052424 1_555
Li3 O15 2.119484 1_555
Li3 O35 2.174342 1_455
Li3 O19 2.212714 1_555
Li3 O30 2.225016 1_455
Li4 O17 2.041186 1_555
Li4 O4 2.060005 1_555
Li4 O21 2.110410 1_555
Li4 O1 2.181732 1_565
Li4 O32 2.209459 1_455
Li4 O22 2.236494 1_465
Li5 O32 2.010351 1_545
Li5 O28 2.012906 1_555
Li5 O1 2.123493 1_655
Li5 O13 2.140157 1_645
Li5 O17 2.148131 1_555
Li5 O8 2.150628 1_555
Li6 O33 2.003536 1_555
Li6 O20 2.010024 1_555
Li6 O3 2.137037 1_655
Li6 O16 2.138126 1_555
Li6 O24 2.160916 1_555
Li6 O6 2.162605 1_655
Li7 O34 2.028363 1_555
Li7 O25 2.028911 1_555
Li7 O23 2.141332 1_555
Li7 O0 2.168238 1_655
Li7 O18 2.170773 1_555
Li7 O7 2.191218 1_655
Li8 O30 2.038089 1_555
Li8 O25 2.046198 1_565
Li8 O23 2.064287 1_555
Li8 O15 2.085586 1_655
Li8 O14 2.136179 1_565
Li8 O7 2.192029 1_655
Fe0 O33 1.898241 1_545
Fe0 O20 1.900245 1_555
Fe0 O6 1.953656 1_555
Fe0 O3 1.956270 1_555
Fe0 O16 2.053065 1_555
Fe0 O24 2.064610 1_545
Fe1 O2 1.909386 1_555
Fe1 O5 1.937912 1_555
Fe1 O26 1.966127 1_555
Fe1 O35 2.000233 1_545
Fe1 O27 2.006559 1_545
Fe1 O19 2.073216 1_555
Fe2 O10 1.894962 1_555
Fe2 O4 1.922654 1_555
Fe2 O22 1.957904 1_555
Fe2 O29 1.998376 1_555
Fe2 O21 2.021591 1_555
Fe2 O9 2.085557 1_555
Fe3 O25 1.886571 1_555
Fe3 O30 1.894738 1_555
Fe3 O15 1.917376 1_555
Fe3 O23 1.969243 1_555
Fe3 O7 1.970902 1_555
Fe3 O14 2.066462 1_555
Fe4 O32 1.884544 1_555
Fe4 O28 1.885390 1_555
Fe4 O1 1.948897 1_565
Fe4 O13 1.950582 1_555
Fe4 O17 2.073053 1_555
Fe4 O8 2.074533 1_565
Fe5 O34 1.945701 1_555
Fe5 O12 1.961632 1_555
Fe5 O31 2.010847 1_555
Fe5 O18 2.023444 1_555
Fe5 O0 2.044430 1_565
Fe5 O11 2.080343 1_565
Ni0 O21 2.025350 1_545
Ni0 O9 2.033047 1_555
Ni0 O4 2.048229 1_555
Ni0 O10 2.062426 1_545
Ni0 O29 2.094204 1_455
Ni0 O22 2.101239 1_455
Ni1 O14 1.883664 1_555
Ni1 O7 1.895382 1_555
Ni1 O15 1.938895 1_545
Ni1 O25 1.980652 1_455
Ni1 O23 2.028599 1_545
Ni1 O30 2.092500 1_455
Ni2 O17 1.852462 1_555
Ni2 O8 1.852919 1_555
Ni2 O1 1.914836 1_555
Ni2 O13 1.915279 1_555
Ni2 O32 1.960550 1_455
Ni2 O28 1.963269 1_455
Ni3 O0 1.877684 1_555
Ni3 O12 1.911114 1_555
Ni3 O11 1.914398 1_555
Ni3 O34 2.008209 1_455
Ni3 O18 2.023031 1_555
Ni3 O31 2.101478 1_455
Ni4 O16 1.865021 1_555
Ni4 O24 1.866119 1_555
Ni4 O6 1.916416 1_555
Ni4 O3 1.918129 1_565
Ni4 O33 1.956742 1_455
Ni4 O20 1.959706 1_465
Ni5 O17 2.032924 1_555
Ni5 O1 2.037882 1_555
Ni5 O21 2.051159 1_545
Ni5 O22 2.091980 1_555
Ni5 O32 2.191907 1_545
Ni5 O4 2.193373 1_555
Ni6 O27 2.023809 1_555
Ni6 O19 2.038675 1_555
Ni6 O5 2.046603 1_555
Ni6 O2 2.060408 1_565
Ni6 O35 2.085738 1_455
Ni6 O26 2.103091 1_465
Ni7 O23 2.034805 1_545
Ni7 O7 2.047008 1_555
Ni7 O18 2.055810 1_555
Ni7 O0 2.091373 1_555
Ni7 O34 2.130948 1_545
Ni7 O25 2.140621 1_555
Ni8 O13 2.031633 1_555
Ni8 O8 2.035107 1_555
Ni8 O27 2.055296 1_554
Ni8 O26 2.081682 1_554
Ni8 O28 2.174370 1_555
Ni8 O5 2.190865 1_554
Ni9 O24 2.030752 1_555
Ni9 O6 2.033575 1_555
Ni9 O31 2.040871 1_555
Ni9 O11 2.071536 1_555
Ni9 O12 2.101373 1_555
Ni9 O20 2.181143 1_555
Ni10 O16 2.042501 1_555
Ni10 O9 2.054158 1_565
Ni10 O3 2.061037 1_565
Ni10 O29 2.080671 1_555
Ni10 O10 2.105457 1_555
Ni10 O33 2.170560 1_555
Ni11 O31 2.024414 1_555
Ni11 O18 2.034393 1_555
Ni11 O34 2.037993 1_545
Ni11 O12 2.072453 1_645
Ni11 O11 2.119985 1_555
Ni11 O0 2.119992 1_655
Ni12 O19 2.059140 1_555
Ni12 O30 2.062135 1_555
Ni12 O14 2.063435 1_565
Ni12 O15 2.071717 1_555
Ni12 O2 2.076859 1_565
Ni12 O35 2.081352 1_555
Ni13 O35 1.880569 1_555
Ni13 O26 1.881872 1_555
Ni13 O19 1.952813 1_555
Ni13 O5 2.016672 1_655
Ni13 O27 2.052209 1_555
Ni13 O2 2.166088 1_655
Ni14 O22 1.881025 1_565
Ni14 O29 1.881267 1_555
Ni14 O9 1.967362 1_565
Ni14 O21 2.043960 1_555
Ni14 O4 2.046330 1_655
Ni14 O10 2.129879 1_655
