# generated using pymatgen
data_LiCoPO4
_symmetry_space_group_name_H-M   'P 1'
_cell_length_a   4.89130500
_cell_length_b   7.69786200
_cell_length_c   18.45770433
_cell_angle_alpha   89.72582349
_cell_angle_beta   90.00000000
_cell_angle_gamma   90.00000000
_symmetry_Int_Tables_number   1
_chemical_formula_structural   LiCoPO4
_chemical_formula_sum   'Li8 Co8 P8 O32'
_cell_volume   694.97243278
_cell_formula_units_Z   8
loop_
 _symmetry_equiv_pos_site_id
 _symmetry_equiv_pos_as_xyz
  1  'x, y, z'
loop_
 _atom_site_type_symbol
 _atom_site_label
 _atom_site_symmetry_multiplicity
 _atom_site_fract_x
 _atom_site_fract_y
 _atom_site_fract_z
 _atom_site_occupancy
  Li  Li0  1  0.75832000  0.02783500  0.58365200  1
  Li  Li1  1  0.74168000  0.02783500  0.08365200  1
  Li  Li2  1  0.33735000  0.50867600  0.81221000  1
  Li  Li3  1  0.16265000  0.50867600  0.31221000  1
  Li  Li4  1  0.83735000  0.49132400  0.68779000  1
  Li  Li5  1  0.66265000  0.49132400  0.18779000  1
  Li  Li6  1  0.25832000  0.97216500  0.91634800  1
  Li  Li7  1  0.24168000  0.97216500  0.41634800  1
  Co  Co0  1  0.77503600  0.15823200  0.77072700  1
  Co  Co1  1  0.72496400  0.15823200  0.27072700  1
  Co  Co2  1  0.22103900  0.32940100  0.52078400  1
  Co  Co3  1  0.27896100  0.32940100  0.02078400  1
  Co  Co4  1  0.72103900  0.67059900  0.97921600  1
  Co  Co5  1  0.77896100  0.67059900  0.47921600  1
  Co  Co6  1  0.27503600  0.84176800  0.72927300  1
  Co  Co7  1  0.22496400  0.84176800  0.22927300  1
  P  P0  1  0.32895500  0.24494300  0.68296100  1
  P  P1  1  0.17104500  0.24494300  0.18296100  1
  P  P2  1  0.73163600  0.25896100  0.93522100  1
  P  P3  1  0.76836400  0.25896100  0.43522100  1
  P  P4  1  0.23163600  0.74103900  0.56477900  1
  P  P5  1  0.26836400  0.74103900  0.06477900  1
  P  P6  1  0.82895500  0.75505700  0.81703900  1
  P  P7  1  0.67104500  0.75505700  0.31703900  1
  O  O0  1  0.43536800  0.07738600  0.72293600  1
  O  O1  1  0.06463200  0.07738600  0.22293600  1
  O  O2  1  0.60649500  0.17671400  0.00503100  1
  O  O3  1  0.61674300  0.16266700  0.86838600  1
  O  O4  1  0.41713200  0.22253900  0.60347500  1
  O  O5  1  0.01271000  0.25937000  0.69163300  1
  O  O6  1  0.89350500  0.17671400  0.50503100  1
  O  O7  1  0.88325700  0.16266700  0.36838600  1
  O  O8  1  0.08286800  0.22253900  0.10347500  1
  O  O9  1  0.48729000  0.25937000  0.19163300  1
  O  O10  1  0.04870500  0.24720100  0.93680600  1
  O  O11  1  0.45129500  0.24720100  0.43680600  1
  O  O12  1  0.47543100  0.39745600  0.72135500  1
  O  O13  1  0.02456900  0.39745600  0.22135500  1
  O  O14  1  0.62181500  0.44944100  0.93124400  1
  O  O15  1  0.87818500  0.44944100  0.43124400  1
  O  O16  1  0.12181500  0.55055900  0.56875600  1
  O  O17  1  0.37818500  0.55055900  0.06875600  1
  O  O18  1  0.97543100  0.60254400  0.77864500  1
  O  O19  1  0.52456900  0.60254400  0.27864500  1
  O  O20  1  0.54870500  0.75279900  0.56319400  1
  O  O21  1  0.95129500  0.75279900  0.06319400  1
  O  O22  1  0.51271000  0.74063000  0.80836700  1
  O  O23  1  0.91713200  0.77746100  0.89652500  1
  O  O24  1  0.11674300  0.83733300  0.63161400  1
  O  O25  1  0.10649500  0.82328600  0.49496900  1
  O  O26  1  0.98729000  0.74063000  0.30836700  1
  O  O27  1  0.58286800  0.77746100  0.39652500  1
  O  O28  1  0.38325700  0.83733300  0.13161400  1
  O  O29  1  0.39350500  0.82328600  0.99496900  1
  O  O30  1  0.93536800  0.92261400  0.77706400  1
  O  O31  1  0.56463200  0.92261400  0.27706400  1
loop_
_geom_bond_atom_site_label_1
_geom_bond_atom_site_label_2
_geom_bond_distance
_geom_bond_site_symmetry_2
Li0 O6 1.959749 1_555
Li0 O4 2.273898 1_555
Li0 O20 2.384104 1_545
Li0 O24 2.448537 1_645
Li1 O2 1.959749 1_555
Li1 O8 2.273898 1_655
Li1 O21 2.384104 1_545
Li1 O28 2.448537 1_545
Li2 O22 1.981849 1_555
Li2 O12 2.003784 1_555
Li2 O18 2.008848 1_455
Li3 O26 1.981849 1_455
Li3 O13 2.003784 1_555
Li3 O19 2.008848 1_555
Li4 O5 1.981849 1_655
Li4 O18 2.003784 1_555
Li4 O12 2.008848 1_555
Li5 O9 1.981849 1_555
Li5 O19 2.003784 1_555
Li5 O13 2.008848 1_655
Li6 O29 1.959749 1_555
Li6 O23 2.273898 1_455
Li6 O10 2.384104 1_565
Li6 O3 2.448537 1_565
Li7 O25 1.959749 1_555
Li7 O27 2.273898 1_555
Li7 O11 2.384104 1_565
Li7 O7 2.448537 1_465
Co0 O3 1.962258 1_555
Co0 O30 1.978984 1_545
Co0 O0 1.982675 1_555
Co0 O5 2.019415 1_655
Co0 O12 2.520543 1_555
Co1 O7 1.962258 1_555
Co1 O31 1.978984 1_545
Co1 O1 1.982675 1_655
Co1 O9 2.019415 1_555
Co1 O13 2.520543 1_655
Co2 O4 1.978431 1_555
Co2 O16 1.983007 1_555
Co2 O6 2.008959 1_455
Co2 O11 2.020111 1_555
Co2 O15 2.526464 1_455
Co3 O8 1.978431 1_555
Co3 O17 1.983007 1_555
Co3 O2 2.008959 1_555
Co3 O10 2.020111 1_554
Co3 O14 2.526464 1_554
Co4 O23 1.978431 1_555
Co4 O14 1.983007 1_555
Co4 O29 2.008959 1_555
Co4 O21 2.020111 1_556
Co4 O17 2.526464 1_556
Co5 O27 1.978431 1_555
Co5 O15 1.983007 1_555
Co5 O25 2.008959 1_655
Co5 O20 2.020111 1_555
Co5 O16 2.526464 1_655
Co6 O24 1.962258 1_555
Co6 O0 1.978984 1_565
Co6 O30 1.982675 1_455
Co6 O22 2.019415 1_555
Co6 O18 2.520543 1_455
Co7 O28 1.962258 1_555
Co7 O1 1.978984 1_565
Co7 O31 1.982675 1_555
Co7 O26 2.019415 1_455
Co7 O19 2.520543 1_555
O0 P0 1.571589 1_555
O1 P1 1.571589 1_555
O2 P2 1.558213 1_554
O3 P2 1.547854 1_555
O4 P0 1.539693 1_555
O5 P0 1.559125 1_555
O6 P3 1.558213 1_555
O7 P3 1.547854 1_555
O8 P1 1.539693 1_555
O9 P1 1.559125 1_555
O10 P2 1.553788 1_455
O11 P3 1.553788 1_555
O12 P0 1.549779 1_555
O13 P1 1.549779 1_555
O14 P2 1.562981 1_555
O15 P3 1.562981 1_555
O16 P4 1.562981 1_555
O17 P5 1.562981 1_555
O18 P6 1.549779 1_555
O19 P7 1.549779 1_555
O20 P4 1.553788 1_555
O21 P5 1.553788 1_655
O22 P6 1.559125 1_555
O23 P6 1.539693 1_555
O24 P4 1.547854 1_555
O25 P4 1.558213 1_555
O26 P7 1.559125 1_555
O27 P7 1.539693 1_555
O28 P5 1.547854 1_555
O29 P5 1.558213 1_556
O30 P6 1.571589 1_555
O31 P7 1.571589 1_555
