# generated using pymatgen
data_TeP6H30(NO4)6
_symmetry_space_group_name_H-M   'P 1'
_cell_length_a   8.99543253
_cell_length_b   8.99543253
_cell_length_c   8.99543284
_cell_angle_alpha   78.48410805
_cell_angle_beta   78.48410805
_cell_angle_gamma   78.48410854
_symmetry_Int_Tables_number   1
_chemical_formula_structural   TeP6H30(NO4)6
_chemical_formula_sum   'Te1 P6 H30 N6 O24'
_cell_volume   689.13438459
_cell_formula_units_Z   1
loop_
 _symmetry_equiv_pos_site_id
 _symmetry_equiv_pos_as_xyz
  1  'x, y, z'
loop_
 _atom_site_type_symbol
 _atom_site_label
 _atom_site_symmetry_multiplicity
 _atom_site_fract_x
 _atom_site_fract_y
 _atom_site_fract_z
 _atom_site_occupancy
  Te  Te0  1  0.00000000  0.00000000  0.00000000  1
  P  P0  1  0.30301500  0.49094400  0.19639500  1
  P  P1  1  0.49094400  0.19639500  0.30301500  1
  P  P2  1  0.19639500  0.30301500  0.49094400  1
  P  P3  1  0.69698500  0.50905600  0.80360500  1
  P  P4  1  0.50905600  0.80360500  0.69698500  1
  P  P5  1  0.80360500  0.69698500  0.50905600  1
  H  H0  1  0.81066700  0.08371200  0.23131800  1
  H  H1  1  0.08371200  0.23131800  0.81066700  1
  H  H2  1  0.23131800  0.81066700  0.08371200  1
  H  H3  1  0.18933300  0.91628800  0.76868200  1
  H  H4  1  0.91628800  0.76868200  0.18933300  1
  H  H5  1  0.76868200  0.18933300  0.91628800  1
  H  H6  1  0.73589500  0.14781100  0.54199700  1
  H  H7  1  0.14781100  0.54199700  0.73589500  1
  H  H8  1  0.54199700  0.73589500  0.14781100  1
  H  H9  1  0.26410500  0.85218900  0.45800300  1
  H  H10  1  0.85218900  0.45800300  0.26410500  1
  H  H11  1  0.45800300  0.26410500  0.85218900  1
  H  H12  1  0.92324400  0.15057400  0.54799300  1
  H  H13  1  0.15057400  0.54799300  0.92324400  1
  H  H14  1  0.54799300  0.92324400  0.15057400  1
  H  H15  1  0.07675600  0.84942600  0.45200700  1
  H  H16  1  0.84942600  0.45200700  0.07675600  1
  H  H17  1  0.45200700  0.07675600  0.84942600  1
  H  H18  1  0.19779000  0.89713900  0.28511700  1
  H  H19  1  0.89713900  0.28511700  0.19779000  1
  H  H20  1  0.28511700  0.19779000  0.89713900  1
  H  H21  1  0.80221000  0.10286100  0.71488300  1
  H  H22  1  0.10286100  0.71488300  0.80221000  1
  H  H23  1  0.71488300  0.80221000  0.10286100  1
  H  H24  1  0.85218300  0.98098800  0.58789700  1
  H  H25  1  0.98098800  0.58789700  0.85218300  1
  H  H26  1  0.58789700  0.85218300  0.98098800  1
  H  H27  1  0.14781700  0.01901200  0.41210300  1
  H  H28  1  0.01901200  0.41210300  0.14781700  1
  H  H29  1  0.41210300  0.14781700  0.01901200  1
  N  N0  1  0.17277100  0.90254200  0.40164500  1
  N  N1  1  0.90254200  0.40164500  0.17277100  1
  N  N2  1  0.40164500  0.17277100  0.90254200  1
  N  N3  1  0.82722900  0.09745800  0.59835500  1
  N  N4  1  0.09745800  0.59835500  0.82722900  1
  N  N5  1  0.59835500  0.82722900  0.09745800  1
  O  O0  1  0.19729900  0.92539100  0.07057500  1
  O  O1  1  0.92539100  0.07057500  0.19729900  1
  O  O2  1  0.07057500  0.19729900  0.92539100  1
  O  O3  1  0.80270100  0.07460900  0.92942500  1
  O  O4  1  0.07460900  0.92942500  0.80270100  1
  O  O5  1  0.92942500  0.80270100  0.07460900  1
  O  O6  1  0.16415700  0.34195000  0.65012700  1
  O  O7  1  0.34195000  0.65012700  0.16415700  1
  O  O8  1  0.65012700  0.16415700  0.34195000  1
  O  O9  1  0.83584300  0.65805000  0.34987300  1
  O  O10  1  0.65805000  0.34987300  0.83584300  1
  O  O11  1  0.34987300  0.83584300  0.65805000  1
  O  O12  1  0.37259100  0.21083400  0.46349500  1
  O  O13  1  0.21083400  0.46349500  0.37259100  1
  O  O14  1  0.46349500  0.37259100  0.21083400  1
  O  O15  1  0.62740900  0.78916600  0.53650500  1
  O  O16  1  0.78916600  0.53650500  0.62740900  1
  O  O17  1  0.53650500  0.62740900  0.78916600  1
  O  O18  1  0.55534900  0.90812400  0.78448200  1
  O  O19  1  0.90812400  0.78448200  0.55534900  1
  O  O20  1  0.78448200  0.55534900  0.90812400  1
  O  O21  1  0.44465100  0.09187600  0.21551800  1
  O  O22  1  0.09187600  0.21551800  0.44465100  1
  O  O23  1  0.21551800  0.44465100  0.09187600  1
loop_
_geom_bond_atom_site_label_1
_geom_bond_atom_site_label_2
_geom_bond_distance
_geom_bond_site_symmetry_2
H0 O1 1.006116 1_555
H0 O8 1.701762 1_555
H1 O2 1.006116 1_555
H1 O6 1.701762 1_555
H2 O0 1.006116 1_555
H2 O7 1.701762 1_555
H3 O4 1.006116 1_555
H3 O11 1.701762 1_555
H4 O5 1.006116 1_555
H4 O9 1.701762 1_555
H5 O3 1.006116 1_555
H5 O10 1.701762 1_555
H6 N3 1.031124 1_555
H7 N4 1.031124 1_555
H8 N5 1.031124 1_555
H9 N0 1.031124 1_555
H10 N1 1.031124 1_555
H11 N2 1.031124 1_555
H12 N3 1.049579 1_555
H13 N4 1.049579 1_555
H14 N5 1.049579 1_555
H15 N0 1.049579 1_555
H16 N1 1.049579 1_555
H17 N2 1.049579 1_555
H18 N0 1.036126 1_555
H19 N1 1.036126 1_555
H20 N2 1.036126 1_555
H21 N3 1.036126 1_555
H22 N4 1.036126 1_555
H23 N5 1.036126 1_555
H24 N3 1.045910 1_565
H25 N4 1.045910 1_655
H26 N5 1.045910 1_556
H27 N0 1.045910 1_545
H28 N1 1.045910 1_455
H29 N2 1.045910 1_554
O0 Te0 1.951284 1_565
O1 Te0 1.951284 1_655
O2 Te0 1.951284 1_556
O3 Te0 1.951284 1_656
O4 Te0 1.951284 1_566
O5 Te0 1.951284 1_665
O6 P2 1.500349 1_555
O7 P0 1.500349 1_555
O8 P1 1.500349 1_555
O9 P5 1.500349 1_555
O10 P3 1.500349 1_555
O11 P4 1.500349 1_555
O12 P1 1.624890 1_555
O12 P2 1.631375 1_555
O13 P2 1.624890 1_555
O13 P0 1.631375 1_555
O14 P0 1.624890 1_555
O14 P1 1.631375 1_555
O15 P4 1.624890 1_555
O15 P5 1.631375 1_555
O16 P5 1.624890 1_555
O16 P3 1.631375 1_555
O17 P3 1.624890 1_555
O17 P4 1.631375 1_555
O18 P4 1.503170 1_555
O19 P5 1.503170 1_555
O20 P3 1.503170 1_555
O21 P1 1.503170 1_555
O22 P2 1.503170 1_555
O23 P0 1.503170 1_555
