# generated using pymatgen
data_MgV3O7
_symmetry_space_group_name_H-M   'P 1'
_cell_length_a   5.33293400
_cell_length_b   10.23090600
_cell_length_c   10.23426400
_cell_angle_alpha   90.00000000
_cell_angle_beta   90.00000000
_cell_angle_gamma   90.00000000
_symmetry_Int_Tables_number   1
_chemical_formula_structural   MgV3O7
_chemical_formula_sum   'Mg4 V12 O28'
_cell_volume   558.38908329
_cell_formula_units_Z   4
loop_
 _symmetry_equiv_pos_site_id
 _symmetry_equiv_pos_as_xyz
  1  'x, y, z'
loop_
 _atom_site_type_symbol
 _atom_site_label
 _atom_site_symmetry_multiplicity
 _atom_site_fract_x
 _atom_site_fract_y
 _atom_site_fract_z
 _atom_site_occupancy
  Mg  Mg0  1  0.84534000  0.07809200  0.25000000  1
  Mg  Mg1  1  0.34534000  0.42190800  0.75000000  1
  Mg  Mg2  1  0.15466000  0.92190800  0.75000000  1
  Mg  Mg3  1  0.65466000  0.57809200  0.25000000  1
  V  V0  1  0.20277400  0.68277800  0.97267500  1
  V  V1  1  0.70277400  0.81722200  0.02732500  1
  V  V2  1  0.79722600  0.31722200  0.47267500  1
  V  V3  1  0.29722600  0.18277800  0.52732500  1
  V  V4  1  0.19193200  0.78229400  0.25000000  1
  V  V5  1  0.69193200  0.71770600  0.75000000  1
  V  V6  1  0.80806800  0.21770600  0.75000000  1
  V  V7  1  0.30806800  0.28229400  0.25000000  1
  V  V8  1  0.70277400  0.81722200  0.47267500  1
  V  V9  1  0.20277400  0.68277800  0.52732500  1
  V  V10  1  0.29722600  0.18277800  0.97267500  1
  V  V11  1  0.79722600  0.31722200  0.02732500  1
  O  O0  1  0.55716800  0.28786000  0.87914800  1
  O  O1  1  0.05716800  0.21214000  0.12085200  1
  O  O2  1  0.44283200  0.71214000  0.37914800  1
  O  O3  1  0.94283200  0.78786000  0.62085200  1
  O  O4  1  0.44283200  0.71214000  0.12085200  1
  O  O5  1  0.94283200  0.78786000  0.87914800  1
  O  O6  1  0.55716800  0.28786000  0.62085200  1
  O  O7  1  0.05716800  0.21214000  0.37914800  1
  O  O8  1  0.04120800  0.28733900  0.88160800  1
  O  O9  1  0.54120800  0.21266100  0.11839200  1
  O  O10  1  0.95879200  0.71266100  0.38160800  1
  O  O11  1  0.45879200  0.78733900  0.61839200  1
  O  O12  1  0.95879200  0.71266100  0.11839200  1
  O  O13  1  0.45879200  0.78733900  0.88160800  1
  O  O14  1  0.04120800  0.28733900  0.61839200  1
  O  O15  1  0.54120800  0.21266100  0.38160800  1
  O  O16  1  0.33373100  0.44438600  0.25000000  1
  O  O17  1  0.83373100  0.05561400  0.75000000  1
  O  O18  1  0.66626900  0.55561400  0.75000000  1
  O  O19  1  0.16626900  0.94438600  0.25000000  1
  O  O20  1  0.27857900  0.03569800  0.59569300  1
  O  O21  1  0.77857900  0.46430200  0.40430700  1
  O  O22  1  0.72142100  0.96430200  0.09569300  1
  O  O23  1  0.22142100  0.53569800  0.90430700  1
  O  O24  1  0.72142100  0.96430200  0.40430700  1
  O  O25  1  0.22142100  0.53569800  0.59569300  1
  O  O26  1  0.27857900  0.03569800  0.90430700  1
  O  O27  1  0.77857900  0.46430200  0.09569300  1
loop_
_geom_bond_atom_site_label_1
_geom_bond_atom_site_label_2
_geom_bond_distance
_geom_bond_site_symmetry_2
Mg0 O24 2.070256 1_545
Mg0 O22 2.070256 1_545
Mg0 O19 2.190993 1_645
Mg0 O1 2.214487 1_655
Mg0 O7 2.214487 1_655
Mg0 O9 2.517987 1_555
Mg0 O15 2.517987 1_555
Mg1 O23 2.070256 1_555
Mg1 O25 2.070256 1_555
Mg1 O18 2.190993 1_555
Mg1 O0 2.214487 1_555
Mg1 O6 2.214487 1_555
Mg1 O8 2.517987 1_555
Mg1 O14 2.517987 1_555
Mg2 O26 2.070256 1_565
Mg2 O20 2.070256 1_565
Mg2 O17 2.190993 1_465
Mg2 O5 2.214487 1_455
Mg2 O3 2.214487 1_455
Mg2 O13 2.517987 1_555
Mg2 O11 2.517987 1_555
Mg3 O21 2.070256 1_555
Mg3 O27 2.070256 1_555
Mg3 O16 2.190993 1_555
Mg3 O2 2.214487 1_555
Mg3 O4 2.214487 1_555
Mg3 O10 2.517987 1_555
Mg3 O12 2.517987 1_555
O0 V10 1.998424 1_555
O0 V11 2.007213 1_556
O0 V6 2.013073 1_555
O1 V11 1.998424 1_455
O1 V10 2.007213 1_554
O1 V7 2.013073 1_555
O2 V8 1.998424 1_555
O2 V9 2.007213 1_555
O2 V4 2.013073 1_555
O3 V9 1.998424 1_655
O3 V8 2.007213 1_555
O3 V5 2.013073 1_555
O4 V1 1.998424 1_555
O4 V0 2.007213 1_554
O4 V4 2.013073 1_555
O5 V0 1.998424 1_655
O5 V1 2.007213 1_556
O5 V5 2.013073 1_555
O6 V3 1.998424 1_555
O6 V2 2.007213 1_555
O6 V6 2.013073 1_555
O7 V2 1.998424 1_455
O7 V3 2.007213 1_555
O7 V7 2.013073 1_555
O8 V6 1.966606 1_455
O8 V10 1.969041 1_555
O8 V11 2.002606 1_456
O9 V7 1.966606 1_555
O9 V11 1.969041 1_555
O9 V10 2.002606 1_554
O10 V4 1.966606 1_655
O10 V8 1.969041 1_555
O10 V9 2.002606 1_655
O11 V5 1.966606 1_555
O11 V9 1.969041 1_555
O11 V8 2.002606 1_555
O12 V4 1.966606 1_655
O12 V1 1.969041 1_555
O12 V0 2.002606 1_654
O13 V5 1.966606 1_555
O13 V0 1.969041 1_555
O13 V1 2.002606 1_556
O14 V6 1.966606 1_455
O14 V3 1.969041 1_555
O14 V2 2.002606 1_455
O15 V7 1.966606 1_555
O15 V2 1.969041 1_555
O15 V3 2.002606 1_555
O16 V7 1.663986 1_555
O17 V6 1.663986 1_555
O18 V5 1.663986 1_555
O19 V4 1.663986 1_555
O20 V3 1.662459 1_555
O21 V2 1.662459 1_555
O22 V1 1.662459 1_555
O23 V0 1.662459 1_555
O24 V8 1.662459 1_555
O25 V9 1.662459 1_555
O26 V10 1.662459 1_555
O27 V11 1.662459 1_555
