# generated using pymatgen
data_GdOF
_symmetry_space_group_name_H-M   'P 1'
_cell_length_a   3.89489293
_cell_length_b   3.89486676
_cell_length_c   5.55033824
_cell_angle_alpha   90.00000000
_cell_angle_beta   90.00000000
_cell_angle_gamma   90.00000000
_symmetry_Int_Tables_number   1
_chemical_formula_structural   GdOF
_chemical_formula_sum   'Gd2 O2 F2'
_cell_volume   84.19912512
_cell_formula_units_Z   2
loop_
 _symmetry_equiv_pos_site_id
 _symmetry_equiv_pos_as_xyz
  1  'x, y, z'
loop_
 _atom_site_type_symbol
 _atom_site_label
 _atom_site_symmetry_multiplicity
 _atom_site_fract_x
 _atom_site_fract_y
 _atom_site_fract_z
 _atom_site_occupancy
  Gd  Gd0  1  0.00000000  0.50000000  0.71340955  1
  Gd  Gd1  1  0.50000000  -0.00000000  0.28659045  1
  O  O0  1  -0.00000000  -0.00000000  0.50000249  1
  O  O1  1  0.50000000  0.50000000  0.49999751  1
  F  F0  1  -0.00000000  -0.00000000  0.00000715  1
  F  F1  1  0.50000000  0.50000000  0.99999285  1
loop_
_geom_bond_atom_site_label_1
_geom_bond_atom_site_label_2
_geom_bond_distance
_geom_bond_site_symmetry_2
Gd0 O0 2.279362 1_555
Gd0 O0 2.279362 1_565
Gd0 O1 2.279388 1_455
Gd0 O1 2.279388 1_555
Gd1 O1 2.279362 1_545
Gd1 O1 2.279362 1_555
Gd1 O0 2.279388 1_655
Gd1 O0 2.279388 1_555
F0 Gd1 2.514491 1_455
F0 Gd1 2.514491 1_555
F0 Gd0 2.514531 1_554
F0 Gd0 2.514531 1_544
F1 Gd0 2.514491 1_555
F1 Gd0 2.514491 1_655
F1 Gd1 2.514531 1_556
F1 Gd1 2.514531 1_566
