# generated using pymatgen
data_LiBi3(ClO2)2
_symmetry_space_group_name_H-M   'P 1'
_cell_length_a   6.80067862
_cell_length_b   6.80067862
_cell_length_c   10.97751800
_cell_angle_alpha   90.00000000
_cell_angle_beta   90.00000000
_cell_angle_gamma   132.19811504
_symmetry_Int_Tables_number   1
_chemical_formula_structural   LiBi3(ClO2)2
_chemical_formula_sum   'Li2 Bi6 Cl4 O8'
_cell_volume   376.11900992
_cell_formula_units_Z   2
loop_
 _symmetry_equiv_pos_site_id
 _symmetry_equiv_pos_as_xyz
  1  'x, y, z'
loop_
 _atom_site_type_symbol
 _atom_site_label
 _atom_site_symmetry_multiplicity
 _atom_site_fract_x
 _atom_site_fract_y
 _atom_site_fract_z
 _atom_site_occupancy
  Li  Li0  1  0.21159000  0.78841000  0.75000000  1
  Li  Li1  1  0.78841000  0.21159000  0.25000000  1
  Bi  Bi0  1  0.34283000  0.65717000  0.00636000  1
  Bi  Bi1  1  0.85439800  0.14560200  0.75000000  1
  Bi  Bi2  1  0.14560200  0.85439800  0.25000000  1
  Bi  Bi3  1  0.65717000  0.34283000  0.99364000  1
  Bi  Bi4  1  0.34283000  0.65717000  0.49364000  1
  Bi  Bi5  1  0.65717000  0.34283000  0.50636000  1
  Cl  Cl0  1  0.48636300  0.51363700  0.75000000  1
  Cl  Cl1  1  0.51363700  0.48636300  0.25000000  1
  Cl  Cl2  1  0.00000000  0.00000000  0.00000000  1
  Cl  Cl3  1  0.00000000  0.00000000  0.50000000  1
  O  O0  1  0.00394200  0.48849800  0.87630400  1
  O  O1  1  0.99605800  0.51150200  0.12369600  1
  O  O2  1  0.51150200  0.99605800  0.87630400  1
  O  O3  1  0.48849800  0.00394200  0.12369600  1
  O  O4  1  0.99605800  0.51150200  0.37630400  1
  O  O5  1  0.00394200  0.48849800  0.62369600  1
  O  O6  1  0.48849800  0.00394200  0.37630400  1
  O  O7  1  0.51150200  0.99605800  0.62369600  1
loop_
_geom_bond_atom_site_label_1
_geom_bond_atom_site_label_2
_geom_bond_distance
_geom_bond_site_symmetry_2
Li0 O0 2.051164 1_555
Li0 O7 2.051164 1_555
Li0 O5 2.051164 1_555
Li0 O2 2.051164 1_555
Li1 O1 2.051164 1_555
Li1 O3 2.051164 1_555
Li1 O6 2.051164 1_555
Li1 O4 2.051164 1_555
Bi0 O3 2.250226 1_565
Bi0 O1 2.250226 1_455
Bi0 O2 2.261448 1_554
Bi0 O0 2.261448 1_554
Bi1 O7 2.282238 1_545
Bi1 O2 2.282238 1_545
Bi1 O5 2.282238 1_655
Bi1 O0 2.282238 1_655
Bi1 Cl0 3.206982 1_655
Bi1 Cl0 3.206982 1_545
Bi2 O4 2.282238 1_455
Bi2 O3 2.282238 1_565
Bi2 O1 2.282238 1_455
Bi2 O6 2.282238 1_565
Bi2 Cl1 3.206982 1_565
Bi2 Cl1 3.206982 1_455
Bi3 O0 2.250226 1_655
Bi3 O2 2.250226 1_545
Bi3 O1 2.261448 1_556
Bi3 O3 2.261448 1_556
Bi4 O6 2.250226 1_565
Bi4 O4 2.250226 1_455
Bi4 O7 2.261448 1_555
Bi4 O5 2.261448 1_555
Bi5 O5 2.250226 1_655
Bi5 O7 2.250226 1_545
Bi5 O6 2.261448 1_555
Bi5 O4 2.261448 1_555
