# generated using pymatgen
data_Li6Fe(SiO4)2
_symmetry_space_group_name_H-M   'P 1'
_cell_length_a   5.54391476
_cell_length_b   10.30074874
_cell_length_c   6.23486827
_cell_angle_alpha   78.82160119
_cell_angle_beta   88.26029861
_cell_angle_gamma   85.58756288
_symmetry_Int_Tables_number   1
_chemical_formula_structural   Li6Fe(SiO4)2
_chemical_formula_sum   'Li12 Fe2 Si4 O16'
_cell_volume   348.21774071
_cell_formula_units_Z   2
loop_
 _symmetry_equiv_pos_site_id
 _symmetry_equiv_pos_as_xyz
  1  'x, y, z'
loop_
 _atom_site_type_symbol
 _atom_site_label
 _atom_site_symmetry_multiplicity
 _atom_site_fract_x
 _atom_site_fract_y
 _atom_site_fract_z
 _atom_site_occupancy
  Li  Li0  1  0.41724900  0.08164600  0.80825900  1
  Li  Li1  1  0.41745500  0.58170200  0.80819800  1
  Li  Li2  1  0.58277100  0.41835500  0.19172900  1
  Li  Li3  1  0.58253200  0.91830600  0.19180400  1
  Li  Li4  1  0.24549800  0.30690000  0.03642000  1
  Li  Li5  1  0.24539400  0.80691000  0.03631900  1
  Li  Li6  1  0.75448300  0.19309700  0.96361000  1
  Li  Li7  1  0.75452600  0.69311500  0.96370600  1
  Li  Li8  1  0.35988400  0.39191100  0.61544200  1
  Li  Li9  1  0.35958300  0.89179200  0.61544900  1
  Li  Li10  1  0.64018000  0.10813800  0.38456100  1
  Li  Li11  1  0.64039300  0.60820300  0.38451800  1
  Fe  Fe0  1  0.99993400  0.74998300  0.50005200  1
  Fe  Fe1  1  0.00010400  0.24999800  0.49999500  1
  Si  Si0  1  0.20546100  0.06197700  0.27917700  1
  Si  Si1  1  0.20572700  0.56206500  0.27911800  1
  Si  Si2  1  0.79458600  0.43799100  0.72079400  1
  Si  Si3  1  0.79425400  0.93794200  0.72088800  1
  O  O0  1  0.21620400  0.39900600  0.29681500  1
  O  O1  1  0.21574900  0.89894400  0.29673100  1
  O  O2  1  0.78383600  0.10099200  0.70321300  1
  O  O3  1  0.78415300  0.60104900  0.70321300  1
  O  O4  1  0.05125700  0.34879600  0.77767700  1
  O  O5  1  0.05100100  0.84879100  0.77768700  1
  O  O6  1  0.94876100  0.15120300  0.22232400  1
  O  O7  1  0.94891800  0.65120800  0.22231200  1
  O  O8  1  0.29006500  0.09369500  0.51753900  1
  O  O9  1  0.29066200  0.59373000  0.51730100  1
  O  O10  1  0.70999000  0.40622000  0.48247500  1
  O  O11  1  0.70934600  0.90627900  0.48270000  1
  O  O12  1  0.42139700  0.11679900  0.10265200  1
  O  O13  1  0.42171400  0.61693400  0.10264400  1
  O  O14  1  0.57862200  0.38320500  0.89735000  1
  O  O15  1  0.57831000  0.88311600  0.89732700  1
loop_
_geom_bond_atom_site_label_1
_geom_bond_atom_site_label_2
_geom_bond_distance
_geom_bond_site_symmetry_2
Li0 O12 1.939654 1_556
Li0 O8 1.942935 1_555
Li0 O2 2.128360 1_555
Li0 O15 2.143955 1_545
Li1 O13 1.940315 1_556
Li1 O9 1.943159 1_555
Li1 O3 2.128848 1_555
Li1 O14 2.143911 1_555
Li2 O14 1.939557 1_554
Li2 O10 1.943033 1_555
Li2 O0 2.128322 1_555
Li2 O13 2.144397 1_555
Li3 O15 1.940333 1_554
Li3 O11 1.943199 1_555
Li3 O1 2.129220 1_555
Li3 O12 2.143813 1_565
Li4 O4 1.926759 1_554
Li4 O0 2.029750 1_555
Li4 O12 2.091185 1_555
Li4 O14 2.154581 1_554
Li4 O6 2.488248 1_455
Li5 O5 1.926673 1_554
Li5 O1 2.029426 1_555
Li5 O13 2.091029 1_555
Li5 O15 2.153066 1_554
Li5 O7 2.487449 1_455
Li6 O6 1.926729 1_556
Li6 O2 2.029761 1_555
Li6 O14 2.091169 1_555
Li6 O12 2.154318 1_556
Li6 O4 2.488461 1_655
Li7 O7 1.926544 1_556
Li7 O3 2.030076 1_555
Li7 O15 2.091030 1_555
Li7 O13 2.152369 1_556
Li7 O5 2.487335 1_655
Li8 O4 1.996394 1_555
Li8 O9 2.059550 1_555
Li8 O10 2.091716 1_555
Li8 O0 2.148774 1_555
Li8 O14 2.149310 1_555
Li9 O5 1.995965 1_555
Li9 O8 2.060401 1_565
Li9 O11 2.089603 1_555
Li9 O15 2.149169 1_555
Li9 O1 2.149538 1_555
Li10 O6 1.996082 1_555
Li10 O11 2.059898 1_545
Li10 O8 2.091876 1_555
Li10 O2 2.148775 1_555
Li10 O12 2.149535 1_555
Li11 O7 1.995614 1_555
Li11 O10 2.061256 1_555
Li11 O9 2.089505 1_555
Li11 O13 2.148902 1_555
Li11 O3 2.149239 1_555
Fe0 O11 2.177834 1_555
Fe0 O9 2.178113 1_655
Fe0 O3 2.196824 1_555
Fe0 O1 2.197532 1_655
Fe0 O5 2.206737 1_655
Fe0 O7 2.207047 1_555
Fe1 O8 2.175420 1_555
Fe1 O10 2.175449 1_455
Fe1 O0 2.198381 1_555
Fe1 O2 2.199010 1_455
Fe1 O4 2.207019 1_555
Fe1 O6 2.207138 1_455
O0 Si1 1.658380 1_555
O1 Si0 1.658271 1_565
O2 Si3 1.658319 1_545
O3 Si2 1.658473 1_555
O4 Si2 1.642524 1_455
O5 Si3 1.642599 1_455
O6 Si0 1.642776 1_655
O7 Si1 1.642853 1_655
O8 Si0 1.670200 1_555
O9 Si1 1.669536 1_555
O10 Si2 1.670147 1_555
O11 Si3 1.669509 1_555
O12 Si0 1.657226 1_555
O13 Si1 1.657378 1_555
O14 Si2 1.657351 1_555
O15 Si3 1.656960 1_555
