# generated using pymatgen
data_Li2Fe2Si4O11
_symmetry_space_group_name_H-M   'P 1'
_cell_length_a   7.04741700
_cell_length_b   7.58095175
_cell_length_c   8.79380001
_cell_angle_alpha   99.96762304
_cell_angle_beta   101.12743865
_cell_angle_gamma   104.42481467
_symmetry_Int_Tables_number   1
_chemical_formula_structural   Li2Fe2Si4O11
_chemical_formula_sum   'Li4 Fe4 Si8 O22'
_cell_volume   434.19350993
_cell_formula_units_Z   2
loop_
 _symmetry_equiv_pos_site_id
 _symmetry_equiv_pos_as_xyz
  1  'x, y, z'
loop_
 _atom_site_type_symbol
 _atom_site_label
 _atom_site_symmetry_multiplicity
 _atom_site_fract_x
 _atom_site_fract_y
 _atom_site_fract_z
 _atom_site_occupancy
  Li  Li0  1  0.38869400  0.21160500  0.80300000  1
  Li  Li1  1  0.85971900  0.24967300  0.84805900  1
  Li  Li2  1  0.14028100  0.75032700  0.15194100  1
  Li  Li3  1  0.61130600  0.78839500  0.19700000  1
  Fe  Fe0  1  0.11695900  0.37742800  0.61183500  1
  Fe  Fe1  1  0.62846600  0.38161000  0.60211600  1
  Fe  Fe2  1  0.37153400  0.61839000  0.39788400  1
  Fe  Fe3  1  0.88304100  0.62257200  0.38816500  1
  Si  Si0  1  0.76073600  0.61276000  0.96601400  1
  Si  Si1  1  0.04142000  0.77416200  0.76625100  1
  Si  Si2  1  0.47783800  0.77648700  0.77305300  1
  Si  Si3  1  0.23223400  0.02623600  0.40182600  1
  Si  Si4  1  0.76776600  0.97376400  0.59817400  1
  Si  Si5  1  0.52216200  0.22351300  0.22694700  1
  Si  Si6  1  0.95858000  0.22583800  0.23374900  1
  Si  Si7  1  0.23926400  0.38724000  0.03398600  1
  O  O0  1  0.18437500  0.37395800  0.84630200  1
  O  O1  1  0.60102600  0.74021700  0.93826100  1
  O  O2  1  0.67711900  0.40661900  0.84519300  1
  O  O3  1  0.97589300  0.73618400  0.93128700  1
  O  O4  1  0.28890200  0.84571600  0.81679500  1
  O  O5  1  0.61636400  0.95771500  0.72497700  1
  O  O6  1  0.32117400  0.18905000  0.56487900  1
  O  O7  1  0.41645400  0.59018600  0.62947400  1
  O  O8  1  0.81811100  0.19313100  0.59355200  1
  O  O9  1  0.97587000  0.94935800  0.70937100  1
  O  O10  1  0.93921500  0.58569800  0.62507900  1
  O  O11  1  0.06078500  0.41430200  0.37492100  1
  O  O12  1  0.02413000  0.05064200  0.29062900  1
  O  O13  1  0.18188900  0.80686900  0.40644800  1
  O  O14  1  0.58354600  0.40981400  0.37052600  1
  O  O15  1  0.67882600  0.81095000  0.43512100  1
  O  O16  1  0.38363600  0.04228500  0.27502300  1
  O  O17  1  0.71109800  0.15428400  0.18320500  1
  O  O18  1  0.02410700  0.26381600  0.06871300  1
  O  O19  1  0.32288100  0.59338100  0.15480700  1
  O  O20  1  0.39897400  0.25978300  0.06173900  1
  O  O21  1  0.81562500  0.62604200  0.15369800  1
loop_
_geom_bond_atom_site_label_1
_geom_bond_atom_site_label_2
_geom_bond_distance
_geom_bond_site_symmetry_2
Li0 O6 2.022713 1_555
Li0 O2 2.115847 1_555
Li0 O0 2.159994 1_555
Li0 O20 2.225115 1_556
Li1 O2 1.957792 1_555
Li1 O18 2.029079 1_656
Li1 O8 2.151906 1_555
Li1 O0 2.251114 1_655
Li1 O5 2.361058 1_545
Li2 O19 1.957792 1_555
Li2 O3 2.029079 1_454
Li2 O13 2.151906 1_555
Li2 O21 2.251114 1_455
Li2 O16 2.361058 1_565
Li3 O15 2.022713 1_555
Li3 O19 2.115847 1_555
Li3 O21 2.159994 1_555
Li3 O1 2.225115 1_554
Fe0 O0 2.030902 1_555
Fe0 O11 2.124550 1_555
Fe0 O8 2.176939 1_455
Fe0 O10 2.248011 1_455
Fe0 O7 2.274066 1_555
Fe0 O6 2.308769 1_555
Fe1 O14 2.056480 1_555
Fe1 O2 2.065705 1_555
Fe1 O8 2.187823 1_555
Fe1 O6 2.216723 1_555
Fe1 O10 2.294251 1_555
Fe1 O7 2.444309 1_555
Fe2 O7 2.056480 1_555
Fe2 O19 2.065705 1_555
Fe2 O13 2.187823 1_555
Fe2 O15 2.216723 1_555
Fe2 O11 2.294251 1_555
Fe2 O14 2.444309 1_555
Fe3 O21 2.030902 1_555
Fe3 O10 2.124550 1_555
Fe3 O13 2.176939 1_655
Fe3 O11 2.248011 1_655
Fe3 O14 2.274066 1_555
Fe3 O15 2.308769 1_555
O0 Si7 1.600129 1_556
O1 Si2 1.646310 1_555
O1 Si0 1.666579 1_555
O2 Si0 1.625734 1_555
O3 Si1 1.655142 1_655
O3 Si0 1.684845 1_555
O4 Si2 1.634712 1_555
O4 Si1 1.636972 1_555
O5 Si2 1.646662 1_555
O5 Si4 1.684698 1_555
O6 Si3 1.620883 1_555
O7 Si2 1.625874 1_555
O8 Si4 1.621153 1_545
O9 Si1 1.635255 1_655
O9 Si4 1.669011 1_555
O10 Si1 1.621539 1_655
O11 Si6 1.621539 1_455
O12 Si6 1.635255 1_455
O12 Si3 1.669011 1_555
O13 Si3 1.621153 1_565
O14 Si5 1.625874 1_555
O15 Si4 1.620883 1_555
O16 Si5 1.646662 1_555
O16 Si3 1.684698 1_555
O17 Si5 1.634712 1_555
O17 Si6 1.636972 1_555
O18 Si6 1.655142 1_455
O18 Si7 1.684845 1_555
O19 Si7 1.625734 1_555
O20 Si5 1.646310 1_555
O20 Si7 1.666579 1_555
O21 Si0 1.600129 1_554
