# generated using pymatgen
data_Er2TeO6
_symmetry_space_group_name_H-M   'P 1'
_cell_length_a   4.96990100
_cell_length_b   4.96990100
_cell_length_c   10.01958100
_cell_angle_alpha   90.00000000
_cell_angle_beta   90.00000000
_cell_angle_gamma   90.00000000
_symmetry_Int_Tables_number   1
_chemical_formula_structural   Er2TeO6
_chemical_formula_sum   'Er4 Te2 O12'
_cell_volume   247.48280855
_cell_formula_units_Z   2
loop_
 _symmetry_equiv_pos_site_id
 _symmetry_equiv_pos_as_xyz
  1  'x, y, z'
loop_
 _atom_site_type_symbol
 _atom_site_label
 _atom_site_symmetry_multiplicity
 _atom_site_fract_x
 _atom_site_fract_y
 _atom_site_fract_z
 _atom_site_occupancy
  Er  Er0  1  0.50000000  0.50000000  0.33457800  1
  Er  Er1  1  0.50000000  0.50000000  0.66542200  1
  Er  Er2  1  0.00000000  0.00000000  0.16542200  1
  Er  Er3  1  0.00000000  0.00000000  0.83457800  1
  Te  Te0  1  0.50000000  0.50000000  0.00000000  1
  Te  Te1  1  0.00000000  0.00000000  0.50000000  1
  O  O0  1  0.68395000  0.68395000  0.14724900  1
  O  O1  1  0.68395000  0.68395000  0.85275100  1
  O  O2  1  0.72046400  0.72046400  0.50000000  1
  O  O3  1  0.77953600  0.22046400  0.00000000  1
  O  O4  1  0.81605000  0.18395000  0.35275100  1
  O  O5  1  0.81605000  0.18395000  0.64724900  1
  O  O6  1  0.18395000  0.81605000  0.35275100  1
  O  O7  1  0.18395000  0.81605000  0.64724900  1
  O  O8  1  0.22046400  0.77953600  0.00000000  1
  O  O9  1  0.27953600  0.27953600  0.50000000  1
  O  O10  1  0.31605000  0.31605000  0.14724900  1
  O  O11  1  0.31605000  0.31605000  0.85275100  1
loop_
_geom_bond_atom_site_label_1
_geom_bond_atom_site_label_2
_geom_bond_distance
_geom_bond_site_symmetry_2
Er0 O6 2.228808 1_555
Er0 O4 2.228808 1_555
Er0 O9 2.268969 1_555
Er0 O2 2.268969 1_555
Er0 O10 2.279154 1_555
Er0 O0 2.279154 1_555
Er1 O7 2.228808 1_555
Er1 O5 2.228808 1_555
Er1 O2 2.268969 1_555
Er1 O9 2.268969 1_555
Er1 O1 2.279154 1_555
Er1 O11 2.279154 1_555
Er2 O10 2.228808 1_555
Er2 O0 2.228808 1_445
Er2 O8 2.268969 1_545
Er2 O3 2.268969 1_455
Er2 O4 2.279154 1_455
Er2 O6 2.279154 1_545
Er3 O11 2.228808 1_555
Er3 O1 2.228808 1_445
Er3 O3 2.268969 1_456
Er3 O8 2.268969 1_546
Er3 O5 2.279154 1_455
Er3 O7 2.279154 1_545
O0 Te0 1.961708 1_555
O1 Te0 1.961708 1_556
O2 Te1 1.964719 1_665
O3 Te0 1.964719 1_555
O4 Te1 1.961708 1_655
O5 Te1 1.961708 1_655
O6 Te1 1.961708 1_565
O7 Te1 1.961708 1_565
O8 Te0 1.964719 1_555
O9 Te1 1.964719 1_555
O10 Te0 1.961708 1_555
O11 Te0 1.961708 1_556
