# generated using pymatgen
data_LiV4OF11
_symmetry_space_group_name_H-M   'P 1'
_cell_length_a   5.26605800
_cell_length_b   5.49829707
_cell_length_c   17.42365209
_cell_angle_alpha   88.28214570
_cell_angle_beta   98.49641325
_cell_angle_gamma   118.10180449
_symmetry_Int_Tables_number   1
_chemical_formula_structural   LiV4OF11
_chemical_formula_sum   'Li2 V8 O2 F22'
_cell_volume   439.67913605
_cell_formula_units_Z   2
loop_
 _symmetry_equiv_pos_site_id
 _symmetry_equiv_pos_as_xyz
  1  'x, y, z'
loop_
 _atom_site_type_symbol
 _atom_site_label
 _atom_site_symmetry_multiplicity
 _atom_site_fract_x
 _atom_site_fract_y
 _atom_site_fract_z
 _atom_site_occupancy
  Li  Li0  1  0.44750900  0.79460600  0.07129300  1
  Li  Li1  1  0.70020000  0.92725800  0.44860300  1
  V  V0  1  0.98339400  0.98027200  0.00180600  1
  V  V1  1  0.75087600  0.40557200  0.12109800  1
  V  V2  1  0.75424000  0.87151500  0.62744200  1
  V  V3  1  0.50034900  0.24506500  0.75123700  1
  V  V4  1  0.49758600  0.75658100  0.25025300  1
  V  V5  1  0.24937500  0.14229800  0.37889600  1
  V  V6  1  0.02491200  0.49791400  0.49901300  1
  V  V7  1  0.25159200  0.61605900  0.87530200  1
  O  O0  1  0.75776900  0.69269300  0.06192900  1
  O  O1  1  0.15314100  0.27653400  0.45905000  1
  F  F0  1  0.78984700  0.19300300  0.03832200  1
  F  F1  1  0.71319300  0.06244300  0.18437900  1
  F  F2  1  0.76347800  0.16822800  0.55938800  1
  F  F3  1  0.67981900  0.03423900  0.71587400  1
  F  F4  1  0.68498600  0.35324900  0.41320200  1
  F  F5  1  0.68649200  0.55197400  0.21585300  1
  F  F6  1  0.82583700  0.72411700  0.53130700  1
  F  F7  1  0.80022000  0.89799200  0.34612200  1
  F  F8  1  0.82792200  0.41506100  0.83972500  1
  F  F9  1  0.31600100  0.15574900  0.08683900  1
  F  F10  1  0.72791800  0.55366000  0.68630000  1
  F  F11  1  0.25767000  0.43068400  0.30644600  1
  F  F12  1  0.67416400  0.83018000  0.90856100  1
  F  F13  1  0.17487100  0.08158400  0.66186700  1
  F  F14  1  0.20189900  0.60628900  0.15346900  1
  F  F15  1  0.33047000  0.66370500  0.59101100  1
  F  F16  1  0.32159300  0.45606000  0.78444500  1
  F  F17  1  0.32351700  0.96543000  0.28774100  1
  F  F18  1  0.28090400  0.83137900  0.43739800  1
  F  F19  1  0.22031300  0.30280100  0.93709800  1
  F  F20  1  0.27400200  0.93339100  0.81394900  1
  F  F21  1  0.19946200  0.77517500  0.97113200  1
loop_
_geom_bond_atom_site_label_1
_geom_bond_atom_site_label_2
_geom_bond_distance
_geom_bond_site_symmetry_2
Li0 O0 1.989174 1_555
Li1 O1 2.233329 1_665
O0 V1 1.848207 1_555
O0 V0 1.872931 1_555
O1 V5 1.837198 1_555
O1 V6 1.840245 1_555
F0 V1 1.975536 1_555
F0 V0 2.042321 1_545
F0 Li0 2.211029 1_545
F1 V4 1.976159 1_545
F1 V1 2.098015 1_555
F1 Li0 2.329563 1_545
F2 V2 1.973875 1_545
F2 V6 2.061666 1_655
F2 Li1 2.267109 1_545
F3 V3 1.965592 1_555
F3 V2 1.979797 1_545
F4 V6 2.002883 1_655
F4 V5 2.023516 1_555
F4 Li1 2.438947 1_545
F5 V4 1.971138 1_555
F5 V1 1.997711 1_555
F6 Li1 2.019830 1_555
F6 V2 2.039739 1_555
F6 V6 2.099307 1_655
F7 Li1 1.966378 1_555
F7 V4 2.014562 1_555
F7 V5 2.092531 1_665
F8 V7 1.973027 1_655
F8 V3 2.001990 1_555
F9 V0 1.980070 1_445
F9 V1 2.041889 1_555
F9 Li0 2.424669 1_545
F10 V2 1.957437 1_555
F10 V3 1.991286 1_555
F11 V4 1.973128 1_555
F11 V5 1.985115 1_555
F12 V7 1.966092 1_555
F12 V0 2.001234 1_556
F13 V2 1.959347 1_445
F13 V3 2.003567 1_555
F14 Li0 1.997934 1_555
F14 V4 2.011615 1_555
F14 V1 2.085505 1_455
F15 V2 1.977689 1_555
F15 V6 1.983216 1_555
F16 V3 1.948529 1_555
F16 V7 1.994323 1_555
F17 V4 1.949119 1_555
F17 V5 2.062579 1_565
F18 Li1 1.993401 1_555
F18 V5 2.025331 1_565
F18 V6 2.076687 1_555
F19 V7 1.956271 1_555
F19 V0 2.045474 1_446
F20 V3 1.974754 1_565
F20 V7 1.983033 1_555
F21 Li0 1.992328 1_556
F21 V7 2.019397 1_555
F21 V0 2.067990 1_456
