# generated using pymatgen
data_LiVBO3
_symmetry_space_group_name_H-M   'P 1'
_cell_length_a   4.62137782
_cell_length_b   8.54082664
_cell_length_c   6.32091211
_cell_angle_alpha   101.34189183
_cell_angle_beta   94.04189242
_cell_angle_gamma   88.62339196
_symmetry_Int_Tables_number   1
_chemical_formula_structural   LiVBO3
_chemical_formula_sum   'Li4 V4 B4 O12'
_cell_volume   243.99502409
_cell_formula_units_Z   4
loop_
 _symmetry_equiv_pos_site_id
 _symmetry_equiv_pos_as_xyz
  1  'x, y, z'
loop_
 _atom_site_type_symbol
 _atom_site_label
 _atom_site_symmetry_multiplicity
 _atom_site_fract_x
 _atom_site_fract_y
 _atom_site_fract_z
 _atom_site_occupancy
  Li  Li0  1  0.42451800  0.64451100  0.98188000  1
  Li  Li1  1  0.92456500  0.14452500  0.48190100  1
  Li  Li2  1  0.57543400  0.35547500  0.01809900  1
  Li  Li3  1  0.07548100  0.85548900  0.51811900  1
  V  V0  1  0.44757000  0.99597700  0.24692800  1
  V  V1  1  0.05243300  0.50402400  0.25307300  1
  V  V2  1  0.94733100  0.49596700  0.74692900  1
  V  V3  1  0.55267000  0.00403200  0.75307100  1
  B  B0  1  0.87215100  0.82259100  0.07909900  1
  B  B1  1  0.37211700  0.32260000  0.57910700  1
  B  B2  1  0.12788300  0.17740000  0.92089300  1
  B  B3  1  0.62784800  0.67740900  0.42090100  1
  O  O0  1  0.01640400  0.67705000  0.03685500  1
  O  O1  1  0.51640900  0.17706500  0.53687100  1
  O  O2  1  0.98359200  0.32293500  0.96313000  1
  O  O3  1  0.48359600  0.82295000  0.46314400  1
  O  O4  1  0.60315800  0.83762300  0.96973700  1
  O  O5  1  0.10313200  0.33763500  0.46975600  1
  O  O6  1  0.39686800  0.16236400  0.03024300  1
  O  O7  1  0.89684100  0.66237800  0.53026400  1
  O  O8  1  0.46384500  0.45023100  0.74419500  1
  O  O9  1  0.96385700  0.95023500  0.24418700  1
  O  O10  1  0.53614300  0.54976600  0.25581400  1
  O  O11  1  0.03615400  0.04976800  0.75580400  1
loop_
_geom_bond_atom_site_label_1
_geom_bond_atom_site_label_2
_geom_bond_distance
_geom_bond_site_symmetry_2
Li0 O4 1.879336 1_555
Li0 O0 1.945350 1_556
Li0 O8 2.021628 1_555
Li0 O10 2.079467 1_556
Li1 O5 1.879168 1_655
Li1 O1 1.945534 1_555
Li1 O9 2.021773 1_545
Li1 O11 2.079319 1_655
Li2 O6 1.879172 1_555
Li2 O2 1.945542 1_554
Li2 O10 2.021782 1_555
Li2 O8 2.079320 1_554
Li3 O7 1.879332 1_455
Li3 O3 1.945355 1_555
Li3 O11 2.021622 1_565
Li3 O9 2.079460 1_455
B0 O0 1.384050 1_655
B0 O4 1.394910 1_554
B0 O9 1.403362 1_555
B1 O1 1.384090 1_555
B1 O5 1.394852 1_555
B1 O8 1.403318 1_555
B2 O2 1.384088 1_455
B2 O6 1.394850 1_556
B2 O11 1.403329 1_555
B3 O3 1.384048 1_555
B3 O7 1.394912 1_555
B3 O10 1.403352 1_555
O0 V2 2.163037 1_454
O0 V1 2.197708 1_555
O1 V0 2.163022 1_545
O1 V3 2.197687 1_555
O2 V1 2.163027 1_656
O2 V2 2.197685 1_555
O3 V3 2.163037 1_565
O3 V0 2.197705 1_555
O4 V0 2.148224 1_556
O4 V3 2.157468 1_565
O5 V2 2.148427 1_455
O5 V1 2.157463 1_555
O6 V3 2.148424 1_554
O6 V0 2.157460 1_545
O7 V1 2.148231 1_655
O7 V2 2.157477 1_555
O8 V2 2.275772 1_555
O8 V2 2.410196 1_455
O9 V0 2.276812 1_655
O9 V0 2.409169 1_555
O10 V1 2.276798 1_555
O10 V1 2.409183 1_655
O11 V3 2.275764 1_455
O11 V3 2.410205 1_555
