# generated using pymatgen
data_Y2Bi2O7
_symmetry_space_group_name_H-M   'P 1'
_cell_length_a   7.73400588
_cell_length_b   7.73400588
_cell_length_c   7.73400588
_cell_angle_alpha   60.00000000
_cell_angle_beta   60.00000000
_cell_angle_gamma   60.00000000
_symmetry_Int_Tables_number   1
_chemical_formula_structural   Y2Bi2O7
_chemical_formula_sum   'Y4 Bi4 O14'
_cell_volume   327.11352052
_cell_formula_units_Z   2
loop_
 _symmetry_equiv_pos_site_id
 _symmetry_equiv_pos_as_xyz
  1  'x, y, z'
loop_
 _atom_site_type_symbol
 _atom_site_label
 _atom_site_symmetry_multiplicity
 _atom_site_fract_x
 _atom_site_fract_y
 _atom_site_fract_z
 _atom_site_occupancy
  Y  Y0  1  0.62500000  0.12500000  0.62500000  1
  Y  Y1  1  0.62500000  0.62500000  0.12500000  1
  Y  Y2  1  0.12500000  0.62500000  0.62500000  1
  Y  Y3  1  0.62500000  0.62500000  0.62500000  1
  Bi  Bi0  1  0.12500000  0.12500000  0.12500000  1
  Bi  Bi1  1  0.62500000  0.12500000  0.12500000  1
  Bi  Bi2  1  0.12500000  0.12500000  0.62500000  1
  Bi  Bi3  1  0.12500000  0.62500000  0.12500000  1
  O  O0  1  0.77208000  0.22792000  0.22792000  1
  O  O1  1  0.02208000  0.47792000  0.47792000  1
  O  O2  1  0.22792000  0.22792000  0.77208000  1
  O  O3  1  0.77208000  0.77208000  0.22792000  1
  O  O4  1  0.50000000  0.50000000  0.50000000  1
  O  O5  1  0.77208000  0.22792000  0.77208000  1
  O  O6  1  0.22792000  0.77208000  0.22792000  1
  O  O7  1  0.47792000  0.02208000  0.47792000  1
  O  O8  1  0.02208000  0.02208000  0.47792000  1
  O  O9  1  0.47792000  0.47792000  0.02208000  1
  O  O10  1  0.75000000  0.75000000  0.75000000  1
  O  O11  1  0.02208000  0.47792000  0.02208000  1
  O  O12  1  0.22792000  0.77208000  0.77208000  1
  O  O13  1  0.47792000  0.02208000  0.02208000  1
loop_
_geom_bond_atom_site_label_1
_geom_bond_atom_site_label_2
_geom_bond_distance
_geom_bond_site_symmetry_2
Bi0 O6 2.237322 1_545
Bi0 O2 2.237322 1_554
Bi0 O8 2.237322 1_555
Bi0 O0 2.237322 1_455
Bi0 O11 2.237322 1_555
Bi0 O13 2.237322 1_555
Bi1 O7 2.237322 1_555
Bi1 O13 2.237322 1_555
Bi1 O3 2.237322 1_545
Bi1 O5 2.237322 1_554
Bi1 O0 2.237322 1_555
Bi1 O9 2.237322 1_555
Bi2 O8 2.237322 1_555
Bi2 O1 2.237322 1_555
Bi2 O12 2.237322 1_545
Bi2 O2 2.237322 1_555
Bi2 O5 2.237322 1_455
Bi2 O7 2.237322 1_555
Bi3 O11 2.237322 1_555
Bi3 O1 2.237322 1_555
Bi3 O3 2.237322 1_455
Bi3 O12 2.237322 1_554
Bi3 O6 2.237322 1_555
Bi3 O9 2.237322 1_555
O0 Y0 2.515218 1_555
O0 Y1 2.515218 1_555
O1 Y2 2.515218 1_555
O1 Y3 2.515218 1_455
O2 Y2 2.515218 1_555
O2 Y0 2.515218 1_555
O3 Y3 2.515218 1_555
O3 Y1 2.515218 1_555
O4 Y1 2.368046 1_555
O4 Y3 2.368046 1_555
O4 Y2 2.368046 1_555
O4 Y0 2.368046 1_555
O5 Y3 2.515218 1_555
O5 Y0 2.515218 1_555
O6 Y2 2.515218 1_555
O6 Y1 2.515218 1_555
O7 Y0 2.515218 1_555
O7 Y3 2.515218 1_545
O8 Y2 2.515218 1_545
O8 Y0 2.515218 1_455
O9 Y3 2.515218 1_554
O9 Y1 2.515218 1_555
O10 Y2 2.368046 1_655
O10 Y3 2.368046 1_555
O10 Y1 2.368046 1_556
O10 Y0 2.368046 1_565
O11 Y1 2.515218 1_455
O11 Y2 2.515218 1_554
O12 Y3 2.515218 1_555
O12 Y2 2.515218 1_555
O13 Y1 2.515218 1_545
O13 Y0 2.515218 1_554
