# generated using pymatgen
data_Li5Fe8(BO3)8
_symmetry_space_group_name_H-M   'P 1'
_cell_length_a   5.27073200
_cell_length_b   9.08123862
_cell_length_c   11.30262472
_cell_angle_alpha   113.05888185
_cell_angle_beta   102.77246269
_cell_angle_gamma   89.70714871
_symmetry_Int_Tables_number   1
_chemical_formula_structural   Li5Fe8(BO3)8
_chemical_formula_sum   'Li5 Fe8 B8 O24'
_cell_volume   483.45088757
_cell_formula_units_Z   1
loop_
 _symmetry_equiv_pos_site_id
 _symmetry_equiv_pos_as_xyz
  1  'x, y, z'
loop_
 _atom_site_type_symbol
 _atom_site_label
 _atom_site_symmetry_multiplicity
 _atom_site_fract_x
 _atom_site_fract_y
 _atom_site_fract_z
 _atom_site_occupancy
  Li  Li0  1  0.16688800  0.84083500  0.65562300  1
  Li  Li1  1  0.61021900  0.95405900  0.91493400  1
  Li  Li2  1  0.93325000  0.56910300  0.16797900  1
  Li  Li3  1  0.11295200  0.44516300  0.90172400  1
  Li  Li4  1  0.65597400  0.32657000  0.63712600  1
  Fe  Fe0  1  0.41271200  0.73088300  0.13343200  1
  Fe  Fe1  1  0.09526800  0.76966500  0.87747300  1
  Fe  Fe2  1  0.84626200  0.86076200  0.38132300  1
  Fe  Fe3  1  0.64551000  0.65767300  0.62347700  1
  Fe  Fe4  1  0.35098000  0.35273800  0.37225300  1
  Fe  Fe5  1  0.14837900  0.15752300  0.62636700  1
  Fe  Fe6  1  0.90184400  0.21886200  0.13744300  1
  Fe  Fe7  1  0.60062600  0.27687900  0.88274000  1
  B  B0  1  0.64598200  0.98719800  0.63044200  1
  B  B1  1  0.89382800  0.88476400  0.12039700  1
  B  B2  1  0.15249600  0.48879800  0.63467100  1
  B  B3  1  0.39928400  0.40052000  0.12797500  1
  B  B4  1  0.84957400  0.51868300  0.37747800  1
  B  B5  1  0.60463400  0.60466700  0.87195600  1
  B  B6  1  0.35492400  0.02625900  0.38297900  1
  B  B7  1  0.09493300  0.10229500  0.87875900  1
  O  O0  1  0.11627100  0.84847500  0.06964600  1
  O  O1  1  0.47678500  0.88422500  0.34085800  1
  O  O2  1  0.21753100  0.96048300  0.86109200  1
  O  O3  1  0.51232600  0.86464000  0.63859000  1
  O  O4  1  0.88107900  0.96012300  0.58650200  1
  O  O5  1  0.81503000  0.78193600  0.17526000  1
  O  O6  1  0.24951500  0.51755500  0.10547900  1
  O  O7  1  0.05871900  0.64359900  0.67416700  1
  O  O8  1  0.71090700  0.72513400  0.84308400  1
  O  O9  1  0.62395800  0.52251600  0.42200400  1
  O  O10  1  0.94168700  0.65080500  0.36323300  1
  O  O11  1  0.36534000  0.62696300  0.90818700  1
  O  O12  1  0.64425800  0.38249100  0.09851300  1
  O  O13  1  0.38363700  0.46703200  0.59114600  1
  O  O14  1  0.29918200  0.30012200  0.17682700  1
  O  O15  1  0.98034800  0.38096400  0.34744100  1
  O  O16  1  0.73296900  0.47275700  0.86575200  1
  O  O17  1  0.20429300  0.21803200  0.84840600  1
  O  O18  1  0.12052700  0.02268100  0.41935800  1
  O  O19  1  0.46715900  0.16647000  0.39300700  1
  O  O20  1  0.01976600  0.36823100  0.64517800  1
  O  O21  1  0.75383800  0.00563600  0.10968900  1
  O  O22  1  0.55477300  0.13882800  0.66616000  1
  O  O23  1  0.86413200  0.12128600  0.91982900  1
loop_
_geom_bond_atom_site_label_1
_geom_bond_atom_site_label_2
_geom_bond_distance
_geom_bond_site_symmetry_2
Li0 O3 1.894834 1_555
Li0 O7 1.983569 1_555
Li0 O4 2.044277 1_455
Li0 O2 2.096976 1_555
Li1 O23 2.005637 1_565
Li1 O21 2.024121 1_566
Li1 O8 2.029734 1_555
Li1 O2 2.031569 1_555
Li2 O6 1.936626 1_655
Li2 O5 2.004112 1_555
Li2 O10 2.024125 1_555
Li2 O12 2.064893 1_555
Li3 O16 1.988441 1_455
Li3 O17 1.998451 1_555
Li3 O6 2.083227 1_556
Li3 O11 2.094197 1_555
Li4 O20 1.931662 1_655
Li4 O22 1.955496 1_555
Li4 O13 2.031824 1_555
Li4 O16 2.336464 1_555
Li4 O19 2.524978 1_555
Fe0 O6 2.002542 1_555
Fe0 O0 2.046799 1_555
Fe0 O5 2.080890 1_555
Fe0 O1 2.155683 1_555
Fe0 O11 2.296438 1_554
Fe1 O2 1.941099 1_555
Fe1 O0 1.979662 1_556
Fe1 O11 1.985256 1_555
Fe1 O8 1.988923 1_455
Fe1 O7 2.091367 1_555
Fe2 O10 1.913228 1_555
Fe2 O18 1.920527 1_665
Fe2 O1 1.930098 1_555
Fe2 O4 2.097672 1_555
Fe2 O5 2.118883 1_555
Fe3 O3 1.960247 1_555
Fe3 O13 2.083683 1_555
Fe3 O9 2.098214 1_555
Fe3 O7 2.142589 1_655
Fe3 O8 2.255614 1_555
Fe4 O19 1.878309 1_555
Fe4 O9 1.936299 1_555
Fe4 O15 1.941515 1_455
Fe4 O14 2.022298 1_555
Fe4 O13 2.242739 1_555
Fe5 O20 1.974322 1_555
Fe5 O22 2.109354 1_555
Fe5 O4 2.124587 1_445
Fe5 O18 2.144999 1_555
Fe5 O17 2.298124 1_555
Fe6 O21 1.971763 1_555
Fe6 O12 2.114793 1_555
Fe6 O14 2.115400 1_655
Fe6 O15 2.192441 1_555
Fe6 O23 2.225467 1_554
Fe7 O16 2.006758 1_555
Fe7 O23 2.070676 1_555
Fe7 O17 2.071346 1_555
Fe7 O12 2.200561 1_556
Fe7 O22 2.227086 1_555
B0 O3 1.363989 1_555
B0 O22 1.390599 1_565
B0 O4 1.419820 1_555
B1 O21 1.349165 1_565
B1 O0 1.399138 1_655
B1 O5 1.414370 1_555
B2 O20 1.359685 1_555
B2 O13 1.397018 1_555
B2 O7 1.420802 1_555
B3 O6 1.389874 1_555
B3 O14 1.393773 1_555
B3 O12 1.396465 1_555
B4 O10 1.375892 1_555
B4 O15 1.384397 1_555
B4 O9 1.385300 1_555
B5 O16 1.358060 1_555
B5 O11 1.400094 1_555
B5 O8 1.408475 1_555
B6 O19 1.359801 1_555
B6 O18 1.389940 1_555
B6 O1 1.395922 1_545
B7 O23 1.381991 1_455
B7 O17 1.389498 1_555
B7 O2 1.401080 1_545
