# generated using pymatgen
data_Li3NiPCO7
_symmetry_space_group_name_H-M   'P 1'
_cell_length_a   6.32910800
_cell_length_b   9.41178100
_cell_length_c   9.74443610
_cell_angle_alpha   63.96928575
_cell_angle_beta   90.00000000
_cell_angle_gamma   90.00000000
_symmetry_Int_Tables_number   1
_chemical_formula_structural   Li3NiPCO7
_chemical_formula_sum   'Li12 Ni4 P4 C4 O28'
_cell_volume   521.57599185
_cell_formula_units_Z   4
loop_
 _symmetry_equiv_pos_site_id
 _symmetry_equiv_pos_as_xyz
  1  'x, y, z'
loop_
 _atom_site_type_symbol
 _atom_site_label
 _atom_site_symmetry_multiplicity
 _atom_site_fract_x
 _atom_site_fract_y
 _atom_site_fract_z
 _atom_site_occupancy
  Li  Li0  1  0.24996400  0.09994600  0.31695800  1
  Li  Li1  1  0.25003600  0.09994600  0.81695800  1
  Li  Li2  1  0.00925800  0.27818600  0.49144000  1
  Li  Li3  1  0.49074200  0.27818600  0.99144000  1
  Li  Li4  1  0.75150600  0.34760600  0.68627400  1
  Li  Li5  1  0.74849400  0.34760600  0.18627400  1
  Li  Li6  1  0.24849400  0.65239400  0.31372600  1
  Li  Li7  1  0.25150600  0.65239400  0.81372600  1
  Li  Li8  1  0.99074200  0.72181400  0.50856000  1
  Li  Li9  1  0.50925800  0.72181400  0.00856000  1
  Li  Li10  1  0.75003600  0.90005400  0.68304200  1
  Li  Li11  1  0.74996400  0.90005400  0.18304200  1
  Ni  Ni0  1  0.49058100  0.27427200  0.48756300  1
  Ni  Ni1  1  0.00941900  0.27427200  0.98756300  1
  Ni  Ni2  1  0.50941900  0.72572800  0.51243700  1
  Ni  Ni3  1  0.99058100  0.72572800  0.01243700  1
  P  P0  1  0.24783800  0.40908600  0.68492800  1
  P  P1  1  0.25216200  0.40908600  0.18492800  1
  P  P2  1  0.75216200  0.59091400  0.31507200  1
  P  P3  1  0.74783800  0.59091400  0.81507200  1
  C  C0  1  0.74022000  0.03885300  0.37845100  1
  C  C1  1  0.75978000  0.03885300  0.87845100  1
  C  C2  1  0.25978000  0.96114700  0.62154900  1
  C  C3  1  0.24022000  0.96114700  0.12154900  1
  O  O0  1  0.74860000  0.06906100  0.73808000  1
  O  O1  1  0.75140000  0.06906100  0.23808000  1
  O  O2  1  0.26498700  0.10992100  0.51495700  1
  O  O3  1  0.73952200  0.14929000  0.42350200  1
  O  O4  1  0.23501300  0.10992100  0.01495700  1
  O  O5  1  0.76047800  0.14929000  0.92350200  1
  O  O6  1  0.05436000  0.31572100  0.67562200  1
  O  O7  1  0.44102300  0.30852500  0.67963000  1
  O  O8  1  0.05897700  0.30852500  0.17963000  1
  O  O9  1  0.44564000  0.31572100  0.17562200  1
  O  O10  1  0.74098000  0.42043900  0.44476500  1
  O  O11  1  0.25578400  0.41921400  0.34099100  1
  O  O12  1  0.75902000  0.42043900  0.94476500  1
  O  O13  1  0.24421600  0.41921400  0.84099100  1
  O  O14  1  0.74421600  0.58078600  0.65900900  1
  O  O15  1  0.25902000  0.57956100  0.55523500  1
  O  O16  1  0.75578400  0.58078600  0.15900900  1
  O  O17  1  0.24098000  0.57956100  0.05523500  1
  O  O18  1  0.94564000  0.68427900  0.32437800  1
  O  O19  1  0.55897700  0.69147500  0.32037000  1
  O  O20  1  0.94102300  0.69147500  0.82037000  1
  O  O21  1  0.55436000  0.68427900  0.82437800  1
  O  O22  1  0.26047800  0.85071000  0.57649800  1
  O  O23  1  0.73501300  0.89007900  0.48504300  1
  O  O24  1  0.23952200  0.85071000  0.07649800  1
  O  O25  1  0.76498700  0.89007900  0.98504300  1
  O  O26  1  0.25140000  0.93093900  0.26192000  1
  O  O27  1  0.24860000  0.93093900  0.76192000  1
loop_
_geom_bond_atom_site_label_1
_geom_bond_atom_site_label_2
_geom_bond_distance
_geom_bond_site_symmetry_2
Li0 O26 1.888563 1_545
Li0 O2 1.974685 1_555
Li0 O8 2.190871 1_555
Li0 O9 2.258303 1_555
Li1 O27 1.888563 1_545
Li1 O4 1.974685 1_556
Li1 O7 2.190871 1_555
Li1 O6 2.258303 1_555
Li2 O6 1.995973 1_555
Li2 O10 2.085184 1_455
Li2 O11 2.153516 1_555
Li2 O2 2.204918 1_555
Li2 O3 2.351462 1_455
Li3 O9 1.995973 1_556
Li3 O12 2.085184 1_555
Li3 O13 2.153516 1_555
Li3 O4 2.204918 1_556
Li3 O5 2.351462 1_555
Li4 O6 1.949943 1_655
Li4 O7 2.005474 1_555
Li4 O14 2.092221 1_555
Li4 O10 2.144005 1_555
Li4 O5 2.245832 1_555
Li4 O0 2.442622 1_555
Li5 O9 1.949943 1_555
Li5 O8 2.005474 1_655
Li5 O16 2.092221 1_555
Li5 O12 2.144005 1_554
Li5 O3 2.245832 1_555
Li5 O1 2.442622 1_555
Li6 O18 1.949943 1_455
Li6 O19 2.005474 1_555
Li6 O11 2.092221 1_555
Li6 O15 2.144005 1_555
Li6 O24 2.245832 1_555
Li6 O26 2.442622 1_555
Li7 O21 1.949943 1_555
Li7 O20 2.005474 1_455
Li7 O13 2.092221 1_555
Li7 O17 2.144005 1_556
Li7 O22 2.245832 1_555
Li7 O27 2.442622 1_555
Li8 O18 1.995973 1_555
Li8 O15 2.085184 1_655
Li8 O14 2.153516 1_555
Li8 O23 2.204918 1_555
Li8 O22 2.351462 1_655
Li9 O21 1.995973 1_554
Li9 O17 2.085184 1_555
Li9 O16 2.153516 1_555
Li9 O25 2.204918 1_554
Li9 O24 2.351462 1_555
Li10 O0 1.888563 1_565
Li10 O23 1.974685 1_555
Li10 O20 2.190871 1_555
Li10 O21 2.258303 1_555
Li11 O1 1.888563 1_565
Li11 O25 1.974685 1_554
Li11 O19 2.190871 1_555
Li11 O18 2.258303 1_555
Ni0 O10 2.018537 1_555
Ni0 O2 2.034743 1_555
Ni0 O7 2.057843 1_555
Ni0 O11 2.097409 1_555
Ni0 O3 2.213660 1_555
Ni1 O12 2.018537 1_455
Ni1 O4 2.034743 1_556
Ni1 O8 2.057843 1_556
Ni1 O13 2.097409 1_555
Ni1 O5 2.213660 1_455
Ni2 O15 2.018537 1_555
Ni2 O23 2.034743 1_555
Ni2 O19 2.057843 1_555
Ni2 O14 2.097409 1_555
Ni2 O22 2.213660 1_555
Ni3 O17 2.018537 1_655
Ni3 O25 2.034743 1_554
Ni3 O20 2.057843 1_554
Ni3 O16 2.097409 1_555
Ni3 O24 2.213660 1_655
C0 O1 1.271017 1_555
C0 O3 1.293678 1_555
C0 O23 1.328177 1_545
C1 O0 1.271017 1_555
C1 O5 1.293678 1_555
C1 O25 1.328177 1_545
C2 O27 1.271017 1_555
C2 O22 1.293678 1_555
C2 O2 1.328177 1_565
C3 O26 1.271017 1_555
C3 O24 1.293678 1_555
C3 O4 1.328177 1_565
O6 P0 1.532918 1_555
O7 P0 1.560866 1_555
O8 P1 1.560866 1_555
O9 P1 1.532918 1_555
O10 P2 1.548149 1_555
O11 P1 1.565092 1_555
O12 P3 1.548149 1_555
O13 P0 1.565092 1_555
O14 P3 1.565092 1_555
O15 P0 1.548149 1_555
O16 P2 1.565092 1_555
O17 P1 1.548149 1_555
O18 P2 1.532918 1_555
O19 P2 1.560866 1_555
O20 P3 1.560866 1_555
O21 P3 1.532918 1_555
