# generated using pymatgen
data_Sn(PO3)3
_symmetry_space_group_name_H-M   'P 1'
_cell_length_a   8.78637500
_cell_length_b   8.79166400
_cell_length_c   9.34282800
_cell_angle_alpha   90.00000000
_cell_angle_beta   90.00000000
_cell_angle_gamma   90.00000000
_symmetry_Int_Tables_number   1
_chemical_formula_structural   Sn(PO3)3
_chemical_formula_sum   'Sn4 P12 O36'
_cell_volume   721.70409642
_cell_formula_units_Z   4
loop_
 _symmetry_equiv_pos_site_id
 _symmetry_equiv_pos_as_xyz
  1  'x, y, z'
loop_
 _atom_site_type_symbol
 _atom_site_label
 _atom_site_symmetry_multiplicity
 _atom_site_fract_x
 _atom_site_fract_y
 _atom_site_fract_z
 _atom_site_occupancy
  Sn  Sn0  1  0.65387300  0.62891900  0.60734400  1
  Sn  Sn1  1  0.84612700  0.37108100  0.10734400  1
  Sn  Sn2  1  0.34612700  0.12891900  0.89265600  1
  Sn  Sn3  1  0.15387300  0.87108100  0.39265600  1
  P  P0  1  0.80597500  0.69428200  0.92671000  1
  P  P1  1  0.03335000  0.68141400  0.69031000  1
  P  P2  1  0.19505300  0.52593600  0.19342800  1
  P  P3  1  0.30494700  0.47406400  0.69342800  1
  P  P4  1  0.46665000  0.31858600  0.19031000  1
  P  P5  1  0.69402500  0.30571800  0.42671000  1
  P  P6  1  0.19402500  0.19428200  0.57329000  1
  P  P7  1  0.96665000  0.18141400  0.80969000  1
  P  P8  1  0.80494700  0.02593600  0.30657200  1
  P  P9  1  0.69505300  0.97406400  0.80657200  1
  P  P10  1  0.53335000  0.81858600  0.30969000  1
  P  P11  1  0.30597500  0.80571800  0.07329000  1
  O  O0  1  0.96572800  0.72757000  0.84487900  1
  O  O1  1  0.62721000  0.68856100  0.36658200  1
  O  O2  1  0.84050300  0.63174700  0.07279200  1
  O  O3  1  0.90789100  0.62220500  0.59504100  1
  O  O4  1  0.24054600  0.63497100  0.05794400  1
  O  O5  1  0.40341600  0.59987800  0.63565700  1
  O  O6  1  0.13975700  0.62023800  0.31703600  1
  O  O7  1  0.69903700  0.59939500  0.83626300  1
  O  O8  1  0.14208200  0.54306500  0.73880600  1
  O  O9  1  0.35791800  0.45693500  0.23880600  1
  O  O10  1  0.80096300  0.40060500  0.33626300  1
  O  O11  1  0.36024300  0.37976200  0.81703600  1
  O  O12  1  0.09658400  0.40012200  0.13565700  1
  O  O13  1  0.25945400  0.36502900  0.55794400  1
  O  O14  1  0.59210900  0.37779500  0.09504100  1
  O  O15  1  0.65949700  0.36825300  0.57279200  1
  O  O16  1  0.87279000  0.31143900  0.86658200  1
  O  O17  1  0.53427200  0.27243000  0.34487900  1
  O  O18  1  0.03427200  0.22757000  0.65512100  1
  O  O19  1  0.37279000  0.18856100  0.13341800  1
  O  O20  1  0.15949700  0.13174700  0.42720800  1
  O  O21  1  0.09210900  0.12220500  0.90495900  1
  O  O22  1  0.75945400  0.13497100  0.44205600  1
  O  O23  1  0.59658400  0.09987800  0.86434300  1
  O  O24  1  0.86024300  0.12023800  0.18296400  1
  O  O25  1  0.30096300  0.09939500  0.66373700  1
  O  O26  1  0.85791800  0.04306500  0.76119400  1
  O  O27  1  0.64208200  0.95693500  0.26119400  1
  O  O28  1  0.19903700  0.90060500  0.16373700  1
  O  O29  1  0.63975700  0.87976200  0.68296400  1
  O  O30  1  0.90341600  0.90012200  0.36434300  1
  O  O31  1  0.74054600  0.86502900  0.94205600  1
  O  O32  1  0.40789100  0.87779500  0.40495900  1
  O  O33  1  0.34050300  0.86825300  0.92720800  1
  O  O34  1  0.12721000  0.81143900  0.63341800  1
  O  O35  1  0.46572800  0.77243000  0.15512100  1
loop_
_geom_bond_atom_site_label_1
_geom_bond_atom_site_label_2
_geom_bond_distance
_geom_bond_site_symmetry_2
O0 P1 1.613425 1_655
O0 P0 1.624928 1_555
O1 P10 1.506452 1_555
O1 Sn0 2.321555 1_555
O2 P0 1.502343 1_554
O2 Sn1 2.314840 1_555
O3 P1 1.509419 1_655
O3 Sn0 2.235635 1_555
O4 P11 1.613846 1_555
O4 P2 1.637360 1_555
O5 P3 1.504447 1_555
O5 Sn0 2.231108 1_555
O6 P2 1.502360 1_555
O6 Sn3 2.319052 1_555
O7 P0 1.514211 1_555
O7 Sn0 2.190685 1_555
O8 P3 1.611051 1_555
O8 P1 1.611655 1_555
O9 P2 1.611051 1_555
O9 P4 1.611655 1_555
O10 P5 1.514211 1_555
O10 Sn1 2.190685 1_555
O11 P3 1.502360 1_555
O11 Sn2 2.319052 1_555
O12 P2 1.504447 1_555
O12 Sn1 2.231108 1_455
O13 P6 1.613846 1_555
O13 P3 1.637360 1_555
O14 P4 1.509419 1_555
O14 Sn1 2.235635 1_555
O15 P5 1.502343 1_555
O15 Sn0 2.314840 1_555
O16 P7 1.506452 1_555
O16 Sn1 2.321555 1_556
O17 P4 1.613425 1_555
O17 P5 1.624928 1_555
O18 P7 1.613425 1_455
O18 P6 1.624928 1_555
O19 P4 1.506452 1_555
O19 Sn2 2.321555 1_554
O20 P6 1.502343 1_555
O20 Sn3 2.314840 1_545
O21 P7 1.509419 1_455
O21 Sn2 2.235635 1_555
O22 P5 1.613846 1_555
O22 P8 1.637360 1_555
O23 P9 1.504447 1_545
O23 Sn2 2.231108 1_555
O24 P8 1.502360 1_555
O24 Sn1 2.319052 1_555
O25 P6 1.514211 1_555
O25 Sn2 2.190685 1_555
O26 P9 1.611051 1_545
O26 P7 1.611655 1_555
O27 P8 1.611051 1_565
O27 P10 1.611655 1_555
O28 P11 1.514211 1_555
O28 Sn3 2.190685 1_555
O29 P9 1.502360 1_555
O29 Sn0 2.319052 1_555
O30 P8 1.504447 1_565
O30 Sn3 2.231108 1_655
O31 P0 1.613846 1_555
O31 P9 1.637360 1_555
O32 P10 1.509419 1_555
O32 Sn3 2.235635 1_555
O33 P11 1.502343 1_556
O33 Sn2 2.314840 1_565
O34 P1 1.506452 1_555
O34 Sn3 2.321555 1_555
O35 P10 1.613425 1_555
O35 P11 1.624928 1_555
