# generated using pymatgen
data_Li4Fe3Co2Cu3O16
_symmetry_space_group_name_H-M   'P 1'
_cell_length_a   5.82924843
_cell_length_b   5.83946928
_cell_length_c   9.28001999
_cell_angle_alpha   89.99367237
_cell_angle_beta   89.59279109
_cell_angle_gamma   120.08532346
_symmetry_Int_Tables_number   1
_chemical_formula_structural   Li4Fe3Co2Cu3O16
_chemical_formula_sum   'Li4 Fe3 Co2 Cu3 O16'
_cell_volume   273.32324333
_cell_formula_units_Z   1
loop_
 _symmetry_equiv_pos_site_id
 _symmetry_equiv_pos_as_xyz
  1  'x, y, z'
loop_
 _atom_site_type_symbol
 _atom_site_label
 _atom_site_symmetry_multiplicity
 _atom_site_fract_x
 _atom_site_fract_y
 _atom_site_fract_z
 _atom_site_occupancy
  Li  Li0  1  0.32217800  0.66056200  0.89751400  1
  Li  Li1  1  0.00595700  0.00294700  0.99500800  1
  Li  Li2  1  0.01290100  0.00686100  0.48963300  1
  Li  Li3  1  0.66374500  0.33203700  0.39522800  1
  Fe  Fe0  1  0.66052700  0.83007000  0.21252600  1
  Fe  Fe1  1  0.82788900  0.65920400  0.71330100  1
  Fe  Fe2  1  0.82797200  0.16898100  0.71334500  1
  Co  Co0  1  0.33541300  0.66792300  0.48484500  1
  Co  Co1  1  0.66038900  0.33001600  0.98657300  1
  Cu  Cu0  1  0.17031000  0.82534500  0.21104900  1
  Cu  Cu1  1  0.17030300  0.34487600  0.21102400  1
  Cu  Cu2  1  0.34397300  0.17163600  0.71038700  1
  O  O0  1  0.16718800  0.82364400  0.59309800  1
  O  O1  1  0.04537300  0.52296000  0.35381800  1
  O  O2  1  0.32705400  0.66321000  0.10750100  1
  O  O3  1  0.01464700  0.00769900  0.29634200  1
  O  O4  1  0.01510500  0.00780100  0.80230900  1
  O  O5  1  0.16694400  0.34465900  0.59310900  1
  O  O6  1  0.48053200  0.95582200  0.35197600  1
  O  O7  1  0.48029200  0.52467100  0.35235100  1
  O  O8  1  0.34636300  0.17289500  0.09219000  1
  O  O9  1  0.66048100  0.83036100  0.59834700  1
  O  O10  1  0.52003200  0.47838400  0.85220000  1
  O  O11  1  0.52087000  0.04081600  0.85263400  1
  O  O12  1  0.65813600  0.32894800  0.60411200  1
  O  O13  1  0.82179600  0.65539800  0.09458500  1
  O  O14  1  0.95173000  0.47609000  0.84843700  1
  O  O15  1  0.82190400  0.16648500  0.09439700  1
loop_
_geom_bond_atom_site_label_1
_geom_bond_atom_site_label_2
_geom_bond_distance
_geom_bond_site_symmetry_2
Li0 O14 1.926884 1_455
Li0 O2 1.949043 1_556
Li0 O11 1.964682 1_565
Li0 O10 1.965213 1_555
Li1 O4 1.788464 1_555
Li1 O8 1.946024 1_556
Li1 O13 1.981514 1_446
Li1 O15 1.981697 1_456
Li2 O3 1.793693 1_555
Li2 O0 1.962705 1_545
Li2 O5 1.963735 1_555
Li2 O9 2.036645 1_445
Li3 O12 1.938420 1_555
Li3 O7 1.944035 1_555
Li3 O6 1.944746 1_545
Li3 O1 1.959768 1_655
Fe0 O2 1.950955 1_555
Fe0 O3 1.954062 1_665
Fe0 O6 2.016977 1_555
Fe0 O13 2.017179 1_555
Fe0 O7 2.017314 1_555
Fe0 O15 2.019398 1_565
Fe1 O4 1.950115 1_665
Fe1 O12 1.956150 1_555
Fe1 O14 2.005911 1_555
Fe1 O10 2.015924 1_555
Fe1 O9 2.020314 1_555
Fe1 O0 2.035333 1_655
Fe2 O4 1.949203 1_655
Fe2 O12 1.954868 1_555
Fe2 O14 2.006109 1_555
Fe2 O11 2.014776 1_555
Fe2 O9 2.020346 1_545
Fe2 O5 2.034183 1_655
Co0 O7 1.902246 1_555
Co0 O6 1.902945 1_555
Co0 O1 1.910011 1_555
Co0 O5 1.914203 1_555
Co0 O0 1.917788 1_555
Co0 O9 1.956116 1_555
Co1 O8 1.855740 1_556
Co1 O11 1.922542 1_555
Co1 O10 1.923529 1_555
Co1 O15 1.927210 1_556
Co1 O13 1.929165 1_556
Co1 O14 1.942045 1_555
Cu0 O2 1.873406 1_555
Cu0 O3 1.882152 1_565
Cu0 O1 2.024886 1_555
Cu0 O6 2.052682 1_555
Cu0 O8 2.069781 1_565
Cu0 O13 2.071321 1_455
Cu1 O2 1.870179 1_555
Cu1 O3 1.877547 1_555
Cu1 O1 2.028201 1_555
Cu1 O7 2.054156 1_555
Cu1 O15 2.071601 1_455
Cu1 O8 2.072557 1_555
Cu2 O4 1.858990 1_555
Cu2 O12 1.859515 1_555
Cu2 O10 2.042156 1_555
Cu2 O11 2.048984 1_555
Cu2 O0 2.071954 1_545
Cu2 O5 2.081173 1_555
