# generated using pymatgen
data_Na5Cu7O13
_symmetry_space_group_name_H-M   'P 1'
_cell_length_a   6.81287100
_cell_length_b   6.86750820
_cell_length_c   7.60901793
_cell_angle_alpha   98.48896816
_cell_angle_beta   99.74751376
_cell_angle_gamma   103.82430973
_symmetry_Int_Tables_number   1
_chemical_formula_structural   Na5Cu7O13
_chemical_formula_sum   'Na5 Cu7 O13'
_cell_volume   334.05954526
_cell_formula_units_Z   1
loop_
 _symmetry_equiv_pos_site_id
 _symmetry_equiv_pos_as_xyz
  1  'x, y, z'
loop_
 _atom_site_type_symbol
 _atom_site_label
 _atom_site_symmetry_multiplicity
 _atom_site_fract_x
 _atom_site_fract_y
 _atom_site_fract_z
 _atom_site_occupancy
  Na  Na0  1  0.08058000  0.58193800  0.82523300  1
  Na  Na1  1  0.77718700  0.27597100  0.45693400  1
  Na  Na2  1  0.35554800  0.84812200  0.29481400  1
  Na  Na3  1  0.92619400  0.43220500  0.14434100  1
  Na  Na4  1  0.51367400  0.01049600  0.97100100  1
  Cu  Cu0  1  0.00449100  0.00642800  0.00633600  1
  Cu  Cu1  1  0.57013800  0.56855600  0.85445100  1
  Cu  Cu2  1  0.14187400  0.14260000  0.71854900  1
  Cu  Cu3  1  0.71119800  0.71609100  0.57003300  1
  Cu  Cu4  1  0.29212500  0.29908000  0.43571900  1
  Cu  Cu5  1  0.85243700  0.85543000  0.28410100  1
  Cu  Cu6  1  0.42511600  0.42597200  0.14063600  1
  O  O0  1  0.57392000  0.35600000  0.97299200  1
  O  O1  1  0.00151400  0.22801400  0.90162700  1
  O  O2  1  0.15014500  0.93117700  0.83668000  1
  O  O3  1  0.57117500  0.78526000  0.74196500  1
  O  O4  1  0.13477900  0.33930400  0.59309800  1
  O  O5  1  0.71710000  0.49959700  0.68487100  1
  O  O6  1  0.70452800  0.92932800  0.45090900  1
  O  O7  1  0.27573300  0.50725500  0.29949100  1
  O  O8  1  0.84726900  0.63584800  0.39601900  1
  O  O9  1  0.43318100  0.21205500  0.26538400  1
  O  O10  1  0.85160800  0.07538300  0.17335400  1
  O  O11  1  0.00851300  0.78730400  0.12016000  1
  O  O12  1  0.42043300  0.64236800  0.02153900  1
loop_
_geom_bond_atom_site_label_1
_geom_bond_atom_site_label_2
_geom_bond_distance
_geom_bond_site_symmetry_2
Na0 O2 2.316391 1_555
Na0 O4 2.383001 1_555
Na0 O5 2.418602 1_455
Na0 O12 2.439471 1_556
Na0 O1 2.536379 1_555
Na0 O11 2.652500 1_556
Na1 O5 2.299706 1_555
Na1 O6 2.304606 1_545
Na1 O4 2.388244 1_655
Na1 O9 2.443890 1_555
Na1 O8 2.529847 1_555
Na1 O10 2.576296 1_555
Na2 O7 2.280270 1_555
Na2 O6 2.364121 1_555
Na2 O11 2.414696 1_555
Na2 O9 2.479934 1_565
Na2 O12 2.501607 1_555
Na3 O1 2.353853 1_654
Na3 O7 2.368983 1_655
Na3 O11 2.410227 1_655
Na3 O8 2.414464 1_555
Na3 O0 2.423327 1_554
Na3 O10 2.431958 1_555
Na4 O3 2.303935 1_545
Na4 O0 2.306624 1_555
Na4 O2 2.410190 1_545
Na4 O10 2.444722 1_556
Na4 O12 2.558333 1_546
Na4 O9 2.664114 1_556
Cu0 O1 1.821573 1_554
Cu0 O2 1.843939 1_544
Cu0 O11 1.847120 1_545
Cu0 O10 1.852138 1_455
Cu1 O3 1.822226 1_555
Cu1 O0 1.828626 1_555
Cu1 O5 1.837216 1_555
Cu1 O12 1.846474 1_556
Cu2 O4 1.770493 1_555
Cu2 O2 1.823882 1_545
Cu2 O1 1.917538 1_555
Cu3 O3 1.817369 1_555
Cu3 O8 1.833192 1_555
Cu3 O5 1.837357 1_555
Cu3 O6 1.837902 1_555
Cu4 O4 1.771433 1_555
Cu4 O9 1.851501 1_555
Cu4 O7 1.898797 1_555
Cu5 O8 1.834220 1_555
Cu5 O10 1.835784 1_565
Cu5 O6 1.836101 1_555
Cu5 O11 1.849382 1_655
Cu6 O7 1.815829 1_555
Cu6 O0 1.837271 1_554
Cu6 O12 1.855049 1_555
Cu6 O9 1.869443 1_555
