# generated using pymatgen
data_Li4Ti2Fe3Co3O16
_symmetry_space_group_name_H-M   'P 1'
_cell_length_a   5.87328452
_cell_length_b   5.87328452
_cell_length_c   9.52672145
_cell_angle_alpha   88.97722219
_cell_angle_beta   88.97722219
_cell_angle_gamma   60.22685534
_symmetry_Int_Tables_number   1
_chemical_formula_structural   Li4Ti2Fe3Co3O16
_chemical_formula_sum   'Li4 Ti2 Fe3 Co3 O16'
_cell_volume   285.18845375
_cell_formula_units_Z   1
loop_
 _symmetry_equiv_pos_site_id
 _symmetry_equiv_pos_as_xyz
  1  'x, y, z'
loop_
 _atom_site_type_symbol
 _atom_site_label
 _atom_site_symmetry_multiplicity
 _atom_site_fract_x
 _atom_site_fract_y
 _atom_site_fract_z
 _atom_site_occupancy
  Li  Li0  1  0.34040300  0.34040300  0.89669000  1
  Li  Li1  1  0.99781800  0.99781800  0.99420100  1
  Li  Li2  1  0.99885100  0.99885100  0.49334200  1
  Li  Li3  1  0.67171000  0.67171000  0.39692400  1
  Ti  Ti0  1  0.33607600  0.33607600  0.49665600  1
  Ti  Ti1  1  0.66808100  0.66808100  0.99496300  1
  Fe  Fe0  1  0.17273700  0.17273700  0.21239500  1
  Fe  Fe1  1  0.34091400  0.83577200  0.71500400  1
  Fe  Fe2  1  0.83577200  0.34091400  0.71500400  1
  Co  Co0  1  0.16612600  0.66083200  0.21706100  1
  Co  Co1  1  0.66083200  0.16612600  0.21706100  1
  Co  Co2  1  0.83069900  0.83069900  0.71395700  1
  O  O0  1  0.15382300  0.66965700  0.60001100  1
  O  O1  1  0.48309500  0.48309500  0.34567500  1
  O  O2  1  0.34192100  0.34192100  0.10604300  1
  O  O3  1  0.99746500  0.99746500  0.30352100  1
  O  O4  1  0.99466600  0.99466600  0.80656500  1
  O  O5  1  0.66965700  0.15382300  0.60001100  1
  O  O6  1  0.04203900  0.48778900  0.34338000  1
  O  O7  1  0.48778900  0.04203900  0.34338000  1
  O  O8  1  0.83263500  0.83263500  0.09718300  1
  O  O9  1  0.16894400  0.16894400  0.59136500  1
  O  O10  1  0.53522000  0.96838500  0.83513200  1
  O  O11  1  0.96838500  0.53522000  0.83513200  1
  O  O12  1  0.67554400  0.67554400  0.60608900  1
  O  O13  1  0.33462400  0.83988700  0.09276400  1
  O  O14  1  0.52505500  0.52505500  0.84750300  1
  O  O15  1  0.83988700  0.33462400  0.09276400  1
loop_
_geom_bond_atom_site_label_1
_geom_bond_atom_site_label_2
_geom_bond_distance
_geom_bond_site_symmetry_2
Li0 O14 1.924507 1_555
Li0 O11 1.991510 1_455
Li0 O10 1.991510 1_545
Li0 O2 1.994826 1_556
Li1 O4 1.788503 1_555
Li1 O8 1.926595 1_556
Li1 O13 1.966753 1_656
Li1 O15 1.966753 1_566
Li2 O3 1.808717 1_555
Li2 O5 1.953075 1_565
Li2 O0 1.953075 1_655
Li2 O9 1.981373 1_665
Li3 O7 1.950531 1_565
Li3 O6 1.950531 1_655
Li3 O1 1.987501 1_555
Li3 O12 1.993841 1_555
Fe0 O3 1.965121 1_445
Fe0 O2 1.977372 1_555
Fe0 O6 2.051322 1_555
Fe0 O7 2.051322 1_555
Fe0 O15 2.054146 1_455
Fe0 O13 2.054146 1_545
Fe1 O4 1.961709 1_455
Fe1 O12 1.987496 1_555
Fe1 O14 2.024785 1_555
Fe1 O10 2.044488 1_555
Fe1 O9 2.057665 1_565
Fe1 O0 2.122569 1_555
Fe2 O4 1.961709 1_545
Fe2 O12 1.987496 1_555
Fe2 O14 2.024785 1_555
Fe2 O11 2.044488 1_555
Fe2 O9 2.057665 1_655
Fe2 O5 2.122569 1_555
Co0 O3 1.911211 1_455
Co0 O6 1.916482 1_555
Co0 O2 1.950403 1_555
Co0 O1 2.040218 1_555
Co0 O8 2.057857 1_455
Co0 O13 2.105903 1_555
Co1 O3 1.911211 1_545
Co1 O7 1.916482 1_555
Co1 O2 1.950403 1_555
Co1 O1 2.040218 1_555
Co1 O8 2.057857 1_545
Co1 O15 2.105903 1_555
Co2 O10 1.888481 1_555
Co2 O11 1.888481 1_555
Co2 O12 1.899583 1_555
Co2 O4 1.901292 1_555
Co2 O5 1.963429 1_565
Co2 O0 1.963429 1_655
O0 Ti0 1.975421 1_555
O1 Ti0 2.052287 1_555
O5 Ti0 1.975421 1_555
O6 Ti0 2.103316 1_555
O7 Ti0 2.103316 1_555
O8 Ti1 1.952261 1_554
O9 Ti0 1.906549 1_555
O10 Ti1 2.148949 1_555
O11 Ti1 2.148949 1_555
O13 Ti1 1.930736 1_554
O14 Ti1 2.042026 1_555
O15 Ti1 1.930736 1_554
