# generated using pymatgen
data_Li4Ti3Mn6O18
_symmetry_space_group_name_H-M   'P 1'
_cell_length_a   2.90935300
_cell_length_b   9.04317300
_cell_length_c   25.92411400
_cell_angle_alpha   90.00000000
_cell_angle_beta   90.00000000
_cell_angle_gamma   90.00000000
_symmetry_Int_Tables_number   1
_chemical_formula_structural   Li4Ti3Mn6O18
_chemical_formula_sum   'Li8 Ti6 Mn12 O36'
_cell_volume   682.05780077
_cell_formula_units_Z   2
loop_
 _symmetry_equiv_pos_site_id
 _symmetry_equiv_pos_as_xyz
  1  'x, y, z'
loop_
 _atom_site_type_symbol
 _atom_site_label
 _atom_site_symmetry_multiplicity
 _atom_site_fract_x
 _atom_site_fract_y
 _atom_site_fract_z
 _atom_site_occupancy
  Li  Li0  1  0.50000000  0.94457800  0.98751100  1
  Li  Li1  1  0.50000000  0.95559300  0.20227600  1
  Li  Li2  1  0.50000000  0.04440700  0.70227600  1
  Li  Li3  1  0.50000000  0.05542200  0.48751100  1
  Li  Li4  1  0.50000000  0.44494400  0.51769400  1
  Li  Li5  1  0.50000000  0.44699300  0.30487600  1
  Li  Li6  1  0.50000000  0.55300700  0.80487600  1
  Li  Li7  1  0.50000000  0.55505600  0.01769400  1
  Ti  Ti0  1  0.50000000  0.75005400  0.10297900  1
  Ti  Ti1  1  0.50000000  0.24994600  0.60297900  1
  Ti  Ti2  1  0.50000000  0.24738200  0.39637300  1
  Ti  Ti3  1  0.00000000  0.39545900  0.69314700  1
  Ti  Ti4  1  0.00000000  0.60454100  0.19314700  1
  Ti  Ti5  1  0.50000000  0.75261800  0.89637300  1
  Mn  Mn0  1  0.50000000  0.74800600  0.50035000  1
  Mn  Mn1  1  0.50000000  0.77339600  0.30814300  1
  Mn  Mn2  1  0.00000000  0.89976800  0.58704800  1
  Mn  Mn3  1  0.00000000  0.89774200  0.80723200  1
  Mn  Mn4  1  0.00000000  0.10225800  0.30723200  1
  Mn  Mn5  1  0.00000000  0.10023200  0.08704800  1
  Mn  Mn6  1  0.50000000  0.22660400  0.80814300  1
  Mn  Mn7  1  0.50000000  0.25199400  0.00035000  1
  Mn  Mn8  1  0.50000000  0.26499900  0.19238000  1
  Mn  Mn9  1  0.00000000  0.40014600  0.91279100  1
  Mn  Mn10  1  0.00000000  0.59985400  0.41279100  1
  Mn  Mn11  1  0.50000000  0.73500100  0.69238000  1
  O  O0  1  0.50000000  0.73805800  0.42584700  1
  O  O1  1  0.50000000  0.75935700  0.57510300  1
  O  O2  1  0.00000000  0.81035600  0.93960400  1
  O  O3  1  0.00000000  0.80137800  0.15695200  1
  O  O4  1  0.00000000  0.86090500  0.66772600  1
  O  O5  1  0.50000000  0.85410600  0.76156300  1
  O  O6  1  0.00000000  0.89208500  0.50006900  1
  O  O7  1  0.00000000  0.90022900  0.28235600  1
  O  O8  1  0.50000000  0.93952500  0.85508200  1
  O  O9  1  0.50000000  0.95559400  0.08264900  1
  O  O10  1  0.50000000  0.04440600  0.58264900  1
  O  O11  1  0.50000000  0.06047500  0.35508200  1
  O  O12  1  0.00000000  0.09977100  0.78235600  1
  O  O13  1  0.00000000  0.10791500  0.00006900  1
  O  O14  1  0.50000000  0.14589400  0.26156300  1
  O  O15  1  0.00000000  0.13909500  0.16772600  1
  O  O16  1  0.00000000  0.19862200  0.65695200  1
  O  O17  1  0.00000000  0.18964400  0.43960400  1
  O  O18  1  0.50000000  0.24064300  0.07510300  1
  O  O19  1  0.50000000  0.26194200  0.92584700  1
  O  O20  1  0.00000000  0.30744900  0.55880600  1
  O  O21  1  0.00000000  0.29783300  0.34072300  1
  O  O22  1  0.00000000  0.35231800  0.83352800  1
  O  O23  1  0.50000000  0.34965500  0.73859400  1
  O  O24  1  0.00000000  0.39663400  0.99994000  1
  O  O25  1  0.00000000  0.39583800  0.21375100  1
  O  O26  1  0.50000000  0.43571500  0.64252500  1
  O  O27  1  0.50000000  0.45351600  0.41274500  1
  O  O28  1  0.50000000  0.54648400  0.91274500  1
  O  O29  1  0.50000000  0.56428500  0.14252400  1
  O  O30  1  0.00000000  0.60416200  0.71375100  1
  O  O31  1  0.00000000  0.60336600  0.49994000  1
  O  O32  1  0.50000000  0.65034500  0.23859400  1
  O  O33  1  0.00000000  0.64768200  0.33352800  1
  O  O34  1  0.00000000  0.70216700  0.84072300  1
  O  O35  1  0.00000000  0.69255100  0.05880600  1
loop_
_geom_bond_atom_site_label_1
_geom_bond_atom_site_label_2
_geom_bond_distance
_geom_bond_site_symmetry_2
Li0 O13 2.098535 1_566
Li0 O13 2.098535 1_666
Li0 O2 2.265349 1_655
Li0 O2 2.265349 1_555
Li0 O9 2.468379 1_556
Li1 O14 2.307344 1_565
Li1 O3 2.332716 1_655
Li1 O3 2.332716 1_555
Li1 O15 2.381610 1_665
Li1 O15 2.381610 1_565
Li1 O7 2.583900 1_655
Li1 O7 2.583900 1_555
Li2 O5 2.307344 1_545
Li2 O16 2.332716 1_555
Li2 O16 2.332716 1_655
Li2 O4 2.381610 1_645
Li2 O4 2.381610 1_545
Li2 O12 2.583900 1_555
Li2 O12 2.583900 1_655
Li3 O6 2.098535 1_645
Li3 O6 2.098535 1_545
Li3 O17 2.265349 1_555
Li3 O17 2.265349 1_655
Li3 O10 2.468379 1_555
Li4 O31 2.092933 1_655
Li4 O31 2.092933 1_555
Li4 O20 2.190438 1_655
Li4 O20 2.190438 1_555
Li5 O21 2.190699 1_555
Li5 O21 2.190699 1_655
Li5 O33 2.441626 1_555
Li5 O33 2.441626 1_655
Li5 O32 2.516801 1_555
Li6 O34 2.190699 1_655
Li6 O34 2.190699 1_555
Li6 O22 2.441626 1_555
Li6 O22 2.441626 1_655
Li6 O23 2.516801 1_555
Li7 O24 2.092933 1_554
Li7 O24 2.092933 1_654
Li7 O35 2.190438 1_555
Li7 O35 2.190438 1_655
Mn0 O0 1.933518 1_555
Mn0 O1 1.940622 1_555
Mn0 O6 1.952887 1_555
Mn0 O6 1.952887 1_655
Mn0 O31 1.956291 1_555
Mn0 O31 1.956291 1_655
Mn1 O33 1.959998 1_555
Mn1 O33 1.959998 1_655
Mn1 O7 1.969398 1_655
Mn1 O7 1.969398 1_555
Mn1 O32 2.118739 1_555
Mn2 O1 1.955574 1_455
Mn2 O1 1.955574 1_555
Mn2 O10 1.959571 1_565
Mn2 O10 1.959571 1_465
Mn2 O4 2.120828 1_555
Mn2 O6 2.255924 1_555
Mn3 O5 1.916634 1_455
Mn3 O5 1.916634 1_555
Mn3 O12 1.937459 1_565
Mn3 O8 1.948748 1_455
Mn3 O8 1.948748 1_555
Mn3 O34 1.970235 1_555
Mn4 O14 1.916634 1_555
Mn4 O14 1.916634 1_455
Mn4 O7 1.937459 1_545
Mn4 O11 1.948748 1_555
Mn4 O11 1.948748 1_455
Mn4 O21 1.970235 1_555
Mn5 O18 1.955574 1_555
Mn5 O18 1.955574 1_455
Mn5 O9 1.959571 1_545
Mn5 O9 1.959571 1_445
Mn5 O15 2.120828 1_555
Mn5 O13 2.255924 1_555
Mn6 O22 1.959998 1_555
Mn6 O22 1.959998 1_655
Mn6 O12 1.969398 1_655
Mn6 O12 1.969398 1_555
Mn6 O23 2.118739 1_555
Mn7 O19 1.933518 1_554
Mn7 O18 1.940622 1_555
Mn7 O13 1.952887 1_655
Mn7 O13 1.952887 1_555
Mn7 O24 1.956291 1_554
Mn7 O24 1.956291 1_654
Mn8 O15 1.954717 1_555
Mn8 O15 1.954717 1_655
Mn8 O25 1.955246 1_555
Mn8 O25 1.955246 1_655
Mn8 O14 2.092077 1_555
Mn9 O19 1.947473 1_455
Mn9 O19 1.947473 1_555
Mn9 O28 1.966562 1_555
Mn9 O28 1.966562 1_455
Mn9 O22 2.099850 1_555
Mn9 O24 2.259484 1_555
Mn10 O0 1.947473 1_555
Mn10 O0 1.947473 1_455
Mn10 O27 1.966562 1_555
Mn10 O27 1.966562 1_455
Mn10 O33 2.099850 1_555
Mn10 O31 2.259484 1_555
Mn11 O4 1.954717 1_655
Mn11 O4 1.954717 1_555
Mn11 O30 1.955246 1_555
Mn11 O30 1.955246 1_655
Mn11 O5 2.092077 1_555
O2 Ti5 1.909119 1_555
O2 Ti5 1.909119 1_455
O3 Ti4 2.012203 1_555
O3 Ti0 2.071055 1_455
O3 Ti0 2.071055 1_555
O8 Ti5 2.000678 1_555
O9 Ti0 1.932009 1_555
O10 Ti1 1.932009 1_555
O11 Ti2 2.000678 1_555
O16 Ti3 2.012203 1_555
O16 Ti1 2.071055 1_455
O16 Ti1 2.071055 1_555
O17 Ti2 1.909119 1_455
O17 Ti2 1.909119 1_555
O20 Ti1 1.922980 1_555
O20 Ti1 1.922980 1_455
O21 Ti2 2.098941 1_455
O21 Ti2 2.098941 1_555
O23 Ti3 1.917224 1_555
O23 Ti3 1.917224 1_655
O25 Ti4 1.961466 1_555
O26 Ti1 1.968052 1_555
O26 Ti3 1.992692 1_655
O26 Ti3 1.992692 1_555
O27 Ti2 1.911813 1_555
O28 Ti5 1.911813 1_555
O29 Ti0 1.968038 1_555
O29 Ti4 1.992709 1_655
O29 Ti4 1.992709 1_555
O30 Ti3 1.961466 1_555
O32 Ti4 1.917224 1_655
O32 Ti4 1.917224 1_555
O34 Ti5 2.098941 1_455
O34 Ti5 2.098941 1_555
O35 Ti0 1.922980 1_455
O35 Ti0 1.922980 1_555
