# generated using pymatgen
data_KCa(H2N)3
_symmetry_space_group_name_H-M   'P 1'
_cell_length_a   11.87149400
_cell_length_b   6.61162000
_cell_length_c   6.68393360
_cell_angle_alpha   73.44445205
_cell_angle_beta   90.00000000
_cell_angle_gamma   90.00000000
_symmetry_Int_Tables_number   1
_chemical_formula_structural   KCa(H2N)3
_chemical_formula_sum   'K4 Ca4 H24 N12'
_cell_volume   502.87195007
_cell_formula_units_Z   4
loop_
 _symmetry_equiv_pos_site_id
 _symmetry_equiv_pos_as_xyz
  1  'x, y, z'
loop_
 _atom_site_type_symbol
 _atom_site_label
 _atom_site_symmetry_multiplicity
 _atom_site_fract_x
 _atom_site_fract_y
 _atom_site_fract_z
 _atom_site_occupancy
  K  K0  1  0.09194600  0.13290600  0.26228100  1
  K  K1  1  0.40805400  0.63290600  0.26228100  1
  K  K2  1  0.59194600  0.36709400  0.73771900  1
  K  K3  1  0.90805400  0.86709400  0.73771900  1
  Ca  Ca0  1  0.76214100  0.08424200  0.18209900  1
  Ca  Ca1  1  0.73785900  0.58424200  0.18209900  1
  Ca  Ca2  1  0.26214100  0.41575800  0.81790100  1
  Ca  Ca3  1  0.23785900  0.91575800  0.81790100  1
  H  H0  1  0.41713700  0.08670000  0.03731200  1
  H  H1  1  0.08286300  0.58670000  0.03731200  1
  H  H2  1  0.51059500  0.32419100  0.12542100  1
  H  H3  1  0.33004100  0.09539000  0.21775100  1
  H  H4  1  0.98940500  0.82419100  0.12542100  1
  H  H5  1  0.16995900  0.59539000  0.21775100  1
  H  H6  1  0.57230400  0.23204500  0.34360800  1
  H  H7  1  0.28446500  0.29654600  0.41914300  1
  H  H8  1  0.89163000  0.34470600  0.47998600  1
  H  H9  1  0.92769600  0.73204500  0.34360800  1
  H  H10  1  0.39163000  0.15529400  0.52001400  1
  H  H11  1  0.21553500  0.79654600  0.41914300  1
  H  H12  1  0.78446500  0.20345400  0.58085700  1
  H  H13  1  0.60837000  0.84470600  0.47998600  1
  H  H14  1  0.07230400  0.26795500  0.65639200  1
  H  H15  1  0.10837000  0.65529400  0.52001400  1
  H  H16  1  0.71553500  0.70345400  0.58085700  1
  H  H17  1  0.42769600  0.76795500  0.65639200  1
  H  H18  1  0.83004100  0.40461000  0.78224900  1
  H  H19  1  0.01059500  0.17580900  0.87457900  1
  H  H20  1  0.66995900  0.90461000  0.78224900  1
  H  H21  1  0.48940500  0.67580900  0.87457900  1
  H  H22  1  0.91713700  0.41330000  0.96268800  1
  H  H23  1  0.58286300  0.91330000  0.96268800  1
  N  N0  1  0.33232900  0.07878100  0.06910600  1
  N  N1  1  0.16767100  0.57878100  0.06910600  1
  N  N2  1  0.58649400  0.33190100  0.19614400  1
  N  N3  1  0.91350600  0.83190100  0.19614400  1
  N  N4  1  0.82411100  0.26691100  0.43975500  1
  N  N5  1  0.67588900  0.76691100  0.43975500  1
  N  N6  1  0.32411100  0.23308900  0.56024500  1
  N  N7  1  0.17588900  0.73308900  0.56024500  1
  N  N8  1  0.08649400  0.16809900  0.80385600  1
  N  N9  1  0.41350600  0.66809900  0.80385600  1
  N  N10  1  0.83232900  0.42121900  0.93089400  1
  N  N11  1  0.66767100  0.92121900  0.93089400  1
loop_
_geom_bond_atom_site_label_1
_geom_bond_atom_site_label_2
_geom_bond_distance
_geom_bond_site_symmetry_2
K0 N7 2.991146 1_545
K0 N1 2.999422 1_555
K0 N8 3.006763 1_554
K0 N3 3.024036 1_445
K0 N0 3.194077 1_555
K1 N6 2.991146 1_555
K1 N0 2.999422 1_565
K1 N9 3.006763 1_554
K1 N2 3.024036 1_555
K1 N1 3.194077 1_555
K2 N5 2.991146 1_555
K2 N11 2.999422 1_545
K2 N2 3.006763 1_556
K2 N9 3.024036 1_555
K2 N10 3.194077 1_555
K3 N4 2.991146 1_565
K3 N10 2.999422 1_555
K3 N3 3.006763 1_556
K3 N8 3.024036 1_665
K3 N11 3.194077 1_555
Ca0 N3 2.435572 1_545
Ca0 N4 2.480119 1_555
Ca0 N11 2.504004 1_544
Ca0 N10 2.519010 1_554
Ca0 N5 2.521319 1_545
Ca0 N2 2.669383 1_555
Ca1 N2 2.435572 1_555
Ca1 N5 2.480119 1_555
Ca1 N10 2.504004 1_554
Ca1 N11 2.519010 1_554
Ca1 N4 2.521319 1_555
Ca1 N3 2.669383 1_555
Ca2 N9 2.435572 1_555
Ca2 N6 2.480119 1_555
Ca2 N1 2.504004 1_556
Ca2 N0 2.519010 1_556
Ca2 N7 2.521319 1_555
Ca2 N8 2.669383 1_555
Ca3 N8 2.435572 1_565
Ca3 N7 2.480119 1_555
Ca3 N0 2.504004 1_566
Ca3 N1 2.519010 1_556
Ca3 N6 2.521319 1_565
Ca3 N9 2.669383 1_555
H0 N0 1.027230 1_555
H0 K1 2.950169 1_545
H0 K2 3.104462 1_554
H1 N1 1.027230 1_555
H1 K0 2.950169 1_555
H1 K3 3.104462 1_454
H2 N2 1.025498 1_555
H2 K2 2.703602 1_554
H2 K1 2.747511 1_555
H3 N0 1.030573 1_555
H3 K0 2.860338 1_555
H4 N3 1.025498 1_555
H4 K3 2.703602 1_554
H4 K0 2.747511 1_665
H5 N1 1.030573 1_555
H5 K1 2.860338 1_555
H6 N2 1.031938 1_555
H6 K2 3.021774 1_555
H7 N6 1.030298 1_555
H7 K1 2.620835 1_555
H7 K0 2.853021 1_555
H8 N4 1.028674 1_555
H9 N3 1.031938 1_555
H9 K3 3.021774 1_555
H10 N6 1.028674 1_555
H11 N7 1.030298 1_555
H11 K0 2.620835 1_565
H11 K1 2.853021 1_555
H12 N4 1.030298 1_555
H12 K3 2.620835 1_545
H12 K2 2.853021 1_555
H13 N5 1.028674 1_555
H14 N8 1.031938 1_555
H14 K0 3.021774 1_555
H15 N7 1.028674 1_555
H16 N5 1.030298 1_555
H16 K2 2.620835 1_555
H16 K3 2.853021 1_555
H17 N9 1.031938 1_555
H17 K1 3.021774 1_555
H18 N10 1.030573 1_555
H18 K2 2.860338 1_555
H19 N8 1.025498 1_555
H19 K0 2.703602 1_556
H19 K3 2.747511 1_445
H20 N11 1.030573 1_555
H20 K3 2.860338 1_555
H21 N9 1.025498 1_555
H21 K1 2.703602 1_556
H21 K2 2.747511 1_555
H22 N10 1.027230 1_555
H22 K3 2.950169 1_555
H22 K0 3.104462 1_656
H23 N11 1.027230 1_555
H23 K2 2.950169 1_565
H23 K1 3.104462 1_556
