# generated using pymatgen
data_Na3FeO4
_symmetry_space_group_name_H-M   'P 1'
_cell_length_a   7.48552900
_cell_length_b   5.98631100
_cell_length_c   5.45589300
_cell_angle_alpha   89.99852791
_cell_angle_beta   89.99991971
_cell_angle_gamma   89.99865453
_symmetry_Int_Tables_number   1
_chemical_formula_structural   Na3FeO4
_chemical_formula_sum   'Na6 Fe2 O8'
_cell_volume   244.48240944
_cell_formula_units_Z   2
loop_
 _symmetry_equiv_pos_site_id
 _symmetry_equiv_pos_as_xyz
  1  'x, y, z'
loop_
 _atom_site_type_symbol
 _atom_site_label
 _atom_site_symmetry_multiplicity
 _atom_site_fract_x
 _atom_site_fract_y
 _atom_site_fract_z
 _atom_site_occupancy
  Na  Na0  1  0.99999900  0.15556000  0.47852400  1
  Na  Na1  1  0.24373300  0.31752800  0.98515800  1
  Na  Na2  1  0.25627200  0.68246300  0.48514900  1
  Na  Na3  1  0.49999900  0.84444000  0.97853400  1
  Na  Na4  1  0.74372900  0.68246400  0.48514800  1
  Na  Na5  1  0.75626700  0.31752900  0.98515800  1
  Fe  Fe0  1  0.99999900  0.81316300  0.99660800  1
  Fe  Fe1  1  0.50000100  0.18684100  0.49661000  1
  O  O0  1  0.00000100  0.09120600  0.90751600  1
  O  O1  1  0.99999600  0.80327600  0.31197800  1
  O  O2  1  0.20828400  0.69846000  0.90988700  1
  O  O3  1  0.29172000  0.30154000  0.40989000  1
  O  O4  1  0.50000400  0.19672200  0.81199600  1
  O  O5  1  0.49999800  0.90880500  0.40752500  1
  O  O6  1  0.70828700  0.30154700  0.40989300  1
  O  O7  1  0.79171000  0.69845700  0.90989000  1
loop_
_geom_bond_atom_site_label_1
_geom_bond_atom_site_label_2
_geom_bond_distance
_geom_bond_site_symmetry_2
Na0 O1 2.296331 1_545
Na0 O0 2.372018 1_655
Na0 O6 2.381604 1_555
Na0 O3 2.381689 1_655
Na1 O4 2.257318 1_555
Na1 O0 2.311673 1_555
Na1 O2 2.332190 1_555
Na1 O3 2.346918 1_556
Na2 O1 2.257370 1_455
Na2 O5 2.311676 1_555
Na2 O3 2.332145 1_555
Na2 O2 2.346957 1_555
Na3 O4 2.296260 1_565
Na3 O5 2.372042 1_556
Na3 O7 2.381605 1_555
Na3 O2 2.381667 1_555
Na4 O1 2.257335 1_555
Na4 O5 2.311651 1_555
Na4 O6 2.332113 1_555
Na4 O7 2.346972 1_555
Na5 O4 2.257300 1_555
Na5 O0 2.311637 1_655
Na5 O7 2.332170 1_555
Na5 O6 2.346924 1_556
Fe0 O1 1.721641 1_556
Fe0 O0 1.733963 1_665
Fe0 O2 1.768100 1_655
Fe0 O7 1.768159 1_555
Fe1 O4 1.721730 1_555
Fe1 O5 1.733936 1_545
Fe1 O3 1.768054 1_555
Fe1 O6 1.768127 1_555
