# generated using pymatgen
data_Li2Ni3O3F2
_symmetry_space_group_name_H-M   'P 1'
_cell_length_a   10.70394096
_cell_length_b   10.70394096
_cell_length_c   10.70394096
_cell_angle_alpha   164.13937831
_cell_angle_beta   164.13937831
_cell_angle_gamma   22.50311305
_symmetry_Int_Tables_number   1
_chemical_formula_structural   Li2Ni3O3F2
_chemical_formula_sum   'Li2 Ni3 O3 F2'
_cell_volume   91.58466750
_cell_formula_units_Z   1
loop_
 _symmetry_equiv_pos_site_id
 _symmetry_equiv_pos_as_xyz
  1  'x, y, z'
loop_
 _atom_site_type_symbol
 _atom_site_label
 _atom_site_symmetry_multiplicity
 _atom_site_fract_x
 _atom_site_fract_y
 _atom_site_fract_z
 _atom_site_occupancy
  Li  Li0  1  0.69949400  0.69949400  0.00000000  1
  Li  Li1  1  0.30050600  0.30050600  0.00000000  1
  Ni  Ni0  1  0.89984900  0.89984900  0.00000000  1
  Ni  Ni1  1  0.50000000  0.50000000  0.00000000  1
  Ni  Ni2  1  0.10015100  0.10015100  0.00000000  1
  O  O0  1  0.39847400  0.39847400  0.00000000  1
  O  O1  1  0.00000000  0.00000000  0.00000000  1
  O  O2  1  0.60152600  0.60152600  0.00000000  1
  F  F0  1  0.20319200  0.20319200  0.00000000  1
  F  F1  1  0.79680800  0.79680800  0.00000000  1
loop_
_geom_bond_atom_site_label_1
_geom_bond_atom_site_label_2
_geom_bond_distance
_geom_bond_site_symmetry_2
Li0 O2 2.056977 1_555
Li1 O0 2.056977 1_555
Ni0 O0 2.088720 1_565
Ni0 O0 2.088720 1_666
Ni0 O0 2.088720 1_554
Ni0 O0 2.088720 1_655
Ni0 O1 2.102813 1_665
Ni1 O1 2.088520 1_666
Ni1 O1 2.088520 1_554
Ni1 O1 2.088520 1_655
Ni1 O1 2.088520 1_565
Ni1 O0 2.131683 1_555
Ni1 O2 2.131683 1_555
Ni2 O2 2.088720 1_556
Ni2 O2 2.088720 1_444
Ni2 O2 2.088720 1_545
Ni2 O2 2.088720 1_455
Ni2 O1 2.102813 1_555
F0 Li1 2.043246 1_555
F0 Li0 2.089963 1_545
F0 Li0 2.089963 1_455
F0 Li0 2.089963 1_556
F0 Li0 2.089963 1_444
F0 Ni2 2.163492 1_555
F1 Li0 2.043246 1_555
F1 Li1 2.089963 1_655
F1 Li1 2.089963 1_666
F1 Li1 2.089963 1_554
F1 Li1 2.089963 1_565
F1 Ni0 2.163492 1_555
