# generated using pymatgen
data_Li3CrClO4
_symmetry_space_group_name_H-M   'P 1'
_cell_length_a   6.81284100
_cell_length_b   6.81284100
_cell_length_c   4.86266200
_cell_angle_alpha   90.00000000
_cell_angle_beta   90.00000000
_cell_angle_gamma   90.00000000
_symmetry_Int_Tables_number   1
_chemical_formula_structural   Li3CrClO4
_chemical_formula_sum   'Li6 Cr2 Cl2 O8'
_cell_volume   225.69949631
_cell_formula_units_Z   2
loop_
 _symmetry_equiv_pos_site_id
 _symmetry_equiv_pos_as_xyz
  1  'x, y, z'
loop_
 _atom_site_type_symbol
 _atom_site_label
 _atom_site_symmetry_multiplicity
 _atom_site_fract_x
 _atom_site_fract_y
 _atom_site_fract_z
 _atom_site_occupancy
  Li  Li0  1  0.50000000  0.00000000  0.14431600  1
  Li  Li1  1  0.75000000  0.25000000  0.50000000  1
  Li  Li2  1  0.25000000  0.25000000  0.50000000  1
  Li  Li3  1  0.00000000  0.50000000  0.85568400  1
  Li  Li4  1  0.25000000  0.75000000  0.50000000  1
  Li  Li5  1  0.75000000  0.75000000  0.50000000  1
  Cr  Cr0  1  0.00000000  0.00000000  0.00000000  1
  Cr  Cr1  1  0.50000000  0.50000000  0.00000000  1
  Cl  Cl0  1  0.50000000  0.00000000  0.66535000  1
  Cl  Cl1  1  0.00000000  0.50000000  0.33465000  1
  O  O0  1  0.19556100  0.00000000  0.20656200  1
  O  O1  1  0.80443900  0.00000000  0.20656200  1
  O  O2  1  0.00000000  0.19556100  0.79343800  1
  O  O3  1  0.50000000  0.30443900  0.20656200  1
  O  O4  1  0.30443900  0.50000000  0.79343800  1
  O  O5  1  0.69556100  0.50000000  0.79343800  1
  O  O6  1  0.50000000  0.69556100  0.20656200  1
  O  O7  1  0.00000000  0.80443900  0.79343800  1
loop_
_geom_bond_atom_site_label_1
_geom_bond_atom_site_label_2
_geom_bond_distance
_geom_bond_site_symmetry_2
Li0 O3 2.096064 1_555
Li0 O1 2.096064 1_555
Li0 O6 2.096064 1_545
Li0 O0 2.096064 1_555
Li1 O3 2.252664 1_555
Li1 O5 2.252664 1_555
Li1 O1 2.252664 1_555
Li1 O2 2.252664 1_655
Li2 O3 2.252664 1_555
Li2 O4 2.252664 1_555
Li2 O2 2.252664 1_555
Li2 O0 2.252664 1_555
Li3 O4 2.096064 1_555
Li3 O7 2.096064 1_555
Li3 O5 2.096064 1_455
Li3 O2 2.096064 1_555
Li4 O4 2.252664 1_555
Li4 O7 2.252664 1_555
Li4 O6 2.252664 1_555
Li4 O0 2.252664 1_565
Li5 O7 2.252664 1_655
Li5 O1 2.252664 1_565
Li5 O5 2.252664 1_555
Li5 O6 2.252664 1_555
Cr0 O0 1.668531 1_555
Cr0 O2 1.668531 1_554
Cr0 O7 1.668531 1_544
Cr0 O1 1.668531 1_455
Cr1 O5 1.668531 1_554
Cr1 O6 1.668531 1_555
Cr1 O4 1.668531 1_554
Cr1 O3 1.668531 1_555
Cl0 Li0 2.329050 1_556
Cl0 Li0 2.533612 1_555
Cl0 Li1 2.539357 1_555
Cl0 Li4 2.539357 1_545
Cl0 Li2 2.539357 1_555
Cl0 Li5 2.539357 1_545
Cl1 Li3 2.329050 1_554
Cl1 Li3 2.533612 1_555
Cl1 Li1 2.539357 1_455
Cl1 Li5 2.539357 1_455
Cl1 Li4 2.539357 1_555
Cl1 Li2 2.539357 1_555
