# generated using pymatgen
data_Li2Zr7Fe(PO4)12
_symmetry_space_group_name_H-M   'P 1'
_cell_length_a   9.00242300
_cell_length_b   9.05131764
_cell_length_c   12.57774979
_cell_angle_alpha   90.10172652
_cell_angle_beta   90.06433947
_cell_angle_gamma   90.08786187
_symmetry_Int_Tables_number   1
_chemical_formula_structural   Li2Zr7Fe(PO4)12
_chemical_formula_sum   'Li2 Zr7 Fe1 P12 O48'
_cell_volume   1024.87925465
_cell_formula_units_Z   1
loop_
 _symmetry_equiv_pos_site_id
 _symmetry_equiv_pos_as_xyz
  1  'x, y, z'
loop_
 _atom_site_type_symbol
 _atom_site_label
 _atom_site_symmetry_multiplicity
 _atom_site_fract_x
 _atom_site_fract_y
 _atom_site_fract_z
 _atom_site_occupancy
  Li  Li0  1  0.28504800  0.77251100  0.32328700  1
  Li  Li1  1  0.21583200  0.28075100  0.18604700  1
  Zr  Zr0  1  0.75186800  0.53631900  0.61849000  1
  Zr  Zr1  1  0.74895600  0.03614800  0.88143600  1
  Zr  Zr2  1  0.74953700  0.96495600  0.37729800  1
  Zr  Zr3  1  0.75153200  0.46796500  0.12278300  1
  Zr  Zr4  1  0.25032800  0.53473900  0.87893100  1
  Zr  Zr5  1  0.25256000  0.95900600  0.11384400  1
  Zr  Zr6  1  0.24994100  0.03427100  0.62146900  1
  Fe  Fe0  1  0.24857700  0.46016200  0.38765000  1
  P  P0  1  0.96715600  0.25283300  0.49563300  1
  P  P1  1  0.89825000  0.10991300  0.14408600  1
  P  P2  1  0.89014100  0.39528300  0.85778300  1
  P  P3  1  0.61034800  0.89531300  0.64241400  1
  P  P4  1  0.59478500  0.60808300  0.35695800  1
  P  P5  1  0.53943000  0.75004500  0.99853200  1
  P  P6  1  0.46119100  0.25099300  0.00334900  1
  P  P7  1  0.38845500  0.10710900  0.35485600  1
  P  P8  1  0.38876200  0.39548500  0.64058800  1
  P  P9  1  0.10424300  0.89162100  0.85520300  1
  P  P10  1  0.11604200  0.59914000  0.15164800  1
  P  P11  1  0.03938500  0.74627100  0.49484600  1
  O  O0  1  0.94454300  0.64479700  0.56519600  1
  O  O1  1  0.93868800  0.84253100  0.42328900  1
  O  O2  1  0.93529200  0.90819400  0.84645600  1
  O  O3  1  0.94511200  0.59057700  0.15891800  1
  O  O4  1  0.86658500  0.34862500  0.56634300  1
  O  O5  1  0.83790600  0.43980100  0.96957400  1
  O  O6  1  0.84647200  0.06443200  0.03245500  1
  O  O7  1  0.87019200  0.15263200  0.42490000  1
  O  O8  1  0.84583900  0.23398300  0.83443300  1
  O  O9  1  0.85070900  0.27004200  0.16858400  1
  O  O10  1  0.81962700  0.49783800  0.77364700  1
  O  O11  1  0.83143100  0.00182800  0.22570200  1
  O  O12  1  0.67752100  0.00091300  0.72587600  1
  O  O13  1  0.66214600  0.50230400  0.27384500  1
  O  O14  1  0.63808100  0.77045200  0.33322600  1
  O  O15  1  0.65488800  0.73426800  0.66543600  1
  O  O16  1  0.65322700  0.56405100  0.46728800  1
  O  O17  1  0.63985600  0.84326000  0.92714900  1
  O  O18  1  0.66527400  0.93939700  0.53112300  1
  O  O19  1  0.63656000  0.65488600  0.07195000  1
  O  O20  1  0.55899500  0.09607900  0.34678300  1
  O  O21  1  0.55955000  0.41080200  0.64618200  1
  O  O22  1  0.55489800  0.14414800  0.93672800  1
  O  O23  1  0.56178900  0.34960900  0.07288900  1
  O  O24  1  0.43917700  0.65246500  0.92827500  1
  O  O25  1  0.44162400  0.85108600  0.06934100  1
  O  O26  1  0.42251400  0.59796900  0.35148200  1
  O  O27  1  0.43960000  0.90883500  0.64829300  1
  O  O28  1  0.36481800  0.34643900  0.92925500  1
  O  O29  1  0.33509900  0.43401200  0.52851300  1
  O  O30  1  0.33725500  0.06747700  0.46739900  1
  O  O31  1  0.35375500  0.16623300  0.07970200  1
  O  O32  1  0.33287400  0.26271700  0.32302700  1
  O  O33  1  0.34644400  0.23445000  0.66663300  1
  O  O34  1  0.31906900  0.50152200  0.72285900  1
  O  O35  1  0.31957500  0.98908100  0.27714100  1
  O  O36  1  0.17868100  0.99786500  0.77603200  1
  O  O37  1  0.18355100  0.48639700  0.23107400  1
  O  O38  1  0.14874500  0.73062200  0.83260100  1
  O  O39  1  0.16895200  0.75857900  0.18290800  1
  O  O40  1  0.15692900  0.93164800  0.96944100  1
  O  O41  1  0.16943800  0.56113300  0.03891000  1
  O  O42  1  0.14687500  0.65927200  0.42153400  1
  O  O43  1  0.13613200  0.84628400  0.56654600  1
  O  O44  1  0.06059900  0.41038200  0.85066900  1
  O  O45  1  0.07126700  0.10472300  0.15279900  1
  O  O46  1  0.06530500  0.15683200  0.56903500  1
  O  O47  1  0.06411900  0.35068400  0.42416400  1
loop_
_geom_bond_atom_site_label_1
_geom_bond_atom_site_label_2
_geom_bond_distance
_geom_bond_site_symmetry_2
Li0 O42 2.031963 1_555
Li0 O26 2.039636 1_555
Li0 O39 2.054366 1_555
Li0 O35 2.068484 1_555
Li1 O37 1.966765 1_555
Li1 O32 2.025508 1_555
Li1 O45 2.096956 1_555
Li1 O31 2.099515 1_555
Fe0 O29 1.949548 1_555
Fe0 O47 1.987113 1_555
Fe0 O26 2.052392 1_555
Fe0 O42 2.066653 1_555
Fe0 O37 2.068091 1_555
Fe0 O32 2.104948 1_555
O0 P11 1.535483 1_655
O0 Zr0 2.102797 1_555
O1 P11 1.547360 1_655
O1 Zr2 2.113755 1_555
O2 P9 1.532427 1_655
O2 Zr1 2.086773 1_565
O3 P10 1.543438 1_655
O3 Zr3 2.113217 1_555
O4 P0 1.537512 1_555
O4 Zr0 2.094244 1_555
O5 P2 1.536426 1_555
O5 Zr3 2.094101 1_556
O6 P1 1.534286 1_555
O6 Zr1 2.106674 1_554
O7 P0 1.539154 1_555
O7 Zr2 2.100756 1_545
O8 P2 1.540545 1_555
O8 Zr1 2.077697 1_555
O9 P1 1.542539 1_555
O9 Zr3 2.084651 1_555
O10 P2 1.545410 1_555
O10 Zr0 2.074188 1_555
O11 P1 1.541389 1_555
O11 Zr2 2.072491 1_545
O12 P3 1.540948 1_545
O12 Zr1 2.082755 1_555
O13 P4 1.541715 1_555
O13 Zr3 2.087178 1_555
O14 P4 1.549504 1_555
O14 Zr2 2.098411 1_555
O15 P3 1.540277 1_555
O15 Zr0 2.079248 1_555
O16 P4 1.536987 1_555
O16 Zr0 2.113509 1_555
O17 P5 1.528889 1_555
O17 Zr1 2.083972 1_565
O18 P3 1.538200 1_555
O18 Zr2 2.092042 1_555
O19 P5 1.537042 1_554
O19 Zr3 2.085727 1_555
O20 P7 1.542117 1_555
O20 Zr2 2.122419 1_545
O21 P8 1.545045 1_555
O21 Zr0 2.099107 1_555
O22 P6 1.533057 1_556
O22 Zr1 2.120559 1_555
O23 P6 1.541069 1_555
O23 Zr3 2.109222 1_555
O24 P5 1.538996 1_555
O24 Zr4 2.097785 1_555
O25 P5 1.551197 1_554
O25 Zr5 2.041986 1_555
O26 P4 1.554858 1_555
O27 P3 1.544042 1_555
O27 Zr6 2.079439 1_565
O28 P6 1.539774 1_556
O28 Zr4 2.091785 1_555
O29 P8 1.530633 1_555
O30 P7 1.532201 1_555
O30 Zr6 2.113819 1_555
O31 P6 1.564839 1_555
O31 Zr5 2.128613 1_545
O32 P7 1.548580 1_555
O33 P8 1.541835 1_555
O33 Zr6 2.085850 1_555
O34 P8 1.544462 1_555
O34 Zr4 2.080399 1_555
O35 P7 1.572945 1_565
O35 Zr5 2.156697 1_555
O36 P9 1.538947 1_555
O36 Zr6 2.074584 1_565
O37 P10 1.553344 1_555
O38 P9 1.538011 1_555
O38 Zr4 2.080106 1_555
O39 P10 1.568298 1_555
O39 Zr5 2.148265 1_555
O40 P9 1.554630 1_555
O40 Zr5 2.023744 1_556
O41 P10 1.536364 1_555
O41 Zr4 2.153677 1_554
O42 P11 1.551935 1_555
O43 P11 1.544102 1_555
O43 Zr6 2.100244 1_565
O44 P2 1.543111 1_455
O44 Zr4 2.074121 1_555
O45 P1 1.562084 1_455
O45 Zr5 2.156252 1_545
O46 P0 1.546444 1_455
O46 Zr6 2.105749 1_555
O47 P0 1.535142 1_455
