# generated using pymatgen
data_V2Cr3Sb3O16
_symmetry_space_group_name_H-M   'P 1'
_cell_length_a   6.08712472
_cell_length_b   6.08712472
_cell_length_c   9.06046630
_cell_angle_alpha   89.76461825
_cell_angle_beta   89.76461825
_cell_angle_gamma   60.34831591
_symmetry_Int_Tables_number   1
_chemical_formula_structural   V2Cr3Sb3O16
_chemical_formula_sum   'V2 Cr3 Sb3 O16'
_cell_volume   291.75231842
_cell_formula_units_Z   1
loop_
 _symmetry_equiv_pos_site_id
 _symmetry_equiv_pos_as_xyz
  1  'x, y, z'
loop_
 _atom_site_type_symbol
 _atom_site_label
 _atom_site_symmetry_multiplicity
 _atom_site_fract_x
 _atom_site_fract_y
 _atom_site_fract_z
 _atom_site_occupancy
  V  V0  1  0.34962300  0.34962300  0.47458300  1
  V  V1  1  0.67226900  0.67226900  0.99995200  1
  Cr  Cr0  1  0.16206900  0.66375300  0.20531500  1
  Cr  Cr1  1  0.66375300  0.16206900  0.20531500  1
  Cr  Cr2  1  0.83004900  0.83004900  0.70905200  1
  Sb  Sb0  1  0.16672900  0.16672900  0.21166000  1
  Sb  Sb1  1  0.33356700  0.83018500  0.71197900  1
  Sb  Sb2  1  0.83018500  0.33356700  0.71197900  1
  O  O0  1  0.17348400  0.66357700  0.60226600  1
  O  O1  1  0.47433400  0.47433400  0.33998900  1
  O  O2  1  0.33033200  0.33033200  0.09877600  1
  O  O3  1  0.99850200  0.99850200  0.30936000  1
  O  O4  1  0.99803300  0.99803300  0.82065600  1
  O  O5  1  0.66357700  0.17348400  0.60226600  1
  O  O6  1  0.05071300  0.47607600  0.34523200  1
  O  O7  1  0.47607600  0.05071300  0.34523200  1
  O  O8  1  0.82585000  0.82585000  0.10080400  1
  O  O9  1  0.16761200  0.16761200  0.60204800  1
  O  O10  1  0.52473600  0.94692000  0.83997200  1
  O  O11  1  0.94692000  0.52473600  0.83997200  1
  O  O12  1  0.66449400  0.66449400  0.59358700  1
  O  O13  1  0.34687100  0.82991000  0.10044400  1
  O  O14  1  0.52013200  0.52013200  0.84478100  1
  O  O15  1  0.82991000  0.34687100  0.10044400  1
loop_
_geom_bond_atom_site_label_1
_geom_bond_atom_site_label_2
_geom_bond_distance
_geom_bond_site_symmetry_2
Cr0 O3 2.008164 1_455
Cr0 O2 2.012750 1_555
Cr0 O8 2.017174 1_455
Cr0 O6 2.029510 1_555
Cr0 O1 2.066482 1_555
Cr0 O13 2.073720 1_555
Cr1 O3 2.008164 1_545
Cr1 O2 2.012750 1_555
Cr1 O8 2.017174 1_545
Cr1 O7 2.029510 1_555
Cr1 O1 2.066482 1_555
Cr1 O15 2.073720 1_555
Cr2 O10 2.011898 1_555
Cr2 O11 2.011898 1_555
Cr2 O12 2.036610 1_555
Cr2 O4 2.040886 1_555
Cr2 O0 2.056370 1_655
Cr2 O5 2.056370 1_565
O0 Sb1 1.990044 1_555
O0 V0 2.029950 1_555
O1 V0 1.787370 1_555
O2 Sb0 1.998541 1_555
O3 Sb0 1.975722 1_665
O4 Sb2 2.027802 1_565
O4 Sb1 2.027802 1_655
O5 Sb2 1.990044 1_555
O5 V0 2.029950 1_555
O6 V0 1.975086 1_555
O6 Sb0 2.050636 1_555
O7 V0 1.975086 1_555
O7 Sb0 2.050636 1_555
O8 V1 1.860568 1_554
O9 Sb1 2.041999 1_545
O9 Sb2 2.041999 1_455
O9 V0 2.232104 1_555
O10 Sb1 2.009955 1_555
O10 V1 2.051289 1_555
O11 Sb2 2.009955 1_555
O11 V1 2.051289 1_555
O12 Sb2 2.050990 1_555
O12 Sb1 2.050990 1_555
O13 V1 1.945474 1_554
O13 Sb0 2.050556 1_565
O14 Sb1 2.042389 1_555
O14 Sb2 2.042389 1_555
O14 V1 2.135842 1_555
O15 V1 1.945474 1_554
O15 Sb0 2.050556 1_655
