# generated using pymatgen
data_Li4MoO5
_symmetry_space_group_name_H-M   'P 1'
_cell_length_a   5.13460200
_cell_length_b   5.18051613
_cell_length_c   7.81392798
_cell_angle_alpha   108.43907715
_cell_angle_beta   101.82195332
_cell_angle_gamma   101.38362918
_symmetry_Int_Tables_number   1
_chemical_formula_structural   Li4MoO5
_chemical_formula_sum   'Li8 Mo2 O10'
_cell_volume   185.14334875
_cell_formula_units_Z   2
loop_
 _symmetry_equiv_pos_site_id
 _symmetry_equiv_pos_as_xyz
  1  'x, y, z'
loop_
 _atom_site_type_symbol
 _atom_site_label
 _atom_site_symmetry_multiplicity
 _atom_site_fract_x
 _atom_site_fract_y
 _atom_site_fract_z
 _atom_site_occupancy
  Li  Li0  1  0.82667600  0.21019000  0.29797100  1
  Li  Li1  1  0.17332400  0.78981000  0.70202900  1
  Li  Li2  1  0.00000000  0.00000000  0.50000000  1
  Li  Li3  1  0.50000000  0.00000000  0.00000000  1
  Li  Li4  1  0.41270100  0.59771300  0.90237600  1
  Li  Li5  1  0.58729900  0.40228700  0.09762400  1
  Li  Li6  1  0.08624800  0.39392700  0.60999300  1
  Li  Li7  1  0.91375200  0.60607300  0.39000700  1
  Mo  Mo0  1  0.32743300  0.21367100  0.78271500  1
  Mo  Mo1  1  0.67256700  0.78632900  0.21728500  1
  O  O0  1  0.88445500  0.91891600  0.84495300  1
  O  O1  1  0.11554500  0.08108400  0.15504700  1
  O  O2  1  0.37907500  0.89688900  0.33577000  1
  O  O3  1  0.62092500  0.10311100  0.66423000  1
  O  O4  1  0.04820600  0.73970800  0.04204100  1
  O  O5  1  0.95179400  0.26029200  0.95795900  1
  O  O6  1  0.72033700  0.48691300  0.75109600  1
  O  O7  1  0.27966300  0.51308700  0.24890400  1
  O  O8  1  0.47814000  0.33342700  0.42724800  1
  O  O9  1  0.52186000  0.66657300  0.57275200  1
loop_
_geom_bond_atom_site_label_1
_geom_bond_atom_site_label_2
_geom_bond_distance
_geom_bond_site_symmetry_2
Li0 Li7 1.869882 1_555
Li0 Mo1 2.019698 1_545
Li0 O1 2.119518 1_655
Li0 O8 2.326894 1_555
Li0 Li3 2.344198 1_555
Li1 Li6 1.869882 1_555
Li1 Mo0 2.019698 1_565
Li1 O0 2.119518 1_455
Li1 O9 2.326894 1_555
Li1 Li3 2.344198 1_566
Li2 Li7 1.864724 1_445
Li2 Li6 1.864724 1_555
Li2 Mo1 2.264663 1_445
Li2 Mo0 2.264663 1_555
Li2 O2 2.592461 1_545
Li2 O3 2.592461 1_455
Li3 Li4 1.900411 1_544
Li3 Li5 1.900411 1_555
Li3 Mo0 2.419243 1_554
Li3 Mo1 2.419243 1_545
Li3 O1 2.554671 1_555
Li3 O0 2.554671 1_544
Li3 O5 2.581715 1_554
Li3 O4 2.581715 1_545
Li4 Mo0 1.826425 1_555
Li4 O6 2.217134 1_555
Li4 Mo1 2.325747 1_556
Li4 O4 2.471292 1_556
Li5 Mo1 1.826425 1_555
Li5 O7 2.217134 1_555
Li5 Mo0 2.325747 1_554
Li5 O5 2.471292 1_554
Li6 Mo0 2.189997 1_555
Li6 O6 2.418202 1_455
Li6 O9 2.522315 1_555
Li7 Mo1 2.189997 1_555
Li7 O7 2.418202 1_655
Li7 O8 2.522315 1_555
Mo0 O3 2.008259 1_555
Mo0 O6 2.330852 1_555
Mo0 O5 2.590443 1_455
Mo1 O2 2.008259 1_555
Mo1 O7 2.330852 1_555
Mo1 O4 2.590443 1_655
O0 O5 1.634786 1_565
O1 O4 1.634786 1_545
O2 O7 1.810591 1_555
O3 O6 1.810591 1_555
O8 O9 1.680140 1_555
