# generated using pymatgen
data_Na9Ti20O40
_symmetry_space_group_name_H-M   'P 1'
_cell_length_a   10.64753304
_cell_length_b   10.64753304
_cell_length_c   10.64753304
_cell_angle_alpha   99.59265946
_cell_angle_beta   99.59265946
_cell_angle_gamma   131.81404225
_symmetry_Int_Tables_number   1
_chemical_formula_structural   Na9Ti20O40
_chemical_formula_sum   'Na9 Ti20 O40'
_cell_volume   821.29874527
_cell_formula_units_Z   1
loop_
 _symmetry_equiv_pos_site_id
 _symmetry_equiv_pos_as_xyz
  1  'x, y, z'
loop_
 _atom_site_type_symbol
 _atom_site_label
 _atom_site_symmetry_multiplicity
 _atom_site_fract_x
 _atom_site_fract_y
 _atom_site_fract_z
 _atom_site_occupancy
  Na  Na0  1  0.85054100  0.55203300  0.90061000  1
  Na  Na1  1  0.05006900  0.14945900  0.70149100  1
  Na  Na2  1  0.39991400  0.20015900  0.60008200  1
  Na  Na3  1  0.20016800  0.60008600  0.80024500  1
  Na  Na4  1  0.44796700  0.34857800  0.29850900  1
  Na  Na5  1  0.25000000  0.75000000  0.50000000  1
  Na  Na6  1  0.79984100  0.39992300  0.19975500  1
  Na  Na7  1  0.60007700  0.79983200  0.39991800  1
  Na  Na8  1  0.65142200  0.94993100  0.09939000  1
  Ti  Ti0  1  0.53132400  0.58036000  0.85226600  1
  Ti  Ti1  1  0.41964000  0.27190600  0.95096500  1
  Ti  Ti2  1  0.32196600  0.97573600  0.04905000  1
  Ti  Ti3  1  0.12427500  0.87678300  0.75317000  1
  Ti  Ti4  1  0.72708400  0.67803400  0.65377000  1
  Ti  Ti5  1  0.92668500  0.27291600  0.95095000  1
  Ti  Ti6  1  0.52514900  0.07572600  0.84932400  1
  Ti  Ti7  1  0.32094100  0.46867600  0.04903500  1
  Ti  Ti8  1  0.02426400  0.07331500  0.34623000  1
  Ti  Ti9  1  0.82503100  0.47558300  0.54899000  1
  Ti  Ti10  1  0.92427400  0.77359700  0.44942300  1
  Ti  Ti11  1  0.62889500  0.87572500  0.75250800  1
  Ti  Ti12  1  0.72395900  0.17496900  0.65055200  1
  Ti  Ti13  1  0.12321700  0.87638700  0.24749200  1
  Ti  Ti14  1  0.72809400  0.67905900  0.14773400  1
  Ti  Ti15  1  0.52441700  0.07340700  0.34944800  1
  Ti  Ti16  1  0.32417400  0.47485100  0.55057700  1
  Ti  Ti17  1  0.92659300  0.27604100  0.45101000  1
  Ti  Ti18  1  0.22640300  0.67582600  0.15067600  1
  Ti  Ti19  1  0.12361300  0.37110500  0.24683000  1
  O  O0  1  0.56292300  0.69112800  0.04285100  1
  O  O1  1  0.30887200  0.35172300  0.87179500  1
  O  O2  1  0.64827700  0.52007200  0.95714900  1
  O  O3  1  0.54154800  0.19930800  0.02797800  1
  O  O4  1  0.19928300  0.02857800  0.94303500  1
  O  O5  1  0.74375200  0.80071700  0.82929600  1
  O  O6  1  0.57180000  0.71440600  0.57238700  1
  O  O7  1  0.17133000  0.51357000  0.97202200  1
  O  O8  1  0.28559400  0.85798100  0.85739300  1
  O  O9  1  0.37087300  0.11402900  0.77208600  1
  O  O10  1  0.48643000  0.45845200  0.65776000  1
  O  O11  1  0.87833300  0.63506300  0.72745100  1
  O  O12  1  0.67798700  0.03621700  0.92789400  1
  O  O13  1  0.76419600  0.29243500  0.84285700  1
  O  O14  1  0.96378300  0.89167700  0.64177000  1
  O  O15  1  0.04928300  0.72147400  0.55742600  1
  O  O16  1  0.50814300  0.95071700  0.67219100  1
  O  O17  1  0.84911700  0.12166700  0.75672900  1
  O  O18  1  0.70756500  0.55042200  0.47176100  1
  O  O19  1  0.24990700  0.32201300  0.35823000  1
  O  O20  1  0.60052300  0.22861100  0.54266300  1
  O  O21  1  0.40121200  0.62912700  0.74315500  1
  O  O22  1  0.80069200  0.82867000  0.34224000  1
  O  O23  1  0.14201900  0.99941300  0.42761300  1
  O  O24  1  0.94214000  0.39947700  0.62808700  1
  O  O25  1  0.97142200  0.91445600  0.17070400  1
  O  O26  1  0.88597100  0.65805700  0.25684500  1
  O  O27  1  0.68594700  0.05786000  0.45733700  1
  O  O28  1  0.77138900  0.31405300  0.37191300  1
  O  O29  1  0.36493700  0.09238800  0.24327100  1
  O  O30  1  0.47992800  0.43707700  0.12820500  1
  O  O31  1  0.16404800  0.49185700  0.44257400  1
  O  O32  1  0.27852600  0.83595200  0.32780900  1
  O  O33  1  0.07866100  0.23580400  0.52823900  1
  O  O34  1  0.90761200  0.15088300  0.27254900  1
  O  O35  1  0.10832300  0.75009300  0.07210600  1
  O  O36  1  0.44957800  0.92133900  0.15714300  1
  O  O37  1  0.00058700  0.42820000  0.14260700  1
  O  O38  1  0.34194300  0.59878800  0.22791400  1
  O  O39  1  0.08554400  0.25624800  0.05696500  1
loop_
_geom_bond_atom_site_label_1
_geom_bond_atom_site_label_2
_geom_bond_distance
_geom_bond_site_symmetry_2
Na0 O2 2.153922 1_555
Na0 O35 2.154794 1_656
Na0 O11 2.155149 1_555
Na0 O13 2.172576 1_555
Na1 O1 2.153927 1_555
Na1 O14 2.154794 1_445
Na1 O17 2.155159 1_455
Na1 O33 2.172566 1_555
Na2 O10 2.158621 1_555
Na2 O9 2.158960 1_555
Na2 O20 2.159195 1_555
Na2 O23 2.160099 1_545
Na3 O7 2.158621 1_555
Na3 O21 2.158955 1_555
Na3 O24 2.159200 1_455
Na3 O8 2.160099 1_555
Na4 O30 2.153927 1_555
Na4 O19 2.154784 1_555
Na4 O29 2.155159 1_555
Na4 O18 2.172571 1_555
Na5 O16 2.159942 1_555
Na5 O15 2.159942 1_555
Na5 O31 2.159942 1_555
Na5 O32 2.159942 1_555
Na6 O3 2.158621 1_555
Na6 O26 2.158960 1_555
Na6 O28 2.159200 1_555
Na6 O37 2.160094 1_655
Na7 O22 2.158621 1_555
Na7 O38 2.158960 1_555
Na7 O27 2.159200 1_565
Na7 O6 2.160099 1_555
Na8 O0 2.153927 1_555
Na8 O12 2.154794 1_564
Na8 O34 2.155154 1_565
Na8 O36 2.172566 1_555
O0 Ti14 2.012746 1_555
O0 Ti0 2.016870 1_554
O0 Ti7 2.055220 1_555
O1 Ti7 2.012751 1_556
O1 Ti1 2.016874 1_555
O1 Ti0 2.055219 1_555
O2 Ti0 2.012754 1_555
O2 Ti14 2.016874 1_556
O2 Ti1 2.055223 1_555
O3 Ti2 2.028508 1_545
O3 Ti6 2.032019 1_554
O3 Ti1 2.036954 1_554
O4 Ti1 1.994982 1_555
O4 Ti3 1.997158 1_545
O4 Ti2 1.999335 1_546
O5 Ti0 1.994980 1_555
O5 Ti11 1.997162 1_555
O5 Ti4 1.999344 1_555
O6 Ti11 2.029575 1_555
O6 Ti4 2.030446 1_555
O6 Ti16 2.035336 1_555
O7 Ti5 2.028512 1_455
O7 Ti18 2.032020 1_556
O7 Ti7 2.036945 1_556
O8 Ti3 2.029571 1_555
O8 Ti2 2.030455 1_556
O8 Ti6 2.035326 1_565
O9 Ti6 2.023817 1_555
O9 Ti3 2.031201 1_545
O9 Ti1 2.040194 1_555
O10 Ti4 2.028508 1_555
O10 Ti16 2.032028 1_555
O10 Ti0 2.036958 1_555
O11 Ti3 2.023764 1_655
O11 Ti9 2.023939 1_555
O11 Ti4 2.024686 1_555
O12 Ti11 2.025023 1_545
O12 Ti6 2.025213 1_555
O12 Ti5 2.025393 1_555
O13 Ti12 2.019905 1_555
O13 Ti6 2.021738 1_555
O13 Ti5 2.063158 1_555
O14 Ti3 2.025023 1_655
O14 Ti10 2.025216 1_555
O14 Ti4 2.025398 1_555
O15 Ti9 2.019477 1_455
O15 Ti10 2.022290 1_455
O15 Ti3 2.062038 1_555
O16 Ti12 2.019477 1_565
O16 Ti6 2.022298 1_565
O16 Ti11 2.062038 1_555
O17 Ti11 2.023765 1_545
O17 Ti12 2.023926 1_555
O17 Ti5 2.024695 1_555
O18 Ti9 2.019905 1_555
O18 Ti10 2.021733 1_555
O18 Ti4 2.063167 1_555
O19 Ti19 2.025023 1_555
O19 Ti16 2.025216 1_555
O19 Ti8 2.025392 1_555
O20 Ti12 2.022286 1_555
O20 Ti9 2.034483 1_555
O20 Ti15 2.036065 1_555
O21 Ti16 2.023809 1_555
O21 Ti11 2.031201 1_555
O21 Ti0 2.040199 1_555
O22 Ti8 2.028513 1_665
O22 Ti10 2.032028 1_555
O22 Ti14 2.036954 1_555
O23 Ti13 2.029575 1_555
O23 Ti8 2.030455 1_565
O23 Ti10 2.035336 1_455
O24 Ti17 2.022278 1_555
O24 Ti12 2.034489 1_555
O24 Ti9 2.036061 1_555
O25 Ti14 1.994981 1_555
O25 Ti13 1.997153 1_655
O25 Ti8 1.999354 1_665
O26 Ti10 2.023805 1_555
O26 Ti13 2.031206 1_655
O26 Ti14 2.040198 1_555
O27 Ti15 2.022278 1_555
O27 Ti17 2.034489 1_555
O27 Ti12 2.036061 1_555
O28 Ti9 2.022273 1_555
O28 Ti15 2.034484 1_555
O28 Ti17 2.036071 1_555
O29 Ti13 2.023759 1_545
O29 Ti15 2.023935 1_555
O29 Ti2 2.024696 1_545
O30 Ti1 2.012746 1_554
O30 Ti7 2.016883 1_555
O30 Ti14 2.055223 1_555
O31 Ti17 2.019477 1_455
O31 Ti16 2.022290 1_555
O31 Ti19 2.062038 1_555
O32 Ti15 2.019477 1_565
O32 Ti18 2.022298 1_555
O32 Ti13 2.062038 1_555
O33 Ti17 2.019905 1_455
O33 Ti16 2.021733 1_555
O33 Ti8 2.063162 1_555
O34 Ti19 2.023759 1_655
O34 Ti17 2.023935 1_555
O34 Ti8 2.024686 1_655
O35 Ti13 2.025023 1_555
O35 Ti18 2.025212 1_555
O35 Ti2 2.025398 1_555
O36 Ti15 2.019905 1_565
O36 Ti18 2.021729 1_555
O36 Ti2 2.063167 1_555
O37 Ti19 2.029570 1_555
O37 Ti5 2.030451 1_454
O37 Ti18 2.035344 1_555
O38 Ti18 2.023809 1_555
O38 Ti19 2.031206 1_555
O38 Ti7 2.040194 1_555
O39 Ti7 1.994979 1_555
O39 Ti19 1.997162 1_555
O39 Ti5 1.999352 1_454
