# generated using pymatgen
data_Li4CrSb(TeO6)2
_symmetry_space_group_name_H-M   'P 1'
_cell_length_a   5.16549100
_cell_length_b   5.41081407
_cell_length_c   7.48191782
_cell_angle_alpha   93.62671669
_cell_angle_beta   90.00681553
_cell_angle_gamma   90.03601361
_symmetry_Int_Tables_number   1
_chemical_formula_structural   Li4CrSb(TeO6)2
_chemical_formula_sum   'Li4 Cr1 Sb1 Te2 O12'
_cell_volume   208.69711555
_cell_formula_units_Z   1
loop_
 _symmetry_equiv_pos_site_id
 _symmetry_equiv_pos_as_xyz
  1  'x, y, z'
loop_
 _atom_site_type_symbol
 _atom_site_label
 _atom_site_symmetry_multiplicity
 _atom_site_fract_x
 _atom_site_fract_y
 _atom_site_fract_z
 _atom_site_occupancy
  Li  Li0  1  0.00217300  0.57732500  0.73441700  1
  Li  Li1  1  0.49670900  0.06054000  0.19628400  1
  Li  Li2  1  0.99633900  0.58512000  0.19462000  1
  Li  Li3  1  0.50430300  0.03147100  0.74861300  1
  Cr  Cr0  1  0.99953900  0.00853400  0.99910500  1
  Sb  Sb0  1  0.50081900  0.50097000  0.49650500  1
  Te  Te0  1  0.99996500  0.00365900  0.49867100  1
  Te  Te1  1  0.50003800  0.50121300  0.99898300  1
  O  O0  1  0.30610800  0.80941400  0.57785000  1
  O  O1  1  0.12698800  0.98659700  0.26008900  1
  O  O2  1  0.32671300  0.18715600  0.95144700  1
  O  O3  1  0.18620500  0.30836100  0.57726800  1
  O  O4  1  0.79501800  0.31208300  0.07018300  1
  O  O5  1  0.36286600  0.48759500  0.25014600  1
  O  O6  1  0.63290100  0.48254300  0.74840300  1
  O  O7  1  0.18949600  0.67713600  0.94998300  1
  O  O8  1  0.82840400  0.67827800  0.43653800  1
  O  O9  1  0.69017500  0.79732800  0.06500100  1
  O  O10  1  0.87739100  0.97514700  0.73925100  1
  O  O11  1  0.67785200  0.17193100  0.43544300  1
loop_
_geom_bond_atom_site_label_1
_geom_bond_atom_site_label_2
_geom_bond_distance
_geom_bond_site_symmetry_2
Li0 O7 1.928210 1_555
Li0 O6 1.979398 1_455
Li0 O3 2.046848 1_555
Li0 O10 2.245462 1_455
Li0 O0 2.366035 1_555
Li0 O8 2.495066 1_455
Li1 O9 1.953681 1_545
Li1 O1 2.014619 1_545
Li1 O11 2.074386 1_555
Li1 O2 2.180656 1_554
Li1 O4 2.297214 1_555
Li1 O5 2.421582 1_555
Li2 O4 1.988629 1_555
Li2 O5 2.016037 1_655
Li2 O8 2.041620 1_555
Li2 O7 2.169951 1_654
Li2 O9 2.214229 1_555
Li2 O1 2.297347 1_655
Li3 O2 1.921916 1_555
Li3 O10 1.951893 1_545
Li3 O0 1.981924 1_545
Li3 O6 2.529142 1_555
Cr0 O2 1.989745 1_655
Cr0 O4 1.997084 1_556
Cr0 O10 2.041031 1_545
Cr0 O9 2.042521 1_546
Cr0 O7 2.057212 1_645
Cr0 O1 2.071110 1_646
O0 Te0 2.009228 1_465
O0 Sb0 2.010247 1_555
O1 Te0 1.898671 1_465
O2 Te1 1.933199 1_555
O3 Te0 1.965878 1_455
O3 Sb0 2.042081 1_555
O4 Te1 1.929629 1_554
O5 Sb0 1.973145 1_555
O5 Te1 2.014095 1_554
O6 Te1 1.993137 1_555
O6 Sb0 2.012710 1_555
O7 Te1 1.912999 1_555
O8 Te0 1.998869 1_565
O8 Sb0 2.009388 1_555
O9 Te1 1.916638 1_554
O10 Te0 1.923529 1_565
O11 Te0 1.969127 1_555
O11 Sb0 2.028280 1_555
