# generated using pymatgen
data_Nb5O12F
_symmetry_space_group_name_H-M   'P 1'
_cell_length_a   3.89218800
_cell_length_b   6.37889500
_cell_length_c   18.37823000
_cell_angle_alpha   90.00000000
_cell_angle_beta   90.00000000
_cell_angle_gamma   90.00000000
_symmetry_Int_Tables_number   1
_chemical_formula_structural   Nb5O12F
_chemical_formula_sum   'Nb10 O24 F2'
_cell_volume   456.29209525
_cell_formula_units_Z   2
loop_
 _symmetry_equiv_pos_site_id
 _symmetry_equiv_pos_as_xyz
  1  'x, y, z'
loop_
 _atom_site_type_symbol
 _atom_site_label
 _atom_site_symmetry_multiplicity
 _atom_site_fract_x
 _atom_site_fract_y
 _atom_site_fract_z
 _atom_site_occupancy
  Nb  Nb0  1  0.00000000  0.22742500  0.64518300  1
  Nb  Nb1  1  0.00000000  0.22742500  0.85481700  1
  Nb  Nb2  1  0.00000000  0.21812400  0.25000000  1
  Nb  Nb3  1  0.00000000  0.30899100  0.06341200  1
  Nb  Nb4  1  0.00000000  0.30899100  0.43658800  1
  Nb  Nb5  1  0.00000000  0.69100900  0.56341200  1
  Nb  Nb6  1  0.00000000  0.69100900  0.93658800  1
  Nb  Nb7  1  0.00000000  0.78187600  0.75000000  1
  Nb  Nb8  1  0.00000000  0.77257500  0.35481700  1
  Nb  Nb9  1  0.00000000  0.77257500  0.14518300  1
  O  O0  1  0.00000000  0.09390300  0.14390300  1
  O  O1  1  0.00000000  0.09390300  0.35609700  1
  O  O2  1  0.00000000  0.14529200  0.75000000  1
  O  O3  1  0.50000000  0.20762600  0.63371500  1
  O  O4  1  0.50000000  0.20762600  0.86628500  1
  O  O5  1  0.50000000  0.20435800  0.25000000  1
  O  O6  1  0.50000000  0.29296900  0.05965000  1
  O  O7  1  0.50000000  0.29296900  0.44035000  1
  O  O8  1  0.00000000  0.37612000  0.54769600  1
  O  O9  1  0.00000000  0.37612000  0.95230400  1
  O  O10  1  0.00000000  0.46551900  0.17402200  1
  O  O11  1  0.00000000  0.46551900  0.32597800  1
  O  O12  1  0.00000000  0.53448100  0.67402200  1
  O  O13  1  0.00000000  0.53448100  0.82597800  1
  O  O14  1  0.00000000  0.62388000  0.04769600  1
  O  O15  1  0.00000000  0.62388000  0.45230400  1
  O  O16  1  0.50000000  0.70703100  0.55965000  1
  O  O17  1  0.50000000  0.70703100  0.94035000  1
  O  O18  1  0.50000000  0.79564200  0.75000000  1
  O  O19  1  0.50000000  0.79237400  0.36628500  1
  O  O20  1  0.50000000  0.79237400  0.13371500  1
  O  O21  1  0.00000000  0.85470800  0.25000000  1
  O  O22  1  0.00000000  0.90609700  0.64390300  1
  O  O23  1  0.00000000  0.90609700  0.85609700  1
  F  F0  1  0.00000000  0.00000000  0.00000000  1
  F  F1  1  0.00000000  0.00000000  0.50000000  1
loop_
_geom_bond_atom_site_label_1
_geom_bond_atom_site_label_2
_geom_bond_distance
_geom_bond_site_symmetry_2
Nb0 O3 1.961543 1_555
Nb0 O3 1.961543 1_455
Nb0 O2 1.996326 1_555
Nb0 O8 2.027225 1_555
Nb0 O12 2.029120 1_555
Nb0 O22 2.049853 1_545
Nb1 O4 1.961543 1_455
Nb1 O4 1.961543 1_555
Nb1 O2 1.996326 1_555
Nb1 O9 2.027225 1_555
Nb1 O13 2.029120 1_555
Nb1 O23 2.049853 1_545
Nb2 O5 1.948074 1_455
Nb2 O5 1.948074 1_555
Nb2 O0 2.104733 1_555
Nb2 O1 2.104733 1_555
Nb2 O10 2.107176 1_555
Nb2 O11 2.107176 1_555
Nb2 O21 2.318193 1_545
Nb3 O6 1.950002 1_555
Nb3 O6 1.950002 1_455
Nb3 O0 2.017604 1_555
Nb3 O14 2.029304 1_555
Nb3 O9 2.086384 1_554
Nb3 O10 2.264795 1_555
Nb4 O7 1.950002 1_455
Nb4 O7 1.950002 1_555
Nb4 O1 2.017604 1_555
Nb4 O15 2.029304 1_555
Nb4 O8 2.086384 1_555
Nb4 O11 2.264795 1_555
Nb5 O16 1.950002 1_555
Nb5 O16 1.950002 1_455
Nb5 O22 2.017604 1_555
Nb5 O8 2.029304 1_555
Nb5 O15 2.086384 1_555
Nb5 O12 2.264795 1_555
Nb6 O17 1.950002 1_455
Nb6 O17 1.950002 1_555
Nb6 O23 2.017604 1_555
Nb6 O9 2.029304 1_555
Nb6 O14 2.086384 1_556
Nb6 O13 2.264795 1_555
Nb7 O18 1.948074 1_455
Nb7 O18 1.948074 1_555
Nb7 O22 2.104733 1_555
Nb7 O23 2.104733 1_555
Nb7 O12 2.107176 1_555
Nb7 O13 2.107176 1_555
Nb7 O2 2.318193 1_565
Nb8 O19 1.961543 1_455
Nb8 O19 1.961543 1_555
Nb8 O21 1.996326 1_555
Nb8 O15 2.027225 1_555
Nb8 O11 2.029120 1_555
Nb8 O1 2.049853 1_565
Nb9 O20 1.961543 1_455
Nb9 O20 1.961543 1_555
Nb9 O21 1.996326 1_555
Nb9 O14 2.027225 1_555
Nb9 O10 2.029120 1_555
Nb9 O0 2.049853 1_565
F0 Nb3 2.289778 1_555
F0 Nb6 2.289778 1_544
F1 Nb4 2.289778 1_555
F1 Nb5 2.289778 1_545
