# generated using pymatgen
data_Co3(OF2)2
_symmetry_space_group_name_H-M   'P 1'
_cell_length_a   4.67976573
_cell_length_b   4.67976573
_cell_length_c   9.38380445
_cell_angle_alpha   89.72566923
_cell_angle_beta   89.72566923
_cell_angle_gamma   89.82003154
_symmetry_Int_Tables_number   1
_chemical_formula_structural   Co3(OF2)2
_chemical_formula_sum   'Co6 O4 F8'
_cell_volume   205.50155221
_cell_formula_units_Z   2
loop_
 _symmetry_equiv_pos_site_id
 _symmetry_equiv_pos_as_xyz
  1  'x, y, z'
loop_
 _atom_site_type_symbol
 _atom_site_label
 _atom_site_symmetry_multiplicity
 _atom_site_fract_x
 _atom_site_fract_y
 _atom_site_fract_z
 _atom_site_occupancy
  Co  Co0  1  0.95604500  0.97001500  0.82700200  1
  Co  Co1  1  0.02998500  0.04395500  0.17299800  1
  Co  Co2  1  0.98281300  0.01718700  0.50000000  1
  Co  Co3  1  0.49188500  0.50811500  0.00000000  1
  Co  Co4  1  0.52471700  0.47390000  0.67221700  1
  Co  Co5  1  0.52610000  0.47528300  0.32778300  1
  O  O0  1  0.79469700  0.19561800  0.66586300  1
  O  O1  1  0.80438200  0.20530300  0.33413700  1
  O  O2  1  0.30422600  0.31129100  0.16694200  1
  O  O3  1  0.68870900  0.69577400  0.83305800  1
  F  F0  1  0.80180900  0.19819100  0.00000000  1
  F  F1  1  0.28031100  0.28697700  0.82970600  1
  F  F2  1  0.31007900  0.30616600  0.49933500  1
  F  F3  1  0.69383400  0.68992100  0.50066500  1
  F  F4  1  0.71302300  0.71968900  0.17029400  1
  F  F5  1  0.18525000  0.81475000  0.00000000  1
  F  F6  1  0.20021600  0.78807900  0.66577400  1
  F  F7  1  0.21192100  0.79978400  0.33422600  1
loop_
_geom_bond_atom_site_label_1
_geom_bond_atom_site_label_2
_geom_bond_distance
_geom_bond_site_symmetry_2
Co0 O3 1.795602 1_555
Co0 O0 1.990441 1_565
Co0 F0 2.072944 1_566
Co0 F6 2.075867 1_655
Co0 F5 2.077095 1_656
Co0 F1 2.125674 1_665
Co1 O2 1.795602 1_555
Co1 O1 1.990441 1_455
Co1 F0 2.072944 1_455
Co1 F7 2.075867 1_545
Co1 F5 2.077095 1_545
Co1 F4 2.125674 1_445
Co2 O0 1.972160 1_555
Co2 O1 1.972160 1_555
Co2 F3 2.046294 1_545
Co2 F2 2.046294 1_655
Co2 F6 2.144024 1_645
Co2 F7 2.144024 1_645
Co3 O2 2.012912 1_555
Co3 O3 2.012912 1_554
Co3 F5 2.026178 1_555
Co3 F0 2.047911 1_555
Co3 F4 2.154609 1_555
Co3 F1 2.154609 1_554
Co4 O0 1.812595 1_555
Co4 O3 1.994033 1_555
Co4 F3 2.053549 1_555
Co4 F1 2.057946 1_555
Co4 F2 2.071151 1_555
Co4 F6 2.111280 1_555
Co5 O1 1.812595 1_555
Co5 O2 1.994033 1_555
Co5 F2 2.053549 1_555
Co5 F4 2.057946 1_555
Co5 F3 2.071151 1_555
Co5 F7 2.111280 1_555
