# generated using pymatgen
data_V3(O2F)2
_symmetry_space_group_name_H-M   'P 1'
_cell_length_a   4.61392214
_cell_length_b   4.61392114
_cell_length_c   9.04805700
_cell_angle_alpha   89.99999367
_cell_angle_beta   89.99998125
_cell_angle_gamma   90.02794055
_symmetry_Int_Tables_number   1
_chemical_formula_structural   V3(O2F)2
_chemical_formula_sum   'V6 O8 F4'
_cell_volume   192.61748349
_cell_formula_units_Z   2
loop_
 _symmetry_equiv_pos_site_id
 _symmetry_equiv_pos_as_xyz
  1  'x, y, z'
loop_
 _atom_site_type_symbol
 _atom_site_label
 _atom_site_symmetry_multiplicity
 _atom_site_fract_x
 _atom_site_fract_y
 _atom_site_fract_z
 _atom_site_occupancy
  V  V0  1  0.99999900  0.00000000  0.02270700  1
  V  V1  1  0.00000000  0.00000000  0.33350200  1
  V  V2  1  0.00000000  0.00000000  0.64396000  1
  V  V3  1  0.50000000  0.50000000  0.14407200  1
  V  V4  1  0.50000000  0.50000000  0.83344500  1
  V  V5  1  0.50000000  0.50000000  0.52201600  1
  O  O0  1  0.20304600  0.79695400  0.17224100  1
  O  O1  1  0.20314200  0.79685800  0.49450200  1
  O  O2  1  0.29674100  0.29674100  0.99446200  1
  O  O3  1  0.29735200  0.29735200  0.67219500  1
  O  O4  1  0.70325900  0.70325900  0.99446200  1
  O  O5  1  0.70264800  0.70264800  0.67219500  1
  O  O6  1  0.79695400  0.20304600  0.17224100  1
  O  O7  1  0.79685800  0.20314200  0.49450200  1
  F  F0  1  0.19247600  0.80752400  0.83344800  1
  F  F1  1  0.30739600  0.30739700  0.33330000  1
  F  F2  1  0.69260400  0.69260300  0.33330000  1
  F  F3  1  0.80752400  0.19247600  0.83344900  1
loop_
_geom_bond_atom_site_label_1
_geom_bond_atom_site_label_2
_geom_bond_distance
_geom_bond_site_symmetry_2
O0 V0 1.893881 1_465
O0 V3 1.954805 1_555
O0 V1 1.971080 1_565
O1 V2 1.893826 1_565
O1 V5 1.953420 1_555
O1 V1 1.969755 1_565
O2 V3 1.894890 1_556
O2 V0 1.952584 1_456
O2 V4 1.969946 1_555
O3 V5 1.895789 1_555
O3 V2 1.956520 1_555
O3 V4 1.968828 1_555
O4 V3 1.894890 1_556
O4 V0 1.952577 1_566
O4 V4 1.969947 1_555
O5 V5 1.895790 1_555
O5 V2 1.956520 1_665
O5 V4 1.968828 1_555
O6 V0 1.893876 1_555
O6 V3 1.954805 1_555
O6 V1 1.971080 1_655
O7 V2 1.893826 1_655
O7 V5 1.953420 1_555
O7 V1 1.969754 1_655
F0 V4 2.007105 1_555
F0 V0 2.123797 1_466
F0 V2 2.125466 1_565
F1 V1 2.005296 1_555
F1 V5 2.119966 1_555
F1 V3 2.123699 1_555
F2 V1 2.005296 1_665
F2 V5 2.119965 1_555
F2 V3 2.123699 1_555
F3 V4 2.007105 1_555
F3 V0 2.123786 1_556
F3 V2 2.125473 1_655
