# generated using pymatgen
data_CaP2(H2O3)3
_symmetry_space_group_name_H-M   'P 1'
_cell_length_a   5.66159700
_cell_length_b   6.29404855
_cell_length_c   11.96375707
_cell_angle_alpha   92.99244476
_cell_angle_beta   96.63225808
_cell_angle_gamma   114.19103332
_symmetry_Int_Tables_number   1
_chemical_formula_structural   CaP2(H2O3)3
_chemical_formula_sum   'Ca2 P4 H12 O18'
_cell_volume   383.94308738
_cell_formula_units_Z   2
loop_
 _symmetry_equiv_pos_site_id
 _symmetry_equiv_pos_as_xyz
  1  'x, y, z'
loop_
 _atom_site_type_symbol
 _atom_site_label
 _atom_site_symmetry_multiplicity
 _atom_site_fract_x
 _atom_site_fract_y
 _atom_site_fract_z
 _atom_site_occupancy
  Ca  Ca0  1  0.96028600  0.22705800  0.89743700  1
  Ca  Ca1  1  0.03971400  0.77294200  0.10256300  1
  P  P0  1  0.46923400  0.72311100  0.90277600  1
  P  P1  1  0.53076600  0.27688900  0.09722400  1
  P  P2  1  0.73534500  0.38737500  0.62711400  1
  P  P3  1  0.26465500  0.61262500  0.37288600  1
  H  H0  1  0.56205000  0.45878000  0.80421400  1
  H  H1  1  0.43795000  0.54122000  0.19578600  1
  H  H2  1  0.31349900  0.93486400  0.79446200  1
  H  H3  1  0.68650100  0.06513600  0.20553800  1
  H  H4  1  0.35501700  0.28653600  0.51745600  1
  H  H5  1  0.64498300  0.71346400  0.48254400  1
  H  H6  1  0.97122900  0.29602400  0.51167000  1
  H  H7  1  0.02877100  0.70397600  0.48833000  1
  H  H8  1  0.94529500  0.85919600  0.69741000  1
  H  H9  1  0.05470500  0.14080400  0.30259000  1
  H  H10  1  0.14222600  0.11376100  0.69329500  1
  H  H11  1  0.85777400  0.88623900  0.30670500  1
  O  O0  1  0.23884200  0.65874300  0.96713300  1
  O  O1  1  0.76115800  0.34125700  0.03286700  1
  O  O2  1  0.74564300  0.82775300  0.96649100  1
  O  O3  1  0.25435700  0.17224700  0.03350900  1
  O  O4  1  0.40582500  0.48391000  0.82744000  1
  O  O5  1  0.59417500  0.51609000  0.17256000  1
  O  O6  1  0.47963600  0.91486500  0.81863200  1
  O  O7  1  0.52036400  0.08513500  0.18136800  1
  O  O8  1  0.77755900  0.39744400  0.75578800  1
  O  O9  1  0.22244100  0.60255600  0.24421200  1
  O  O10  1  0.42894400  0.23964300  0.58724700  1
  O  O11  1  0.57105600  0.76035700  0.41275300  1
  O  O12  1  0.87849800  0.24139300  0.57901500  1
  O  O13  1  0.12150200  0.75860700  0.42098500  1
  O  O14  1  0.82400600  0.62674400  0.58077300  1
  O  O15  1  0.17599400  0.37325600  0.41922700  1
  O  O16  1  0.06629100  0.00248200  0.74783700  1
  O  O17  1  0.93370900  0.99751800  0.25216300  1
loop_
_geom_bond_atom_site_label_1
_geom_bond_atom_site_label_2
_geom_bond_distance
_geom_bond_site_symmetry_2
Ca0 O1 2.318902 1_556
Ca0 O3 2.333323 1_656
Ca0 O8 2.405456 1_555
Ca0 O16 2.498137 1_655
Ca0 O2 2.534030 1_545
Ca0 O0 2.551992 1_655
Ca0 O4 2.639095 1_655
Ca0 O6 2.643248 1_545
Ca1 O0 2.318902 1_554
Ca1 O2 2.333323 1_454
Ca1 O9 2.405456 1_555
Ca1 O17 2.498137 1_455
Ca1 O3 2.534030 1_565
Ca1 O1 2.551992 1_455
Ca1 O5 2.639095 1_455
Ca1 O7 2.643248 1_565
H0 O4 1.025367 1_555
H0 O8 1.580939 1_555
H1 O5 1.025367 1_555
H1 O9 1.580939 1_555
H2 O6 1.011038 1_555
H2 O16 1.668461 1_565
H3 O7 1.011038 1_555
H3 O17 1.668461 1_545
H4 O10 1.002847 1_555
H4 O15 1.717996 1_555
H5 O11 1.002847 1_555
H5 O14 1.717996 1_555
H6 O12 1.010792 1_555
H6 O15 1.641301 1_655
H7 O13 1.010792 1_555
H7 O14 1.641301 1_455
H8 O16 0.993969 1_665
H9 O17 0.993969 1_445
H10 O16 0.983317 1_555
H11 O17 0.983317 1_555
O0 P0 1.513223 1_555
O1 P1 1.513223 1_555
O2 P0 1.513646 1_555
O3 P1 1.513646 1_555
O4 P0 1.596404 1_555
O5 P1 1.596404 1_555
O6 P0 1.598685 1_555
O7 P1 1.598685 1_555
O8 P2 1.524263 1_555
O9 P3 1.524263 1_555
O10 P2 1.594350 1_555
O11 P3 1.594350 1_555
O12 P2 1.579579 1_555
O13 P3 1.579579 1_555
O14 P2 1.536515 1_555
O15 P3 1.536515 1_555
