# generated using pymatgen
data_LiP3(WO6)2
_symmetry_space_group_name_H-M   'P 1'
_cell_length_a   9.06222300
_cell_length_b   9.22159800
_cell_length_c   12.49177000
_cell_angle_alpha   90.00000000
_cell_angle_beta   90.00000000
_cell_angle_gamma   90.00000000
_symmetry_Int_Tables_number   1
_chemical_formula_structural   LiP3(WO6)2
_chemical_formula_sum   'Li4 P12 W8 O48'
_cell_volume   1043.91445255
_cell_formula_units_Z   4
loop_
 _symmetry_equiv_pos_site_id
 _symmetry_equiv_pos_as_xyz
  1  'x, y, z'
loop_
 _atom_site_type_symbol
 _atom_site_label
 _atom_site_symmetry_multiplicity
 _atom_site_fract_x
 _atom_site_fract_y
 _atom_site_fract_z
 _atom_site_occupancy
  Li  Li0  1  0.14643900  0.76900900  0.25000000  1
  Li  Li1  1  0.14643900  0.73099100  0.75000000  1
  Li  Li2  1  0.85356100  0.26900900  0.25000000  1
  Li  Li3  1  0.85356100  0.23099100  0.75000000  1
  P  P0  1  0.03385900  0.75000000  0.00000000  1
  P  P1  1  0.03385900  0.75000000  0.50000000  1
  P  P2  1  0.39886300  0.37332700  0.13205000  1
  P  P3  1  0.39886300  0.12667300  0.63205000  1
  P  P4  1  0.39886300  0.37332700  0.36795000  1
  P  P5  1  0.39886300  0.12667300  0.86795000  1
  P  P6  1  0.60113700  0.62667300  0.86795000  1
  P  P7  1  0.60113700  0.62667300  0.63205000  1
  P  P8  1  0.60113700  0.87332700  0.13205000  1
  P  P9  1  0.60113700  0.87332700  0.36795000  1
  P  P10  1  0.96614100  0.25000000  0.00000000  1
  P  P11  1  0.96614100  0.25000000  0.50000000  1
  W  W0  1  0.24658400  0.02294900  0.09920100  1
  W  W1  1  0.24658400  0.02294900  0.40079900  1
  W  W2  1  0.24658400  0.47705100  0.59920100  1
  W  W3  1  0.24658400  0.47705100  0.90079900  1
  W  W4  1  0.75341600  0.52294900  0.09920100  1
  W  W5  1  0.75341600  0.52294900  0.40079900  1
  W  W6  1  0.75341600  0.97705100  0.90079900  1
  W  W7  1  0.75341600  0.97705100  0.59920100  1
  O  O0  1  0.05593900  0.13713000  0.43829100  1
  O  O1  1  0.05593900  0.36287000  0.56170900  1
  O  O2  1  0.05593900  0.36287000  0.93829100  1
  O  O3  1  0.05593900  0.13713000  0.06170900  1
  O  O4  1  0.13249200  0.82189800  0.08825900  1
  O  O5  1  0.13249200  0.82189800  0.41174100  1
  O  O6  1  0.13249200  0.67810200  0.91174100  1
  O  O7  1  0.13249200  0.67810200  0.58825900  1
  O  O8  1  0.20678000  0.01471700  0.25000000  1
  O  O9  1  0.20678000  0.48528300  0.75000000  1
  O  O10  1  0.30450000  0.02704500  0.56117300  1
  O  O11  1  0.30450000  0.47295500  0.06117300  1
  O  O12  1  0.30450000  0.47295500  0.43882700  1
  O  O13  1  0.30450000  0.02704500  0.93882700  1
  O  O14  1  0.34368700  0.07723000  0.75000000  1
  O  O15  1  0.34368700  0.42277000  0.25000000  1
  O  O16  1  0.36656700  0.21332200  0.38159100  1
  O  O17  1  0.36656700  0.28667800  0.61840900  1
  O  O18  1  0.36656700  0.28667800  0.88159100  1
  O  O19  1  0.36656700  0.21332200  0.11840900  1
  O  O20  1  0.43624000  0.89777400  0.12399000  1
  O  O21  1  0.43624000  0.60222600  0.62399000  1
  O  O22  1  0.43624000  0.89777400  0.37601000  1
  O  O23  1  0.43624000  0.60222600  0.87601000  1
  O  O24  1  0.56376000  0.10222600  0.87601000  1
  O  O25  1  0.56376000  0.39777400  0.12399000  1
  O  O26  1  0.56376000  0.39777400  0.37601000  1
  O  O27  1  0.56376000  0.10222600  0.62399000  1
  O  O28  1  0.63343300  0.71332200  0.11840900  1
  O  O29  1  0.63343300  0.71332200  0.38159100  1
  O  O30  1  0.63343300  0.78667800  0.88159100  1
  O  O31  1  0.63343300  0.78667800  0.61840900  1
  O  O32  1  0.65631300  0.57723000  0.75000000  1
  O  O33  1  0.65631300  0.92277000  0.25000000  1
  O  O34  1  0.69550000  0.52704500  0.56117300  1
  O  O35  1  0.69550000  0.52704500  0.93882700  1
  O  O36  1  0.69550000  0.97295500  0.06117300  1
  O  O37  1  0.69550000  0.97295500  0.43882700  1
  O  O38  1  0.79322000  0.51471700  0.25000000  1
  O  O39  1  0.79322000  0.98528300  0.75000000  1
  O  O40  1  0.86750800  0.17810200  0.58825900  1
  O  O41  1  0.86750800  0.32189800  0.41174100  1
  O  O42  1  0.86750800  0.32189800  0.08825900  1
  O  O43  1  0.86750800  0.17810200  0.91174100  1
  O  O44  1  0.94406100  0.86287000  0.93829100  1
  O  O45  1  0.94406100  0.63713000  0.06170900  1
  O  O46  1  0.94406100  0.63713000  0.43829100  1
  O  O47  1  0.94406100  0.86287000  0.56170900  1
loop_
_geom_bond_atom_site_label_1
_geom_bond_atom_site_label_2
_geom_bond_distance
_geom_bond_site_symmetry_2
Li0 O4 2.082304 1_555
Li0 O5 2.082304 1_555
Li0 O8 2.330871 1_565
Li1 O6 2.082304 1_555
Li1 O7 2.082304 1_555
Li1 O9 2.330871 1_555
Li2 O42 2.082304 1_555
Li2 O41 2.082304 1_555
Li2 O38 2.330871 1_555
Li3 O43 2.082304 1_555
Li3 O40 2.082304 1_555
Li3 O39 2.330871 1_545
O0 P11 1.529637 1_455
O0 W1 2.076739 1_555
O1 P11 1.529637 1_455
O1 W2 2.076739 1_555
O2 P10 1.529637 1_456
O2 W3 2.076739 1_555
O3 P10 1.529637 1_455
O3 W0 2.076739 1_555
O4 P0 1.566544 1_555
O4 W0 2.127216 1_565
O5 P1 1.566544 1_555
O5 W1 2.127216 1_565
O6 P0 1.566544 1_556
O6 W3 2.127216 1_555
O7 P1 1.566544 1_555
O7 W2 2.127216 1_555
O8 W0 1.919473 1_555
O8 W1 1.919473 1_555
O9 W2 1.919473 1_555
O9 W3 1.919473 1_555
O10 P3 1.535976 1_555
O10 W1 2.071310 1_555
O11 P2 1.535976 1_555
O11 W3 2.071310 1_554
O12 P4 1.535976 1_555
O12 W2 2.071310 1_555
O13 P5 1.535976 1_555
O13 W0 2.071310 1_556
O14 P5 1.621364 1_555
O14 P3 1.621364 1_555
O15 P2 1.621364 1_555
O15 P4 1.621364 1_555
O16 P4 1.513869 1_555
O16 W1 2.078883 1_555
O17 P3 1.513869 1_555
O17 W2 2.078883 1_555
O18 P5 1.513869 1_555
O18 W3 2.078883 1_555
O19 P2 1.513869 1_555
O19 W0 2.078883 1_555
O20 P8 1.514593 1_555
O20 W0 2.093388 1_565
O21 P7 1.514593 1_555
O21 W2 2.093388 1_555
O22 P9 1.514593 1_555
O22 W1 2.093388 1_565
O23 P6 1.514593 1_555
O23 W3 2.093388 1_555
O24 P5 1.514593 1_555
O24 W6 2.093388 1_545
O25 P2 1.514593 1_555
O25 W4 2.093388 1_555
O26 P4 1.514593 1_555
O26 W5 2.093388 1_555
O27 P3 1.514593 1_555
O27 W7 2.093388 1_545
O28 P8 1.513869 1_555
O28 W4 2.078883 1_555
O29 P9 1.513869 1_555
O29 W5 2.078883 1_555
O30 P6 1.513869 1_555
O30 W6 2.078883 1_555
O31 P7 1.513869 1_555
O31 W7 2.078883 1_555
O32 P7 1.621364 1_555
O32 P6 1.621364 1_555
O33 P9 1.621364 1_555
O33 P8 1.621364 1_555
O34 P7 1.535976 1_555
O34 W5 2.071310 1_555
O35 P6 1.535976 1_555
O35 W4 2.071310 1_556
O36 P8 1.535976 1_555
O36 W6 2.071310 1_554
O37 P9 1.535976 1_555
O37 W7 2.071310 1_555
O38 W5 1.919473 1_555
O38 W4 1.919473 1_555
O39 W6 1.919473 1_555
O39 W7 1.919473 1_555
O40 P11 1.566544 1_555
O40 W7 2.127216 1_545
O41 P11 1.566544 1_555
O41 W5 2.127216 1_555
O42 P10 1.566544 1_555
O42 W4 2.127216 1_555
O43 P10 1.566544 1_556
O43 W6 2.127216 1_545
O44 P0 1.529637 1_656
O44 W6 2.076739 1_555
O45 P0 1.529637 1_655
O45 W4 2.076739 1_555
O46 P1 1.529637 1_655
O46 W5 2.076739 1_555
O47 P1 1.529637 1_655
O47 W7 2.076739 1_555
