# generated using pymatgen
data_Li3Fe2P4HO14
_symmetry_space_group_name_H-M   'P 1'
_cell_length_a   5.22263234
_cell_length_b   5.09035076
_cell_length_c   12.78731254
_cell_angle_alpha   77.18635347
_cell_angle_beta   104.89313146
_cell_angle_gamma   120.38560324
_symmetry_Int_Tables_number   1
_chemical_formula_structural   Li3Fe2P4HO14
_chemical_formula_sum   'Li3 Fe2 P4 H1 O14'
_cell_volume   281.68169914
_cell_formula_units_Z   1
loop_
 _symmetry_equiv_pos_site_id
 _symmetry_equiv_pos_as_xyz
  1  'x, y, z'
loop_
 _atom_site_type_symbol
 _atom_site_label
 _atom_site_symmetry_multiplicity
 _atom_site_fract_x
 _atom_site_fract_y
 _atom_site_fract_z
 _atom_site_occupancy
  Li  Li0  1  0.10574600  0.79846300  0.02474400  1
  Li  Li1  1  0.99989200  0.00003800  0.50007100  1
  Li  Li2  1  0.89426900  0.20147800  0.97524300  1
  Fe  Fe0  1  0.08319000  0.85140300  0.77096800  1
  Fe  Fe1  1  0.91661600  0.14856600  0.22902300  1
  P  P0  1  0.41315800  0.67980200  0.63076000  1
  P  P1  1  0.43428300  0.45562200  0.86018600  1
  P  P2  1  0.56580100  0.54441900  0.13981100  1
  P  P3  1  0.58678400  0.32015100  0.36922900  1
  H  H0  1  0.50001800  0.49994700  0.49998400  1
  O  O0  1  0.22869100  0.83202600  0.63334800  1
  O  O1  1  0.39641500  0.72788700  0.86948300  1
  O  O2  1  0.19605500  0.14651800  0.90776600  1
  O  O3  1  0.34221700  0.40058400  0.73205200  1
  O  O4  1  0.30545200  0.50549900  0.53135800  1
  O  O5  1  0.23747000  0.48609600  0.10471100  1
  O  O6  1  0.75338000  0.88950900  0.65245800  1
  O  O7  1  0.24658400  0.11052600  0.34749100  1
  O  O8  1  0.76264600  0.51395600  0.89528100  1
  O  O9  1  0.69445600  0.49444600  0.46864900  1
  O  O10  1  0.65787800  0.59941900  0.26795500  1
  O  O11  1  0.80401900  0.85351300  0.09222800  1
  O  O12  1  0.60370100  0.27219700  0.13050000  1
  O  O13  1  0.77128000  0.16793500  0.36670000  1
loop_
_geom_bond_atom_site_label_1
_geom_bond_atom_site_label_2
_geom_bond_distance
_geom_bond_site_symmetry_2
Li0 O2 1.985131 1_564
Li0 O5 2.017667 1_555
Li0 O11 2.135261 1_455
Li0 O8 2.227603 1_454
Li1 O13 2.098480 1_555
Li1 O0 2.098643 1_645
Li1 O4 2.302507 1_655
Li1 O9 2.303411 1_545
Li1 O6 2.416955 1_545
Li1 O7 2.419785 1_655
Li2 O11 1.984916 1_546
Li2 O8 2.017809 1_555
Li2 O2 2.135213 1_655
Li2 O5 2.228027 1_656
Fe0 O6 2.041299 1_455
Fe0 O1 2.070790 1_555
Fe0 O0 2.127029 1_555
Fe0 O2 2.324635 1_565
Fe0 O8 2.351117 1_455
Fe0 O3 2.407460 1_565
Fe1 O7 2.041487 1_655
Fe1 O12 2.069883 1_555
Fe1 O13 2.127178 1_555
Fe1 O11 2.324761 1_545
Fe1 O5 2.352037 1_655
Fe1 O10 2.407294 1_545
H0 O9 1.198095 1_555
H0 O4 1.199142 1_555
O0 P0 1.520735 1_555
O1 P1 1.528557 1_555
O2 P1 1.542061 1_555
O3 P1 1.629938 1_555
O3 P0 1.653018 1_555
O4 P0 1.532031 1_555
O5 P2 1.542221 1_555
O6 P0 1.527364 1_555
O7 P3 1.527233 1_555
O8 P1 1.542358 1_555
O9 P3 1.532231 1_555
O10 P2 1.630012 1_555
O10 P3 1.653006 1_555
O11 P2 1.542028 1_555
O12 P2 1.528498 1_555
O13 P3 1.520612 1_555
