# generated using pymatgen
data_LiNi(SO4)2
_symmetry_space_group_name_H-M   'P 1'
_cell_length_a   9.22061895
_cell_length_b   9.08003700
_cell_length_c   13.74807779
_cell_angle_alpha   90.00000000
_cell_angle_beta   90.26132908
_cell_angle_gamma   90.00000000
_symmetry_Int_Tables_number   1
_chemical_formula_structural   LiNi(SO4)2
_chemical_formula_sum   'Li8 Ni8 S16 O64'
_cell_volume   1151.02606011
_cell_formula_units_Z   8
loop_
 _symmetry_equiv_pos_site_id
 _symmetry_equiv_pos_as_xyz
  1  'x, y, z'
loop_
 _atom_site_type_symbol
 _atom_site_label
 _atom_site_symmetry_multiplicity
 _atom_site_fract_x
 _atom_site_fract_y
 _atom_site_fract_z
 _atom_site_occupancy
  Li  Li0  1  0.04730200  0.21507600  0.37389700  1
  Li  Li1  1  0.04730200  0.28492400  0.87389700  1
  Li  Li2  1  0.45265400  0.71421100  0.37559000  1
  Li  Li3  1  0.45265400  0.78578900  0.87559000  1
  Li  Li4  1  0.76788200  0.45271400  0.12681400  1
  Li  Li5  1  0.76788200  0.04728600  0.62681400  1
  Li  Li6  1  0.95976500  0.77498200  0.62641000  1
  Li  Li7  1  0.95976500  0.72501800  0.12641000  1
  Ni  Ni0  1  0.13935500  0.10715500  0.12298200  1
  Ni  Ni1  1  0.13935500  0.39284500  0.62298200  1
  Ni  Ni2  1  0.36164500  0.60650400  0.12365300  1
  Ni  Ni3  1  0.36164500  0.89349600  0.62365300  1
  Ni  Ni4  1  0.63942400  0.10691100  0.37549400  1
  Ni  Ni5  1  0.63942400  0.39308900  0.87549400  1
  Ni  Ni6  1  0.86108000  0.60493800  0.37611700  1
  Ni  Ni7  1  0.86108000  0.89506200  0.87611700  1
  S  S0  1  0.07825600  0.06656900  0.72601600  1
  S  S1  1  0.07825600  0.43343100  0.22601600  1
  S  S2  1  0.16016900  0.68481800  0.49081300  1
  S  S3  1  0.16016900  0.81518200  0.99081300  1
  S  S4  1  0.34333900  0.18659000  0.49246900  1
  S  S5  1  0.34333900  0.31341000  0.99246900  1
  S  S6  1  0.42271000  0.93213900  0.22648000  1
  S  S7  1  0.42271000  0.56786100  0.72648000  1
  S  S8  1  0.57445000  0.43177700  0.27506700  1
  S  S9  1  0.57445000  0.06822300  0.77506700  1
  S  S10  1  0.66053200  0.68608300  0.00950700  1
  S  S11  1  0.66053200  0.81391700  0.50950700  1
  S  S12  1  0.84051600  0.18418600  0.00919400  1
  S  S13  1  0.84051600  0.31581400  0.50919400  1
  S  S14  1  0.92206900  0.56641000  0.77254600  1
  S  S15  1  0.92206900  0.93359000  0.27254600  1
  O  O0  1  0.00000000  0.70052700  0.47625100  1
  O  O1  1  0.00000000  0.79947300  0.97625100  1
  O  O2  1  0.01447700  0.99711000  0.34879700  1
  O  O3  1  0.01447700  0.50289000  0.84879700  1
  O  O4  1  0.02165000  0.46411700  0.32632600  1
  O  O5  1  0.02165000  0.03588300  0.82632600  1
  O  O6  1  0.07915800  0.23224200  0.72197200  1
  O  O7  1  0.07915800  0.26775800  0.22197200  1
  O  O8  1  0.18671400  0.72653900  0.08151800  1
  O  O9  1  0.18671400  0.77346100  0.58151800  1
  O  O10  1  0.20076200  0.97112400  0.01167200  1
  O  O11  1  0.20076200  0.52887600  0.51167200  1
  O  O12  1  0.22601300  0.00546800  0.71918400  1
  O  O13  1  0.22601300  0.49453200  0.21918400  1
  O  O14  1  0.24251200  0.73423600  0.40685300  1
  O  O15  1  0.24251200  0.76576400  0.90685300  1
  O  O16  1  0.25744200  0.23197800  0.40782800  1
  O  O17  1  0.25744200  0.26802200  0.90782800  1
  O  O18  1  0.27374900  0.99426200  0.21927600  1
  O  O19  1  0.27374900  0.50573800  0.71927600  1
  O  O20  1  0.30289100  0.02991900  0.51285700  1
  O  O21  1  0.30289100  0.47008100  0.01285700  1
  O  O22  1  0.31451300  0.22413500  0.08117300  1
  O  O23  1  0.31451300  0.27586500  0.58117300  1
  O  O24  1  0.41768200  0.76595600  0.22519700  1
  O  O25  1  0.41768200  0.73404400  0.72519700  1
  O  O26  1  0.47968900  0.53514700  0.82655100  1
  O  O27  1  0.47968900  0.96485300  0.32655100  1
  O  O28  1  0.48521000  0.49856800  0.35013400  1
  O  O29  1  0.48521000  0.00143200  0.85013400  1
  O  O30  1  0.50132200  0.20266600  0.47469400  1
  O  O31  1  0.50132200  0.29733400  0.97469400  1
  O  O32  1  0.50068300  0.70261000  0.02462100  1
  O  O33  1  0.50068300  0.79739000  0.52462100  1
  O  O34  1  0.51303600  0.50822600  0.64865200  1
  O  O35  1  0.51303600  0.99177400  0.14865200  1
  O  O36  1  0.52250600  0.46673500  0.17337700  1
  O  O37  1  0.52250600  0.03326500  0.67337700  1
  O  O38  1  0.57471700  0.26782800  0.27930500  1
  O  O39  1  0.57471700  0.23217200  0.77930500  1
  O  O40  1  0.68699100  0.72668300  0.41935600  1
  O  O41  1  0.68699100  0.77331700  0.91935600  1
  O  O42  1  0.69881500  0.52774100  0.99012700  1
  O  O43  1  0.69881500  0.97225900  0.49012700  1
  O  O44  1  0.72773800  0.48904900  0.27667700  1
  O  O45  1  0.72773800  0.01095100  0.77667700  1
  O  O46  1  0.74505300  0.72992400  0.09487800  1
  O  O47  1  0.74505300  0.77007600  0.59487800  1
  O  O48  1  0.76455900  0.24126500  0.09368700  1
  O  O49  1  0.76455900  0.25873500  0.59368700  1
  O  O50  1  0.77274300  0.50609400  0.77884600  1
  O  O51  1  0.77274300  0.99390600  0.27884600  1
  O  O52  1  0.79963900  0.47056700  0.49000100  1
  O  O53  1  0.79963900  0.02943300  0.99000100  1
  O  O54  1  0.81515500  0.22642900  0.41810300  1
  O  O55  1  0.81515500  0.27357100  0.91810300  1
  O  O56  1  0.92075200  0.73194400  0.77581400  1
  O  O57  1  0.92075200  0.76805600  0.27581400  1
  O  O58  1  0.97870200  0.53378800  0.67231800  1
  O  O59  1  0.97870200  0.96621200  0.17231800  1
  O  O60  1  0.98210600  0.00329900  0.65045800  1
  O  O61  1  0.98210600  0.49670100  0.15045700  1
  O  O62  1  0.00277500  0.19850800  0.02152700  1
  O  O63  1  0.00277500  0.30149200  0.52152700  1
loop_
_geom_bond_atom_site_label_1
_geom_bond_atom_site_label_2
_geom_bond_distance
_geom_bond_site_symmetry_2
Li0 O16 1.996820 1_555
Li0 O2 2.031434 1_545
Li0 O7 2.164086 1_555
Li0 O63 2.216134 1_555
Li0 O54 2.230192 1_455
Li0 O4 2.365533 1_555
Li1 O17 1.996820 1_555
Li1 O3 2.031434 1_555
Li1 O6 2.164086 1_555
Li1 O62 2.216134 1_556
Li1 O55 2.230192 1_455
Li1 O5 2.365533 1_555
Li2 O14 1.994953 1_555
Li2 O28 2.011839 1_555
Li2 O24 2.143289 1_555
Li2 O33 2.226258 1_555
Li2 O40 2.243161 1_555
Li2 O27 2.386975 1_555
Li3 O15 1.994953 1_555
Li3 O29 2.011839 1_565
Li3 O25 2.143289 1_555
Li3 O32 2.226258 1_556
Li3 O41 2.243161 1_555
Li3 O26 2.386975 1_555
Li4 O48 1.973447 1_555
Li4 O61 2.039864 1_555
Li4 O42 2.095251 1_554
Li4 O44 2.120795 1_555
Li4 O36 2.357585 1_555
Li4 O46 2.563575 1_555
Li5 O49 1.973447 1_555
Li5 O60 2.039866 1_555
Li5 O43 2.095251 1_545
Li5 O45 2.120795 1_555
Li5 O37 2.357585 1_555
Li5 O47 2.563575 1_545
Li6 O47 2.025241 1_555
Li6 O60 2.109259 1_565
Li6 O56 2.123169 1_555
Li6 O9 2.184468 1_655
Li6 O0 2.205314 1_655
Li6 O58 2.285640 1_555
Li7 O46 2.025241 1_555
Li7 O61 2.109257 1_555
Li7 O57 2.123169 1_555
Li7 O8 2.184468 1_655
Li7 O1 2.205314 1_654
Li7 O59 2.285640 1_555
Ni0 O22 2.018793 1_555
Ni0 O10 2.048401 1_545
Ni0 O62 2.050242 1_555
Ni0 O7 2.072117 1_555
Ni0 O59 2.073966 1_445
Ni0 O18 2.079426 1_545
Ni1 O23 2.018793 1_555
Ni1 O11 2.048401 1_555
Ni1 O63 2.050242 1_555
Ni1 O6 2.072117 1_555
Ni1 O58 2.073966 1_455
Ni1 O19 2.079426 1_555
Ni2 O8 2.028952 1_555
Ni2 O21 2.034857 1_555
Ni2 O36 2.066084 1_555
Ni2 O32 2.067530 1_555
Ni2 O24 2.074975 1_555
Ni2 O13 2.082701 1_555
Ni3 O9 2.028952 1_555
Ni3 O20 2.034857 1_565
Ni3 O37 2.066084 1_565
Ni3 O33 2.067530 1_555
Ni3 O25 2.074975 1_555
Ni3 O12 2.082701 1_565
Ni4 O54 2.034144 1_555
Ni4 O38 2.057296 1_555
Ni4 O30 2.062350 1_555
Ni4 O43 2.066543 1_545
Ni4 O27 2.068053 1_545
Ni4 O51 2.084324 1_545
Ni5 O55 2.034144 1_555
Ni5 O39 2.057296 1_555
Ni5 O31 2.062350 1_555
Ni5 O42 2.066543 1_555
Ni5 O26 2.068053 1_555
Ni5 O50 2.084324 1_555
Ni6 O40 2.039802 1_555
Ni6 O52 2.066166 1_555
Ni6 O0 2.067171 1_655
Ni6 O4 2.074811 1_655
Ni6 O57 2.098793 1_555
Ni6 O44 2.114852 1_555
Ni7 O41 2.039802 1_555
Ni7 O53 2.066166 1_565
Ni7 O1 2.067171 1_655
Ni7 O5 2.074811 1_665
Ni7 O56 2.098793 1_555
Ni7 O45 2.114852 1_565
O0 S2 1.496274 1_555
O1 S3 1.496274 1_555
O2 S15 1.466102 1_455
O3 S14 1.466102 1_455
O4 S1 1.502817 1_555
O5 S0 1.502817 1_555
O6 S0 1.505368 1_555
O7 S1 1.505368 1_555
O8 S3 1.503335 1_554
O9 S2 1.503335 1_555
O10 S3 1.492077 1_554
O11 S2 1.492077 1_555
O12 S0 1.474434 1_555
O13 S1 1.474434 1_555
O14 S2 1.455400 1_555
O15 S3 1.455400 1_555
O16 S4 1.463839 1_555
O17 S5 1.463839 1_555
O18 S6 1.487713 1_555
O19 S7 1.487713 1_555
O20 S4 1.497446 1_555
O21 S5 1.497446 1_554
O22 S5 1.489265 1_554
O23 S4 1.489265 1_555
O24 S6 1.509760 1_555
O25 S7 1.509760 1_555
O26 S7 1.500150 1_555
O27 S6 1.500150 1_555
O28 S8 1.455233 1_555
O29 S9 1.455233 1_555
O30 S4 1.485345 1_555
O31 S5 1.485345 1_555
O32 S10 1.496960 1_555
O33 S11 1.496960 1_555
O34 S7 1.462828 1_555
O35 S6 1.462828 1_555
O36 S8 1.509492 1_555
O37 S9 1.509492 1_555
O38 S8 1.489804 1_555
O39 S9 1.489804 1_555
O40 S11 1.491912 1_555
O41 S10 1.491912 1_556
O42 S10 1.504520 1_556
O43 S11 1.504520 1_555
O44 S8 1.506110 1_555
O45 S9 1.506110 1_555
O46 S10 1.461174 1_555
O47 S11 1.461174 1_555
O48 S12 1.454616 1_555
O49 S13 1.454616 1_555
O50 S14 1.484698 1_555
O51 S15 1.484698 1_555
O52 S13 1.478264 1_555
O53 S12 1.478264 1_556
O54 S13 1.509655 1_555
O55 S12 1.509655 1_556
O56 S14 1.503777 1_555
O57 S15 1.503777 1_555
O58 S14 1.505228 1_555
O59 S15 1.505228 1_555
O60 S0 1.478747 1_655
O61 S1 1.478757 1_655
O62 S12 1.510545 1_455
O63 S13 1.510545 1_455
