# generated using pymatgen
data_Li5Sb(P2O7)2
_symmetry_space_group_name_H-M   'P 1'
_cell_length_a   7.25155900
_cell_length_b   8.57683561
_cell_length_c   9.86659859
_cell_angle_alpha   77.44954296
_cell_angle_beta   76.87593817
_cell_angle_gamma   68.81191876
_symmetry_Int_Tables_number   1
_chemical_formula_structural   Li5Sb(P2O7)2
_chemical_formula_sum   'Li10 Sb2 P8 O28'
_cell_volume   551.01458626
_cell_formula_units_Z   2
loop_
 _symmetry_equiv_pos_site_id
 _symmetry_equiv_pos_as_xyz
  1  'x, y, z'
loop_
 _atom_site_type_symbol
 _atom_site_label
 _atom_site_symmetry_multiplicity
 _atom_site_fract_x
 _atom_site_fract_y
 _atom_site_fract_z
 _atom_site_occupancy
  Li  Li0  1  0.33777000  0.18450100  0.27655900  1
  Li  Li1  1  0.31457800  0.25168500  0.58725600  1
  Li  Li2  1  0.75254300  0.26350100  0.09941200  1
  Li  Li3  1  0.03288600  0.46238600  0.14105200  1
  Li  Li4  1  0.44624900  0.48377000  0.35657900  1
  Li  Li5  1  0.55375100  0.51623000  0.64342100  1
  Li  Li6  1  0.96711400  0.53761400  0.85894800  1
  Li  Li7  1  0.24745700  0.73649900  0.90058800  1
  Li  Li8  1  0.68542200  0.74831500  0.41274400  1
  Li  Li9  1  0.66223000  0.81549900  0.72344100  1
  Sb  Sb0  1  0.87572100  0.14720100  0.75968800  1
  Sb  Sb1  1  0.12427900  0.85279900  0.24031200  1
  P  P0  1  0.16247400  0.14459400  0.96239100  1
  P  P1  1  0.69020400  0.09949500  0.45226400  1
  P  P2  1  0.41546000  0.34113600  0.94375900  1
  P  P3  1  0.87711600  0.36299100  0.42875800  1
  P  P4  1  0.12288400  0.63700900  0.57124200  1
  P  P5  1  0.58454000  0.65886400  0.05624100  1
  P  P6  1  0.30979600  0.90050500  0.54773600  1
  P  P7  1  0.83752600  0.85540600  0.03760900  1
  O  O0  1  0.21620500  0.05858800  0.62128000  1
  O  O1  1  0.07645400  0.20501400  0.10447400  1
  O  O2  1  0.79523200  0.04142200  0.03858800  1
  O  O3  1  0.65660700  0.06294000  0.61341200  1
  O  O4  1  0.02304600  0.26082600  0.85031600  1
  O  O5  1  0.50104600  0.22850900  0.39745500  1
  O  O6  1  0.37202900  0.18187400  0.90523300  1
  O  O7  1  0.07462200  0.37004500  0.34029300  1
  O  O8  1  0.46051000  0.30186300  0.09267500  1
  O  O9  1  0.86211900  0.18982300  0.39931300  1
  O  O10  1  0.60058300  0.34941400  0.82745500  1
  O  O11  1  0.86730400  0.34292900  0.59201700  1
  O  O12  1  0.23086200  0.49731400  0.92293100  1
  O  O13  1  0.30845300  0.48633000  0.60316900  1
  O  O14  1  0.69154700  0.51367000  0.39683100  1
  O  O15  1  0.76913800  0.50268600  0.07706900  1
  O  O16  1  0.13269600  0.65707100  0.40798300  1
  O  O17  1  0.39941700  0.65058600  0.17254500  1
  O  O18  1  0.13788100  0.81017700  0.60068700  1
  O  O19  1  0.53949000  0.69813700  0.90732500  1
  O  O20  1  0.92537800  0.62995500  0.65970700  1
  O  O21  1  0.62797100  0.81812600  0.09476700  1
  O  O22  1  0.49895400  0.77149100  0.60254500  1
  O  O23  1  0.97695400  0.73917400  0.14968400  1
  O  O24  1  0.34339300  0.93706000  0.38658800  1
  O  O25  1  0.20476800  0.95857800  0.96141200  1
  O  O26  1  0.92354600  0.79498600  0.89552600  1
  O  O27  1  0.78379500  0.94141200  0.37872000  1
loop_
_geom_bond_atom_site_label_1
_geom_bond_atom_site_label_2
_geom_bond_distance
_geom_bond_site_symmetry_2
Li0 O5 2.031568 1_555
Li0 O8 2.053717 1_555
Li0 O7 2.064978 1_555
Li0 O24 2.154173 1_545
Li1 O0 1.966744 1_555
Li1 O13 2.036264 1_555
Li1 O5 2.047543 1_555
Li1 O3 2.458776 1_555
Li2 O2 2.017471 1_555
Li2 O8 2.036677 1_555
Li2 O15 2.059464 1_555
Li2 O1 2.227540 1_655
Li3 O7 2.000905 1_555
Li3 O15 2.037545 1_455
Li3 O1 2.212050 1_555
Li3 O23 2.276760 1_455
Li3 O12 2.325940 1_554
Li4 O14 2.020500 1_555
Li4 O5 2.043014 1_555
Li4 O17 2.063787 1_555
Li4 O16 2.235485 1_555
Li4 O13 2.412838 1_555
Li5 O13 2.020500 1_555
Li5 O22 2.043014 1_555
Li5 O10 2.063787 1_555
Li5 O11 2.235485 1_555
Li5 O14 2.412838 1_555
Li6 O20 2.000905 1_555
Li6 O12 2.037545 1_655
Li6 O26 2.212050 1_555
Li6 O4 2.276760 1_655
Li6 O15 2.325940 1_556
Li7 O25 2.017471 1_555
Li7 O19 2.036677 1_555
Li7 O12 2.059464 1_555
Li7 O26 2.227540 1_455
Li8 O27 1.966744 1_555
Li8 O14 2.036264 1_555
Li8 O22 2.047543 1_555
Li8 O24 2.458776 1_555
Li9 O22 2.031568 1_555
Li9 O19 2.053717 1_555
Li9 O20 2.064978 1_555
Li9 O3 2.154173 1_565
O0 P6 1.537611 1_545
O0 Sb0 2.470246 1_455
O1 P0 1.519160 1_554
O2 P7 1.513670 1_545
O2 Sb0 2.702691 1_554
O3 P1 1.532434 1_555
O3 Sb0 2.730321 1_555
O4 P0 1.593394 1_555
O4 Sb0 2.110874 1_455
O5 P1 1.542081 1_555
O6 P0 1.616524 1_555
O6 P2 1.643331 1_555
O7 P3 1.512871 1_455
O8 P2 1.517350 1_554
O9 P3 1.618882 1_555
O9 P1 1.629039 1_555
O10 P2 1.567770 1_555
O10 Sb0 2.198315 1_555
O11 P3 1.570263 1_555
O11 Sb0 2.079309 1_555
O12 P2 1.528910 1_555
O13 P4 1.529274 1_555
O14 P3 1.529274 1_555
O15 P5 1.528910 1_555
O16 P4 1.570263 1_555
O16 Sb1 2.079309 1_555
O17 P5 1.567770 1_555
O17 Sb1 2.198315 1_555
O18 P4 1.618882 1_555
O18 P6 1.629039 1_555
O19 P5 1.517350 1_556
O20 P4 1.512871 1_655
O21 P7 1.616524 1_555
O21 P5 1.643331 1_555
O22 P6 1.542081 1_555
O23 P7 1.593394 1_555
O23 Sb1 2.110874 1_655
O24 P6 1.532434 1_555
O24 Sb1 2.730321 1_555
O25 P0 1.513670 1_565
O25 Sb1 2.702691 1_556
O26 P7 1.519160 1_556
O27 P1 1.537611 1_565
O27 Sb1 2.470246 1_655
