# generated using pymatgen
data_LiCr(SiO3)2
_symmetry_space_group_name_H-M   'P 1'
_cell_length_a   5.28162700
_cell_length_b   8.74929500
_cell_length_c   18.17071500
_cell_angle_alpha   90.00000000
_cell_angle_beta   90.00000000
_cell_angle_gamma   90.00000000
_symmetry_Int_Tables_number   1
_chemical_formula_structural   LiCr(SiO3)2
_chemical_formula_sum   'Li8 Cr8 Si16 O48'
_cell_volume   839.67805633
_cell_formula_units_Z   8
loop_
 _symmetry_equiv_pos_site_id
 _symmetry_equiv_pos_as_xyz
  1  'x, y, z'
loop_
 _atom_site_type_symbol
 _atom_site_label
 _atom_site_symmetry_multiplicity
 _atom_site_fract_x
 _atom_site_fract_y
 _atom_site_fract_z
 _atom_site_occupancy
  Li  Li0  1  0.12752300  0.50936400  0.12320700  1
  Li  Li1  1  0.62752300  0.99063600  0.12320700  1
  Li  Li2  1  0.62752300  0.49063600  0.37679300  1
  Li  Li3  1  0.12752300  0.00936400  0.37679300  1
  Li  Li4  1  0.87247700  0.99063600  0.62320700  1
  Li  Li5  1  0.37247700  0.50936400  0.62320700  1
  Li  Li6  1  0.87247700  0.49063600  0.87679300  1
  Li  Li7  1  0.37247700  0.00936400  0.87679300  1
  Cr  Cr0  1  0.12516300  0.15472400  0.12480500  1
  Cr  Cr1  1  0.62516300  0.34527600  0.12480500  1
  Cr  Cr2  1  0.62516300  0.84527600  0.37519500  1
  Cr  Cr3  1  0.12516300  0.65472400  0.37519500  1
  Cr  Cr4  1  0.87483700  0.34527600  0.62480500  1
  Cr  Cr5  1  0.37483700  0.15472400  0.62480500  1
  Cr  Cr6  1  0.87483700  0.84527600  0.87519500  1
  Cr  Cr7  1  0.37483700  0.65472400  0.87519500  1
  Si  Si0  1  0.70528100  0.66232700  0.02665400  1
  Si  Si1  1  0.20528100  0.83767300  0.02665400  1
  Si  Si2  1  0.94996000  0.84093800  0.22571200  1
  Si  Si3  1  0.44996000  0.65906200  0.22571200  1
  Si  Si4  1  0.94996000  0.34093800  0.27428800  1
  Si  Si5  1  0.44996000  0.15906200  0.27428800  1
  Si  Si6  1  0.20528100  0.33767300  0.47334600  1
  Si  Si7  1  0.70528100  0.16232700  0.47334600  1
  Si  Si8  1  0.29471900  0.83767300  0.52665400  1
  Si  Si9  1  0.79471900  0.66232700  0.52665400  1
  Si  Si10  1  0.55004000  0.84093800  0.72571200  1
  Si  Si11  1  0.05004000  0.65906200  0.72571200  1
  Si  Si12  1  0.55004000  0.34093800  0.77428800  1
  Si  Si13  1  0.05004000  0.15906200  0.77428800  1
  Si  Si14  1  0.29471900  0.33767300  0.97334600  1
  Si  Si15  1  0.79471900  0.16232700  0.97334600  1
  O  O0  1  0.91492900  0.79249900  0.05274100  1
  O  O1  1  0.41492900  0.70750100  0.05274100  1
  O  O2  1  0.29780600  0.33240800  0.06507700  1
  O  O3  1  0.79780600  0.16759200  0.06507700  1
  O  O4  1  0.29043600  0.99623500  0.06440600  1
  O  O5  1  0.79043600  0.50376500  0.06440600  1
  O  O6  1  0.95260300  0.33386400  0.18280200  1
  O  O7  1  0.45260300  0.16613600  0.18280200  1
  O  O8  1  0.45628900  0.49050800  0.19069700  1
  O  O9  1  0.95628900  0.00949200  0.19069700  1
  O  O10  1  0.17864100  0.73002700  0.19613700  1
  O  O11  1  0.67864100  0.76997300  0.19613700  1
  O  O12  1  0.67864100  0.26997300  0.30386300  1
  O  O13  1  0.17864100  0.23002700  0.30386300  1
  O  O14  1  0.45628900  0.99050800  0.30930300  1
  O  O15  1  0.95628900  0.50949200  0.30930300  1
  O  O16  1  0.95260300  0.83386400  0.31719800  1
  O  O17  1  0.45260300  0.66613600  0.31719800  1
  O  O18  1  0.29043600  0.49623500  0.43559400  1
  O  O19  1  0.79043600  0.00376500  0.43559400  1
  O  O20  1  0.29780600  0.83240800  0.43492300  1
  O  O21  1  0.79780600  0.66759200  0.43492300  1
  O  O22  1  0.91492900  0.29249900  0.44725900  1
  O  O23  1  0.41492900  0.20750100  0.44725900  1
  O  O24  1  0.58507100  0.79249900  0.55274100  1
  O  O25  1  0.08507100  0.70750100  0.55274100  1
  O  O26  1  0.20219400  0.33240800  0.56507700  1
  O  O27  1  0.70219400  0.16759200  0.56507700  1
  O  O28  1  0.20956400  0.99623500  0.56440600  1
  O  O29  1  0.70956400  0.50376500  0.56440600  1
  O  O30  1  0.54739700  0.33386400  0.68280200  1
  O  O31  1  0.04739700  0.16613600  0.68280200  1
  O  O32  1  0.04371100  0.49050800  0.69069700  1
  O  O33  1  0.54371100  0.00949200  0.69069700  1
  O  O34  1  0.82135900  0.76997300  0.69613700  1
  O  O35  1  0.32135900  0.73002700  0.69613700  1
  O  O36  1  0.82135900  0.26997300  0.80386300  1
  O  O37  1  0.32135900  0.23002700  0.80386300  1
  O  O38  1  0.04371100  0.99050800  0.80930300  1
  O  O39  1  0.54371100  0.50949200  0.80930300  1
  O  O40  1  0.54739700  0.83386400  0.81719800  1
  O  O41  1  0.04739700  0.66613600  0.81719800  1
  O  O42  1  0.20956400  0.49623500  0.93559400  1
  O  O43  1  0.70956400  0.00376500  0.93559400  1
  O  O44  1  0.20219400  0.83240800  0.93492300  1
  O  O45  1  0.70219400  0.66759200  0.93492300  1
  O  O46  1  0.58507100  0.29249900  0.94725900  1
  O  O47  1  0.08507100  0.20750100  0.94725900  1
loop_
_geom_bond_atom_site_label_1
_geom_bond_atom_site_label_2
_geom_bond_distance
_geom_bond_site_symmetry_2
Li0 O5 2.076947 1_455
Li0 O2 2.078848 1_555
Li0 O6 2.093782 1_455
Li0 O8 2.132201 1_555
Li0 O10 2.357205 1_555
Li0 O1 2.636083 1_555
Li1 O4 2.076947 1_555
Li1 O3 2.078848 1_565
Li1 O7 2.093782 1_565
Li1 O9 2.132201 1_565
Li1 O11 2.357205 1_555
Li1 O0 2.636083 1_555
Li2 O18 2.076947 1_555
Li2 O21 2.078848 1_555
Li2 O17 2.093782 1_555
Li2 O15 2.132201 1_555
Li2 O12 2.357205 1_555
Li2 O22 2.636083 1_555
Li3 O19 2.076947 1_455
Li3 O20 2.078848 1_545
Li3 O16 2.093782 1_445
Li3 O14 2.132201 1_545
Li3 O13 2.357205 1_555
Li3 O23 2.636083 1_555
Li4 O28 2.076947 1_655
Li4 O27 2.078848 1_565
Li4 O31 2.093782 1_665
Li4 O33 2.132201 1_565
Li4 O34 2.357205 1_555
Li4 O24 2.636083 1_555
Li5 O29 2.076947 1_555
Li5 O26 2.078848 1_555
Li5 O30 2.093782 1_555
Li5 O32 2.132201 1_555
Li5 O35 2.357205 1_555
Li5 O25 2.636083 1_555
Li6 O42 2.076947 1_655
Li6 O45 2.078848 1_555
Li6 O41 2.093782 1_655
Li6 O39 2.132201 1_555
Li6 O36 2.357205 1_555
Li6 O46 2.636083 1_555
Li7 O43 2.076947 1_555
Li7 O44 2.078848 1_545
Li7 O40 2.093782 1_545
Li7 O38 2.132201 1_545
Li7 O37 2.357205 1_555
Li7 O47 2.636083 1_555
Cr0 O9 1.960535 1_455
Cr0 O4 1.972133 1_545
Cr0 O7 2.027669 1_555
Cr0 O3 2.044484 1_455
Cr0 O6 2.097098 1_455
Cr0 O2 2.103838 1_555
Cr1 O8 1.960535 1_555
Cr1 O5 1.972133 1_555
Cr1 O6 2.027669 1_555
Cr1 O2 2.044484 1_555
Cr1 O7 2.097098 1_555
Cr1 O3 2.103838 1_555
Cr2 O14 1.960535 1_555
Cr2 O19 1.972133 1_565
Cr2 O16 2.027669 1_555
Cr2 O20 2.044484 1_555
Cr2 O17 2.097098 1_555
Cr2 O21 2.103838 1_555
Cr3 O15 1.960535 1_455
Cr3 O18 1.972133 1_555
Cr3 O17 2.027669 1_555
Cr3 O21 2.044484 1_455
Cr3 O16 2.097098 1_455
Cr3 O20 2.103838 1_555
Cr4 O32 1.960535 1_655
Cr4 O29 1.972133 1_555
Cr4 O30 2.027669 1_555
Cr4 O26 2.044484 1_655
Cr4 O31 2.097098 1_655
Cr4 O27 2.103838 1_555
Cr5 O33 1.960535 1_555
Cr5 O28 1.972133 1_545
Cr5 O31 2.027669 1_555
Cr5 O27 2.044484 1_555
Cr5 O30 2.097098 1_555
Cr5 O26 2.103838 1_555
Cr6 O38 1.960535 1_655
Cr6 O43 1.972133 1_565
Cr6 O40 2.027669 1_555
Cr6 O44 2.044484 1_655
Cr6 O41 2.097098 1_655
Cr6 O45 2.103838 1_555
Cr7 O39 1.960535 1_555
Cr7 O42 1.972133 1_555
Cr7 O41 2.027669 1_555
Cr7 O45 2.044484 1_555
Cr7 O40 2.097098 1_555
Cr7 O44 2.103838 1_555
O0 Si1 1.653066 1_655
O0 Si0 1.657677 1_555
O1 Si0 1.653066 1_555
O1 Si1 1.657677 1_555
O2 Si14 1.667534 1_554
O3 Si15 1.667534 1_554
O4 Si1 1.611666 1_555
O5 Si0 1.611666 1_555
O6 Si4 1.663576 1_555
O7 Si5 1.663576 1_555
O8 Si3 1.606472 1_555
O9 Si2 1.606472 1_545
O10 Si2 1.639896 1_455
O10 Si3 1.651609 1_555
O11 Si3 1.639896 1_555
O11 Si2 1.651609 1_555
O12 Si5 1.639896 1_555
O12 Si4 1.651609 1_555
O13 Si4 1.639896 1_455
O13 Si5 1.651609 1_555
O14 Si5 1.606472 1_565
O15 Si4 1.606472 1_555
O16 Si2 1.663576 1_555
O17 Si3 1.663576 1_555
O18 Si6 1.611666 1_555
O19 Si7 1.611666 1_555
O20 Si8 1.667534 1_555
O21 Si9 1.667534 1_555
O22 Si6 1.653066 1_655
O22 Si7 1.657677 1_555
O23 Si7 1.653066 1_555
O23 Si6 1.657677 1_555
O24 Si8 1.653066 1_555
O24 Si9 1.657677 1_555
O25 Si9 1.653066 1_455
O25 Si8 1.657677 1_555
O26 Si6 1.667534 1_555
O27 Si7 1.667534 1_555
O28 Si8 1.611666 1_555
O29 Si9 1.611666 1_555
O30 Si12 1.663576 1_555
O31 Si13 1.663576 1_555
O32 Si11 1.606472 1_555
O33 Si10 1.606472 1_545
O34 Si11 1.639896 1_655
O34 Si10 1.651609 1_555
O35 Si10 1.639896 1_555
O35 Si11 1.651609 1_555
O36 Si13 1.639896 1_655
O36 Si12 1.651609 1_555
O37 Si12 1.639896 1_555
O37 Si13 1.651609 1_555
O38 Si13 1.606472 1_565
O39 Si12 1.606472 1_555
O40 Si10 1.663576 1_555
O41 Si11 1.663576 1_555
O42 Si14 1.611666 1_555
O43 Si15 1.611666 1_555
O44 Si1 1.667534 1_556
O45 Si0 1.667534 1_556
O46 Si14 1.653066 1_555
O46 Si15 1.657677 1_555
O47 Si15 1.653066 1_455
O47 Si14 1.657677 1_555
