# generated using pymatgen
data_Li3Cr(CuO2)4
_symmetry_space_group_name_H-M   'P 1'
_cell_length_a   6.15493506
_cell_length_b   6.15493506
_cell_length_c   5.60309493
_cell_angle_alpha   64.84767898
_cell_angle_beta   64.84767898
_cell_angle_gamma   54.73167250
_symmetry_Int_Tables_number   1
_chemical_formula_structural   Li3Cr(CuO2)4
_chemical_formula_sum   'Li3 Cr1 Cu4 O8'
_cell_volume   152.16793914
_cell_formula_units_Z   1
loop_
 _symmetry_equiv_pos_site_id
 _symmetry_equiv_pos_as_xyz
  1  'x, y, z'
loop_
 _atom_site_type_symbol
 _atom_site_label
 _atom_site_symmetry_multiplicity
 _atom_site_fract_x
 _atom_site_fract_y
 _atom_site_fract_z
 _atom_site_occupancy
  Li  Li0  1  0.00000000  0.50000000  0.00000000  1
  Li  Li1  1  0.00000000  0.00000000  0.50000000  1
  Li  Li2  1  0.50000000  0.00000000  0.00000000  1
  Cr  Cr0  1  0.50000000  0.50000000  0.00000000  1
  Cu  Cu0  1  0.50000000  0.50000000  0.50000000  1
  Cu  Cu1  1  0.00000000  0.00000000  0.00000000  1
  Cu  Cu2  1  0.00000000  0.50000000  0.50000000  1
  Cu  Cu3  1  0.50000000  0.00000000  0.50000000  1
  O  O0  1  0.28837300  0.28837300  0.24655700  1
  O  O1  1  0.23189100  0.70391600  0.76935800  1
  O  O2  1  0.70391600  0.23189100  0.76935800  1
  O  O3  1  0.79942300  0.79942300  0.23938400  1
  O  O4  1  0.20057700  0.20057700  0.76061600  1
  O  O5  1  0.29608400  0.76810900  0.23064200  1
  O  O6  1  0.76810900  0.29608400  0.23064200  1
  O  O7  1  0.71162700  0.71162700  0.75344300  1
loop_
_geom_bond_atom_site_label_1
_geom_bond_atom_site_label_2
_geom_bond_distance
_geom_bond_site_symmetry_2
Li0 O1 2.098678 1_554
Li0 O6 2.098678 1_455
Li0 O7 2.154146 1_454
Li0 O0 2.154146 1_555
Li0 O4 2.187650 1_554
Li0 O3 2.187650 1_455
Li1 O2 2.031102 1_455
Li1 O1 2.031102 1_545
Li1 O6 2.031102 1_455
Li1 O5 2.031102 1_545
Li2 O2 2.098678 1_554
Li2 O5 2.098678 1_545
Li2 O7 2.154146 1_544
Li2 O0 2.154146 1_555
Li2 O4 2.187650 1_554
Li2 O3 2.187650 1_545
Cr0 O6 2.002674 1_555
Cr0 O1 2.002674 1_554
Cr0 O2 2.002674 1_554
Cr0 O5 2.002674 1_555
Cr0 O7 2.049833 1_554
Cr0 O0 2.049833 1_555
Cu0 O6 1.917686 1_555
Cu0 O1 1.917686 1_555
Cu0 O2 1.917686 1_555
Cu0 O5 1.917686 1_555
Cu1 O3 1.947332 1_445
Cu1 O4 1.947332 1_554
Cu1 O5 2.111531 1_545
Cu1 O2 2.111531 1_454
Cu1 O6 2.111531 1_455
Cu1 O1 2.111531 1_544
Cu2 O0 1.903552 1_555
Cu2 O7 1.903552 1_455
Cu2 O4 1.915786 1_555
Cu2 O3 1.915786 1_455
Cu3 O7 1.903552 1_545
Cu3 O0 1.903552 1_555
Cu3 O4 1.915786 1_555
Cu3 O3 1.915786 1_545
