# generated using pymatgen
data_Li2Mn2F7
_symmetry_space_group_name_H-M   'P 1'
_cell_length_a   7.35583100
_cell_length_b   7.26798000
_cell_length_c   10.54773624
_cell_angle_alpha   89.03073568
_cell_angle_beta   90.00000000
_cell_angle_gamma   90.00000000
_symmetry_Int_Tables_number   1
_chemical_formula_structural   Li2Mn2F7
_chemical_formula_sum   'Li8 Mn8 F28'
_cell_volume   563.82273159
_cell_formula_units_Z   4
loop_
 _symmetry_equiv_pos_site_id
 _symmetry_equiv_pos_as_xyz
  1  'x, y, z'
loop_
 _atom_site_type_symbol
 _atom_site_label
 _atom_site_symmetry_multiplicity
 _atom_site_fract_x
 _atom_site_fract_y
 _atom_site_fract_z
 _atom_site_occupancy
  Li  Li0  1  0.86785100  0.58840500  0.61710200  1
  Li  Li1  1  0.36785100  0.41159500  0.88289800  1
  Li  Li2  1  0.65304900  0.77142600  0.36314300  1
  Li  Li3  1  0.15304900  0.22857400  0.13685700  1
  Li  Li4  1  0.84695100  0.77142600  0.86314300  1
  Li  Li5  1  0.34695100  0.22857400  0.63685700  1
  Li  Li6  1  0.63214900  0.58840500  0.11710200  1
  Li  Li7  1  0.13214900  0.41159500  0.38289800  1
  Mn  Mn0  1  0.87435600  0.34425700  0.92196100  1
  Mn  Mn1  1  0.37435600  0.65574300  0.57803900  1
  Mn  Mn2  1  0.12751200  0.91530100  0.39295800  1
  Mn  Mn3  1  0.62751200  0.08469900  0.10704200  1
  Mn  Mn4  1  0.37248800  0.91530100  0.89295800  1
  Mn  Mn5  1  0.87248800  0.08469900  0.60704200  1
  Mn  Mn6  1  0.62564400  0.34425700  0.42196100  1
  Mn  Mn7  1  0.12564400  0.65574300  0.07803900  1
  F  F0  1  0.66174300  0.97274800  0.94188600  1
  F  F1  1  0.93139400  0.17624600  0.76793200  1
  F  F2  1  0.29635600  0.47310500  0.71525100  1
  F  F3  1  0.14871600  0.39619700  0.97554200  1
  F  F4  1  0.64584700  0.85021900  0.18254500  1
  F  F5  1  0.64871600  0.60380300  0.52445800  1
  F  F6  1  0.08541800  0.67618700  0.47920300  1
  F  F7  1  0.79635600  0.52689500  0.78474900  1
  F  F8  1  0.39845500  0.82486900  0.41341500  1
  F  F9  1  0.43139400  0.82375400  0.73206800  1
  F  F10  1  0.16174300  0.02725200  0.55811400  1
  F  F11  1  0.85415300  0.85021900  0.68254500  1
  F  F12  1  0.89845500  0.17513100  0.08658500  1
  F  F13  1  0.41458200  0.67618700  0.97920300  1
  F  F14  1  0.58541800  0.32381300  0.02079700  1
  F  F15  1  0.10154500  0.82486900  0.91341500  1
  F  F16  1  0.14584700  0.14978100  0.31745500  1
  F  F17  1  0.83825700  0.97274800  0.44188600  1
  F  F18  1  0.56860600  0.17624600  0.26793200  1
  F  F19  1  0.60154500  0.17513100  0.58658500  1
  F  F20  1  0.20364400  0.47310500  0.21525100  1
  F  F21  1  0.91458200  0.32381300  0.52079700  1
  F  F22  1  0.35128400  0.39619700  0.47554200  1
  F  F23  1  0.35415300  0.14978100  0.81745500  1
  F  F24  1  0.85128400  0.60380300  0.02445800  1
  F  F25  1  0.70364400  0.52689500  0.28474900  1
  F  F26  1  0.06860600  0.82375400  0.23206800  1
  F  F27  1  0.33825700  0.02725200  0.05811400  1
loop_
_geom_bond_atom_site_label_1
_geom_bond_atom_site_label_2
_geom_bond_distance
_geom_bond_site_symmetry_2
F0 Mn3 1.951419 1_566
F0 Li4 2.174381 1_555
F0 Mn4 2.230495 1_555
F1 Mn5 1.883760 1_555
F1 Mn0 2.091351 1_555
F2 Li1 1.891179 1_555
F2 Li5 2.007626 1_555
F2 Mn1 2.029981 1_555
F3 Li1 1.887326 1_555
F3 Li3 2.076107 1_556
F3 Mn0 2.131206 1_455
F3 Mn7 2.196591 1_556
F4 Mn3 1.873709 1_565
F4 Li2 1.980528 1_555
F4 Li6 2.037632 1_555
F5 Li0 1.887326 1_555
F5 Li2 2.076107 1_555
F5 Mn1 2.131206 1_555
F5 Mn6 2.196591 1_555
F6 Mn2 1.972343 1_555
F6 Li7 2.216803 1_555
F6 Li0 2.247780 1_455
F6 Mn1 2.370838 1_555
F7 Li0 1.891179 1_555
F7 Li4 2.007626 1_555
F7 Mn0 2.029981 1_555
F8 Li2 1.986506 1_555
F8 Mn2 2.108516 1_555
F8 Mn1 2.117847 1_555
F9 Mn4 1.883760 1_555
F9 Mn1 2.091351 1_555
F10 Mn2 1.951419 1_545
F10 Li5 2.174381 1_555
F10 Mn5 2.230495 1_455
F11 Mn5 1.873709 1_565
F11 Li4 1.980528 1_555
F11 Li0 2.037632 1_555
F12 Li3 1.986506 1_655
F12 Mn3 2.108516 1_555
F12 Mn0 2.117847 1_554
F13 Mn4 1.972343 1_555
F13 Li1 2.216803 1_555
F13 Li6 2.247780 1_556
F13 Mn7 2.370838 1_556
F14 Mn3 1.972343 1_555
F14 Li6 2.216803 1_555
F14 Li1 2.247780 1_554
F14 Mn0 2.370838 1_554
F15 Li4 1.986506 1_455
F15 Mn4 2.108516 1_555
F15 Mn7 2.117847 1_556
F16 Mn2 1.873709 1_545
F16 Li3 1.980528 1_555
F16 Li7 2.037632 1_555
F17 Mn5 1.951419 1_565
F17 Li2 2.174381 1_555
F17 Mn2 2.230495 1_655
F18 Mn3 1.883760 1_555
F18 Mn6 2.091351 1_555
F19 Li5 1.986506 1_555
F19 Mn5 2.108516 1_555
F19 Mn6 2.117847 1_555
F20 Li7 1.891179 1_555
F20 Li3 2.007626 1_555
F20 Mn7 2.029981 1_555
F21 Mn5 1.972343 1_555
F21 Li0 2.216803 1_555
F21 Li7 2.247780 1_655
F21 Mn6 2.370838 1_555
F22 Li7 1.887326 1_555
F22 Li5 2.076107 1_555
F22 Mn6 2.131206 1_555
F22 Mn1 2.196591 1_555
F23 Mn4 1.873709 1_545
F23 Li5 1.980528 1_555
F23 Li1 2.037632 1_555
F24 Li6 1.887326 1_555
F24 Li4 2.076107 1_554
F24 Mn7 2.131206 1_655
F24 Mn0 2.196591 1_554
F25 Li6 1.891179 1_555
F25 Li2 2.007626 1_555
F25 Mn6 2.029981 1_555
F26 Mn2 1.883760 1_555
F26 Mn7 2.091351 1_555
F27 Mn4 1.951419 1_544
F27 Li3 2.174381 1_555
F27 Mn3 2.230495 1_555
