# generated using pymatgen
data_B84O11
_symmetry_space_group_name_H-M   'P 1'
_cell_length_a   7.39570000
_cell_length_b   8.79982218
_cell_length_c   11.80692319
_cell_angle_alpha   95.81374856
_cell_angle_beta   91.22252876
_cell_angle_gamma   112.22429357
_symmetry_Int_Tables_number   1
_chemical_formula_structural   B84O11
_chemical_formula_sum   'B84 O11'
_cell_volume   706.17539285
_cell_formula_units_Z   1
loop_
 _symmetry_equiv_pos_site_id
 _symmetry_equiv_pos_as_xyz
  1  'x, y, z'
loop_
 _atom_site_type_symbol
 _atom_site_label
 _atom_site_symmetry_multiplicity
 _atom_site_fract_x
 _atom_site_fract_y
 _atom_site_fract_z
 _atom_site_occupancy
  B  B0  1  0.09090400  0.85252800  0.95089400  1
  B  B1  1  0.22550000  0.56767200  0.98980900  1
  B  B2  1  0.43045100  0.72899700  0.94929200  1
  B  B3  1  0.84817500  0.83728800  0.89858600  1
  B  B4  1  0.19415500  0.71663500  0.90454100  1
  B  B5  1  0.43659000  0.52622800  0.95076600  1
  B  B6  1  0.23469800  0.06885900  0.98384700  1
  B  B7  1  0.54377600  0.65367700  0.83717300  1
  B  B8  1  0.19717500  0.38161200  0.90405300  1
  B  B9  1  0.47254800  0.94864500  0.75691100  1
  B  B10  1  0.09862300  0.19457800  0.95485200  1
  B  B11  1  0.38660900  0.76485600  0.80893200  1
  B  B12  1  0.05181700  0.50164000  0.87469300  1
  B  B13  1  0.39041200  0.43145200  0.80843500  1
  B  B14  1  0.66147400  0.99588600  0.66311700  1
  B  B15  1  0.85577800  0.04917700  0.90369400  1
  B  B16  1  0.14798500  0.62162000  0.76242000  1
  B  B17  1  0.50539300  0.13573400  0.84439200  1
  B  B18  1  0.70939600  0.29635300  0.80537800  1
  B  B19  1  0.79137400  0.71551200  0.71471300  1
  B  B20  1  0.99858000  0.87174400  0.66585000  1
  B  B21  1  0.06116600  0.00418400  0.86768400  1
  B  B22  1  0.35625300  0.57908800  0.72413000  1
  B  B23  1  0.15081400  0.41740300  0.76371300  1
  B  B24  1  0.41684100  0.97792400  0.61042400  1
  B  B25  1  0.47556200  0.28544700  0.75895600  1
  B  B26  1  0.76436500  0.85975800  0.62130100  1
  B  B27  1  0.00709200  0.67036600  0.66994900  1
  B  B28  1  0.71205500  0.09221200  0.80714700  1
  B  B29  1  0.80665300  0.21136900  0.69471800  1
  B  B30  1  0.11287700  0.79665500  0.55375200  1
  B  B31  1  0.76770900  0.52616800  0.62384500  1
  B  B32  1  0.66607300  0.33316200  0.66476400  1
  B  B33  1  0.95744400  0.90914400  0.52470600  1
  B  B34  1  0.33305900  0.07118900  0.72822600  1
  B  B35  1  0.62523100  0.64645200  0.59211900  1
  B  B36  1  0.96191600  0.57542700  0.52630600  1
  B  B37  1  0.42572300  0.18957100  0.61513400  1
  B  B38  1  0.71771800  0.76470100  0.47867100  1
  B  B39  1  0.08022500  0.28190000  0.55887800  1
  B  B40  1  0.35726100  0.85682700  0.43067000  1
  B  B41  1  0.28357800  0.44154100  0.51849700  1
  B  B42  1  0.63198400  0.14559800  0.57921000  1
  B  B43  1  0.92566200  0.72218100  0.44139700  1
  B  B44  1  0.72293900  0.56134600  0.48168700  1
  B  B45  1  0.04940200  0.43049700  0.47281200  1
  B  B46  1  0.28650500  0.23820000  0.52116100  1
  B  B47  1  0.56893600  0.80890400  0.38719600  1
  B  B48  1  0.38046500  0.35566600  0.40791700  1
  B  B49  1  0.66317300  0.92590200  0.27074600  1
  B  B50  1  0.04926800  0.09575700  0.47425100  1
  B  B51  1  0.33198100  0.66795200  0.33923200  1
  B  B52  1  0.23874600  0.47520500  0.37585300  1
  B  B53  1  0.19015000  0.78694000  0.30716300  1
  B  B54  1  0.90782100  0.21650500  0.44337600  1
  B  B55  1  0.23946500  0.14275400  0.37798300  1
  B  B56  1  0.52128500  0.71258700  0.24296500  1
  B  B57  1  0.28275700  0.90344200  0.19229200  1
  B  B58  1  0.00226000  0.33399900  0.32807800  1
  B  B59  1  0.64522200  0.42059200  0.27601600  1
  B  B60  1  0.56453700  0.01127600  0.38092300  1
  B  B61  1  0.93711000  0.99505100  0.13244300  1
  B  B62  1  0.84829900  0.58201000  0.23607500  1
  B  B63  1  0.21467600  0.28645900  0.28380900  1
  B  B64  1  0.49109700  0.86087100  0.15540500  1
  B  B65  1  0.28771200  0.70128400  0.19605200  1
  B  B66  1  0.00630600  0.13097900  0.33247500  1
  B  B67  1  0.33076200  0.99948900  0.33603100  1
  B  B68  1  0.60819600  0.56759700  0.19215900  1
  B  B69  1  0.85299600  0.37806300  0.23773500  1
  B  B70  1  0.14172200  0.94916800  0.09616200  1
  B  B71  1  0.94707600  0.49762400  0.12532300  1
  B  B72  1  0.89993100  0.80470900  0.04499500  1
  B  B73  1  0.61248000  0.23349700  0.19176200  1
  B  B74  1  0.52055100  0.04618900  0.24007900  1
  B  B75  1  0.80162600  0.61799200  0.09605400  1
  B  B76  1  0.45551900  0.34559200  0.16373700  1
  B  B77  1  0.76387100  0.93021500  0.01628600  1
  B  B78  1  0.80474700  0.28251300  0.09582300  1
  B  B79  1  0.56232600  0.47315000  0.04963300  1
  B  B80  1  0.15049600  0.16150600  0.10097600  1
  B  B81  1  0.77332400  0.43161400  0.01062700  1
  B  B82  1  0.56827700  0.26991600  0.05104600  1
  B  B83  1  0.90790900  0.14680900  0.04905500  1
  O  O0  1  0.44530400  0.13518800  0.96379500  1
  O  O1  1  0.83696800  0.43256100  0.89135200  1
  O  O2  1  0.02065800  0.28165700  0.67788000  1
  O  O3  1  0.12387100  0.00706100  0.74981800  1
  O  O4  1  0.41167500  0.57801900  0.60432700  1
  O  O5  1  0.97754500  0.71761500  0.32167100  1
  O  O6  1  0.59365600  0.42501900  0.39591800  1
  O  O7  1  0.69575300  0.14892700  0.46177900  1
  O  O8  1  0.87482600  0.99329900  0.25075200  1
  O  O9  1  0.16153800  0.56534400  0.10928500  1
  O  O10  1  0.55314500  0.86294000  0.03671000  1
loop_
_geom_bond_atom_site_label_1
_geom_bond_atom_site_label_2
_geom_bond_distance
_geom_bond_site_symmetry_2
B0 B4 1.699607 1_555
B0 B72 1.765897 1_456
B0 B6 1.790849 1_565
B0 B70 1.800410 1_556
B0 B21 1.809152 1_565
B0 B3 1.837328 1_455
B1 O9 1.497032 1_556
B1 B8 1.773540 1_555
B1 B5 1.791666 1_555
B1 B4 1.809112 1_555
B2 O10 1.477320 1_556
B2 B4 1.774872 1_555
B2 B7 1.784364 1_555
B2 B5 1.803813 1_555
B3 B77 1.783555 1_556
B3 B72 1.836322 1_556
B3 B7 2.268456 1_555
B5 B79 1.684699 1_556
B5 B8 1.780574 1_555
B5 B7 1.833728 1_555
B6 O0 1.476073 1_555
B6 B70 1.764855 1_546
B6 B80 1.776898 1_556
B10 B8 1.706174 1_555
B10 B83 1.765320 1_456
B10 B21 1.797344 1_555
B10 B6 1.805029 1_555
B10 B15 1.812841 1_455
B10 B80 1.834771 1_556
B11 B9 1.684404 1_555
B11 B22 1.762504 1_555
B11 B2 1.763943 1_555
B11 B16 1.772149 1_555
B11 B4 1.785764 1_555
B11 B7 1.824623 1_555
B12 O1 1.496625 1_455
B12 B16 1.770171 1_555
B12 B4 1.776012 1_555
B12 B8 1.818976 1_555
B13 B25 1.692430 1_555
B13 B5 1.764190 1_555
B13 B8 1.790055 1_555
B13 B23 1.793097 1_555
B13 B22 1.800551 1_555
B13 B7 1.843105 1_555
B14 B26 1.686280 1_555
B14 B9 1.752533 1_555
B14 B29 1.785245 1_565
B14 B28 1.786416 1_565
B14 B42 1.799227 1_565
B14 B24 1.844203 1_555
B15 B28 1.706728 1_555
B15 B21 1.758766 1_655
B15 B77 1.762762 1_546
B15 B83 1.804110 1_556
B15 B3 1.838815 1_545
B16 B27 1.687083 1_555
B16 B4 1.762598 1_555
B16 B22 1.774396 1_555
B16 B23 1.806690 1_555
B17 O0 1.487108 1_555
B17 B28 1.764500 1_555
B17 B9 1.782859 1_545
B17 B25 1.811491 1_555
B18 O1 1.488088 1_555
B18 B25 1.767393 1_555
B18 B32 1.768802 1_555
B18 B28 1.806156 1_555
B19 B35 1.776314 1_555
B19 B20 1.782129 1_555
B19 B26 1.825801 1_555
B19 B31 1.834972 1_555
B19 B27 1.858849 1_655
B19 B3 2.277538 1_555
B19 B7 2.293123 1_555
B20 O3 1.465054 1_665
B20 B26 1.760660 1_555
B20 B33 1.772917 1_555
B20 B30 1.787733 1_655
B20 B27 1.802289 1_655
B21 O3 1.475854 1_555
B21 B3 1.776067 1_445
B22 O4 1.481175 1_555
B22 B7 1.786208 1_555
B23 O2 1.491253 1_555
B23 B8 1.767916 1_555
B24 B34 1.783890 1_565
B24 B42 1.789930 1_565
B24 B37 1.833702 1_565
B24 B9 1.835122 1_555
B24 B40 2.231764 1_555
B24 B30 2.247836 1_555
B25 B32 1.764149 1_555
B25 B34 1.771768 1_555
B25 B37 1.782977 1_555
B26 B35 1.758871 1_555
B26 B38 1.768101 1_555
B26 B33 1.796970 1_555
B27 B31 1.777734 1_455
B27 B36 1.778643 1_455
B27 B30 1.851020 1_555
B28 B29 1.765706 1_555
B28 B9 1.787735 1_545
B29 O2 1.491605 1_655
B29 B32 1.805191 1_555
B30 B43 1.779166 1_455
B30 B33 1.825281 1_455
B30 B36 1.831388 1_455
B30 B40 2.280986 1_555
B31 B32 1.702655 1_555
B31 B44 1.783741 1_555
B31 B36 1.810484 1_555
B31 B35 1.810588 1_555
B32 B42 1.773346 1_555
B32 B37 1.790577 1_555
B33 B50 1.698410 1_665
B33 B43 1.760491 1_555
B33 B38 1.780046 1_555
B34 O3 1.470537 1_555
B34 B37 1.765960 1_555
B34 B9 1.800677 1_545
B35 O4 1.478421 1_555
B35 B38 1.768582 1_555
B36 B45 1.709551 1_655
B36 B44 1.788288 1_555
B36 B43 1.804829 1_555
B37 B46 1.689683 1_555
B37 B42 1.759973 1_555
B38 B47 1.699037 1_555
B38 B43 1.769069 1_555
B38 B44 1.808355 1_555
B39 O2 1.481400 1_555
B39 B50 1.763202 1_555
B39 B46 1.763999 1_555
B39 B45 1.810875 1_555
B40 B60 1.779387 1_565
B40 B53 1.788455 1_555
B40 B67 1.823176 1_555
B40 B51 1.831872 1_555
B40 B47 1.838994 1_555
B41 O4 1.489497 1_555
B41 B45 1.766933 1_555
B41 B52 1.784860 1_555
B41 B46 1.801099 1_555
B42 O7 1.473546 1_555
B43 O5 1.473229 1_555
B44 O6 1.491221 1_555
B45 B54 1.767351 1_455
B45 B52 1.780209 1_555
B45 B58 1.794293 1_555
B46 B50 1.763679 1_555
B46 B48 1.765047 1_555
B46 B55 1.774952 1_555
B47 B51 1.761052 1_555
B47 B56 1.788450 1_555
B47 B49 1.794713 1_555
B47 B60 1.802324 1_565
B48 O6 1.475683 1_555
B48 B55 1.759212 1_555
B48 B63 1.788617 1_555
B48 B52 1.801714 1_555
B49 O8 1.483092 1_555
B49 B56 1.761498 1_555
B49 B74 1.808331 1_565
B50 B66 1.776515 1_555
B50 B55 1.779041 1_555
B50 B54 1.805352 1_455
B51 B52 1.678057 1_555
B51 B56 1.774440 1_555
B51 B65 1.789008 1_555
B51 B53 1.798392 1_555
B52 B58 1.758704 1_555
B52 B63 1.836796 1_555
B53 O5 1.476778 1_455
B53 B67 1.755087 1_555
B53 B57 1.774756 1_555
B54 O7 1.481849 1_555
B54 B58 1.785902 1_655
B55 B67 1.679977 1_545
B55 B66 1.756965 1_555
B55 B63 1.822263 1_555
B56 B68 1.697836 1_555
B56 B65 1.766003 1_555
B56 B64 1.818003 1_555
B57 B70 1.702231 1_555
B57 B74 1.769761 1_565
B57 B64 1.770980 1_555
B57 B67 1.782500 1_555
B57 B65 1.798121 1_555
B58 B69 1.692370 1_455
B58 B66 1.804017 1_555
B58 B63 1.845001 1_555
B59 O6 1.474515 1_555
B59 B73 1.764993 1_555
B59 B69 1.770873 1_555
B59 B76 1.790052 1_555
B59 B68 1.801275 1_555
B60 O7 1.468793 1_555
B60 B67 1.759260 1_545
B60 B74 1.766802 1_555
B61 O8 1.479899 1_555
B61 B70 1.758198 1_655
B61 B80 1.777844 1_665
B61 B72 1.798977 1_555
B61 B83 1.809658 1_565
B62 O5 1.486813 1_555
B62 B75 1.765478 1_555
B62 B68 1.793091 1_555
B62 B69 1.810190 1_555
B63 B66 1.782979 1_555
B63 B76 2.238155 1_555
B63 B80 2.274840 1_555
B64 O10 1.483640 1_555
B64 B74 1.760119 1_565
B65 O9 1.489221 1_555
B66 O8 1.475253 1_445
B67 B74 1.774351 1_565
B68 B79 1.765403 1_555
B68 B75 1.794992 1_555
B68 B76 1.840240 1_555
B69 B78 1.761780 1_555
B69 B71 1.766682 1_555
B69 B73 1.784430 1_555
B70 B72 1.804820 1_455
B70 B80 1.839966 1_565
B71 O9 1.492433 1_655
B71 B78 1.776523 1_555
B71 B75 1.821735 1_555
B72 B75 1.705117 1_555
B72 B77 1.802554 1_555
B73 B74 1.692283 1_555
B73 B82 1.770269 1_555
B73 B78 1.787413 1_555
B73 B76 1.829203 1_555
B75 B81 1.774041 1_555
B75 B79 1.779835 1_555
B76 B82 1.788060 1_555
B76 B79 1.838471 1_555
B76 B80 2.276679 1_555
B77 O10 1.477993 1_555
B77 B83 1.792867 1_565
B78 B83 1.699017 1_555
B78 B82 1.775479 1_555
B78 B81 1.809812 1_555
B79 B81 1.791317 1_555
B79 B82 1.807271 1_555
B80 B83 1.836521 1_455
B81 O1 1.494169 1_554
B82 O0 1.480173 1_554
