# generated using pymatgen
data_Na6FeO4
_symmetry_space_group_name_H-M   'P 1'
_cell_length_a   5.41379300
_cell_length_b   10.73975346
_cell_length_c   10.73910293
_cell_angle_alpha   90.00318397
_cell_angle_beta   90.00123253
_cell_angle_gamma   90.00029370
_symmetry_Int_Tables_number   1
_chemical_formula_structural   Na6FeO4
_chemical_formula_sum   'Na24 Fe4 O16'
_cell_volume   624.40153542
_cell_formula_units_Z   4
loop_
 _symmetry_equiv_pos_site_id
 _symmetry_equiv_pos_as_xyz
  1  'x, y, z'
loop_
 _atom_site_type_symbol
 _atom_site_label
 _atom_site_symmetry_multiplicity
 _atom_site_fract_x
 _atom_site_fract_y
 _atom_site_fract_z
 _atom_site_occupancy
  Na  Na0  1  0.65413700  0.25002200  0.00000200  1
  Na  Na1  1  0.65413300  0.75000000  0.49999500  1
  Na  Na2  1  0.15412700  0.25001600  0.99999800  1
  Na  Na3  1  0.15413300  0.74999300  0.50000600  1
  Na  Na4  1  0.34587900  0.74999700  0.99999900  1
  Na  Na5  1  0.34588300  0.25002000  0.50000600  1
  Na  Na6  1  0.84587800  0.75000300  0.00000500  1
  Na  Na7  1  0.84587600  0.25002700  0.49999800  1
  Na  Na8  1  0.75001200  0.29005000  0.25000200  1
  Na  Na9  1  0.75000900  0.79004100  0.75000300  1
  Na  Na10  1  0.74999700  0.50000800  0.45981600  1
  Na  Na11  1  0.75000200  0.00001300  0.95981200  1
  Na  Na12  1  0.75000400  0.50000700  0.04019700  1
  Na  Na13  1  0.75000100  0.00001100  0.54020100  1
  Na  Na14  1  0.74998600  0.70995300  0.25000100  1
  Na  Na15  1  0.74998800  0.20996500  0.75000200  1
  Na  Na16  1  0.24999600  0.29040400  0.75000100  1
  Na  Na17  1  0.24999900  0.79040200  0.25000100  1
  Na  Na18  1  0.24999500  0.50000600  0.95962600  1
  Na  Na19  1  0.25000500  0.00000900  0.45961800  1
  Na  Na20  1  0.25001000  0.50001000  0.54034900  1
  Na  Na21  1  0.24999700  0.00001300  0.04035600  1
  Na  Na22  1  0.25000000  0.70961400  0.75000200  1
  Na  Na23  1  0.24999600  0.20962200  0.25000200  1
  Fe  Fe0  1  0.25000900  0.00001700  0.74999200  1
  Fe  Fe1  1  0.74997700  0.99993600  0.25001000  1
  Fe  Fe2  1  0.25001900  0.50001700  0.24998300  1
  Fe  Fe3  1  0.74999400  0.50004400  0.74999100  1
  O  O0  1  0.92145100  0.62451700  0.62547500  1
  O  O1  1  0.92145600  0.12453100  0.12543400  1
  O  O2  1  0.42148300  0.62460500  0.37454400  1
  O  O3  1  0.42148900  0.12458200  0.87456400  1
  O  O4  1  0.42149400  0.37541800  0.12545000  1
  O  O5  1  0.42150400  0.87543000  0.62542500  1
  O  O6  1  0.92145500  0.37547100  0.87455600  1
  O  O7  1  0.92147600  0.87551100  0.37455300  1
  O  O8  1  0.07848500  0.62460800  0.12544500  1
  O  O9  1  0.07848800  0.12458400  0.62542100  1
  O  O10  1  0.57855100  0.37547900  0.62546400  1
  O  O11  1  0.57854100  0.87551600  0.12545700  1
  O  O12  1  0.57853800  0.62452300  0.87454500  1
  O  O13  1  0.57854000  0.12452700  0.37457200  1
  O  O14  1  0.07850500  0.37541100  0.37455200  1
  O  O15  1  0.07850200  0.87543000  0.87456900  1
loop_
_geom_bond_atom_site_label_1
_geom_bond_atom_site_label_2
_geom_bond_distance
_geom_bond_site_symmetry_2
Na0 O4 2.283591 1_555
Na0 O3 2.283781 1_554
Na0 O6 2.392644 1_554
Na0 O1 2.392790 1_555
Na1 O2 2.283585 1_555
Na1 O5 2.283650 1_555
Na1 O0 2.393029 1_555
Na1 O7 2.393077 1_555
Na2 O6 2.284069 1_455
Na2 O1 2.284243 1_456
Na2 O4 2.392438 1_556
Na2 O3 2.392549 1_555
Na3 O0 2.284428 1_455
Na3 O7 2.284494 1_455
Na3 O2 2.392401 1_555
Na3 O5 2.392463 1_555
Na4 O12 2.284171 1_555
Na4 O11 2.284450 1_556
Na4 O8 2.392530 1_556
Na4 O15 2.392617 1_555
Na5 O10 2.284088 1_555
Na5 O13 2.284158 1_555
Na5 O14 2.392512 1_555
Na5 O9 2.392631 1_555
Na6 O8 2.283483 1_655
Na6 O15 2.283735 1_654
Na6 O12 2.392869 1_554
Na6 O11 2.393054 1_555
Na7 O14 2.283541 1_655
Na7 O9 2.283694 1_655
Na7 O10 2.392730 1_555
Na7 O13 2.392772 1_555
Na8 O14 2.406641 1_655
Na8 O4 2.406845 1_555
Na8 O1 2.410569 1_555
Na8 O13 2.410774 1_555
Na9 O15 2.406851 1_655
Na9 O5 2.407035 1_555
Na9 O0 2.410366 1_555
Na9 O12 2.410565 1_555
Na10 O14 2.406654 1_655
Na10 O2 2.406738 1_555
Na10 O0 2.411281 1_555
Na10 O10 2.411435 1_555
Na11 O15 2.406452 1_645
Na11 O3 2.406469 1_555
Na11 O1 2.411041 1_556
Na11 O11 2.411252 1_546
Na12 O8 2.406465 1_655
Na12 O4 2.406615 1_555
Na12 O6 2.411327 1_554
Na12 O12 2.411407 1_554
Na13 O9 2.406207 1_655
Na13 O5 2.406397 1_545
Na13 O13 2.411214 1_555
Na13 O7 2.411219 1_545
Na14 O8 2.406685 1_655
Na14 O2 2.406686 1_555
Na14 O7 2.410849 1_555
Na14 O11 2.410864 1_555
Na15 O3 2.406926 1_555
Na15 O9 2.406986 1_655
Na15 O6 2.410401 1_555
Na15 O10 2.410423 1_555
Na16 O6 2.405712 1_455
Na16 O10 2.405743 1_555
Na16 O9 2.413129 1_555
Na16 O3 2.413129 1_555
Na17 O7 2.405793 1_455
Na17 O11 2.405892 1_555
Na17 O8 2.412793 1_555
Na17 O2 2.412793 1_555
Na18 O6 2.405580 1_455
Na18 O12 2.405615 1_555
Na18 O8 2.413254 1_556
Na18 O4 2.413267 1_556
Na19 O7 2.405295 1_445
Na19 O13 2.405447 1_555
Na19 O9 2.412981 1_555
Na19 O5 2.413079 1_545
Na20 O0 2.405757 1_455
Na20 O10 2.405811 1_555
Na20 O14 2.413016 1_555
Na20 O2 2.413129 1_555
Na21 O1 2.405555 1_455
Na21 O11 2.405563 1_545
Na21 O15 2.412821 1_544
Na21 O3 2.412910 1_554
Na22 O0 2.405650 1_455
Na22 O12 2.405740 1_555
Na22 O15 2.413029 1_555
Na22 O5 2.413203 1_555
Na23 O1 2.405834 1_455
Na23 O13 2.405942 1_555
Na23 O14 2.412699 1_555
Na23 O4 2.412883 1_555
Fe0 O3 2.107361 1_555
Fe0 O5 2.107544 1_545
Fe0 O9 2.107566 1_555
Fe0 O15 2.107729 1_545
Fe1 O11 2.106138 1_555
Fe1 O7 2.106355 1_555
Fe1 O13 2.107399 1_565
Fe1 O1 2.107710 1_565
Fe2 O4 2.107346 1_555
Fe2 O2 2.107405 1_555
Fe2 O8 2.107536 1_555
Fe2 O14 2.107821 1_555
Fe3 O0 2.106417 1_555
Fe3 O12 2.106626 1_555
Fe3 O10 2.106966 1_555
Fe3 O6 2.107423 1_555
