# generated using pymatgen
data_LiFeSi3O8
_symmetry_space_group_name_H-M   'P 1'
_cell_length_a   7.78626622
_cell_length_b   7.78626622
_cell_length_c   12.94013376
_cell_angle_alpha   87.45739217
_cell_angle_beta   87.45739217
_cell_angle_gamma   118.34749628
_symmetry_Int_Tables_number   1
_chemical_formula_structural   LiFeSi3O8
_chemical_formula_sum   'Li4 Fe4 Si12 O32'
_cell_volume   687.84066971
_cell_formula_units_Z   4
loop_
 _symmetry_equiv_pos_site_id
 _symmetry_equiv_pos_as_xyz
  1  'x, y, z'
loop_
 _atom_site_type_symbol
 _atom_site_label
 _atom_site_symmetry_multiplicity
 _atom_site_fract_x
 _atom_site_fract_y
 _atom_site_fract_z
 _atom_site_occupancy
  Li  Li0  1  0.69528800  0.19276200  0.57234000  1
  Li  Li1  1  0.80723800  0.30471200  0.92766000  1
  Li  Li2  1  0.19276200  0.69528800  0.07234000  1
  Li  Li3  1  0.30471200  0.80723800  0.42766000  1
  Fe  Fe0  1  0.38967100  0.10933800  0.83375200  1
  Fe  Fe1  1  0.10933800  0.38967100  0.33375200  1
  Fe  Fe2  1  0.89066200  0.61032900  0.66624800  1
  Fe  Fe3  1  0.61032900  0.89066200  0.16624800  1
  Si  Si0  1  0.61191500  0.87121600  0.83687300  1
  Si  Si1  1  0.93027100  0.75375400  0.89671200  1
  Si  Si2  1  0.28131400  0.44306800  0.88584100  1
  Si  Si3  1  0.55693200  0.71868600  0.61415900  1
  Si  Si4  1  0.24624600  0.06972900  0.60328800  1
  Si  Si5  1  0.87121600  0.61191500  0.33687300  1
  Si  Si6  1  0.12878400  0.38808500  0.66312700  1
  Si  Si7  1  0.44306800  0.28131400  0.38584100  1
  Si  Si8  1  0.75375400  0.93027100  0.39671200  1
  Si  Si9  1  0.06972900  0.24624600  0.10328800  1
  Si  Si10  1  0.71868600  0.55693200  0.11415900  1
  Si  Si11  1  0.38808500  0.12878400  0.16312700  1
  O  O0  1  0.16023400  0.90632200  0.89801200  1
  O  O1  1  0.40939900  0.68165800  0.88637400  1
  O  O2  1  0.40843800  0.11870500  0.68790700  1
  O  O3  1  0.62034200  0.86354900  0.71018500  1
  O  O4  1  0.60825600  0.07064600  0.86828900  1
  O  O5  1  0.42273700  0.34465300  0.88309200  1
  O  O6  1  0.80410700  0.87132700  0.88219600  1
  O  O7  1  0.68165800  0.40939900  0.38637400  1
  O  O8  1  0.90632200  0.16023400  0.39801200  1
  O  O9  1  0.12867300  0.19589300  0.61780400  1
  O  O10  1  0.65534700  0.57726300  0.61690800  1
  O  O11  1  0.11870500  0.40843800  0.18790700  1
  O  O12  1  0.86354900  0.62034200  0.21018500  1
  O  O13  1  0.92935400  0.39174400  0.63171100  1
  O  O14  1  0.62179200  0.87253400  0.51020500  1
  O  O15  1  0.37820800  0.12746600  0.48979500  1
  O  O16  1  0.07064600  0.60825600  0.36828900  1
  O  O17  1  0.88129500  0.59156200  0.81209300  1
  O  O18  1  0.13645100  0.37965800  0.78981500  1
  O  O19  1  0.87132700  0.80410700  0.38219600  1
  O  O20  1  0.34465300  0.42273700  0.38309200  1
  O  O21  1  0.09367800  0.83976600  0.60198800  1
  O  O22  1  0.31834200  0.59060100  0.61362600  1
  O  O23  1  0.57726300  0.65534700  0.11690800  1
  O  O24  1  0.19589300  0.12867300  0.11780400  1
  O  O25  1  0.39174400  0.92935400  0.13171100  1
  O  O26  1  0.12746600  0.37820800  0.98979500  1
  O  O27  1  0.87253500  0.62179200  0.01020500  1
  O  O28  1  0.59156200  0.88129500  0.31209300  1
  O  O29  1  0.37965800  0.13645100  0.28981500  1
  O  O30  1  0.59060100  0.31834200  0.11362600  1
  O  O31  1  0.83976600  0.09367800  0.10198800  1
loop_
_geom_bond_atom_site_label_1
_geom_bond_atom_site_label_2
_geom_bond_distance
_geom_bond_site_symmetry_2
Li0 O13 1.964830 1_555
Li0 O2 2.441613 1_555
Li0 O14 2.460609 1_545
Li0 O15 2.566106 1_555
Li1 O4 1.964830 1_555
Li1 O17 2.441613 1_555
Li1 O26 2.460609 1_655
Li1 O27 2.566104 1_556
Li2 O25 1.964830 1_555
Li2 O11 2.441613 1_555
Li2 O27 2.460602 1_455
Li2 O26 2.566106 1_554
Li3 O16 1.964830 1_555
Li3 O28 2.441613 1_555
Li3 O15 2.460609 1_565
Li3 O14 2.566106 1_555
Fe0 O0 1.857818 1_545
Fe0 O5 1.871198 1_555
Fe0 O2 1.881913 1_555
Fe0 O4 1.931224 1_555
Fe1 O8 1.857818 1_455
Fe1 O20 1.871198 1_555
Fe1 O11 1.881913 1_555
Fe1 O16 1.931224 1_555
Fe2 O21 1.857818 1_655
Fe2 O10 1.871198 1_555
Fe2 O17 1.881913 1_555
Fe2 O13 1.931224 1_555
Fe3 O31 1.857818 1_565
Fe3 O23 1.871198 1_555
Fe3 O28 1.881913 1_555
Fe3 O25 1.931224 1_555
O0 Si1 1.613092 1_455
O1 Si2 1.639557 1_555
O1 Si0 1.640592 1_555
O2 Si4 1.625317 1_555
O3 Si0 1.642628 1_555
O3 Si3 1.646203 1_555
O4 Si0 1.635330 1_545
O5 Si2 1.612840 1_555
O6 Si0 1.630963 1_555
O6 Si1 1.641177 1_555
O7 Si7 1.639557 1_555
O7 Si5 1.640592 1_555
O8 Si8 1.613092 1_545
O9 Si6 1.630963 1_555
O9 Si4 1.641177 1_555
O10 Si3 1.612840 1_555
O11 Si9 1.625317 1_555
O12 Si5 1.642628 1_555
O12 Si10 1.646203 1_555
O13 Si6 1.635330 1_655
O14 Si3 1.649782 1_555
O14 Si8 1.668399 1_555
O15 Si7 1.649782 1_555
O15 Si4 1.668399 1_555
O16 Si5 1.635330 1_455
O17 Si1 1.625317 1_555
O18 Si6 1.642628 1_555
O18 Si2 1.646203 1_555
O19 Si5 1.630963 1_555
O19 Si8 1.641177 1_555
O20 Si7 1.612840 1_555
O21 Si4 1.613092 1_565
O22 Si3 1.639557 1_555
O22 Si6 1.640592 1_555
O23 Si10 1.612840 1_555
O24 Si11 1.630963 1_555
O24 Si9 1.641177 1_555
O25 Si11 1.635330 1_565
O26 Si2 1.649782 1_555
O26 Si9 1.668399 1_556
O27 Si10 1.649786 1_555
O27 Si1 1.668399 1_554
O28 Si8 1.625317 1_555
O29 Si11 1.642628 1_555
O29 Si7 1.646203 1_555
O30 Si10 1.639557 1_555
O30 Si11 1.640592 1_555
O31 Si9 1.613092 1_655
