# generated using pymatgen
data_MnP2O7
_symmetry_space_group_name_H-M   'P 1'
_cell_length_a   12.31892844
_cell_length_b   4.79049673
_cell_length_c   8.99153321
_cell_angle_alpha   59.20493421
_cell_angle_beta   90.00000000
_cell_angle_gamma   90.00000000
_symmetry_Int_Tables_number   1
_chemical_formula_structural   MnP2O7
_chemical_formula_sum   'Mn4 P8 O28'
_cell_volume   455.80849404
_cell_formula_units_Z   4
loop_
 _symmetry_equiv_pos_site_id
 _symmetry_equiv_pos_as_xyz
  1  'x, y, z'
loop_
 _atom_site_type_symbol
 _atom_site_label
 _atom_site_symmetry_multiplicity
 _atom_site_fract_x
 _atom_site_fract_y
 _atom_site_fract_z
 _atom_site_occupancy
  Mn  Mn0  1  0.14916346  0.62436429  0.65802642  1
  Mn  Mn1  1  0.64916346  0.37563571  0.84197358  1
  Mn  Mn2  1  0.35083654  0.62436429  0.15802642  1
  Mn  Mn3  1  0.85083654  0.37563571  0.34197358  1
  P  P0  1  0.51861460  0.11187010  0.19670898  1
  P  P1  1  0.19516658  0.22383418  0.06053725  1
  P  P2  1  0.69516658  0.77616582  0.43946275  1
  P  P3  1  0.01861460  0.88812990  0.30329102  1
  P  P4  1  0.98138540  0.11187010  0.69670898  1
  P  P5  1  0.30483342  0.22383418  0.56053725  1
  P  P6  1  0.80483342  0.77616582  0.93946275  1
  P  P7  1  0.48138540  0.88812990  0.80329102  1
  O  O0  1  0.26919471  0.91573648  0.56648117  1
  O  O1  1  0.26097350  0.29451538  0.18013598  1
  O  O2  1  0.93706015  0.03704610  0.36623611  1
  O  O3  1  0.53280638  0.66975083  0.74525993  1
  O  O4  1  0.18752752  0.52122959  0.88128579  1
  O  O5  1  0.60772750  0.28842754  0.06425999  1
  O  O6  1  0.07384818  0.16678909  0.13287609  1
  O  O7  1  0.57384818  0.83321091  0.36712391  1
  O  O8  1  0.10772750  0.71157246  0.43574001  1
  O  O9  1  0.68752752  0.47877041  0.61871421  1
  O  O10  1  0.43706015  0.96295390  0.13376389  1
  O  O11  1  0.03280638  0.33024917  0.75474007  1
  O  O12  1  0.76097350  0.70548462  0.31986402  1
  O  O13  1  0.76919471  0.08426352  0.93351883  1
  O  O14  1  0.23080529  0.91573648  0.06648117  1
  O  O15  1  0.23902650  0.29451538  0.68013598  1
  O  O16  1  0.96719362  0.66975083  0.24525993  1
  O  O17  1  0.56293985  0.03704610  0.86623611  1
  O  O18  1  0.31247248  0.52122959  0.38128579  1
  O  O19  1  0.89227250  0.28842754  0.56425999  1
  O  O20  1  0.42615182  0.16678909  0.63287609  1
  O  O21  1  0.92615182  0.83321091  0.86712391  1
  O  O22  1  0.39227250  0.71157246  0.93574001  1
  O  O23  1  0.81247248  0.47877041  0.11871421  1
  O  O24  1  0.46719362  0.33024917  0.25474007  1
  O  O25  1  0.06293985  0.96295390  0.63376389  1
  O  O26  1  0.73902650  0.70548462  0.81986402  1
  O  O27  1  0.73080529  0.08426352  0.43351883  1
loop_
_geom_bond_atom_site_label_1
_geom_bond_atom_site_label_2
_geom_bond_distance
_geom_bond_site_symmetry_2
Mn0 O15 1.854777 1_555
Mn0 O25 1.855916 1_555
Mn0 O4 1.865941 1_555
Mn0 O11 1.881868 1_555
Mn0 O8 1.890737 1_555
Mn0 O0 1.906786 1_555
Mn1 O26 1.854777 1_555
Mn1 O17 1.855916 1_555
Mn1 O9 1.865941 1_555
Mn1 O3 1.881868 1_555
Mn1 O5 1.890737 1_556
Mn1 O13 1.906786 1_555
Mn2 O1 1.854777 1_555
Mn2 O10 1.855916 1_555
Mn2 O18 1.865941 1_555
Mn2 O24 1.881868 1_555
Mn2 O22 1.890737 1_554
Mn2 O14 1.906786 1_555
Mn3 O12 1.854777 1_555
Mn3 O2 1.855916 1_555
Mn3 O23 1.865941 1_555
Mn3 O16 1.881868 1_555
Mn3 O19 1.890737 1_555
Mn3 O27 1.906786 1_555
O0 P5 1.514344 1_565
O1 P1 1.516940 1_555
O2 P3 1.500669 1_645
O3 P7 1.525410 1_555
O4 P1 1.511653 1_556
O5 P0 1.519008 1_555
O6 P3 1.580646 1_545
O6 P1 1.596657 1_555
O7 P0 1.580646 1_565
O7 P2 1.596657 1_555
O8 P3 1.519008 1_555
O9 P2 1.511653 1_555
O10 P0 1.500669 1_565
O11 P4 1.525410 1_455
O12 P2 1.516940 1_555
O13 P6 1.514344 1_545
O14 P1 1.514344 1_565
O15 P5 1.516940 1_555
O16 P3 1.525410 1_655
O17 P7 1.500669 1_545
O18 P5 1.511653 1_555
O19 P4 1.519008 1_555
O20 P7 1.580646 1_545
O20 P5 1.596657 1_555
O21 P4 1.580646 1_565
O21 P6 1.596657 1_555
O22 P7 1.519008 1_555
O23 P6 1.511653 1_554
O24 P0 1.525410 1_555
O25 P4 1.500669 1_465
O26 P6 1.516940 1_555
O27 P2 1.514344 1_545
