# generated using pymatgen
data_Ca2Mn2Si4H6O17
_symmetry_space_group_name_H-M   'P 1'
_cell_length_a   5.45535706
_cell_length_b   5.45535706
_cell_length_c   12.03166940
_cell_angle_alpha   86.54954761
_cell_angle_beta   86.54954761
_cell_angle_gamma   67.18127609
_symmetry_Int_Tables_number   1
_chemical_formula_structural   Ca2Mn2Si4H6O17
_chemical_formula_sum   'Ca2 Mn2 Si4 H6 O17'
_cell_volume   329.18688197
_cell_formula_units_Z   1
loop_
 _symmetry_equiv_pos_site_id
 _symmetry_equiv_pos_as_xyz
  1  'x, y, z'
loop_
 _atom_site_type_symbol
 _atom_site_label
 _atom_site_symmetry_multiplicity
 _atom_site_fract_x
 _atom_site_fract_y
 _atom_site_fract_z
 _atom_site_occupancy
  Ca  Ca0  1  0.70204100  0.69365500  0.73382500  1
  Ca  Ca1  1  0.30634500  0.29795900  0.26617500  1
  Mn  Mn0  1  0.50518100  0.99347300  0.00023600  1
  Mn  Mn1  1  0.00652700  0.49481900  0.99976400  1
  Si  Si0  1  0.04060200  0.03139500  0.85145500  1
  Si  Si1  1  0.96860500  0.95939800  0.14854500  1
  Si  Si2  1  0.11395200  0.08539900  0.60408900  1
  Si  Si3  1  0.91460100  0.88604800  0.39591100  1
  H  H0  1  0.95049000  0.47839400  0.50701200  1
  H  H1  1  0.52160600  0.04951000  0.49298800  1
  H  H2  1  0.43908200  0.31186600  0.67477700  1
  H  H3  1  0.68813400  0.56091800  0.32522300  1
  H  H4  1  0.39425300  0.40059900  0.80192700  1
  H  H5  1  0.59940100  0.60574700  0.19807300  1
  O  O0  1  0.87309800  0.86387000  0.92091300  1
  O  O1  1  0.13613000  0.12690200  0.07908800  1
  O  O2  1  0.98635000  0.99028100  0.72056100  1
  O  O3  1  0.00971900  0.01365000  0.27943900  1
  O  O4  1  0.35785700  0.89491500  0.87360900  1
  O  O5  1  0.10508500  0.64214300  0.12639100  1
  O  O6  1  0.65057600  0.09098300  0.12706400  1
  O  O7  1  0.90901700  0.34942400  0.87293600  1
  O  O8  1  0.06672600  0.93327400  0.50000000  1
  O  O9  1  0.42634700  0.02238200  0.61379100  1
  O  O10  1  0.97761800  0.57365300  0.38620900  1
  O  O11  1  0.59192600  0.06483900  0.41185400  1
  O  O12  1  0.93516100  0.40807400  0.58814600  1
  O  O13  1  0.36284700  0.34935100  0.94286300  1
  O  O14  1  0.65064900  0.63715300  0.05713700  1
  O  O15  1  0.42197000  0.45889600  0.72310600  1
  O  O16  1  0.54110400  0.57803000  0.27689400  1
loop_
_geom_bond_atom_site_label_1
_geom_bond_atom_site_label_2
_geom_bond_distance
_geom_bond_site_symmetry_2
Ca0 O9 2.328407 1_565
Ca0 O15 2.356390 1_555
Ca0 O12 2.374937 1_555
Ca0 O4 2.408890 1_555
Ca0 O7 2.409843 1_555
Ca0 O2 2.633534 1_555
Ca0 O0 2.824281 1_555
Ca1 O10 2.328407 1_455
Ca1 O16 2.356390 1_555
Ca1 O11 2.374937 1_555
Ca1 O5 2.408890 1_555
Ca1 O6 2.409843 1_555
Ca1 O3 2.633534 1_555
Ca1 O1 2.824271 1_555
Mn0 O13 1.892766 1_564
Mn0 O14 1.893606 1_555
Mn0 O6 1.952257 1_565
Mn0 O4 1.958916 1_554
Mn0 O0 2.046759 1_554
Mn0 O1 2.049350 1_565
Mn1 O14 1.892766 1_456
Mn1 O13 1.893606 1_555
Mn1 O7 1.952257 1_455
Mn1 O5 1.958916 1_556
Mn1 O1 2.046764 1_556
Mn1 O0 2.049345 1_455
H0 O12 1.037815 1_555
H0 O10 1.532107 1_555
H1 O11 1.037815 1_555
H1 O9 1.532107 1_555
H2 O15 0.990822 1_555
H3 O16 0.990822 1_555
H4 O15 1.003546 1_555
H4 O13 1.711145 1_555
H5 O16 1.003546 1_555
H5 O14 1.711145 1_555
O0 Si0 1.683013 1_665
O1 Si1 1.683008 1_445
O2 Si0 1.663803 1_665
O2 Si2 1.671180 1_665
O3 Si1 1.663803 1_445
O3 Si3 1.671180 1_445
O4 Si0 1.628805 1_565
O5 Si1 1.628805 1_455
O6 Si1 1.630286 1_545
O7 Si0 1.630286 1_655
O8 Si2 1.628896 1_565
O8 Si3 1.628896 1_455
O9 Si2 1.612726 1_555
O10 Si3 1.612726 1_555
O11 Si3 1.654380 1_545
O12 Si2 1.654380 1_655
