# generated using pymatgen
data_Li2PdO3
_symmetry_space_group_name_H-M   'P 1'
_cell_length_a   5.10082048
_cell_length_b   5.10082048
_cell_length_c   5.05887629
_cell_angle_alpha   80.32120580
_cell_angle_beta   99.67879420
_cell_angle_gamma   60.04555646
_symmetry_Int_Tables_number   1
_chemical_formula_structural   Li2PdO3
_chemical_formula_sum   'Li4 Pd2 O6'
_cell_volume   107.41088670
_cell_formula_units_Z   2
loop_
 _symmetry_equiv_pos_site_id
 _symmetry_equiv_pos_as_xyz
  1  'x, y, z'
loop_
 _atom_site_type_symbol
 _atom_site_label
 _atom_site_symmetry_multiplicity
 _atom_site_fract_x
 _atom_site_fract_y
 _atom_site_fract_z
 _atom_site_occupancy
  Li  Li0  1  0.50000000  0.50000000  0.50000000  1
  Li  Li1  1  0.16353201  0.16353201  0.50000000  1
  Li  Li2  1  0.83646799  0.83646799  0.50000000  1
  Li  Li3  1  -0.00000000  0.00000000  0.00000000  1
  Pd  Pd0  1  0.33330368  0.33330368  0.00000000  1
  Pd  Pd1  1  0.66669632  0.66669632  0.00000000  1
  O  O0  1  0.26766340  0.73233660  0.76236266  1
  O  O1  1  0.07799832  0.57501129  0.23521106  1
  O  O2  1  0.42498871  0.92200168  0.23521106  1
  O  O3  1  0.92200168  0.42498871  0.76478894  1
  O  O4  1  0.57501129  0.07799832  0.76478894  1
  O  O5  1  0.73233660  0.26766340  0.23763734  1
loop_
_geom_bond_atom_site_label_1
_geom_bond_atom_site_label_2
_geom_bond_distance
_geom_bond_site_symmetry_2
Li0 O5 2.055684 1_555
Li0 O0 2.055684 1_555
Li0 O4 2.147064 1_555
Li0 O3 2.147064 1_555
Li0 O1 2.147064 1_555
Li0 O2 2.147064 1_555
Li1 O4 2.081744 1_555
Li1 O1 2.081744 1_555
Li1 O0 2.120388 1_545
Li1 O5 2.120388 1_455
Li1 O3 2.146069 1_455
Li1 O2 2.146069 1_545
Li2 O3 2.081744 1_555
Li2 O2 2.081744 1_555
Li2 O0 2.120388 1_655
Li2 O5 2.120388 1_565
Li2 O1 2.146069 1_655
Li2 O4 2.146069 1_565
Li3 O3 2.094200 1_454
Li3 O1 2.094200 1_545
Li3 O2 2.094200 1_545
Li3 O4 2.094200 1_454
Li3 O5 2.101344 1_455
Li3 O0 2.101344 1_544
O0 Pd1 2.015317 1_556
O0 Pd0 2.015317 1_556
O1 Pd1 2.007427 1_455
O1 Pd0 2.010672 1_555
O2 Pd0 2.007427 1_565
O2 Pd1 2.010672 1_555
O3 Pd0 2.007427 1_656
O3 Pd1 2.010672 1_556
O4 Pd1 2.007427 1_546
O4 Pd0 2.010672 1_556
O5 Pd1 2.015317 1_555
O5 Pd0 2.015317 1_555
