# generated using pymatgen
data_LiCuPO4
_symmetry_space_group_name_H-M   'P 1'
_cell_length_a   5.47127700
_cell_length_b   7.58994700
_cell_length_c   15.41801500
_cell_angle_alpha   90.00000000
_cell_angle_beta   90.00000000
_cell_angle_gamma   90.00000000
_symmetry_Int_Tables_number   1
_chemical_formula_structural   LiCuPO4
_chemical_formula_sum   'Li8 Cu8 P8 O32'
_cell_volume   640.25932131
_cell_formula_units_Z   8
loop_
 _symmetry_equiv_pos_site_id
 _symmetry_equiv_pos_as_xyz
  1  'x, y, z'
loop_
 _atom_site_type_symbol
 _atom_site_label
 _atom_site_symmetry_multiplicity
 _atom_site_fract_x
 _atom_site_fract_y
 _atom_site_fract_z
 _atom_site_occupancy
  Li  Li0  1  0.36332500  0.19404500  0.48748900  1
  Li  Li1  1  0.86332500  0.19404500  0.01251100  1
  Li  Li2  1  0.36332500  0.30595500  0.98748900  1
  Li  Li3  1  0.86332500  0.30595500  0.51251100  1
  Li  Li4  1  0.13667500  0.69404500  0.48748900  1
  Li  Li5  1  0.63667500  0.69404500  0.01251100  1
  Li  Li6  1  0.63667500  0.80595500  0.51251100  1
  Li  Li7  1  0.13667500  0.80595500  0.98748900  1
  Cu  Cu0  1  0.89856200  0.12935500  0.18961200  1
  Cu  Cu1  1  0.39856200  0.12935500  0.31038800  1
  Cu  Cu2  1  0.89856200  0.37064500  0.68961200  1
  Cu  Cu3  1  0.39856200  0.37064500  0.81038800  1
  Cu  Cu4  1  0.60143800  0.62935500  0.18961200  1
  Cu  Cu5  1  0.10143800  0.62935500  0.31038800  1
  Cu  Cu6  1  0.60143800  0.87064500  0.68961200  1
  Cu  Cu7  1  0.10143800  0.87064500  0.81038800  1
  P  P0  1  0.11101700  0.99129800  0.62071000  1
  P  P1  1  0.61101700  0.99129800  0.87929000  1
  P  P2  1  0.11101700  0.50870200  0.12071000  1
  P  P3  1  0.61101700  0.50870200  0.37929000  1
  P  P4  1  0.38898300  0.49129800  0.62071000  1
  P  P5  1  0.88898300  0.49129800  0.87929000  1
  P  P6  1  0.38898300  0.00870200  0.12071000  1
  P  P7  1  0.88898300  0.00870200  0.37929000  1
  O  O0  1  0.22142300  0.03879400  0.04278600  1
  O  O1  1  0.72142300  0.03879400  0.45721400  1
  O  O2  1  0.76423600  0.97219900  0.79105300  1
  O  O3  1  0.26423600  0.97219900  0.70894700  1
  O  O4  1  0.59624600  0.14923800  0.12051400  1
  O  O5  1  0.09624600  0.14923800  0.37948600  1
  O  O6  1  0.00832800  0.18039500  0.61625400  1
  O  O7  1  0.50832800  0.18039500  0.88374600  1
  O  O8  1  0.00832800  0.31960500  0.11625400  1
  O  O9  1  0.50832800  0.31960500  0.38374600  1
  O  O10  1  0.59624600  0.35076200  0.62051400  1
  O  O11  1  0.09624600  0.35076200  0.87948600  1
  O  O12  1  0.76423600  0.52780100  0.29105300  1
  O  O13  1  0.26423600  0.52780100  0.20894700  1
  O  O14  1  0.22142300  0.46120600  0.54278600  1
  O  O15  1  0.72142300  0.46120600  0.95721400  1
  O  O16  1  0.77857700  0.53879400  0.45721400  1
  O  O17  1  0.27857700  0.53879400  0.04278600  1
  O  O18  1  0.73576400  0.47219900  0.79105300  1
  O  O19  1  0.23576400  0.47219900  0.70894700  1
  O  O20  1  0.90375400  0.64923800  0.12051400  1
  O  O21  1  0.40375400  0.64923800  0.37948600  1
  O  O22  1  0.49167200  0.68039500  0.61625400  1
  O  O23  1  0.99167200  0.68039500  0.88374600  1
  O  O24  1  0.49167200  0.81960500  0.11625400  1
  O  O25  1  0.99167200  0.81960500  0.38374600  1
  O  O26  1  0.90375400  0.85076200  0.62051400  1
  O  O27  1  0.40375400  0.85076200  0.87948600  1
  O  O28  1  0.73576400  0.02780100  0.29105300  1
  O  O29  1  0.23576400  0.02780100  0.20894700  1
  O  O30  1  0.27857700  0.96120600  0.54278600  1
  O  O31  1  0.77857700  0.96120600  0.95721400  1
loop_
_geom_bond_atom_site_label_1
_geom_bond_atom_site_label_2
_geom_bond_distance
_geom_bond_site_symmetry_2
Li0 O30 2.016184 1_545
Li0 O9 2.023868 1_555
Li0 O5 2.241386 1_555
Li0 O14 2.332674 1_555
Li0 O1 2.333465 1_555
Li1 O31 2.016184 1_544
Li1 O8 2.023868 1_655
Li1 O4 2.241386 1_555
Li1 O15 2.332674 1_554
Li1 O0 2.333465 1_655
Li2 O17 2.016184 1_556
Li2 O7 2.023868 1_555
Li2 O11 2.241386 1_555
Li2 O0 2.332674 1_556
Li2 O15 2.333465 1_555
Li3 O16 2.016184 1_555
Li3 O6 2.023868 1_655
Li3 O10 2.241386 1_555
Li3 O1 2.332674 1_555
Li3 O14 2.333465 1_655
Li4 O14 2.016184 1_555
Li4 O25 2.023868 1_455
Li4 O21 2.241386 1_555
Li4 O30 2.332674 1_555
Li4 O16 2.333465 1_455
Li5 O15 2.016184 1_554
Li5 O24 2.023868 1_555
Li5 O20 2.241386 1_555
Li5 O31 2.332674 1_554
Li5 O17 2.333465 1_555
Li6 O1 2.016184 1_565
Li6 O22 2.023868 1_555
Li6 O26 2.241386 1_555
Li6 O16 2.332674 1_555
Li6 O30 2.333465 1_555
Li7 O0 2.016184 1_566
Li7 O23 2.023868 1_455
Li7 O27 2.241386 1_555
Li7 O17 2.332674 1_556
Li7 O31 2.333465 1_455
Cu0 O8 1.930029 1_655
Cu0 O28 1.957969 1_555
Cu0 O4 1.973233 1_555
Cu0 O29 2.021567 1_655
Cu1 O9 1.930029 1_555
Cu1 O29 1.957969 1_555
Cu1 O5 1.973233 1_555
Cu1 O28 2.021567 1_555
Cu2 O6 1.930029 1_655
Cu2 O18 1.957969 1_555
Cu2 O10 1.973233 1_555
Cu2 O19 2.021567 1_655
Cu3 O7 1.930029 1_555
Cu3 O19 1.957969 1_555
Cu3 O11 1.973233 1_555
Cu3 O18 2.021567 1_555
Cu4 O24 1.930029 1_555
Cu4 O12 1.957969 1_555
Cu4 O20 1.973233 1_555
Cu4 O13 2.021567 1_555
Cu5 O25 1.930029 1_455
Cu5 O13 1.957969 1_555
Cu5 O21 1.973233 1_555
Cu5 O12 2.021567 1_455
Cu6 O22 1.930029 1_555
Cu6 O2 1.957969 1_555
Cu6 O26 1.973233 1_555
Cu6 O3 2.021567 1_555
Cu7 O23 1.930029 1_455
Cu7 O3 1.957969 1_555
Cu7 O27 1.973233 1_555
Cu7 O2 2.021567 1_455
O0 P6 1.528421 1_555
O1 P7 1.528421 1_555
O2 P1 1.604544 1_555
O3 P0 1.604544 1_555
O4 P6 1.556829 1_555
O5 P7 1.556829 1_455
O6 P0 1.542818 1_545
O7 P1 1.542818 1_545
O8 P2 1.542818 1_555
O9 P3 1.542818 1_555
O10 P4 1.556829 1_555
O11 P5 1.556829 1_455
O12 P3 1.604544 1_555
O13 P2 1.604544 1_555
O14 P4 1.528421 1_555
O15 P5 1.528421 1_555
O16 P3 1.528421 1_555
O17 P2 1.528421 1_555
O18 P5 1.604544 1_555
O19 P4 1.604544 1_555
O20 P2 1.556829 1_655
O21 P3 1.556829 1_555
O22 P4 1.542818 1_555
O23 P5 1.542818 1_555
O24 P6 1.542818 1_565
O25 P7 1.542818 1_565
O26 P0 1.556829 1_655
O27 P1 1.556829 1_555
O28 P7 1.604544 1_555
O29 P6 1.604544 1_555
O30 P0 1.528421 1_555
O31 P1 1.528421 1_555
