# generated using pymatgen
data_Sn2N2O
_symmetry_space_group_name_H-M   'P 1'
_cell_length_a   8.81708100
_cell_length_b   8.81982937
_cell_length_c   8.86583690
_cell_angle_alpha   109.43992882
_cell_angle_beta   109.41714059
_cell_angle_gamma   109.14561283
_symmetry_Int_Tables_number   1
_chemical_formula_structural   Sn2N2O
_chemical_formula_sum   'Sn16 N16 O8'
_cell_volume   533.41295966
_cell_formula_units_Z   8
loop_
 _symmetry_equiv_pos_site_id
 _symmetry_equiv_pos_as_xyz
  1  'x, y, z'
loop_
 _atom_site_type_symbol
 _atom_site_label
 _atom_site_symmetry_multiplicity
 _atom_site_fract_x
 _atom_site_fract_y
 _atom_site_fract_z
 _atom_site_occupancy
  Sn  Sn0  1  0.97302400  0.22274100  0.26054100  1
  Sn  Sn1  1  0.99643100  0.99688600  0.49146500  1
  Sn  Sn2  1  0.73160700  0.75404000  0.96902200  1
  Sn  Sn3  1  0.77753800  0.23899400  0.52752000  1
  Sn  Sn4  1  0.24418500  0.52801000  0.77971000  1
  Sn  Sn5  1  0.25293500  0.03107500  0.28627600  1
  Sn  Sn6  1  0.46358500  0.71364700  0.25472500  1
  Sn  Sn7  1  0.48847100  0.99625300  0.99028900  1
  Sn  Sn8  1  0.00658800  0.50353500  0.01020800  1
  Sn  Sn9  1  0.53167800  0.28141500  0.74889700  1
  Sn  Sn10  1  0.51539600  0.50513500  0.50074600  1
  Sn  Sn11  1  0.75117600  0.47367500  0.20977200  1
  Sn  Sn12  1  0.73712900  0.95353700  0.70371900  1
  Sn  Sn13  1  0.29613500  0.25602000  0.03185100  1
  Sn  Sn14  1  0.21400700  0.74846200  0.46895800  1
  Sn  Sn15  1  0.03488500  0.78614200  0.75227100  1
  N  N0  1  0.03772500  0.27733100  0.53884000  1
  N  N1  1  0.23177300  0.45929800  0.98884900  1
  N  N2  1  0.54654900  0.27203300  0.50347500  1
  N  N3  1  0.27137100  0.04348600  0.54567600  1
  N  N4  1  0.77981500  0.73838600  0.74208800  1
  N  N5  1  0.50213200  0.22713400  0.95553800  1
  N  N6  1  0.99586600  0.45053200  0.23094800  1
  N  N7  1  0.72434000  0.95984800  0.45594100  1
  N  N8  1  0.23390700  0.77028300  0.22778700  1
  N  N9  1  0.26153100  0.00298300  0.04003600  1
  N  N10  1  0.76979300  0.53938800  0.99418800  1
  N  N11  1  0.45646600  0.72693500  0.50897200  1
  N  N12  1  0.26540800  0.75533300  0.73410100  1
  N  N13  1  0.96331200  0.96706300  0.22218400  1
  N  N14  1  0.54495100  0.50291900  0.27013200  1
  N  N15  1  0.95665400  0.73073500  0.46548600  1
  O  O0  1  0.45486600  0.49861900  0.73042300  1
  O  O1  1  0.03812300  0.05397100  0.77472700  1
  O  O2  1  0.71474400  0.21181100  0.26194700  1
  O  O3  1  0.72357600  0.00610500  0.95339500  1
  O  O4  1  0.77379000  0.22261500  0.77761800  1
  O  O5  1  0.97897300  0.53137900  0.76598800  1
  O  O6  1  0.23705800  0.28511000  0.27951000  1
  O  O7  1  0.52249900  0.77713300  0.04617600  1
loop_
_geom_bond_atom_site_label_1
_geom_bond_atom_site_label_2
_geom_bond_distance
_geom_bond_site_symmetry_2
N0 Sn4 2.096416 1_555
N0 Sn3 2.168588 1_455
N0 Sn0 2.176764 1_455
N0 Sn1 2.245692 1_445
N1 Sn4 2.157930 1_555
N1 Sn13 2.158774 1_556
N1 Sn8 2.199802 1_556
N1 Sn6 2.244027 1_556
N2 Sn3 2.102441 1_555
N2 Sn10 2.168399 1_555
N2 Sn9 2.198958 1_555
N2 Sn5 2.297643 1_555
N3 Sn9 2.119477 1_555
N3 Sn1 2.171823 1_445
N3 Sn5 2.213521 1_555
N3 Sn14 2.284534 1_545
N4 Sn15 2.112292 1_655
N4 Sn2 2.160998 1_555
N4 Sn12 2.161308 1_555
N4 Sn10 2.202973 1_555
N5 Sn9 2.114899 1_555
N5 Sn7 2.130135 1_545
N5 Sn13 2.197141 1_556
N5 Sn11 2.223799 1_556
N6 Sn0 2.065522 1_555
N6 Sn8 2.181856 1_655
N6 Sn11 2.185535 1_555
N6 Sn14 2.313520 1_655
N7 Sn6 2.145528 1_555
N7 Sn3 2.165381 1_565
N7 Sn12 2.182286 1_555
N7 Sn1 2.208263 1_555
N8 Sn5 2.117259 1_565
N8 Sn8 2.142140 1_555
N8 Sn6 2.197480 1_555
N8 Sn14 2.267346 1_555
N9 Sn5 2.143699 1_555
N9 Sn13 2.180576 1_555
N9 Sn7 2.202066 1_544
N9 Sn15 2.239533 1_544
N10 Sn2 2.096820 1_555
N10 Sn8 2.178310 1_656
N10 Sn9 2.202584 1_555
N10 Sn11 2.213507 1_556
N11 Sn14 2.130454 1_555
N11 Sn10 2.167744 1_555
N11 Sn12 2.171947 1_555
N11 Sn6 2.240926 1_555
N12 Sn4 2.135934 1_555
N12 Sn7 2.149000 1_555
N12 Sn15 2.186744 1_555
N12 Sn14 2.216697 1_555
N13 Sn2 2.089955 1_554
N13 Sn0 2.133469 1_565
N13 Sn1 2.218611 1_555
N13 Sn5 2.244694 1_665
N14 Sn11 2.126464 1_555
N14 Sn10 2.140003 1_555
N14 Sn13 2.177274 1_555
N14 Sn6 2.228479 1_555
N15 Sn11 2.171584 1_555
N15 Sn1 2.175489 1_555
N15 Sn14 2.211756 1_655
N15 Sn15 2.228252 1_655
O0 Sn4 2.118712 1_555
O0 Sn9 2.267499 1_555
O0 Sn10 2.283619 1_555
O0 Sn2 2.300882 1_555
O1 Sn13 2.176296 1_556
O1 Sn1 2.262448 1_445
O1 Sn12 2.280361 1_445
O1 Sn15 2.293340 1_545
O2 Sn3 2.139684 1_555
O2 Sn7 2.159821 1_544
O2 Sn0 2.251912 1_555
O2 Sn11 2.444318 1_555
O3 Sn12 2.158304 1_545
O3 Sn7 2.182480 1_545
O3 Sn2 2.295312 1_545
O3 Sn0 2.387771 1_556
O4 Sn12 2.118240 1_545
O4 Sn8 2.247946 1_656
O4 Sn3 2.279760 1_555
O4 Sn9 2.311599 1_555
O5 Sn15 2.191310 1_655
O5 Sn8 2.202359 1_656
O5 Sn3 2.268133 1_555
O5 Sn4 2.311409 1_655
O6 Sn0 2.142105 1_455
O6 Sn10 2.185825 1_555
O6 Sn5 2.309297 1_555
O6 Sn13 2.373054 1_555
O7 Sn2 2.213779 1_554
O7 Sn7 2.233688 1_554
O7 Sn6 2.266925 1_555
O7 Sn4 2.363098 1_554
