# generated using pymatgen
data_BaNb3NO7
_symmetry_space_group_name_H-M   'P 1'
_cell_length_a   10.77684159
_cell_length_b   10.77684159
_cell_length_c   9.11880234
_cell_angle_alpha   88.53951526
_cell_angle_beta   88.53951526
_cell_angle_gamma   20.71908437
_symmetry_Int_Tables_number   1
_chemical_formula_structural   BaNb3NO7
_chemical_formula_sum   'Ba2 Nb6 N2 O14'
_cell_volume   374.55544770
_cell_formula_units_Z   2
loop_
 _symmetry_equiv_pos_site_id
 _symmetry_equiv_pos_as_xyz
  1  'x, y, z'
loop_
 _atom_site_type_symbol
 _atom_site_label
 _atom_site_symmetry_multiplicity
 _atom_site_fract_x
 _atom_site_fract_y
 _atom_site_fract_z
 _atom_site_occupancy
  Ba  Ba0  1  0.98265200  0.98265200  0.74869700  1
  Ba  Ba1  1  0.01723800  0.01723800  0.24799400  1
  Nb  Nb0  1  0.62745300  0.62745300  0.92824500  1
  Nb  Nb1  1  0.24123800  0.24123800  0.75342000  1
  Nb  Nb2  1  0.63198700  0.63198700  0.55721100  1
  Nb  Nb3  1  0.36839000  0.36839000  0.43831200  1
  Nb  Nb4  1  0.75923700  0.75923700  0.23689700  1
  Nb  Nb5  1  0.36816700  0.36816700  0.05932200  1
  N  N0  1  0.58040400  0.58040400  0.74980900  1
  N  N1  1  0.84439800  0.84439800  0.09455300  1
  O  O0  1  0.43610300  0.43610300  0.92946100  1
  O  O1  1  0.15567700  0.15567700  0.90785700  1
  O  O2  1  0.29795800  0.29795800  0.90076100  1
  O  O3  1  0.71372200  0.71372200  0.75166900  1
  O  O4  1  0.29697300  0.29697300  0.59412500  1
  O  O5  1  0.15497900  0.15497900  0.59194700  1
  O  O6  1  0.43361700  0.43361700  0.56482600  1
  O  O7  1  0.56642300  0.56642300  0.42894000  1
  O  O8  1  0.84838400  0.84838400  0.41140900  1
  O  O9  1  0.70561400  0.70561400  0.40784200  1
  O  O10  1  0.28676500  0.28676500  0.25808000  1
  O  O11  1  0.42093000  0.42093000  0.25216700  1
  O  O12  1  0.70226000  0.70226000  0.09269600  1
  O  O13  1  0.56442200  0.56442200  0.07185500  1
loop_
_geom_bond_atom_site_label_1
_geom_bond_atom_site_label_2
_geom_bond_distance
_geom_bond_site_symmetry_2
Ba0 O0 2.713382 1_565
Ba0 O0 2.713382 1_655
Ba0 O6 2.781744 1_655
Ba0 O6 2.781744 1_565
Ba0 N0 2.837667 1_565
Ba0 N0 2.837667 1_655
Ba1 O13 2.693135 1_545
Ba1 O13 2.693135 1_455
Ba1 O7 2.766735 1_455
Ba1 O7 2.766735 1_545
Ba1 O11 2.814714 1_455
Ba1 O11 2.814714 1_545
Nb0 O13 1.846676 1_556
Nb0 O1 2.035317 1_655
Nb0 O1 2.035317 1_565
Nb0 O12 2.210814 1_556
Nb0 O3 2.405332 1_555
Nb1 O2 1.826241 1_555
Nb1 O4 1.848643 1_555
Nb1 O3 2.024034 1_455
Nb1 O3 2.024034 1_545
Nb1 O1 2.267554 1_555
Nb1 O5 2.377493 1_555
Nb2 O7 1.839785 1_555
Nb2 O5 2.025238 1_655
Nb2 O5 2.025238 1_565
Nb2 O9 2.044985 1_555
Nb2 O3 2.511326 1_555
Nb3 O6 1.823784 1_555
Nb3 O8 2.000279 1_545
Nb3 O8 2.000279 1_455
Nb3 O11 2.006035 1_555
Nb3 O4 2.049412 1_555
Nb3 O10 2.417354 1_555
Nb4 O12 1.808524 1_555
Nb4 O9 1.905434 1_555
Nb4 O10 2.034558 1_655
Nb4 O10 2.034558 1_565
Nb4 O8 2.502159 1_555
Nb5 O0 1.840827 1_554
Nb5 O2 2.101912 1_554
Nb5 O11 2.108508 1_555
Nb5 O10 2.470141 1_555
N0 Nb0 1.930477 1_555
N0 Nb2 2.044764 1_555
N1 Nb5 2.025934 1_655
N1 Nb5 2.025934 1_565
N1 Nb4 2.196271 1_555
