# generated using pymatgen
data_Ga10Si2O19
_symmetry_space_group_name_H-M   'P 1'
_cell_length_a   15.88607441
_cell_length_b   15.88607441
_cell_length_c   7.93695700
_cell_angle_alpha   90.00000000
_cell_angle_beta   90.00000000
_cell_angle_gamma   157.55601304
_symmetry_Int_Tables_number   1
_chemical_formula_structural   Ga10Si2O19
_chemical_formula_sum   'Ga20 Si4 O38'
_cell_volume   764.71647599
_cell_formula_units_Z   2
loop_
 _symmetry_equiv_pos_site_id
 _symmetry_equiv_pos_as_xyz
  1  'x, y, z'
loop_
 _atom_site_type_symbol
 _atom_site_label
 _atom_site_symmetry_multiplicity
 _atom_site_fract_x
 _atom_site_fract_y
 _atom_site_fract_z
 _atom_site_occupancy
  Ga  Ga0  1  0.96982300  0.03017700  0.34473500  1
  Ga  Ga1  1  0.89664900  0.10335100  0.66588300  1
  Ga  Ga2  1  0.85577400  0.14422600  0.20129900  1
  Ga  Ga3  1  0.78308900  0.21691100  0.81873900  1
  Ga  Ga4  1  0.93704300  0.55411200  0.00449300  1
  Ga  Ga5  1  0.44588800  0.06295700  0.00449300  1
  Ga  Ga6  1  0.60310900  0.39689100  0.16457700  1
  Ga  Ga7  1  0.30424500  0.18316900  0.49709000  1
  Ga  Ga8  1  0.81683100  0.69575500  0.49709000  1
  Ga  Ga9  1  0.52329200  0.47670800  0.81996200  1
  Ga  Ga10  1  0.47670800  0.52329200  0.31996200  1
  Ga  Ga11  1  0.69575500  0.81683100  0.99709000  1
  Ga  Ga12  1  0.18316900  0.30424500  0.99709000  1
  Ga  Ga13  1  0.39689100  0.60310900  0.66457700  1
  Ga  Ga14  1  0.55411200  0.93704300  0.50449300  1
  Ga  Ga15  1  0.06295700  0.44588800  0.50449300  1
  Ga  Ga16  1  0.21691100  0.78308900  0.31873900  1
  Ga  Ga17  1  0.14422600  0.85577400  0.70129900  1
  Ga  Ga18  1  0.10335100  0.89664900  0.16588300  1
  Ga  Ga19  1  0.03017700  0.96982300  0.84473500  1
  Si  Si0  1  0.75881300  0.24118700  0.17859600  1
  Si  Si1  1  0.61994900  0.38005100  0.78607000  1
  Si  Si2  1  0.38005100  0.61994900  0.28607000  1
  Si  Si3  1  0.24118700  0.75881300  0.67859600  1
  O  O0  1  0.97401500  0.02598500  0.91850900  1
  O  O1  1  0.91714900  0.08285100  0.45265900  1
  O  O2  1  0.90233500  0.09766500  0.07055200  1
  O  O3  1  0.83232200  0.16767800  0.64282500  1
  O  O4  1  0.80465800  0.19534200  0.05576200  1
  O  O5  1  0.78549100  0.21450900  0.37019200  1
  O  O6  1  0.73164000  0.26836000  0.95321700  1
  O  O7  1  0.49362500  0.02827100  0.20009700  1
  O  O8  1  0.97172900  0.50637500  0.20009700  1
  O  O9  1  0.87230100  0.57007600  0.80726000  1
  O  O10  1  0.42992400  0.12769900  0.80726000  1
  O  O11  1  0.65989100  0.34010900  0.09766200  1
  O  O12  1  0.59862400  0.40137600  0.60089400  1
  O  O13  1  0.34736000  0.15810600  0.28371500  1
  O  O14  1  0.84189400  0.65264000  0.28371500  1
  O  O15  1  0.58106500  0.41893500  0.93520100  1
  O  O16  1  0.27327500  0.21673200  0.70857300  1
  O  O17  1  0.78326800  0.72672500  0.70857300  1
  O  O18  1  0.52839800  0.47160200  0.42520700  1
  O  O19  1  0.47160200  0.52839800  0.92520700  1
  O  O20  1  0.72672500  0.78326800  0.20857300  1
  O  O21  1  0.21673200  0.27327500  0.20857300  1
  O  O22  1  0.41893500  0.58106500  0.43520100  1
  O  O23  1  0.65264000  0.84189400  0.78371500  1
  O  O24  1  0.15810600  0.34736000  0.78371500  1
  O  O25  1  0.40137600  0.59862400  0.10089400  1
  O  O26  1  0.34010900  0.65989100  0.59766200  1
  O  O27  1  0.57007600  0.87230100  0.30726000  1
  O  O28  1  0.12769900  0.42992400  0.30726000  1
  O  O29  1  0.50637500  0.97172900  0.70009700  1
  O  O30  1  0.02827100  0.49362500  0.70009700  1
  O  O31  1  0.26836000  0.73164000  0.45321700  1
  O  O32  1  0.21450900  0.78549100  0.87019200  1
  O  O33  1  0.19534200  0.80465800  0.55576200  1
  O  O34  1  0.16767800  0.83232200  0.14282500  1
  O  O35  1  0.09766500  0.90233500  0.57055200  1
  O  O36  1  0.08285100  0.91714900  0.95265900  1
  O  O37  1  0.02598500  0.97401500  0.41850900  1
loop_
_geom_bond_atom_site_label_1
_geom_bond_atom_site_label_2
_geom_bond_distance
_geom_bond_site_symmetry_2
Ga0 O37 1.845618 1_645
Ga0 O1 1.851618 1_555
Ga0 O21 1.861829 1_655
Ga0 O20 1.861829 1_545
Ga1 O1 1.808925 1_555
Ga1 O23 1.841359 1_545
Ga1 O24 1.841359 1_655
Ga1 O3 2.013067 1_555
Ga2 O2 1.783946 1_555
Ga2 O28 1.930118 1_655
Ga2 O27 1.930118 1_545
Ga2 O4 1.967739 1_555
Ga3 O6 1.926160 1_555
Ga3 O29 1.931709 1_545
Ga3 O30 1.931709 1_655
Ga3 O4 1.997726 1_556
Ga3 O3 2.074514 1_555
Ga4 O11 1.954690 1_555
Ga4 O6 2.009703 1_554
Ga4 O9 2.013663 1_554
Ga4 O8 2.015297 1_555
Ga4 O32 2.031441 1_654
Ga4 O34 2.056653 1_655
Ga5 O11 1.954690 1_555
Ga5 O6 2.009703 1_554
Ga5 O10 2.013663 1_554
Ga5 O7 2.015297 1_555
Ga5 O32 2.031441 1_544
Ga5 O34 2.056653 1_545
Ga6 O14 1.817021 1_555
Ga6 O13 1.817021 1_555
Ga6 O11 1.847574 1_555
Ga6 O15 1.945856 1_554
Ga7 O37 1.954299 1_545
Ga7 O16 1.956710 1_555
Ga7 O18 1.959614 1_555
Ga7 O35 1.987323 1_545
Ga7 O13 1.999964 1_555
Ga7 O12 2.144511 1_555
Ga8 O37 1.954299 1_655
Ga8 O17 1.956710 1_555
Ga8 O18 1.959614 1_555
Ga8 O35 1.987323 1_655
Ga8 O14 1.999964 1_555
Ga8 O12 2.144511 1_555
Ga9 O16 1.814295 1_555
Ga9 O17 1.814295 1_555
Ga9 O19 1.814600 1_555
Ga9 O15 2.019479 1_555
Ga10 O21 1.814295 1_555
Ga10 O20 1.814295 1_555
Ga10 O18 1.814600 1_555
Ga10 O22 2.019479 1_555
Ga11 O0 1.954299 1_565
Ga11 O20 1.956710 1_556
Ga11 O19 1.959614 1_555
Ga11 O2 1.987323 1_566
Ga11 O23 1.999964 1_555
Ga11 O25 2.144511 1_556
Ga12 O0 1.954299 1_455
Ga12 O21 1.956710 1_556
Ga12 O19 1.959614 1_555
Ga12 O2 1.987323 1_456
Ga12 O24 1.999964 1_555
Ga12 O25 2.144511 1_556
Ga13 O24 1.817021 1_555
Ga13 O23 1.817021 1_555
Ga13 O26 1.847574 1_555
Ga13 O22 1.945856 1_555
Ga14 O26 1.954690 1_555
Ga14 O31 2.009703 1_555
Ga14 O27 2.013663 1_555
Ga14 O29 2.015297 1_555
Ga14 O5 2.031441 1_565
Ga14 O3 2.056653 1_565
Ga15 O26 1.954690 1_555
Ga15 O31 2.009703 1_555
Ga15 O28 2.013663 1_555
Ga15 O30 2.015297 1_555
Ga15 O5 2.031441 1_455
Ga15 O3 2.056653 1_455
Ga16 O31 1.926160 1_555
Ga16 O8 1.931709 1_455
Ga16 O7 1.931709 1_565
Ga16 O33 1.997726 1_555
Ga16 O34 2.074514 1_555
Ga17 O35 1.783946 1_555
Ga17 O10 1.930118 1_565
Ga17 O9 1.930118 1_455
Ga17 O33 1.967739 1_555
Ga18 O36 1.808925 1_554
Ga18 O14 1.841359 1_455
Ga18 O13 1.841359 1_565
Ga18 O34 2.013067 1_555
Ga19 O0 1.845618 1_465
Ga19 O36 1.851618 1_555
Ga19 O16 1.861829 1_565
Ga19 O17 1.861829 1_455
O4 Si0 1.729681 1_555
O5 Si0 1.733130 1_555
O6 Si0 1.979147 1_556
O7 Si0 1.696281 1_555
O8 Si0 1.696281 1_555
O9 Si1 1.685821 1_555
O10 Si1 1.685821 1_555
O12 Si1 1.613008 1_555
O15 Si1 1.693959 1_555
O22 Si2 1.693959 1_555
O25 Si2 1.613008 1_555
O27 Si2 1.685821 1_555
O28 Si2 1.685821 1_555
O29 Si3 1.696281 1_555
O30 Si3 1.696281 1_555
O31 Si3 1.979147 1_555
O32 Si3 1.733130 1_555
O33 Si3 1.729681 1_555
