# generated using pymatgen
data_Li3Mn3O8
_symmetry_space_group_name_H-M   'P 1'
_cell_length_a   5.78875845
_cell_length_b   5.78875845
_cell_length_c   9.94500800
_cell_angle_alpha   90.00000000
_cell_angle_beta   90.00000000
_cell_angle_gamma   120.00000510
_symmetry_Int_Tables_number   1
_chemical_formula_structural   Li3Mn3O8
_chemical_formula_sum   'Li6 Mn6 O16'
_cell_volume   288.60682796
_cell_formula_units_Z   2
loop_
 _symmetry_equiv_pos_site_id
 _symmetry_equiv_pos_as_xyz
  1  'x, y, z'
loop_
 _atom_site_type_symbol
 _atom_site_label
 _atom_site_symmetry_multiplicity
 _atom_site_fract_x
 _atom_site_fract_y
 _atom_site_fract_z
 _atom_site_occupancy
  Li  Li0  1  0.33333300  0.66666700  0.50459500  1
  Li  Li1  1  0.33333300  0.66666700  0.88979100  1
  Li  Li2  1  0.00000000  0.00000000  0.99737600  1
  Li  Li3  1  0.00000000  0.00000000  0.49737600  1
  Li  Li4  1  0.66666700  0.33333300  0.00459500  1
  Li  Li5  1  0.66666700  0.33333300  0.38979100  1
  Mn  Mn0  1  0.16746200  0.83253800  0.21405300  1
  Mn  Mn1  1  0.16746200  0.33492300  0.21405300  1
  Mn  Mn2  1  0.66507700  0.83253800  0.21405300  1
  Mn  Mn3  1  0.33492300  0.16746200  0.71405300  1
  Mn  Mn4  1  0.83253800  0.66507700  0.71405300  1
  Mn  Mn5  1  0.83253800  0.16746200  0.71405300  1
  O  O0  1  0.15522600  0.84477400  0.61172500  1
  O  O1  1  0.03077400  0.51538700  0.32046400  1
  O  O2  1  0.33333300  0.66666700  0.10910300  1
  O  O3  1  0.00000000  0.00000000  0.31431500  1
  O  O4  1  0.00000000  0.00000000  0.81431500  1
  O  O5  1  0.15522600  0.31045100  0.61172500  1
  O  O6  1  0.48461300  0.96922600  0.32046400  1
  O  O7  1  0.48461300  0.51538700  0.32046400  1
  O  O8  1  0.31045100  0.15522600  0.11172500  1
  O  O9  1  0.68954900  0.84477400  0.61172500  1
  O  O10  1  0.51538700  0.48461300  0.82046400  1
  O  O11  1  0.51538700  0.03077400  0.82046400  1
  O  O12  1  0.66666700  0.33333300  0.60910300  1
  O  O13  1  0.84477400  0.68954900  0.11172500  1
  O  O14  1  0.96922600  0.48461300  0.82046400  1
  O  O15  1  0.84477400  0.15522600  0.11172500  1
loop_
_geom_bond_atom_site_label_1
_geom_bond_atom_site_label_2
_geom_bond_distance
_geom_bond_site_symmetry_2
Li0 O0 2.079445 1_555
Li0 O9 2.079454 1_555
Li0 O5 2.079454 1_555
Li0 O6 2.377792 1_555
Li0 O1 2.377792 1_555
Li0 O7 2.377795 1_555
Li1 O11 1.951214 1_565
Li1 O14 1.951214 1_455
Li1 O10 1.951219 1_555
Li1 O2 2.181060 1_556
Li2 O4 1.820543 1_555
Li2 O8 1.927556 1_556
Li2 O13 1.927556 1_446
Li2 O15 1.927560 1_456
Li3 O3 1.820543 1_555
Li3 O5 1.927556 1_555
Li3 O9 1.927556 1_445
Li3 O0 1.927560 1_545
Li4 O15 2.079445 1_555
Li4 O13 2.079454 1_555
Li4 O8 2.079454 1_555
Li4 O14 2.377792 1_554
Li4 O11 2.377792 1_554
Li4 O10 2.377795 1_554
Li5 O1 1.951214 1_655
Li5 O6 1.951214 1_545
Li5 O7 1.951219 1_555
Li5 O12 2.181060 1_555
Mn0 O8 1.914124 1_565
Mn0 O13 1.914124 1_455
Mn0 O6 1.914129 1_555
Mn0 O1 1.914129 1_555
Mn0 O3 1.952796 1_565
Mn0 O2 1.963478 1_555
Mn1 O8 1.914115 1_555
Mn1 O15 1.914123 1_455
Mn1 O7 1.914129 1_555
Mn1 O1 1.914133 1_555
Mn1 O3 1.952792 1_555
Mn1 O2 1.963487 1_555
Mn2 O13 1.914115 1_555
Mn2 O15 1.914123 1_565
Mn2 O7 1.914129 1_555
Mn2 O6 1.914133 1_555
Mn2 O3 1.952792 1_665
Mn2 O2 1.963487 1_555
Mn3 O5 1.914115 1_555
Mn3 O0 1.914123 1_545
Mn3 O10 1.914129 1_555
Mn3 O11 1.914133 1_555
Mn3 O4 1.952792 1_555
Mn3 O12 1.963487 1_555
Mn4 O9 1.914115 1_555
Mn4 O0 1.914123 1_655
Mn4 O10 1.914129 1_555
Mn4 O14 1.914133 1_555
Mn4 O4 1.952792 1_665
Mn4 O12 1.963487 1_555
Mn5 O5 1.914124 1_655
Mn5 O9 1.914124 1_545
Mn5 O14 1.914129 1_555
Mn5 O11 1.914129 1_555
Mn5 O4 1.952796 1_655
Mn5 O12 1.963478 1_555
