# generated using pymatgen
data_Li2Mn2Co(PO4)3
_symmetry_space_group_name_H-M   'P 1'
_cell_length_a   8.57386640
_cell_length_b   8.57386640
_cell_length_c   8.26812773
_cell_angle_alpha   64.60345390
_cell_angle_beta   64.60345390
_cell_angle_gamma   62.87515997
_symmetry_Int_Tables_number   1
_chemical_formula_structural   Li2Mn2Co(PO4)3
_chemical_formula_sum   'Li4 Mn4 Co2 P6 O24'
_cell_volume   467.64123671
_cell_formula_units_Z   2
loop_
 _symmetry_equiv_pos_site_id
 _symmetry_equiv_pos_as_xyz
  1  'x, y, z'
loop_
 _atom_site_type_symbol
 _atom_site_label
 _atom_site_symmetry_multiplicity
 _atom_site_fract_x
 _atom_site_fract_y
 _atom_site_fract_z
 _atom_site_occupancy
  Li  Li0  1  0.36214200  0.63785800  0.50000000  1
  Li  Li1  1  0.65497900  0.34502100  0.00000000  1
  Li  Li2  1  0.25145500  0.15144200  0.60167900  1
  Li  Li3  1  0.84855800  0.74854500  0.39832100  1
  Mn  Mn0  1  0.14461100  0.64676500  0.89545300  1
  Mn  Mn1  1  0.65430200  0.15310400  0.40588500  1
  Mn  Mn2  1  0.35323500  0.85538900  0.10454700  1
  Mn  Mn3  1  0.84689600  0.34569800  0.59411500  1
  Co  Co0  1  0.50196800  0.00552600  0.24279100  1
  Co  Co1  1  0.99447400  0.49803200  0.75720900  1
  P  P0  1  0.74649700  0.56193900  0.18087300  1
  P  P1  1  0.43806100  0.25350300  0.81912700  1
  P  P2  1  0.06312400  0.93687600  0.50000000  1
  P  P3  1  0.95762600  0.04237400  0.00000000  1
  P  P4  1  0.54727900  0.74951200  0.69350000  1
  P  P5  1  0.25048800  0.45272100  0.30650000  1
  O  O0  1  0.59529200  0.31442100  0.78395500  1
  O  O1  1  0.03702200  0.09203600  0.56322800  1
  O  O2  1  0.81272800  0.53762600  0.33886000  1
  O  O3  1  0.58102400  0.75013000  0.18083200  1
  O  O4  1  0.68557900  0.40470800  0.21604500  1
  O  O5  1  0.89187100  0.58292300  0.98648100  1
  O  O6  1  0.41707700  0.10812900  0.01351900  1
  O  O7  1  0.24987000  0.41897600  0.81916800  1
  O  O8  1  0.11317100  0.00066000  0.07311900  1
  O  O9  1  0.08909400  0.74187300  0.65084700  1
  O  O10  1  0.76354300  0.06287300  0.14851500  1
  O  O11  1  0.48935000  0.82033300  0.85883600  1
  O  O12  1  0.46237400  0.18727200  0.66114000  1
  O  O13  1  0.25812700  0.91090600  0.34915300  1
  O  O14  1  0.93712700  0.23645700  0.85148500  1
  O  O15  1  0.90796400  0.96297800  0.43677200  1
  O  O16  1  0.74378600  0.60089700  0.68417900  1
  O  O17  1  0.57198600  0.90199100  0.49819300  1
  O  O18  1  0.09800900  0.42801400  0.50180700  1
  O  O19  1  0.31931900  0.59512000  0.29196400  1
  O  O20  1  0.39910300  0.25621400  0.31582100  1
  O  O21  1  0.17966700  0.51065000  0.14116400  1
  O  O22  1  0.99934000  0.88682900  0.92688100  1
  O  O23  1  0.40488000  0.68068100  0.70803600  1
loop_
_geom_bond_atom_site_label_1
_geom_bond_atom_site_label_2
_geom_bond_distance
_geom_bond_site_symmetry_2
Li0 O9 2.092199 1_555
Li0 O13 2.092199 1_555
Li0 O19 2.105406 1_555
Li0 O23 2.105406 1_555
Li0 O7 2.575419 1_555
Li0 O3 2.575419 1_555
Li1 O10 2.146030 1_555
Li1 O14 2.146030 1_554
Li1 O4 2.197741 1_555
Li1 O0 2.197741 1_554
Li2 O18 2.107907 1_555
Li2 O20 2.155234 1_555
Li2 O12 2.237204 1_555
Li2 O1 2.287969 1_555
Li2 O14 2.604968 1_455
Li3 O17 2.107907 1_555
Li3 O16 2.155234 1_555
Li3 O2 2.237204 1_555
Li3 O15 2.287969 1_555
Li3 O10 2.604968 1_565
Mn0 O22 1.923236 1_455
Mn0 O21 1.936445 1_556
Mn0 O7 1.996943 1_555
Mn0 O9 2.009716 1_555
Mn0 O23 2.168998 1_555
Mn0 O5 2.211574 1_455
Mn1 O15 2.083039 1_545
Mn1 O12 2.087973 1_555
Mn1 O4 2.109806 1_555
Mn1 O10 2.246279 1_555
Mn1 O20 2.278740 1_555
Mn1 O17 2.286948 1_545
Mn2 O8 1.923236 1_565
Mn2 O11 1.936445 1_554
Mn2 O3 1.996943 1_555
Mn2 O13 2.009716 1_555
Mn2 O19 2.168998 1_555
Mn2 O6 2.211574 1_565
Mn3 O1 2.083039 1_655
Mn3 O2 2.087973 1_555
Mn3 O0 2.109806 1_555
Mn3 O14 2.246279 1_555
Mn3 O16 2.278740 1_555
Mn3 O18 2.286948 1_655
Co0 O6 2.016518 1_555
Co0 O17 2.145040 1_545
Co0 O20 2.165662 1_555
Co0 O3 2.197212 1_545
Co0 O10 2.248636 1_555
Co0 O13 2.271553 1_545
Co1 O5 2.016518 1_555
Co1 O18 2.145040 1_655
Co1 O16 2.165662 1_555
Co1 O7 2.197212 1_655
Co1 O14 2.248636 1_555
Co1 O9 2.271553 1_655
O0 P1 1.533028 1_555
O1 P2 1.522446 1_545
O2 P0 1.538497 1_555
O3 P0 1.590228 1_555
O4 P0 1.533028 1_555
O5 P0 1.551542 1_556
O6 P1 1.551542 1_554
O7 P1 1.590228 1_555
O8 P3 1.530727 1_455
O9 P2 1.584479 1_555
O10 P3 1.572735 1_555
O11 P4 1.529293 1_555
O12 P1 1.538497 1_555
O13 P2 1.584479 1_555
O14 P3 1.572735 1_556
O15 P2 1.522446 1_655
O16 P4 1.575891 1_555
O17 P4 1.584276 1_555
O18 P5 1.584276 1_555
O19 P5 1.524352 1_555
O20 P5 1.575891 1_555
O21 P5 1.529293 1_555
O22 P3 1.530727 1_566
O23 P4 1.524352 1_555
