# generated using pymatgen
data_LiVB2O5
_symmetry_space_group_name_H-M   'P 1'
_cell_length_a   7.33112935
_cell_length_b   7.33112935
_cell_length_c   9.82921651
_cell_angle_alpha   69.62785505
_cell_angle_beta   69.62785505
_cell_angle_gamma   90.87976709
_symmetry_Int_Tables_number   1
_chemical_formula_structural   LiVB2O5
_chemical_formula_sum   'Li4 V4 B8 O20'
_cell_volume   458.61907006
_cell_formula_units_Z   4
loop_
 _symmetry_equiv_pos_site_id
 _symmetry_equiv_pos_as_xyz
  1  'x, y, z'
loop_
 _atom_site_type_symbol
 _atom_site_label
 _atom_site_symmetry_multiplicity
 _atom_site_fract_x
 _atom_site_fract_y
 _atom_site_fract_z
 _atom_site_occupancy
  Li  Li0  1  0.83996000  0.16004000  0.75000000  1
  Li  Li1  1  0.37955500  0.62044500  0.75000000  1
  Li  Li2  1  0.62044500  0.37955500  0.25000000  1
  Li  Li3  1  0.16004000  0.83996000  0.25000000  1
  V  V0  1  0.95897900  0.64293200  0.65047600  1
  V  V1  1  0.64293200  0.95897900  0.15047600  1
  V  V2  1  0.35706800  0.04102100  0.84952400  1
  V  V3  1  0.04102100  0.35706800  0.34952400  1
  B  B0  1  0.76107700  0.77249300  0.90356800  1
  B  B1  1  0.73625800  0.40181400  0.97542200  1
  B  B2  1  0.77249300  0.76107700  0.40356800  1
  B  B3  1  0.40181400  0.73625800  0.47542200  1
  B  B4  1  0.59818600  0.26374200  0.52457800  1
  B  B5  1  0.22750700  0.23892300  0.59643200  1
  B  B6  1  0.26374200  0.59818600  0.02457800  1
  B  B7  1  0.23892300  0.22750700  0.09643200  1
  O  O0  1  0.70389500  0.91874500  0.95891400  1
  O  O1  1  0.85446100  0.82453000  0.74685000  1
  O  O2  1  0.91874500  0.70389500  0.45891400  1
  O  O3  1  0.81431700  0.40256600  0.82788400  1
  O  O4  1  0.33433400  0.76395000  0.89051000  1
  O  O5  1  0.82453000  0.85446100  0.24685000  1
  O  O6  1  0.57482900  0.71821500  0.51133300  1
  O  O7  1  0.28178500  0.42517100  0.98866700  1
  O  O8  1  0.40256600  0.81431700  0.32788400  1
  O  O9  1  0.76395000  0.33433400  0.39051000  1
  O  O10  1  0.23605000  0.66566600  0.60949000  1
  O  O11  1  0.59743400  0.18568300  0.67211600  1
  O  O12  1  0.71821500  0.57482900  0.01133300  1
  O  O13  1  0.42517100  0.28178500  0.48866700  1
  O  O14  1  0.17547000  0.14553900  0.75315000  1
  O  O15  1  0.66566600  0.23605000  0.10949000  1
  O  O16  1  0.18568300  0.59743400  0.17211600  1
  O  O17  1  0.08125500  0.29610500  0.54108600  1
  O  O18  1  0.14553900  0.17547000  0.25315000  1
  O  O19  1  0.29610500  0.08125500  0.04108600  1
loop_
_geom_bond_atom_site_label_1
_geom_bond_atom_site_label_2
_geom_bond_distance
_geom_bond_site_symmetry_2
Li0 O0 2.081246 1_545
Li0 O17 2.081246 1_655
Li0 O3 2.154149 1_555
Li0 O11 2.154149 1_555
Li0 O1 2.474062 1_545
Li0 O14 2.474062 1_655
Li1 O10 1.956456 1_555
Li1 O4 1.956456 1_555
Li1 O7 2.127455 1_555
Li1 O6 2.127455 1_555
Li2 O15 1.956456 1_555
Li2 O9 1.956456 1_555
Li2 O13 2.127455 1_555
Li2 O12 2.127455 1_555
Li3 O2 2.081246 1_455
Li3 O19 2.081246 1_565
Li3 O8 2.154149 1_555
Li3 O16 2.154149 1_555
Li3 O18 2.474062 1_565
Li3 O5 2.474062 1_455
B0 O1 1.354882 1_555
B0 O0 1.372006 1_555
B0 O12 1.416414 1_556
B1 O3 1.359076 1_555
B1 O15 1.368244 1_556
B1 O12 1.426631 1_556
B2 O5 1.354882 1_555
B2 O2 1.372006 1_555
B2 O6 1.416414 1_555
B3 O8 1.359076 1_555
B3 O10 1.368244 1_555
B3 O6 1.426631 1_555
B4 O11 1.359076 1_555
B4 O9 1.368244 1_555
B4 O13 1.426631 1_555
B5 O14 1.354882 1_555
B5 O17 1.372006 1_555
B5 O13 1.416414 1_555
B6 O16 1.359076 1_555
B6 O4 1.368244 1_554
B6 O7 1.426631 1_554
B7 O18 1.354882 1_555
B7 O19 1.372006 1_555
B7 O7 1.416414 1_554
O0 V1 1.907067 1_556
O1 V0 1.913343 1_555
O2 V0 1.907067 1_555
O3 V0 1.945853 1_555
O4 V2 1.920715 1_565
O5 V1 1.913343 1_555
O8 V1 1.945853 1_555
O9 V3 1.920715 1_655
O10 V0 1.920715 1_455
O11 V2 1.945853 1_555
O14 V2 1.913343 1_555
O15 V1 1.920715 1_545
O16 V3 1.945853 1_555
O17 V3 1.907067 1_555
O18 V3 1.913343 1_555
O19 V2 1.907067 1_554
