# generated using pymatgen
data_LiVSiO4
_symmetry_space_group_name_H-M   'P 1'
_cell_length_a   5.49890700
_cell_length_b   8.28365800
_cell_length_c   18.79596400
_cell_angle_alpha   90.00000000
_cell_angle_beta   90.00000000
_cell_angle_gamma   90.00000000
_symmetry_Int_Tables_number   1
_chemical_formula_structural   LiVSiO4
_chemical_formula_sum   'Li12 V12 Si12 O48'
_cell_volume   856.17617718
_cell_formula_units_Z   12
loop_
 _symmetry_equiv_pos_site_id
 _symmetry_equiv_pos_as_xyz
  1  'x, y, z'
loop_
 _atom_site_type_symbol
 _atom_site_label
 _atom_site_symmetry_multiplicity
 _atom_site_fract_x
 _atom_site_fract_y
 _atom_site_fract_z
 _atom_site_occupancy
  Li  Li0  1  0.47424100  0.17511000  0.91693000  1
  Li  Li1  1  0.02575900  0.67511000  0.91693000  1
  Li  Li2  1  0.50000000  0.83010700  0.75000000  1
  Li  Li3  1  0.00000000  0.33010700  0.75000000  1
  Li  Li4  1  0.52575900  0.17511000  0.58307000  1
  Li  Li5  1  0.97424100  0.67511000  0.58307000  1
  Li  Li6  1  0.47424100  0.82489000  0.41693000  1
  Li  Li7  1  0.02575900  0.32489000  0.41693000  1
  Li  Li8  1  0.50000000  0.16989300  0.25000000  1
  Li  Li9  1  0.00000000  0.66989300  0.25000000  1
  Li  Li10  1  0.52575900  0.82489000  0.08307000  1
  Li  Li11  1  0.97424100  0.32489000  0.08307000  1
  V  V0  1  0.50000000  0.50000000  0.00000000  1
  V  V1  1  0.00000000  0.00000000  0.00000000  1
  V  V2  1  0.99914100  0.00087200  0.83315800  1
  V  V3  1  0.50085900  0.50087200  0.83315800  1
  V  V4  1  0.00085900  0.00087200  0.66684200  1
  V  V5  1  0.49914100  0.50087200  0.66684200  1
  V  V6  1  0.50000000  0.50000000  0.50000000  1
  V  V7  1  0.00000000  0.00000000  0.50000000  1
  V  V8  1  0.99914100  0.99912800  0.33315800  1
  V  V9  1  0.50085900  0.49912800  0.33315800  1
  V  V10  1  0.00085900  0.99912800  0.16684200  1
  V  V11  1  0.49914100  0.49912800  0.16684200  1
  Si  Si0  1  0.50326500  0.84913700  0.91657600  1
  Si  Si1  1  0.99673500  0.34913700  0.91657600  1
  Si  Si2  1  0.50000000  0.15222700  0.75000000  1
  Si  Si3  1  0.00000000  0.65222700  0.75000000  1
  Si  Si4  1  0.49673500  0.84913700  0.58342400  1
  Si  Si5  1  0.00326500  0.34913700  0.58342400  1
  Si  Si6  1  0.50326500  0.15086300  0.41657600  1
  Si  Si7  1  0.99673500  0.65086300  0.41657600  1
  Si  Si8  1  0.50000000  0.84777300  0.25000000  1
  Si  Si9  1  0.00000000  0.34777300  0.25000000  1
  Si  Si10  1  0.49673500  0.15086300  0.08342400  1
  Si  Si11  1  0.00326500  0.65086300  0.08342400  1
  O  O0  1  0.00232700  0.76272700  0.01215800  1
  O  O1  1  0.50232700  0.73727300  0.98784200  1
  O  O2  1  0.99767300  0.23727300  0.98784200  1
  O  O3  1  0.75671100  0.47334300  0.91658600  1
  O  O4  1  0.23881000  0.47196600  0.91667600  1
  O  O5  1  0.26119000  0.97196600  0.91667600  1
  O  O6  1  0.74328900  0.97334300  0.91658600  1
  O  O7  1  0.49792800  0.73753700  0.84521000  1
  O  O8  1  0.00207200  0.23753700  0.84521000  1
  O  O9  1  0.49771200  0.26345000  0.82142600  1
  O  O10  1  0.00228800  0.76345000  0.82142600  1
  O  O11  1  0.23884600  0.52753400  0.74997700  1
  O  O12  1  0.76115400  0.52753400  0.75002300  1
  O  O13  1  0.73884600  0.02753400  0.75002300  1
  O  O14  1  0.26115400  0.02753400  0.74997700  1
  O  O15  1  0.50228800  0.26345000  0.67857400  1
  O  O16  1  0.99771200  0.76345000  0.67857400  1
  O  O17  1  0.50207200  0.73753700  0.65479000  1
  O  O18  1  0.99792800  0.23753700  0.65479000  1
  O  O19  1  0.24328900  0.47334300  0.58341400  1
  O  O20  1  0.76119000  0.47196600  0.58332400  1
  O  O21  1  0.73881000  0.97196600  0.58332400  1
  O  O22  1  0.25671100  0.97334300  0.58341400  1
  O  O23  1  0.49767300  0.73727300  0.51215800  1
  O  O24  1  0.00232700  0.23727300  0.51215800  1
  O  O25  1  0.50232700  0.26272700  0.48784200  1
  O  O26  1  0.99767300  0.76272700  0.48784200  1
  O  O27  1  0.75671100  0.52665700  0.41658600  1
  O  O28  1  0.23881000  0.52803400  0.41667600  1
  O  O29  1  0.26119000  0.02803400  0.41667600  1
  O  O30  1  0.74328900  0.02665700  0.41658600  1
  O  O31  1  0.49792800  0.26246300  0.34521000  1
  O  O32  1  0.00207200  0.76246300  0.34521000  1
  O  O33  1  0.49771200  0.73655000  0.32142600  1
  O  O34  1  0.00228800  0.23655000  0.32142600  1
  O  O35  1  0.76115400  0.47246600  0.25002300  1
  O  O36  1  0.23884600  0.47246600  0.24997700  1
  O  O37  1  0.26115400  0.97246600  0.24997700  1
  O  O38  1  0.73884600  0.97246600  0.25002300  1
  O  O39  1  0.50228800  0.73655000  0.17857400  1
  O  O40  1  0.99771200  0.23655000  0.17857400  1
  O  O41  1  0.50207200  0.26246300  0.15479000  1
  O  O42  1  0.99792800  0.76246300  0.15479000  1
  O  O43  1  0.24328900  0.52665700  0.08341400  1
  O  O44  1  0.76119000  0.52803400  0.08332400  1
  O  O45  1  0.73881000  0.02803400  0.08332400  1
  O  O46  1  0.25671100  0.02665700  0.08341400  1
  O  O47  1  0.49767300  0.26272700  0.01215800  1
loop_
_geom_bond_atom_site_label_1
_geom_bond_atom_site_label_2
_geom_bond_distance
_geom_bond_site_symmetry_2
Li0 O47 1.935748 1_556
Li0 O9 1.942808 1_555
Li0 O5 2.050434 1_545
Li0 O6 2.232117 1_545
Li1 O0 1.935748 1_556
Li1 O10 1.942808 1_555
Li1 O4 2.050434 1_555
Li1 O3 2.232117 1_455
Li2 O17 1.946966 1_555
Li2 O7 1.946966 1_555
Li2 O14 2.097520 1_565
Li2 O13 2.097520 1_565
Li3 O8 1.946966 1_555
Li3 O18 1.946966 1_455
Li3 O12 2.097520 1_455
Li3 O11 2.097520 1_555
Li4 O25 1.935748 1_555
Li4 O15 1.942808 1_555
Li4 O21 2.050434 1_545
Li4 O22 2.232117 1_545
Li5 O26 1.935748 1_555
Li5 O16 1.942808 1_555
Li5 O20 2.050434 1_555
Li5 O19 2.232117 1_655
Li6 O23 1.935748 1_555
Li6 O33 1.942808 1_555
Li6 O29 2.050434 1_565
Li6 O30 2.232117 1_565
Li7 O24 1.935748 1_555
Li7 O34 1.942808 1_555
Li7 O28 2.050434 1_555
Li7 O27 2.232117 1_455
Li8 O41 1.946966 1_555
Li8 O31 1.946966 1_555
Li8 O38 2.097520 1_545
Li8 O37 2.097520 1_545
Li9 O42 1.946966 1_455
Li9 O32 1.946966 1_555
Li9 O35 2.097520 1_455
Li9 O36 2.097520 1_555
Li10 O1 1.935748 1_554
Li10 O39 1.942808 1_555
Li10 O45 2.050434 1_565
Li10 O46 2.232117 1_565
Li11 O2 1.935748 1_554
Li11 O40 1.942808 1_555
Li11 O44 2.050434 1_555
Li11 O43 2.232117 1_655
O0 Si11 1.628800 1_555
O0 V1 1.978770 1_565
O1 Si0 1.628800 1_555
O1 V0 1.978770 1_556
O2 Si1 1.628800 1_555
O2 V1 1.978770 1_656
O3 Si1 1.673514 1_555
O3 V3 2.119046 1_555
O3 V0 2.121227 1_556
O4 Si1 1.675473 1_455
O4 V0 2.137665 1_556
O4 V3 2.144305 1_555
O5 Si0 1.675473 1_555
O5 V1 2.137665 1_566
O5 V2 2.144305 1_465
O6 Si0 1.673514 1_555
O6 V2 2.119046 1_565
O6 V1 2.121227 1_666
O7 Si0 1.629360 1_555
O7 V3 1.973562 1_555
O8 Si1 1.629360 1_455
O8 V2 1.973562 1_455
O9 Si2 1.628304 1_555
O9 V3 1.979122 1_555
O10 Si3 1.628304 1_555
O10 V2 1.979122 1_465
O11 Si3 1.670901 1_555
O11 V5 2.130548 1_555
O11 V3 2.137538 1_555
O12 Si3 1.670901 1_655
O12 V3 2.130548 1_555
O12 V5 2.137538 1_555
O13 Si2 1.670901 1_555
O13 V2 2.130548 1_555
O13 V4 2.137538 1_655
O14 Si2 1.670901 1_555
O14 V4 2.130548 1_555
O14 V2 2.137538 1_455
O15 Si2 1.628304 1_555
O15 V5 1.979122 1_555
O16 Si3 1.628304 1_655
O16 V4 1.979122 1_665
O17 Si4 1.629360 1_555
O17 V5 1.973562 1_555
O18 Si5 1.629360 1_655
O18 V4 1.973562 1_655
O19 Si5 1.673514 1_555
O19 V5 2.119046 1_555
O19 V6 2.121227 1_555
O20 Si5 1.675473 1_655
O20 V6 2.137665 1_555
O20 V5 2.144305 1_555
O21 Si4 1.675473 1_555
O21 V7 2.137665 1_665
O21 V4 2.144305 1_665
O22 Si4 1.673514 1_555
O22 V4 2.119046 1_565
O22 V7 2.121227 1_565
O23 Si4 1.628800 1_555
O23 V6 1.978770 1_555
O24 Si5 1.628800 1_555
O24 V7 1.978770 1_555
O25 Si6 1.628800 1_555
O25 V6 1.978770 1_555
O26 Si7 1.628800 1_555
O26 V7 1.978770 1_665
O27 Si7 1.673514 1_555
O27 V9 2.119046 1_555
O27 V6 2.121227 1_555
O28 Si7 1.675473 1_455
O28 V6 2.137665 1_555
O28 V9 2.144305 1_555
O29 Si6 1.675473 1_555
O29 V7 2.137665 1_555
O29 V8 2.144305 1_445
O30 Si6 1.673514 1_555
O30 V8 2.119046 1_545
O30 V7 2.121227 1_655
O31 Si6 1.629360 1_555
O31 V9 1.973562 1_555
O32 Si7 1.629360 1_455
O32 V8 1.973562 1_455
O33 Si8 1.628304 1_555
O33 V9 1.979122 1_555
O34 Si9 1.628304 1_555
O34 V8 1.979122 1_445
O35 Si9 1.670901 1_655
O35 V9 2.130548 1_555
O35 V11 2.137538 1_555
O36 Si9 1.670901 1_555
O36 V11 2.130548 1_555
O36 V9 2.137538 1_555
O37 Si8 1.670901 1_555
O37 V10 2.130548 1_555
O37 V8 2.137538 1_455
O38 Si8 1.670901 1_555
O38 V8 2.130548 1_555
O38 V10 2.137538 1_655
O39 Si8 1.628304 1_555
O39 V11 1.979122 1_555
O40 Si9 1.628304 1_655
O40 V10 1.979122 1_645
O41 Si10 1.629360 1_555
O41 V11 1.973562 1_555
O42 Si11 1.629360 1_655
O42 V10 1.973562 1_655
O43 Si11 1.673514 1_555
O43 V11 2.119046 1_555
O43 V0 2.121227 1_555
O44 Si11 1.675473 1_655
O44 V0 2.137665 1_555
O44 V11 2.144305 1_555
O45 Si10 1.675473 1_555
O45 V1 2.137665 1_655
O45 V10 2.144305 1_645
O46 Si10 1.673514 1_555
O46 V10 2.119046 1_545
O46 V1 2.121227 1_555
O47 Si10 1.628800 1_555
O47 V0 1.978770 1_555
