# generated using pymatgen
data_LiVPO4
_symmetry_space_group_name_H-M   'P 1'
_cell_length_a   5.55952800
_cell_length_b   8.47666700
_cell_length_c   18.91249300
_cell_angle_alpha   90.00000000
_cell_angle_beta   90.00000000
_cell_angle_gamma   90.00000000
_symmetry_Int_Tables_number   1
_chemical_formula_structural   LiVPO4
_chemical_formula_sum   'Li12 V12 P12 O48'
_cell_volume   891.27520484
_cell_formula_units_Z   12
loop_
 _symmetry_equiv_pos_site_id
 _symmetry_equiv_pos_as_xyz
  1  'x, y, z'
loop_
 _atom_site_type_symbol
 _atom_site_label
 _atom_site_symmetry_multiplicity
 _atom_site_fract_x
 _atom_site_fract_y
 _atom_site_fract_z
 _atom_site_occupancy
  Li  Li0  1  0.25197400  0.08102000  0.08297400  1
  Li  Li1  1  0.72093900  0.58152900  0.08368900  1
  Li  Li2  1  0.23137700  0.41635900  0.24953700  1
  Li  Li3  1  0.73137700  0.91635900  0.25046300  1
  Li  Li4  1  0.22093900  0.08152900  0.41631100  1
  Li  Li5  1  0.75197400  0.58102000  0.41702600  1
  Li  Li6  1  0.25197400  0.41898000  0.58297400  1
  Li  Li7  1  0.72093900  0.91847100  0.58368900  1
  Li  Li8  1  0.23137700  0.08364100  0.74953700  1
  Li  Li9  1  0.73137700  0.58364100  0.75046300  1
  Li  Li10  1  0.22093900  0.41847100  0.91631100  1
  Li  Li11  1  0.75197400  0.91898000  0.91702600  1
  V  V0  1  0.23590400  0.75028800  0.00036700  1
  V  V1  1  0.73684100  0.24939000  0.16628400  1
  V  V2  1  0.23556800  0.74859000  0.16702700  1
  V  V3  1  0.73556800  0.24859000  0.33297300  1
  V  V4  1  0.23684100  0.74939000  0.33371600  1
  V  V5  1  0.73590400  0.25028800  0.49963300  1
  V  V6  1  0.23590400  0.74971200  0.50036700  1
  V  V7  1  0.73684100  0.25061000  0.66628400  1
  V  V8  1  0.23556800  0.75141000  0.66702700  1
  V  V9  1  0.73556800  0.25141000  0.83297300  1
  V  V10  1  0.23684100  0.75061000  0.83371600  1
  V  V11  1  0.73590400  0.24971200  0.99963300  1
  P  P0  1  0.23420600  0.39608800  0.08282500  1
  P  P1  1  0.73733000  0.89630400  0.08385100  1
  P  P2  1  0.23690200  0.10199000  0.24955000  1
  P  P3  1  0.73690200  0.60199000  0.25045000  1
  P  P4  1  0.23733000  0.39630400  0.41614900  1
  P  P5  1  0.73420600  0.89608800  0.41717500  1
  P  P6  1  0.23420600  0.10391200  0.58282500  1
  P  P7  1  0.73733000  0.60369600  0.58385100  1
  P  P8  1  0.23690200  0.39801000  0.74955000  1
  P  P9  1  0.73690200  0.89801000  0.75045000  1
  P  P10  1  0.23733000  0.10369600  0.91614900  1
  P  P11  1  0.73420600  0.60391200  0.91717500  1
  O  O0  1  0.23249300  0.49768400  0.01566000  1
  O  O1  1  0.73596200  0.99747200  0.01647300  1
  O  O2  1  0.96003900  0.78074600  0.08367900  1
  O  O3  1  0.51037200  0.78301200  0.08386700  1
  O  O4  1  0.46150100  0.28330200  0.08267900  1
  O  O5  1  0.01196800  0.28006500  0.08286800  1
  O  O6  1  0.23524900  0.49659700  0.15035500  1
  O  O7  1  0.73745400  0.99709700  0.15119500  1
  O  O8  1  0.23905300  0.00077400  0.18234300  1
  O  O9  1  0.73524200  0.50144400  0.18289500  1
  O  O10  1  0.96152500  0.71648900  0.25032800  1
  O  O11  1  0.51194500  0.71654600  0.25064300  1
  O  O12  1  0.01194500  0.21654600  0.24935700  1
  O  O13  1  0.46152500  0.21648900  0.24967200  1
  O  O14  1  0.23524200  0.00144400  0.31710500  1
  O  O15  1  0.73905300  0.50077400  0.31765700  1
  O  O16  1  0.23745400  0.49709700  0.34880500  1
  O  O17  1  0.73524900  0.99659700  0.34964500  1
  O  O18  1  0.51196900  0.78006500  0.41713200  1
  O  O19  1  0.96150100  0.78330200  0.41732100  1
  O  O20  1  0.01037200  0.28301200  0.41613300  1
  O  O21  1  0.46003900  0.28074600  0.41632100  1
  O  O22  1  0.23596200  0.49747200  0.48352700  1
  O  O23  1  0.73249300  0.99768400  0.48434000  1
  O  O24  1  0.23249300  0.00231600  0.51566000  1
  O  O25  1  0.73596200  0.50252800  0.51647300  1
  O  O26  1  0.96003900  0.71925400  0.58367900  1
  O  O27  1  0.51037200  0.71698800  0.58386700  1
  O  O28  1  0.46150100  0.21669800  0.58267900  1
  O  O29  1  0.01196800  0.21993500  0.58286800  1
  O  O30  1  0.23524900  0.00340300  0.65035500  1
  O  O31  1  0.73745400  0.50290300  0.65119500  1
  O  O32  1  0.23905300  0.49922600  0.68234300  1
  O  O33  1  0.73524200  0.99855600  0.68289500  1
  O  O34  1  0.96152500  0.78351100  0.75032800  1
  O  O35  1  0.51194500  0.78345400  0.75064300  1
  O  O36  1  0.01194500  0.28345400  0.74935700  1
  O  O37  1  0.46152500  0.28351100  0.74967200  1
  O  O38  1  0.23524200  0.49855600  0.81710500  1
  O  O39  1  0.73905300  0.99922600  0.81765700  1
  O  O40  1  0.23745400  0.00290300  0.84880500  1
  O  O41  1  0.73524900  0.50340300  0.84964500  1
  O  O42  1  0.51196900  0.71993500  0.91713200  1
  O  O43  1  0.96150100  0.71669800  0.91732100  1
  O  O44  1  0.01037200  0.21698800  0.91613300  1
  O  O45  1  0.46003900  0.21925400  0.91632100  1
  O  O46  1  0.23596200  0.00252800  0.98352700  1
  O  O47  1  0.73249300  0.50231600  0.98434000  1
loop_
_geom_bond_atom_site_label_1
_geom_bond_atom_site_label_2
_geom_bond_distance
_geom_bond_site_symmetry_2
Li0 O46 1.996995 1_554
Li0 O8 1.999921 1_555
Li0 O4 2.072938 1_555
Li0 O5 2.151090 1_555
Li1 O47 1.996345 1_554
Li1 O9 1.996851 1_555
Li1 O3 2.070598 1_555
Li1 O2 2.149113 1_555
Li2 O6 1.995398 1_555
Li2 O16 1.998545 1_555
Li2 O12 2.087353 1_555
Li2 O13 2.123107 1_555
Li3 O17 1.995398 1_555
Li3 O7 1.998545 1_555
Li3 O11 2.087353 1_555
Li3 O10 2.123107 1_555
Li4 O24 1.996345 1_555
Li4 O14 1.996851 1_555
Li4 O20 2.070598 1_555
Li4 O21 2.149113 1_555
Li5 O25 1.996995 1_555
Li5 O15 1.999921 1_555
Li5 O19 2.072938 1_555
Li5 O18 2.151086 1_555
Li6 O22 1.996995 1_555
Li6 O32 1.999921 1_555
Li6 O28 2.072938 1_555
Li6 O29 2.151090 1_555
Li7 O23 1.996345 1_555
Li7 O33 1.996851 1_555
Li7 O27 2.070598 1_555
Li7 O26 2.149113 1_555
Li8 O30 1.995398 1_555
Li8 O40 1.998545 1_555
Li8 O36 2.087353 1_555
Li8 O37 2.123107 1_555
Li9 O41 1.995398 1_555
Li9 O31 1.998545 1_555
Li9 O35 2.087353 1_555
Li9 O34 2.123107 1_555
Li10 O0 1.996345 1_556
Li10 O38 1.996851 1_555
Li10 O44 2.070598 1_555
Li10 O45 2.149113 1_555
Li11 O1 1.996995 1_556
Li11 O39 1.999921 1_555
Li11 O43 2.072938 1_555
Li11 O42 2.151086 1_555
O0 P0 1.534700 1_555
O0 V0 2.160769 1_555
O1 P1 1.535996 1_555
O1 V11 2.161744 1_564
O2 P1 1.578783 1_555
O2 V0 2.213925 1_655
O2 V2 2.214842 1_655
O3 P1 1.585666 1_555
O3 V2 2.211975 1_555
O3 V0 2.213415 1_555
O4 P0 1.584568 1_555
O4 V11 2.207982 1_554
O4 V1 2.219457 1_555
O5 P0 1.579179 1_555
O5 V1 2.212702 1_455
O5 V11 2.213552 1_454
O6 P0 1.535267 1_555
O6 V2 2.159208 1_555
O7 P1 1.533671 1_555
O7 V1 2.157562 1_565
O8 P2 1.533570 1_555
O8 V2 2.157303 1_545
O9 P3 1.535851 1_555
O9 V1 2.159569 1_555
O10 P3 1.581615 1_555
O10 V2 2.208444 1_655
O10 V4 2.215348 1_655
O11 P3 1.583381 1_555
O11 V4 2.210234 1_555
O11 V2 2.221593 1_555
O12 P2 1.583381 1_555
O12 V1 2.210234 1_455
O12 V3 2.221593 1_455
O13 P2 1.581615 1_555
O13 V3 2.208444 1_555
O13 V1 2.215348 1_555
O14 P2 1.535851 1_555
O14 V4 2.159569 1_545
O15 P3 1.533570 1_555
O15 V3 2.157303 1_555
O16 P4 1.533671 1_555
O16 V4 2.157562 1_555
O17 P5 1.535267 1_555
O17 V3 2.159208 1_565
O18 P5 1.579174 1_555
O18 V4 2.212706 1_555
O18 V6 2.213556 1_555
O19 P5 1.584568 1_555
O19 V6 2.207982 1_655
O19 V4 2.219457 1_655
O20 P4 1.585666 1_555
O20 V3 2.211975 1_455
O20 V5 2.213415 1_455
O21 P4 1.578783 1_555
O21 V5 2.213925 1_555
O21 V3 2.214842 1_555
O22 P4 1.535996 1_555
O22 V6 2.161744 1_555
O23 P5 1.534700 1_555
O23 V5 2.160769 1_565
O24 P6 1.534700 1_555
O24 V6 2.160769 1_545
O25 P7 1.535996 1_555
O25 V5 2.161744 1_555
O26 P7 1.578783 1_555
O26 V6 2.213925 1_655
O26 V8 2.214842 1_655
O27 P7 1.585666 1_555
O27 V8 2.211975 1_555
O27 V6 2.213415 1_555
O28 P6 1.584568 1_555
O28 V5 2.207982 1_555
O28 V7 2.219457 1_555
O29 P6 1.579179 1_555
O29 V7 2.212702 1_455
O29 V5 2.213552 1_455
O30 P6 1.535267 1_555
O30 V8 2.159208 1_545
O31 P7 1.533671 1_555
O31 V7 2.157562 1_555
O32 P8 1.533570 1_555
O32 V8 2.157303 1_555
O33 P9 1.535851 1_555
O33 V7 2.159569 1_565
O34 P9 1.581615 1_555
O34 V8 2.208444 1_655
O34 V10 2.215348 1_655
O35 P9 1.583381 1_555
O35 V10 2.210234 1_555
O35 V8 2.221593 1_555
O36 P8 1.583381 1_555
O36 V7 2.210234 1_455
O36 V9 2.221593 1_455
O37 P8 1.581615 1_555
O37 V9 2.208444 1_555
O37 V7 2.215348 1_555
O38 P8 1.535851 1_555
O38 V10 2.159569 1_555
O39 P9 1.533570 1_555
O39 V9 2.157303 1_565
O40 P10 1.533671 1_555
O40 V10 2.157562 1_545
O41 P11 1.535267 1_555
O41 V9 2.159208 1_555
O42 P11 1.579174 1_555
O42 V10 2.212706 1_555
O42 V0 2.213556 1_556
O43 P11 1.584568 1_555
O43 V0 2.207982 1_656
O43 V10 2.219457 1_655
O44 P10 1.585666 1_555
O44 V9 2.211975 1_455
O44 V11 2.213415 1_455
O45 P10 1.578783 1_555
O45 V11 2.213925 1_555
O45 V9 2.214842 1_555
O46 P10 1.535996 1_555
O46 V0 2.161744 1_546
O47 P11 1.534700 1_555
O47 V11 2.160769 1_555
