# generated using pymatgen
data_V2NiH6(NO3)2
_symmetry_space_group_name_H-M   'P 1'
_cell_length_a   5.65358400
_cell_length_b   11.13952000
_cell_length_c   12.29820800
_cell_angle_alpha   90.00000000
_cell_angle_beta   90.00000000
_cell_angle_gamma   90.00000000
_symmetry_Int_Tables_number   1
_chemical_formula_structural   V2NiH6(NO3)2
_chemical_formula_sum   'V8 Ni4 H24 N8 O24'
_cell_volume   774.51915113
_cell_formula_units_Z   4
loop_
 _symmetry_equiv_pos_site_id
 _symmetry_equiv_pos_as_xyz
  1  'x, y, z'
loop_
 _atom_site_type_symbol
 _atom_site_label
 _atom_site_symmetry_multiplicity
 _atom_site_fract_x
 _atom_site_fract_y
 _atom_site_fract_z
 _atom_site_occupancy
  V  V0  1  0.19107600  0.53205700  0.16715700  1
  V  V1  1  0.19107600  0.96794300  0.16715700  1
  V  V2  1  0.30892400  0.46794300  0.66715700  1
  V  V3  1  0.30892400  0.03205700  0.66715700  1
  V  V4  1  0.69107600  0.53205700  0.33284300  1
  V  V5  1  0.69107600  0.96794300  0.33284300  1
  V  V6  1  0.80892400  0.03205700  0.83284300  1
  V  V7  1  0.80892400  0.46794300  0.83284300  1
  Ni  Ni0  1  0.02123500  0.25000000  0.03936500  1
  Ni  Ni1  1  0.47876500  0.75000000  0.53936500  1
  Ni  Ni2  1  0.52123500  0.25000000  0.46063500  1
  Ni  Ni3  1  0.97876500  0.75000000  0.96063500  1
  H  H0  1  0.02082900  0.75000000  0.45545100  1
  H  H1  1  0.06411800  0.25000000  0.39233100  1
  H  H2  1  0.20615200  0.67679500  0.38073200  1
  H  H3  1  0.20615200  0.82320500  0.38073200  1
  H  H4  1  0.22885500  0.17793300  0.30547500  1
  H  H5  1  0.22885500  0.32206700  0.30547500  1
  H  H6  1  0.27114500  0.82206700  0.80547500  1
  H  H7  1  0.27114500  0.67793300  0.80547500  1
  H  H8  1  0.29384800  0.32320500  0.88073200  1
  H  H9  1  0.29384800  0.17679500  0.88073200  1
  H  H10  1  0.43588200  0.75000000  0.89233100  1
  H  H11  1  0.47917100  0.25000000  0.95545100  1
  H  H12  1  0.52082900  0.75000000  0.04454900  1
  H  H13  1  0.56411800  0.25000000  0.10766900  1
  H  H14  1  0.70615200  0.67679500  0.11926800  1
  H  H15  1  0.70615200  0.82320500  0.11926800  1
  H  H16  1  0.72885500  0.17793300  0.19452500  1
  H  H17  1  0.72885500  0.32206700  0.19452500  1
  H  H18  1  0.77114500  0.67793300  0.69452500  1
  H  H19  1  0.77114500  0.82206700  0.69452500  1
  H  H20  1  0.79384800  0.17679500  0.61926800  1
  H  H21  1  0.79384800  0.32320500  0.61926800  1
  H  H22  1  0.93588200  0.75000000  0.60766900  1
  H  H23  1  0.97917100  0.25000000  0.54454900  1
  N  N0  1  0.19314200  0.75000000  0.43039900  1
  N  N1  1  0.22719800  0.25000000  0.35689500  1
  N  N2  1  0.27280200  0.75000000  0.85689500  1
  N  N3  1  0.30685800  0.25000000  0.93039900  1
  N  N4  1  0.69314200  0.75000000  0.06960100  1
  N  N5  1  0.72719800  0.25000000  0.14310500  1
  N  N6  1  0.77280200  0.75000000  0.64310500  1
  N  N7  1  0.80685800  0.25000000  0.56960100  1
  O  O0  1  0.97908400  0.56668600  0.27375700  1
  O  O1  1  0.97908400  0.93331400  0.27375700  1
  O  O2  1  0.14205100  0.61932100  0.05899300  1
  O  O3  1  0.14205100  0.88067900  0.05899300  1
  O  O4  1  0.17431200  0.11475500  0.13543000  1
  O  O5  1  0.17431200  0.38524500  0.13543000  1
  O  O6  1  0.32568800  0.61475500  0.63543000  1
  O  O7  1  0.32568800  0.88524500  0.63543000  1
  O  O8  1  0.35794900  0.11932100  0.55899300  1
  O  O9  1  0.35794900  0.38067900  0.55899300  1
  O  O10  1  0.52091600  0.06668600  0.77375700  1
  O  O11  1  0.52091600  0.43331400  0.77375700  1
  O  O12  1  0.47908400  0.56668600  0.22624300  1
  O  O13  1  0.47908400  0.93331400  0.22624300  1
  O  O14  1  0.64205100  0.61932100  0.44100700  1
  O  O15  1  0.64205100  0.88067900  0.44100700  1
  O  O16  1  0.67431200  0.11475500  0.36457000  1
  O  O17  1  0.67431200  0.38524500  0.36457000  1
  O  O18  1  0.82568800  0.61475500  0.86457000  1
  O  O19  1  0.82568800  0.88524500  0.86457000  1
  O  O20  1  0.85794900  0.11932100  0.94100700  1
  O  O21  1  0.85794900  0.38067900  0.94100700  1
  O  O22  1  0.02091600  0.06668600  0.72624300  1
  O  O23  1  0.02091600  0.43331400  0.72624300  1
loop_
_geom_bond_atom_site_label_1
_geom_bond_atom_site_label_2
_geom_bond_distance
_geom_bond_site_symmetry_2
Ni0 O4 2.101067 1_555
Ni0 O5 2.101067 1_555
Ni0 O20 2.105819 1_454
Ni0 O21 2.105819 1_454
Ni1 O6 2.101067 1_555
Ni1 O7 2.101067 1_555
Ni1 O14 2.105819 1_555
Ni1 O15 2.105819 1_555
Ni2 O17 2.101067 1_555
Ni2 O16 2.101067 1_555
Ni2 O9 2.105819 1_555
Ni2 O8 2.105819 1_555
Ni3 O18 2.101067 1_555
Ni3 O19 2.101067 1_555
Ni3 O2 2.105819 1_656
Ni3 O3 2.105819 1_656
H0 N0 1.021744 1_555
H1 N1 1.019794 1_555
H2 N0 1.021516 1_555
H3 N0 1.021516 1_555
H4 N1 1.021988 1_555
H5 N1 1.021988 1_555
H6 N2 1.021988 1_555
H7 N2 1.021988 1_555
H8 N3 1.021516 1_555
H9 N3 1.021516 1_555
H10 N2 1.019794 1_555
H11 N3 1.021744 1_555
H12 N4 1.021744 1_555
H13 N5 1.019794 1_555
H14 N4 1.021516 1_555
H15 N4 1.021516 1_555
H16 N5 1.021988 1_555
H17 N5 1.021988 1_555
H18 N6 1.021988 1_555
H19 N6 1.021988 1_555
H20 N7 1.021516 1_555
H21 N7 1.021516 1_555
H22 N6 1.019794 1_555
H23 N7 1.021744 1_555
N0 Ni1 2.098426 1_555
N1 Ni2 2.095509 1_555
N2 Ni3 2.095509 1_455
N3 Ni0 2.098426 1_556
N4 Ni3 2.098426 1_554
N5 Ni0 2.095509 1_655
N6 Ni1 2.095509 1_555
N7 Ni2 2.098426 1_555
O0 V0 1.817672 1_655
O0 V4 1.824312 1_555
O1 V1 1.817672 1_655
O1 V5 1.824312 1_555
O2 V0 1.670704 1_555
O3 V1 1.670704 1_555
O4 V1 1.683986 1_545
O5 V0 1.683986 1_555
O6 V2 1.683986 1_555
O7 V3 1.683986 1_565
O8 V3 1.670704 1_555
O9 V2 1.670704 1_555
O10 V3 1.817672 1_555
O10 V6 1.824312 1_555
O11 V2 1.817672 1_555
O11 V7 1.824312 1_555
O12 V4 1.817672 1_555
O12 V0 1.824312 1_555
O13 V5 1.817672 1_555
O13 V1 1.824312 1_555
O14 V4 1.670704 1_555
O15 V5 1.670704 1_555
O16 V5 1.683986 1_545
O17 V4 1.683986 1_555
O18 V7 1.683986 1_555
O19 V6 1.683986 1_565
O20 V6 1.670704 1_555
O21 V7 1.670704 1_555
O22 V6 1.817672 1_455
O22 V3 1.824312 1_555
O23 V7 1.817672 1_455
O23 V2 1.824312 1_555
