# generated using pymatgen
data_V3Cu2Te(PO4)6
_symmetry_space_group_name_H-M   'P 1'
_cell_length_a   8.73196673
_cell_length_b   8.71182849
_cell_length_c   8.71182882
_cell_angle_alpha   60.00000363
_cell_angle_beta   60.07626773
_cell_angle_gamma   60.07626552
_symmetry_Int_Tables_number   1
_chemical_formula_structural   V3Cu2Te(PO4)6
_chemical_formula_sum   'V3 Cu2 Te1 P6 O24'
_cell_volume   469.15399308
_cell_formula_units_Z   1
loop_
 _symmetry_equiv_pos_site_id
 _symmetry_equiv_pos_as_xyz
  1  'x, y, z'
loop_
 _atom_site_type_symbol
 _atom_site_label
 _atom_site_symmetry_multiplicity
 _atom_site_fract_x
 _atom_site_fract_y
 _atom_site_fract_z
 _atom_site_occupancy
  V  V0  1  0.06868600  0.64377100  0.64377100  1
  V  V1  1  0.42794500  0.85735100  0.85735100  1
  V  V2  1  0.92711000  0.35763000  0.35763000  1
  Cu  Cu0  1  0.00775800  0.99741400  0.99741400  1
  Cu  Cu1  1  0.49841600  0.50052800  0.50052800  1
  Te  Te0  1  0.56806300  0.14397900  0.14397900  1
  P  P0  1  0.24133600  0.25151100  0.55260200  1
  P  P1  1  0.24133600  0.95455100  0.25151100  1
  P  P2  1  0.24133600  0.55260200  0.95455100  1
  P  P3  1  0.75342000  0.46678500  0.03944500  1
  P  P4  1  0.75342000  0.03944500  0.74035000  1
  P  P5  1  0.75342000  0.74035000  0.46678500  1
  O  O0  1  0.07184800  0.12303700  0.29984500  1
  O  O1  1  0.07184800  0.50527100  0.12303700  1
  O  O2  1  0.07184800  0.29984500  0.50527100  1
  O  O3  1  0.23861500  0.08312300  0.73995500  1
  O  O4  1  0.42881800  0.19999900  0.39696000  1
  O  O5  1  0.24466300  0.41698200  0.57335400  1
  O  O6  1  0.23861500  0.93830700  0.08312300  1
  O  O7  1  0.24466300  0.76500200  0.41698200  1
  O  O8  1  0.57184000  0.62109700  0.00459600  1
  O  O9  1  0.24466300  0.57335400  0.76500200  1
  O  O10  1  0.77526900  0.27266700  0.04925500  1
  O  O11  1  0.57184000  0.00459600  0.80246700  1
  O  O12  1  0.42881800  0.97422200  0.19999900  1
  O  O13  1  0.23861500  0.73995500  0.93830700  1
  O  O14  1  0.74470700  0.44680900  0.23166200  1
  O  O15  1  0.42881800  0.39696000  0.97422200  1
  O  O16  1  0.74470700  0.23166200  0.57682400  1
  O  O17  1  0.77526900  0.04925500  0.90280900  1
  O  O18  1  0.74470700  0.57682400  0.44680900  1
  O  O19  1  0.57184000  0.80246700  0.62109700  1
  O  O20  1  0.77526900  0.90280900  0.27266700  1
  O  O21  1  0.93015700  0.67938300  0.50865300  1
  O  O22  1  0.93015700  0.50865300  0.88180700  1
  O  O23  1  0.93015700  0.88180700  0.67938300  1
loop_
_geom_bond_atom_site_label_1
_geom_bond_atom_site_label_2
_geom_bond_distance
_geom_bond_site_symmetry_2
Cu0 O6 2.228876 1_556
Cu0 O13 2.228876 1_555
Cu0 O3 2.228876 1_565
Cu0 O17 2.320957 1_465
Cu0 O10 2.320957 1_466
Cu0 O20 2.320957 1_456
Cu1 O14 2.323105 1_555
Cu1 O16 2.323110 1_555
Cu1 O18 2.323116 1_555
Cu1 O5 2.363590 1_555
Cu1 O7 2.363593 1_555
Cu1 O9 2.363596 1_555
O0 P1 1.533333 1_545
O0 V2 1.960777 1_455
O1 P2 1.533331 1_554
O1 V2 1.960781 1_455
O2 P0 1.533328 1_555
O2 V2 1.960784 1_455
O3 P0 1.555092 1_555
O3 V1 2.019623 1_545
O4 P0 1.543000 1_555
O4 Te0 2.093772 1_555
O5 P0 1.555393 1_555
O5 V0 1.970712 1_555
O6 P1 1.555092 1_555
O6 V1 2.019631 1_554
O7 P1 1.555388 1_555
O7 V0 1.970719 1_555
O8 P3 1.535874 1_555
O8 V1 1.961680 1_554
O9 P2 1.555384 1_555
O9 V0 1.970725 1_555
O10 P3 1.566347 1_555
O10 Te0 2.195553 1_555
O11 P4 1.535874 1_555
O11 V1 1.961687 1_545
O12 P1 1.542995 1_555
O12 Te0 2.093779 1_565
O13 P2 1.555092 1_555
O13 V1 2.019618 1_555
O14 P3 1.560420 1_555
O14 V2 2.000354 1_555
O15 P2 1.542998 1_555
O15 Te0 2.093776 1_556
O16 P4 1.560413 1_555
O16 V2 2.000359 1_555
O17 P4 1.566347 1_555
O17 Te0 2.195554 1_556
O18 P5 1.560403 1_555
O18 V2 2.000368 1_555
O19 P5 1.535875 1_555
O19 V1 1.961673 1_555
O20 P5 1.566347 1_555
O20 Te0 2.195554 1_565
O21 P5 1.531954 1_555
O21 V0 1.904224 1_655
O22 P3 1.531954 1_556
O22 V0 1.904228 1_655
O23 P4 1.531954 1_565
O23 V0 1.904231 1_655
