# generated using pymatgen
data_Li9Sb3P8O29
_symmetry_space_group_name_H-M   'P 1'
_cell_length_a   10.20409296
_cell_length_b   10.20409296
_cell_length_c   14.14358900
_cell_angle_alpha   90.00000000
_cell_angle_beta   90.00000000
_cell_angle_gamma   120.00000621
_symmetry_Int_Tables_number   1
_chemical_formula_structural   Li9Sb3P8O29
_chemical_formula_sum   'Li18 Sb6 P16 O58'
_cell_volume   1275.37836280
_cell_formula_units_Z   2
loop_
 _symmetry_equiv_pos_site_id
 _symmetry_equiv_pos_as_xyz
  1  'x, y, z'
loop_
 _atom_site_type_symbol
 _atom_site_label
 _atom_site_symmetry_multiplicity
 _atom_site_fract_x
 _atom_site_fract_y
 _atom_site_fract_z
 _atom_site_occupancy
  Li  Li0  1  0.00000000  0.00000000  0.00000000  1
  Li  Li1  1  0.00000000  0.00000000  0.50000000  1
  Li  Li2  1  0.32917600  0.22652500  0.06192900  1
  Li  Li3  1  0.32917600  0.10265100  0.56192900  1
  Li  Li4  1  0.77347500  0.67082400  0.56192900  1
  Li  Li5  1  0.66666700  0.33333300  0.87988300  1
  Li  Li6  1  0.66666700  0.33333300  0.37988300  1
  Li  Li7  1  0.89734900  0.67082400  0.06192900  1
  Li  Li8  1  0.77347500  0.10265100  0.06192900  1
  Li  Li9  1  0.10265100  0.77347500  0.43807100  1
  Li  Li10  1  0.89734900  0.22652500  0.56192900  1
  Li  Li11  1  0.22652500  0.89734900  0.93807100  1
  Li  Li12  1  0.10265100  0.32917600  0.93807100  1
  Li  Li13  1  0.33333300  0.66666700  0.12011700  1
  Li  Li14  1  0.33333300  0.66666700  0.62011700  1
  Li  Li15  1  0.22652500  0.32917600  0.43807100  1
  Li  Li16  1  0.67082400  0.89734900  0.43807100  1
  Li  Li17  1  0.67082400  0.77347500  0.93807100  1
  Sb  Sb0  1  0.43127200  0.43127200  0.25000000  1
  Sb  Sb1  1  0.56872800  0.56872800  0.75000000  1
  Sb  Sb2  1  0.43127200  0.00000000  0.75000000  1
  Sb  Sb3  1  0.56872800  0.00000000  0.25000000  1
  Sb  Sb4  1  0.00000000  0.56872800  0.25000000  1
  Sb  Sb5  1  0.00000000  0.43127200  0.75000000  1
  P  P0  1  0.30761100  0.22036300  0.84684300  1
  P  P1  1  0.30761100  0.08724800  0.34684300  1
  P  P2  1  0.77963700  0.69238900  0.34684300  1
  P  P3  1  0.66666700  0.33333300  0.61293400  1
  P  P4  1  0.66666700  0.33333300  0.11293400  1
  P  P5  1  0.91275200  0.69238900  0.84684300  1
  P  P6  1  0.08724800  0.77963700  0.65315700  1
  P  P7  1  0.77963700  0.08724800  0.84684300  1
  P  P8  1  0.22036300  0.91275200  0.15315700  1
  P  P9  1  0.91275200  0.22036300  0.34684300  1
  P  P10  1  0.08724800  0.30761100  0.15315700  1
  P  P11  1  0.33333300  0.66666700  0.38706600  1
  P  P12  1  0.33333300  0.66666700  0.88706600  1
  P  P13  1  0.22036300  0.30761100  0.65315700  1
  P  P14  1  0.69238900  0.91275200  0.65315700  1
  P  P15  1  0.69238900  0.77963700  0.15315700  1
  O  O0  1  0.22269000  0.22269000  0.75000000  1
  O  O1  1  0.22526300  0.21756800  0.56849800  1
  O  O2  1  0.30161900  0.23599000  0.34677800  1
  O  O3  1  0.22269000  0.00000000  0.25000000  1
  O  O4  1  0.22526300  0.00769600  0.06849800  1
  O  O5  1  0.30161900  0.06562900  0.84677800  1
  O  O6  1  0.47318500  0.34834800  0.84400800  1
  O  O7  1  0.50972500  0.30598000  0.15079200  1
  O  O8  1  0.65165200  0.52681500  0.34400800  1
  O  O9  1  0.78243200  0.77473700  0.06849800  1
  O  O10  1  0.77731000  0.77731000  0.25000000  1
  O  O11  1  0.76401000  0.69838100  0.84677800  1
  O  O12  1  0.50972500  0.20374500  0.65079200  1
  O  O13  1  0.47318500  0.12483700  0.34400800  1
  O  O14  1  0.69402000  0.49027500  0.65079200  1
  O  O15  1  0.66666700  0.33333300  0.50638100  1
  O  O16  1  0.66666700  0.33333300  0.00638100  1
  O  O17  1  0.79625500  0.49027500  0.15079200  1
  O  O18  1  0.65165200  0.12483700  0.84400800  1
  O  O19  1  0.69402000  0.20374500  0.15079200  1
  O  O20  1  0.93437100  0.69838100  0.34677800  1
  O  O21  1  0.00000000  0.77731000  0.75000000  1
  O  O22  1  0.99230400  0.77473700  0.56849800  1
  O  O23  1  0.00769600  0.78243200  0.93150200  1
  O  O24  1  0.87516300  0.52681500  0.84400800  1
  O  O25  1  0.79625500  0.30598000  0.65079200  1
  O  O26  1  0.06562900  0.76401000  0.15322200  1
  O  O27  1  0.87516300  0.34834800  0.34400800  1
  O  O28  1  0.76401000  0.06562900  0.34677800  1
  O  O29  1  0.21756800  0.99230400  0.43150200  1
  O  O30  1  0.78243200  0.00769600  0.56849800  1
  O  O31  1  0.77731000  0.00000000  0.75000000  1
  O  O32  1  0.23599000  0.93437100  0.65322200  1
  O  O33  1  0.12483700  0.65165200  0.65599200  1
  O  O34  1  0.93437100  0.23599000  0.84677800  1
  O  O35  1  0.20374500  0.69402000  0.34920800  1
  O  O36  1  0.12483700  0.47318500  0.15599200  1
  O  O37  1  0.99230400  0.21756800  0.06849800  1
  O  O38  1  0.00769600  0.22526300  0.43150200  1
  O  O39  1  0.00000000  0.22269000  0.25000000  1
  O  O40  1  0.06562900  0.30161900  0.65322200  1
  O  O41  1  0.30598000  0.79625500  0.84920800  1
  O  O42  1  0.34834800  0.87516300  0.15599200  1
  O  O43  1  0.20374500  0.50972500  0.84920800  1
  O  O44  1  0.33333300  0.66666700  0.49361900  1
  O  O45  1  0.33333300  0.66666700  0.99361900  1
  O  O46  1  0.30598000  0.50972500  0.34920800  1
  O  O47  1  0.52681500  0.87516300  0.65599200  1
  O  O48  1  0.49027500  0.79625500  0.34920800  1
  O  O49  1  0.23599000  0.30161900  0.15322200  1
  O  O50  1  0.21756800  0.22526300  0.93150200  1
  O  O51  1  0.34834800  0.47318500  0.65599200  1
  O  O52  1  0.49027500  0.69402000  0.84920800  1
  O  O53  1  0.52681500  0.65165200  0.15599200  1
  O  O54  1  0.69838100  0.93437100  0.15322200  1
  O  O55  1  0.77473700  0.99230400  0.93150200  1
  O  O56  1  0.69838100  0.76401000  0.65322200  1
  O  O57  1  0.77473700  0.78243200  0.43150200  1
loop_
_geom_bond_atom_site_label_1
_geom_bond_atom_site_label_2
_geom_bond_distance
_geom_bond_site_symmetry_2
Li0 O4 2.459233 1_555
Li0 O55 2.459233 1_444
Li0 O9 2.459237 1_445
Li0 O50 2.459237 1_554
Li0 O37 2.459242 1_455
Li0 O23 2.459242 1_544
Li1 O22 2.459233 1_445
Li1 O38 2.459233 1_555
Li1 O1 2.459237 1_555
Li1 O57 2.459237 1_445
Li1 O29 2.459242 1_545
Li1 O30 2.459242 1_455
Li2 O4 1.936837 1_555
Li2 O49 1.971595 1_555
Li2 O7 2.034084 1_555
Li2 O50 2.164587 1_554
Li3 O1 1.936846 1_555
Li3 O32 1.971594 1_545
Li3 O12 2.034084 1_555
Li3 O29 2.164590 1_545
Li4 O22 1.936837 1_555
Li4 O56 1.971595 1_555
Li4 O14 2.034084 1_555
Li4 O57 2.164587 1_555
Li5 O16 1.789136 1_556
Li5 O18 2.116902 1_555
Li5 O24 2.116906 1_555
Li5 O6 2.116912 1_555
Li6 O15 1.789136 1_555
Li6 O27 2.116902 1_555
Li6 O13 2.116906 1_555
Li6 O8 2.116912 1_555
Li7 O9 1.936846 1_555
Li7 O26 1.971594 1_655
Li7 O17 2.034084 1_555
Li7 O23 2.164590 1_654
Li8 O37 1.936837 1_555
Li8 O54 1.971594 1_545
Li8 O19 2.034084 1_555
Li8 O55 2.164593 1_544
Li9 O29 1.936837 1_555
Li9 O20 1.971594 1_455
Li9 O35 2.034084 1_555
Li9 O22 2.164593 1_455
Li10 O30 1.936837 1_555
Li10 O40 1.971594 1_655
Li10 O25 2.034084 1_555
Li10 O38 2.164593 1_655
Li11 O23 1.936837 1_555
Li11 O5 1.971594 1_565
Li11 O41 2.034084 1_555
Li11 O4 2.164593 1_566
Li12 O50 1.936846 1_555
Li12 O34 1.971594 1_455
Li12 O43 2.034084 1_555
Li12 O37 2.164590 1_456
Li13 O45 1.789136 1_554
Li13 O42 2.116902 1_555
Li13 O36 2.116906 1_555
Li13 O53 2.116912 1_555
Li14 O44 1.789136 1_555
Li14 O33 2.116902 1_555
Li14 O47 2.116906 1_555
Li14 O51 2.116912 1_555
Li15 O38 1.936837 1_555
Li15 O2 1.971595 1_555
Li15 O46 2.034084 1_555
Li15 O1 2.164587 1_555
Li16 O57 1.936846 1_555
Li16 O28 1.971594 1_565
Li16 O48 2.034084 1_555
Li16 O30 2.164590 1_565
Li17 O55 1.936837 1_555
Li17 O11 1.971595 1_555
Li17 O52 2.034084 1_555
Li17 O9 2.164587 1_556
O0 P13 1.627309 1_555
O0 P0 1.627309 1_555
O1 P13 1.525245 1_555
O2 P1 1.549254 1_555
O2 Sb0 2.226735 1_555
O3 P1 1.627309 1_555
O3 P8 1.627309 1_545
O4 P8 1.525251 1_545
O5 P0 1.549254 1_555
O5 Sb2 2.226736 1_555
O6 P0 1.534668 1_555
O6 Sb1 2.362827 1_555
O7 P4 1.575521 1_555
O7 Sb0 2.295156 1_555
O8 P2 1.534668 1_555
O8 Sb0 2.362827 1_555
O9 P15 1.525245 1_555
O10 P2 1.627309 1_555
O10 P15 1.627309 1_555
O11 P5 1.549254 1_555
O11 Sb1 2.226735 1_555
O12 P3 1.575518 1_555
O12 Sb2 2.295156 1_555
O13 P1 1.534668 1_555
O13 Sb3 2.362828 1_555
O14 P3 1.575521 1_555
O14 Sb1 2.295156 1_555
O15 P3 1.507042 1_555
O16 P4 1.507042 1_555
O17 P4 1.575518 1_555
O17 Sb4 2.295156 1_655
O18 P7 1.534669 1_555
O18 Sb2 2.362827 1_555
O19 P4 1.575512 1_555
O19 Sb3 2.295156 1_555
O20 P2 1.549254 1_555
O20 Sb4 2.226736 1_655
O21 P5 1.627309 1_455
O21 P6 1.627309 1_555
O22 P6 1.525251 1_655
O23 P5 1.525248 1_455
O24 P5 1.534668 1_555
O24 Sb5 2.362828 1_655
O25 P3 1.575512 1_555
O25 Sb5 2.295156 1_655
O26 P8 1.549254 1_555
O26 Sb4 2.226735 1_555
O27 P9 1.534669 1_555
O27 Sb4 2.362827 1_655
O28 P9 1.549254 1_555
O28 Sb3 2.226735 1_555
O29 P1 1.525248 1_565
O30 P14 1.525248 1_545
O31 P14 1.627309 1_545
O31 P7 1.627309 1_555
O32 P6 1.549254 1_555
O32 Sb2 2.226735 1_565
O33 P6 1.534669 1_555
O33 Sb5 2.362827 1_555
O34 P7 1.549254 1_555
O34 Sb5 2.226735 1_655
O35 P11 1.575512 1_555
O35 Sb4 2.295156 1_555
O36 P10 1.534668 1_555
O36 Sb4 2.362828 1_555
O37 P10 1.525248 1_655
O38 P9 1.525251 1_455
O39 P10 1.627309 1_555
O39 P9 1.627309 1_455
O40 P13 1.549254 1_555
O40 Sb5 2.226736 1_555
O41 P12 1.575512 1_555
O41 Sb2 2.295156 1_565
O42 P8 1.534669 1_555
O42 Sb3 2.362827 1_565
O43 P12 1.575518 1_555
O43 Sb5 2.295156 1_555
O44 P11 1.507042 1_555
O45 P12 1.507042 1_555
O46 P11 1.575521 1_555
O46 Sb0 2.295156 1_555
O47 P14 1.534668 1_555
O47 Sb2 2.362828 1_565
O48 P11 1.575518 1_555
O48 Sb3 2.295156 1_565
O49 P10 1.549254 1_555
O49 Sb0 2.226735 1_555
O50 P0 1.525245 1_555
O51 P13 1.534668 1_555
O51 Sb1 2.362827 1_555
O52 P12 1.575521 1_555
O52 Sb1 2.295156 1_555
O53 P15 1.534668 1_555
O53 Sb0 2.362827 1_555
O54 P15 1.549254 1_555
O54 Sb3 2.226736 1_565
O55 P7 1.525251 1_565
O56 P14 1.549254 1_555
O56 Sb1 2.226735 1_555
O57 P2 1.525245 1_555
