# generated using pymatgen
data_Li7V(O2F)2
_symmetry_space_group_name_H-M   'P 1'
_cell_length_a   5.53262605
_cell_length_b   9.91042776
_cell_length_c   10.43265666
_cell_angle_alpha   105.65815364
_cell_angle_beta   91.57916032
_cell_angle_gamma   74.77344644
_symmetry_Int_Tables_number   1
_chemical_formula_structural   Li7V(O2F)2
_chemical_formula_sum   'Li28 V4 O16 F8'
_cell_volume   530.88709720
_cell_formula_units_Z   4
loop_
 _symmetry_equiv_pos_site_id
 _symmetry_equiv_pos_as_xyz
  1  'x, y, z'
loop_
 _atom_site_type_symbol
 _atom_site_label
 _atom_site_symmetry_multiplicity
 _atom_site_fract_x
 _atom_site_fract_y
 _atom_site_fract_z
 _atom_site_occupancy
  Li  Li0  1  0.04223000  0.26507300  0.93732700  1
  Li  Li1  1  0.54217900  0.26546500  0.43753200  1
  Li  Li2  1  0.29229900  0.76513000  0.18716400  1
  Li  Li3  1  0.79200100  0.76513500  0.68734200  1
  Li  Li4  1  0.24555900  0.12543300  0.72916000  1
  Li  Li5  1  0.74569900  0.12529200  0.22936800  1
  Li  Li6  1  0.49567900  0.62530800  0.97886400  1
  Li  Li7  1  0.99555100  0.62566600  0.47919500  1
  Li  Li8  1  0.14427600  0.46178100  0.90517700  1
  Li  Li9  1  0.64418700  0.46242200  0.40546300  1
  Li  Li10  1  0.39414600  0.96215900  0.15534300  1
  Li  Li11  1  0.89408000  0.96218700  0.65528500  1
  Li  Li12  1  0.36300300  0.31165200  0.65218300  1
  Li  Li13  1  0.86318000  0.31124500  0.15183300  1
  Li  Li14  1  0.61263900  0.81148800  0.90164000  1
  Li  Li15  1  0.11330500  0.81145800  0.40159800  1
  Li  Li16  1  0.62084500  0.06264200  0.84512800  1
  Li  Li17  1  0.12087500  0.06275600  0.34526200  1
  Li  Li18  1  0.87088600  0.56240000  0.09502900  1
  Li  Li19  1  0.37034000  0.56299800  0.59525200  1
  Li  Li20  1  0.44688100  0.24994700  0.07168500  1
  Li  Li21  1  0.94727600  0.25074400  0.57185400  1
  Li  Li22  1  0.69671900  0.75029800  0.32158500  1
  Li  Li23  1  0.19653800  0.75016200  0.82153200  1
  Li  Li24  1  0.70286100  0.26853000  0.80978500  1
  Li  Li25  1  0.20260100  0.26851000  0.30985700  1
  Li  Li26  1  0.95257900  0.76832900  0.05958800  1
  Li  Li27  1  0.45219000  0.76871700  0.55991900  1
  V  V0  1  0.50866100  0.01315000  0.49342000  1
  V  V1  1  0.75842500  0.51322200  0.74357000  1
  V  V2  1  0.00885300  0.01300800  0.99359200  1
  V  V3  1  0.25877300  0.51281300  0.24341200  1
  O  O0  1  0.01281200  0.32111500  0.76440700  1
  O  O1  1  0.51298800  0.32126400  0.26449700  1
  O  O2  1  0.26290200  0.82122400  0.01432200  1
  O  O3  1  0.76265300  0.82140800  0.51429300  1
  O  O4  1  0.14603000  0.39867700  0.07361800  1
  O  O5  1  0.64593200  0.39934800  0.57393000  1
  O  O6  1  0.39601500  0.89899500  0.32340100  1
  O  O7  1  0.89592600  0.89895200  0.82354700  1
  O  O8  1  0.58351300  0.12225100  0.67900900  1
  O  O9  1  0.08361500  0.12216200  0.17907500  1
  O  O10  1  0.83366100  0.62164900  0.92839600  1
  O  O11  1  0.33361400  0.62223200  0.42890900  1
  O  O12  1  0.76679800  0.19640300  0.97329700  1
  O  O13  1  0.26688000  0.19665200  0.47328900  1
  O  O14  1  0.01677300  0.69629300  0.22304900  1
  O  O15  1  0.51647300  0.69657000  0.72320600  1
  F  F0  1  0.28831200  0.07804800  0.90047800  1
  F  F1  1  0.78828900  0.07833400  0.40061300  1
  F  F2  1  0.53829700  0.57792300  0.15021500  1
  F  F3  1  0.03815900  0.57825700  0.65037900  1
  F  F4  1  0.46194100  0.46082500  0.83825300  1
  F  F5  1  0.96238200  0.46111100  0.33833500  1
  F  F6  1  0.71226800  0.96109700  0.08819200  1
  F  F7  1  0.21200800  0.96129600  0.58798600  1
loop_
_geom_bond_atom_site_label_1
_geom_bond_atom_site_label_2
_geom_bond_distance
_geom_bond_site_symmetry_2
Li0 O4 1.855496 1_556
Li0 O12 1.907941 1_455
Li0 O0 2.016584 1_555
Li1 O5 1.857630 1_555
Li1 O13 1.907460 1_555
Li1 O1 2.016572 1_555
Li2 O6 1.856479 1_555
Li2 O14 1.909155 1_555
Li2 O2 2.016055 1_555
Li3 O7 1.856561 1_555
Li3 O15 1.907426 1_555
Li3 O3 2.019027 1_555
Li4 O8 1.945465 1_555
Li4 O0 1.970706 1_555
Li5 O9 1.945853 1_655
Li5 O1 1.972894 1_555
Li6 O10 1.945123 1_555
Li6 O2 1.972407 1_556
Li7 O11 1.945687 1_655
Li7 O3 1.971589 1_555
Li8 O10 1.976807 1_455
Li8 O0 1.999456 1_555
Li8 O4 2.017018 1_556
Li9 O11 1.976179 1_555
Li9 O1 2.002682 1_555
Li9 O5 2.017120 1_555
Li10 O9 1.976855 1_565
Li10 O2 2.001806 1_555
Li10 O6 2.013463 1_555
Li11 O8 1.977319 1_565
Li11 O3 2.001257 1_555
Li11 O7 2.015890 1_555
Li12 O8 2.037620 1_555
Li12 O13 2.044615 1_555
Li12 O5 2.245030 1_555
Li12 O0 2.259133 1_555
Li13 O9 2.036558 1_655
Li13 O12 2.041748 1_554
Li13 O4 2.242735 1_655
Li13 O1 2.259799 1_555
Li14 O15 2.040775 1_555
Li14 O10 2.041828 1_555
Li14 O7 2.244284 1_555
Li14 O2 2.258637 1_556
Li15 O11 2.037714 1_555
Li15 O14 2.043386 1_555
Li15 O6 2.242712 1_555
Li15 O3 2.262380 1_455
Li16 O7 1.877089 1_545
Li16 O12 1.934750 1_555
Li16 O8 1.965700 1_555
Li17 O6 1.877453 1_545
Li17 O13 1.934998 1_555
Li17 O9 1.965354 1_555
Li18 O4 1.877658 1_655
Li18 O14 1.934566 1_655
Li18 O10 1.969029 1_554
Li19 O5 1.878753 1_555
Li19 O15 1.933077 1_555
Li19 O11 1.966044 1_555
Li20 O4 1.908049 1_555
Li20 O12 1.944423 1_554
Li20 O1 2.001851 1_555
Li21 O5 1.908945 1_555
Li21 O13 1.943249 1_655
Li21 O0 1.997428 1_655
Li22 O6 1.907540 1_555
Li22 O14 1.945318 1_655
Li22 O3 2.000367 1_555
Li23 O7 1.907336 1_455
Li23 O15 1.944146 1_555
Li23 O2 2.001669 1_556
Li24 O8 1.945390 1_555
Li24 O12 2.009525 1_555
Li24 O0 2.020825 1_655
Li25 O9 1.944830 1_555
Li25 O13 2.007419 1_555
Li25 O1 2.023901 1_555
Li26 O10 1.948861 1_554
Li26 O14 2.008624 1_655
Li26 O2 2.024015 1_655
Li27 O11 1.945708 1_555
Li27 O15 2.007539 1_555
Li27 O3 2.024858 1_555
O0 V1 2.109941 1_455
O1 V3 2.106212 1_555
O2 V2 2.106359 1_564
O3 V0 2.106400 1_565
O4 V3 2.008618 1_555
O5 V1 2.005804 1_555
O6 V0 2.010156 1_565
O7 V2 2.010628 1_665
O8 V0 2.037242 1_555
O9 V2 2.036370 1_554
O10 V1 2.029349 1_555
O11 V3 2.037489 1_555
O12 V2 2.013764 1_655
O13 V0 2.013358 1_555
O14 V3 2.014507 1_555
O15 V1 2.013408 1_555
F0 Li16 1.898675 1_555
F0 Li0 1.937928 1_555
F0 Li4 1.960190 1_555
F0 V2 2.166557 1_555
F0 Li20 2.432769 1_556
F1 Li17 1.898522 1_655
F1 Li1 1.938724 1_555
F1 Li5 1.957501 1_555
F1 V0 2.166420 1_555
F1 Li21 2.437198 1_555
F2 Li18 1.898146 1_555
F2 Li2 1.938970 1_555
F2 Li6 1.960500 1_554
F2 V3 2.167741 1_555
F2 Li22 2.436070 1_555
F3 Li19 1.896467 1_555
F3 Li3 1.937026 1_455
F3 Li7 1.958911 1_455
F3 V1 2.168191 1_455
F3 Li23 2.431952 1_555
F4 Li8 1.905719 1_555
F4 Li6 1.923001 1_555
F4 Li24 1.969438 1_555
F4 V1 2.179380 1_555
F4 Li12 2.251860 1_555
F5 Li9 1.908100 1_555
F5 Li7 1.923921 1_555
F5 Li25 1.970052 1_655
F5 V3 2.176465 1_655
F5 Li13 2.258840 1_555
F6 Li10 1.908645 1_555
F6 Li5 1.923736 1_565
F6 Li26 1.971391 1_555
F6 V2 2.176691 1_664
F6 Li14 2.258877 1_554
F7 Li11 1.908820 1_455
F7 Li4 1.923540 1_565
F7 Li27 1.970201 1_555
F7 V0 2.176498 1_565
F7 Li15 2.256818 1_555
