# generated using pymatgen
data_Ti2O3
_symmetry_space_group_name_H-M   'P 1'
_cell_length_a   5.15100698
_cell_length_b   5.15098037
_cell_length_c   9.47688404
_cell_angle_alpha   90.00000320
_cell_angle_beta   90.00021480
_cell_angle_gamma   120.00007956
_symmetry_Int_Tables_number   1
_chemical_formula_structural   Ti2O3
_chemical_formula_sum   'Ti8 O12'
_cell_volume   217.75988736
_cell_formula_units_Z   4
loop_
 _symmetry_equiv_pos_site_id
 _symmetry_equiv_pos_as_xyz
  1  'x, y, z'
loop_
 _atom_site_type_symbol
 _atom_site_label
 _atom_site_symmetry_multiplicity
 _atom_site_fract_x
 _atom_site_fract_y
 _atom_site_fract_z
 _atom_site_occupancy
  Ti  Ti0  1  0.33333235  0.66666309  0.97504586  1
  Ti  Ti1  1  0.33333410  0.66666699  0.24999746  1
  Ti  Ti2  1  -0.00000024  -0.00000012  0.99998485  1
  Ti  Ti3  1  -0.00000027  0.00000199  0.50000756  1
  Ti  Ti4  1  0.33332189  0.66666083  0.52496293  1
  Ti  Ti5  1  0.66666592  0.33333332  0.75000695  1
  Ti  Ti6  1  0.66666771  0.33333715  0.02493739  1
  Ti  Ti7  1  0.66667717  0.33333678  0.47505114  1
  O  O0  1  0.02568105  0.67440334  0.11653666  1
  O  O1  1  0.97431813  0.64870511  0.61656288  1
  O  O2  1  0.02570027  0.35130146  0.38347163  1
  O  O3  1  0.97430800  0.32558293  0.88342940  1
  O  O4  1  0.32559944  0.35127790  0.11653652  1
  O  O5  1  0.35129264  0.32561000  0.61655973  1
  O  O6  1  0.32559983  0.97430101  0.38347674  1
  O  O7  1  0.35127376  0.02568955  0.88343045  1
  O  O8  1  0.64870221  0.67440223  0.38347731  1
  O  O9  1  0.67441414  0.64872423  0.88342918  1
  O  O10  1  0.64872398  0.97432112  0.11653532  1
  O  O11  1  0.67438791  0.02568107  0.61656004  1
loop_
_geom_bond_atom_site_label_1
_geom_bond_atom_site_label_2
_geom_bond_distance
_geom_bond_site_symmetry_2
O0 Ti6 2.002734 1_455
O0 Ti1 2.043470 1_555
O0 Ti2 2.066927 1_564
O0 Ti0 2.091434 1_554
O1 Ti4 2.002686 1_655
O1 Ti5 2.043336 1_555
O1 Ti3 2.067027 1_665
O1 Ti7 2.091482 1_555
O2 Ti7 2.002673 1_455
O2 Ti1 2.043464 1_555
O2 Ti3 2.066903 1_555
O2 Ti4 2.091303 1_555
O3 Ti0 2.002862 1_655
O3 Ti5 2.043231 1_555
O3 Ti2 2.066912 1_655
O3 Ti6 2.091524 1_556
O4 Ti6 2.002739 1_555
O4 Ti1 2.043470 1_555
O4 Ti2 2.066931 1_554
O4 Ti0 2.091412 1_554
O5 Ti4 2.002713 1_555
O5 Ti5 2.043351 1_555
O5 Ti3 2.066986 1_555
O5 Ti7 2.091540 1_555
O6 Ti7 2.002712 1_565
O6 Ti1 2.043495 1_555
O6 Ti3 2.066895 1_565
O6 Ti4 2.091315 1_555
O7 Ti0 2.002874 1_545
O7 Ti5 2.043242 1_555
O7 Ti2 2.066919 1_555
O7 Ti6 2.091518 1_556
O8 Ti7 2.002697 1_555
O8 Ti1 2.043498 1_555
O8 Ti3 2.066871 1_665
O8 Ti4 2.091356 1_555
O9 Ti0 2.002869 1_555
O9 Ti5 2.043224 1_555
O9 Ti2 2.066918 1_665
O9 Ti6 2.091501 1_556
O10 Ti6 2.002749 1_565
O10 Ti1 2.043484 1_555
O10 Ti2 2.066928 1_664
O10 Ti0 2.091427 1_554
O11 Ti4 2.002742 1_545
O11 Ti5 2.043353 1_555
O11 Ti3 2.067002 1_655
O11 Ti7 2.091491 1_555
