# generated using pymatgen
data_Na2CuH4(C2O5)2
_symmetry_space_group_name_H-M   'P 1'
_cell_length_a   3.60778700
_cell_length_b   7.59384983
_cell_length_c   9.56351283
_cell_angle_alpha   104.02061038
_cell_angle_beta   98.24186671
_cell_angle_gamma   103.73878402
_symmetry_Int_Tables_number   1
_chemical_formula_structural   Na2CuH4(C2O5)2
_chemical_formula_sum   'Na2 Cu1 H4 C4 O10'
_cell_volume   241.25756629
_cell_formula_units_Z   1
loop_
 _symmetry_equiv_pos_site_id
 _symmetry_equiv_pos_as_xyz
  1  'x, y, z'
loop_
 _atom_site_type_symbol
 _atom_site_label
 _atom_site_symmetry_multiplicity
 _atom_site_fract_x
 _atom_site_fract_y
 _atom_site_fract_z
 _atom_site_occupancy
  Na  Na0  1  0.69013600  0.29873500  0.57342300  1
  Na  Na1  1  0.30986400  0.70126500  0.42657700  1
  Cu  Cu0  1  0.00000000  0.00000000  0.00000000  1
  H  H0  1  0.44020000  0.52904100  0.80764800  1
  H  H1  1  0.55980000  0.47095900  0.19235200  1
  H  H2  1  0.32572500  0.32372500  0.82770200  1
  H  H3  1  0.67427500  0.67627500  0.17229800  1
  C  C0  1  0.04034300  0.21970900  0.27572000  1
  C  C1  1  0.95965700  0.78029100  0.72428000  1
  C  C2  1  0.73433400  0.02829800  0.25451000  1
  C  C3  1  0.26566600  0.97170200  0.74549000  1
  O  O0  1  0.19176700  0.23456000  0.16278800  1
  O  O1  1  0.80823300  0.76544000  0.83721200  1
  O  O2  1  0.66335400  0.90667800  0.12517300  1
  O  O3  1  0.33664600  0.09332200  0.87482700  1
  O  O4  1  0.12515600  0.34486700  0.39641000  1
  O  O5  1  0.87484400  0.65513300  0.60359000  1
  O  O6  1  0.57420300  0.00135200  0.35737000  1
  O  O7  1  0.42579700  0.99864800  0.64263000  1
  O  O8  1  0.29058800  0.39659500  0.75742400  1
  O  O9  1  0.70941200  0.60340500  0.24257600  1
loop_
_geom_bond_atom_site_label_1
_geom_bond_atom_site_label_2
_geom_bond_distance
_geom_bond_site_symmetry_2
Na0 O8 2.418765 1_655
Na0 O4 2.497931 1_655
Na0 O8 2.515768 1_555
Na0 O7 2.533786 1_545
Na0 O5 2.561633 1_555
Na0 O6 2.566458 1_555
Na0 O4 2.603944 1_555
Na1 O9 2.418765 1_455
Na1 O5 2.497931 1_455
Na1 O9 2.515768 1_555
Na1 O6 2.533786 1_565
Na1 O4 2.561633 1_555
Na1 O7 2.566458 1_555
Na1 O5 2.603944 1_555
Cu0 O2 1.956898 1_445
Cu0 O3 1.956898 1_554
Cu0 O0 1.958897 1_555
Cu0 O1 1.958897 1_444
H0 O8 0.983546 1_555
H1 O9 0.983546 1_555
H2 O8 0.981381 1_555
H3 O9 0.981381 1_555
C0 O4 1.248292 1_555
C0 O0 1.294813 1_555
C1 O5 1.248292 1_555
C1 O1 1.294813 1_555
C2 O6 1.244033 1_555
C2 O2 1.300704 1_545
C3 O7 1.244033 1_555
C3 O3 1.300704 1_565
