# generated using pymatgen
data_V3BO6
_symmetry_space_group_name_H-M   'P 1'
_cell_length_a   4.45232387
_cell_length_b   8.58995910
_cell_length_c   9.94274700
_cell_angle_alpha   90.00000000
_cell_angle_beta   90.00000000
_cell_angle_gamma   90.00000000
_symmetry_Int_Tables_number   1
_chemical_formula_structural   V3BO6
_chemical_formula_sum   'V12 B4 O24'
_cell_volume   380.26314242
_cell_formula_units_Z   4
loop_
 _symmetry_equiv_pos_site_id
 _symmetry_equiv_pos_as_xyz
  1  'x, y, z'
loop_
 _atom_site_type_symbol
 _atom_site_label
 _atom_site_symmetry_multiplicity
 _atom_site_fract_x
 _atom_site_fract_y
 _atom_site_fract_z
 _atom_site_occupancy
  V  V0  1  0.47957445  0.75000000  0.09917471  1
  V  V1  1  0.99259909  0.06725418  0.12289788  1
  V  V2  1  0.99259909  0.43274582  0.12289788  1
  V  V3  1  0.49259909  0.56725418  0.37710212  1
  V  V4  1  0.49259909  0.93274582  0.37710212  1
  V  V5  1  0.97957445  0.25000000  0.40082529  1
  V  V6  1  0.02042555  0.75000000  0.59917471  1
  V  V7  1  0.50740091  0.06725418  0.62289788  1
  V  V8  1  0.50740091  0.43274582  0.62289788  1
  V  V9  1  0.00740091  0.56725418  0.87710212  1
  V  V10  1  0.00740091  0.93274582  0.87710212  1
  V  V11  1  0.52042555  0.25000000  0.90082529  1
  B  B0  1  0.41867959  0.25000000  0.21600473  1
  B  B1  1  0.91867959  0.75000000  0.28399527  1
  B  B2  1  0.08132041  0.25000000  0.71600473  1
  B  B3  1  0.58132041  0.75000000  0.78399527  1
  O  O0  1  0.23826672  0.58761128  0.03398376  1
  O  O1  1  0.23826672  0.91238872  0.03398376  1
  O  O2  1  0.27892264  0.25000000  0.07831616  1
  O  O3  1  0.77560619  0.88873303  0.21603505  1
  O  O4  1  0.77560619  0.61126697  0.21603505  1
  O  O5  1  0.74240139  0.25000000  0.21688652  1
  O  O6  1  0.24240139  0.75000000  0.28311348  1
  O  O7  1  0.27560619  0.11126697  0.28396495  1
  O  O8  1  0.27560619  0.38873303  0.28396495  1
  O  O9  1  0.77892264  0.75000000  0.42168384  1
  O  O10  1  0.73826672  0.08761128  0.46601624  1
  O  O11  1  0.73826672  0.41238872  0.46601624  1
  O  O12  1  0.26173328  0.58761128  0.53398376  1
  O  O13  1  0.26173328  0.91238872  0.53398376  1
  O  O14  1  0.22107736  0.25000000  0.57831616  1
  O  O15  1  0.72439381  0.61126697  0.71603505  1
  O  O16  1  0.72439381  0.88873303  0.71603505  1
  O  O17  1  0.75759861  0.25000000  0.71688652  1
  O  O18  1  0.25759861  0.75000000  0.78311348  1
  O  O19  1  0.22439381  0.11126697  0.78396495  1
  O  O20  1  0.22439381  0.38873303  0.78396495  1
  O  O21  1  0.72107736  0.75000000  0.92168384  1
  O  O22  1  0.76173328  0.08761128  0.96601624  1
  O  O23  1  0.76173328  0.41238872  0.96601624  1
loop_
_geom_bond_atom_site_label_1
_geom_bond_atom_site_label_2
_geom_bond_distance
_geom_bond_site_symmetry_2
B0 O5 1.441341 1_555
B0 O2 1.503780 1_555
B0 O7 1.510808 1_555
B0 O8 1.510808 1_555
B1 O6 1.441341 1_655
B1 O9 1.503780 1_555
B1 O3 1.510808 1_555
B1 O4 1.510808 1_555
B2 O17 1.441341 1_455
B2 O14 1.503780 1_555
B2 O19 1.510808 1_555
B2 O20 1.510808 1_555
B3 O18 1.441341 1_555
B3 O21 1.503780 1_555
B3 O16 1.510808 1_555
B3 O15 1.510808 1_555
O0 V0 1.876221 1_555
O0 V9 1.876225 1_554
O0 V2 1.935870 1_455
O1 V0 1.876221 1_555
O1 V10 1.876225 1_554
O1 V1 1.935870 1_465
O2 V11 2.066517 1_554
O2 V2 2.070222 1_455
O2 V1 2.070222 1_455
O3 V1 2.035321 1_565
O3 V4 2.072504 1_555
O3 V0 2.123068 1_555
O4 V2 2.035321 1_555
O4 V3 2.072504 1_555
O4 V0 2.123068 1_555
O5 V5 2.111822 1_555
O5 V1 2.139723 1_555
O5 V2 2.139723 1_555
O6 V0 2.111822 1_555
O6 V3 2.139723 1_555
O6 V4 2.139723 1_555
O7 V4 2.035321 1_545
O7 V1 2.072504 1_455
O7 V5 2.123068 1_455
O8 V3 2.035321 1_555
O8 V2 2.072504 1_455
O8 V5 2.123068 1_455
O9 V6 2.066517 1_655
O9 V3 2.070222 1_555
O9 V4 2.070222 1_555
O10 V5 1.876221 1_555
O10 V7 1.876225 1_555
O10 V4 1.935870 1_545
O11 V5 1.876221 1_555
O11 V8 1.876225 1_555
O11 V3 1.935870 1_555
O12 V6 1.876221 1_555
O12 V3 1.876225 1_555
O12 V8 1.935870 1_555
O13 V6 1.876221 1_555
O13 V4 1.876225 1_555
O13 V7 1.935870 1_565
O14 V5 2.066517 1_455
O14 V8 2.070222 1_555
O14 V7 2.070222 1_555
O15 V8 2.035321 1_555
O15 V9 2.072504 1_655
O15 V6 2.123068 1_655
O16 V7 2.035321 1_565
O16 V10 2.072504 1_655
O16 V6 2.123068 1_655
O17 V11 2.111822 1_555
O17 V8 2.139723 1_555
O17 V7 2.139723 1_555
O18 V6 2.111822 1_555
O18 V9 2.139723 1_555
O18 V10 2.139723 1_555
O19 V10 2.035321 1_545
O19 V7 2.072504 1_555
O19 V11 2.123068 1_555
O20 V9 2.035321 1_555
O20 V8 2.072504 1_555
O20 V11 2.123068 1_555
O21 V0 2.066517 1_556
O21 V9 2.070222 1_655
O21 V10 2.070222 1_655
O22 V11 1.876221 1_555
O22 V1 1.876225 1_556
O22 V10 1.935870 1_645
O23 V11 1.876221 1_555
O23 V2 1.876225 1_556
O23 V9 1.935870 1_655
