# generated using pymatgen
data_Li4Nb3Cu3(SnO8)2
_symmetry_space_group_name_H-M   'P 1'
_cell_length_a   6.22416009
_cell_length_b   6.08652692
_cell_length_c   10.00304962
_cell_angle_alpha   90.00623387
_cell_angle_beta   87.37918360
_cell_angle_gamma   119.27639392
_symmetry_Int_Tables_number   1
_chemical_formula_structural   Li4Nb3Cu3(SnO8)2
_chemical_formula_sum   'Li4 Nb3 Cu3 Sn2 O16'
_cell_volume   330.09421373
_cell_formula_units_Z   1
loop_
 _symmetry_equiv_pos_site_id
 _symmetry_equiv_pos_as_xyz
  1  'x, y, z'
loop_
 _atom_site_type_symbol
 _atom_site_label
 _atom_site_symmetry_multiplicity
 _atom_site_fract_x
 _atom_site_fract_y
 _atom_site_fract_z
 _atom_site_occupancy
  Li  Li0  1  0.33949400  0.66979500  0.91328200  1
  Li  Li1  1  0.00351300  0.00186700  0.99754700  1
  Li  Li2  1  0.04594700  0.02287400  0.47831500  1
  Li  Li3  1  0.68632700  0.34319700  0.38709300  1
  Nb  Nb0  1  0.66050000  0.83025900  0.21936000  1
  Nb  Nb1  1  0.82029400  0.65812200  0.71295800  1
  Nb  Nb2  1  0.82016100  0.16232400  0.71273600  1
  Cu  Cu0  1  0.17100300  0.82879900  0.20849200  1
  Cu  Cu1  1  0.17106800  0.34224600  0.20851000  1
  Cu  Cu2  1  0.35327600  0.17647000  0.71758400  1
  Sn  Sn0  1  0.30350100  0.65174300  0.47784200  1
  Sn  Sn1  1  0.63475100  0.31731700  0.00063100  1
  O  O0  1  0.14269800  0.82148000  0.59614300  1
  O  O1  1  0.04493600  0.52249500  0.33347900  1
  O  O2  1  0.34731900  0.67373100  0.11161200  1
  O  O3  1  0.99864600  0.99927600  0.29547900  1
  O  O4  1  0.97951700  0.98985700  0.80846200  1
  O  O5  1  0.14270700  0.32122000  0.59617000  1
  O  O6  1  0.52068400  0.97529100  0.35806100  1
  O  O7  1  0.52045500  0.54518700  0.35797400  1
  O  O8  1  0.29805900  0.14901600  0.09469600  1
  O  O9  1  0.66606500  0.83303400  0.61012700  1
  O  O10  1  0.53730500  0.50049200  0.84665200  1
  O  O11  1  0.53738600  0.03680000  0.84667100  1
  O  O12  1  0.71100200  0.35556400  0.59697900  1
  O  O13  1  0.79376400  0.65525700  0.09455200  1
  O  O14  1  0.95581200  0.47797100  0.83179200  1
  O  O15  1  0.79381000  0.13861700  0.09464000  1
loop_
_geom_bond_atom_site_label_1
_geom_bond_atom_site_label_2
_geom_bond_distance
_geom_bond_site_symmetry_2
Li0 O2 1.986582 1_556
Li0 O11 2.045771 1_565
Li0 O10 2.046370 1_555
Li0 O14 2.276282 1_455
Li1 O4 1.902701 1_445
Li1 O8 1.914247 1_556
Li1 O15 2.070289 1_456
Li1 O13 2.070614 1_446
Li2 O3 1.860127 1_445
Li2 O0 2.010366 1_545
Li2 O5 2.011180 1_555
Li2 O9 2.389011 1_445
Li3 O6 1.982641 1_545
Li3 O7 1.982718 1_555
Li3 O1 1.992201 1_655
Li3 O12 2.110758 1_555
Nb0 O3 2.023977 1_555
Nb0 O6 2.025379 1_555
Nb0 O7 2.025758 1_555
Nb0 O15 2.037195 1_565
Nb0 O13 2.037233 1_555
Nb0 O2 2.060250 1_555
Nb1 O10 1.985818 1_555
Nb1 O12 2.011568 1_555
Nb1 O4 2.025021 1_555
Nb1 O9 2.050127 1_555
Nb1 O0 2.053100 1_655
Nb1 O14 2.079262 1_555
Nb2 O11 1.986406 1_555
Nb2 O12 2.009867 1_555
Nb2 O4 2.026821 1_545
Nb2 O9 2.049352 1_545
Nb2 O5 2.052439 1_655
Nb2 O14 2.080175 1_555
Cu0 O2 1.987424 1_555
Cu0 O3 1.996936 1_455
Cu0 O8 2.032353 1_565
Cu0 O1 2.033366 1_555
Cu0 O13 2.397211 1_455
Cu0 O6 2.483946 1_555
Cu1 O2 1.987979 1_555
Cu1 O3 1.997527 1_445
Cu1 O8 2.032418 1_555
Cu1 O1 2.033456 1_555
Cu1 O15 2.396896 1_455
Cu1 O7 2.481911 1_555
Cu2 O4 2.179643 1_445
Cu2 O11 2.188957 1_555
Cu2 O10 2.189436 1_555
Cu2 O12 2.232045 1_555
Cu2 O0 2.288511 1_545
Cu2 O5 2.289997 1_555
O0 Sn0 2.090963 1_555
O1 Sn0 2.065975 1_555
O5 Sn0 2.091108 1_555
O6 Sn0 2.095187 1_555
O7 Sn0 2.095259 1_555
O8 Sn1 2.011629 1_555
O9 Sn0 2.428668 1_555
O10 Sn1 2.174957 1_556
O11 Sn1 2.174166 1_556
O13 Sn1 2.046101 1_555
O14 Sn1 2.362725 1_556
O15 Sn1 2.045960 1_555
