# generated using pymatgen
data_Li5Si2NiO8
_symmetry_space_group_name_H-M   'P 1'
_cell_length_a   5.21021386
_cell_length_b   5.21021386
_cell_length_c   6.28610145
_cell_angle_alpha   89.81507951
_cell_angle_beta   89.81507951
_cell_angle_gamma   90.83815892
_symmetry_Int_Tables_number   1
_chemical_formula_structural   Li5Si2NiO8
_chemical_formula_sum   'Li5 Si2 Ni1 O8'
_cell_volume   170.62451250
_cell_formula_units_Z   1
loop_
 _symmetry_equiv_pos_site_id
 _symmetry_equiv_pos_as_xyz
  1  'x, y, z'
loop_
 _atom_site_type_symbol
 _atom_site_label
 _atom_site_symmetry_multiplicity
 _atom_site_fract_x
 _atom_site_fract_y
 _atom_site_fract_z
 _atom_site_occupancy
  Li  Li0  1  0.79959800  0.82487400  0.25839900  1
  Li  Li1  1  0.69219000  0.30781000  0.00000000  1
  Li  Li2  1  0.32982100  0.67017900  0.50000000  1
  Li  Li3  1  0.68318000  0.31682000  0.50000000  1
  Li  Li4  1  0.17512600  0.20040200  0.74160100  1
  Si  Si0  1  0.81621100  0.82998300  0.74582600  1
  Si  Si1  1  0.17001700  0.18378900  0.25417400  1
  Ni  Ni0  1  0.32063600  0.67936400  0.00000000  1
  O  O0  1  0.68209400  0.69934200  0.96578500  1
  O  O1  1  0.70225900  0.69561100  0.53465600  1
  O  O2  1  0.22592400  0.86324100  0.23664800  1
  O  O3  1  0.86078900  0.19965200  0.24900200  1
  O  O4  1  0.13675900  0.77407600  0.76335200  1
  O  O5  1  0.80034800  0.13921100  0.75099800  1
  O  O6  1  0.30065800  0.31790600  0.03421500  1
  O  O7  1  0.30438900  0.29774100  0.46534400  1
loop_
_geom_bond_atom_site_label_1
_geom_bond_atom_site_label_2
_geom_bond_distance
_geom_bond_site_symmetry_2
Li0 O1 1.924390 1_555
Li0 O3 1.974586 1_565
Li0 O0 2.046781 1_554
Li0 O2 2.231026 1_655
Li1 O5 1.885972 1_554
Li1 O3 1.885972 1_555
Li1 O6 2.052039 1_555
Li1 O0 2.052039 1_554
Li2 O7 1.955985 1_555
Li2 O1 1.955985 1_555
Li2 O4 2.014041 1_555
Li2 O2 2.014041 1_555
Li3 O5 1.931780 1_555
Li3 O3 1.931780 1_555
Li3 O7 1.987346 1_555
Li3 O1 1.987346 1_555
Li4 O7 1.924390 1_555
Li4 O5 1.974586 1_455
Li4 O6 2.046781 1_556
Li4 O4 2.231026 1_545
Ni0 O4 1.841895 1_554
Ni0 O2 1.841895 1_555
Ni0 O6 1.896132 1_555
Ni0 O0 1.896132 1_554
O0 Si0 1.684396 1_555
O1 Si0 1.613585 1_555
O2 Si1 1.703383 1_565
O3 Si1 1.614896 1_655
O4 Si0 1.703383 1_455
O5 Si0 1.614896 1_545
O6 Si1 1.684396 1_555
O7 Si1 1.613585 1_555
