# generated using pymatgen
data_Na6MgO4
_symmetry_space_group_name_H-M   'P 1'
_cell_length_a   7.52674301
_cell_length_b   7.52674218
_cell_length_c   5.81908731
_cell_angle_alpha   90.00003261
_cell_angle_beta   89.99998612
_cell_angle_gamma   120.00325766
_symmetry_Int_Tables_number   1
_chemical_formula_structural   Na6MgO4
_chemical_formula_sum   'Na12 Mg2 O8'
_cell_volume   285.48636831
_cell_formula_units_Z   2
loop_
 _symmetry_equiv_pos_site_id
 _symmetry_equiv_pos_as_xyz
  1  'x, y, z'
loop_
 _atom_site_type_symbol
 _atom_site_label
 _atom_site_symmetry_multiplicity
 _atom_site_fract_x
 _atom_site_fract_y
 _atom_site_fract_z
 _atom_site_occupancy
  Na  Na0  1  0.14081333  0.85918653  0.38683619  1
  Na  Na1  1  0.07447556  0.53725048  0.71256020  1
  Na  Na2  1  0.14081579  0.28164441  0.38684345  1
  Na  Na3  1  0.46274906  0.92552427  0.71256024  1
  Na  Na4  1  0.46277484  0.53722457  0.71255201  1
  Na  Na5  1  0.28164422  0.14081563  0.88684334  1
  Na  Na6  1  0.71835529  0.85918396  0.38684362  1
  Na  Na7  1  0.53722467  0.46277485  0.21255250  1
  Na  Na8  1  0.53725086  0.07447594  0.21256082  1
  Na  Na9  1  0.85918418  0.71835555  0.88684349  1
  Na  Na10  1  0.92552418  0.46274885  0.21256050  1
  Na  Na11  1  0.85918650  0.14081329  0.88683593  1
  Mg  Mg0  1  0.33333767  0.66666348  0.10838794  1
  Mg  Mg1  1  0.66666295  0.33333748  0.60838803  1
  O  O0  1  0.19012843  0.80987151  0.99690317  1
  O  O1  1  0.33333879  0.66666162  0.44347019  1
  O  O2  1  0.19012107  0.38024331  0.99689494  1
  O  O3  1  0.61975741  0.80987897  0.99689502  1
  O  O4  1  0.38024295  0.19012141  0.49689623  1
  O  O5  1  0.66666119  0.33333821  0.94347069  1
  O  O6  1  0.80987874  0.61975694  0.49689550  1
  O  O7  1  0.80987134  0.19012873  0.49690399  1
loop_
_geom_bond_atom_site_label_1
_geom_bond_atom_site_label_2
_geom_bond_distance
_geom_bond_site_symmetry_2
Na0 O6 2.317957 1_455
Na0 O4 2.317959 1_565
Na0 O0 2.358378 1_554
Na0 O1 2.531478 1_555
Na1 O1 2.301937 1_555
Na1 O0 2.433027 1_555
Na1 O2 2.433215 1_555
Na1 O7 2.676477 1_455
Na1 O6 2.676522 1_455
Na2 O7 2.318067 1_455
Na2 O4 2.318144 1_555
Na2 O2 2.358401 1_554
Na2 O1 2.531135 1_555
Na3 O1 2.301934 1_555
Na3 O0 2.433026 1_555
Na3 O3 2.433220 1_555
Na3 O7 2.676481 1_565
Na3 O4 2.676520 1_565
Na4 O1 2.302013 1_555
Na4 O2 2.433169 1_555
Na4 O3 2.433172 1_555
Na4 O4 2.676394 1_555
Na4 O6 2.676400 1_555
Na5 O0 2.318063 1_545
Na5 O2 2.318146 1_555
Na5 O4 2.358393 1_555
Na5 O5 2.531134 1_555
Na6 O7 2.318068 1_565
Na6 O6 2.318144 1_555
Na6 O3 2.358400 1_554
Na6 O1 2.531131 1_555
Na7 O5 2.302012 1_554
Na7 O6 2.433171 1_555
Na7 O4 2.433172 1_555
Na7 O2 2.676403 1_554
Na7 O3 2.676404 1_554
Na8 O5 2.301933 1_554
Na8 O7 2.433026 1_555
Na8 O4 2.433220 1_555
Na8 O0 2.676485 1_544
Na8 O3 2.676525 1_544
Na9 O0 2.318064 1_655
Na9 O3 2.318141 1_555
Na9 O6 2.358397 1_555
Na9 O5 2.531137 1_555
Na10 O5 2.301935 1_554
Na10 O7 2.433026 1_555
Na10 O6 2.433219 1_555
Na10 O0 2.676486 1_654
Na10 O2 2.676520 1_654
Na11 O3 2.317954 1_545
Na11 O2 2.317957 1_655
Na11 O7 2.358373 1_555
Na11 O5 2.531477 1_555
Mg0 O1 1.949873 1_555
Mg0 O3 1.976443 1_554
Mg0 O2 1.976445 1_554
Mg0 O0 1.976499 1_554
Mg1 O5 1.949875 1_555
Mg1 O6 1.976440 1_555
Mg1 O4 1.976442 1_555
Mg1 O7 1.976496 1_555
