# generated using pymatgen
data_Li4Nb2V3Fe3O16
_symmetry_space_group_name_H-M   'P 1'
_cell_length_a   5.94442676
_cell_length_b   5.86514027
_cell_length_c   9.77446438
_cell_angle_alpha   90.03074731
_cell_angle_beta   89.38452409
_cell_angle_gamma   119.52776813
_symmetry_Int_Tables_number   1
_chemical_formula_structural   Li4Nb2V3Fe3O16
_chemical_formula_sum   'Li4 Nb2 V3 Fe3 O16'
_cell_volume   296.50186355
_cell_formula_units_Z   1
loop_
 _symmetry_equiv_pos_site_id
 _symmetry_equiv_pos_as_xyz
  1  'x, y, z'
loop_
 _atom_site_type_symbol
 _atom_site_label
 _atom_site_symmetry_multiplicity
 _atom_site_fract_x
 _atom_site_fract_y
 _atom_site_fract_z
 _atom_site_occupancy
  Li  Li0  1  0.33896500  0.66945700  0.90038300  1
  Li  Li1  1  0.99778500  0.99889100  0.99002300  1
  Li  Li2  1  0.99599100  0.99799700  0.49098100  1
  Li  Li3  1  0.67260000  0.33628700  0.39947100  1
  Nb  Nb0  1  0.33534900  0.66754000  0.49523900  1
  Nb  Nb1  1  0.65971800  0.32984300  0.99792700  1
  V  V0  1  0.65438400  0.82720500  0.22235700  1
  V  V1  1  0.82588700  0.64638000  0.71762100  1
  V  V2  1  0.82562300  0.17941500  0.71755600  1
  Fe  Fe0  1  0.16352000  0.81574200  0.21476100  1
  Fe  Fe1  1  0.16363800  0.34782400  0.21479300  1
  Fe  Fe2  1  0.33674100  0.16828400  0.71484400  1
  O  O0  1  0.16210200  0.83122000  0.59398300  1
  O  O1  1  0.03863900  0.51937700  0.35035900  1
  O  O2  1  0.36853400  0.68430300  0.10664300  1
  O  O3  1  0.97777500  0.98894500  0.30181200  1
  O  O4  1  0.97733700  0.98858200  0.80180300  1
  O  O5  1  0.16180900  0.33108500  0.59395600  1
  O  O6  1  0.49042400  0.96676500  0.34428000  1
  O  O7  1  0.49065200  0.52385500  0.34426900  1
  O  O8  1  0.32863000  0.16439500  0.08864800  1
  O  O9  1  0.66480200  0.83255000  0.59826000  1
  O  O10  1  0.52691600  0.48688500  0.83988000  1
  O  O11  1  0.52716300  0.03989900  0.84009200  1
  O  O12  1  0.68479900  0.34251600  0.60197600  1
  O  O13  1  0.83032500  0.66602800  0.09169700  1
  O  O14  1  0.96965000  0.48465100  0.84247700  1
  O  O15  1  0.83023800  0.16437600  0.09174700  1
loop_
_geom_bond_atom_site_label_1
_geom_bond_atom_site_label_2
_geom_bond_distance
_geom_bond_site_symmetry_2
Li0 O10 1.977125 1_555
Li0 O11 1.977569 1_565
Li0 O14 1.998839 1_455
Li0 O2 2.023709 1_556
Li1 O4 1.844058 1_555
Li1 O15 1.962950 1_566
Li1 O13 1.963476 1_556
Li1 O8 1.974183 1_666
Li2 O3 1.852558 1_555
Li2 O0 1.979885 1_655
Li2 O5 1.980497 1_665
Li2 O9 1.997685 1_555
Li3 O1 1.947580 1_655
Li3 O7 1.963975 1_555
Li3 O6 1.964380 1_545
Li3 O12 1.981142 1_555
Nb0 O5 1.965566 1_555
Nb0 O0 1.966198 1_555
Nb0 O9 1.989748 1_555
Nb0 O1 2.100717 1_555
Nb0 O7 2.115723 1_555
Nb0 O6 2.117997 1_555
Nb1 O8 1.918962 1_556
Nb1 O15 1.949579 1_556
Nb1 O13 1.950237 1_556
Nb1 O11 2.143683 1_555
Nb1 O10 2.145346 1_555
Nb1 O14 2.195425 1_555
Fe0 O1 2.009629 1_555
Fe0 O3 2.014845 1_455
Fe0 O2 2.023323 1_555
Fe0 O13 2.115823 1_455
Fe0 O6 2.125686 1_555
Fe0 O8 2.159360 1_565
Fe1 O1 2.008664 1_555
Fe1 O3 2.015959 1_445
Fe1 O2 2.025078 1_555
Fe1 O15 2.116585 1_455
Fe1 O7 2.125925 1_555
Fe1 O8 2.156921 1_555
Fe2 O4 2.034736 1_445
Fe2 O10 2.051457 1_555
Fe2 O11 2.053771 1_555
Fe2 O0 2.093430 1_545
Fe2 O5 2.096570 1_555
Fe2 O12 2.100066 1_555
O0 V1 2.108078 1_455
O2 V0 1.872308 1_555
O3 V0 1.852656 1_555
O4 V1 1.936218 1_555
O4 V2 1.938066 1_565
O5 V2 2.107513 1_455
O6 V0 1.949498 1_555
O7 V0 1.950192 1_555
O9 V2 2.125273 1_565
O9 V1 2.127518 1_555
O10 V1 1.943832 1_555
O11 V2 1.943250 1_555
O12 V1 1.924127 1_555
O12 V2 1.924313 1_555
O13 V0 2.136140 1_555
O14 V2 1.984501 1_555
O14 V1 1.985485 1_555
O15 V0 2.137681 1_545
