# generated using pymatgen
data_La4CuO8
_symmetry_space_group_name_H-M   'P 1'
_cell_length_a   7.04572620
_cell_length_b   7.04572620
_cell_length_c   5.27671700
_cell_angle_alpha   90.00000000
_cell_angle_beta   90.00000000
_cell_angle_gamma   135.92232521
_symmetry_Int_Tables_number   1
_chemical_formula_structural   La4CuO8
_chemical_formula_sum   'La4 Cu1 O8'
_cell_volume   182.21975484
_cell_formula_units_Z   1
loop_
 _symmetry_equiv_pos_site_id
 _symmetry_equiv_pos_as_xyz
  1  'x, y, z'
loop_
 _atom_site_type_symbol
 _atom_site_label
 _atom_site_symmetry_multiplicity
 _atom_site_fract_x
 _atom_site_fract_y
 _atom_site_fract_z
 _atom_site_occupancy
  La  La0  1  0.86560300  0.13439700  0.00000000  1
  La  La1  1  0.13439700  0.86560300  0.00000000  1
  La  La2  1  0.36356100  0.63643900  0.50000000  1
  La  La3  1  0.63643900  0.36356100  0.50000000  1
  Cu  Cu0  1  0.50000000  0.50000000  0.00000000  1
  O  O0  1  0.31852700  0.68147300  0.00000000  1
  O  O1  1  0.68147300  0.31852700  0.00000000  1
  O  O2  1  0.25430800  0.25430800  0.75618300  1
  O  O3  1  0.74569200  0.74569200  0.75618300  1
  O  O4  1  0.81405500  0.18594500  0.50000000  1
  O  O5  1  0.18594500  0.81405500  0.50000000  1
  O  O6  1  0.25430800  0.25430800  0.24381700  1
  O  O7  1  0.74569200  0.74569200  0.24381700  1
loop_
_geom_bond_atom_site_label_1
_geom_bond_atom_site_label_2
_geom_bond_distance
_geom_bond_site_symmetry_2
La0 O1 2.405067 1_555
La0 O7 2.558328 1_545
La0 O6 2.558328 1_655
La0 O3 2.558328 1_544
La0 O2 2.558328 1_654
La0 O0 2.714368 1_655
La0 O0 2.714368 1_545
La0 O4 2.722918 1_555
La0 O4 2.722918 1_554
La1 O0 2.405067 1_555
La1 O3 2.558328 1_454
La1 O7 2.558328 1_455
La1 O6 2.558328 1_565
La1 O2 2.558328 1_564
La1 O1 2.714368 1_565
La1 O1 2.714368 1_455
La1 O5 2.722918 1_554
La1 O5 2.722918 1_555
La2 O5 2.319982 1_555
La2 O6 2.586718 1_555
La2 O7 2.586718 1_555
La2 O2 2.586718 1_555
La2 O3 2.586718 1_555
La2 O0 2.703136 1_555
La2 O0 2.703136 1_556
La2 O4 2.721734 1_455
La2 O4 2.721734 1_565
La3 O4 2.319982 1_555
La3 O6 2.586718 1_555
La3 O7 2.586718 1_555
La3 O2 2.586718 1_555
La3 O3 2.586718 1_555
La3 O1 2.703136 1_556
La3 O1 2.703136 1_555
La3 O5 2.721734 1_545
La3 O5 2.721734 1_655
Cu0 O2 1.828370 1_554
Cu0 O3 1.828370 1_554
Cu0 O6 1.828370 1_555
Cu0 O7 1.828370 1_555
Cu0 O1 2.370361 1_555
Cu0 O0 2.370361 1_555
