# generated using pymatgen
data_Mn3OF5
_symmetry_space_group_name_H-M   'P 1'
_cell_length_a   5.85634100
_cell_length_b   5.87383068
_cell_length_c   7.72521082
_cell_angle_alpha   72.31035232
_cell_angle_beta   72.11538212
_cell_angle_gamma   70.60481131
_symmetry_Int_Tables_number   1
_chemical_formula_structural   Mn3OF5
_chemical_formula_sum   'Mn6 O2 F10'
_cell_volume   232.43674175
_cell_formula_units_Z   2
loop_
 _symmetry_equiv_pos_site_id
 _symmetry_equiv_pos_as_xyz
  1  'x, y, z'
loop_
 _atom_site_type_symbol
 _atom_site_label
 _atom_site_symmetry_multiplicity
 _atom_site_fract_x
 _atom_site_fract_y
 _atom_site_fract_z
 _atom_site_occupancy
  Mn  Mn0  1  0.00000000  0.00000000  0.00000000  1
  Mn  Mn1  1  0.36903800  0.30418500  0.16159200  1
  Mn  Mn2  1  0.00000000  0.00000000  0.50000000  1
  Mn  Mn3  1  0.32734600  0.31885500  0.67499900  1
  Mn  Mn4  1  0.67265400  0.68114500  0.32500100  1
  Mn  Mn5  1  0.63096200  0.69581500  0.83840800  1
  O  O0  1  0.67068400  0.01702700  0.15789100  1
  O  O1  1  0.32931600  0.98297300  0.84210900  1
  F  F0  1  0.05844600  0.61918000  0.16182800  1
  F  F1  1  0.69862800  0.31845600  0.49206900  1
  F  F2  1  0.75890000  0.77230400  0.53940000  1
  F  F3  1  0.10746900  0.09365300  0.19942100  1
  F  F4  1  0.43280800  0.43382000  0.86600000  1
  F  F5  1  0.56719200  0.56618000  0.13400000  1
  F  F6  1  0.89253100  0.90634700  0.80057900  1
  F  F7  1  0.24110000  0.22769600  0.46060000  1
  F  F8  1  0.30137200  0.68154400  0.50793100  1
  F  F9  1  0.94155400  0.38082000  0.83817200  1
loop_
_geom_bond_atom_site_label_1
_geom_bond_atom_site_label_2
_geom_bond_distance
_geom_bond_site_symmetry_2
Mn0 O1 1.928319 1_544
Mn0 O0 1.928319 1_455
Mn1 O0 1.996449 1_555
Mn3 O1 2.001323 1_545
Mn4 O0 2.001323 1_565
Mn5 O1 1.996449 1_555
F0 Mn1 2.120535 1_555
F0 Mn0 2.176809 1_565
F0 Mn4 2.193044 1_455
F1 Mn2 2.102814 1_655
F1 Mn4 2.112291 1_555
F1 Mn3 2.199142 1_555
F2 Mn4 2.125437 1_555
F2 Mn2 2.148935 1_665
F2 Mn5 2.151454 1_555
F3 Mn0 2.100614 1_555
F3 Mn2 2.155605 1_555
F3 Mn1 2.173646 1_555
F4 Mn3 2.111138 1_555
F4 Mn1 2.131217 1_556
F4 Mn5 2.143635 1_555
F5 Mn4 2.111138 1_555
F5 Mn5 2.131217 1_554
F5 Mn1 2.143635 1_555
F6 Mn0 2.100614 1_666
F6 Mn2 2.155605 1_665
F6 Mn5 2.173646 1_555
F7 Mn3 2.125437 1_555
F7 Mn2 2.148935 1_555
F7 Mn1 2.151454 1_555
F8 Mn2 2.102814 1_565
F8 Mn3 2.112291 1_555
F8 Mn4 2.199142 1_555
F9 Mn5 2.120535 1_555
F9 Mn0 2.176809 1_656
F9 Mn3 2.193044 1_655
