# generated using pymatgen
data_Li3Fe10O7F9
_symmetry_space_group_name_H-M   'P 1'
_cell_length_a   6.10324000
_cell_length_b   6.20469491
_cell_length_c   10.61635109
_cell_angle_alpha   75.00401462
_cell_angle_beta   74.57448855
_cell_angle_gamma   61.71900948
_symmetry_Int_Tables_number   1
_chemical_formula_structural   Li3Fe10O7F9
_chemical_formula_sum   'Li3 Fe10 O7 F9'
_cell_volume   337.08878635
_cell_formula_units_Z   1
loop_
 _symmetry_equiv_pos_site_id
 _symmetry_equiv_pos_as_xyz
  1  'x, y, z'
loop_
 _atom_site_type_symbol
 _atom_site_label
 _atom_site_symmetry_multiplicity
 _atom_site_fract_x
 _atom_site_fract_y
 _atom_site_fract_z
 _atom_site_occupancy
  Li  Li0  1  0.21365400  0.12634200  0.43058300  1
  Li  Li1  1  0.79221600  0.86600500  0.57419000  1
  Li  Li2  1  0.00237900  0.99925800  0.99554700  1
  Fe  Fe0  1  0.25384800  0.72893200  0.24928200  1
  Fe  Fe1  1  0.26611400  0.75800600  0.75582800  1
  Fe  Fe2  1  0.25372400  0.24805400  0.75465900  1
  Fe  Fe3  1  0.49942000  0.52007900  0.98890100  1
  Fe  Fe4  1  0.75680900  0.73176400  0.25213200  1
  Fe  Fe5  1  0.73984200  0.25076800  0.25000300  1
  Fe  Fe6  1  0.49989100  0.50139500  0.50186200  1
  Fe  Fe7  1  0.48941500  0.99716200  0.98953700  1
  Fe  Fe8  1  0.99744800  0.50411300  0.99940800  1
  Fe  Fe9  1  0.74882600  0.27252400  0.74827900  1
  O  O0  1  0.41478400  0.80328600  0.36673600  1
  O  O1  1  0.36765000  0.37921700  0.88464000  1
  O  O2  1  0.10363700  0.65268200  0.12221000  1
  O  O3  1  0.35094000  0.88870700  0.88150100  1
  O  O4  1  0.88221500  0.35482200  0.88125500  1
  O  O5  1  0.63871600  0.60588700  0.12002400  1
  O  O6  1  0.59102000  0.19499400  0.63254100  1
  F  F0  1  0.10089800  0.12375700  0.12717000  1
  F  F1  1  0.12394400  0.65060700  0.63893900  1
  F  F2  1  0.12889100  0.11347900  0.62851200  1
  F  F3  1  0.39277400  0.34030000  0.36684200  1
  F  F4  1  0.62581600  0.64531200  0.62556500  1
  F  F5  1  0.62898400  0.11103000  0.11577500  1
  F  F6  1  0.87447000  0.89264500  0.36872500  1
  F  F7  1  0.88727400  0.35332700  0.36915900  1
  F  F8  1  0.87441100  0.88553700  0.88019100  1
loop_
_geom_bond_atom_site_label_1
_geom_bond_atom_site_label_2
_geom_bond_distance
_geom_bond_site_symmetry_2
Li0 O0 1.978144 1_545
Li1 O6 1.983161 1_565
Li2 O3 2.034427 1_555
Li2 O4 2.105276 1_465
Li2 O2 2.121486 1_556
Fe0 O0 2.027585 1_555
Fe0 O2 2.069646 1_555
Fe0 O5 2.260879 1_555
Fe1 O3 2.007724 1_555
Fe1 O1 2.277127 1_555
Fe2 O6 2.045946 1_555
Fe2 O1 2.162814 1_555
Fe2 O3 2.180446 1_545
Fe2 O4 2.191481 1_455
Fe3 O1 2.067866 1_555
Fe3 O5 2.094290 1_556
Fe3 O3 2.142114 1_555
Fe3 O4 2.175250 1_555
Fe3 O2 2.327125 1_556
Fe4 O0 2.021201 1_555
Fe4 O2 2.106373 1_655
Fe4 O5 2.175901 1_555
Fe5 O5 2.175086 1_555
Fe6 O6 1.972794 1_555
Fe6 O0 1.979955 1_555
Fe7 O3 1.984085 1_555
Fe7 O1 2.194682 1_565
Fe7 O5 2.340535 1_556
Fe8 O5 2.109257 1_556
Fe8 O1 2.134266 1_655
Fe8 O2 2.146388 1_656
Fe8 O4 2.148018 1_555
Fe9 O6 2.010776 1_555
Fe9 O4 2.072398 1_555
Fe9 O1 2.278402 1_555
F0 Li2 2.087242 1_544
F0 Fe5 2.129563 1_455
F0 Fe8 2.279257 1_454
F0 Fe7 2.315276 1_544
F0 Fe0 2.320918 1_545
F1 Li1 2.014606 1_455
F1 Fe1 2.070153 1_555
F1 Fe6 2.268833 1_555
F1 Fe2 2.330289 1_555
F2 Li0 2.015800 1_555
F2 Fe1 2.168418 1_545
F2 Fe2 2.189867 1_555
F2 Fe9 2.209621 1_455
F3 Li0 1.982978 1_555
F3 Fe5 2.044002 1_555
F3 Fe0 2.271400 1_555
F3 Fe6 2.310927 1_555
F4 Li1 1.959737 1_555
F4 Fe1 2.156778 1_555
F4 Fe6 2.215144 1_555
F4 Fe9 2.219539 1_555
F5 Fe7 2.165285 1_544
F5 Li2 2.171787 1_644
F5 Fe5 2.224490 1_555
F5 Fe4 2.310872 1_545
F5 Fe3 2.403501 1_554
F6 Li1 2.084916 1_555
F6 Fe5 2.138385 1_565
F6 Fe4 2.199044 1_555
F6 Fe0 2.208382 1_655
F7 Li0 1.983440 1_655
F7 Fe5 2.092730 1_555
F7 Fe4 2.221704 1_555
F7 Fe6 2.293098 1_555
F8 Li2 2.021355 1_655
F8 Fe7 2.184348 1_555
F8 Fe8 2.244579 1_555
F8 Fe1 2.270139 1_655
F8 Fe9 2.324010 1_565
