# generated using pymatgen
data_MnP2H4O5
_symmetry_space_group_name_H-M   'P 1'
_cell_length_a   7.37685700
_cell_length_b   8.08154900
_cell_length_c   10.07717987
_cell_angle_alpha   75.54100177
_cell_angle_beta   90.00000000
_cell_angle_gamma   90.00000000
_symmetry_Int_Tables_number   1
_chemical_formula_structural   MnP2H4O5
_chemical_formula_sum   'Mn4 P8 H16 O20'
_cell_volume   581.73719635
_cell_formula_units_Z   4
loop_
 _symmetry_equiv_pos_site_id
 _symmetry_equiv_pos_as_xyz
  1  'x, y, z'
loop_
 _atom_site_type_symbol
 _atom_site_label
 _atom_site_symmetry_multiplicity
 _atom_site_fract_x
 _atom_site_fract_y
 _atom_site_fract_z
 _atom_site_occupancy
  Mn  Mn0  1  0.53232500  0.79438500  0.59437200  1
  Mn  Mn1  1  0.03232500  0.20561500  0.90562800  1
  Mn  Mn2  1  0.46767500  0.20561500  0.40562800  1
  Mn  Mn3  1  0.96767500  0.79438500  0.09437200  1
  P  P0  1  0.67314000  0.96310300  0.84083200  1
  P  P1  1  0.17314000  0.03689700  0.65916800  1
  P  P2  1  0.32686000  0.03689700  0.15916800  1
  P  P3  1  0.82686000  0.96310300  0.34083200  1
  P  P4  1  0.88886400  0.53666400  0.69435500  1
  P  P5  1  0.38886400  0.46333600  0.80564500  1
  P  P6  1  0.11113600  0.46333600  0.30564500  1
  P  P7  1  0.61113600  0.53666400  0.19435500  1
  H  H0  1  0.54733700  0.85543800  0.92755000  1
  H  H1  1  0.04733700  0.14456200  0.57245000  1
  H  H2  1  0.45266300  0.14456200  0.07245000  1
  H  H3  1  0.95266300  0.85543800  0.42755000  1
  H  H4  1  0.59641600  0.12839700  0.80920000  1
  H  H5  1  0.09641600  0.87160300  0.69080000  1
  H  H6  1  0.40358400  0.87160300  0.19080000  1
  H  H7  1  0.90358400  0.12839700  0.30920000  1
  H  H8  1  0.05087600  0.60808800  0.62674100  1
  H  H9  1  0.55087600  0.39191200  0.87325900  1
  H  H10  1  0.94912400  0.39191200  0.37325900  1
  H  H11  1  0.44912400  0.60808800  0.12674100  1
  H  H12  1  0.88409800  0.59696300  0.81535900  1
  H  H13  1  0.38409800  0.40303700  0.68464100  1
  H  H14  1  0.11590200  0.40303700  0.18464100  1
  H  H15  1  0.61590200  0.59696300  0.31535900  1
  O  O0  1  0.84911500  0.97241400  0.92216000  1
  O  O1  1  0.34911500  0.02758600  0.57784000  1
  O  O2  1  0.15088500  0.02758600  0.07784000  1
  O  O3  1  0.65088500  0.97241400  0.42216000  1
  O  O4  1  0.69784100  0.90213700  0.71016300  1
  O  O5  1  0.19784100  0.09786300  0.78983700  1
  O  O6  1  0.30215900  0.09786300  0.28983700  1
  O  O7  1  0.80215900  0.90213700  0.21016300  1
  O  O8  1  0.72924200  0.60676800  0.59997500  1
  O  O9  1  0.22924200  0.39323200  0.90002500  1
  O  O10  1  0.27075800  0.39323200  0.40002500  1
  O  O11  1  0.77075800  0.60676800  0.09997500  1
  O  O12  1  0.90745600  0.34126200  0.73318500  1
  O  O13  1  0.40745600  0.65873800  0.76681500  1
  O  O14  1  0.09254400  0.65873800  0.26681500  1
  O  O15  1  0.59254400  0.34126200  0.23318500  1
  O  O16  1  0.38185700  0.71936900  0.48813000  1
  O  O17  1  0.88185700  0.28063100  0.01187000  1
  O  O18  1  0.61814300  0.28063100  0.51187000  1
  O  O19  1  0.11814300  0.71936900  0.98813000  1
loop_
_geom_bond_atom_site_label_1
_geom_bond_atom_site_label_2
_geom_bond_distance
_geom_bond_site_symmetry_2
Mn0 O16 1.752125 1_555
Mn0 O4 2.029298 1_555
Mn0 O13 2.029453 1_555
Mn0 O8 2.090344 1_555
Mn0 O3 2.144698 1_555
Mn0 O1 2.291150 1_565
Mn1 O17 1.752125 1_456
Mn1 O5 2.029298 1_555
Mn1 O12 2.029453 1_455
Mn1 O9 2.090344 1_555
Mn1 O2 2.144698 1_556
Mn1 O0 2.291150 1_445
Mn2 O18 1.752125 1_555
Mn2 O6 2.029298 1_555
Mn2 O15 2.029453 1_555
Mn2 O10 2.090344 1_555
Mn2 O1 2.144698 1_555
Mn2 O3 2.291150 1_545
Mn3 O19 1.752125 1_654
Mn3 O7 2.029298 1_555
Mn3 O14 2.029453 1_655
Mn3 O11 2.090344 1_555
Mn3 O0 2.144698 1_554
Mn3 O2 2.291150 1_665
H0 P0 1.415015 1_555
H1 P1 1.415015 1_555
H2 P2 1.415015 1_555
H3 P3 1.415015 1_555
H4 P0 1.412003 1_545
H5 P1 1.412003 1_565
H6 P2 1.412003 1_565
H7 P3 1.412003 1_545
H8 P4 1.424565 1_455
H9 P5 1.424565 1_555
H10 P6 1.424565 1_655
H11 P7 1.424565 1_555
H12 P4 1.422086 1_555
H13 P5 1.422086 1_555
H14 P6 1.422086 1_555
H15 P7 1.422086 1_555
O0 P0 1.547031 1_555
O1 P1 1.547031 1_555
O2 P2 1.547031 1_555
O3 P3 1.547031 1_555
O4 P0 1.527689 1_555
O5 P1 1.527689 1_555
O6 P2 1.527689 1_555
O7 P3 1.527689 1_555
O8 P4 1.530681 1_555
O9 P5 1.530681 1_555
O10 P6 1.530681 1_555
O11 P7 1.530681 1_555
O12 P4 1.535275 1_555
O13 P5 1.535275 1_555
O14 P6 1.535275 1_555
O15 P7 1.535275 1_555
