# generated using pymatgen
data_Mn2P2O7F2
_symmetry_space_group_name_H-M   'P 1'
_cell_length_a   6.75384800
_cell_length_b   10.02321700
_cell_length_c   11.12071800
_cell_angle_alpha   90.00000000
_cell_angle_beta   90.00000000
_cell_angle_gamma   90.00000000
_symmetry_Int_Tables_number   1
_chemical_formula_structural   Mn2P2O7F2
_chemical_formula_sum   'Mn8 P8 O28 F8'
_cell_volume   752.82016428
_cell_formula_units_Z   4
loop_
 _symmetry_equiv_pos_site_id
 _symmetry_equiv_pos_as_xyz
  1  'x, y, z'
loop_
 _atom_site_type_symbol
 _atom_site_label
 _atom_site_symmetry_multiplicity
 _atom_site_fract_x
 _atom_site_fract_y
 _atom_site_fract_z
 _atom_site_occupancy
  Mn  Mn0  1  0.00000000  0.00000000  0.00000000  1
  Mn  Mn1  1  0.00000000  0.50000000  0.00000000  1
  Mn  Mn2  1  0.00000000  0.25000000  0.82555400  1
  Mn  Mn3  1  0.50000000  0.75000000  0.67444600  1
  Mn  Mn4  1  0.50000000  0.50000000  0.50000000  1
  Mn  Mn5  1  0.50000000  0.00000000  0.50000000  1
  Mn  Mn6  1  0.50000000  0.25000000  0.32555400  1
  Mn  Mn7  1  0.00000000  0.75000000  0.17444600  1
  P  P0  1  0.28341700  0.74633400  0.92504800  1
  P  P1  1  0.71658300  0.75366600  0.92504800  1
  P  P2  1  0.21658300  0.24633400  0.57495200  1
  P  P3  1  0.78341700  0.25366600  0.57495200  1
  P  P4  1  0.21658300  0.74633400  0.42504800  1
  P  P5  1  0.78341700  0.75366600  0.42504800  1
  P  P6  1  0.28341700  0.24633400  0.07495200  1
  P  P7  1  0.71658300  0.25366600  0.07495200  1
  O  O0  1  0.16054500  0.33176400  0.98466100  1
  O  O1  1  0.83945500  0.16823600  0.98466100  1
  O  O2  1  0.50000000  0.75000000  0.98638700  1
  O  O3  1  0.20980900  0.60165200  0.92423500  1
  O  O4  1  0.79019100  0.89834800  0.92423500  1
  O  O5  1  0.29709400  0.80670900  0.80066900  1
  O  O6  1  0.70290600  0.69329100  0.80066900  1
  O  O7  1  0.20290600  0.30670900  0.69933100  1
  O  O8  1  0.79709400  0.19329100  0.69933100  1
  O  O9  1  0.29019100  0.10165200  0.57576500  1
  O  O10  1  0.70980900  0.39834800  0.57576500  1
  O  O11  1  0.00000000  0.25000000  0.51361300  1
  O  O12  1  0.66054500  0.66823600  0.51533900  1
  O  O13  1  0.33945500  0.83176400  0.51533900  1
  O  O14  1  0.33945500  0.33176400  0.48466100  1
  O  O15  1  0.66054500  0.16823600  0.48466100  1
  O  O16  1  0.00000000  0.75000000  0.48638700  1
  O  O17  1  0.29019100  0.60165200  0.42423500  1
  O  O18  1  0.70980900  0.89834800  0.42423500  1
  O  O19  1  0.79709400  0.69329100  0.30066900  1
  O  O20  1  0.20290600  0.80670900  0.30066900  1
  O  O21  1  0.29709400  0.30670900  0.19933100  1
  O  O22  1  0.70290600  0.19329100  0.19933100  1
  O  O23  1  0.20980900  0.10165200  0.07576500  1
  O  O24  1  0.79019100  0.39834800  0.07576500  1
  O  O25  1  0.50000000  0.25000000  0.01361300  1
  O  O26  1  0.16054500  0.83176400  0.01533900  1
  O  O27  1  0.83945500  0.66823600  0.01533900  1
  F  F0  1  0.10966100  0.08070200  0.83572500  1
  F  F1  1  0.89033900  0.41929800  0.83572500  1
  F  F2  1  0.39033900  0.58070200  0.66427500  1
  F  F3  1  0.60966100  0.91929800  0.66427500  1
  F  F4  1  0.39033900  0.08070200  0.33572500  1
  F  F5  1  0.60966100  0.41929800  0.33572500  1
  F  F6  1  0.10966100  0.58070200  0.16427500  1
  F  F7  1  0.89033900  0.91929800  0.16427500  1
loop_
_geom_bond_atom_site_label_1
_geom_bond_atom_site_label_2
_geom_bond_distance
_geom_bond_site_symmetry_2
Mn0 O23 1.938032 1_555
Mn0 O4 1.938032 1_444
Mn0 O26 2.012036 1_545
Mn0 O1 2.012036 1_454
Mn1 O24 1.938032 1_455
Mn1 O3 1.938032 1_554
Mn1 O27 2.012036 1_455
Mn1 O0 2.012036 1_554
Mn2 O7 2.042405 1_555
Mn2 O8 2.042405 1_455
Mn2 O0 2.231157 1_555
Mn2 O1 2.231157 1_455
Mn3 O6 2.042405 1_555
Mn3 O5 2.042405 1_555
Mn3 O13 2.231157 1_555
Mn3 O12 2.231157 1_555
Mn4 O10 1.938032 1_555
Mn4 O17 1.938032 1_555
Mn4 O12 2.012036 1_555
Mn4 O14 2.012036 1_555
Mn5 O9 1.938032 1_555
Mn5 O18 1.938032 1_545
Mn5 O15 2.012036 1_555
Mn5 O13 2.012036 1_545
Mn6 O22 2.042405 1_555
Mn6 O21 2.042405 1_555
Mn6 O15 2.231157 1_555
Mn6 O14 2.231157 1_555
Mn7 O19 2.042405 1_455
Mn7 O20 2.042405 1_555
Mn7 O26 2.231157 1_555
Mn7 O27 2.231157 1_455
O0 P6 1.558879 1_556
O1 P7 1.558879 1_556
O2 P1 1.614419 1_555
O2 P0 1.614419 1_555
O3 P0 1.533051 1_555
O4 P1 1.533051 1_555
O5 P0 1.512593 1_555
O6 P1 1.512593 1_555
O7 P2 1.512593 1_555
O8 P3 1.512593 1_555
O9 P2 1.533051 1_555
O10 P3 1.533051 1_555
O11 P2 1.614419 1_555
O11 P3 1.614419 1_455
O12 P5 1.558879 1_555
O13 P4 1.558879 1_555
O14 P2 1.558879 1_555
O15 P3 1.558879 1_555
O16 P4 1.614419 1_555
O16 P5 1.614419 1_455
O17 P4 1.533051 1_555
O18 P5 1.533051 1_555
O19 P5 1.512593 1_555
O20 P4 1.512593 1_555
O21 P6 1.512593 1_555
O22 P7 1.512593 1_555
O23 P6 1.533051 1_555
O24 P7 1.533051 1_555
O25 P7 1.614419 1_555
O25 P6 1.614419 1_555
O26 P0 1.558879 1_554
O27 P1 1.558879 1_554
F0 Mn2 1.854949 1_555
F0 Mn0 2.130786 1_556
F1 Mn2 1.854949 1_655
F1 Mn1 2.130786 1_656
F2 Mn3 1.854949 1_555
F2 Mn4 2.130786 1_555
F3 Mn3 1.854949 1_555
F3 Mn5 2.130786 1_565
F4 Mn6 1.854949 1_555
F4 Mn5 2.130786 1_555
F5 Mn6 1.854949 1_555
F5 Mn4 2.130786 1_555
F6 Mn7 1.854949 1_555
F6 Mn1 2.130786 1_555
F7 Mn7 1.854949 1_655
F7 Mn0 2.130786 1_665
