# generated using pymatgen
data_Co3C9SeO9
_symmetry_space_group_name_H-M   'P 1'
_cell_length_a   8.07571100
_cell_length_b   8.81973171
_cell_length_c   11.57392297
_cell_angle_alpha   86.79875033
_cell_angle_beta   100.35314186
_cell_angle_gamma   111.42723279
_symmetry_Int_Tables_number   1
_chemical_formula_structural   Co3C9SeO9
_chemical_formula_sum   'Co6 C18 Se2 O18'
_cell_volume   754.84456902
_cell_formula_units_Z   2
loop_
 _symmetry_equiv_pos_site_id
 _symmetry_equiv_pos_as_xyz
  1  'x, y, z'
loop_
 _atom_site_type_symbol
 _atom_site_label
 _atom_site_symmetry_multiplicity
 _atom_site_fract_x
 _atom_site_fract_y
 _atom_site_fract_z
 _atom_site_occupancy
  Co  Co0  1  0.95569700  0.72869000  0.69163900  1
  Co  Co1  1  0.04430300  0.27131000  0.30836100  1
  Co  Co2  1  0.85221300  0.93757200  0.79009600  1
  Co  Co3  1  0.14778700  0.06242800  0.20990400  1
  Co  Co4  1  0.63581000  0.62255600  0.76479300  1
  Co  Co5  1  0.36419000  0.37744400  0.23520700  1
  C  C0  1  0.87120800  0.76659700  0.54557800  1
  C  C1  1  0.12879200  0.23340300  0.45442200  1
  C  C2  1  0.50793500  0.64192400  0.62761200  1
  C  C3  1  0.49206500  0.35807600  0.37238800  1
  C  C4  1  0.75526300  0.00134400  0.65501600  1
  C  C5  1  0.24473700  0.99865600  0.34498400  1
  C  C6  1  0.18799700  0.85748500  0.70702200  1
  C  C7  1  0.81200300  0.14251500  0.29297800  1
  C  C8  1  0.96985800  0.53513300  0.67315500  1
  C  C9  1  0.03014200  0.46486700  0.32684500  1
  C  C10  1  0.60895900  0.41204300  0.76019100  1
  C  C11  1  0.39104100  0.58795700  0.23980900  1
  C  C12  1  0.48760600  0.62545500  0.86169100  1
  C  C13  1  0.51239400  0.37454500  0.13830900  1
  C  C14  1  0.73615900  0.98825600  0.89081600  1
  C  C15  1  0.26384100  0.01174400  0.10918400  1
  C  C16  1  0.06820700  0.09841300  0.81707400  1
  C  C17  1  0.93179300  0.90158700  0.18292600  1
  Se  Se0  1  0.91310500  0.72145700  0.88292600  1
  Se  Se1  1  0.08689500  0.27854300  0.11707400  1
  O  O0  1  0.81908400  0.78959900  0.44838700  1
  O  O1  1  0.18091600  0.21040100  0.55161300  1
  O  O2  1  0.41635100  0.64668500  0.53874400  1
  O  O3  1  0.58364900  0.35331500  0.46125600  1
  O  O4  1  0.69683600  0.04873700  0.56759400  1
  O  O5  1  0.30316400  0.95126300  0.43240600  1
  O  O6  1  0.34113700  0.93257900  0.71573600  1
  O  O7  1  0.65886300  0.06742100  0.28426400  1
  O  O8  1  0.99019400  0.41419000  0.65946800  1
  O  O9  1  0.00980600  0.58581000  0.34053200  1
  O  O10  1  0.59288900  0.27624600  0.75871700  1
  O  O11  1  0.40711100  0.72375400  0.24128300  1
  O  O12  1  0.38760500  0.62031000  0.92371600  1
  O  O13  1  0.61239500  0.37969000  0.07628400  1
  O  O14  1  0.66588600  0.02616500  0.95698700  1
  O  O15  1  0.33411400  0.97383500  0.04301300  1
  O  O16  1  0.20456800  0.20716600  0.83692400  1
  O  O17  1  0.79543200  0.79283400  0.16307600  1
loop_
_geom_bond_atom_site_label_1
_geom_bond_atom_site_label_2
_geom_bond_distance
_geom_bond_site_symmetry_2
Co0 Se0 2.294737 1_555
Co1 Se1 2.294737 1_555
Co2 Se0 2.301196 1_555
Co3 Se1 2.301196 1_555
Co4 Se0 2.291398 1_555
Co5 Se1 2.291398 1_555
C0 O0 1.162075 1_555
C0 Co0 1.767505 1_555
C1 O1 1.162075 1_555
C1 Co1 1.767505 1_555
C2 O2 1.162385 1_555
C2 Co4 1.767977 1_555
C3 O3 1.162385 1_555
C3 Co5 1.767977 1_555
C4 O4 1.160340 1_555
C4 Co2 1.776840 1_545
C5 O5 1.160340 1_555
C5 Co3 1.776840 1_565
C6 O6 1.158646 1_555
C6 Co0 1.785196 1_455
C7 O7 1.158646 1_555
C7 Co1 1.785196 1_655
C8 O8 1.160214 1_555
C8 Co0 1.779137 1_555
C9 O9 1.160214 1_555
C9 Co1 1.779137 1_555
C10 O10 1.157378 1_555
C10 Co4 1.791595 1_555
C11 O11 1.157378 1_555
C11 Co5 1.791595 1_555
C12 O12 1.160839 1_555
C12 Co4 1.788535 1_555
C13 O13 1.160839 1_555
C13 Co5 1.788535 1_555
C14 O14 1.159241 1_565
C14 Co2 1.787209 1_555
C15 O15 1.159241 1_545
C15 Co3 1.787209 1_555
C16 O16 1.160776 1_555
C16 Co2 1.788364 1_445
C17 O17 1.160776 1_555
C17 Co3 1.788364 1_665
