# generated using pymatgen
data_Na6CoO4
_symmetry_space_group_name_H-M   'P 1'
_cell_length_a   5.89483700
_cell_length_b   7.65694200
_cell_length_c   13.26253000
_cell_angle_alpha   90.00236601
_cell_angle_beta   89.99954208
_cell_angle_gamma   90.00027077
_symmetry_Int_Tables_number   1
_chemical_formula_structural   Na6CoO4
_chemical_formula_sum   'Na24 Co4 O16'
_cell_volume   598.62319050
_cell_formula_units_Z   4
loop_
 _symmetry_equiv_pos_site_id
 _symmetry_equiv_pos_as_xyz
  1  'x, y, z'
loop_
 _atom_site_type_symbol
 _atom_site_label
 _atom_site_symmetry_multiplicity
 _atom_site_fract_x
 _atom_site_fract_y
 _atom_site_fract_z
 _atom_site_occupancy
  Na  Na0  1  0.53640500  0.71361200  0.42879900  1
  Na  Na1  1  0.53640500  0.21361200  0.92879900  1
  Na  Na2  1  0.53640600  0.99999300  0.14241200  1
  Na  Na3  1  0.53640600  0.49999300  0.64241200  1
  Na  Na4  1  0.03640300  0.21361800  0.07121300  1
  Na  Na5  1  0.03640300  0.71361800  0.57121300  1
  Na  Na6  1  0.53640300  0.28637100  0.42879800  1
  Na  Na7  1  0.53640300  0.78637100  0.92879800  1
  Na  Na8  1  0.03640500  0.49999500  0.35759400  1
  Na  Na9  1  0.03640500  0.99999500  0.85759400  1
  Na  Na10  1  0.03640600  0.78638600  0.07120900  1
  Na  Na11  1  0.03640600  0.28638600  0.57120900  1
  Na  Na12  1  0.86816800  0.80583200  0.26861800  1
  Na  Na13  1  0.86816800  0.30583200  0.76861800  1
  Na  Na14  1  0.86814700  0.99999600  0.46277700  1
  Na  Na15  1  0.86814700  0.49999600  0.96277700  1
  Na  Na16  1  0.86814600  0.19415200  0.26861800  1
  Na  Na17  1  0.86814600  0.69415200  0.76861800  1
  Na  Na18  1  0.36814700  0.30583600  0.23139100  1
  Na  Na19  1  0.36814700  0.80583600  0.73139100  1
  Na  Na20  1  0.36814600  0.49999800  0.03723300  1
  Na  Na21  1  0.36814600  0.99999800  0.53723300  1
  Na  Na22  1  0.36816800  0.69415700  0.23139300  1
  Na  Na23  1  0.36816800  0.19415700  0.73139300  1
  Co  Co0  1  0.25829000  0.49999800  0.83333800  1
  Co  Co1  1  0.75829000  0.49999400  0.16667000  1
  Co  Co2  1  0.25829000  0.99999800  0.33333800  1
  Co  Co3  1  0.75829000  0.99999400  0.66667000  1
  O  O0  1  0.59528300  0.99996900  0.33333500  1
  O  O1  1  0.59528300  0.49996900  0.83333500  1
  O  O2  1  0.09528300  0.50001200  0.16668300  1
  O  O3  1  0.09528300  0.00001200  0.66668300  1
  O  O4  1  0.14555400  0.78409600  0.40531400  1
  O  O5  1  0.14555400  0.28409600  0.90531400  1
  O  O6  1  0.14556900  0.00001000  0.18939700  1
  O  O7  1  0.14556900  0.50001000  0.68939700  1
  O  O8  1  0.14553900  0.21590200  0.40530500  1
  O  O9  1  0.14553900  0.71590200  0.90530500  1
  O  O10  1  0.64553900  0.28409200  0.09470100  1
  O  O11  1  0.64553900  0.78409200  0.59470100  1
  O  O12  1  0.64555400  0.49998100  0.31060900  1
  O  O13  1  0.64555400  0.99998100  0.81060900  1
  O  O14  1  0.64556900  0.71589900  0.09469400  1
  O  O15  1  0.64556900  0.21589900  0.59469400  1
loop_
_geom_bond_atom_site_label_1
_geom_bond_atom_site_label_2
_geom_bond_distance
_geom_bond_site_symmetry_2
Na0 O11 2.355050 1_555
Na0 O12 2.355107 1_555
Na0 O4 2.386786 1_555
Na0 O0 2.555631 1_555
Na1 O10 2.355050 1_556
Na1 O13 2.355107 1_545
Na1 O5 2.386786 1_555
Na1 O1 2.555631 1_555
Na2 O14 2.355077 1_555
Na2 O10 2.355082 1_565
Na2 O6 2.386699 1_565
Na2 O0 2.555800 1_555
Na3 O15 2.355077 1_555
Na3 O11 2.355082 1_555
Na3 O7 2.386699 1_555
Na3 O1 2.555800 1_555
Na4 O6 2.355056 1_555
Na4 O5 2.355068 1_554
Na4 O10 2.386837 1_455
Na4 O2 2.555828 1_555
Na5 O7 2.355056 1_555
Na5 O4 2.355068 1_555
Na5 O11 2.386837 1_455
Na5 O3 2.555828 1_565
Na6 O15 2.355056 1_555
Na6 O12 2.355075 1_555
Na6 O8 2.386837 1_555
Na6 O0 2.555835 1_545
Na7 O14 2.355056 1_556
Na7 O13 2.355075 1_555
Na7 O9 2.386837 1_555
Na7 O1 2.555835 1_555
Na8 O8 2.355049 1_555
Na8 O4 2.355108 1_555
Na8 O12 2.386788 1_455
Na8 O2 2.555638 1_555
Na9 O9 2.355049 1_555
Na9 O5 2.355108 1_565
Na9 O13 2.386788 1_455
Na9 O3 2.555638 1_565
Na10 O9 2.355072 1_554
Na10 O6 2.355077 1_565
Na10 O14 2.386702 1_455
Na10 O2 2.555813 1_555
Na11 O8 2.355072 1_555
Na11 O7 2.355077 1_555
Na11 O15 2.386702 1_455
Na11 O3 2.555813 1_555
Na12 O0 2.352424 1_555
Na12 O4 2.447081 1_655
Na12 O6 2.447158 1_665
Na12 O14 2.741653 1_555
Na12 O12 2.741658 1_555
Na13 O1 2.352424 1_555
Na13 O5 2.447081 1_655
Na13 O7 2.447158 1_655
Na13 O15 2.741653 1_555
Na13 O13 2.741658 1_545
Na14 O0 2.352538 1_555
Na14 O4 2.446970 1_655
Na14 O8 2.447011 1_665
Na14 O15 2.741371 1_565
Na14 O11 2.741599 1_555
Na15 O1 2.352538 1_555
Na15 O5 2.446970 1_655
Na15 O9 2.447011 1_655
Na15 O14 2.741371 1_556
Na15 O10 2.741599 1_556
Na16 O0 2.352593 1_545
Na16 O8 2.447016 1_655
Na16 O6 2.447033 1_655
Na16 O12 2.741424 1_555
Na16 O10 2.741662 1_555
Na17 O1 2.352593 1_555
Na17 O9 2.447016 1_655
Na17 O7 2.447033 1_655
Na17 O13 2.741424 1_555
Na17 O11 2.741662 1_555
Na18 O2 2.352538 1_555
Na18 O12 2.446969 1_555
Na18 O10 2.447021 1_555
Na18 O6 2.741366 1_555
Na18 O8 2.741599 1_555
Na19 O3 2.352538 1_565
Na19 O13 2.446969 1_555
Na19 O11 2.447021 1_555
Na19 O7 2.741366 1_555
Na19 O9 2.741599 1_555
Na20 O2 2.352593 1_555
Na20 O10 2.447017 1_555
Na20 O14 2.447027 1_555
Na20 O5 2.741428 1_554
Na20 O9 2.741651 1_554
Na21 O3 2.352593 1_565
Na21 O11 2.447017 1_555
Na21 O15 2.447027 1_565
Na21 O4 2.741428 1_555
Na21 O8 2.741651 1_565
Na22 O2 2.352428 1_555
Na22 O12 2.447081 1_555
Na22 O14 2.447153 1_555
Na22 O6 2.741658 1_565
Na22 O4 2.741659 1_555
Na23 O3 2.352428 1_555
Na23 O13 2.447081 1_545
Na23 O15 2.447153 1_555
Na23 O7 2.741658 1_555
Na23 O5 2.741659 1_555
Co0 O1 1.986519 1_555
Co0 O9 2.021282 1_555
Co0 O5 2.021357 1_555
Co0 O7 2.021363 1_555
Co1 O2 1.986519 1_655
Co1 O10 2.021282 1_555
Co1 O14 2.021356 1_555
Co1 O12 2.021357 1_555
Co2 O0 1.986519 1_555
Co2 O8 2.021282 1_565
Co2 O4 2.021357 1_555
Co2 O6 2.021363 1_565
Co3 O3 1.986519 1_665
Co3 O11 2.021282 1_555
Co3 O15 2.021356 1_565
Co3 O13 2.021357 1_555
