# generated using pymatgen
data_Mg3Fe2O5
_symmetry_space_group_name_H-M   'P 1'
_cell_length_a   5.20878288
_cell_length_b   4.21526617
_cell_length_c   5.19892048
_cell_angle_alpha   66.06659661
_cell_angle_beta   79.64717701
_cell_angle_gamma   66.13597807
_symmetry_Int_Tables_number   1
_chemical_formula_structural   Mg3Fe2O5
_chemical_formula_sum   'Mg3 Fe2 O5'
_cell_volume   95.39839544
_cell_formula_units_Z   1
loop_
 _symmetry_equiv_pos_site_id
 _symmetry_equiv_pos_as_xyz
  1  'x, y, z'
loop_
 _atom_site_type_symbol
 _atom_site_label
 _atom_site_symmetry_multiplicity
 _atom_site_fract_x
 _atom_site_fract_y
 _atom_site_fract_z
 _atom_site_occupancy
  Mg  Mg0  1  0.99597571  0.00168179  0.99857599  1
  Mg  Mg1  1  0.80365319  0.79509370  0.60221809  1
  Mg  Mg2  1  0.60036711  0.59571543  0.20734446  1
  Fe  Fe0  1  0.20900486  0.19822611  0.39202471  1
  Fe  Fe1  1  0.38929622  0.40484398  0.79876800  1
  O  O0  1  0.19455644  0.70925378  0.38413094  1
  O  O1  1  0.98126486  0.51256230  0.99118839  1
  O  O2  1  0.40449974  0.88929328  0.81441718  1
  O  O3  1  0.80842357  0.29576199  0.59704077  1
  O  O4  1  0.60789630  0.08725264  0.21527845  1
loop_
_geom_bond_atom_site_label_1
_geom_bond_atom_site_label_2
_geom_bond_distance
_geom_bond_site_symmetry_2
Mg0 O0 2.077520 1_646
Mg0 O4 2.099223 1_556
Mg0 O1 2.108395 1_555
Mg0 O1 2.109828 1_545
Mg0 O2 2.118772 1_645
Mg0 O3 2.121892 1_555
Mg1 O1 2.047078 1_555
Mg1 O4 2.077088 1_565
Mg1 O3 2.105944 1_555
Mg1 O3 2.109844 1_565
Mg1 O0 2.114066 1_655
Mg1 O2 2.135519 1_555
Mg2 O1 2.068233 1_554
Mg2 O0 2.093306 1_555
Mg2 O2 2.102796 1_554
Mg2 O4 2.105215 1_565
Mg2 O4 2.111360 1_555
Mg2 O3 2.116565 1_555
Fe0 O4 2.063080 1_555
Fe0 O0 2.108502 1_555
Fe0 O0 2.109724 1_545
Fe0 O3 2.126227 1_455
Fe0 O1 2.209512 1_454
Fe0 O2 2.228370 1_545
Fe1 O2 2.109729 1_555
Fe1 O2 2.110741 1_545
Fe1 O1 2.132497 1_455
Fe1 O0 2.193359 1_555
Fe1 O3 2.198532 1_555
Fe1 O4 2.253544 1_556
