# generated using pymatgen
data_Li3AlNiO4
_symmetry_space_group_name_H-M   'P 1'
_cell_length_a   9.99287919
_cell_length_b   9.99287919
_cell_length_c   9.99287919
_cell_angle_alpha   118.87515645
_cell_angle_beta   118.87515645
_cell_angle_gamma   91.95958427
_symmetry_Int_Tables_number   1
_chemical_formula_structural   Li3AlNiO4
_chemical_formula_sum   'Li24 Al8 Ni8 O32'
_cell_volume   717.14005394
_cell_formula_units_Z   8
loop_
 _symmetry_equiv_pos_site_id
 _symmetry_equiv_pos_as_xyz
  1  'x, y, z'
loop_
 _atom_site_type_symbol
 _atom_site_label
 _atom_site_symmetry_multiplicity
 _atom_site_fract_x
 _atom_site_fract_y
 _atom_site_fract_z
 _atom_site_occupancy
  Li  Li0  1  0.93796600  0.11025400  0.16500100  1
  Li  Li1  1  0.81203400  0.13974600  0.33499900  1
  Li  Li2  1  0.88974600  0.05474700  0.82771300  1
  Li  Li3  1  0.52296600  0.18796600  0.32771300  1
  Li  Li4  1  0.44382800  0.28639100  0.12756200  1
  Li  Li5  1  0.71763900  0.55470300  0.13048700  1
  Li  Li6  1  0.86025400  0.19525300  0.67228700  1
  Li  Li7  1  0.22703400  0.06203400  0.17228700  1
  Li  Li8  1  0.71360900  0.84117000  0.15743600  1
  Li  Li9  1  0.44529700  0.57578400  0.16293600  1
  Li  Li10  1  0.80474700  0.47703400  0.66500100  1
  Li  Li11  1  0.94525300  0.77296600  0.83499900  1
  Li  Li12  1  0.41284800  0.28236100  0.83706400  1
  Li  Li13  1  0.30470300  0.67421600  0.33706400  1
  Li  Li14  1  0.03639100  0.40883000  0.34256400  1
  Li  Li15  1  0.68373400  0.55617200  0.84256400  1
  Li  Li16  1  0.03236100  0.69529700  0.36951300  1
  Li  Li17  1  0.42421600  0.58715200  0.86951300  1
  Li  Li18  1  0.59117000  0.93373400  0.62756200  1
  Li  Li19  1  0.15883000  0.31626600  0.87243800  1
  Li  Li20  1  0.30617200  0.96360900  0.37243800  1
  Li  Li21  1  0.32578400  0.66284800  0.63048700  1
  Li  Li22  1  0.06626600  0.69382800  0.65743600  1
  Li  Li23  1  0.33715200  0.96763900  0.66293600  1
  Al  Al0  1  0.74786100  0.42416000  0.30996100  1
  Al  Al1  1  0.56210000  0.25213900  0.67629900  1
  Al  Al2  1  0.17416000  0.36419900  0.17629900  1
  Al  Al3  1  0.57584000  0.88580100  0.32370100  1
  Al  Al4  1  0.63580100  0.81210000  0.80996100  1
  Al  Al5  1  0.00213900  0.82584000  0.19003900  1
  Al  Al6  1  0.11419900  0.43790000  0.69003900  1
  Al  Al7  1  0.18790000  0.99786100  0.82370100  1
  Ni  Ni0  1  0.44205300  0.92507900  0.99253300  1
  Ni  Ni1  1  0.67507900  0.18254600  0.98302600  1
  Ni  Ni2  1  0.55048000  0.55794700  0.48302600  1
  Ni  Ni3  1  0.81745400  0.80048000  0.49253300  1
  Ni  Ni4  1  0.30794700  0.32492100  0.50746700  1
  Ni  Ni5  1  0.07492100  0.06745400  0.51697400  1
  Ni  Ni6  1  0.19952000  0.69205300  0.01697400  1
  Ni  Ni7  1  0.93254600  0.44952000  0.00746700  1
  O  O0  1  0.83072100  0.26841900  0.24381000  1
  O  O1  1  0.33691100  0.08072100  0.06230200  1
  O  O2  1  0.59345000  0.35430800  0.07583500  1
  O  O3  1  0.86630700  0.63655100  0.09029700  1
  O  O4  1  0.88369300  0.61344900  0.40970300  1
  O  O5  1  0.64712300  0.39906200  0.40367100  1
  O  O6  1  0.41308900  0.16927900  0.43769800  1
  O  O7  1  0.36344900  0.45374600  0.22975700  1
  O  O8  1  0.52601000  0.11630700  0.72975700  1
  O  O9  1  0.91927900  0.98158100  0.25619000  1
  O  O10  1  0.14906200  0.24539100  0.25193900  1
  O  O11  1  0.75654800  0.35287700  0.75193900  1
  O  O12  1  0.64569200  0.72152700  0.23914300  1
  O  O13  1  0.10430800  0.52847300  0.26085700  1
  O  O14  1  0.48238400  0.40655000  0.76085700  1
  O  O15  1  0.60093800  0.00460900  0.24806100  1
  O  O16  1  0.72539100  0.66308900  0.74381000  1
  O  O17  1  0.38655100  0.79625400  0.27024300  1
  O  O18  1  0.22399000  0.13369300  0.77024300  1
  O  O19  1  0.73158100  0.97539100  0.56230200  1
  O  O20  1  0.47152700  0.73238400  0.57583500  1
  O  O21  1  0.10287700  0.85093800  0.09632900  1
  O  O22  1  0.99539100  0.24345200  0.59632900  1
  O  O23  1  0.20374600  0.47399000  0.59029700  1
  O  O24  1  0.54625400  0.77601000  0.90970300  1
  O  O25  1  0.75460900  0.00654800  0.90367100  1
  O  O26  1  0.27847300  0.51761600  0.92416500  1
  O  O27  1  0.15655000  0.89569200  0.42416500  1
  O  O28  1  0.01841900  0.27460900  0.93769800  1
  O  O29  1  0.02460900  0.58691100  0.75619000  1
  O  O30  1  0.26761600  0.84345000  0.73914300  1
  O  O31  1  0.99345200  0.89712300  0.74806100  1
loop_
_geom_bond_atom_site_label_1
_geom_bond_atom_site_label_2
_geom_bond_distance
_geom_bond_site_symmetry_2
Li0 O9 1.948869 1_545
Li0 O25 1.971276 1_554
Li0 O10 1.982505 1_655
Li0 O0 1.998896 1_555
Li1 O0 1.948869 1_555
Li1 O22 1.971276 1_555
Li1 O15 1.982505 1_555
Li1 O9 1.998896 1_545
Li2 O28 1.948872 1_655
Li2 O31 1.971279 1_545
Li2 O25 1.982497 1_555
Li2 O19 1.998904 1_545
Li3 O6 1.948869 1_555
Li3 O15 1.971271 1_555
Li3 O5 1.982505 1_555
Li3 O1 1.998905 1_555
Li4 O1 1.916564 1_555
Li4 O7 1.928592 1_555
Li4 O2 1.994776 1_555
Li4 O5 2.106470 1_555
Li5 O12 1.887494 1_555
Li5 O3 1.961559 1_555
Li5 O2 1.991903 1_555
Li5 O4 2.182432 1_555
Li6 O19 1.948872 1_545
Li6 O11 1.971279 1_555
Li6 O22 1.982497 1_555
Li6 O28 1.998904 1_655
Li7 O1 1.948869 1_555
Li7 O10 1.971271 1_555
Li7 O21 1.982505 1_545
Li7 O6 1.998905 1_555
Li8 O9 1.916565 1_555
Li8 O24 1.928585 1_554
Li8 O12 1.994785 1_555
Li8 O15 2.106479 1_565
Li9 O26 1.887494 1_554
Li9 O7 1.961567 1_555
Li9 O12 1.991898 1_555
Li9 O17 2.182431 1_555
Li10 O29 1.948872 1_655
Li10 O5 1.971279 1_555
Li10 O11 1.982497 1_555
Li10 O16 1.998904 1_555
Li11 O16 1.948872 1_555
Li11 O21 1.971279 1_656
Li11 O31 1.982497 1_555
Li11 O29 1.998904 1_655
Li12 O2 1.887491 1_556
Li12 O18 1.961554 1_555
Li12 O14 1.991906 1_555
Li12 O8 2.182429 1_555
Li13 O20 1.887494 1_555
Li13 O17 1.961567 1_555
Li13 O13 1.991898 1_555
Li13 O7 2.182431 1_555
Li14 O0 1.916565 1_455
Li14 O23 1.928585 1_555
Li14 O13 1.994785 1_555
Li14 O10 2.106479 1_555
Li15 O16 1.916573 1_555
Li15 O3 1.928582 1_556
Li15 O14 1.994775 1_555
Li15 O11 2.106471 1_555
Li16 O13 1.887494 1_555
Li16 O4 1.961559 1_455
Li16 O27 1.991903 1_555
Li16 O3 2.182432 1_455
Li17 O14 1.887487 1_555
Li17 O24 1.961559 1_555
Li17 O26 1.991898 1_555
Li17 O23 2.182432 1_555
Li18 O19 1.916573 1_555
Li18 O8 1.928585 1_565
Li18 O20 1.994780 1_555
Li18 O25 2.106471 1_565
Li19 O28 1.916573 1_555
Li19 O18 1.928585 1_555
Li19 O26 1.994780 1_555
Li19 O22 2.106471 1_455
Li20 O6 1.916564 1_565
Li20 O17 1.928592 1_555
Li20 O27 1.994776 1_555
Li20 O21 2.106470 1_555
Li21 O30 1.887487 1_555
Li21 O23 1.961559 1_555
Li21 O20 1.991898 1_555
Li21 O24 2.182432 1_555
Li22 O29 1.916573 1_555
Li22 O4 1.928582 1_455
Li22 O30 1.994775 1_555
Li22 O31 2.106471 1_455
Li23 O27 1.887491 1_555
Li23 O8 1.961554 1_565
Li23 O30 1.991906 1_555
Li23 O18 2.182429 1_565
Al0 O5 1.753048 1_555
Al0 O4 1.763719 1_555
Al0 O0 1.779834 1_555
Al0 O2 1.790065 1_555
Al1 O11 1.753048 1_555
Al1 O8 1.763726 1_555
Al1 O6 1.779834 1_555
Al1 O14 1.790069 1_555
Al2 O10 1.753048 1_555
Al2 O7 1.763714 1_555
Al2 O28 1.779834 1_554
Al2 O13 1.790063 1_555
Al3 O15 1.753048 1_565
Al3 O17 1.763714 1_555
Al3 O19 1.779834 1_555
Al3 O12 1.790063 1_555
Al4 O25 1.753048 1_565
Al4 O24 1.763719 1_555
Al4 O16 1.779834 1_555
Al4 O20 1.790063 1_555
Al5 O21 1.753048 1_555
Al5 O3 1.763719 1_455
Al5 O9 1.779834 1_455
Al5 O27 1.790065 1_555
Al6 O22 1.753048 1_455
Al6 O23 1.763719 1_555
Al6 O29 1.779834 1_555
Al6 O26 1.790063 1_555
Al7 O31 1.753048 1_455
Al7 O18 1.763726 1_565
Al7 O1 1.779834 1_566
Al7 O30 1.790069 1_555
Ni0 O15 1.926355 1_566
Ni0 O24 1.932871 1_555
Ni0 O30 1.939195 1_555
Ni0 O1 1.944463 1_566
Ni1 O25 1.926355 1_555
Ni1 O8 1.932864 1_555
Ni1 O2 1.939204 1_556
Ni1 O0 1.944463 1_556
Ni2 O5 1.926355 1_555
Ni2 O7 1.932866 1_555
Ni2 O20 1.939197 1_555
Ni2 O16 1.944463 1_555
Ni3 O31 1.926355 1_555
Ni3 O4 1.932871 1_555
Ni3 O12 1.939197 1_555
Ni3 O19 1.944463 1_555
Ni4 O10 1.926355 1_555
Ni4 O23 1.932871 1_555
Ni4 O14 1.939195 1_555
Ni4 O6 1.944463 1_555
Ni5 O22 1.926355 1_455
Ni5 O18 1.932864 1_555
Ni5 O27 1.939204 1_545
Ni5 O9 1.944463 1_445
Ni6 O21 1.926355 1_555
Ni6 O17 1.932866 1_555
Ni6 O26 1.939197 1_554
Ni6 O29 1.944463 1_554
Ni7 O11 1.926355 1_554
Ni7 O3 1.932871 1_555
Ni7 O13 1.939197 1_655
Ni7 O28 1.944463 1_654
