# generated using pymatgen
data_Bi5BO10
_symmetry_space_group_name_H-M   'P 1'
_cell_length_a   22.43860200
_cell_length_b   5.65100500
_cell_length_c   8.47987361
_cell_angle_alpha   73.17457646
_cell_angle_beta   90.00000000
_cell_angle_gamma   90.00000000
_symmetry_Int_Tables_number   1
_chemical_formula_structural   Bi5BO10
_chemical_formula_sum   'Bi20 B4 O40'
_cell_volume   1029.22314096
_cell_formula_units_Z   4
loop_
 _symmetry_equiv_pos_site_id
 _symmetry_equiv_pos_as_xyz
  1  'x, y, z'
loop_
 _atom_site_type_symbol
 _atom_site_label
 _atom_site_symmetry_multiplicity
 _atom_site_fract_x
 _atom_site_fract_y
 _atom_site_fract_z
 _atom_site_occupancy
  Bi  Bi0  1  0.69592400  0.28098600  0.00453200  1
  Bi  Bi1  1  0.80407600  0.78098600  0.00453200  1
  Bi  Bi2  1  0.05751100  0.41443400  0.71585300  1
  Bi  Bi3  1  0.31454300  0.45367500  0.63878300  1
  Bi  Bi4  1  0.81450000  0.44879100  0.66315500  1
  Bi  Bi5  1  0.55740100  0.48630300  0.64612600  1
  Bi  Bi6  1  0.44248900  0.91443400  0.71585300  1
  Bi  Bi7  1  0.18545700  0.95367500  0.63878300  1
  Bi  Bi8  1  0.68550000  0.94879100  0.66315500  1
  Bi  Bi9  1  0.94259900  0.98630300  0.64612600  1
  Bi  Bi10  1  0.05740100  0.01369700  0.35387400  1
  Bi  Bi11  1  0.31450000  0.05120900  0.33684500  1
  Bi  Bi12  1  0.81454300  0.04632500  0.36121700  1
  Bi  Bi13  1  0.55751100  0.08556600  0.28414700  1
  Bi  Bi14  1  0.44259900  0.51369700  0.35387400  1
  Bi  Bi15  1  0.18550000  0.55120900  0.33684500  1
  Bi  Bi16  1  0.68545700  0.54632500  0.36121700  1
  Bi  Bi17  1  0.94248900  0.58556600  0.28414700  1
  Bi  Bi18  1  0.19592400  0.21901400  0.99546800  1
  Bi  Bi19  1  0.30407600  0.71901400  0.99546800  1
  B  B0  1  0.92006200  0.29429700  0.99872700  1
  B  B1  1  0.57993800  0.79429700  0.99872700  1
  B  B2  1  0.42006200  0.20570300  0.00127300  1
  B  B3  1  0.07993800  0.70570300  0.00127300  1
  O  O0  1  0.38825300  0.07114600  0.91466700  1
  O  O1  1  0.46945900  0.32851000  0.92225000  1
  O  O2  1  0.11174700  0.57114600  0.91466700  1
  O  O3  1  0.90408600  0.28498900  0.84362700  1
  O  O4  1  0.25605700  0.48843300  0.84665500  1
  O  O5  1  0.03054100  0.82851000  0.92225000  1
  O  O6  1  0.76041900  0.55966700  0.84117000  1
  O  O7  1  0.59591400  0.78498900  0.84362700  1
  O  O8  1  0.24394300  0.98843300  0.84665500  1
  O  O9  1  0.73958100  0.05966700  0.84117000  1
  O  O10  1  0.36139600  0.71350700  0.75088000  1
  O  O11  1  0.13860400  0.21350700  0.75088000  1
  O  O12  1  0.85256600  0.82840600  0.61115900  1
  O  O13  1  0.47619200  0.71753000  0.52377200  1
  O  O14  1  0.10435600  0.71165300  0.53681800  1
  O  O15  1  0.25295600  0.77067400  0.51405000  1
  O  O16  1  0.75295600  0.72932600  0.48595000  1
  O  O17  1  0.60435600  0.78834700  0.46318200  1
  O  O18  1  0.64743400  0.32840600  0.61115900  1
  O  O19  1  0.97619200  0.78247000  0.47622800  1
  O  O20  1  0.02380800  0.21753000  0.52377200  1
  O  O21  1  0.35256600  0.67159400  0.38884100  1
  O  O22  1  0.39564400  0.21165300  0.53681800  1
  O  O23  1  0.24704400  0.27067400  0.51405000  1
  O  O24  1  0.74704400  0.22932600  0.48595000  1
  O  O25  1  0.89564400  0.28834700  0.46318200  1
  O  O26  1  0.52380800  0.28247000  0.47622800  1
  O  O27  1  0.14743400  0.17159400  0.38884100  1
  O  O28  1  0.86139600  0.78649300  0.24912000  1
  O  O29  1  0.63860400  0.28649300  0.24912000  1
  O  O30  1  0.26041900  0.94033300  0.15883000  1
  O  O31  1  0.75605700  0.01156700  0.15334500  1
  O  O32  1  0.40408600  0.21501100  0.15637300  1
  O  O33  1  0.23958100  0.44033300  0.15883000  1
  O  O34  1  0.96945900  0.17149000  0.07775000  1
  O  O35  1  0.74394300  0.51156700  0.15334500  1
  O  O36  1  0.09591400  0.71501100  0.15637300  1
  O  O37  1  0.88825300  0.42885400  0.08533300  1
  O  O38  1  0.53054100  0.67149000  0.07775000  1
  O  O39  1  0.61174700  0.92885400  0.08533300  1
loop_
_geom_bond_atom_site_label_1
_geom_bond_atom_site_label_2
_geom_bond_distance
_geom_bond_site_symmetry_2
Bi0 O31 2.149134 1_555
Bi0 O6 2.287024 1_554
Bi0 O35 2.324466 1_555
Bi0 O9 2.333630 1_554
Bi0 O29 2.448343 1_555
Bi0 O39 2.684675 1_545
Bi1 O35 2.149134 1_555
Bi1 O9 2.287024 1_564
Bi1 O31 2.324466 1_565
Bi1 O6 2.333630 1_554
Bi1 O28 2.448343 1_555
Bi1 O37 2.684675 1_555
Bi2 O11 2.119717 1_555
Bi2 O14 2.180509 1_555
Bi2 O20 2.347831 1_555
Bi2 O2 2.443755 1_555
Bi3 O10 2.229976 1_555
Bi3 O4 2.251327 1_555
Bi3 O23 2.261728 1_555
Bi3 O15 2.267283 1_555
Bi3 O21 2.285958 1_555
Bi3 O22 2.571843 1_555
Bi4 O6 2.165973 1_555
Bi4 O12 2.231214 1_555
Bi4 O16 2.301998 1_555
Bi4 O3 2.533701 1_555
Bi4 O24 2.676946 1_555
Bi4 O25 2.811198 1_555
Bi4 O9 2.831686 1_555
Bi5 O17 2.212957 1_555
Bi5 O26 2.220660 1_555
Bi5 O18 2.262413 1_555
Bi5 O13 2.306404 1_555
Bi6 O10 2.119717 1_555
Bi6 O22 2.180509 1_565
Bi6 O13 2.347831 1_555
Bi6 O0 2.443755 1_565
Bi7 O11 2.229976 1_565
Bi7 O8 2.251327 1_555
Bi7 O15 2.261728 1_555
Bi7 O23 2.267283 1_565
Bi7 O27 2.285958 1_565
Bi7 O14 2.571843 1_555
Bi8 O9 2.165973 1_565
Bi8 O18 2.231214 1_565
Bi8 O24 2.301998 1_565
Bi8 O7 2.533701 1_555
Bi8 O16 2.676946 1_555
Bi8 O17 2.811198 1_555
Bi8 O6 2.831686 1_555
Bi9 O25 2.212957 1_565
Bi9 O19 2.220660 1_555
Bi9 O12 2.262413 1_555
Bi9 O20 2.306404 1_665
Bi10 O14 2.212957 1_545
Bi10 O20 2.220660 1_555
Bi10 O27 2.262413 1_555
Bi10 O19 2.306404 1_445
Bi11 O30 2.165973 1_545
Bi11 O21 2.231214 1_545
Bi11 O15 2.301998 1_545
Bi11 O32 2.533701 1_555
Bi11 O23 2.676946 1_555
Bi11 O22 2.811198 1_555
Bi11 O33 2.831686 1_555
Bi12 O28 2.229976 1_545
Bi12 O31 2.251327 1_555
Bi12 O24 2.261728 1_555
Bi12 O16 2.267283 1_545
Bi12 O12 2.285958 1_545
Bi12 O25 2.571843 1_555
Bi13 O29 2.119717 1_555
Bi13 O17 2.180509 1_545
Bi13 O26 2.347831 1_555
Bi13 O39 2.443755 1_545
Bi14 O22 2.212957 1_555
Bi14 O13 2.220660 1_555
Bi14 O21 2.262413 1_555
Bi14 O26 2.306404 1_555
Bi15 O33 2.165973 1_555
Bi15 O27 2.231214 1_555
Bi15 O23 2.301998 1_555
Bi15 O36 2.533701 1_555
Bi15 O15 2.676946 1_555
Bi15 O14 2.811198 1_555
Bi15 O30 2.831686 1_555
Bi16 O29 2.229976 1_555
Bi16 O35 2.251327 1_555
Bi16 O16 2.261728 1_555
Bi16 O24 2.267283 1_555
Bi16 O18 2.285958 1_555
Bi16 O17 2.571843 1_555
Bi17 O28 2.119717 1_555
Bi17 O25 2.180509 1_555
Bi17 O19 2.347831 1_555
Bi17 O37 2.443755 1_555
Bi18 O4 2.149134 1_555
Bi18 O30 2.287024 1_546
Bi18 O8 2.324466 1_545
Bi18 O33 2.333630 1_556
Bi18 O11 2.448343 1_555
Bi18 O2 2.684675 1_555
Bi19 O8 2.149134 1_555
Bi19 O33 2.287024 1_556
Bi19 O4 2.324466 1_555
Bi19 O30 2.333630 1_556
Bi19 O10 2.448343 1_555
Bi19 O0 2.684675 1_565
B0 O34 1.374767 1_556
B0 O3 1.378822 1_555
B0 O37 1.396516 1_556
B1 O38 1.374767 1_556
B1 O7 1.378822 1_555
B1 O39 1.396516 1_556
B2 O1 1.374767 1_554
B2 O32 1.378822 1_555
B2 O0 1.396516 1_554
B3 O5 1.374767 1_554
B3 O36 1.378822 1_555
B3 O2 1.396516 1_554
