# generated using pymatgen
data_Na3Li3Mn2P2(CO7)2
_symmetry_space_group_name_H-M   'P 1'
_cell_length_a   5.10516100
_cell_length_b   6.63555449
_cell_length_c   8.81447541
_cell_angle_alpha   90.74608900
_cell_angle_beta   90.31859554
_cell_angle_gamma   90.34095897
_symmetry_Int_Tables_number   1
_chemical_formula_structural   Na3Li3Mn2P2(CO7)2
_chemical_formula_sum   'Na3 Li3 Mn2 P2 C2 O14'
_cell_volume   298.56006602
_cell_formula_units_Z   1
loop_
 _symmetry_equiv_pos_site_id
 _symmetry_equiv_pos_as_xyz
  1  'x, y, z'
loop_
 _atom_site_type_symbol
 _atom_site_label
 _atom_site_symmetry_multiplicity
 _atom_site_fract_x
 _atom_site_fract_y
 _atom_site_fract_z
 _atom_site_occupancy
  Na  Na0  1  0.24114600  0.25673200  0.08281300  1
  Na  Na1  1  0.75325500  0.00079100  0.25488100  1
  Na  Na2  1  0.75850000  0.74720800  0.91566300  1
  Li  Li0  1  0.76647900  0.48563200  0.26865700  1
  Li  Li1  1  0.23380500  0.51272100  0.73334700  1
  Li  Li2  1  0.23254800  0.98819300  0.73293300  1
  Mn  Mn0  1  0.22201100  0.74657300  0.36158700  1
  Mn  Mn1  1  0.77847500  0.24906700  0.64113100  1
  P  P0  1  0.30102000  0.25395000  0.41526900  1
  P  P1  1  0.70322100  0.74485200  0.58911300  1
  C  C0  1  0.26352000  0.74770100  0.05202700  1
  C  C1  1  0.73346900  0.25709200  0.94486100  1
  O  O0  1  0.71398700  0.27115100  0.09144600  1
  O  O1  1  0.03622700  0.74909600  0.11778700  1
  O  O2  1  0.47342600  0.74388900  0.13626400  1
  O  O3  1  0.21739100  0.06168100  0.32480500  1
  O  O4  1  0.18796500  0.43241100  0.32403900  1
  O  O5  1  0.60687000  0.26931800  0.41919800  1
  O  O6  1  0.79936000  0.73434000  0.42240300  1
  O  O7  1  0.20231200  0.25184300  0.58241700  1
  O  O8  1  0.39531800  0.74793200  0.58757000  1
  O  O9  1  0.80227500  0.56396900  0.68294000  1
  O  O10  1  0.80984700  0.93452800  0.67475100  1
  O  O11  1  0.52432200  0.24838600  0.85900000  1
  O  O12  1  0.96303700  0.25101600  0.88101200  1
  O  O13  1  0.28021300  0.74993400  0.90408700  1
loop_
_geom_bond_atom_site_label_1
_geom_bond_atom_site_label_2
_geom_bond_distance
_geom_bond_site_symmetry_2
Na0 O12 2.269534 1_454
Na0 O0 2.415992 1_555
Na0 O4 2.428855 1_555
Na0 O11 2.452496 1_554
Na0 O3 2.512485 1_555
Na0 O0 2.694963 1_455
Na1 O0 2.324278 1_555
Na1 O6 2.330425 1_545
Na1 O5 2.406623 1_555
Na1 O2 2.438839 1_545
Na1 O3 2.474567 1_655
Na1 O1 2.516367 1_645
Na1 O3 2.837684 1_555
Na2 O1 2.270618 1_656
Na2 O9 2.383206 1_555
Na2 O2 2.435516 1_556
Na2 O13 2.443481 1_555
Na2 O10 2.488785 1_555
Na2 O13 2.665912 1_655
Li0 O0 2.114270 1_555
Li0 O6 2.127014 1_555
Li0 O5 2.129012 1_555
Li0 O4 2.234931 1_655
Li0 O2 2.569040 1_555
Li0 O1 2.602588 1_655
Li1 O7 2.174090 1_555
Li1 O13 2.174537 1_555
Li1 O8 2.194453 1_555
Li1 O9 2.273403 1_455
Li1 O11 2.562465 1_555
Li1 O12 2.582802 1_455
Li2 O8 2.201891 1_555
Li2 O13 2.212984 1_555
Li2 O7 2.214953 1_565
Li2 O10 2.240621 1_455
Li2 O11 2.517037 1_565
Li2 O12 2.574382 1_465
Mn0 O4 2.112474 1_555
Mn0 O3 2.120320 1_565
Mn0 O8 2.174965 1_555
Mn0 O6 2.227451 1_455
Mn0 O1 2.344436 1_555
Mn0 O2 2.370661 1_555
Mn1 O10 2.118770 1_545
Mn1 O9 2.119721 1_555
Mn1 O5 2.145123 1_555
Mn1 O7 2.227610 1_655
Mn1 O12 2.309919 1_555
Mn1 O11 2.323642 1_555
C0 O1 1.299996 1_555
C0 O2 1.300866 1_555
C0 O13 1.307539 1_554
C1 O0 1.298630 1_556
C1 O12 1.303538 1_555
C1 O11 1.305871 1_555
O3 P0 1.552110 1_555
O4 P0 1.552366 1_555
O5 P0 1.564296 1_555
O6 P1 1.552685 1_555
O7 P0 1.559974 1_555
O8 P1 1.572134 1_555
O9 P1 1.552016 1_555
O10 P1 1.553298 1_555
