# generated using pymatgen
data_Na6Fe2As(CO4)4
_symmetry_space_group_name_H-M   'P 1'
_cell_length_a   10.12557395
_cell_length_b   10.12557395
_cell_length_c   10.12557395
_cell_angle_alpha   60.00000000
_cell_angle_beta   60.00000000
_cell_angle_gamma   60.00000000
_symmetry_Int_Tables_number   1
_chemical_formula_structural   Na6Fe2As(CO4)4
_chemical_formula_sum   'Na12 Fe4 As2 C8 O32'
_cell_volume   734.08094490
_cell_formula_units_Z   2
loop_
 _symmetry_equiv_pos_site_id
 _symmetry_equiv_pos_as_xyz
  1  'x, y, z'
loop_
 _atom_site_type_symbol
 _atom_site_label
 _atom_site_symmetry_multiplicity
 _atom_site_fract_x
 _atom_site_fract_y
 _atom_site_fract_z
 _atom_site_occupancy
  Na  Na0  1  0.53969900  0.96030100  0.96030100  1
  Na  Na1  1  0.28969900  0.28969900  0.71030100  1
  Na  Na2  1  0.96030100  0.53969900  0.96030100  1
  Na  Na3  1  0.53969900  0.96030100  0.53969900  1
  Na  Na4  1  0.71030100  0.71030100  0.28969900  1
  Na  Na5  1  0.28969900  0.71030100  0.71030100  1
  Na  Na6  1  0.53969900  0.53969900  0.96030100  1
  Na  Na7  1  0.96030100  0.53969900  0.53969900  1
  Na  Na8  1  0.71030100  0.28969900  0.71030100  1
  Na  Na9  1  0.28969900  0.71030100  0.28969900  1
  Na  Na10  1  0.96030100  0.96030100  0.53969900  1
  Na  Na11  1  0.71030100  0.28969900  0.28969900  1
  Fe  Fe0  1  0.12500000  0.62500000  0.12500000  1
  Fe  Fe1  1  0.62500000  0.12500000  0.12500000  1
  Fe  Fe2  1  0.12500000  0.12500000  0.12500000  1
  Fe  Fe3  1  0.12500000  0.12500000  0.62500000  1
  As  As0  1  0.75000000  0.75000000  0.75000000  1
  As  As1  1  0.50000000  0.50000000  0.50000000  1
  C  C0  1  0.34028500  0.97914400  0.34028500  1
  C  C1  1  0.34028500  0.34028500  0.97914400  1
  C  C2  1  0.97914400  0.34028500  0.34028500  1
  C  C3  1  0.34028500  0.34028500  0.34028500  1
  C  C4  1  0.90971500  0.90971500  0.90971500  1
  C  C5  1  0.27085600  0.90971500  0.90971500  1
  C  C6  1  0.90971500  0.90971500  0.27085600  1
  C  C7  1  0.90971500  0.27085600  0.90971500  1
  O  O0  1  0.27323600  0.02250700  0.76901300  1
  O  O1  1  0.02250700  0.27323600  0.93524400  1
  O  O2  1  0.48098700  0.97676400  0.22749300  1
  O  O3  1  0.31475600  0.22749300  0.97676400  1
  O  O4  1  0.31475600  0.97676400  0.48098700  1
  O  O5  1  0.68030800  0.68030800  0.68030800  1
  O  O6  1  0.97676400  0.31475600  0.22749300  1
  O  O7  1  0.95907700  0.68030800  0.68030800  1
  O  O8  1  0.68030800  0.68030800  0.95907700  1
  O  O9  1  0.48098700  0.31475600  0.97676400  1
  O  O10  1  0.22749300  0.48098700  0.97676400  1
  O  O11  1  0.68030800  0.95907700  0.68030800  1
  O  O12  1  0.48098700  0.22749300  0.31475600  1
  O  O13  1  0.97676400  0.48098700  0.31475600  1
  O  O14  1  0.22749300  0.31475600  0.48098700  1
  O  O15  1  0.93524400  0.76901300  0.02250700  1
  O  O16  1  0.31475600  0.48098700  0.22749300  1
  O  O17  1  0.02250700  0.93524400  0.76901300  1
  O  O18  1  0.27323600  0.76901300  0.93524400  1
  O  O19  1  0.76901300  0.02250700  0.93524400  1
  O  O20  1  0.56969200  0.29092300  0.56969200  1
  O  O21  1  0.02250700  0.76901300  0.27323600  1
  O  O22  1  0.76901300  0.93524400  0.27323600  1
  O  O23  1  0.56969200  0.56969200  0.29092300  1
  O  O24  1  0.29092300  0.56969200  0.56969200  1
  O  O25  1  0.27323600  0.93524400  0.02250700  1
  O  O26  1  0.56969200  0.56969200  0.56969200  1
  O  O27  1  0.93524400  0.27323600  0.76901300  1
  O  O28  1  0.93524400  0.02250700  0.27323600  1
  O  O29  1  0.76901300  0.27323600  0.02250700  1
  O  O30  1  0.22749300  0.97676400  0.31475600  1
  O  O31  1  0.97676400  0.22749300  0.48098700  1
loop_
_geom_bond_atom_site_label_1
_geom_bond_atom_site_label_2
_geom_bond_distance
_geom_bond_site_symmetry_2
Na0 O11 2.458858 1_555
Na0 O8 2.458858 1_555
Na0 O2 2.538563 1_556
Na0 O3 2.538563 1_565
Na0 O19 2.562439 1_565
Na0 O25 2.562439 1_556
Na1 O20 2.458858 1_555
Na1 O24 2.458858 1_555
Na1 O1 2.538563 1_555
Na1 O0 2.538563 1_555
Na1 O14 2.562439 1_555
Na1 O3 2.562439 1_555
Na2 O7 2.458858 1_555
Na2 O8 2.458858 1_555
Na2 O10 2.538563 1_655
Na2 O6 2.538563 1_556
Na2 O15 2.562439 1_556
Na2 O1 2.562439 1_655
Na3 O5 2.458861 1_555
Na3 O11 2.458867 1_555
Na3 O12 2.538563 1_565
Na3 O4 2.538563 1_555
Na3 O0 2.562439 1_565
Na3 O22 2.562439 1_555
Na4 O26 2.458861 1_555
Na4 O23 2.458867 1_555
Na4 O22 2.538563 1_555
Na4 O15 2.538563 1_555
Na4 O2 2.562439 1_555
Na4 O13 2.562439 1_555
Na5 O26 2.458861 1_555
Na5 O24 2.458867 1_555
Na5 O18 2.538563 1_555
Na5 O17 2.538563 1_555
Na5 O10 2.562439 1_555
Na5 O4 2.562439 1_555
Na6 O5 2.458861 1_555
Na6 O8 2.458867 1_555
Na6 O16 2.538563 1_556
Na6 O9 2.538563 1_555
Na6 O29 2.562439 1_556
Na6 O18 2.562439 1_555
Na7 O5 2.458861 1_555
Na7 O7 2.458867 1_555
Na7 O14 2.538563 1_655
Na7 O13 2.538563 1_555
Na7 O21 2.562439 1_655
Na7 O27 2.562439 1_555
Na8 O26 2.458861 1_555
Na8 O20 2.458867 1_555
Na8 O27 2.538563 1_555
Na8 O19 2.538563 1_555
Na8 O9 2.562439 1_555
Na8 O31 2.562439 1_555
Na9 O23 2.458858 1_555
Na9 O24 2.458858 1_555
Na9 O25 2.538563 1_555
Na9 O21 2.538563 1_555
Na9 O16 2.562439 1_555
Na9 O30 2.562439 1_555
Na10 O7 2.458858 1_555
Na10 O11 2.458858 1_555
Na10 O31 2.538563 1_565
Na10 O30 2.538563 1_655
Na10 O17 2.562439 1_655
Na10 O28 2.562439 1_565
Na11 O23 2.458858 1_555
Na11 O20 2.458858 1_555
Na11 O28 2.538563 1_555
Na11 O29 2.538563 1_555
Na11 O12 2.562439 1_555
Na11 O6 2.562439 1_555
Fe0 O21 2.138700 1_555
Fe0 O18 2.138700 1_554
Fe0 O16 2.138700 1_555
Fe0 O10 2.138700 1_554
Fe0 O15 2.138700 1_455
Fe0 O13 2.138700 1_455
Fe1 O29 2.138700 1_555
Fe1 O22 2.138700 1_545
Fe1 O12 2.138700 1_555
Fe1 O9 2.138700 1_554
Fe1 O19 2.138700 1_554
Fe1 O2 2.138700 1_545
Fe2 O6 2.138700 1_455
Fe2 O3 2.138700 1_554
Fe2 O30 2.138700 1_545
Fe2 O1 2.138700 1_554
Fe2 O28 2.138700 1_455
Fe2 O25 2.138700 1_545
Fe3 O0 2.138700 1_555
Fe3 O27 2.138700 1_455
Fe3 O14 2.138700 1_555
Fe3 O31 2.138700 1_455
Fe3 O4 2.138700 1_545
Fe3 O17 2.138700 1_545
As0 O5 1.728535 1_555
As0 O7 1.728543 1_555
As0 O8 1.728543 1_555
As0 O11 1.728543 1_555
As1 O26 1.728535 1_555
As1 O24 1.728543 1_555
As1 O20 1.728543 1_555
As1 O23 1.728543 1_555
C0 O30 1.304121 1_555
C0 O2 1.304128 1_555
C0 O4 1.304131 1_555
C1 O3 1.304121 1_555
C1 O10 1.304128 1_555
C1 O9 1.304131 1_555
C2 O6 1.304121 1_555
C2 O31 1.304128 1_555
C2 O13 1.304131 1_555
C3 O16 1.304127 1_555
C3 O14 1.304127 1_555
C3 O12 1.304127 1_555
C4 O15 1.304127 1_556
C4 O19 1.304127 1_565
C4 O17 1.304127 1_655
C5 O25 1.304121 1_556
C5 O0 1.304128 1_565
C5 O18 1.304131 1_555
C6 O28 1.304121 1_565
C6 O21 1.304128 1_655
C6 O22 1.304131 1_555
C7 O1 1.304121 1_655
C7 O29 1.304128 1_556
C7 O27 1.304131 1_555
