# generated using pymatgen
data_Na9Zr8Si4(P4O23)2
_symmetry_space_group_name_H-M   'P 1'
_cell_length_a   9.11817400
_cell_length_b   9.53811372
_cell_length_c   14.62450959
_cell_angle_alpha   91.71725706
_cell_angle_beta   107.68476223
_cell_angle_gamma   117.57748946
_symmetry_Int_Tables_number   1
_chemical_formula_structural   Na9Zr8Si4(P4O23)2
_chemical_formula_sum   'Na9 Zr8 Si4 P8 O46'
_cell_volume   1051.96685624
_cell_formula_units_Z   1
loop_
 _symmetry_equiv_pos_site_id
 _symmetry_equiv_pos_as_xyz
  1  'x, y, z'
loop_
 _atom_site_type_symbol
 _atom_site_label
 _atom_site_symmetry_multiplicity
 _atom_site_fract_x
 _atom_site_fract_y
 _atom_site_fract_z
 _atom_site_occupancy
  Na  Na0  1  0.90424000  0.14205200  0.37319600  1
  Na  Na1  1  0.55799000  0.73143300  0.21606100  1
  Na  Na2  1  0.37754900  0.71465300  0.42303300  1
  Na  Na3  1  0.90218900  0.68301700  0.86489200  1
  Na  Na4  1  0.07988000  0.30250300  0.10248000  1
  Na  Na5  1  0.85898800  0.49556300  0.44208700  1
  Na  Na6  1  0.61088200  0.23727000  0.72127400  1
  Na  Na7  1  0.40070500  0.23177100  0.92487000  1
  Na  Na8  1  0.08057300  0.81436700  0.60083100  1
  Zr  Zr0  1  0.83762000  0.63786200  0.08785200  1
  Zr  Zr1  1  0.62016700  0.09657200  0.14361800  1
  Zr  Zr2  1  0.84502800  0.14446900  0.59168300  1
  Zr  Zr3  1  0.57667200  0.56190500  0.62435700  1
  Zr  Zr4  1  0.35298500  0.38170600  0.34507700  1
  Zr  Zr5  1  0.13948100  0.89473000  0.37647700  1
  Zr  Zr6  1  0.35765900  0.88129700  0.83756600  1
  Zr  Zr7  1  0.12815200  0.36813100  0.87484300  1
  Si  Si0  1  0.97392800  0.01206700  0.19623500  1
  Si  Si1  1  0.55641800  0.15232400  0.36708400  1
  Si  Si2  1  0.96840100  0.51588000  0.69780000  1
  Si  Si3  1  0.54417100  0.63428000  0.86151800  1
  P  P0  1  0.24537100  0.88566900  0.08857100  1
  P  P1  1  0.74343300  0.76851100  0.45522600  1
  P  P2  1  0.44722200  0.39263300  0.11730500  1
  P  P3  1  0.00107500  0.47977100  0.28027000  1
  P  P4  1  0.21753500  0.18034900  0.57459500  1
  P  P5  1  0.75686100  0.27423600  0.95835300  1
  P  P6  1  0.44444800  0.87705400  0.61396300  1
  P  P7  1  0.00916400  0.97359300  0.77485600  1
  O  O0  1  0.96413900  0.83562800  0.22394600  1
  O  O1  1  0.78864700  0.00680900  0.19993000  1
  O  O2  1  0.50255000  0.26235400  0.11359300  1
  O  O3  1  0.71848900  0.19852700  0.47200600  1
  O  O4  1  0.63150400  0.13315900  0.28253400  1
  O  O5  1  0.40940500  0.85294100  0.12884800  1
  O  O6  1  0.74079500  0.92898500  0.47409500  1
  O  O7  1  0.90783700  0.80079000  0.42848100  1
  O  O8  1  0.61325100  0.56076000  0.13059900  1
  O  O9  1  0.37125100  0.98763800  0.35490800  1
  O  O10  1  0.06723500  0.72047100  0.05200500  1
  O  O11  1  0.00619400  0.04045300  0.09783500  1
  O  O12  1  0.57135000  0.65182700  0.36843500  1
  O  O13  1  0.37739700  0.40352600  0.19946300  1
  O  O14  1  0.95257600  0.33267200  0.72226700  1
  O  O15  1  0.29626100  0.36607000  0.01967000  1
  O  O16  1  0.77648000  0.50130400  0.69227300  1
  O  O17  1  0.49028300  0.74197700  0.60698300  1
  O  O18  1  0.93635300  0.51030500  0.17325400  1
  O  O19  1  0.18174600  0.47964400  0.28950900  1
  O  O20  1  0.53841900  0.31420800  0.36664300  1
  O  O21  1  0.71272100  0.67888800  0.96139400  1
  O  O22  1  0.07333600  0.65180300  0.35040100  1
  O  O23  1  0.59562100  0.61351700  0.76700600  1
  O  O24  1  0.21835100  0.10094400  0.48173200  1
  O  O25  1  0.40353600  0.31583700  0.64128500  1
  O  O26  1  0.72241400  0.41454400  0.97696900  1
  O  O27  1  0.93670900  0.34245800  0.93952600  1
  O  O28  1  0.13310900  0.13911700  0.30165500  1
  O  O29  1  0.61730800  0.04213500  0.63171500  1
  O  O30  1  0.35982000  0.47077300  0.85575800  1
  O  O31  1  0.39653800  0.45584400  0.48385300  1
  O  O32  1  0.07658800  0.23708800  0.54809200  1
  O  O33  1  0.01169100  0.55107800  0.60166500  1
  O  O34  1  0.60159700  0.15050000  0.86641500  1
  O  O35  1  0.75606100  0.69258500  0.54783500  1
  O  O36  1  0.37729000  0.88881700  0.69768100  1
  O  O37  1  0.29769700  0.85625100  0.51817900  1
  O  O38  1  0.94565700  0.01422900  0.67032300  1
  O  O39  1  0.19746000  0.99167000  0.78321000  1
  O  O40  1  0.50804900  0.78538400  0.86880600  1
  O  O41  1  0.07014300  0.14262600  0.84571000  1
  O  O42  1  0.25170000  0.88755700  0.96739200  1
  O  O43  1  0.12330500  0.64062700  0.80342600  1
  O  O44  1  0.43900700  0.00642600  0.98407400  1
  O  O45  1  0.77234300  0.19608700  0.05015300  1
loop_
_geom_bond_atom_site_label_1
_geom_bond_atom_site_label_2
_geom_bond_distance
_geom_bond_site_symmetry_2
Na0 O4 2.396720 1_555
Na0 O32 2.435869 1_655
Na0 O1 2.473521 1_555
Na0 O28 2.613296 1_655
Na0 O6 2.690737 1_545
Na0 O3 2.744459 1_555
Na1 O5 2.301749 1_555
Na1 O8 2.342265 1_555
Na1 O12 2.362039 1_555
Na1 O1 2.569369 1_565
Na1 O13 2.737803 1_555
Na2 O37 2.388255 1_555
Na2 O22 2.411238 1_555
Na2 O12 2.434822 1_555
Na2 O19 2.437062 1_555
Na2 O17 2.528134 1_555
Na2 O31 2.710836 1_555
Na2 O6 2.800651 1_555
Na2 O9 2.834544 1_555
Na3 O23 2.469583 1_555
Na3 O21 2.529737 1_555
Na3 O10 2.611918 1_656
Na3 O16 2.613627 1_555
Na3 O43 2.621179 1_655
Na3 O42 2.715715 1_655
Na3 P7 2.977023 1_655
Na4 O11 2.260653 1_555
Na4 O13 2.336580 1_555
Na4 O45 2.343842 1_455
Na4 O15 2.472875 1_555
Na4 O27 2.480653 1_454
Na4 O19 2.815180 1_555
Na5 O33 2.221381 1_655
Na5 O20 2.449117 1_555
Na5 O22 2.617983 1_655
Na5 O3 2.629400 1_555
Na5 O7 2.757087 1_555
Na6 O29 2.276956 1_555
Na6 O34 2.312405 1_555
Na6 O25 2.350547 1_555
Na6 O16 2.394652 1_555
Na6 O14 2.807505 1_555
Na7 O26 2.460101 1_555
Na7 O44 2.472702 1_555
Na7 O15 2.509016 1_556
Na7 O39 2.534651 1_545
Na7 O41 2.568306 1_555
Na7 O2 2.590116 1_556
Na7 O34 2.629348 1_555
Na7 O30 2.655802 1_555
Na8 O33 2.290688 1_555
Na8 O36 2.379684 1_555
Na8 O35 2.464902 1_455
Na8 O7 2.496041 1_455
Na8 O37 2.508132 1_555
Na8 O39 2.728287 1_555
O0 Si0 1.711173 1_565
O0 Zr5 2.184777 1_655
O0 Zr0 2.283748 1_555
O1 Si0 1.684271 1_555
O1 Zr1 2.064620 1_555
O2 P2 1.547443 1_555
O2 Zr1 2.273534 1_555
O3 Si1 1.646621 1_555
O3 Zr2 2.009574 1_555
O4 Si1 1.627196 1_555
O4 Zr1 2.014024 1_555
O5 P0 1.609208 1_555
O5 Zr1 2.173172 1_565
O6 P1 1.559593 1_555
O6 Zr2 2.251971 1_565
O7 P1 1.559194 1_555
O7 Zr5 2.259875 1_655
O8 P2 1.567140 1_555
O8 Zr0 2.128063 1_555
O9 Si1 1.641569 1_565
O9 Zr5 2.009651 1_555
O10 P0 1.568150 1_555
O10 Zr0 2.107916 1_455
O11 Si0 1.561268 1_455
O12 P1 1.549243 1_555
O12 Zr4 2.345939 1_555
O13 P2 1.542187 1_555
O13 Zr4 2.213468 1_555
O14 Si2 1.742942 1_555
O14 Zr2 2.204071 1_555
O14 Zr7 2.222472 1_655
O15 P2 1.568120 1_555
O15 Zr7 2.212221 1_554
O16 Si2 1.666246 1_555
O16 Zr3 2.133056 1_555
O17 P6 1.536750 1_555
O17 Zr3 2.189119 1_555
O18 P3 1.583603 1_655
O18 Zr0 2.067053 1_555
O19 P3 1.612071 1_555
O19 Zr4 2.143833 1_555
O20 Si1 1.626563 1_555
O20 Zr4 2.017149 1_555
O21 Si3 1.633986 1_555
O21 Zr0 2.011642 1_556
O22 P3 1.632793 1_555
O22 Zr5 2.095558 1_555
O23 Si3 1.622754 1_555
O23 Zr3 2.065189 1_555
O24 P4 1.538750 1_555
O24 Zr5 2.142802 1_545
O25 P4 1.545258 1_555
O25 Zr3 2.214428 1_555
O26 P5 1.543717 1_555
O26 Zr0 2.226309 1_556
O27 P5 1.576549 1_555
O27 Zr7 2.150188 1_655
O28 Si0 1.688790 1_455
O28 Zr4 2.149386 1_555
O28 Zr5 2.621810 1_545
O29 P6 1.568430 1_545
O29 Zr2 2.122064 1_555
O30 Si3 1.656415 1_555
O30 Zr7 1.989557 1_555
O31 Zr4 1.985206 1_555
O31 Zr3 2.056654 1_555
O32 P4 1.564832 1_555
O32 Zr2 2.183888 1_455
O33 Si2 1.577311 1_455
O34 P5 1.551239 1_555
O34 Zr6 2.407347 1_545
O35 P1 1.553464 1_555
O35 Zr3 2.188500 1_555
O36 P6 1.548371 1_555
O36 Zr6 2.107525 1_555
O37 P6 1.546223 1_555
O37 Zr5 2.286895 1_555
O38 P7 1.589996 1_645
O38 Zr2 2.051242 1_555
O39 P7 1.609241 1_555
O39 Zr6 2.154623 1_555
O40 Si3 1.627476 1_555
O40 Zr6 1.931838 1_555
O41 P7 1.643795 1_545
O41 Zr7 1.960208 1_555
O42 O44 1.482997 1_565
O42 P0 1.790915 1_556
O42 Zr6 2.388089 1_555
O43 Si2 1.674847 1_455
O43 Zr6 2.196895 1_555
O43 Zr7 2.844139 1_555
O44 Zr6 2.151018 1_545
O44 Zr1 2.266062 1_556
O45 P5 1.555695 1_554
O45 Zr1 2.169165 1_555
