# generated using pymatgen
data_Li4MnP6(H4O11)2
_symmetry_space_group_name_H-M   'P 1'
_cell_length_a   7.01120700
_cell_length_b   7.49344322
_cell_length_c   8.57368673
_cell_angle_alpha   84.98040173
_cell_angle_beta   76.32377806
_cell_angle_gamma   86.00004733
_symmetry_Int_Tables_number   1
_chemical_formula_structural   Li4MnP6(H4O11)2
_chemical_formula_sum   'Li4 Mn1 P6 H8 O22'
_cell_volume   435.43457321
_cell_formula_units_Z   1
loop_
 _symmetry_equiv_pos_site_id
 _symmetry_equiv_pos_as_xyz
  1  'x, y, z'
loop_
 _atom_site_type_symbol
 _atom_site_label
 _atom_site_symmetry_multiplicity
 _atom_site_fract_x
 _atom_site_fract_y
 _atom_site_fract_z
 _atom_site_occupancy
  Li  Li0  1  0.93497600  0.64862100  0.41542600  1
  Li  Li1  1  0.67899600  0.55865500  0.76220100  1
  Li  Li2  1  0.32100400  0.44134500  0.23779900  1
  Li  Li3  1  0.06502400  0.35137900  0.58457400  1
  Mn  Mn0  1  0.00000000  0.00000000  0.00000000  1
  P  P0  1  0.77798800  0.98172800  0.69098500  1
  P  P1  1  0.55667900  0.78588700  0.16667400  1
  P  P2  1  0.34533900  0.70696500  0.49376400  1
  P  P3  1  0.65466100  0.29303500  0.50623600  1
  P  P4  1  0.44332100  0.21411300  0.83332600  1
  P  P5  1  0.22201200  0.01827200  0.30901500  1
  H  H0  1  0.26723200  0.74946500  0.81007400  1
  H  H1  1  0.27744400  0.72159400  0.99224200  1
  H  H2  1  0.98312700  0.60958400  0.11566000  1
  H  H3  1  0.03625800  0.58782200  0.81361500  1
  H  H4  1  0.96374200  0.41217800  0.18638500  1
  H  H5  1  0.01687300  0.39041600  0.88434000  1
  H  H6  1  0.72255600  0.27840600  0.00775800  1
  H  H7  1  0.73276800  0.25053500  0.18992600  1
  O  O0  1  0.43671500  0.97923000  0.18777700  1
  O  O1  1  0.25313600  0.91020700  0.47541900  1
  O  O2  1  0.80164300  0.78664000  0.66103100  1
  O  O3  1  0.06859200  0.93130900  0.24869700  1
  O  O4  1  0.76642300  0.81907100  0.08667200  1
  O  O5  1  0.18540400  0.76443700  0.92234100  1
  O  O6  1  0.54796600  0.71750600  0.35415400  1
  O  O7  1  0.40253200  0.67739100  0.65074800  1
  O  O8  1  0.45199100  0.65553200  0.09718700  1
  O  O9  1  0.98096000  0.47501600  0.80075100  1
  O  O10  1  0.20889000  0.57883600  0.45301200  1
  O  O11  1  0.79111000  0.42116400  0.54698800  1
  O  O12  1  0.01904000  0.52498400  0.19924900  1
  O  O13  1  0.54800900  0.34446800  0.90281300  1
  O  O14  1  0.59746800  0.32260900  0.34925200  1
  O  O15  1  0.45203400  0.28249400  0.64584600  1
  O  O16  1  0.81459600  0.23556300  0.07765900  1
  O  O17  1  0.23357700  0.18092900  0.91332800  1
  O  O18  1  0.93140800  0.06869100  0.75130300  1
  O  O19  1  0.19835700  0.21336000  0.33896900  1
  O  O20  1  0.74686400  0.08979300  0.52458100  1
  O  O21  1  0.56328500  0.02077000  0.81222300  1
loop_
_geom_bond_atom_site_label_1
_geom_bond_atom_site_label_2
_geom_bond_distance
_geom_bond_site_symmetry_2
Li0 O10 2.046594 1_655
Li0 O12 2.085350 1_655
Li0 O11 2.135475 1_555
Li0 O2 2.386015 1_555
Li0 O3 2.553815 1_655
Li1 O2 2.000838 1_555
Li1 O13 2.053367 1_555
Li1 O11 2.148916 1_555
Li1 O9 2.256949 1_555
Li1 O7 2.438934 1_555
Li2 O19 2.000838 1_555
Li2 O8 2.053367 1_555
Li2 O10 2.148916 1_555
Li2 O12 2.256949 1_555
Li2 O14 2.438934 1_555
Li3 O11 2.046594 1_455
Li3 O9 2.085350 1_455
Li3 O10 2.135475 1_555
Li3 O19 2.386015 1_555
Li3 O18 2.553815 1_455
Mn0 O17 2.151804 1_554
Mn0 O4 2.151804 1_445
Mn0 O16 2.173754 1_455
Mn0 O5 2.173754 1_544
Mn0 O3 2.302393 1_545
Mn0 O18 2.302393 1_454
H0 O5 1.008469 1_555
H0 O7 1.581904 1_555
H1 O5 0.999486 1_555
H1 O8 1.706021 1_556
H2 O12 0.981047 1_655
H3 O9 0.979427 1_455
H4 O12 0.979427 1_655
H5 O9 0.981047 1_455
H6 O16 0.999486 1_555
H6 O13 1.706021 1_554
H7 O16 1.008469 1_555
H7 O14 1.581904 1_555
O0 P1 1.625765 1_555
O0 P5 1.638272 1_565
O1 P2 1.622013 1_555
O1 P5 1.630710 1_565
O2 P0 1.497427 1_555
O3 P5 1.506302 1_565
O4 P1 1.496345 1_555
O6 P2 1.628575 1_555
O6 P1 1.632120 1_555
O7 P2 1.487298 1_555
O8 P1 1.502152 1_555
O10 P2 1.517910 1_555
O11 P3 1.517910 1_555
O13 P4 1.502152 1_555
O14 P3 1.487298 1_555
O15 P3 1.628575 1_555
O15 P4 1.632120 1_555
O17 P4 1.496345 1_555
O18 P0 1.506302 1_545
O19 P5 1.497427 1_555
O20 P3 1.622013 1_555
O20 P0 1.630710 1_545
O21 P4 1.625765 1_555
O21 P0 1.638272 1_545
