# generated using pymatgen
data_Na13Ca7S12Cl(O24F)2
_symmetry_space_group_name_H-M   'P 1'
_cell_length_a   9.60988700
_cell_length_b   9.61193421
_cell_length_c   13.90189473
_cell_angle_alpha   90.01842219
_cell_angle_beta   89.99240419
_cell_angle_gamma   119.85800694
_symmetry_Int_Tables_number   1
_chemical_formula_structural   Na13Ca7S12Cl(O24F)2
_chemical_formula_sum   'Na13 Ca7 S12 Cl1 O48 F2'
_cell_volume   1113.66172535
_cell_formula_units_Z   1
loop_
 _symmetry_equiv_pos_site_id
 _symmetry_equiv_pos_as_xyz
  1  'x, y, z'
loop_
 _atom_site_type_symbol
 _atom_site_label
 _atom_site_symmetry_multiplicity
 _atom_site_fract_x
 _atom_site_fract_y
 _atom_site_fract_z
 _atom_site_occupancy
  Na  Na0  1  0.00897900  0.72566700  0.87629400  1
  Na  Na1  1  0.01097200  0.73835000  0.37594100  1
  Na  Na2  1  0.71613700  0.98973500  0.87629900  1
  Na  Na3  1  0.72527700  0.98771300  0.37603000  1
  Na  Na4  1  0.33309800  0.66767300  0.99321900  1
  Na  Na5  1  0.33380100  0.67324200  0.49341200  1
  Na  Na6  1  0.33304600  0.66752600  0.75818400  1
  Na  Na7  1  0.33406100  0.67346900  0.25434700  1
  Na  Na8  1  0.27382800  0.28397700  0.87643600  1
  Na  Na9  1  0.66737800  0.33363300  0.75528500  1
  Na  Na10  1  0.67317300  0.33542700  0.25190600  1
  Na  Na11  1  0.67307800  0.33634200  0.49956500  1
  Na  Na12  1  0.66757100  0.33377600  0.99681100  1
  Ca  Ca0  1  0.75669800  0.75312500  0.62371000  1
  Ca  Ca1  1  0.76008800  0.75689500  0.12701300  1
  Ca  Ca2  1  0.25996400  0.26764300  0.37437300  1
  Ca  Ca3  1  0.24648000  0.00150600  0.62606400  1
  Ca  Ca4  1  0.24281800  0.00084600  0.12506400  1
  Ca  Ca5  1  0.99374100  0.24315700  0.62476800  1
  Ca  Ca6  1  0.99381800  0.23988500  0.12580800  1
  S  S0  1  0.61016000  0.97305700  0.62531800  1
  S  S1  1  0.60688100  0.97234400  0.12385400  1
  S  S2  1  0.02728700  0.63684500  0.62541400  1
  S  S3  1  0.02798200  0.63419000  0.12366700  1
  S  S4  1  0.64322200  0.61976500  0.87486500  1
  S  S5  1  0.63095000  0.60465200  0.37569200  1
  S  S6  1  0.36382800  0.38911700  0.62435300  1
  S  S7  1  0.36681700  0.39281700  0.12459100  1
  S  S8  1  0.97646900  0.35598700  0.87495800  1
  S  S9  1  0.97387300  0.36580000  0.37589300  1
  S  S10  1  0.37996600  0.02416900  0.87506000  1
  S  S11  1  0.39486900  0.03122300  0.37620300  1
  Cl  Cl0  1  0.99824800  0.99880100  0.32842000  1
  O  O0  1  0.08759500  0.74649600  0.54049500  1
  O  O1  1  0.08643100  0.74316000  0.03836400  1
  O  O2  1  0.08514300  0.74332400  0.71185700  1
  O  O3  1  0.08838500  0.74108500  0.20988000  1
  O  O4  1  0.31725200  0.84851800  0.87472600  1
  O  O5  1  0.32255300  0.85486500  0.37400300  1
  O  O6  1  0.43237800  0.90317300  0.62472800  1
  O  O7  1  0.42925800  0.90295000  0.12259700  1
  O  O8  1  0.65882600  0.91468400  0.71143400  1
  O  O9  1  0.65343400  0.91271700  0.21035200  1
  O  O10  1  0.65927200  0.91320800  0.54003000  1
  O  O11  1  0.65710600  0.91317200  0.03880100  1
  O  O12  1  0.09759000  0.52908100  0.62485500  1
  O  O13  1  0.09781800  0.52620100  0.12203200  1
  O  O14  1  0.52997600  0.68264900  0.87468200  1
  O  O15  1  0.52135000  0.67195100  0.37435300  1
  O  O16  1  0.15236100  0.46824400  0.87471800  1
  O  O17  1  0.15327800  0.46663400  0.37375000  1
  O  O18  1  0.46905900  0.56627200  0.62358000  1
  O  O19  1  0.47221800  0.56973500  0.12330700  1
  O  O20  1  0.75008200  0.67818100  0.96122500  1
  O  O21  1  0.74985600  0.67796200  0.78818100  1
  O  O22  1  0.74141200  0.66647300  0.45975300  1
  O  O23  1  0.72559800  0.64202800  0.28536200  1
  O  O24  1  0.25394700  0.33908500  0.70885200  1
  O  O25  1  0.25556600  0.33849600  0.53771400  1
  O  O26  1  0.26167700  0.34530200  0.21255800  1
  O  O27  1  0.25424600  0.34078300  0.04137400  1
  O  O28  1  0.55349500  0.44060500  0.87472900  1
  O  O29  1  0.53523500  0.42476600  0.38400000  1
  O  O30  1  0.84846600  0.54123400  0.62477600  1
  O  O31  1  0.84920900  0.53973000  0.12413600  1
  O  O32  1  0.46000600  0.30640700  0.62442900  1
  O  O33  1  0.46184300  0.30899900  0.12426000  1
  O  O34  1  0.88718900  0.44603000  0.87484500  1
  O  O35  1  0.89660500  0.46543500  0.38633900  1
  O  O36  1  0.32111400  0.07255900  0.96140100  1
  O  O37  1  0.32773100  0.08076300  0.45906100  1
  O  O38  1  0.32110900  0.07275600  0.78860700  1
  O  O39  1  0.35582600  0.09217400  0.28661000  1
  O  O40  1  0.55899100  0.11350000  0.87487700  1
  O  O41  1  0.57205800  0.11272200  0.38584900  1
  O  O42  1  0.69296400  0.15202100  0.62505600  1
  O  O43  1  0.69060000  0.15123800  0.12376100  1
  O  O44  1  0.92795100  0.24892200  0.78845400  1
  O  O45  1  0.92807800  0.24898500  0.96123000  1
  O  O46  1  0.91559300  0.27239000  0.28479000  1
  O  O47  1  0.92691600  0.25259600  0.45912900  1
  F  F0  1  0.00055600  0.00087400  0.62638500  1
  F  F1  1  0.00024100  0.00051000  0.10389600  1
loop_
_geom_bond_atom_site_label_1
_geom_bond_atom_site_label_2
_geom_bond_distance
_geom_bond_site_symmetry_2
Na0 O34 2.337182 1_455
Na0 O1 2.352493 1_556
Na0 O2 2.380414 1_555
Na0 O20 2.580938 1_455
Na0 O4 2.586099 1_555
Na0 O21 2.602896 1_455
Na1 O35 2.289041 1_455
Na1 O0 2.392576 1_555
Na1 O3 2.421507 1_555
Na1 O22 2.600575 1_455
Na1 O5 2.623279 1_555
Na1 O23 2.726843 1_455
Na2 O40 2.342003 1_565
Na2 O11 2.356247 1_556
Na2 O8 2.383352 1_555
Na2 O14 2.579839 1_555
Na2 O45 2.587874 1_565
Na2 O44 2.606379 1_565
Na3 O41 2.322047 1_565
Na3 O10 2.379402 1_555
Na3 O9 2.409358 1_555
Na3 O47 2.580316 1_565
Na3 O15 2.670276 1_555
Na3 O46 2.731258 1_565
Na4 O4 2.454336 1_555
Na4 O14 2.458450 1_555
Na4 O16 2.467533 1_555
Na4 O13 2.665931 1_556
Na4 O7 2.668359 1_556
Na4 O19 2.683095 1_556
Na4 O1 2.872490 1_556
Na4 O11 2.889384 1_556
Na4 O27 2.919818 1_556
Na5 O5 2.450461 1_555
Na5 O15 2.451428 1_555
Na5 O17 2.507782 1_555
Na5 O6 2.650977 1_555
Na5 O12 2.698236 1_555
Na5 O18 2.711791 1_555
Na5 O0 2.860120 1_555
Na5 O10 2.887766 1_555
Na5 O25 2.981563 1_555
Na6 O4 2.436282 1_555
Na6 O14 2.439726 1_555
Na6 O16 2.449110 1_555
Na6 O12 2.706962 1_555
Na6 O6 2.707958 1_555
Na6 O18 2.724341 1_555
Na6 O2 2.889630 1_555
Na6 O8 2.909020 1_555
Na6 O24 2.936637 1_555
Na7 O5 2.451404 1_555
Na7 O15 2.459636 1_555
Na7 O17 2.507659 1_555
Na7 O7 2.655159 1_555
Na7 O13 2.709418 1_555
Na7 O19 2.718788 1_555
Na7 O3 2.811928 1_555
Na7 O9 2.838103 1_555
Na7 O26 2.930068 1_555
Na8 O28 2.336957 1_555
Na8 O27 2.385908 1_556
Na8 O24 2.417937 1_555
Na8 O16 2.561004 1_555
Na8 O36 2.579223 1_555
Na8 O38 2.595364 1_555
Na9 O34 2.473726 1_555
Na9 O28 2.476094 1_555
Na9 O40 2.476573 1_555
Na9 O42 2.609713 1_555
Na9 O32 2.613522 1_555
Na9 O30 2.616458 1_555
Na10 O31 2.562581 1_555
Na10 O43 2.574707 1_555
Na10 O33 2.612438 1_555
Na10 O41 2.631487 1_555
Na10 O35 2.644330 1_555
Na10 O29 2.645465 1_555
Na10 O46 2.721988 1_555
Na10 O23 2.770552 1_555
Na10 O39 2.810789 1_555
Na11 O35 2.444981 1_555
Na11 O41 2.445840 1_555
Na11 O29 2.486087 1_555
Na11 O30 2.538257 1_555
Na11 O42 2.560872 1_555
Na11 O32 2.588698 1_555
Na12 O34 2.495228 1_555
Na12 O40 2.498688 1_555
Na12 O28 2.501801 1_555
Na12 O43 2.575033 1_556
Na12 O33 2.575865 1_556
Na12 O31 2.580073 1_556
Ca0 F0 2.367978 1_665
Ca0 O21 2.389119 1_555
Ca0 O22 2.405743 1_555
Ca0 O18 2.433758 1_555
Ca0 O10 2.456288 1_555
Ca0 O8 2.497220 1_555
Ca0 O30 2.591221 1_555
Ca1 F1 2.352019 1_665
Ca1 O23 2.410772 1_555
Ca1 O20 2.412495 1_554
Ca1 O19 2.436513 1_555
Ca1 O9 2.482559 1_555
Ca1 O11 2.494256 1_555
Ca1 O31 2.621489 1_555
Ca2 O29 2.306194 1_555
Ca2 O26 2.367848 1_555
Ca2 O25 2.376875 1_555
Ca2 O37 2.490612 1_555
Ca2 O17 2.581109 1_555
Ca2 O39 2.593698 1_555
Ca2 Cl0 2.634256 1_445
Ca3 F0 2.360287 1_555
Ca3 O38 2.366388 1_555
Ca3 O6 2.401325 1_545
Ca3 O37 2.447142 1_555
Ca3 O0 2.454915 1_545
Ca3 O2 2.480960 1_545
Ca3 O32 2.610019 1_555
Ca4 F1 2.348083 1_555
Ca4 O36 2.387898 1_554
Ca4 O7 2.403185 1_545
Ca4 O39 2.458399 1_555
Ca4 O1 2.477567 1_545
Ca4 O3 2.477641 1_545
Ca4 O33 2.644982 1_555
Ca5 F0 2.362210 1_655
Ca5 O44 2.369667 1_555
Ca5 O47 2.404491 1_555
Ca5 O12 2.412068 1_655
Ca5 O24 2.484687 1_655
Ca5 O25 2.517790 1_655
Ca5 O42 2.569214 1_555
Ca6 F1 2.351913 1_655
Ca6 O45 2.386838 1_554
Ca6 O46 2.404259 1_555
Ca6 O13 2.415949 1_655
Ca6 O27 2.482940 1_655
Ca6 O26 2.551486 1_655
Ca6 O43 2.597196 1_555
Cl0 Na1 2.650371 1_655
Cl0 Na3 2.655546 1_555
O0 S2 1.494252 1_555
O1 S3 1.494554 1_555
O2 S2 1.494503 1_555
O3 S3 1.494870 1_555
O4 S10 1.483440 1_565
O5 S11 1.477968 1_565
O6 S0 1.492463 1_555
O7 S1 1.491707 1_555
O8 S0 1.492854 1_555
O9 S1 1.493478 1_555
O10 S0 1.493059 1_555
O11 S1 1.492400 1_555
O12 S2 1.492051 1_555
O13 S3 1.490610 1_555
O14 S4 1.484816 1_555
O15 S5 1.485435 1_555
O16 S8 1.485051 1_455
O17 S9 1.499616 1_455
O18 S6 1.485842 1_555
O19 S7 1.484257 1_555
O20 S4 1.495644 1_555
O21 S4 1.498181 1_555
O22 S5 1.489091 1_555
O23 S5 1.485905 1_555
O24 S6 1.490170 1_555
O25 S6 1.505242 1_555
O26 S7 1.505166 1_555
O27 S7 1.489970 1_555
O28 S4 1.493498 1_555
O29 S5 1.505173 1_555
O30 S2 1.491723 1_655
O31 S3 1.490890 1_655
O32 S6 1.489269 1_555
O33 S7 1.488477 1_555
O34 S8 1.491496 1_555
O35 S9 1.482415 1_555
O36 S10 1.496099 1_555
O37 S11 1.508376 1_555
O38 S10 1.498679 1_555
O39 S11 1.501588 1_555
O40 S10 1.492050 1_555
O41 S11 1.484214 1_555
O42 S0 1.493094 1_545
O43 S1 1.492163 1_545
O44 S8 1.498068 1_555
O45 S8 1.495628 1_555
O46 S9 1.490840 1_555
O47 S9 1.496111 1_555
