# generated using pymatgen
data_Ba8Mn8O23
_symmetry_space_group_name_H-M   'P 1'
_cell_length_a   5.73454913
_cell_length_b   5.73454913
_cell_length_c   19.07625445
_cell_angle_alpha   90.00000000
_cell_angle_beta   90.00000000
_cell_angle_gamma   120.38364789
_symmetry_Int_Tables_number   1
_chemical_formula_structural   Ba8Mn8O23
_chemical_formula_sum   'Ba8 Mn8 O23'
_cell_volume   541.16580116
_cell_formula_units_Z   1
loop_
 _symmetry_equiv_pos_site_id
 _symmetry_equiv_pos_as_xyz
  1  'x, y, z'
loop_
 _atom_site_type_symbol
 _atom_site_label
 _atom_site_symmetry_multiplicity
 _atom_site_fract_x
 _atom_site_fract_y
 _atom_site_fract_z
 _atom_site_occupancy
  Ba  Ba0  1  0.66961486  0.33038514  0.86309081  1
  Ba  Ba1  1  0.66581787  0.33418213  0.62313597  1
  Ba  Ba2  1  0.99983289  0.00016711  0.00000000  1
  Ba  Ba3  1  0.66581787  0.33418213  0.37686403  1
  Ba  Ba4  1  0.66961486  0.33038514  0.13690919  1
  Ba  Ba5  1  0.33117467  0.66882533  0.25554595  1
  Ba  Ba6  1  0.33287981  0.66712019  0.50000000  1
  Ba  Ba7  1  0.33117467  0.66882533  0.74445405  1
  Mn  Mn0  1  0.99619561  0.00380439  0.30660202  1
  Mn  Mn1  1  0.99835573  0.00164427  0.82447500  1
  Mn  Mn2  1  0.99619561  0.00380439  0.69339798  1
  Mn  Mn3  1  -0.00053011  0.00053011  0.56432211  1
  Mn  Mn4  1  -0.00053011  0.00053011  0.43567789  1
  Mn  Mn5  1  0.99835573  0.00164427  0.17552500  1
  Mn  Mn6  1  0.32816928  0.67183072  0.07182115  1
  Mn  Mn7  1  0.32816928  0.67183072  0.92817885  1
  O  O0  1  0.29613193  0.14873268  0.50000000  1
  O  O1  1  0.28905248  0.15093984  0.75559921  1
  O  O2  1  0.28905248  0.15093984  0.24440079  1
  O  O3  1  0.84906016  0.71094752  0.75559921  1
  O  O4  1  0.84906016  0.71094752  0.24440079  1
  O  O5  1  0.85126732  0.70386807  0.50000000  1
  O  O6  1  0.84791852  0.15208148  0.75414613  1
  O  O7  1  0.84791852  0.15208148  0.24585387  1
  O  O8  1  0.06260741  0.50405472  0.00000000  1
  O  O9  1  0.14533952  0.85466048  0.37189360  1
  O  O10  1  0.14533952  0.85466048  0.62810640  1
  O  O11  1  0.15724779  0.84275221  0.87513534  1
  O  O12  1  0.15724779  0.84275221  0.12486466  1
  O  O13  1  0.85221189  0.14778811  0.50000000  1
  O  O14  1  0.14749133  0.29781607  0.62703564  1
  O  O15  1  0.14749133  0.29781607  0.37296436  1
  O  O16  1  0.49594528  0.93739259  0.00000000  1
  O  O17  1  0.17355831  0.33111671  0.87816389  1
  O  O18  1  0.17355831  0.33111671  0.12183611  1
  O  O19  1  0.66888329  0.82644169  0.87816389  1
  O  O20  1  0.66888329  0.82644169  0.12183611  1
  O  O21  1  0.70218393  0.85250867  0.62703564  1
  O  O22  1  0.70218393  0.85250867  0.37296436  1
loop_
_geom_bond_atom_site_label_1
_geom_bond_atom_site_label_2
_geom_bond_distance
_geom_bond_site_symmetry_2
Ba0 O6 2.732712 1_555
Ba0 O3 2.784703 1_555
Ba0 O1 2.784703 1_555
Ba0 O17 2.861269 1_555
Ba0 O19 2.861269 1_555
Ba0 O11 2.862523 1_545
Ba0 O11 2.862523 1_655
Ba0 O17 2.902049 1_655
Ba0 O19 2.902049 1_545
Ba0 O8 3.259043 1_656
Ba0 O16 3.259043 1_546
Ba1 O10 2.859480 1_655
Ba1 O10 2.859480 1_545
Ba1 O21 2.873493 1_555
Ba1 O14 2.873493 1_555
Ba1 O14 2.874259 1_655
Ba1 O21 2.874259 1_545
Ba1 O5 2.976967 1_555
Ba1 O0 2.976967 1_555
Ba1 O13 2.993067 1_555
Ba1 O6 3.087071 1_555
Ba1 O3 3.140208 1_555
Ba1 O1 3.140208 1_555
Ba2 O8 2.725244 1_655
Ba2 O16 2.725244 1_545
Ba2 O19 2.843153 1_544
Ba2 O17 2.843153 1_654
Ba2 O18 2.843153 1_655
Ba2 O20 2.843153 1_545
Ba2 O11 2.850919 1_644
Ba2 O12 2.850919 1_645
Ba2 O16 3.042944 1_645
Ba2 O8 3.042944 1_645
Ba3 O9 2.859480 1_545
Ba3 O9 2.859480 1_655
Ba3 O22 2.873493 1_555
Ba3 O15 2.873493 1_555
Ba3 O15 2.874259 1_655
Ba3 O22 2.874259 1_545
Ba3 O5 2.976967 1_555
Ba3 O0 2.976967 1_555
Ba3 O13 2.993067 1_555
Ba3 O7 3.087071 1_555
Ba3 O2 3.140208 1_555
Ba3 O4 3.140208 1_555
Ba4 O7 2.732712 1_555
Ba4 O4 2.784703 1_555
Ba4 O2 2.784703 1_555
Ba4 O20 2.861269 1_555
Ba4 O18 2.861269 1_555
Ba4 O12 2.862523 1_545
Ba4 O12 2.862523 1_655
Ba4 O20 2.902049 1_545
Ba4 O18 2.902049 1_655
Ba4 O8 3.259043 1_655
Ba4 O16 3.259043 1_545
Ba5 O7 2.861477 1_455
Ba5 O7 2.861477 1_565
Ba5 O2 2.863184 1_555
Ba5 O4 2.863184 1_555
Ba5 O9 2.888988 1_555
Ba5 O22 2.895903 1_555
Ba5 O15 2.895903 1_555
Ba5 O4 2.902192 1_455
Ba5 O2 2.902192 1_565
Ba5 O12 3.034878 1_555
Ba5 O18 3.050034 1_555
Ba5 O20 3.050034 1_555
Ba6 O13 2.857116 1_565
Ba6 O13 2.857116 1_455
Ba6 O0 2.871892 1_555
Ba6 O5 2.871892 1_555
Ba6 O0 2.874171 1_565
Ba6 O5 2.874171 1_455
Ba6 O14 3.034870 1_555
Ba6 O15 3.034870 1_555
Ba6 O22 3.034870 1_555
Ba6 O21 3.034870 1_555
Ba6 O10 3.074953 1_555
Ba6 O9 3.074953 1_555
Ba7 O6 2.861477 1_565
Ba7 O6 2.861477 1_455
Ba7 O1 2.863184 1_555
Ba7 O3 2.863184 1_555
Ba7 O10 2.888988 1_555
Ba7 O21 2.895903 1_555
Ba7 O14 2.895903 1_555
Ba7 O1 2.902192 1_565
Ba7 O3 2.902192 1_455
Ba7 O11 3.034878 1_555
Ba7 O19 3.050034 1_555
Ba7 O17 3.050034 1_555
Mn0 O4 1.872658 1_545
Mn0 O2 1.872658 1_655
Mn0 O7 1.876256 1_555
Mn0 O22 1.928289 1_545
Mn0 O15 1.928289 1_655
Mn0 O9 1.937591 1_645
Mn1 O11 1.853179 1_645
Mn1 O17 1.925587 1_655
Mn1 O19 1.925587 1_545
Mn1 O3 1.947950 1_545
Mn1 O1 1.947950 1_655
Mn1 O6 2.010282 1_555
Mn2 O3 1.872658 1_545
Mn2 O1 1.872658 1_655
Mn2 O6 1.876256 1_555
Mn2 O14 1.928289 1_655
Mn2 O21 1.928289 1_545
Mn2 O10 1.937591 1_645
Mn3 O10 1.894148 1_545
Mn3 O21 1.895851 1_445
Mn3 O14 1.895851 1_555
Mn3 O13 1.911328 1_455
Mn3 O5 1.912975 1_445
Mn3 O0 1.912975 1_555
Mn4 O9 1.894148 1_545
Mn4 O22 1.895851 1_445
Mn4 O15 1.895851 1_555
Mn4 O13 1.911328 1_455
Mn4 O5 1.912975 1_445
Mn4 O0 1.912975 1_555
Mn5 O12 1.853179 1_645
Mn5 O20 1.925587 1_545
Mn5 O18 1.925587 1_655
Mn5 O4 1.947950 1_545
Mn5 O2 1.947950 1_655
Mn5 O7 2.010282 1_555
Mn6 O8 1.907825 1_555
Mn6 O16 1.907825 1_555
Mn6 O18 1.939465 1_555
Mn6 O20 1.939465 1_555
Mn6 O12 1.979174 1_555
Mn7 O8 1.907825 1_556
Mn7 O16 1.907825 1_556
Mn7 O17 1.939465 1_555
Mn7 O19 1.939465 1_555
Mn7 O11 1.979174 1_555
