# generated using pymatgen
data_LiNbFeO4
_symmetry_space_group_name_H-M   'P 1'
_cell_length_a   6.28749500
_cell_length_b   6.28749500
_cell_length_c   8.40819200
_cell_angle_alpha   90.00000000
_cell_angle_beta   90.00000000
_cell_angle_gamma   90.00000000
_symmetry_Int_Tables_number   1
_chemical_formula_structural   LiNbFeO4
_chemical_formula_sum   'Li4 Nb4 Fe4 O16'
_cell_volume   332.39763536
_cell_formula_units_Z   4
loop_
 _symmetry_equiv_pos_site_id
 _symmetry_equiv_pos_as_xyz
  1  'x, y, z'
loop_
 _atom_site_type_symbol
 _atom_site_label
 _atom_site_symmetry_multiplicity
 _atom_site_fract_x
 _atom_site_fract_y
 _atom_site_fract_z
 _atom_site_occupancy
  Li  Li0  1  0.50000000  0.72021300  0.00000000  1
  Li  Li1  1  0.50000000  0.27978700  0.50000000  1
  Li  Li2  1  0.72021300  0.50000000  0.25000000  1
  Li  Li3  1  0.27978700  0.50000000  0.75000000  1
  Nb  Nb0  1  0.71475000  0.00000000  0.25000000  1
  Nb  Nb1  1  0.00000000  0.71475000  0.00000000  1
  Nb  Nb2  1  0.00000000  0.28525000  0.50000000  1
  Nb  Nb3  1  0.28525000  0.00000000  0.75000000  1
  Fe  Fe0  1  0.75978200  0.75978200  0.62500000  1
  Fe  Fe1  1  0.75978200  0.24021800  0.87500000  1
  Fe  Fe2  1  0.24021800  0.75978200  0.37500000  1
  Fe  Fe3  1  0.24021800  0.24021800  0.12500000  1
  O  O0  1  0.52394900  0.76556200  0.25684900  1
  O  O1  1  0.52394900  0.23443800  0.24315100  1
  O  O2  1  0.76556200  0.52394900  0.99315100  1
  O  O3  1  0.76556200  0.47605100  0.50684900  1
  O  O4  1  0.76806300  0.97906400  0.01500900  1
  O  O5  1  0.76806300  0.02093600  0.48499100  1
  O  O6  1  0.97906400  0.76806300  0.23499100  1
  O  O7  1  0.97906400  0.23193700  0.26500900  1
  O  O8  1  0.02093600  0.76806300  0.76500900  1
  O  O9  1  0.02093600  0.23193700  0.73499100  1
  O  O10  1  0.23193700  0.02093600  0.51500900  1
  O  O11  1  0.23193700  0.97906400  0.98499100  1
  O  O12  1  0.23443800  0.52394900  0.00684900  1
  O  O13  1  0.23443800  0.47605100  0.49315100  1
  O  O14  1  0.47605100  0.76556200  0.74315100  1
  O  O15  1  0.47605100  0.23443800  0.75684900  1
loop_
_geom_bond_atom_site_label_1
_geom_bond_atom_site_label_2
_geom_bond_distance
_geom_bond_site_symmetry_2
Li0 O2 2.077031 1_554
Li0 O12 2.077031 1_555
Li0 O14 2.183575 1_554
Li0 O0 2.183575 1_555
Li0 O4 2.346377 1_555
Li0 O11 2.346377 1_554
Li1 O3 2.077031 1_555
Li1 O13 2.077031 1_555
Li1 O1 2.183575 1_555
Li1 O15 2.183575 1_555
Li1 O10 2.346377 1_555
Li1 O5 2.346377 1_555
Li2 O0 2.077031 1_555
Li2 O1 2.077031 1_555
Li2 O2 2.183575 1_554
Li2 O3 2.183575 1_555
Li2 O6 2.346377 1_555
Li2 O7 2.346377 1_555
Li3 O15 2.077031 1_555
Li3 O14 2.077031 1_555
Li3 O13 2.183575 1_555
Li3 O12 2.183575 1_556
Li3 O9 2.346377 1_555
Li3 O8 2.346377 1_555
Nb0 O0 1.901383 1_545
Nb0 O1 1.901383 1_555
Nb0 O5 2.008400 1_555
Nb0 O4 2.008400 1_545
Nb0 O7 2.214587 1_555
Nb0 O6 2.214587 1_545
Nb1 O12 1.901383 1_555
Nb1 O2 1.901383 1_454
Nb1 O8 2.008400 1_554
Nb1 O6 2.008400 1_455
Nb1 O4 2.214587 1_455
Nb1 O11 2.214587 1_554
Nb2 O13 1.901383 1_555
Nb2 O3 1.901383 1_455
Nb2 O9 2.008400 1_555
Nb2 O7 2.008400 1_455
Nb2 O5 2.214587 1_455
Nb2 O10 2.214587 1_555
Nb3 O14 1.901383 1_545
Nb3 O15 1.901383 1_555
Nb3 O10 2.008400 1_555
Nb3 O11 2.008400 1_545
Nb3 O8 2.214587 1_545
Nb3 O9 2.214587 1_555
Fe0 O5 2.021075 1_565
Fe0 O8 2.021075 1_655
Fe0 O3 2.042239 1_555
Fe0 O14 2.042239 1_555
Fe1 O4 2.021075 1_546
Fe1 O9 2.021075 1_655
Fe1 O2 2.042239 1_555
Fe1 O15 2.042239 1_555
Fe2 O6 2.021075 1_455
Fe2 O10 2.021075 1_565
Fe2 O0 2.042239 1_555
Fe2 O13 2.042239 1_555
Fe3 O7 2.021075 1_455
Fe3 O11 2.021075 1_544
Fe3 O1 2.042239 1_555
Fe3 O12 2.042239 1_555
