# generated using pymatgen
data_Li3Mn4O8
_symmetry_space_group_name_H-M   'P 1'
_cell_length_a   6.02758651
_cell_length_b   8.28105071
_cell_length_c   6.11513414
_cell_angle_alpha   88.20938533
_cell_angle_beta   94.00445627
_cell_angle_gamma   89.41017738
_symmetry_Int_Tables_number   1
_chemical_formula_structural   Li3Mn4O8
_chemical_formula_sum   'Li6 Mn8 O16'
_cell_volume   304.31768201
_cell_formula_units_Z   2
loop_
 _symmetry_equiv_pos_site_id
 _symmetry_equiv_pos_as_xyz
  1  'x, y, z'
loop_
 _atom_site_type_symbol
 _atom_site_label
 _atom_site_symmetry_multiplicity
 _atom_site_fract_x
 _atom_site_fract_y
 _atom_site_fract_z
 _atom_site_occupancy
  Li  Li0  1  0.00000300  0.49999800  0.50000000  1
  Li  Li1  1  0.49999900  0.99999900  0.00000100  1
  Li  Li2  1  0.99999900  0.49999800  0.00000100  1
  Li  Li3  1  0.49999900  0.99999900  0.49999900  1
  Li  Li4  1  0.25017500  0.25009300  0.24989700  1
  Li  Li5  1  0.74982300  0.74990600  0.75010600  1
  Mn  Mn0  1  0.99999000  0.00000100  0.50002300  1
  Mn  Mn1  1  0.24957600  0.75041600  0.74963500  1
  Mn  Mn2  1  0.75043200  0.24957800  0.25036800  1
  Mn  Mn3  1  0.49998100  0.50000300  0.99996600  1
  Mn  Mn4  1  0.75040100  0.24972900  0.74971800  1
  Mn  Mn5  1  0.24959600  0.75027600  0.25028300  1
  Mn  Mn6  1  0.00000800  0.00000100  0.00000100  1
  Mn  Mn7  1  0.50001800  0.50000800  0.49998700  1
  O  O0  1  0.03896300  0.75978300  0.98025000  1
  O  O1  1  0.53920200  0.25951200  0.48029000  1
  O  O2  1  0.46079900  0.74049200  0.51971000  1
  O  O3  1  0.96103300  0.24021500  0.01974900  1
  O  O4  1  0.75897500  0.01502600  0.77160000  1
  O  O5  1  0.25857600  0.51545200  0.27180500  1
  O  O6  1  0.74143000  0.48454900  0.72819700  1
  O  O7  1  0.24102000  0.98497100  0.22840200  1
  O  O8  1  0.24385400  0.98262300  0.73064600  1
  O  O9  1  0.74361100  0.48210000  0.23098800  1
  O  O10  1  0.01083400  0.76273500  0.52385800  1
  O  O11  1  0.51151800  0.26265500  0.02438200  1
  O  O12  1  0.48848000  0.73734200  0.97561700  1
  O  O13  1  0.98916400  0.23726500  0.47614400  1
  O  O14  1  0.25638800  0.51790000  0.76901200  1
  O  O15  1  0.75615400  0.01737400  0.26936400  1
loop_
_geom_bond_atom_site_label_1
_geom_bond_atom_site_label_2
_geom_bond_distance
_geom_bond_site_symmetry_2
Li0 O5 2.165524 1_555
Li0 O6 2.165530 1_455
Li0 O13 2.186475 1_455
Li0 O10 2.186508 1_555
Li0 O14 2.186606 1_555
Li0 O9 2.186630 1_455
Li1 O4 2.168095 1_564
Li1 O7 2.168109 1_555
Li1 O11 2.186298 1_565
Li1 O12 2.186308 1_554
Li1 O8 2.186714 1_554
Li1 O15 2.186787 1_565
Li2 O3 2.166995 1_555
Li2 O0 2.167010 1_654
Li2 O9 2.168398 1_555
Li2 O14 2.168413 1_654
Li2 O6 2.205370 1_554
Li2 O5 2.205405 1_655
Li3 O2 2.164893 1_555
Li3 O1 2.164944 1_565
Li3 O15 2.165592 1_565
Li3 O8 2.165598 1_555
Li3 O7 2.205789 1_555
Li3 O4 2.205794 1_565
Li4 O11 2.166080 1_555
Li4 O3 2.166200 1_455
Li4 O1 2.166317 1_555
Li4 O13 2.167689 1_455
Li4 O7 2.204543 1_545
Li4 O5 2.206591 1_555
Li5 O12 2.166064 1_555
Li5 O0 2.166176 1_655
Li5 O2 2.166311 1_555
Li5 O10 2.167693 1_655
Li5 O4 2.204525 1_565
Li5 O6 2.206574 1_555
Mn0 O8 1.965629 1_645
Mn0 O15 1.965656 1_555
Mn0 O13 1.965732 1_555
Mn0 O10 1.965739 1_645
Mn0 O4 2.286943 1_555
Mn0 O7 2.287216 1_645
Mn1 O8 1.922604 1_555
Mn1 O10 1.923052 1_555
Mn1 O12 1.924719 1_555
Mn1 O14 1.925259 1_555
Mn1 O2 1.964609 1_555
Mn1 O0 1.965007 1_555
Mn2 O15 1.922581 1_555
Mn2 O13 1.923005 1_555
Mn2 O11 1.924778 1_555
Mn2 O9 1.925309 1_555
Mn2 O1 1.964629 1_555
Mn2 O3 1.964974 1_555
Mn3 O14 1.966024 1_555
Mn3 O9 1.966458 1_556
Mn3 O12 1.966546 1_555
Mn3 O11 1.966642 1_556
Mn3 O6 2.289897 1_555
Mn3 O5 2.290042 1_556
Mn4 O4 1.943919 1_555
Mn4 O6 1.944837 1_555
Mn4 O1 2.009548 1_555
Mn4 O3 2.010426 1_556
Mn4 O13 2.285735 1_555
Mn4 O11 2.291650 1_556
Mn5 O7 1.943853 1_555
Mn5 O5 1.944871 1_555
Mn5 O2 2.009558 1_555
Mn5 O0 2.010438 1_554
Mn5 O10 2.285733 1_555
Mn5 O12 2.291667 1_554
Mn6 O7 1.943886 1_545
Mn6 O4 1.943972 1_454
Mn6 O3 2.009015 1_455
Mn6 O0 2.009036 1_544
Mn6 O8 2.289694 1_544
Mn6 O15 2.289761 1_455
Mn7 O6 1.944914 1_555
Mn7 O5 1.944922 1_555
Mn7 O2 2.011378 1_555
Mn7 O1 2.011438 1_555
Mn7 O9 2.287321 1_555
Mn7 O14 2.287587 1_555
