# generated using pymatgen
data_Cr(PO3)4
_symmetry_space_group_name_H-M   'P 1'
_cell_length_a   7.18401183
_cell_length_b   7.18401183
_cell_length_c   10.08397276
_cell_angle_alpha   66.73531709
_cell_angle_beta   66.73531709
_cell_angle_gamma   70.21681583
_symmetry_Int_Tables_number   1
_chemical_formula_structural   Cr(PO3)4
_chemical_formula_sum   'Cr2 P8 O24'
_cell_volume   428.85546319
_cell_formula_units_Z   2
loop_
 _symmetry_equiv_pos_site_id
 _symmetry_equiv_pos_as_xyz
  1  'x, y, z'
loop_
 _atom_site_type_symbol
 _atom_site_label
 _atom_site_symmetry_multiplicity
 _atom_site_fract_x
 _atom_site_fract_y
 _atom_site_fract_z
 _atom_site_occupancy
  Cr  Cr0  1  0.55394500  0.44605500  0.25000000  1
  Cr  Cr1  1  0.44605500  0.55394500  0.75000000  1
  P  P0  1  0.74641600  0.23423600  0.98132200  1
  P  P1  1  0.76576400  0.25358400  0.51867800  1
  P  P2  1  0.18848700  0.21242400  0.30674400  1
  P  P3  1  0.21242400  0.18848700  0.80674400  1
  P  P4  1  0.78757600  0.81151300  0.19325600  1
  P  P5  1  0.81151300  0.78757600  0.69325600  1
  P  P6  1  0.23423600  0.74641600  0.48132200  1
  P  P7  1  0.25358400  0.76576400  0.01867800  1
  O  O0  1  0.58405600  0.34903100  0.90277500  1
  O  O1  1  0.96683400  0.20795800  0.85507000  1
  O  O2  1  0.65096900  0.41594400  0.59722500  1
  O  O3  1  0.75974300  0.30548600  0.09801900  1
  O  O4  1  0.30961200  0.15029600  0.65718200  1
  O  O5  1  0.25049300  0.38226800  0.80949300  1
  O  O6  1  0.38226800  0.25049300  0.30949300  1
  O  O7  1  0.00218800  0.28495400  0.44261000  1
  O  O8  1  0.15029600  0.30961200  0.15718200  1
  O  O9  1  0.69451400  0.24025700  0.40198100  1
  O  O10  1  0.79204200  0.03316600  0.64493000  1
  O  O11  1  0.28495400  0.00218800  0.94261000  1
  O  O12  1  0.71504600  0.99781200  0.05739000  1
  O  O13  1  0.20795800  0.96683400  0.35507000  1
  O  O14  1  0.30548600  0.75974300  0.59801900  1
  O  O15  1  0.84970400  0.69038800  0.84281800  1
  O  O16  1  0.99781200  0.71504600  0.55739000  1
  O  O17  1  0.61773200  0.74950700  0.69050700  1
  O  O18  1  0.74950700  0.61773200  0.19050700  1
  O  O19  1  0.69038800  0.84970400  0.34281800  1
  O  O20  1  0.24025700  0.69451400  0.90198100  1
  O  O21  1  0.34903100  0.58405600  0.40277500  1
  O  O22  1  0.03316600  0.79204200  0.14493000  1
  O  O23  1  0.41594400  0.65096900  0.09722500  1
loop_
_geom_bond_atom_site_label_1
_geom_bond_atom_site_label_2
_geom_bond_distance
_geom_bond_site_symmetry_2
Cr0 O6 1.943560 1_555
Cr0 O18 1.943560 1_555
Cr0 O21 1.987562 1_555
Cr0 O23 1.987562 1_555
Cr0 O9 1.994096 1_555
Cr0 O3 1.994096 1_555
Cr1 O5 1.943560 1_555
Cr1 O17 1.943560 1_555
Cr1 O2 1.987562 1_555
Cr1 O0 1.987562 1_555
Cr1 O14 1.994096 1_555
Cr1 O20 1.994096 1_555
O0 P0 1.493527 1_555
O1 P0 1.599649 1_555
O1 P3 1.605450 1_655
O2 P1 1.493527 1_555
O3 P0 1.501317 1_554
O4 P3 1.484161 1_555
O5 P3 1.519136 1_555
O6 P2 1.519136 1_555
O7 P2 1.607230 1_555
O7 P1 1.617822 1_455
O8 P2 1.484161 1_555
O9 P1 1.501317 1_555
O10 P1 1.599649 1_555
O10 P5 1.605450 1_545
O11 P3 1.607230 1_555
O11 P7 1.617822 1_546
O12 P4 1.607230 1_555
O12 P0 1.617822 1_564
O13 P6 1.599649 1_555
O13 P2 1.605450 1_565
O14 P6 1.501317 1_555
O15 P5 1.484161 1_555
O16 P5 1.607230 1_555
O16 P6 1.617822 1_655
O17 P5 1.519136 1_555
O18 P4 1.519136 1_555
O19 P4 1.484161 1_555
O20 P7 1.501317 1_556
O21 P6 1.493527 1_555
O22 P7 1.599649 1_555
O22 P4 1.605450 1_455
O23 P7 1.493527 1_555
