# generated using pymatgen
data_CaBiO3
_symmetry_space_group_name_H-M   'P 1'
_cell_length_a   5.75831054
_cell_length_b   6.02554523
_cell_length_c   8.33034702
_cell_angle_alpha   90.00000000
_cell_angle_beta   90.10598141
_cell_angle_gamma   90.00000000
_symmetry_Int_Tables_number   1
_chemical_formula_structural   CaBiO3
_chemical_formula_sum   'Ca4 Bi4 O12'
_cell_volume   289.03722807
_cell_formula_units_Z   4
loop_
 _symmetry_equiv_pos_site_id
 _symmetry_equiv_pos_as_xyz
  1  'x, y, z'
loop_
 _atom_site_type_symbol
 _atom_site_label
 _atom_site_symmetry_multiplicity
 _atom_site_fract_x
 _atom_site_fract_y
 _atom_site_fract_z
 _atom_site_occupancy
  Ca  Ca0  1  0.01820178  0.94099563  0.74773700  1
  Ca  Ca1  1  0.48179822  0.44099563  0.75226300  1
  Ca  Ca2  1  0.51820178  0.55900437  0.24773700  1
  Ca  Ca3  1  0.98179822  0.05900437  0.25226300  1
  Bi  Bi0  1  -0.00000000  0.50000000  0.50000000  1
  Bi  Bi1  1  -0.00000000  0.50000000  0.00000000  1
  Bi  Bi2  1  0.50000000  0.00000000  0.50000000  1
  Bi  Bi3  1  0.50000000  0.00000000  0.00000000  1
  O  O0  1  0.13332667  0.43357789  0.23613692  1
  O  O1  1  0.17684666  0.20697879  0.92393250  1
  O  O2  1  0.20201503  0.18406075  0.56568279  1
  O  O3  1  0.29798497  0.68406075  0.93431721  1
  O  O4  1  0.32315334  0.70697879  0.57606750  1
  O  O5  1  0.36667333  0.93357789  0.26386308  1
  O  O6  1  0.63332667  0.06642211  0.73613692  1
  O  O7  1  0.67684666  0.29302121  0.42393250  1
  O  O8  1  0.70201503  0.31593925  0.06568279  1
  O  O9  1  0.79798497  0.81593925  0.43431721  1
  O  O10  1  0.82315334  0.79302121  0.07606750  1
  O  O11  1  0.86667333  0.56642211  0.76386308  1
loop_
_geom_bond_atom_site_label_1
_geom_bond_atom_site_label_2
_geom_bond_distance
_geom_bond_site_symmetry_2
Ca0 O6 2.343374 1_465
Ca0 O1 2.356384 1_565
Ca0 O2 2.360363 1_565
Ca0 O11 2.423616 1_455
Ca0 O4 2.669505 1_555
Ca0 O3 2.720097 1_555
Ca0 O9 2.996725 1_455
Ca0 O10 3.090087 1_456
Ca1 O11 2.343374 1_555
Ca1 O4 2.356384 1_555
Ca1 O3 2.360363 1_555
Ca1 O6 2.423616 1_555
Ca1 O1 2.669505 1_555
Ca1 O2 2.720097 1_555
Ca1 O8 2.996725 1_556
Ca1 O7 3.090087 1_555
Ca2 O0 2.343374 1_555
Ca2 O7 2.356384 1_555
Ca2 O8 2.360363 1_555
Ca2 O5 2.423616 1_555
Ca2 O10 2.669505 1_555
Ca2 O9 2.720097 1_555
Ca2 O3 2.996725 1_554
Ca2 O4 3.090087 1_555
Ca3 O5 2.343374 1_645
Ca3 O10 2.356384 1_545
Ca3 O9 2.360363 1_545
Ca3 O0 2.423616 1_655
Ca3 O7 2.669505 1_555
Ca3 O8 2.720097 1_555
Ca3 O2 2.996725 1_655
Ca3 O1 3.090087 1_654
Bi0 O9 2.296587 1_455
Bi0 O2 2.296587 1_555
Bi0 O7 2.327063 1_455
Bi0 O4 2.327063 1_555
Bi0 O11 2.363760 1_455
Bi0 O0 2.363760 1_555
Bi1 O3 2.115931 1_554
Bi1 O8 2.115931 1_455
Bi1 O1 2.135023 1_554
Bi1 O10 2.135023 1_455
Bi1 O0 2.147908 1_555
Bi1 O11 2.147908 1_454
Bi2 O9 2.115931 1_545
Bi2 O2 2.115931 1_555
Bi2 O4 2.135023 1_545
Bi2 O7 2.135023 1_555
Bi2 O6 2.147908 1_555
Bi2 O5 2.147908 1_545
Bi3 O3 2.296587 1_544
Bi3 O8 2.296587 1_555
Bi3 O1 2.327063 1_554
Bi3 O10 2.327063 1_545
Bi3 O6 2.363760 1_554
Bi3 O5 2.363760 1_545
