# generated using pymatgen
data_Na2SnO3
_symmetry_space_group_name_H-M   'P 1'
_cell_length_a   10.57207495
_cell_length_b   10.07581940
_cell_length_c   5.61434486
_cell_angle_alpha   79.15711649
_cell_angle_beta   69.39726245
_cell_angle_gamma   31.44166027
_symmetry_Int_Tables_number   1
_chemical_formula_structural   Na2SnO3
_chemical_formula_sum   'Na8 Sn4 O12'
_cell_volume   284.20963789
_cell_formula_units_Z   4
loop_
 _symmetry_equiv_pos_site_id
 _symmetry_equiv_pos_as_xyz
  1  'x, y, z'
loop_
 _atom_site_type_symbol
 _atom_site_label
 _atom_site_symmetry_multiplicity
 _atom_site_fract_x
 _atom_site_fract_y
 _atom_site_fract_z
 _atom_site_occupancy
  Na  Na0  1  0.99501171  0.99489136  0.50469323  1
  Na  Na1  1  0.42244894  0.42225511  0.57727901  1
  Na  Na2  1  0.82753822  0.82775570  0.67273411  1
  Na  Na3  1  0.25498697  0.25510640  0.74530254  1
  Na  Na4  1  0.74522895  0.74463806  0.25482985  1
  Na  Na5  1  0.67236664  0.67242592  0.82751442  1
  Na  Na6  1  0.57765096  0.57755674  0.42248032  1
  Na  Na7  1  0.50477327  0.50536028  0.99518094  1
  Sn  Sn0  1  0.91570363  0.91570065  0.08423818  1
  Sn  Sn1  1  0.33429544  0.33429406  0.16574953  1
  Sn  Sn2  1  0.16571893  0.16568736  0.33433441  1
  Sn  Sn3  1  0.08428199  0.08430722  0.91567010  1
  O  O0  1  0.15291695  0.66420738  0.30769305  1
  O  O1  1  0.66413246  0.15300795  0.87516514  1
  O  O2  1  0.09705097  0.58582437  0.94232589  1
  O  O3  1  0.58586432  0.09699511  0.37481539  1
  O  O4  1  0.04044750  0.45956451  0.45963575  1
  O  O5  1  0.45960742  0.04038817  0.04046025  1
  O  O6  1  0.37483990  0.94230088  0.58584637  1
  O  O7  1  0.94234976  0.37476704  0.09702952  1
  O  O8  1  0.87517703  0.30769927  0.66414543  1
  O  O9  1  0.30766498  0.87522517  0.15296307  1
  O  O10  1  0.20955562  0.79044051  0.79036919  1
  O  O11  1  0.79038743  0.20960079  0.20954431  1
loop_
_geom_bond_atom_site_label_1
_geom_bond_atom_site_label_2
_geom_bond_distance
_geom_bond_site_symmetry_2
Na0 O11 2.300934 1_565
Na0 O10 2.303267 1_655
Na0 O0 2.389086 1_655
Na0 O1 2.391167 1_565
Na0 O9 2.404285 1_655
Na0 O8 2.406282 1_565
Na1 O3 2.318527 1_555
Na1 O2 2.320694 1_555
Na1 O11 2.403156 1_555
Na1 O10 2.405577 1_555
Na1 O0 2.479371 1_555
Na1 O1 2.481500 1_555
Na2 O1 2.318433 1_565
Na2 O0 2.320645 1_655
Na2 O5 2.403161 1_566
Na2 O4 2.405553 1_655
Na2 O2 2.479315 1_655
Na2 O3 2.481611 1_565
Na3 O5 2.300962 1_556
Na3 O4 2.303195 1_555
Na3 O2 2.389239 1_555
Na3 O3 2.391218 1_555
Na3 O7 2.404194 1_456
Na3 O6 2.406130 1_545
Na4 O4 2.302099 1_655
Na4 O5 2.302349 1_565
Na4 O7 2.388960 1_555
Na4 O6 2.391106 1_555
Na4 O2 2.404396 1_654
Na4 O3 2.406523 1_565
Na5 O8 2.320038 1_555
Na5 O9 2.320170 1_556
Na5 O4 2.403678 1_655
Na5 O5 2.404110 1_566
Na5 O6 2.479881 1_555
Na5 O7 2.481249 1_556
Na6 O6 2.320181 1_555
Na6 O7 2.320192 1_555
Na6 O10 2.403716 1_555
Na6 O11 2.404165 1_555
Na6 O8 2.479879 1_555
Na6 O9 2.481279 1_555
Na7 O10 2.302119 1_555
Na7 O11 2.302300 1_556
Na7 O9 2.388947 1_556
Na7 O8 2.391253 1_555
Na7 O0 2.404498 1_556
Na7 O1 2.406569 1_555
O0 Sn1 2.099201 1_555
O0 Sn0 2.111609 1_455
O1 Sn1 2.099193 1_556
O1 Sn0 2.111532 1_546
O2 Sn0 2.099000 1_456
O2 Sn1 2.111622 1_556
O3 Sn0 2.099160 1_545
O3 Sn1 2.111492 1_555
O4 Sn1 2.109925 1_555
O4 Sn2 2.110262 1_555
O5 Sn2 2.110046 1_555
O5 Sn1 2.110212 1_555
O6 Sn3 2.099065 1_565
O6 Sn2 2.111432 1_565
O7 Sn3 2.099046 1_654
O7 Sn2 2.111663 1_655
O8 Sn2 2.098910 1_655
O8 Sn3 2.111431 1_655
O9 Sn2 2.099006 1_565
O9 Sn3 2.111677 1_564
O10 Sn0 2.109971 1_456
O10 Sn3 2.110147 1_565
O11 Sn3 2.110119 1_654
O11 Sn0 2.110163 1_545
