# generated using pymatgen
data_Tb2Pt2O7
_symmetry_space_group_name_H-M   'P 1'
_cell_length_a   7.22759369
_cell_length_b   7.22759369
_cell_length_c   7.22759369
_cell_angle_alpha   60.00000000
_cell_angle_beta   60.00000000
_cell_angle_gamma   60.00000000
_symmetry_Int_Tables_number   1
_chemical_formula_structural   Tb2Pt2O7
_chemical_formula_sum   'Tb4 Pt4 O14'
_cell_volume   266.97229347
_cell_formula_units_Z   2
loop_
 _symmetry_equiv_pos_site_id
 _symmetry_equiv_pos_as_xyz
  1  'x, y, z'
loop_
 _atom_site_type_symbol
 _atom_site_label
 _atom_site_symmetry_multiplicity
 _atom_site_fract_x
 _atom_site_fract_y
 _atom_site_fract_z
 _atom_site_occupancy
  Tb  Tb0  1  0.62500000  0.62500000  0.12500000  1
  Tb  Tb1  1  0.62500000  0.62500000  0.62500000  1
  Tb  Tb2  1  0.62500000  0.12500000  0.62500000  1
  Tb  Tb3  1  0.12500000  0.62500000  0.62500000  1
  Pt  Pt0  1  0.12500000  0.12500000  0.12500000  1
  Pt  Pt1  1  0.62500000  0.12500000  0.12500000  1
  Pt  Pt2  1  0.12500000  0.62500000  0.12500000  1
  Pt  Pt3  1  0.12500000  0.12500000  0.62500000  1
  O  O0  1  0.03517986  0.46482014  0.46482014  1
  O  O1  1  0.78517986  0.78517986  0.21482014  1
  O  O2  1  0.78517986  0.21482014  0.21482014  1
  O  O3  1  0.46482014  0.03517986  0.46482014  1
  O  O4  1  0.03517986  0.46482014  0.03517986  1
  O  O5  1  0.75000000  0.75000000  0.75000000  1
  O  O6  1  0.03517986  0.03517986  0.46482014  1
  O  O7  1  0.21482014  0.78517986  0.21482014  1
  O  O8  1  0.21482014  0.21482014  0.78517986  1
  O  O9  1  0.50000000  0.50000000  0.50000000  1
  O  O10  1  0.78517986  0.21482014  0.78517986  1
  O  O11  1  0.46482014  0.03517986  0.03517986  1
  O  O12  1  0.46482014  0.46482014  0.03517986  1
  O  O13  1  0.21482014  0.78517986  0.78517986  1
loop_
_geom_bond_atom_site_label_1
_geom_bond_atom_site_label_2
_geom_bond_distance
_geom_bond_site_symmetry_2
O0 Pt3 2.026761 1_555
O0 Pt2 2.026761 1_555
O0 Tb3 2.438337 1_555
O0 Tb1 2.438337 1_455
O1 Pt2 2.026761 1_655
O1 Pt1 2.026761 1_565
O1 Tb1 2.438337 1_555
O1 Tb0 2.438337 1_555
O2 Pt0 2.026761 1_655
O2 Pt1 2.026761 1_555
O2 Tb0 2.438337 1_555
O2 Tb2 2.438337 1_555
O3 Pt1 2.026761 1_555
O3 Pt3 2.026761 1_555
O3 Tb1 2.438337 1_545
O3 Tb2 2.438337 1_555
O4 Pt2 2.026761 1_555
O4 Pt0 2.026761 1_555
O4 Tb3 2.438337 1_554
O4 Tb0 2.438337 1_455
O5 Tb2 2.212990 1_565
O5 Tb3 2.212990 1_655
O5 Tb1 2.212990 1_555
O5 Tb0 2.212990 1_556
O6 Pt3 2.026761 1_555
O6 Pt0 2.026761 1_555
O6 Tb2 2.438337 1_455
O6 Tb3 2.438337 1_545
O7 Pt0 2.026761 1_565
O7 Pt2 2.026761 1_555
O7 Tb0 2.438337 1_555
O7 Tb3 2.438337 1_555
O8 Pt0 2.026761 1_556
O8 Pt3 2.026761 1_555
O8 Tb2 2.438337 1_555
O8 Tb3 2.438337 1_555
O9 Tb3 2.212990 1_555
O9 Tb0 2.212990 1_555
O9 Tb1 2.212990 1_555
O9 Tb2 2.212990 1_555
O10 Pt3 2.026761 1_655
O10 Pt1 2.026761 1_556
O10 Tb1 2.438337 1_555
O10 Tb2 2.438337 1_555
O11 Pt1 2.026761 1_555
O11 Pt0 2.026761 1_555
O11 Tb2 2.438337 1_554
O11 Tb0 2.438337 1_545
O12 Pt1 2.026761 1_555
O12 Pt2 2.026761 1_555
O12 Tb0 2.438337 1_555
O12 Tb1 2.438337 1_554
O13 Pt3 2.026761 1_565
O13 Pt2 2.026761 1_556
O13 Tb1 2.438337 1_555
O13 Tb3 2.438337 1_555
