# generated using pymatgen
data_Na2PH5O6
_symmetry_space_group_name_H-M   'P 1'
_cell_length_a   6.58525500
_cell_length_b   10.38825700
_cell_length_c   17.08741900
_cell_angle_alpha   90.00000000
_cell_angle_beta   90.00000000
_cell_angle_gamma   90.00000000
_symmetry_Int_Tables_number   1
_chemical_formula_structural   Na2PH5O6
_chemical_formula_sum   'Na16 P8 H40 O48'
_cell_volume   1168.93873742
_cell_formula_units_Z   8
loop_
 _symmetry_equiv_pos_site_id
 _symmetry_equiv_pos_as_xyz
  1  'x, y, z'
loop_
 _atom_site_type_symbol
 _atom_site_label
 _atom_site_symmetry_multiplicity
 _atom_site_fract_x
 _atom_site_fract_y
 _atom_site_fract_z
 _atom_site_occupancy
  Na  Na0  1  0.32716400  0.76768000  0.27065500  1
  Na  Na1  1  0.67283600  0.73232000  0.77065500  1
  Na  Na2  1  0.17283600  0.26768000  0.72934500  1
  Na  Na3  1  0.82716400  0.23232000  0.22934500  1
  Na  Na4  1  0.67283600  0.23232000  0.72934500  1
  Na  Na5  1  0.32716400  0.26768000  0.22934500  1
  Na  Na6  1  0.82716400  0.73232000  0.27065500  1
  Na  Na7  1  0.17283600  0.76768000  0.77065500  1
  Na  Na8  1  0.14243600  0.84751000  0.49944400  1
  Na  Na9  1  0.85756400  0.65249000  0.99944400  1
  Na  Na10  1  0.35756400  0.34751000  0.50055600  1
  Na  Na11  1  0.64243600  0.15249000  0.00055600  1
  Na  Na12  1  0.85756400  0.15249000  0.50055600  1
  Na  Na13  1  0.14243600  0.34751000  0.00055600  1
  Na  Na14  1  0.64243600  0.65249000  0.49944400  1
  Na  Na15  1  0.35756400  0.84751000  0.99944400  1
  P  P0  1  0.12097900  0.51795300  0.16155700  1
  P  P1  1  0.87902100  0.98204700  0.66155700  1
  P  P2  1  0.37902100  0.01795300  0.83844300  1
  P  P3  1  0.62097900  0.48204700  0.33844300  1
  P  P4  1  0.87902100  0.48204700  0.83844300  1
  P  P5  1  0.12097900  0.01795300  0.33844300  1
  P  P6  1  0.62097900  0.98204700  0.16155700  1
  P  P7  1  0.37902100  0.51795300  0.66155700  1
  H  H0  1  0.97662500  0.89272200  0.08685900  1
  H  H1  1  0.02337500  0.60727800  0.58685900  1
  H  H2  1  0.52337500  0.39272200  0.91314100  1
  H  H3  1  0.47662500  0.10727800  0.41314100  1
  H  H4  1  0.02337500  0.10727800  0.91314100  1
  H  H5  1  0.97662500  0.39272200  0.41314100  1
  H  H6  1  0.47662500  0.60727800  0.08685900  1
  H  H7  1  0.52337500  0.89272200  0.58685900  1
  H  H8  1  0.07234700  0.76109500  0.11382700  1
  H  H9  1  0.92765300  0.73890500  0.61382700  1
  H  H10  1  0.42765300  0.26109500  0.88617300  1
  H  H11  1  0.57234700  0.23890500  0.38617300  1
  H  H12  1  0.92765300  0.23890500  0.88617300  1
  H  H13  1  0.07234700  0.26109500  0.38617300  1
  H  H14  1  0.57234700  0.73890500  0.11382700  1
  H  H15  1  0.42765300  0.76109500  0.61382700  1
  H  H16  1  0.29281100  0.61374800  0.40146400  1
  H  H17  1  0.70718900  0.88625200  0.90146400  1
  H  H18  1  0.20718900  0.11374800  0.59853600  1
  H  H19  1  0.79281100  0.38625200  0.09853600  1
  H  H20  1  0.70718900  0.38625200  0.59853600  1
  H  H21  1  0.29281100  0.11374800  0.09853600  1
  H  H22  1  0.79281100  0.88625200  0.40146400  1
  H  H23  1  0.20718900  0.61374800  0.90146400  1
  H  H24  1  0.05767700  0.62720500  0.38813900  1
  H  H25  1  0.94232300  0.87279500  0.88813900  1
  H  H26  1  0.44232300  0.12720500  0.61186100  1
  H  H27  1  0.55767700  0.37279500  0.11186100  1
  H  H28  1  0.94232300  0.37279500  0.61186100  1
  H  H29  1  0.05767700  0.12720500  0.11186100  1
  H  H30  1  0.55767700  0.87279500  0.38813900  1
  H  H31  1  0.44232300  0.62720500  0.88813900  1
  H  H32  1  0.97630200  0.46479000  0.27836100  1
  H  H33  1  0.02369800  0.03521000  0.77836100  1
  H  H34  1  0.52369800  0.96479000  0.72163900  1
  H  H35  1  0.47630200  0.53521000  0.22163900  1
  H  H36  1  0.02369800  0.53521000  0.72163900  1
  H  H37  1  0.97630200  0.96479000  0.22163900  1
  H  H38  1  0.47630200  0.03521000  0.27836100  1
  H  H39  1  0.52369800  0.46479000  0.77836100  1
  O  O0  1  0.34835200  0.48148300  0.14906900  1
  O  O1  1  0.65164800  0.01851700  0.64906900  1
  O  O2  1  0.15164800  0.98148300  0.85093100  1
  O  O3  1  0.84835200  0.51851700  0.35093100  1
  O  O4  1  0.65164800  0.51851700  0.85093100  1
  O  O5  1  0.34835200  0.98148300  0.35093100  1
  O  O6  1  0.84835200  0.01851700  0.14906900  1
  O  O7  1  0.15164800  0.48148300  0.64906900  1
  O  O8  1  0.09606800  0.65701600  0.19063500  1
  O  O9  1  0.90393200  0.84298400  0.69063500  1
  O  O10  1  0.40393200  0.15701600  0.80936500  1
  O  O11  1  0.59606800  0.34298400  0.30936500  1
  O  O12  1  0.90393200  0.34298400  0.80936500  1
  O  O13  1  0.09606800  0.15701600  0.30936500  1
  O  O14  1  0.59606800  0.84298400  0.19063500  1
  O  O15  1  0.40393200  0.65701600  0.69063500  1
  O  O16  1  0.99434300  0.48707600  0.08899200  1
  O  O17  1  0.00565700  0.01292400  0.58899200  1
  O  O18  1  0.50565700  0.98707600  0.91100800  1
  O  O19  1  0.49434300  0.51292400  0.41100800  1
  O  O20  1  0.00565700  0.51292400  0.91100800  1
  O  O21  1  0.99434300  0.98707600  0.41100800  1
  O  O22  1  0.49434300  0.01292400  0.08899200  1
  O  O23  1  0.50565700  0.48707600  0.58899200  1
  O  O24  1  0.04835100  0.42224500  0.23175200  1
  O  O25  1  0.95164900  0.07775500  0.73175200  1
  O  O26  1  0.45164900  0.92224500  0.76824800  1
  O  O27  1  0.54835100  0.57775500  0.26824800  1
  O  O28  1  0.95164900  0.57775500  0.76824800  1
  O  O29  1  0.04835100  0.92224500  0.26824800  1
  O  O30  1  0.54835100  0.07775500  0.23175200  1
  O  O31  1  0.45164900  0.42224500  0.73175200  1
  O  O32  1  0.04664700  0.81568800  0.06642600  1
  O  O33  1  0.95335300  0.68431200  0.56642600  1
  O  O34  1  0.45335300  0.31568800  0.93357400  1
  O  O35  1  0.54664700  0.18431200  0.43357400  1
  O  O36  1  0.95335300  0.18431200  0.93357400  1
  O  O37  1  0.04664700  0.31568800  0.43357400  1
  O  O38  1  0.54664700  0.68431200  0.06642600  1
  O  O39  1  0.45335300  0.81568800  0.56642600  1
  O  O40  1  0.18196600  0.67905700  0.39466600  1
  O  O41  1  0.81803400  0.82094300  0.89466600  1
  O  O42  1  0.31803400  0.17905700  0.60533400  1
  O  O43  1  0.68196600  0.32094300  0.10533400  1
  O  O44  1  0.81803400  0.32094300  0.60533400  1
  O  O45  1  0.18196600  0.17905700  0.10533400  1
  O  O46  1  0.68196600  0.82094300  0.39466600  1
  O  O47  1  0.31803400  0.67905700  0.89466600  1
loop_
_geom_bond_atom_site_label_1
_geom_bond_atom_site_label_2
_geom_bond_distance
_geom_bond_site_symmetry_2
Na0 O8 2.346733 1_555
Na0 O14 2.370085 1_555
Na0 O29 2.439454 1_555
Na0 O27 2.452750 1_555
Na0 O40 2.500422 1_555
Na0 O5 2.614207 1_555
Na1 O9 2.346733 1_555
Na1 O15 2.370085 1_555
Na1 O28 2.439454 1_555
Na1 O26 2.452750 1_555
Na1 O41 2.500422 1_555
Na1 O4 2.614207 1_555
Na2 O10 2.346733 1_555
Na2 O12 2.370085 1_455
Na2 O31 2.439454 1_555
Na2 O25 2.452750 1_455
Na2 O42 2.500422 1_555
Na2 O7 2.614207 1_555
Na3 O11 2.346733 1_555
Na3 O13 2.370085 1_655
Na3 O30 2.439454 1_555
Na3 O24 2.452750 1_655
Na3 O43 2.500422 1_555
Na3 O6 2.614207 1_555
Na4 O12 2.346733 1_555
Na4 O10 2.370085 1_555
Na4 O25 2.439454 1_555
Na4 O31 2.452750 1_555
Na4 O44 2.500422 1_555
Na4 O1 2.614207 1_555
Na5 O13 2.346733 1_555
Na5 O11 2.370085 1_555
Na5 O24 2.439454 1_555
Na5 O30 2.452750 1_555
Na5 O45 2.500422 1_555
Na5 O0 2.614207 1_555
Na6 O14 2.346733 1_555
Na6 O8 2.370085 1_655
Na6 O27 2.439454 1_555
Na6 O29 2.452750 1_655
Na6 O46 2.500422 1_555
Na6 O3 2.614207 1_555
Na7 O15 2.346733 1_555
Na7 O9 2.370085 1_455
Na7 O26 2.439454 1_555
Na7 O28 2.452750 1_455
Na7 O47 2.500422 1_555
Na7 O2 2.614207 1_555
Na8 O21 2.310127 1_455
Na8 O39 2.368839 1_555
Na8 O33 2.394703 1_455
Na8 O17 2.470914 1_565
Na8 O40 2.517044 1_555
Na9 O20 2.310127 1_655
Na9 O38 2.368839 1_556
Na9 O32 2.394703 1_656
Na9 O16 2.470914 1_556
Na9 O41 2.517044 1_555
Na10 O23 2.310127 1_555
Na10 O37 2.368839 1_555
Na10 O35 2.394703 1_555
Na10 O19 2.470914 1_555
Na10 O42 2.517044 1_555
Na11 O22 2.310127 1_555
Na11 O36 2.368839 1_554
Na11 O34 2.394703 1_554
Na11 O18 2.470914 1_544
Na11 O43 2.517044 1_555
Na12 O17 2.310127 1_655
Na12 O35 2.368839 1_555
Na12 O37 2.394703 1_655
Na12 O21 2.470914 1_545
Na12 O44 2.517044 1_555
Na13 O16 2.310127 1_455
Na13 O34 2.368839 1_554
Na13 O36 2.394703 1_454
Na13 O20 2.470914 1_554
Na13 O45 2.517044 1_555
Na14 O19 2.310127 1_555
Na14 O33 2.368839 1_555
Na14 O39 2.394703 1_555
Na14 O23 2.470914 1_555
Na14 O46 2.517044 1_555
Na15 O18 2.310127 1_555
Na15 O32 2.368839 1_556
Na15 O38 2.394703 1_556
Na15 O22 2.470914 1_566
Na15 O47 2.517044 1_555
H0 O32 0.987384 1_655
H1 O33 0.987384 1_455
H2 O34 0.987384 1_555
H3 O35 0.987384 1_555
H4 O36 0.987384 1_455
H5 O37 0.987384 1_655
H6 O38 0.987384 1_555
H7 O39 0.987384 1_555
H8 O32 1.003151 1_555
H8 O8 1.707606 1_555
H9 O33 1.003151 1_555
H9 O9 1.707606 1_555
H10 O34 1.003151 1_555
H10 O10 1.707606 1_555
H11 O35 1.003151 1_555
H11 O11 1.707606 1_555
H12 O36 1.003151 1_555
H12 O12 1.707606 1_555
H13 O37 1.003151 1_555
H13 O13 1.707606 1_555
H14 O38 1.003151 1_555
H14 O14 1.707606 1_555
H15 O39 1.003151 1_555
H15 O15 1.707606 1_555
H16 O40 1.003294 1_555
H16 O19 1.698503 1_555
H17 O41 1.003294 1_555
H17 O18 1.698503 1_555
H18 O42 1.003294 1_555
H18 O17 1.698503 1_555
H19 O43 1.003294 1_555
H19 O16 1.698503 1_555
H20 O44 1.003294 1_555
H20 O23 1.698503 1_555
H21 O45 1.003294 1_555
H21 O22 1.698503 1_555
H22 O46 1.003294 1_555
H22 O21 1.698503 1_555
H23 O47 1.003294 1_555
H23 O20 1.698503 1_555
H24 O40 0.986147 1_555
H25 O41 0.986147 1_555
H26 O42 0.986147 1_555
H27 O43 0.986147 1_555
H28 O44 0.986147 1_555
H29 O45 0.986147 1_555
H30 O46 0.986147 1_555
H31 O47 0.986147 1_555
H32 O24 1.027008 1_655
H32 O3 1.599731 1_555
H33 O25 1.027008 1_455
H33 O2 1.599731 1_545
H34 O26 1.027008 1_555
H34 O1 1.599731 1_565
H35 O27 1.027008 1_555
H35 O0 1.599731 1_555
H36 O28 1.027008 1_455
H36 O7 1.599731 1_555
H37 O29 1.027008 1_655
H37 O6 1.599731 1_565
H38 O30 1.027008 1_555
H38 O5 1.599731 1_545
H39 O31 1.027008 1_555
H39 O4 1.599731 1_555
O0 P0 1.559168 1_555
O1 P1 1.559168 1_545
O2 P2 1.559168 1_565
O3 P3 1.559168 1_555
O4 P4 1.559168 1_555
O5 P5 1.559168 1_565
O6 P6 1.559168 1_545
O7 P7 1.559168 1_555
O8 P0 1.536464 1_555
O9 P1 1.536464 1_555
O10 P2 1.536464 1_555
O11 P3 1.536464 1_555
O12 P4 1.536464 1_555
O13 P5 1.536464 1_555
O14 P6 1.536464 1_555
O15 P7 1.536464 1_555
O16 P0 1.528332 1_655
O17 P1 1.528332 1_445
O18 P2 1.528332 1_565
O19 P3 1.528332 1_555
O20 P4 1.528332 1_455
O21 P5 1.528332 1_665
O22 P6 1.528332 1_545
O23 P7 1.528332 1_555
O24 P0 1.629706 1_555
O25 P1 1.629706 1_545
O26 P2 1.629706 1_565
O27 P3 1.629706 1_555
O28 P4 1.629706 1_555
O29 P5 1.629706 1_565
O30 P6 1.629706 1_545
O31 P7 1.629706 1_555
