# generated using pymatgen
data_FeOF
_symmetry_space_group_name_H-M   'P 1'
_cell_length_a   3.09587500
_cell_length_b   9.49817300
_cell_length_c   14.28270542
_cell_angle_alpha   89.46209546
_cell_angle_beta   90.00000000
_cell_angle_gamma   90.00000000
_symmetry_Int_Tables_number   1
_chemical_formula_structural   FeOF
_chemical_formula_sum   'Fe12 O12 F12'
_cell_volume   419.96667759
_cell_formula_units_Z   12
loop_
 _symmetry_equiv_pos_site_id
 _symmetry_equiv_pos_as_xyz
  1  'x, y, z'
loop_
 _atom_site_type_symbol
 _atom_site_label
 _atom_site_symmetry_multiplicity
 _atom_site_fract_x
 _atom_site_fract_y
 _atom_site_fract_z
 _atom_site_occupancy
  Fe  Fe0  1  0.00000000  0.98613400  0.99593500  1
  Fe  Fe1  1  0.00000000  0.99093000  0.33603700  1
  Fe  Fe2  1  0.00000000  0.99143200  0.66035400  1
  Fe  Fe3  1  0.50000000  0.71022200  0.16345800  1
  Fe  Fe4  1  0.50000000  0.77050900  0.49933200  1
  Fe  Fe5  1  0.50000000  0.77529000  0.82896200  1
  Fe  Fe6  1  0.00000000  0.49528500  0.32466700  1
  Fe  Fe7  1  0.00000000  0.48989000  0.00009000  1
  Fe  Fe8  1  0.00000000  0.48415400  0.66690900  1
  Fe  Fe9  1  0.50000000  0.27316900  0.16569200  1
  Fe  Fe10  1  0.50000000  0.25235300  0.52097900  1
  Fe  Fe11  1  0.50000000  0.27503300  0.83369600  1
  O  O0  1  0.50000000  0.90136500  0.59940300  1
  O  O1  1  0.50000000  0.90117600  0.94037000  1
  O  O2  1  0.00000000  0.85650000  0.76787400  1
  O  O3  1  0.00000000  0.84914600  0.42826100  1
  O  O4  1  0.00000000  0.65410600  0.23752400  1
  O  O5  1  0.50000000  0.59504900  0.05973100  1
  O  O6  1  0.50000000  0.39777500  0.27401200  1
  O  O7  1  0.50000000  0.40165500  0.93462700  1
  O  O8  1  0.50000000  0.41539000  0.59926200  1
  O  O9  1  0.00000000  0.34004000  0.10231300  1
  O  O10  1  0.00000000  0.34727200  0.76670800  1
  O  O11  1  0.00000000  0.15142900  0.56596000  1
  F  F0  1  0.50000000  0.90913000  0.26507100  1
  F  F1  1  0.00000000  0.84834600  0.10798000  1
  F  F2  1  0.00000000  0.65634500  0.56155600  1
  F  F3  1  0.00000000  0.65650700  0.89139600  1
  F  F4  1  0.50000000  0.59509000  0.40500600  1
  F  F5  1  0.50000000  0.60413800  0.72936200  1
  F  F6  1  0.00000000  0.34408300  0.43601900  1
  F  F7  1  0.00000000  0.14294300  0.23511300  1
  F  F8  1  0.00000000  0.14958100  0.90119500  1
  F  F9  1  0.50000000  0.09010700  0.06973000  1
  F  F10  1  0.50000000  0.09922200  0.39200400  1
  F  F11  1  0.50000000  0.09920300  0.73341000  1
loop_
_geom_bond_atom_site_label_1
_geom_bond_atom_site_label_2
_geom_bond_distance
_geom_bond_site_symmetry_2
Fe0 O1 1.920710 1_555
Fe0 O1 1.920710 1_455
Fe1 O3 1.874914 1_555
Fe2 O0 1.974785 1_455
Fe2 O0 1.974785 1_555
Fe2 O2 1.990946 1_555
Fe2 O11 2.022030 1_565
Fe3 O5 1.849856 1_555
Fe3 O4 1.946455 1_555
Fe3 O4 1.946455 1_655
Fe4 O0 1.902890 1_555
Fe4 O3 1.992523 1_555
Fe4 O3 1.992523 1_655
Fe5 O2 1.933833 1_555
Fe5 O2 1.933833 1_655
Fe5 O1 1.999333 1_555
Fe6 O4 1.946656 1_555
Fe6 O6 1.946770 1_555
Fe6 O6 1.946770 1_455
Fe7 O7 1.996845 1_554
Fe7 O7 1.996845 1_454
Fe7 O9 2.029392 1_555
Fe7 O5 2.033555 1_555
Fe7 O5 2.033555 1_455
Fe8 O10 1.920235 1_555
Fe8 O8 1.941146 1_555
Fe8 O8 1.941146 1_455
Fe9 O9 1.899517 1_555
Fe9 O9 1.899517 1_655
Fe9 O6 1.956693 1_555
Fe10 O8 1.918505 1_555
Fe10 O11 1.927743 1_555
Fe10 O11 1.927743 1_655
Fe11 O7 1.886029 1_555
Fe11 O10 1.941643 1_555
Fe11 O10 1.941643 1_655
F0 Fe1 2.010449 1_655
F0 Fe1 2.010449 1_555
F0 Fe3 2.393134 1_555
F1 Fe0 2.057775 1_554
F1 Fe3 2.173845 1_555
F1 Fe3 2.173845 1_455
F2 Fe4 2.084146 1_455
F2 Fe4 2.084146 1_555
F2 Fe8 2.211979 1_555
F3 Fe5 2.108383 1_455
F3 Fe5 2.108383 1_555
F3 Fe7 2.206454 1_556
F4 Fe6 2.152169 1_655
F4 Fe6 2.152169 1_555
F4 Fe4 2.152502 1_555
F5 Fe8 2.123585 1_655
F5 Fe8 2.123585 1_555
F5 Fe5 2.170200 1_555
F6 Fe6 2.132843 1_555
F6 Fe10 2.146590 1_455
F6 Fe10 2.146590 1_555
F7 Fe1 2.030626 1_545
F7 Fe9 2.210461 1_455
F7 Fe9 2.210461 1_555
F8 Fe0 2.049792 1_545
F8 Fe11 2.173430 1_455
F8 Fe11 2.173430 1_555
F9 Fe0 2.121748 1_644
F9 Fe0 2.121748 1_544
F9 Fe9 2.224084 1_555
F10 Fe1 2.026942 1_545
F10 Fe1 2.026942 1_645
F10 Fe10 2.357785 1_555
F11 Fe2 2.133715 1_645
F11 Fe2 2.133715 1_545
F11 Fe11 2.210355 1_555
