# generated using pymatgen
data_SrTaNO2
_symmetry_space_group_name_H-M   'P 1'
_cell_length_a   4.02180100
_cell_length_b   5.79834600
_cell_length_c   9.16892389
_cell_angle_alpha   71.94100880
_cell_angle_beta   90.00000000
_cell_angle_gamma   90.00000000
_symmetry_Int_Tables_number   1
_chemical_formula_structural   SrTaNO2
_chemical_formula_sum   'Sr3 Ta3 N3 O6'
_cell_volume   203.28430875
_cell_formula_units_Z   3
loop_
 _symmetry_equiv_pos_site_id
 _symmetry_equiv_pos_as_xyz
  1  'x, y, z'
loop_
 _atom_site_type_symbol
 _atom_site_label
 _atom_site_symmetry_multiplicity
 _atom_site_fract_x
 _atom_site_fract_y
 _atom_site_fract_z
 _atom_site_occupancy
  Sr  Sr0  1  0.50000000  0.83397500  0.32822000  1
  Sr  Sr1  1  0.50000000  0.50966900  0.00025200  1
  Sr  Sr2  1  0.50000000  0.16143700  0.66740700  1
  Ta  Ta0  1  0.00000000  0.32658900  0.34309500  1
  Ta  Ta1  1  0.00000000  0.01647000  0.99208300  1
  Ta  Ta2  1  0.00000000  0.66285300  0.65762000  1
  N  N0  1  0.00000000  0.00642000  0.50163000  1
  N  N1  1  0.00000000  0.50595500  0.49774400  1
  N  N2  1  0.00000000  0.33098000  0.83705900  1
  O  O0  1  0.50000000  0.33843700  0.31809300  1
  O  O1  1  0.50000000  0.98505000  0.00835700  1
  O  O2  1  0.50000000  0.67425900  0.67590000  1
  O  O3  1  0.00000000  0.66102700  0.16445600  1
  O  O4  1  0.00000000  0.15737600  0.16748300  1
  O  O5  1  0.00000000  0.82950200  0.84059900  1
loop_
_geom_bond_atom_site_label_1
_geom_bond_atom_site_label_2
_geom_bond_distance
_geom_bond_site_symmetry_2
N0 Ta0 1.971366 1_555
N0 Ta2 2.060989 1_545
N0 Sr2 2.830033 1_455
N0 Sr2 2.830033 1_555
N0 Sr0 2.925275 1_445
N0 Sr0 2.925275 1_545
N1 Ta2 1.950204 1_555
N1 Ta0 2.001648 1_555
N1 Sr0 2.871294 1_455
N1 Sr0 2.871294 1_555
N1 Sr2 2.920200 1_555
N1 Sr2 2.920200 1_455
N2 Ta1 1.933635 1_555
N2 Ta2 2.108786 1_555
N2 Sr1 2.883980 1_456
N2 Sr1 2.883980 1_556
N2 Sr2 2.894459 1_455
N2 Sr2 2.894459 1_555
O0 Ta0 2.022678 1_655
O0 Ta0 2.022678 1_555
O0 Sr1 2.772141 1_555
O0 Sr0 2.897606 1_545
O0 Sr0 2.903427 1_555
O0 Sr2 3.045239 1_555
O1 Ta1 2.020476 1_564
O1 Ta1 2.020476 1_664
O1 Sr1 2.780358 1_555
O1 Sr0 2.788521 1_555
O1 Sr2 2.972628 1_564
O1 Sr1 3.019712 1_565
O2 Ta2 2.020658 1_555
O2 Ta2 2.020658 1_655
O2 Sr2 2.801665 1_565
O2 Sr1 2.827641 1_556
O2 Sr2 2.998573 1_555
O2 Sr0 3.031448 1_555
O3 Ta0 2.115184 1_555
O3 Ta1 2.173943 1_564
O3 Sr1 2.810679 1_455
O3 Sr1 2.810679 1_555
O3 Sr0 2.870111 1_455
O3 Sr0 2.870111 1_555
O4 Ta1 2.017070 1_554
O4 Ta0 2.129508 1_555
O4 Sr0 2.831727 1_445
O4 Sr0 2.831727 1_545
O4 Sr1 2.936937 1_455
O4 Sr1 2.936937 1_555
O5 Ta1 2.009481 1_565
O5 Ta2 2.180268 1_555
O5 Sr1 2.818271 1_456
O5 Sr1 2.818271 1_556
O5 Sr2 2.893937 1_565
O5 Sr2 2.893937 1_465
