# generated using pymatgen
data_Li9Cr12Co7O48
_symmetry_space_group_name_H-M   'P 1'
_cell_length_a   5.10606321
_cell_length_b   10.25808445
_cell_length_c   17.34837111
_cell_angle_alpha   89.91482389
_cell_angle_beta   89.90241867
_cell_angle_gamma   90.00301133
_symmetry_Int_Tables_number   1
_chemical_formula_structural   Li9Cr12Co7O48
_chemical_formula_sum   'Li9 Cr12 Co7 O48'
_cell_volume   908.67807772
_cell_formula_units_Z   1
loop_
 _symmetry_equiv_pos_site_id
 _symmetry_equiv_pos_as_xyz
  1  'x, y, z'
loop_
 _atom_site_type_symbol
 _atom_site_label
 _atom_site_symmetry_multiplicity
 _atom_site_fract_x
 _atom_site_fract_y
 _atom_site_fract_z
 _atom_site_occupancy
  Li  Li0  1  0.09412154  0.24863127  0.24881166  1
  Li  Li1  1  0.24601785  0.41961372  0.97201806  1
  Li  Li2  1  0.24871025  0.57937580  0.47276610  1
  Li  Li3  1  0.24867493  0.92063473  0.47281753  1
  Li  Li4  1  0.25738212  0.25166528  0.80331307  1
  Li  Li5  1  0.74621802  0.75316786  0.19456200  1
  Li  Li6  1  0.75411929  0.92345647  0.02886876  1
  Li  Li7  1  0.76507816  0.25150388  0.70001135  1
  Li  Li8  1  0.90555127  0.74967516  0.74841425  1
  Cr  Cr0  1  0.22742355  0.74956245  0.94242389  1
  Cr  Cr1  1  0.22898207  0.02691496  0.65490378  1
  Cr  Cr2  1  0.22848277  0.47194672  0.65451482  1
  Cr  Cr3  1  0.28311941  0.52869316  0.15502920  1
  Cr  Cr4  1  0.27914993  0.97248697  0.15664245  1
  Cr  Cr5  1  0.28161316  0.25018838  0.44507846  1
  Cr  Cr6  1  0.71766790  0.75034881  0.55871550  1
  Cr  Cr7  1  0.71736911  0.47485180  0.84357567  1
  Cr  Cr8  1  0.71605644  0.02607637  0.84545697  1
  Cr  Cr9  1  0.77030439  0.53040766  0.34356429  1
  Cr  Cr10  1  0.77089997  0.96935750  0.34421359  1
  Cr  Cr11  1  0.77462346  0.24927491  0.05552897  1
  Co  Co0  1  0.24334679  0.75082609  0.29997657  1
  Co  Co1  1  0.24508836  0.07157048  0.97514577  1
  Co  Co2  1  0.40891990  0.74851409  0.75077723  1
  Co  Co3  1  0.59305917  0.24982831  0.24783540  1
  Co  Co4  1  0.75370951  0.07068687  0.52689516  1
  Co  Co5  1  0.75460332  0.42982057  0.52682288  1
  Co  Co6  1  0.75704788  0.57118145  0.02522971  1
  O  O0  1  0.04972776  0.24240674  0.00091882  1
  O  O1  1  0.04704769  0.61174292  0.36583830  1
  O  O2  1  0.04793326  0.88852006  0.36692096  1
  O  O3  1  0.11125456  0.62775792  0.21141255  1
  O  O4  1  0.10004162  0.87365418  0.21237515  1
  O  O5  1  0.09835291  0.12144247  0.46697244  1
  O  O6  1  0.09898775  0.37929964  0.46643098  1
  O  O7  1  0.09940278  0.00402372  0.07824355  1
  O  O8  1  0.09418786  0.49900955  0.07860825  1
  O  O9  1  0.17650647  0.74803168  0.84532296  1
  O  O10  1  0.17847905  0.61488402  0.70304941  1
  O  O11  1  0.18323403  0.88292105  0.70386960  1
  O  O12  1  0.34708202  0.11214058  0.20397376  1
  O  O13  1  0.34869096  0.38935066  0.20196253  1
  O  O14  1  0.35237697  0.25010584  0.35130643  1
  O  O15  1  0.41064542  0.49869185  0.57643316  1
  O  O16  1  0.41068977  0.00074253  0.57671070  1
  O  O17  1  0.39164043  0.88317017  0.96544463  1
  O  O18  1  0.41580594  0.62448579  0.96618355  1
  O  O19  1  0.39600174  0.12511954  0.70914182  1
  O  O20  1  0.39768361  0.37392553  0.70882294  1
  O  O21  1  0.44249434  0.10521313  0.87358224  1
  O  O22  1  0.45110851  0.39471155  0.86939427  1
  O  O23  1  0.45686967  0.75011474  0.50250128  1
  O  O24  1  0.56085498  0.25007037  0.50224292  1
  O  O25  1  0.55881500  0.60591498  0.12605556  1
  O  O26  1  0.54883756  0.89520271  0.13060549  1
  O  O27  1  0.57600970  0.62619255  0.29213413  1
  O  O28  1  0.57604113  0.87336872  0.29321072  1
  O  O29  1  0.58266681  0.12465774  0.03293907  1
  O  O30  1  0.60779085  0.38394761  0.03348966  1
  O  O31  1  0.60592316  0.00370327  0.42513479  1
  O  O32  1  0.60701847  0.49651672  0.42476248  1
  O  O33  1  0.64030531  0.75028879  0.65394516  1
  O  O34  1  0.64206219  0.61733759  0.79508229  1
  O  O35  1  0.64583393  0.88531992  0.79730132  1
  O  O36  1  0.82998454  0.10860499  0.29646061  1
  O  O37  1  0.82879243  0.39061360  0.29598406  1
  O  O38  1  0.83334733  0.24845403  0.15092042  1
  O  O39  1  0.89669861  0.50697127  0.92207741  1
  O  O40  1  0.90443137  0.99608277  0.92220593  1
  O  O41  1  0.89923141  0.61937940  0.53751691  1
  O  O42  1  0.89993894  0.88124269  0.53768426  1
  O  O43  1  0.88892925  0.12216247  0.78973751  1
  O  O44  1  0.89976396  0.38121241  0.78929146  1
  O  O45  1  0.94659563  0.10124124  0.62851035  1
  O  O46  1  0.94644141  0.39714945  0.62786055  1
  O  O47  1  0.95010242  0.74263315  0.99551457  1
loop_
_geom_bond_atom_site_label_1
_geom_bond_atom_site_label_2
_geom_bond_distance
_geom_bond_site_symmetry_2
Li0 O12 2.057612 1_555
Li0 O13 2.103953 1_555
Li0 O36 2.134954 1_455
Li0 O37 2.150916 1_455
Li0 O38 2.159803 1_455
Li0 O14 2.215600 1_555
Li1 O22 2.080046 1_555
Li1 O0 2.134415 1_556
Li1 O8 2.164122 1_556
Li1 O30 2.165418 1_556
Li1 O39 2.176736 1_455
Li1 O18 2.275395 1_555
Li2 O23 2.113708 1_555
Li2 O15 2.145661 1_555
Li2 O41 2.146897 1_455
Li2 O1 2.148569 1_555
Li2 O32 2.181811 1_555
Li2 O6 2.193093 1_555
Li3 O23 2.110542 1_555
Li3 O2 2.131288 1_555
Li3 O42 2.142938 1_455
Li3 O16 2.148862 1_565
Li3 O31 2.174963 1_565
Li3 O5 2.200552 1_565
Li4 O22 2.110599 1_555
Li4 O21 2.152923 1_555
Li4 O20 2.182442 1_555
Li4 O19 2.203993 1_555
Li4 O44 2.271634 1_455
Li4 O43 2.315573 1_455
Li5 O26 2.090177 1_555
Li5 O25 2.149159 1_555
Li5 O4 2.211304 1_655
Li5 O28 2.281579 1_555
Li5 O3 2.283761 1_655
Li5 O27 2.303367 1_555
Li6 O26 2.071217 1_555
Li6 O7 2.128888 1_665
Li6 O40 2.135223 1_554
Li6 O47 2.185933 1_554
Li6 O17 2.194373 1_554
Li6 O29 2.243135 1_565
Li7 O43 2.140238 1_555
Li7 O46 2.155653 1_555
Li7 O44 2.156846 1_555
Li7 O45 2.185301 1_555
Li7 O20 2.262614 1_555
Li7 O19 2.292479 1_555
Li8 O34 2.073951 1_555
Li8 O35 2.100938 1_555
Li8 O11 2.113936 1_655
Li8 O10 2.114952 1_655
Li8 O33 2.127866 1_555
Li8 O9 2.179151 1_655
Cr0 O18 1.655674 1_555
Cr0 O17 1.656401 1_555
Cr0 O47 1.689327 1_455
Cr0 O9 1.705020 1_555
Cr1 O19 1.622639 1_555
Cr1 O16 1.664299 1_555
Cr1 O45 1.694501 1_455
Cr1 O11 1.718593 1_545
Cr2 O20 1.626397 1_555
Cr2 O15 1.664304 1_555
Cr2 O46 1.696965 1_455
Cr2 O10 1.710863 1_555
Cr3 O3 1.661238 1_555
Cr3 O8 1.669303 1_555
Cr3 O13 1.678009 1_555
Cr3 O25 1.690595 1_555
Cr4 O26 1.651621 1_555
Cr4 O4 1.671245 1_555
Cr4 O7 1.673273 1_565
Cr4 O12 1.688565 1_565
Cr5 O5 1.661702 1_555
Cr5 O6 1.661718 1_555
Cr5 O14 1.665836 1_555
Cr5 O24 1.738184 1_555
Cr6 O23 1.651907 1_555
Cr6 O42 1.673157 1_555
Cr6 O41 1.673360 1_555
Cr6 O33 1.697993 1_555
Cr7 O44 1.636065 1_555
Cr7 O22 1.649703 1_555
Cr7 O39 1.675490 1_555
Cr7 O34 1.729012 1_555
Cr8 O43 1.636841 1_555
Cr8 O40 1.672069 1_545
Cr8 O21 1.687358 1_555
Cr8 O35 1.707592 1_545
Cr9 O27 1.657182 1_555
Cr9 O32 1.671773 1_555
Cr9 O37 1.682164 1_555
Cr9 O1 1.686685 1_655
Cr10 O28 1.657677 1_555
Cr10 O31 1.673920 1_565
Cr10 O36 1.677281 1_565
Cr10 O2 1.686660 1_655
Cr11 O29 1.658634 1_555
Cr11 O30 1.667336 1_555
Cr11 O38 1.682343 1_555
Cr11 O0 1.694516 1_655
Co0 O1 2.082501 1_555
Co0 O2 2.083400 1_555
Co0 O3 2.102031 1_555
Co0 O4 2.104942 1_555
Co0 O28 2.116222 1_555
Co0 O27 2.130321 1_555
Co1 O7 2.055288 1_556
Co1 O21 2.057113 1_555
Co1 O0 2.065685 1_556
Co1 O29 2.068900 1_556
Co1 O17 2.079427 1_545
Co1 O40 2.115682 1_445
Co2 O34 1.954182 1_555
Co2 O11 1.972605 1_555
Co2 O10 1.988885 1_555
Co2 O35 2.022562 1_555
Co2 O9 2.022862 1_555
Co2 O33 2.052155 1_555
Co3 O12 2.039033 1_555
Co3 O13 2.058845 1_555
Co3 O37 2.058896 1_555
Co3 O36 2.067322 1_555
Co3 O38 2.079764 1_555
Co3 O14 2.173711 1_555
Co4 O31 2.041131 1_555
Co4 O45 2.045345 1_555
Co4 O16 2.078996 1_555
Co4 O42 2.090126 1_545
Co4 O5 2.107280 1_655
Co4 O24 2.130249 1_555
Co5 O46 2.036761 1_555
Co5 O32 2.042531 1_555
Co5 O15 2.078733 1_555
Co5 O41 2.088608 1_555
Co5 O6 2.110411 1_655
Co5 O24 2.136365 1_555
Co6 O39 2.035662 1_554
Co6 O25 2.051076 1_555
Co6 O30 2.070977 1_555
Co6 O47 2.079928 1_554
Co6 O8 2.091073 1_655
Co6 O18 2.094940 1_554
