# generated using pymatgen
data_VAs2H4O9
_symmetry_space_group_name_H-M   'P 1'
_cell_length_a   9.28543700
_cell_length_b   9.28543700
_cell_length_c   8.53959100
_cell_angle_alpha   90.00000000
_cell_angle_beta   90.00000000
_cell_angle_gamma   90.00000000
_symmetry_Int_Tables_number   1
_chemical_formula_structural   VAs2H4O9
_chemical_formula_sum   'V4 As8 H16 O36'
_cell_volume   736.27790229
_cell_formula_units_Z   4
loop_
 _symmetry_equiv_pos_site_id
 _symmetry_equiv_pos_as_xyz
  1  'x, y, z'
loop_
 _atom_site_type_symbol
 _atom_site_label
 _atom_site_symmetry_multiplicity
 _atom_site_fract_x
 _atom_site_fract_y
 _atom_site_fract_z
 _atom_site_occupancy
  V  V0  1  0.00000000  0.50000000  0.30387800  1
  V  V1  1  0.00000000  0.50000000  0.80387800  1
  V  V2  1  0.50000000  0.00000000  0.69612200  1
  V  V3  1  0.50000000  0.00000000  0.19612200  1
  As  As0  1  0.21500200  0.78499800  0.25000000  1
  As  As1  1  0.21500200  0.21500200  0.75000000  1
  As  As2  1  0.78499800  0.78499800  0.75000000  1
  As  As3  1  0.78499800  0.21500200  0.25000000  1
  As  As4  1  0.28499800  0.71500200  0.75000000  1
  As  As5  1  0.28499800  0.28499800  0.25000000  1
  As  As6  1  0.71500200  0.71500200  0.25000000  1
  As  As7  1  0.71500200  0.28499800  0.75000000  1
  H  H0  1  0.03823400  0.83721100  0.42931300  1
  H  H1  1  0.03823400  0.16278900  0.92931300  1
  H  H2  1  0.96176600  0.83721100  0.92931300  1
  H  H3  1  0.96176600  0.16278900  0.42931300  1
  H  H4  1  0.33721100  0.53823400  0.92931300  1
  H  H5  1  0.33721100  0.46176600  0.42931300  1
  H  H6  1  0.66278900  0.53823400  0.42931300  1
  H  H7  1  0.66278900  0.46176600  0.92931300  1
  H  H8  1  0.46176600  0.66278900  0.57068700  1
  H  H9  1  0.46176600  0.33721100  0.07068700  1
  H  H10  1  0.53823400  0.66278900  0.07068700  1
  H  H11  1  0.53823400  0.33721100  0.57068700  1
  H  H12  1  0.16278900  0.96176600  0.07068700  1
  H  H13  1  0.16278900  0.03823400  0.57068700  1
  H  H14  1  0.83721100  0.96176600  0.57068700  1
  H  H15  1  0.83721100  0.03823400  0.07068700  1
  O  O0  1  0.13865100  0.87098400  0.41527600  1
  O  O1  1  0.13865100  0.12901600  0.91527600  1
  O  O2  1  0.86134900  0.87098400  0.91527600  1
  O  O3  1  0.86134900  0.12901600  0.41527600  1
  O  O4  1  0.37098400  0.63865100  0.91527600  1
  O  O5  1  0.37098400  0.36134900  0.41527600  1
  O  O6  1  0.62901600  0.63865100  0.41527600  1
  O  O7  1  0.62901600  0.36134900  0.91527600  1
  O  O8  1  0.36134900  0.62901600  0.58472400  1
  O  O9  1  0.36134900  0.37098400  0.08472400  1
  O  O10  1  0.63865100  0.62901600  0.08472400  1
  O  O11  1  0.63865100  0.37098400  0.58472400  1
  O  O12  1  0.12901600  0.86134900  0.08472400  1
  O  O13  1  0.12901600  0.13865100  0.58472400  1
  O  O14  1  0.87098400  0.86134900  0.58472400  1
  O  O15  1  0.87098400  0.13865100  0.08472400  1
  O  O16  1  0.18368400  0.60530400  0.25444600  1
  O  O17  1  0.18368400  0.39469600  0.75444600  1
  O  O18  1  0.81631600  0.60530400  0.75444600  1
  O  O19  1  0.81631600  0.39469600  0.25444600  1
  O  O20  1  0.10530400  0.68368400  0.75444600  1
  O  O21  1  0.10530400  0.31631600  0.25444600  1
  O  O22  1  0.89469600  0.68368400  0.25444600  1
  O  O23  1  0.89469600  0.31631600  0.75444600  1
  O  O24  1  0.31631600  0.89469600  0.74555400  1
  O  O25  1  0.31631600  0.10530400  0.24555400  1
  O  O26  1  0.68368400  0.89469600  0.24555400  1
  O  O27  1  0.68368400  0.10530400  0.74555400  1
  O  O28  1  0.39469600  0.81631600  0.24555400  1
  O  O29  1  0.39469600  0.18368400  0.74555400  1
  O  O30  1  0.60530400  0.81631600  0.74555400  1
  O  O31  1  0.60530400  0.18368400  0.24555400  1
  O  O32  1  0.00000000  0.50000000  0.49610500  1
  O  O33  1  0.00000000  0.50000000  0.99610500  1
  O  O34  1  0.50000000  0.00000000  0.50389500  1
  O  O35  1  0.50000000  0.00000000  0.00389500  1
loop_
_geom_bond_atom_site_label_1
_geom_bond_atom_site_label_2
_geom_bond_distance
_geom_bond_site_symmetry_2
As0 O28 1.694114 1_555
As0 O16 1.694114 1_555
As0 O12 1.769775 1_555
As0 O0 1.769775 1_555
As1 O17 1.694114 1_555
As1 O29 1.694114 1_555
As1 O1 1.769775 1_555
As1 O13 1.769775 1_555
As2 O18 1.694114 1_555
As2 O30 1.694114 1_555
As2 O2 1.769775 1_555
As2 O14 1.769775 1_555
As3 O19 1.694114 1_555
As3 O31 1.694114 1_555
As3 O3 1.769775 1_555
As3 O15 1.769775 1_555
As4 O20 1.694114 1_555
As4 O24 1.694114 1_555
As4 O8 1.769775 1_555
As4 O4 1.769775 1_555
As5 O21 1.694114 1_555
As5 O25 1.694114 1_555
As5 O5 1.769775 1_555
As5 O9 1.769775 1_555
As6 O22 1.694114 1_555
As6 O26 1.694114 1_555
As6 O6 1.769775 1_555
As6 O10 1.769775 1_555
As7 O27 1.694114 1_555
As7 O23 1.694114 1_555
As7 O7 1.769775 1_555
As7 O11 1.769775 1_555
H0 O0 0.991015 1_555
H1 O1 0.991015 1_555
H2 O2 0.991015 1_555
H3 O3 0.991015 1_555
H4 O4 0.991015 1_555
H5 O5 0.991015 1_555
H6 O6 0.991015 1_555
H7 O7 0.991015 1_555
H8 O8 0.991015 1_555
H9 O9 0.991015 1_555
H10 O10 0.991015 1_555
H11 O11 0.991015 1_555
H12 O12 0.991015 1_555
H13 O13 0.991015 1_555
H14 O14 0.991015 1_555
H15 O15 0.991015 1_555
O16 V0 2.010795 1_555
O17 V1 2.010795 1_555
O18 V1 2.010795 1_655
O19 V0 2.010795 1_655
O20 V1 2.010795 1_555
O21 V0 2.010795 1_555
O22 V0 2.010795 1_655
O23 V1 2.010795 1_655
O24 V2 2.010795 1_565
O25 V3 2.010795 1_555
O26 V3 2.010795 1_565
O27 V2 2.010795 1_555
O28 V3 2.010795 1_565
O29 V2 2.010795 1_555
O30 V2 2.010795 1_565
O31 V3 2.010795 1_555
O32 V0 1.641540 1_555
O33 V1 1.641540 1_555
O34 V2 1.641540 1_555
O35 V3 1.641540 1_555
