# generated using pymatgen
data_Li2V3CoO8
_symmetry_space_group_name_H-M   'P 1'
_cell_length_a   8.30449100
_cell_length_b   8.31602532
_cell_length_c   8.36145920
_cell_angle_alpha   89.96920894
_cell_angle_beta   89.74922316
_cell_angle_gamma   89.71577377
_symmetry_Int_Tables_number   1
_chemical_formula_structural   Li2V3CoO8
_chemical_formula_sum   'Li8 V12 Co4 O32'
_cell_volume   577.43264846
_cell_formula_units_Z   4
loop_
 _symmetry_equiv_pos_site_id
 _symmetry_equiv_pos_as_xyz
  1  'x, y, z'
loop_
 _atom_site_type_symbol
 _atom_site_label
 _atom_site_symmetry_multiplicity
 _atom_site_fract_x
 _atom_site_fract_y
 _atom_site_fract_z
 _atom_site_occupancy
  Li  Li0  1  0.99678300  0.00431700  0.99843200  1
  Li  Li1  1  0.75349400  0.24797000  0.75290800  1
  Li  Li2  1  0.24673700  0.74815100  0.74758800  1
  Li  Li3  1  0.00169600  0.50169700  0.50438600  1
  Li  Li4  1  0.50238400  0.99783800  0.49838800  1
  Li  Li5  1  0.74703100  0.75164600  0.25303500  1
  Li  Li6  1  0.25255400  0.25254800  0.24585400  1
  Li  Li7  1  0.49519200  0.49767900  0.00244600  1
  V  V0  1  0.88224900  0.62240700  0.86978500  1
  V  V1  1  0.63015400  0.88050700  0.87433100  1
  V  V2  1  0.37582600  0.12829300  0.87893200  1
  V  V3  1  0.62886500  0.62572200  0.62404800  1
  V  V4  1  0.36916400  0.38531000  0.62339000  1
  V  V5  1  0.12082500  0.12744000  0.63271300  1
  V  V6  1  0.62200200  0.37783400  0.36705600  1
  V  V7  1  0.87166800  0.12198800  0.37230000  1
  V  V8  1  0.12519800  0.86460100  0.38115100  1
  V  V9  1  0.87690800  0.37389400  0.12262300  1
  V  V10  1  0.12574400  0.62052000  0.12112700  1
  V  V11  1  0.37843100  0.87325700  0.13043300  1
  Co  Co0  1  0.12301000  0.37546800  0.87311500  1
  Co  Co1  1  0.87559100  0.87530400  0.62665800  1
  Co  Co2  1  0.37408000  0.62502500  0.37601500  1
  Co  Co3  1  0.62454200  0.12245000  0.12735700  1
  O  O0  1  0.88729700  0.38696700  0.88509700  1
  O  O1  1  0.10901400  0.61180000  0.87682800  1
  O  O2  1  0.39681600  0.88160800  0.88423600  1
  O  O3  1  0.85919400  0.86513400  0.86237600  1
  O  O4  1  0.62147400  0.11268200  0.89600700  1
  O  O5  1  0.64338800  0.63406400  0.86477000  1
  O  O6  1  0.35804200  0.36676300  0.85797500  1
  O  O7  1  0.12939500  0.14223700  0.86063700  1
  O  O8  1  0.87254600  0.64469800  0.63789800  1
  O  O9  1  0.64052600  0.86411300  0.63736400  1
  O  O10  1  0.35514000  0.14180200  0.62978700  1
  O  O11  1  0.37739200  0.60747600  0.61104100  1
  O  O12  1  0.13257400  0.36248100  0.64032800  1
  O  O13  1  0.61167000  0.38019700  0.60414000  1
  O  O14  1  0.89102700  0.11171400  0.61169400  1
  O  O15  1  0.11068100  0.88836400  0.61381800  1
  O  O16  1  0.60556900  0.61119100  0.38493900  1
  O  O17  1  0.38500500  0.38995000  0.38562300  1
  O  O18  1  0.10774600  0.10664500  0.38369300  1
  O  O19  1  0.64270100  0.13312100  0.36431600  1
  O  O20  1  0.88764600  0.88382600  0.39491500  1
  O  O21  1  0.86389600  0.36184000  0.36581600  1
  O  O22  1  0.13735800  0.64331200  0.37051700  1
  O  O23  1  0.36522900  0.86087800  0.36428100  1
  O  O24  1  0.62762900  0.35703600  0.14439400  1
  O  O25  1  0.85949700  0.13424300  0.13919200  1
  O  O26  1  0.14704800  0.86944500  0.13626700  1
  O  O27  1  0.12109300  0.38703200  0.10384000  1
  O  O28  1  0.36705700  0.63928600  0.14578700  1
  O  O29  1  0.88484400  0.61720500  0.11009100  1
  O  O30  1  0.61013800  0.88931000  0.11399000  1
  O  O31  1  0.39110200  0.11185400  0.11427100  1
loop_
_geom_bond_atom_site_label_1
_geom_bond_atom_site_label_2
_geom_bond_distance
_geom_bond_site_symmetry_2
Li0 O25 1.957000 1_556
Li0 O7 1.963616 1_655
Li0 O3 1.991318 1_545
Li0 O26 2.034883 1_646
Li1 O0 1.953801 1_555
Li1 O4 1.974517 1_555
Li1 O14 1.989823 1_555
Li1 O13 2.035220 1_555
Li2 O1 1.939671 1_555
Li2 O11 1.956372 1_555
Li2 O15 1.970754 1_555
Li2 O2 2.029310 1_555
Li3 O8 1.946547 1_455
Li3 O12 1.952067 1_555
Li3 O22 1.977317 1_555
Li3 O21 2.007729 1_455
Li4 O23 1.969103 1_555
Li4 O19 1.969883 1_565
Li4 O9 1.975021 1_555
Li4 O10 2.027500 1_565
Li5 O30 1.987937 1_555
Li5 O16 1.990394 1_555
Li5 O29 1.991251 1_555
Li5 O20 2.001375 1_555
Li6 O27 1.962252 1_555
Li6 O31 1.969820 1_555
Li6 O17 1.976472 1_555
Li6 O18 2.060946 1_555
Li7 O28 1.983300 1_555
Li7 O6 1.991858 1_554
Li7 O24 1.995855 1_555
Li7 O5 2.031308 1_554
Co0 O27 1.931637 1_556
Co0 O7 1.942864 1_555
Co0 O12 1.950740 1_555
Co0 O6 1.956353 1_555
Co0 O0 1.961462 1_455
Co0 O1 1.968455 1_555
Co1 O8 1.920263 1_555
Co1 O20 1.941131 1_555
Co1 O9 1.956429 1_555
Co1 O15 1.958332 1_655
Co1 O14 1.974666 1_565
Co1 O3 1.976844 1_555
Co2 O16 1.927037 1_555
Co2 O28 1.929747 1_555
Co2 O17 1.958166 1_555
Co2 O23 1.964787 1_555
Co2 O11 1.970795 1_555
Co2 O22 1.971712 1_555
Co3 O4 1.936456 1_554
Co3 O31 1.944600 1_555
Co3 O30 1.946379 1_545
Co3 O24 1.956397 1_555
Co3 O25 1.957069 1_555
Co3 O19 1.989772 1_555
O0 V0 1.962290 1_555
O0 V9 1.990496 1_556
O1 V0 1.885971 1_455
O1 V10 2.049369 1_556
O2 V1 1.939137 1_555
O2 V2 2.058440 1_565
O2 V11 2.064710 1_556
O3 V1 1.907907 1_555
O3 V0 2.027577 1_555
O4 V1 1.940312 1_545
O4 V2 2.049064 1_555
O5 V0 1.986131 1_555
O5 V3 2.018175 1_555
O5 V1 2.053407 1_555
O6 V4 1.969245 1_555
O6 V2 1.995555 1_555
O7 V5 1.911471 1_555
O7 V2 2.055556 1_555
O8 V0 1.949635 1_555
O8 V3 2.034379 1_555
O9 V1 1.987610 1_555
O9 V3 1.988512 1_555
O10 V5 1.950166 1_555
O10 V4 2.029604 1_555
O10 V2 2.093946 1_555
O11 V4 1.851949 1_555
O11 V3 2.097911 1_555
O12 V5 1.958607 1_555
O12 V4 1.979297 1_555
O13 V6 1.983953 1_555
O13 V4 2.019848 1_555
O13 V3 2.054381 1_555
O14 V5 1.922303 1_655
O14 V7 2.010567 1_555
O15 V8 1.958680 1_555
O15 V5 1.996738 1_565
O16 V6 1.950494 1_555
O16 V3 2.013233 1_555
O17 V6 1.975652 1_555
O17 V4 1.992218 1_555
O18 V7 1.966745 1_455
O18 V8 2.017454 1_545
O18 V5 2.092771 1_555
O19 V7 1.904709 1_555
O19 V6 2.041569 1_555
O20 V8 1.981274 1_655
O20 V7 1.993288 1_565
O21 V7 1.996054 1_555
O21 V6 2.012528 1_555
O21 V9 2.038284 1_555
O22 V8 1.844684 1_555
O22 V10 2.096645 1_555
O23 V11 1.960580 1_555
O23 V8 1.997792 1_555
O24 V6 1.870247 1_555
O24 V9 2.082740 1_555
O25 V7 1.954761 1_555
O25 V9 2.003575 1_555
O26 V11 1.922342 1_555
O26 V8 2.055212 1_555
O26 V10 2.082454 1_555
O27 V10 1.947729 1_555
O27 V9 2.036688 1_455
O28 V11 1.952597 1_555
O28 V10 2.022268 1_555
O29 V10 2.003409 1_655
O29 V0 2.009959 1_554
O29 V9 2.027419 1_555
O30 V11 1.933783 1_555
O30 V1 2.011398 1_554
O31 V2 1.977032 1_554
O31 V11 1.991974 1_545
