# generated using pymatgen
data_CaH8(ClO2)2
_symmetry_space_group_name_H-M   'P 1'
_cell_length_a   10.26639000
_cell_length_b   9.03907400
_cell_length_c   12.90184130
_cell_angle_alpha   64.79573412
_cell_angle_beta   90.00000000
_cell_angle_gamma   90.00000000
_symmetry_Int_Tables_number   1
_chemical_formula_structural   CaH8(ClO2)2
_chemical_formula_sum   'Ca6 H48 Cl12 O24'
_cell_volume   1083.28755770
_cell_formula_units_Z   6
loop_
 _symmetry_equiv_pos_site_id
 _symmetry_equiv_pos_as_xyz
  1  'x, y, z'
loop_
 _atom_site_type_symbol
 _atom_site_label
 _atom_site_symmetry_multiplicity
 _atom_site_fract_x
 _atom_site_fract_y
 _atom_site_fract_z
 _atom_site_occupancy
  Ca  Ca0  1  0.50000000  0.00000000  0.50000000  1
  Ca  Ca1  1  0.00000000  0.00000000  0.00000000  1
  Ca  Ca2  1  0.54743100  0.26069400  0.86305700  1
  Ca  Ca3  1  0.04743100  0.73930600  0.63694300  1
  Ca  Ca4  1  0.45256900  0.73930600  0.13694300  1
  Ca  Ca5  1  0.95256900  0.26069400  0.36305700  1
  H  H0  1  0.34223800  0.16052100  0.72602800  1
  H  H1  1  0.84223800  0.83947900  0.77397200  1
  H  H2  1  0.65776200  0.83947900  0.27397200  1
  H  H3  1  0.15776200  0.16052100  0.22602800  1
  H  H4  1  0.31485300  0.05435400  0.85705800  1
  H  H5  1  0.81485300  0.94564600  0.64294200  1
  H  H6  1  0.68514700  0.94564600  0.14294200  1
  H  H7  1  0.18514700  0.05435400  0.35705800  1
  H  H8  1  0.52200800  0.54673200  0.61565400  1
  H  H9  1  0.02200800  0.45326800  0.88434600  1
  H  H10  1  0.47799200  0.45326800  0.38434600  1
  H  H11  1  0.97799200  0.54673200  0.11565400  1
  H  H12  1  0.44873600  0.39271500  0.62033200  1
  H  H13  1  0.94873600  0.60728500  0.87966800  1
  H  H14  1  0.55126400  0.60728500  0.37966800  1
  H  H15  1  0.05126400  0.39271500  0.12033200  1
  H  H16  1  0.43355400  0.56213000  0.88454900  1
  H  H17  1  0.93355400  0.43787000  0.61545100  1
  H  H18  1  0.56644600  0.43787000  0.11545100  1
  H  H19  1  0.06644600  0.56213000  0.38454900  1
  H  H20  1  0.32510300  0.42771000  0.93981500  1
  H  H21  1  0.82510300  0.57229000  0.56018500  1
  H  H22  1  0.67489700  0.57229000  0.06018500  1
  H  H23  1  0.17489700  0.42771000  0.43981500  1
  H  H24  1  0.67820700  0.19134300  0.66870600  1
  H  H25  1  0.17820700  0.80865700  0.83129400  1
  H  H26  1  0.32179300  0.80865700  0.33129400  1
  H  H27  1  0.82179300  0.19134300  0.16870600  1
  H  H28  1  0.78875100  0.19145000  0.75110400  1
  H  H29  1  0.28875100  0.80855000  0.74889600  1
  H  H30  1  0.21124900  0.80855000  0.24889600  1
  H  H31  1  0.71124900  0.19145000  0.25110400  1
  H  H32  1  0.64877300  0.61327100  0.78689900  1
  H  H33  1  0.14877300  0.38672900  0.71310100  1
  H  H34  1  0.35122700  0.38672900  0.21310100  1
  H  H35  1  0.85122700  0.61327100  0.28689900  1
  H  H36  1  0.77706800  0.50683000  0.81410100  1
  H  H37  1  0.27706800  0.49317000  0.68589900  1
  H  H38  1  0.22293200  0.49317000  0.18589900  1
  H  H39  1  0.72293200  0.50683000  0.31410100  1
  H  H40  1  0.45770900  0.11143800  0.11858800  1
  H  H41  1  0.95770900  0.88856200  0.38141200  1
  H  H42  1  0.54229100  0.88856200  0.88141200  1
  H  H43  1  0.04229100  0.11143800  0.61858800  1
  H  H44  1  0.34007800  0.11410500  0.04347000  1
  H  H45  1  0.84007800  0.88589500  0.45653000  1
  H  H46  1  0.65992200  0.88589500  0.95653000  1
  H  H47  1  0.15992200  0.11410500  0.54347000  1
  Cl  Cl0  1  0.50257700  0.82452800  0.73749000  1
  Cl  Cl1  1  0.00257700  0.17547200  0.76251000  1
  Cl  Cl2  1  0.49742300  0.17547200  0.26251000  1
  Cl  Cl3  1  0.99742300  0.82452800  0.23749000  1
  Cl  Cl4  1  0.64074400  0.75216500  0.47162300  1
  Cl  Cl5  1  0.14074400  0.24783500  0.02837700  1
  Cl  Cl6  1  0.35925600  0.24783500  0.52837700  1
  Cl  Cl7  1  0.85925600  0.75216500  0.97162300  1
  Cl  Cl8  1  0.72518200  0.15364500  0.51250500  1
  Cl  Cl9  1  0.22518200  0.84635500  0.98749500  1
  Cl  Cl10  1  0.27481800  0.84635500  0.48749500  1
  Cl  Cl11  1  0.77481800  0.15364500  0.01250500  1
  O  O0  1  0.35964400  0.15406800  0.80269700  1
  O  O1  1  0.85964400  0.84593200  0.69730300  1
  O  O2  1  0.64035600  0.84593200  0.19730300  1
  O  O3  1  0.14035600  0.15406800  0.30269700  1
  O  O4  1  0.46723900  0.45438500  0.66568300  1
  O  O5  1  0.96723900  0.54561500  0.83431700  1
  O  O6  1  0.53276100  0.54561500  0.33431700  1
  O  O7  1  0.03276100  0.45438500  0.16568300  1
  O  O8  1  0.41557600  0.44573600  0.91292400  1
  O  O9  1  0.91557600  0.55426400  0.58707600  1
  O  O10  1  0.58442400  0.55426400  0.08707600  1
  O  O11  1  0.08442400  0.44573600  0.41292400  1
  O  O12  1  0.69335900  0.20054900  0.74084600  1
  O  O13  1  0.19335900  0.79945100  0.75915400  1
  O  O14  1  0.30664100  0.79945100  0.25915400  1
  O  O15  1  0.80664100  0.20054900  0.24084600  1
  O  O16  1  0.68133100  0.50086800  0.81650000  1
  O  O17  1  0.18133100  0.49913200  0.68350000  1
  O  O18  1  0.31866900  0.49913200  0.18350000  1
  O  O19  1  0.81866900  0.50086800  0.31650000  1
  O  O20  1  0.43388300  0.08937200  0.05198000  1
  O  O21  1  0.93388300  0.91062800  0.44802000  1
  O  O22  1  0.56611700  0.91062800  0.94802000  1
  O  O23  1  0.06611700  0.08937200  0.55198000  1
loop_
_geom_bond_atom_site_label_1
_geom_bond_atom_site_label_2
_geom_bond_distance
_geom_bond_site_symmetry_2
Ca0 Cl8 2.736805 1_555
Ca0 Cl10 2.736805 1_545
Ca0 Cl0 2.786705 1_545
Ca0 Cl2 2.786705 1_555
Ca0 Cl6 2.817605 1_555
Ca0 Cl4 2.817605 1_545
Ca1 Cl9 2.736805 1_544
Ca1 Cl11 2.736805 1_455
Ca1 Cl1 2.786705 1_554
Ca1 Cl3 2.786705 1_445
Ca1 Cl5 2.817605 1_555
Ca1 Cl7 2.817605 1_444
Ca2 O12 2.399215 1_555
Ca2 O16 2.419280 1_555
Ca2 O0 2.427220 1_555
Ca2 O8 2.441415 1_555
Ca2 O4 2.535842 1_555
Ca2 O20 2.546257 1_556
Ca2 O22 2.880423 1_545
Ca2 Cl11 2.917991 1_556
Ca3 O13 2.399215 1_555
Ca3 O17 2.419280 1_555
Ca3 O1 2.427220 1_455
Ca3 O9 2.441415 1_455
Ca3 O5 2.535842 1_455
Ca3 O21 2.546257 1_455
Ca3 O23 2.880423 1_565
Ca3 Cl10 2.917991 1_555
Ca4 O14 2.399215 1_555
Ca4 O18 2.419280 1_555
Ca4 O2 2.427220 1_555
Ca4 O10 2.441415 1_555
Ca4 O6 2.535842 1_555
Ca4 O22 2.546257 1_554
Ca4 O20 2.880423 1_565
Ca4 Cl9 2.917991 1_554
Ca5 O15 2.399215 1_555
Ca5 O19 2.419280 1_555
Ca5 O3 2.427220 1_655
Ca5 O11 2.441415 1_655
Ca5 O7 2.535842 1_655
Ca5 O23 2.546257 1_655
Ca5 O21 2.880423 1_545
Ca5 Cl8 2.917991 1_555
H0 O0 0.982168 1_555
H1 O1 0.982168 1_555
H2 O2 0.982168 1_555
H3 O3 0.982168 1_555
H4 O0 0.988606 1_555
H5 O1 0.988606 1_555
H6 O2 0.988606 1_555
H7 O3 0.988606 1_555
H8 O4 0.985230 1_555
H9 O5 0.985230 1_455
H10 O6 0.985230 1_555
H11 O7 0.985230 1_655
H12 O4 0.983347 1_555
H13 O5 0.983347 1_555
H14 O6 0.983347 1_555
H15 O7 0.983347 1_555
H16 O8 0.973114 1_555
H17 O9 0.973114 1_555
H18 O10 0.973114 1_555
H19 O11 0.973114 1_555
H20 O8 0.980561 1_555
H21 O9 0.980561 1_555
H22 O10 0.980561 1_555
H23 O11 0.980561 1_555
H24 O12 0.981510 1_555
H25 O13 0.981510 1_555
H26 O14 0.981510 1_555
H27 O15 0.981510 1_555
H28 O12 0.986965 1_555
H29 O13 0.986965 1_555
H30 O14 0.986965 1_555
H31 O15 0.986965 1_555
H32 O16 0.979487 1_555
H33 O17 0.979487 1_555
H34 O18 0.979487 1_555
H35 O19 0.979487 1_555
H36 O16 0.984115 1_555
H37 O17 0.984115 1_555
H38 O18 0.984115 1_555
H39 O19 0.984115 1_555
H40 O20 0.992023 1_555
H41 O21 0.992023 1_555
H42 O22 0.992023 1_555
H43 O23 0.992023 1_555
H44 O20 0.984161 1_555
H45 O21 0.984161 1_555
H46 O22 0.984161 1_555
H47 O23 0.984161 1_555
Cl8 H5 2.125948 1_545
Cl9 H4 2.125948 1_565
Cl10 H7 2.125948 1_565
Cl11 H6 2.125948 1_545
