# generated using pymatgen
data_TiV15O24
_symmetry_space_group_name_H-M   'P 1'
_cell_length_a   5.55924700
_cell_length_b   9.14900894
_cell_length_c   9.16047785
_cell_angle_alpha   68.36808047
_cell_angle_beta   84.89902188
_cell_angle_gamma   84.84801814
_symmetry_Int_Tables_number   1
_chemical_formula_structural   TiV15O24
_chemical_formula_sum   'Ti1 V15 O24'
_cell_volume   430.56850934
_cell_formula_units_Z   1
loop_
 _symmetry_equiv_pos_site_id
 _symmetry_equiv_pos_as_xyz
  1  'x, y, z'
loop_
 _atom_site_type_symbol
 _atom_site_label
 _atom_site_symmetry_multiplicity
 _atom_site_fract_x
 _atom_site_fract_y
 _atom_site_fract_z
 _atom_site_occupancy
  Ti  Ti0  1  0.29366500  0.07221300  0.07100300  1
  V  V0  1  0.79889800  0.57789100  0.07292100  1
  V  V1  1  0.69852500  0.17861900  0.17325000  1
  V  V2  1  0.70076800  0.42499000  0.42664200  1
  V  V3  1  0.19660600  0.67226500  0.17813400  1
  V  V4  1  0.79938800  0.82393700  0.32387000  1
  V  V5  1  0.80092500  0.07409700  0.57411100  1
  V  V6  1  0.29850100  0.32478000  0.32489000  1
  V  V7  1  0.79685000  0.32430900  0.82504200  1
  V  V8  1  0.20315500  0.17216200  0.67342100  1
  V  V9  1  0.29783100  0.57345800  0.57629400  1
  V  V10  1  0.70127900  0.67530000  0.67556700  1
  V  V11  1  0.20388100  0.92533200  0.42451600  1
  V  V12  1  0.20261400  0.42707400  0.92676900  1
  V  V13  1  0.30332400  0.82733700  0.82325100  1
  V  V14  1  0.69869900  0.92459600  0.92500500  1
  O  O0  1  0.84783100  0.37667300  0.02633900  1
  O  O1  1  0.01016200  0.03129200  0.21446700  1
  O  O2  1  0.34494900  0.27419100  0.12734500  1
  O  O3  1  0.99715500  0.47135000  0.27796700  1
  O  O4  1  0.85062600  0.77645000  0.12870000  1
  O  O5  1  0.33887100  0.88172900  0.03205800  1
  O  O6  1  0.49626300  0.52707500  0.22467300  1
  O  O7  1  0.65393200  0.22234700  0.37429700  1
  O  O8  1  0.85003600  0.27711800  0.62694800  1
  O  O9  1  0.50167500  0.97404200  0.27321000  1
  O  O10  1  0.15343200  0.12392000  0.47003800  1
  O  O11  1  0.65098700  0.62404700  0.47480400  1
  O  O12  1  0.84945300  0.87524800  0.52308500  1
  O  O13  1  0.34670600  0.37324700  0.52855200  1
  O  O14  1  0.50061500  0.02956800  0.71973100  1
  O  O15  1  0.99810300  0.52497000  0.72447500  1
  O  O16  1  0.15262700  0.72340500  0.37644400  1
  O  O17  1  0.34917500  0.77631100  0.62467100  1
  O  O18  1  0.49618500  0.47144600  0.77858300  1
  O  O19  1  0.00473800  0.97492400  0.77352600  1
  O  O20  1  0.64710000  0.12918800  0.97406200  1
  O  O21  1  0.15792400  0.21626000  0.88367100  1
  O  O22  1  0.65043100  0.72006600  0.87471800  1
  O  O23  1  0.15611100  0.62677000  0.97294800  1
loop_
_geom_bond_atom_site_label_1
_geom_bond_atom_site_label_2
_geom_bond_distance
_geom_bond_site_symmetry_2
O0 V1 2.014193 1_555
O0 V0 2.028241 1_555
O0 V12 2.113762 1_654
O0 V7 2.116302 1_554
O1 Ti0 1.930325 1_555
O1 V1 2.069428 1_455
O1 V11 2.146539 1_545
O1 V4 2.182882 1_445
O2 V6 2.017061 1_555
O2 V12 2.030625 1_554
O2 V1 2.090992 1_555
O2 Ti0 2.141577 1_555
O3 V2 2.012514 1_555
O3 V6 2.022144 1_655
O3 V3 2.095466 1_655
O3 V0 2.125622 1_555
O4 V4 1.981464 1_555
O4 V14 2.059653 1_554
O4 V3 2.078565 1_655
O4 V0 2.109074 1_555
O5 Ti0 1.895090 1_565
O5 V3 2.069292 1_555
O5 V14 2.150697 1_554
O5 V13 2.175328 1_554
O6 V3 2.008160 1_555
O6 V0 2.056021 1_555
O6 V6 2.100044 1_555
O6 V2 2.120648 1_555
O7 V1 2.014337 1_555
O7 V5 2.023431 1_555
O7 V2 2.121158 1_555
O7 V6 2.121589 1_555
O8 V7 2.006499 1_555
O8 V2 2.030921 1_555
O8 V8 2.113205 1_655
O8 V5 2.129861 1_555
O9 V4 2.024614 1_555
O9 V11 2.032110 1_555
O9 V1 2.113122 1_565
O9 Ti0 2.131368 1_565
O10 V11 1.999976 1_545
O10 V6 2.017258 1_555
O10 V8 2.112360 1_555
O10 V5 2.113008 1_455
O11 V2 2.016947 1_555
O11 V4 2.034858 1_555
O11 V10 2.105012 1_555
O11 V9 2.110545 1_555
O12 V5 2.029139 1_565
O12 V10 2.039154 1_555
O12 V4 2.091299 1_555
O12 V11 2.109097 1_655
O13 V8 2.014420 1_555
O13 V9 2.024957 1_555
O13 V6 2.114058 1_555
O13 V2 2.117699 1_555
O14 V8 1.986392 1_555
O14 V5 2.014466 1_555
O14 V13 2.100333 1_545
O14 V14 2.125493 1_545
O15 V10 2.021091 1_555
O15 V9 2.025430 1_655
O15 V7 2.099866 1_555
O15 V12 2.120583 1_655
O16 V9 2.024198 1_555
O16 V3 2.026305 1_555
O16 V11 2.098755 1_555
O16 V4 2.109835 1_455
O17 V11 2.023746 1_555
O17 V13 2.028369 1_555
O17 V10 2.103022 1_555
O17 V9 2.108615 1_555
O18 V12 1.997439 1_555
O18 V7 2.021652 1_555
O18 V9 2.103393 1_555
O18 V10 2.135863 1_555
O19 V13 2.016056 1_555
O19 V8 2.066769 1_565
O19 V14 2.069274 1_455
O19 V5 2.098908 1_465
O20 V7 2.002864 1_555
O20 V14 2.070928 1_545
O20 V1 2.083269 1_556
O20 Ti0 2.110275 1_556
O21 Ti0 1.906661 1_556
O21 V8 2.098573 1_555
O21 V12 2.145353 1_555
O21 V7 2.176880 1_455
O22 V0 2.000536 1_556
O22 V10 2.003540 1_555
O22 V13 2.095123 1_555
O22 V14 2.129193 1_555
O23 V12 2.012296 1_555
O23 V13 2.032808 1_555
O23 V3 2.103741 1_556
O23 V0 2.125174 1_456
