# generated using pymatgen
data_CaBi2O5
_symmetry_space_group_name_H-M   'P 1'
_cell_length_a   8.70643558
_cell_length_b   8.70643558
_cell_length_c   11.34971864
_cell_angle_alpha   89.95738278
_cell_angle_beta   89.95738278
_cell_angle_gamma   83.51655201
_symmetry_Int_Tables_number   1
_chemical_formula_structural   CaBi2O5
_chemical_formula_sum   'Ca6 Bi12 O30'
_cell_volume   854.82894380
_cell_formula_units_Z   6
loop_
 _symmetry_equiv_pos_site_id
 _symmetry_equiv_pos_as_xyz
  1  'x, y, z'
loop_
 _atom_site_type_symbol
 _atom_site_label
 _atom_site_symmetry_multiplicity
 _atom_site_fract_x
 _atom_site_fract_y
 _atom_site_fract_z
 _atom_site_occupancy
  Ca  Ca0  1  0.02744500  0.30388100  0.42868500  1
  Ca  Ca1  1  0.30388100  0.02744500  0.92868500  1
  Ca  Ca2  1  0.32355600  0.67644400  0.75000000  1
  Ca  Ca3  1  0.67644400  0.32355600  0.25000000  1
  Ca  Ca4  1  0.69611900  0.97255500  0.07131500  1
  Ca  Ca5  1  0.97255500  0.69611900  0.57131500  1
  Bi  Bi0  1  0.02534300  0.29854600  0.06814700  1
  Bi  Bi1  1  0.01391700  0.65058100  0.25202800  1
  Bi  Bi2  1  0.29854600  0.02534300  0.56814700  1
  Bi  Bi3  1  0.35541400  0.63877100  0.44292400  1
  Bi  Bi4  1  0.36122900  0.64458600  0.05707600  1
  Bi  Bi5  1  0.34941900  0.98608300  0.24797200  1
  Bi  Bi6  1  0.65058100  0.01391700  0.75202800  1
  Bi  Bi7  1  0.63877100  0.35541400  0.94292400  1
  Bi  Bi8  1  0.64458600  0.36122900  0.55707600  1
  Bi  Bi9  1  0.70145400  0.97465700  0.43185300  1
  Bi  Bi10  1  0.98608300  0.34941900  0.74797200  1
  Bi  Bi11  1  0.97465700  0.70145400  0.93185300  1
  O  O0  1  0.13518300  0.54110700  0.08788600  1
  O  O1  1  0.13485000  0.53981500  0.40890500  1
  O  O2  1  0.10292700  0.21656500  0.88416900  1
  O  O3  1  0.07835100  0.56775700  0.75206100  1
  O  O4  1  0.21656500  0.10292700  0.38416900  1
  O  O5  1  0.20924700  0.79381900  0.57372900  1
  O  O6  1  0.11581800  0.21761800  0.61871700  1
  O  O7  1  0.24593600  0.75406400  0.25000000  1
  O  O8  1  0.20618100  0.79075300  0.92627100  1
  O  O9  1  0.21761800  0.11581800  0.11871700  1
  O  O10  1  0.43224300  0.92164900  0.74793900  1
  O  O11  1  0.45105700  0.53373300  0.60635800  1
  O  O12  1  0.45889300  0.86481700  0.41211400  1
  O  O13  1  0.53981500  0.13485000  0.90890500  1
  O  O14  1  0.46626700  0.54894300  0.89364200  1
  O  O15  1  0.53373300  0.45105700  0.10635800  1
  O  O16  1  0.46018500  0.86515000  0.09109500  1
  O  O17  1  0.54110700  0.13518300  0.58788600  1
  O  O18  1  0.54894300  0.46626700  0.39364200  1
  O  O19  1  0.56775700  0.07835100  0.25206100  1
  O  O20  1  0.78238200  0.88418200  0.88128300  1
  O  O21  1  0.79381900  0.20924700  0.07372900  1
  O  O22  1  0.75406400  0.24593600  0.75000000  1
  O  O23  1  0.88418200  0.78238200  0.38128300  1
  O  O24  1  0.79075300  0.20618100  0.42627100  1
  O  O25  1  0.78343500  0.89707300  0.61583100  1
  O  O26  1  0.92164900  0.43224300  0.24793900  1
  O  O27  1  0.89707300  0.78343500  0.11583100  1
  O  O28  1  0.86515000  0.46018500  0.59109500  1
  O  O29  1  0.86481700  0.45889300  0.91211400  1
loop_
_geom_bond_atom_site_label_1
_geom_bond_atom_site_label_2
_geom_bond_distance
_geom_bond_site_symmetry_2
Ca0 O24 2.316668 1_455
Ca0 O4 2.318838 1_555
Ca0 O1 2.361597 1_555
Ca0 O6 2.382740 1_555
Ca0 O26 2.464274 1_455
Ca0 O28 2.609962 1_455
Ca1 O8 2.316668 1_545
Ca1 O2 2.318838 1_555
Ca1 O13 2.361597 1_555
Ca1 O9 2.382740 1_556
Ca1 O10 2.464274 1_545
Ca1 O16 2.609962 1_546
Ca2 O11 2.263359 1_555
Ca2 O14 2.263359 1_555
Ca2 O8 2.409882 1_555
Ca2 O5 2.409882 1_555
Ca2 O10 2.430994 1_555
Ca2 O3 2.430994 1_555
Ca3 O15 2.263359 1_555
Ca3 O18 2.263359 1_555
Ca3 O21 2.409882 1_555
Ca3 O24 2.409882 1_555
Ca3 O26 2.430994 1_555
Ca3 O19 2.430994 1_555
Ca4 O21 2.316668 1_565
Ca4 O27 2.318838 1_555
Ca4 O16 2.361597 1_555
Ca4 O20 2.382740 1_554
Ca4 O19 2.464274 1_565
Ca4 O13 2.609962 1_564
Ca5 O5 2.316668 1_655
Ca5 O25 2.318838 1_555
Ca5 O28 2.361597 1_555
Ca5 O23 2.382740 1_555
Ca5 O3 2.464274 1_655
Ca5 O1 2.609962 1_655
Bi0 O21 2.241737 1_455
Bi0 O9 2.249760 1_555
Bi0 O2 2.284102 1_554
Bi0 O0 2.425225 1_555
Bi0 O26 2.469308 1_455
Bi0 O29 2.568626 1_454
Bi1 O23 2.109993 1_455
Bi1 O27 2.120435 1_455
Bi1 O26 2.146190 1_455
Bi1 O1 2.231536 1_555
Bi1 O0 2.294832 1_555
Bi1 O7 2.303004 1_555
Bi2 O5 2.241737 1_545
Bi2 O6 2.249760 1_555
Bi2 O4 2.284102 1_555
Bi2 O17 2.425225 1_555
Bi2 O10 2.469308 1_545
Bi2 O12 2.568626 1_545
Bi3 O11 2.190500 1_555
Bi3 O18 2.199079 1_555
Bi3 O1 2.225811 1_555
Bi3 O12 2.281694 1_555
Bi3 O5 2.293037 1_555
Bi3 O7 2.548406 1_555
Bi4 O14 2.190500 1_554
Bi4 O15 2.199079 1_555
Bi4 O16 2.225811 1_555
Bi4 O0 2.281694 1_555
Bi4 O8 2.293037 1_554
Bi4 O7 2.548406 1_555
Bi5 O9 2.109993 1_565
Bi5 O4 2.120435 1_565
Bi5 O19 2.146190 1_565
Bi5 O16 2.231536 1_555
Bi5 O12 2.294832 1_555
Bi5 O7 2.303004 1_555
Bi6 O20 2.109993 1_545
Bi6 O25 2.120435 1_545
Bi6 O10 2.146190 1_545
Bi6 O13 2.231536 1_555
Bi6 O17 2.294832 1_555
Bi6 O22 2.303004 1_555
Bi7 O15 2.190500 1_556
Bi7 O14 2.199079 1_555
Bi7 O13 2.225811 1_555
Bi7 O29 2.281694 1_555
Bi7 O21 2.293037 1_556
Bi7 O22 2.548406 1_555
Bi8 O18 2.190500 1_555
Bi8 O11 2.199079 1_555
Bi8 O28 2.225811 1_555
Bi8 O17 2.281694 1_555
Bi8 O24 2.293037 1_555
Bi8 O22 2.548406 1_555
Bi9 O24 2.241737 1_565
Bi9 O23 2.249760 1_555
Bi9 O25 2.284102 1_555
Bi9 O12 2.425225 1_555
Bi9 O19 2.469308 1_565
Bi9 O17 2.568626 1_565
Bi10 O6 2.109993 1_655
Bi10 O2 2.120435 1_655
Bi10 O3 2.146190 1_655
Bi10 O28 2.231536 1_555
Bi10 O29 2.294832 1_555
Bi10 O22 2.303004 1_555
Bi11 O8 2.241737 1_655
Bi11 O20 2.249760 1_555
Bi11 O27 2.284102 1_556
Bi11 O29 2.425225 1_555
Bi11 O3 2.469308 1_655
Bi11 O0 2.568626 1_656
