# generated using pymatgen
data_Li5Ti2Co5O12
_symmetry_space_group_name_H-M   'P 1'
_cell_length_a   5.14336918
_cell_length_b   5.14336918
_cell_length_c   9.89252245
_cell_angle_alpha   84.56514300
_cell_angle_beta   84.56514300
_cell_angle_gamma   121.06506419
_symmetry_Int_Tables_number   1
_chemical_formula_structural   Li5Ti2Co5O12
_chemical_formula_sum   'Li5 Ti2 Co5 O12'
_cell_volume   219.97264724
_cell_formula_units_Z   1
loop_
 _symmetry_equiv_pos_site_id
 _symmetry_equiv_pos_as_xyz
  1  'x, y, z'
loop_
 _atom_site_type_symbol
 _atom_site_label
 _atom_site_symmetry_multiplicity
 _atom_site_fract_x
 _atom_site_fract_y
 _atom_site_fract_z
 _atom_site_occupancy
  Li  Li0  1  0.66940300  0.82652100  0.24416400  1
  Li  Li1  1  0.17347900  0.33059700  0.75583600  1
  Li  Li2  1  0.81772000  0.68291200  0.75081400  1
  Li  Li3  1  0.08285300  0.91714700  0.00000000  1
  Li  Li4  1  0.31708800  0.18228000  0.24918600  1
  Ti  Ti0  1  0.74745000  0.25255000  0.00000000  1
  Ti  Ti1  1  0.24301600  0.75698400  0.50000000  1
  Co  Co0  1  0.91344300  0.08655700  0.50000000  1
  Co  Co1  1  0.99882900  0.50718400  0.24438700  1
  Co  Co2  1  0.49281600  0.00117100  0.75561300  1
  Co  Co3  1  0.57973500  0.42026500  0.50000000  1
  Co  Co4  1  0.41780700  0.58219300  0.00000000  1
  O  O0  1  0.76461800  0.95543200  0.88395800  1
  O  O1  1  0.52272700  0.71607000  0.61575400  1
  O  O2  1  0.88030800  0.39394300  0.62055900  1
  O  O3  1  0.39449800  0.86480000  0.11095400  1
  O  O4  1  0.68723700  0.51911500  0.11178300  1
  O  O5  1  0.04456800  0.23538200  0.11604200  1
  O  O6  1  0.98006700  0.79713000  0.37376500  1
  O  O7  1  0.60605700  0.11969200  0.37944100  1
  O  O8  1  0.28393000  0.47727300  0.38424600  1
  O  O9  1  0.13520000  0.60550200  0.88904600  1
  O  O10  1  0.48088500  0.31276300  0.88821700  1
  O  O11  1  0.20287000  0.01993300  0.62623500  1
loop_
_geom_bond_atom_site_label_1
_geom_bond_atom_site_label_2
_geom_bond_distance
_geom_bond_site_symmetry_2
Li0 O3 2.089411 1_555
Li0 O8 2.100108 1_555
Li0 O5 2.143870 1_665
Li0 O4 2.177717 1_555
Li0 O6 2.195533 1_555
Li0 O7 2.231011 1_565
Li1 O9 2.089411 1_555
Li1 O1 2.100108 1_555
Li1 O0 2.143870 1_445
Li1 O10 2.177717 1_555
Li1 O11 2.195533 1_555
Li1 O2 2.231011 1_455
Li2 O11 2.009193 1_665
Li2 O10 2.033064 1_555
Li2 O0 2.109685 1_555
Li2 O1 2.173514 1_555
Li2 O2 2.179674 1_555
Li2 O9 2.384472 1_655
Li3 O4 2.097668 1_455
Li3 O10 2.097668 1_564
Li3 O3 2.137577 1_555
Li3 O9 2.137577 1_554
Li3 O5 2.163657 1_565
Li3 O0 2.163657 1_454
Li4 O6 2.009193 1_445
Li4 O4 2.033064 1_555
Li4 O5 2.109685 1_555
Li4 O8 2.173514 1_555
Li4 O7 2.179674 1_555
Li4 O3 2.384472 1_545
Co0 O8 2.044405 1_655
Co0 O1 2.044405 1_545
Co0 O7 2.132539 1_555
Co0 O2 2.132539 1_555
Co0 O11 2.165740 1_655
Co0 O6 2.165740 1_545
Co1 O5 2.059312 1_655
Co1 O6 2.087593 1_555
Co1 O3 2.106004 1_655
Co1 O8 2.159857 1_655
Co1 O7 2.160403 1_555
Co1 O4 2.185742 1_555
Co2 O0 2.059312 1_545
Co2 O11 2.087593 1_555
Co2 O9 2.106004 1_545
Co2 O1 2.159857 1_545
Co2 O2 2.160403 1_555
Co2 O10 2.185742 1_555
Co3 O2 2.089345 1_555
Co3 O7 2.089345 1_555
Co3 O8 2.106845 1_555
Co3 O1 2.106845 1_555
Co3 O11 2.119386 1_555
Co3 O6 2.119386 1_555
Co4 O9 1.946556 1_554
Co4 O3 1.946556 1_555
Co4 O5 1.961020 1_555
Co4 O0 1.961020 1_554
Co4 O4 1.983628 1_555
Co4 O10 1.983628 1_554
O0 Ti0 2.028130 1_566
O1 Ti1 2.001031 1_555
O2 Ti1 1.987703 1_655
O3 Ti0 1.987259 1_565
O4 Ti0 1.964440 1_555
O5 Ti0 2.028130 1_455
O6 Ti1 1.997619 1_655
O7 Ti1 1.987703 1_545
O8 Ti1 2.001031 1_555
O9 Ti0 1.987259 1_456
O10 Ti0 1.964440 1_556
O11 Ti1 1.997619 1_545
