# generated using pymatgen
data_BaNb3NO7
_symmetry_space_group_name_H-M   'P 1'
_cell_length_a   10.79420589
_cell_length_b   10.79420589
_cell_length_c   9.12912202
_cell_angle_alpha   89.50859623
_cell_angle_beta   89.50859623
_cell_angle_gamma   20.75472550
_symmetry_Int_Tables_number   1
_chemical_formula_structural   BaNb3NO7
_chemical_formula_sum   'Ba2 Nb6 N2 O14'
_cell_volume   376.91949001
_cell_formula_units_Z   2
loop_
 _symmetry_equiv_pos_site_id
 _symmetry_equiv_pos_as_xyz
  1  'x, y, z'
loop_
 _atom_site_type_symbol
 _atom_site_label
 _atom_site_symmetry_multiplicity
 _atom_site_fract_x
 _atom_site_fract_y
 _atom_site_fract_z
 _atom_site_occupancy
  Ba  Ba0  1  0.00892400  0.00892400  0.24951700  1
  Ba  Ba1  1  0.97918600  0.97918600  0.75629300  1
  Nb  Nb0  1  0.36796500  0.36796500  0.05125500  1
  Nb  Nb1  1  0.75905700  0.75905700  0.24349800  1
  Nb  Nb2  1  0.36533100  0.36533100  0.44347600  1
  Nb  Nb3  1  0.63173900  0.63173900  0.55372200  1
  Nb  Nb4  1  0.24136300  0.24136300  0.75556200  1
  Nb  Nb5  1  0.63061200  0.63061200  0.93689800  1
  N  N0  1  0.29613800  0.29613800  0.90320500  1
  N  N1  1  0.43707700  0.43707700  0.93526800  1
  O  O0  1  0.56601100  0.56601100  0.06869500  1
  O  O1  1  0.84394000  0.84394000  0.10456500  1
  O  O2  1  0.70152100  0.70152100  0.09218400  1
  O  O3  1  0.28214900  0.28214900  0.25760100  1
  O  O4  1  0.41758100  0.41758100  0.25876900  1
  O  O5  1  0.70184800  0.70184800  0.40374800  1
  O  O6  1  0.84476900  0.84476900  0.40714300  1
  O  O7  1  0.56375200  0.56375200  0.43237500  1
  O  O8  1  0.43282500  0.43282500  0.56726500  1
  O  O9  1  0.14716900  0.14716900  0.58233800  1
  O  O10  1  0.29445900  0.29445900  0.58670600  1
  O  O11  1  0.70782700  0.70782700  0.74725000  1
  O  O12  1  0.58066500  0.58066500  0.75091300  1
  O  O13  1  0.15072200  0.15072200  0.90738700  1
loop_
_geom_bond_atom_site_label_1
_geom_bond_atom_site_label_2
_geom_bond_distance
_geom_bond_site_symmetry_2
Ba0 O4 2.747226 1_455
Ba0 O4 2.747226 1_545
Ba0 O0 2.817835 1_545
Ba0 O0 2.817835 1_455
Ba0 O7 2.820761 1_455
Ba0 O7 2.820761 1_545
Ba1 N1 2.687796 1_565
Ba1 N1 2.687796 1_655
Ba1 O8 2.785194 1_655
Ba1 O8 2.785194 1_565
Ba1 O12 2.902563 1_655
Ba1 O12 2.902563 1_565
Nb0 O1 2.067211 1_455
Nb0 O1 2.067211 1_545
Nb0 O4 2.175714 1_555
Nb0 O3 2.609513 1_555
Nb1 O2 1.852128 1_555
Nb1 O5 1.893427 1_555
Nb1 O3 2.009650 1_565
Nb1 O3 2.009650 1_655
Nb1 O1 2.194964 1_555
Nb1 O6 2.364760 1_555
Nb2 O8 1.832909 1_555
Nb2 O10 1.985043 1_555
Nb2 O4 2.010417 1_555
Nb2 O6 2.020831 1_455
Nb2 O6 2.020831 1_545
Nb2 O3 2.460041 1_555
Nb3 O7 1.827410 1_555
Nb3 O9 1.989387 1_565
Nb3 O9 1.989387 1_655
Nb3 O5 2.013816 1_555
Nb3 O12 2.093537 1_555
Nb3 O11 2.404538 1_555
Nb4 O10 1.901897 1_555
Nb4 O11 2.072296 1_455
Nb4 O11 2.072296 1_545
Nb4 O13 2.362067 1_555
Nb4 O9 2.560640 1_555
Nb5 O0 1.816804 1_556
Nb5 O13 2.008357 1_655
Nb5 O13 2.008357 1_565
Nb5 O12 2.009765 1_555
Nb5 O2 2.077074 1_556
Nb5 O11 2.374136 1_555
N0 Nb4 1.788013 1_555
N0 Nb0 2.046734 1_556
N1 Nb0 1.802213 1_556
