# generated using pymatgen
data_Li2FeSiO4
_symmetry_space_group_name_H-M   'P 1'
_cell_length_a   5.45603300
_cell_length_b   10.61018400
_cell_length_c   12.91359700
_cell_angle_alpha   90.00000000
_cell_angle_beta   90.00000000
_cell_angle_gamma   90.00000000
_symmetry_Int_Tables_number   1
_chemical_formula_structural   Li2FeSiO4
_chemical_formula_sum   'Li16 Fe8 Si8 O32'
_cell_volume   747.56185484
_cell_formula_units_Z   8
loop_
 _symmetry_equiv_pos_site_id
 _symmetry_equiv_pos_as_xyz
  1  'x, y, z'
loop_
 _atom_site_type_symbol
 _atom_site_label
 _atom_site_symmetry_multiplicity
 _atom_site_fract_x
 _atom_site_fract_y
 _atom_site_fract_z
 _atom_site_occupancy
  Li  Li0  1  0.96502400  0.97167600  0.56129900  1
  Li  Li1  1  0.46443600  0.94997400  0.94204900  1
  Li  Li2  1  0.35894100  0.21141100  0.29748900  1
  Li  Li3  1  0.84630800  0.20933300  0.19974100  1
  Li  Li4  1  0.84630800  0.29066700  0.69974100  1
  Li  Li5  1  0.35894100  0.28858900  0.79748900  1
  Li  Li6  1  0.96502400  0.52832400  0.06129900  1
  Li  Li7  1  0.46443600  0.55002600  0.44204900  1
  Li  Li8  1  0.53556400  0.44997400  0.94204900  1
  Li  Li9  1  0.03497600  0.47167600  0.56129900  1
  Li  Li10  1  0.64105900  0.71141100  0.29748900  1
  Li  Li11  1  0.15369200  0.70933300  0.19974100  1
  Li  Li12  1  0.15369200  0.79066700  0.69974100  1
  Li  Li13  1  0.64105900  0.78858900  0.79748900  1
  Li  Li14  1  0.03497600  0.02832400  0.06129900  1
  Li  Li15  1  0.53556400  0.05002600  0.44204900  1
  Fe  Fe0  1  0.97303000  0.03532300  0.81358000  1
  Fe  Fe1  1  0.51694200  0.20520300  0.05574100  1
  Fe  Fe2  1  0.51694200  0.29479700  0.55574100  1
  Fe  Fe3  1  0.97303000  0.46467700  0.31358000  1
  Fe  Fe4  1  0.02697000  0.53532300  0.81358000  1
  Fe  Fe5  1  0.48305800  0.70520300  0.05574100  1
  Fe  Fe6  1  0.48305800  0.79479700  0.55574100  1
  Fe  Fe7  1  0.02697000  0.96467700  0.31358000  1
  Si  Si0  1  0.47994400  0.03505700  0.69120200  1
  Si  Si1  1  0.01918700  0.21394500  0.43768400  1
  Si  Si2  1  0.01918700  0.28605500  0.93768400  1
  Si  Si3  1  0.47994400  0.46494300  0.19120200  1
  Si  Si4  1  0.52005600  0.53505700  0.69120200  1
  Si  Si5  1  0.98081300  0.71394500  0.43768400  1
  Si  Si6  1  0.98081300  0.78605500  0.93768400  1
  Si  Si7  1  0.52005600  0.96494300  0.19120200  1
  O  O0  1  0.38633400  0.02045000  0.29725100  1
  O  O1  1  0.81078400  0.01297200  0.19216400  1
  O  O2  1  0.89628100  0.07332100  0.43249000  1
  O  O3  1  0.39894600  0.02811800  0.08582100  1
  O  O4  1  0.52034000  0.19008200  0.69031300  1
  O  O5  1  0.00746400  0.22448500  0.81940700  1
  O  O6  1  0.31692800  0.19893100  0.45776700  1
  O  O7  1  0.88851500  0.19651700  0.02673600  1
  O  O8  1  0.88851500  0.30348300  0.52673600  1
  O  O9  1  0.31692800  0.30106900  0.95776700  1
  O  O10  1  0.00746400  0.27551500  0.31940700  1
  O  O11  1  0.52034000  0.30991800  0.19031300  1
  O  O12  1  0.39894600  0.47188200  0.58582100  1
  O  O13  1  0.89628100  0.42667900  0.93249000  1
  O  O14  1  0.81078400  0.48702800  0.69216400  1
  O  O15  1  0.38633400  0.47955000  0.79725100  1
  O  O16  1  0.61366600  0.52045000  0.29725100  1
  O  O17  1  0.18921600  0.51297200  0.19216400  1
  O  O18  1  0.10371900  0.57332100  0.43249000  1
  O  O19  1  0.60105400  0.52811800  0.08582100  1
  O  O20  1  0.47966000  0.69008200  0.69031300  1
  O  O21  1  0.99253600  0.72448500  0.81940700  1
  O  O22  1  0.68307200  0.69893100  0.45776700  1
  O  O23  1  0.11148500  0.69651700  0.02673600  1
  O  O24  1  0.11148500  0.80348300  0.52673600  1
  O  O25  1  0.68307200  0.80106900  0.95776700  1
  O  O26  1  0.99253600  0.77551500  0.31940700  1
  O  O27  1  0.47966000  0.80991800  0.19031300  1
  O  O28  1  0.60105400  0.97188200  0.58582100  1
  O  O29  1  0.10371900  0.92667900  0.93249000  1
  O  O30  1  0.18921600  0.98702800  0.69216400  1
  O  O31  1  0.61366600  0.97955000  0.79725100  1
loop_
_geom_bond_atom_site_label_1
_geom_bond_atom_site_label_2
_geom_bond_distance
_geom_bond_site_symmetry_2
Li0 O24 2.005596 1_655
Li0 O28 2.010923 1_555
Li0 O2 2.017581 1_565
Li0 O30 2.092520 1_655
Li1 O29 1.987381 1_555
Li1 O25 1.990047 1_555
Li1 O31 2.063441 1_555
Li1 O3 2.064493 1_566
Li2 O11 1.945092 1_555
Li2 O0 2.031639 1_555
Li2 O10 2.054308 1_555
Li2 O6 2.086626 1_555
Li3 O10 1.911601 1_655
Li3 O11 2.077698 1_555
Li3 O1 2.094709 1_555
Li3 O7 2.250066 1_555
Li4 O5 1.911601 1_655
Li4 O4 2.077698 1_555
Li4 O14 2.094709 1_555
Li4 O8 2.250066 1_555
Li5 O4 1.945092 1_555
Li5 O15 2.031639 1_555
Li5 O5 2.054308 1_555
Li5 O9 2.086626 1_555
Li6 O23 2.005596 1_655
Li6 O19 2.010923 1_555
Li6 O13 2.017581 1_554
Li6 O17 2.092520 1_655
Li7 O18 1.987381 1_555
Li7 O22 1.990047 1_555
Li7 O16 2.063441 1_555
Li7 O12 2.064493 1_555
Li8 O13 1.987381 1_555
Li8 O9 1.990047 1_555
Li8 O15 2.063441 1_555
Li8 O19 2.064493 1_556
Li9 O8 2.005596 1_455
Li9 O12 2.010923 1_555
Li9 O18 2.017581 1_555
Li9 O14 2.092520 1_455
Li10 O27 1.945092 1_555
Li10 O16 2.031639 1_555
Li10 O26 2.054308 1_555
Li10 O22 2.086626 1_555
Li11 O26 1.911601 1_455
Li11 O27 2.077698 1_555
Li11 O17 2.094709 1_555
Li11 O23 2.250066 1_555
Li12 O21 1.911601 1_455
Li12 O20 2.077698 1_555
Li12 O30 2.094709 1_555
Li12 O24 2.250066 1_555
Li13 O20 1.945092 1_555
Li13 O31 2.031639 1_555
Li13 O21 2.054308 1_555
Li13 O25 2.086626 1_555
Li14 O7 2.005596 1_455
Li14 O3 2.010923 1_555
Li14 O29 2.017581 1_544
Li14 O1 2.092520 1_455
Li15 O2 1.987381 1_555
Li15 O6 1.990047 1_555
Li15 O0 2.063441 1_555
Li15 O28 2.064493 1_545
Fe0 O5 2.017222 1_655
Fe0 O30 2.027856 1_645
Fe0 O29 2.048208 1_645
Fe0 O31 2.058883 1_545
Fe1 O9 1.956075 1_554
Fe1 O3 2.023767 1_555
Fe1 O11 2.062703 1_555
Fe1 O7 2.063684 1_555
Fe2 O6 1.956075 1_555
Fe2 O12 2.023767 1_555
Fe2 O4 2.062703 1_555
Fe2 O8 2.063684 1_555
Fe3 O10 2.017222 1_655
Fe3 O17 2.027856 1_655
Fe3 O18 2.048208 1_655
Fe3 O16 2.058883 1_555
Fe4 O21 2.017222 1_455
Fe4 O14 2.027856 1_455
Fe4 O13 2.048208 1_455
Fe4 O15 2.058883 1_555
Fe5 O25 1.956075 1_554
Fe5 O19 2.023767 1_555
Fe5 O27 2.062703 1_555
Fe5 O23 2.063684 1_555
Fe6 O22 1.956075 1_555
Fe6 O28 2.023767 1_555
Fe6 O20 2.062703 1_555
Fe6 O24 2.063684 1_555
Fe7 O26 2.017222 1_455
Fe7 O1 2.027856 1_465
Fe7 O2 2.048208 1_465
Fe7 O0 2.058883 1_565
O0 Si7 1.659703 1_545
O1 Si7 1.666116 1_545
O2 Si1 1.637186 1_655
O3 Si7 1.654641 1_545
O4 Si0 1.659584 1_555
O5 Si2 1.662452 1_555
O6 Si1 1.652751 1_555
O7 Si2 1.653265 1_654
O8 Si1 1.653265 1_655
O9 Si2 1.652751 1_555
O10 Si1 1.662452 1_555
O11 Si3 1.659584 1_555
O12 Si4 1.654641 1_555
O13 Si2 1.637186 1_655
O14 Si4 1.666116 1_555
O15 Si4 1.659703 1_555
O16 Si3 1.659703 1_555
O17 Si3 1.666116 1_555
O18 Si5 1.637186 1_455
O19 Si3 1.654641 1_555
O20 Si4 1.659584 1_555
O21 Si6 1.662452 1_555
O22 Si5 1.652751 1_555
O23 Si6 1.653265 1_454
O24 Si5 1.653265 1_455
O25 Si6 1.652751 1_555
O26 Si5 1.662452 1_555
O27 Si7 1.659584 1_555
O28 Si0 1.654641 1_565
O29 Si6 1.637186 1_455
O30 Si0 1.666116 1_565
O31 Si0 1.659703 1_565
