# generated using pymatgen
data_Li2CuSiO4
_symmetry_space_group_name_H-M   'P 1'
_cell_length_a   5.27264671
_cell_length_b   5.27264671
_cell_length_c   6.30294000
_cell_angle_alpha   90.00000000
_cell_angle_beta   90.00000000
_cell_angle_gamma   93.70135550
_symmetry_Int_Tables_number   1
_chemical_formula_structural   Li2CuSiO4
_chemical_formula_sum   'Li4 Cu2 Si2 O8'
_cell_volume   174.86128821
_cell_formula_units_Z   2
loop_
 _symmetry_equiv_pos_site_id
 _symmetry_equiv_pos_as_xyz
  1  'x, y, z'
loop_
 _atom_site_type_symbol
 _atom_site_label
 _atom_site_symmetry_multiplicity
 _atom_site_fract_x
 _atom_site_fract_y
 _atom_site_fract_z
 _atom_site_occupancy
  Li  Li0  1  0.31021500  0.31021500  0.50000000  1
  Li  Li1  1  0.81604700  0.18395300  0.75000000  1
  Li  Li2  1  0.18395300  0.81604700  0.25000000  1
  Li  Li3  1  0.68978500  0.68978500  0.00000000  1
  Cu  Cu0  1  0.81734500  0.18265500  0.25000000  1
  Cu  Cu1  1  0.18265500  0.81734500  0.75000000  1
  Si  Si0  1  0.32792200  0.32792200  0.00000000  1
  Si  Si1  1  0.67207800  0.67207800  0.50000000  1
  O  O0  1  0.19794700  0.19539500  0.21474300  1
  O  O1  1  0.19539500  0.19794700  0.78525700  1
  O  O2  1  0.63892700  0.30142200  0.00076000  1
  O  O3  1  0.30142200  0.63892700  0.99924000  1
  O  O4  1  0.36107300  0.69857800  0.50076000  1
  O  O5  1  0.69857800  0.36107300  0.49924000  1
  O  O6  1  0.80205300  0.80460500  0.71474300  1
  O  O7  1  0.80460500  0.80205300  0.28525700  1
loop_
_geom_bond_atom_site_label_1
_geom_bond_atom_site_label_2
_geom_bond_distance
_geom_bond_site_symmetry_2
Li0 O1 1.975678 1_555
Li0 O0 1.975678 1_555
Li0 O4 2.047954 1_555
Li0 O5 2.047954 1_555
Li1 O5 1.956660 1_555
Li1 O2 1.956660 1_556
Li1 O1 2.009090 1_655
Li1 O6 2.009090 1_545
Li2 O4 1.956660 1_555
Li2 O3 1.956660 1_554
Li2 O7 2.009090 1_455
Li2 O0 2.009090 1_565
Li3 O6 1.975678 1_554
Li3 O7 1.975678 1_555
Li3 O3 2.047954 1_554
Li3 O2 2.047954 1_555
Cu0 O2 1.954752 1_555
Cu0 O5 1.954752 1_555
Cu0 O7 2.015851 1_545
Cu0 O0 2.015851 1_655
Cu1 O4 1.954752 1_555
Cu1 O3 1.954752 1_555
Cu1 O6 2.015851 1_455
Cu1 O1 2.015851 1_565
O0 Si0 1.651695 1_555
O1 Si0 1.651695 1_556
O2 Si0 1.654732 1_555
O3 Si0 1.654732 1_556
O4 Si1 1.654732 1_555
O5 Si1 1.654732 1_555
O6 Si1 1.651695 1_555
O7 Si1 1.651695 1_555
