# generated using pymatgen
data_Ba10V10O29
_symmetry_space_group_name_H-M   'P 1'
_cell_length_a   10.00280800
_cell_length_b   11.62592747
_cell_length_c   13.17885562
_cell_angle_alpha   115.86396438
_cell_angle_beta   90.27287957
_cell_angle_gamma   90.27761580
_symmetry_Int_Tables_number   1
_chemical_formula_structural   Ba10V10O29
_chemical_formula_sum   'Ba20 V20 O58'
_cell_volume   1379.02154810
_cell_formula_units_Z   2
loop_
 _symmetry_equiv_pos_site_id
 _symmetry_equiv_pos_as_xyz
  1  'x, y, z'
loop_
 _atom_site_type_symbol
 _atom_site_label
 _atom_site_symmetry_multiplicity
 _atom_site_fract_x
 _atom_site_fract_y
 _atom_site_fract_z
 _atom_site_occupancy
  Ba  Ba0  1  0.83282100  0.35618000  0.21424100  1
  Ba  Ba1  1  0.16623800  0.45411900  0.40906300  1
  Ba  Ba2  1  0.33367100  0.60925800  0.21567000  1
  Ba  Ba3  1  0.66416800  0.70596900  0.40878200  1
  Ba  Ba4  1  0.66642600  0.89461600  0.78626100  1
  Ba  Ba5  1  0.33533200  0.79697300  0.59000100  1
  Ba  Ba6  1  0.16973500  0.14701600  0.78492500  1
  Ba  Ba7  1  0.83177800  0.86314200  0.21434500  1
  Ba  Ba8  1  0.16732900  0.95747300  0.40929500  1
  Ba  Ba9  1  0.83269600  0.04796500  0.59042100  1
  Ba  Ba10  1  0.50344700  0.24992800  0.99902200  1
  Ba  Ba11  1  0.33427200  0.10157200  0.21531800  1
  Ba  Ba12  1  0.66526200  0.38724900  0.78322700  1
  Ba  Ba13  1  0.66643600  0.20255800  0.40984300  1
  Ba  Ba14  1  0.33354400  0.29230400  0.59270200  1
  Ba  Ba15  1  0.00349400  0.49971400  0.99939100  1
  Ba  Ba16  1  0.16572500  0.63917900  0.78632700  1
  Ba  Ba17  1  0.83444500  0.54212300  0.58968900  1
  Ba  Ba18  1  0.49628100  0.75167700  0.00111700  1
  Ba  Ba19  1  0.99595200  0.99824400  0.00001400  1
  V  V0  1  0.15673200  0.31899500  0.10754000  1
  V  V1  1  0.49556200  0.38209400  0.28194800  1
  V  V2  1  0.65609700  0.53542800  0.10493800  1
  V  V3  1  0.34281800  0.92998000  0.89117400  1
  V  V4  1  0.00284500  0.86581000  0.71617700  1
  V  V5  1  0.99357900  0.65136200  0.28334200  1
  V  V6  1  0.00135100  0.75406700  0.49996000  1
  V  V7  1  0.16875000  0.79941300  0.09434200  1
  V  V8  1  0.83380000  0.20176900  0.90941700  1
  V  V9  1  0.50073900  0.11234100  0.72185600  1
  V  V10  1  0.50037600  0.99882800  0.49966200  1
  V  V11  1  0.50140300  0.88609600  0.27740000  1
  V  V12  1  0.66827300  0.04468600  0.09423900  1
  V  V13  1  0.33029400  0.45362300  0.90357500  1
  V  V14  1  0.99500300  0.35475700  0.72227100  1
  V  V15  1  0.99866000  0.25266100  0.50097600  1
  V  V16  1  0.00238200  0.14006500  0.27832700  1
  V  V17  1  0.84307900  0.70981200  0.89076800  1
  V  V18  1  0.50091400  0.49530700  0.49870900  1
  V  V19  1  0.50149000  0.60041000  0.71513700  1
  O  O0  1  0.58019300  0.22823200  0.20041500  1
  O  O1  1  0.09414900  0.21721200  0.18065200  1
  O  O2  1  0.65102200  0.44838400  0.40171500  1
  O  O3  1  0.33152900  0.34099700  0.19237500  1
  O  O4  1  0.42271800  0.55394400  0.39255800  1
  O  O5  1  0.57917500  0.66253300  0.61043800  1
  O  O6  1  0.08266000  0.47563500  0.20200100  1
  O  O7  1  0.58167500  0.47575000  0.20182300  1
  O  O8  1  0.07860300  0.69748300  0.60981300  1
  O  O9  1  0.92208000  0.58797600  0.38938900  1
  O  O10  1  0.17615000  0.91466900  0.81460600  1
  O  O11  1  0.82582500  0.60024500  0.18702500  1
  O  O12  1  0.85045800  0.80185400  0.59943000  1
  O  O13  1  0.14967300  0.70444000  0.40139200  1
  O  O14  1  0.07985300  0.91898900  0.60469200  1
  O  O15  1  0.92076800  0.81536200  0.39491100  1
  O  O16  1  0.41175100  0.03443200  0.81158000  1
  O  O17  1  0.58963500  0.72166800  0.18610000  1
  O  O18  1  0.74801600  0.12607500  0.00094100  1
  O  O19  1  0.92183000  0.01859700  0.79836400  1
  O  O20  1  0.07937100  0.72106700  0.20024400  1
  O  O21  1  0.57459100  0.93848000  0.60249800  1
  O  O22  1  0.42648800  0.83079400  0.39366800  1
  O  O23  1  0.35225800  0.05526100  0.61043100  1
  O  O24  1  0.64892100  0.94406300  0.38985700  1
  O  O25  1  0.66329300  0.14929000  0.80206300  1
  O  O26  1  0.00504600  0.24497200  0.99705200  1
  O  O27  1  0.34102700  0.84954400  0.19945100  1
  O  O28  1  0.42451300  0.05957500  0.39932700  1
  O  O29  1  0.57622200  0.16536900  0.60591900  1
  O  O30  1  0.91565900  0.27899000  0.80330600  1
  O  O31  1  0.08468600  0.97057700  0.19395400  1
  O  O32  1  0.24483900  0.36222100  0.00634200  1
  O  O33  1  0.74910700  0.38681200  0.00318700  1
  O  O34  1  0.41542300  0.28018200  0.80801900  1
  O  O35  1  0.58462200  0.97382800  0.19299000  1
  O  O36  1  0.07615200  0.19163100  0.60784200  1
  O  O37  1  0.92535300  0.08978900  0.39882400  1
  O  O38  1  0.16670400  0.40425200  0.80655400  1
  O  O39  1  0.51393000  0.50693400  0.00352200  1
  O  O40  1  0.84687000  0.30212100  0.60585300  1
  O  O41  1  0.14849500  0.19681200  0.38906700  1
  O  O42  1  0.84302700  0.10045500  0.19868100  1
  O  O43  1  0.07280400  0.41269300  0.60381100  1
  O  O44  1  0.92858200  0.31245100  0.39203500  1
  O  O45  1  0.42175500  0.53062800  0.80026200  1
  O  O46  1  0.25047600  0.62569000  0.00289700  1
  O  O47  1  0.91438300  0.52871000  0.80762200  1
  O  O48  1  0.42129500  0.33038600  0.39600800  1
  O  O49  1  0.57837300  0.43612900  0.60514700  1
  O  O50  1  0.34967800  0.54777800  0.60056200  1
  O  O51  1  0.67554200  0.64958000  0.81596000  1
  O  O52  1  0.97645500  0.74221700  0.99707900  1
  O  O53  1  0.91977400  0.77563500  0.79932400  1
  O  O54  1  0.24757000  0.87516500  0.99768000  1
  O  O55  1  0.74909000  0.87228000  0.99628300  1
  O  O56  1  0.41925000  0.77405800  0.79930300  1
  O  O57  1  0.47741200  0.00374300  0.99574100  1
loop_
_geom_bond_atom_site_label_1
_geom_bond_atom_site_label_2
_geom_bond_distance
_geom_bond_site_symmetry_2
Ba0 O44 2.772879 1_555
Ba0 O9 2.813773 1_555
Ba0 O2 2.882937 1_555
Ba0 O0 2.890378 1_555
Ba0 O42 2.891828 1_555
Ba0 O6 2.892375 1_655
Ba0 O7 2.915232 1_555
Ba0 O1 3.011189 1_655
Ba0 O11 3.012388 1_555
Ba0 O18 3.028604 1_555
Ba0 O33 3.067477 1_555
Ba0 O26 3.109984 1_654
Ba1 O44 2.837033 1_455
Ba1 O4 2.858813 1_555
Ba1 O41 2.890716 1_555
Ba1 O48 2.903754 1_555
Ba1 O50 2.908738 1_555
Ba1 O13 2.961118 1_555
Ba1 O6 2.963766 1_555
Ba1 O43 2.964724 1_555
Ba1 O9 2.972629 1_455
Ba1 O8 3.047675 1_555
Ba1 O3 3.067183 1_555
Ba1 O1 3.145432 1_555
Ba2 O22 2.771845 1_555
Ba2 O4 2.816923 1_555
Ba2 O13 2.881370 1_555
Ba2 O27 2.893810 1_555
Ba2 O7 2.896729 1_555
Ba2 O20 2.908468 1_555
Ba2 O6 2.909246 1_555
Ba2 O17 2.972647 1_555
Ba2 O3 2.997572 1_555
Ba2 O46 3.006445 1_555
Ba2 O39 3.106473 1_555
Ba2 O32 3.112528 1_555
Ba3 O22 2.842384 1_555
Ba3 O9 2.887452 1_555
Ba3 O24 2.890278 1_555
Ba3 O15 2.900795 1_555
Ba3 O12 2.918802 1_555
Ba3 O4 2.937111 1_555
Ba3 O21 2.941392 1_555
Ba3 O2 2.957484 1_555
Ba3 O7 2.978549 1_555
Ba3 O5 3.037904 1_555
Ba3 O11 3.097868 1_555
Ba3 O17 3.106343 1_555
Ba4 O5 2.813219 1_555
Ba4 O21 2.833692 1_555
Ba4 O25 2.876423 1_565
Ba4 O56 2.878836 1_555
Ba4 O12 2.891353 1_555
Ba4 O19 2.896496 1_565
Ba4 O53 2.933047 1_555
Ba4 O16 2.969536 1_565
Ba4 O55 3.003249 1_555
Ba4 O18 3.037448 1_566
Ba4 O51 3.041709 1_555
Ba4 O57 3.134144 1_565
Ba5 O21 2.860601 1_555
Ba5 O8 2.870856 1_555
Ba5 O14 2.894928 1_555
Ba5 O13 2.896255 1_555
Ba5 O23 2.899559 1_565
Ba5 O22 2.930447 1_555
Ba5 O50 2.964613 1_555
Ba5 O5 2.977034 1_555
Ba5 O56 3.000899 1_555
Ba5 O4 3.024753 1_555
Ba5 O16 3.107691 1_565
Ba5 O10 3.114753 1_555
Ba6 O36 2.762558 1_555
Ba6 O23 2.770951 1_555
Ba6 O14 2.817952 1_545
Ba6 O34 2.841485 1_555
Ba6 O16 2.849706 1_555
Ba6 O38 2.878040 1_555
Ba6 O10 2.894337 1_545
Ba6 O30 2.931089 1_455
Ba6 O19 2.934031 1_455
Ba6 O32 2.988347 1_556
Ba6 O26 3.018342 1_555
Ba7 O24 2.781945 1_555
Ba7 O15 2.810976 1_555
Ba7 O37 2.845217 1_565
Ba7 O17 2.851153 1_555
Ba7 O42 2.856815 1_565
Ba7 O35 2.861354 1_555
Ba7 O31 2.881117 1_655
Ba7 O11 2.917672 1_555
Ba7 O20 2.944947 1_655
Ba7 O52 2.969253 1_554
Ba7 O55 3.032945 1_554
Ba8 O28 2.855530 1_565
Ba8 O13 2.902304 1_555
Ba8 O37 2.908957 1_465
Ba8 O41 2.915622 1_565
Ba8 O15 2.920798 1_455
Ba8 O14 2.935962 1_555
Ba8 O22 2.951102 1_555
Ba8 O36 2.986872 1_565
Ba8 O23 3.007388 1_565
Ba8 O31 3.019373 1_555
Ba8 O20 3.043907 1_555
Ba8 O27 3.046409 1_555
Ba9 O40 2.874660 1_555
Ba9 O29 2.877852 1_555
Ba9 O36 2.897162 1_655
Ba9 O21 2.908591 1_545
Ba9 O12 2.921239 1_545
Ba9 O37 2.925807 1_555
Ba9 O14 2.945064 1_645
Ba9 O15 2.948454 1_545
Ba9 O24 2.995232 1_545
Ba9 O30 3.025832 1_555
Ba9 O19 3.036051 1_555
Ba9 O25 3.039140 1_555
Ba10 O16 2.788690 1_555
Ba10 O34 2.826593 1_555
Ba10 O25 2.840957 1_555
Ba10 O18 2.850271 1_556
Ba10 O57 2.854149 1_555
Ba10 O0 2.874702 1_556
Ba10 O3 2.876965 1_556
Ba10 O32 2.886252 1_556
Ba10 O33 2.908343 1_556
Ba10 O7 2.913143 1_556
Ba10 O39 2.963876 1_556
Ba11 O41 2.787634 1_555
Ba11 O48 2.817056 1_555
Ba11 O28 2.819647 1_555
Ba11 O27 2.846230 1_545
Ba11 O31 2.865970 1_545
Ba11 O35 2.867934 1_545
Ba11 O1 2.888262 1_555
Ba11 O0 2.912025 1_555
Ba11 O3 2.928348 1_555
Ba11 O57 2.983502 1_554
Ba11 O54 3.045413 1_544
Ba12 O29 2.757997 1_555
Ba12 O49 2.781219 1_555
Ba12 O40 2.789841 1_555
Ba12 O34 2.869510 1_555
Ba12 O30 2.870945 1_555
Ba12 O25 2.883433 1_555
Ba12 O51 2.889094 1_555
Ba12 O45 2.912036 1_555
Ba12 O47 2.917032 1_555
Ba12 O33 3.016010 1_556
Ba12 O39 3.032174 1_556
Ba13 O37 2.884072 1_555
Ba13 O28 2.897459 1_555
Ba13 O24 2.904377 1_545
Ba13 O2 2.911076 1_555
Ba13 O48 2.919254 1_555
Ba13 O40 2.932023 1_555
Ba13 O29 2.944789 1_555
Ba13 O49 2.953207 1_555
Ba13 O44 2.966188 1_555
Ba13 O0 3.024829 1_555
Ba13 O35 3.038858 1_545
Ba13 O42 3.075496 1_555
Ba14 O36 2.866690 1_555
Ba14 O23 2.872399 1_555
Ba14 O29 2.890617 1_555
Ba14 O49 2.921905 1_555
Ba14 O50 2.930046 1_555
Ba14 O43 2.939897 1_555
Ba14 O28 2.945058 1_555
Ba14 O48 2.950457 1_555
Ba14 O34 3.011760 1_555
Ba14 O41 3.032196 1_555
Ba14 O45 3.046105 1_555
Ba14 O38 3.047549 1_555
Ba15 O38 2.819896 1_555
Ba15 O47 2.831988 1_455
Ba15 O52 2.846914 1_455
Ba15 O46 2.855766 1_556
Ba15 O11 2.859999 1_456
Ba15 O30 2.864572 1_455
Ba15 O20 2.867757 1_556
Ba15 O33 2.868178 1_456
Ba15 O6 2.910225 1_556
Ba15 O32 2.924825 1_556
Ba15 O26 2.948413 1_555
Ba16 O8 2.827103 1_555
Ba16 O43 2.830555 1_555
Ba16 O38 2.857674 1_555
Ba16 O50 2.881078 1_555
Ba16 O47 2.887720 1_455
Ba16 O53 2.898868 1_455
Ba16 O45 2.900733 1_555
Ba16 O56 2.939836 1_555
Ba16 O54 3.040548 1_555
Ba16 O46 3.042723 1_556
Ba16 O10 3.059876 1_555
Ba16 O52 3.146882 1_455
Ba17 O43 2.873754 1_655
Ba17 O5 2.874314 1_555
Ba17 O2 2.876241 1_555
Ba17 O49 2.883468 1_555
Ba17 O40 2.892748 1_555
Ba17 O44 2.963279 1_555
Ba17 O12 2.969362 1_555
Ba17 O8 2.971619 1_655
Ba17 O53 3.023688 1_555
Ba17 O9 3.044010 1_555
Ba17 O47 3.046765 1_555
Ba17 O51 3.129465 1_555
Ba18 O17 2.767747 1_555
Ba18 O27 2.828323 1_555
Ba18 O35 2.846762 1_555
Ba18 O51 2.848474 1_554
Ba18 O46 2.861289 1_555
Ba18 O45 2.862598 1_554
Ba18 O39 2.865618 1_555
Ba18 O56 2.884703 1_554
Ba18 O54 2.888363 1_554
Ba18 O55 2.899990 1_554
Ba18 O57 2.968983 1_564
Ba19 O1 2.789038 1_665
Ba19 O42 2.819270 1_565
Ba19 O31 2.849977 1_655
Ba19 O55 2.854034 1_554
Ba19 O10 2.855012 1_654
Ba19 O19 2.863506 1_564
Ba19 O53 2.874629 1_554
Ba19 O26 2.886686 1_664
Ba19 O18 2.894762 1_565
Ba19 O54 2.894892 1_654
Ba19 O52 2.965340 1_554
O0 V1 1.848612 1_555
O0 V12 2.170843 1_555
O1 V0 1.927138 1_555
O1 V16 2.077163 1_555
O2 V18 1.898394 1_555
O2 V1 2.099312 1_555
O3 V1 1.948294 1_555
O3 V0 2.024862 1_555
O4 V18 1.964788 1_555
O4 V1 2.032428 1_555
O5 V19 1.975749 1_555
O5 V18 2.009319 1_555
O6 V0 1.859838 1_555
O6 V5 2.057407 1_455
O7 V2 1.855481 1_555
O7 V1 2.011289 1_555
O8 V6 1.987716 1_555
O8 V4 1.999999 1_555
O9 V5 1.977562 1_555
O9 V6 1.999996 1_655
O10 V3 1.911464 1_555
O10 V4 2.082464 1_555
O11 V2 1.969621 1_555
O11 V5 2.022878 1_555
O12 V6 1.922712 1_655
O12 V4 2.052357 1_655
O13 V6 1.895851 1_555
O13 V5 2.090219 1_455
O14 V6 1.965740 1_555
O14 V4 1.983171 1_555
O15 V5 1.976215 1_555
O15 V6 1.982386 1_655
O16 V9 1.986859 1_555
O16 V3 2.039740 1_545
O17 V11 1.975013 1_555
O17 V2 2.067443 1_555
O18 V8 1.973381 1_554
O18 V12 2.015069 1_555
O19 V4 1.824501 1_645
O19 V8 2.182549 1_555
O20 V5 1.835485 1_455
O20 V7 2.165628 1_555
O21 V10 1.924871 1_555
O21 V9 2.087391 1_565
O22 V10 1.977168 1_555
O22 V11 2.046602 1_555
O23 V9 1.980430 1_555
O23 V10 1.987717 1_545
O24 V11 1.981452 1_555
O24 V10 1.983199 1_555
O25 V9 1.877876 1_555
O25 V8 2.120525 1_555
O26 V8 1.996750 1_455
O26 V0 2.008983 1_556
O27 V11 1.845589 1_555
O27 V7 2.119260 1_555
O28 V10 1.906174 1_545
O28 V11 2.107257 1_545
O29 V10 1.973696 1_545
O29 V9 2.028054 1_555
O30 V14 1.835314 1_555
O30 V8 2.128653 1_555
O31 V16 1.977298 1_565
O31 V7 2.034169 1_555
O32 V0 1.843804 1_555
O32 V13 2.225307 1_554
O33 V2 1.911821 1_555
O33 V8 2.140342 1_554
O34 V9 1.979265 1_555
O34 V13 2.046530 1_555
O35 V11 1.990298 1_555
O35 V12 2.002885 1_565
O36 V15 1.988607 1_455
O36 V14 2.015211 1_455
O37 V15 1.920579 1_555
O37 V16 2.067421 1_655
O38 V14 1.982239 1_455
O38 V13 1.993155 1_555
O39 V2 1.873343 1_555
O39 V13 2.178735 1_554
O40 V15 1.970117 1_555
O40 V14 2.018515 1_555
O41 V16 1.957439 1_555
O41 V15 2.009486 1_455
O42 V16 1.846583 1_655
O42 V12 2.134952 1_555
O43 V15 1.904054 1_455
O43 V14 2.102498 1_455
O44 V15 1.975269 1_555
O44 V16 2.052258 1_655
O45 V19 1.830073 1_555
O45 V13 2.135342 1_555
O46 V13 2.023225 1_554
O46 V7 2.025236 1_555
O47 V14 2.011282 1_555
O47 V17 2.037538 1_555
O48 V18 1.962964 1_555
O48 V1 1.991862 1_555
O49 V18 1.969299 1_555
O49 V19 1.987411 1_555
O50 V18 1.943271 1_555
O50 V19 2.030626 1_555
O51 V17 1.908226 1_555
O51 V19 2.104529 1_555
O52 V17 1.844347 1_555
O52 V7 2.237297 1_656
O53 V17 1.853165 1_555
O53 V4 1.998198 1_655
O54 V7 2.000423 1_556
O54 V3 2.017745 1_555
O55 V12 2.026245 1_566
O55 V17 2.030603 1_555
O56 V3 1.855754 1_555
O56 V19 2.013396 1_555
O57 V3 1.840418 1_545
O57 V12 2.232700 1_556
