# generated using pymatgen
data_Li2TiMn3O8
_symmetry_space_group_name_H-M   'P 1'
_cell_length_a   8.24693200
_cell_length_b   8.33361177
_cell_length_c   8.80691400
_cell_angle_alpha   89.93487084
_cell_angle_beta   89.58008766
_cell_angle_gamma   89.83931112
_symmetry_Int_Tables_number   1
_chemical_formula_structural   Li2TiMn3O8
_chemical_formula_sum   'Li8 Ti4 Mn12 O32'
_cell_volume   605.25138504
_cell_formula_units_Z   4
loop_
 _symmetry_equiv_pos_site_id
 _symmetry_equiv_pos_as_xyz
  1  'x, y, z'
loop_
 _atom_site_type_symbol
 _atom_site_label
 _atom_site_symmetry_multiplicity
 _atom_site_fract_x
 _atom_site_fract_y
 _atom_site_fract_z
 _atom_site_occupancy
  Li  Li0  1  0.00423700  0.99759000  0.00008600  1
  Li  Li1  1  0.74605300  0.25356900  0.74944600  1
  Li  Li2  1  0.25480700  0.75008700  0.74581700  1
  Li  Li3  1  0.99641200  0.49573800  0.50861600  1
  Li  Li4  1  0.49534900  0.00739600  0.49594200  1
  Li  Li5  1  0.75582600  0.74511300  0.24848800  1
  Li  Li6  1  0.24195200  0.24447500  0.24391300  1
  Li  Li7  1  0.50355400  0.50722400  0.00626000  1
  Ti  Ti0  1  0.13127600  0.37676200  0.87287300  1
  Ti  Ti1  1  0.86542700  0.88446600  0.62691400  1
  Ti  Ti2  1  0.37284300  0.61407200  0.37245000  1
  Ti  Ti3  1  0.62957400  0.11843100  0.12674700  1
  Mn  Mn0  1  0.87583500  0.62439300  0.86909800  1
  Mn  Mn1  1  0.62398100  0.87190800  0.88105100  1
  Mn  Mn2  1  0.37313500  0.12664900  0.88315700  1
  Mn  Mn3  1  0.62696700  0.62237200  0.62164900  1
  Mn  Mn4  1  0.37663100  0.37121000  0.62284700  1
  Mn  Mn5  1  0.12929200  0.12418800  0.62572500  1
  Mn  Mn6  1  0.62741600  0.37512900  0.36914800  1
  Mn  Mn7  1  0.87521500  0.12439300  0.37347700  1
  Mn  Mn8  1  0.12496200  0.87549300  0.37841100  1
  Mn  Mn9  1  0.87376700  0.37681900  0.12014200  1
  Mn  Mn10  1  0.12253500  0.62825100  0.12135100  1
  Mn  Mn11  1  0.37458200  0.87738500  0.13494700  1
  O  O0  1  0.88539900  0.39565200  0.87491500  1
  O  O1  1  0.10910100  0.61269900  0.86946700  1
  O  O2  1  0.38596100  0.88046800  0.91114000  1
  O  O3  1  0.86586400  0.86059300  0.85533600  1
  O  O4  1  0.60977700  0.11137400  0.89774100  1
  O  O5  1  0.64096100  0.64117100  0.87013800  1
  O  O6  1  0.36071500  0.37002500  0.87628200  1
  O  O7  1  0.14082200  0.14251300  0.87852200  1
  O  O8  1  0.86160400  0.63505000  0.64644000  1
  O  O9  1  0.64021300  0.86299300  0.62177500  1
  O  O10  1  0.36458100  0.13966300  0.63615700  1
  O  O11  1  0.39137700  0.61188600  0.60170900  1
  O  O12  1  0.13859400  0.36059600  0.64306400  1
  O  O13  1  0.61365400  0.38208500  0.59257500  1
  O  O14  1  0.88942400  0.10666500  0.63082700  1
  O  O15  1  0.11972200  0.88834200  0.59967400  1
  O  O16  1  0.61329300  0.60546400  0.37140200  1
  O  O17  1  0.38855400  0.38964700  0.36555400  1
  O  O18  1  0.10796500  0.10594500  0.37622800  1
  O  O19  1  0.63715100  0.14119900  0.35859200  1
  O  O20  1  0.88984100  0.88302500  0.39483800  1
  O  O21  1  0.85968100  0.36044200  0.36735000  1
  O  O22  1  0.13983400  0.64227900  0.37932200  1
  O  O23  1  0.36099800  0.86547200  0.35713600  1
  O  O24  1  0.63820900  0.36405500  0.14558300  1
  O  O25  1  0.85657100  0.13424700  0.12220100  1
  O  O26  1  0.13622600  0.86321000  0.15155100  1
  O  O27  1  0.10838500  0.39179200  0.10570600  1
  O  O28  1  0.36084400  0.64241000  0.14362900  1
  O  O29  1  0.88742600  0.62078900  0.09363900  1
  O  O30  1  0.60836000  0.88956800  0.13520500  1
  O  O31  1  0.38712500  0.10570800  0.12775200  1
loop_
_geom_bond_atom_site_label_1
_geom_bond_atom_site_label_2
_geom_bond_distance
_geom_bond_site_symmetry_2
Li0 O7 1.964845 1_564
Li0 O25 1.977979 1_465
Li0 O26 2.056549 1_555
Li0 O3 2.064635 1_454
Li1 O14 1.991176 1_555
Li1 O0 1.993201 1_555
Li1 O13 2.064007 1_555
Li1 O4 2.086961 1_555
Li2 O1 1.981505 1_555
Li2 O11 2.044697 1_555
Li2 O15 2.058045 1_555
Li2 O2 2.122179 1_555
Li3 O8 2.008321 1_555
Li3 O12 2.013758 1_655
Li3 O21 2.030144 1_555
Li3 O22 2.042586 1_655
Li4 O10 1.969719 1_555
Li4 O19 2.014361 1_555
Li4 O9 2.027771 1_545
Li4 O23 2.037494 1_545
Li5 O16 1.973332 1_555
Li5 O30 1.982525 1_555
Li5 O29 2.021462 1_555
Li5 O20 2.057914 1_555
Li6 O31 1.947880 1_555
Li6 O18 1.974049 1_555
Li6 O17 2.025620 1_555
Li6 O27 2.052008 1_555
Li7 O5 1.987825 1_554
Li7 O6 2.008873 1_554
Li7 O28 2.023052 1_555
Li7 O24 2.042417 1_555
Mn0 O0 1.908294 1_555
Mn0 O1 1.925949 1_655
Mn0 O5 1.941594 1_555
Mn0 O8 1.967187 1_555
Mn0 O3 1.973510 1_555
Mn0 O29 1.980711 1_556
Mn1 O5 1.930025 1_555
Mn1 O2 1.979913 1_555
Mn1 O4 2.004225 1_565
Mn1 O3 2.007922 1_555
Mn1 O30 2.246044 1_556
Mn1 O9 2.287641 1_555
Mn2 O7 1.920785 1_555
Mn2 O4 1.960503 1_555
Mn2 O6 2.031355 1_555
Mn2 O2 2.068552 1_545
Mn2 O31 2.164880 1_556
Mn2 O10 2.179535 1_555
Mn3 O8 1.952072 1_555
Mn3 O11 1.954304 1_555
Mn3 O9 2.008523 1_555
Mn3 O13 2.022441 1_555
Mn3 O5 2.198098 1_555
Mn3 O16 2.212284 1_555
Mn4 O10 1.935833 1_555
Mn4 O12 1.972056 1_555
Mn4 O13 1.973193 1_555
Mn4 O11 2.018035 1_555
Mn4 O6 2.234888 1_555
Mn4 O17 2.272414 1_555
Mn5 O10 1.947900 1_555
Mn5 O12 1.977961 1_555
Mn5 O15 1.980913 1_545
Mn5 O14 1.984143 1_455
Mn5 O18 2.211050 1_555
Mn5 O7 2.234503 1_555
Mn6 O21 1.918988 1_555
Mn6 O16 1.922843 1_555
Mn6 O19 1.953200 1_555
Mn6 O13 1.971051 1_555
Mn6 O24 1.972530 1_555
Mn6 O17 1.973735 1_555
Mn7 O18 1.925518 1_655
Mn7 O21 1.971652 1_555
Mn7 O19 1.973202 1_555
Mn7 O20 2.023376 1_545
Mn7 O25 2.220835 1_555
Mn7 O14 2.274957 1_555
Mn8 O18 1.925299 1_565
Mn8 O20 1.944202 1_455
Mn8 O22 1.947049 1_555
Mn8 O15 1.951861 1_555
Mn8 O23 1.955762 1_555
Mn8 O26 2.002136 1_555
Mn9 O27 1.942473 1_655
Mn9 O24 1.957053 1_555
Mn9 O25 2.026917 1_555
Mn9 O29 2.049559 1_555
Mn9 O0 2.166653 1_554
Mn9 O21 2.183521 1_555
Mn10 O29 1.957171 1_455
Mn10 O27 1.979354 1_555
Mn10 O26 1.979985 1_555
Mn10 O28 1.980378 1_555
Mn10 O1 2.225838 1_554
Mn10 O22 2.280598 1_555
Mn11 O31 1.906811 1_565
Mn11 O30 1.930925 1_555
Mn11 O23 1.961601 1_555
Mn11 O28 1.963153 1_555
Mn11 O2 1.972736 1_554
Mn11 O26 1.973927 1_555
O0 Ti0 2.033342 1_655
O1 Ti0 1.974397 1_555
O3 Ti1 2.021310 1_555
O4 Ti3 2.025560 1_556
O6 Ti0 1.893300 1_555
O7 Ti0 1.954098 1_555
O8 Ti1 2.085750 1_555
O9 Ti1 1.867308 1_555
O11 Ti2 2.026016 1_555
O12 Ti0 2.028985 1_555
O14 Ti1 1.863202 1_545
O15 Ti1 2.109416 1_455
O16 Ti2 1.984025 1_555
O17 Ti2 1.875413 1_555
O19 Ti3 2.052274 1_555
O20 Ti1 2.052343 1_555
O22 Ti2 1.935793 1_555
O23 Ti2 2.101298 1_555
O24 Ti3 2.055309 1_555
O25 Ti3 1.877163 1_555
O27 Ti0 2.061751 1_554
O28 Ti2 2.031830 1_555
O30 Ti3 1.917065 1_565
O31 Ti3 2.002521 1_555
