# generated using pymatgen
data_Li2H2BrN
_symmetry_space_group_name_H-M   'P 1'
_cell_length_a   7.79716000
_cell_length_b   7.93726500
_cell_length_c   12.66459100
_cell_angle_alpha   90.00000000
_cell_angle_beta   90.00000000
_cell_angle_gamma   90.00000000
_symmetry_Int_Tables_number   1
_chemical_formula_structural   Li2H2BrN
_chemical_formula_sum   'Li16 H16 Br8 N8'
_cell_volume   783.78779300
_cell_formula_units_Z   8
loop_
 _symmetry_equiv_pos_site_id
 _symmetry_equiv_pos_as_xyz
  1  'x, y, z'
loop_
 _atom_site_type_symbol
 _atom_site_label
 _atom_site_symmetry_multiplicity
 _atom_site_fract_x
 _atom_site_fract_y
 _atom_site_fract_z
 _atom_site_occupancy
  Li  Li0  1  0.25000000  0.18659100  0.87435300  1
  Li  Li1  1  0.25000000  0.31340900  0.37435300  1
  Li  Li2  1  0.75000000  0.81340900  0.12564700  1
  Li  Li3  1  0.75000000  0.68659100  0.62564700  1
  Li  Li4  1  0.25000000  0.65992100  0.57158400  1
  Li  Li5  1  0.25000000  0.84007900  0.07158400  1
  Li  Li6  1  0.75000000  0.34007900  0.42841600  1
  Li  Li7  1  0.75000000  0.15992100  0.92841600  1
  Li  Li8  1  0.01087100  0.19138800  0.54607000  1
  Li  Li9  1  0.48912900  0.30861200  0.04607000  1
  Li  Li10  1  0.51087100  0.80861200  0.45393000  1
  Li  Li11  1  0.98912900  0.69138800  0.95393000  1
  Li  Li12  1  0.98912900  0.80861200  0.45393000  1
  Li  Li13  1  0.51087100  0.69138800  0.95393000  1
  Li  Li14  1  0.48912900  0.19138800  0.54607000  1
  Li  Li15  1  0.01087100  0.30861200  0.04607000  1
  H  H0  1  0.99458300  0.37075100  0.66002200  1
  H  H1  1  0.50541700  0.12924900  0.16002200  1
  H  H2  1  0.49458300  0.62924900  0.33997800  1
  H  H3  1  0.00541700  0.87075100  0.83997800  1
  H  H4  1  0.00541700  0.62924900  0.33997800  1
  H  H5  1  0.49458300  0.87075100  0.83997800  1
  H  H6  1  0.50541700  0.37075100  0.66002200  1
  H  H7  1  0.99458300  0.12924900  0.16002200  1
  H  H8  1  0.99103200  0.22749200  0.91337100  1
  H  H9  1  0.50896800  0.27250800  0.41337100  1
  H  H10  1  0.49103200  0.77250800  0.08662900  1
  H  H11  1  0.00896800  0.72749200  0.58662900  1
  H  H12  1  0.00896800  0.77250800  0.08662900  1
  H  H13  1  0.49103200  0.72749200  0.58662900  1
  H  H14  1  0.50896800  0.22749200  0.91337100  1
  H  H15  1  0.99103200  0.27250800  0.41337100  1
  Br  Br0  1  0.25000000  0.86056500  0.84778900  1
  Br  Br1  1  0.25000000  0.63943500  0.34778900  1
  Br  Br2  1  0.75000000  0.13943500  0.15221100  1
  Br  Br3  1  0.75000000  0.36056500  0.65221100  1
  Br  Br4  1  0.25000000  0.36384200  0.65980600  1
  Br  Br5  1  0.25000000  0.13615800  0.15980600  1
  Br  Br6  1  0.75000000  0.63615800  0.34019400  1
  Br  Br7  1  0.75000000  0.86384200  0.84019400  1
  N  N0  1  0.17588600  0.99651600  0.48480600  1
  N  N1  1  0.32411400  0.50348400  0.98480600  1
  N  N2  1  0.67588600  0.00348400  0.51519400  1
  N  N3  1  0.82411400  0.49651600  0.01519400  1
  N  N4  1  0.82411400  0.00348400  0.51519400  1
  N  N5  1  0.67588600  0.49651600  0.01519400  1
  N  N6  1  0.32411400  0.99651600  0.48480600  1
  N  N7  1  0.17588600  0.50348400  0.98480600  1
loop_
_geom_bond_atom_site_label_1
_geom_bond_atom_site_label_2
_geom_bond_distance
_geom_bond_site_symmetry_2
Li8 N4 2.120791 1_455
Li8 N0 2.156362 1_545
Li9 N5 2.120791 1_555
Li9 N1 2.156362 1_554
Li10 N6 2.120791 1_555
Li10 N2 2.156362 1_565
Li11 N7 2.120791 1_655
Li11 N3 2.156362 1_556
Li12 N0 2.120791 1_655
Li12 N4 2.156362 1_565
Li13 N1 2.120791 1_555
Li13 N5 2.156362 1_556
Li14 N2 2.120791 1_555
Li14 N6 2.156362 1_545
Li15 N3 2.120791 1_455
Li15 N7 2.156362 1_554
H0 Li8 2.031160 1_655
H1 Li9 2.031160 1_555
H2 Li10 2.031160 1_555
H3 Li11 2.031160 1_455
H4 Li12 2.031160 1_455
H5 Li13 2.031160 1_555
H6 Li14 2.031160 1_555
H7 Li15 2.031160 1_655
H8 Li15 1.806334 1_656
H8 Li7 1.963662 1_555
H8 Li0 2.103997 1_655
H9 Li14 1.806334 1_555
H9 Li6 1.963662 1_555
H9 Li1 2.103997 1_555
H10 Li13 1.806334 1_554
H10 Li5 1.963662 1_555
H10 Li2 2.103997 1_555
H11 Li12 1.806334 1_455
H11 Li4 1.963662 1_555
H11 Li3 2.103997 1_455
H12 Li11 1.806334 1_454
H12 Li5 1.963662 1_555
H12 Li2 2.103997 1_455
H13 Li10 1.806334 1_555
H13 Li4 1.963662 1_555
H13 Li3 2.103997 1_555
H14 Li9 1.806334 1_556
H14 Li7 1.963662 1_555
H14 Li0 2.103997 1_555
H15 Li8 1.806334 1_655
H15 Li6 1.963662 1_555
H15 Li1 2.103997 1_655
Br0 H5 1.911327 1_555
Br0 H3 1.911327 1_555
Br0 Li0 2.609531 1_565
Br0 Li11 2.783424 1_455
Br0 Li13 2.783424 1_555
Br0 Li5 2.838933 1_556
Br1 H4 1.911327 1_555
Br1 H2 1.911327 1_555
Br1 Li1 2.609531 1_555
Br1 Li10 2.783424 1_555
Br1 Li12 2.783424 1_455
Br1 Li4 2.838933 1_555
Br2 H7 1.911327 1_555
Br2 H1 1.911327 1_555
Br2 Li2 2.609531 1_545
Br2 Li9 2.783424 1_555
Br2 Li15 2.783424 1_655
Br2 Li7 2.838933 1_554
Br3 H6 1.911327 1_555
Br3 H0 1.911327 1_555
Br3 Li3 2.609531 1_555
Br3 Li8 2.783424 1_655
Br3 Li14 2.783424 1_555
Br3 Li6 2.838933 1_555
Br4 H6 1.992284 1_555
Br4 H0 1.992284 1_455
Br4 Li4 2.602137 1_555
Br4 Li14 2.724871 1_555
Br4 Li8 2.724871 1_555
Br4 Li0 3.059778 1_555
Br5 H7 1.992284 1_455
Br5 H1 1.992284 1_555
Br5 Li5 2.602137 1_545
Br5 Li15 2.724871 1_555
Br5 Li9 2.724871 1_555
Br5 Li1 3.059778 1_555
Br6 H4 1.992284 1_655
Br6 H2 1.992284 1_555
Br6 Li6 2.602137 1_555
Br6 Li12 2.724871 1_555
Br6 Li10 2.724871 1_555
Br6 Li2 3.059778 1_555
Br7 H3 1.992284 1_655
Br7 H5 1.992284 1_555
Br7 Li7 2.602137 1_565
Br7 Li13 2.724871 1_555
Br7 Li11 2.724871 1_555
Br7 Li3 3.059778 1_555
N0 N6 1.155757 1_555
N1 N7 1.155757 1_555
N2 N4 1.155757 1_555
N3 N5 1.155757 1_555
