# generated using pymatgen
data_Li2Mn2(PO4)3
_symmetry_space_group_name_H-M   'P 1'
_cell_length_a   8.54005200
_cell_length_b   8.59423217
_cell_length_c   12.31942441
_cell_angle_alpha   90.09238415
_cell_angle_beta   91.09087597
_cell_angle_gamma   90.37611527
_symmetry_Int_Tables_number   1
_chemical_formula_structural   Li2Mn2(PO4)3
_chemical_formula_sum   'Li8 Mn8 P12 O48'
_cell_volume   904.00177016
_cell_formula_units_Z   4
loop_
 _symmetry_equiv_pos_site_id
 _symmetry_equiv_pos_as_xyz
  1  'x, y, z'
loop_
 _atom_site_type_symbol
 _atom_site_label
 _atom_site_symmetry_multiplicity
 _atom_site_fract_x
 _atom_site_fract_y
 _atom_site_fract_z
 _atom_site_occupancy
  Li  Li0  1  0.22867900  0.77169400  0.81412400  1
  Li  Li1  1  0.28098500  0.22008900  0.32028000  1
  Li  Li2  1  0.28399500  0.27231800  0.68735700  1
  Li  Li3  1  0.69613500  0.73578800  0.30832200  1
  Li  Li4  1  0.77905100  0.28218500  0.82147500  1
  Li  Li5  1  0.78009200  0.22651300  0.18665200  1
  Li  Li6  1  0.92453900  0.91894100  0.70487200  1
  Li  Li7  1  0.95278600  0.57997200  0.28272600  1
  Mn  Mn0  1  0.25186900  0.46006300  0.88743500  1
  Mn  Mn1  1  0.25030000  0.03130900  0.11458800  1
  Mn  Mn2  1  0.25527400  0.95971100  0.60976800  1
  Mn  Mn3  1  0.25716900  0.54036800  0.38478000  1
  Mn  Mn4  1  0.74967900  0.46615700  0.61643200  1
  Mn  Mn5  1  0.75185600  0.04018900  0.38812100  1
  Mn  Mn6  1  0.74323400  0.96022300  0.88885900  1
  Mn  Mn7  1  0.74769600  0.53916600  0.10553700  1
  P  P0  1  0.03862000  0.25227400  0.50277200  1
  P  P1  1  0.10693200  0.39303700  0.14805500  1
  P  P2  1  0.10388600  0.10268400  0.86102500  1
  P  P3  1  0.39852600  0.60338700  0.64000300  1
  P  P4  1  0.39527600  0.89422300  0.34904800  1
  P  P5  1  0.46078600  0.75230500  0.00125400  1
  P  P6  1  0.53417900  0.24633200  0.00183700  1
  P  P7  1  0.60804700  0.10553600  0.64934400  1
  P  P8  1  0.61197600  0.39691900  0.36269400  1
  P  P9  1  0.89995900  0.60926600  0.84886900  1
  P  P10  1  0.89694400  0.89729300  0.14217400  1
  P  P11  1  0.95730600  0.74598400  0.49823500  1
  O  O0  1  0.05737900  0.64552100  0.42081300  1
  O  O1  1  0.05100700  0.85561400  0.57537500  1
  O  O2  1  0.08007000  0.60067200  0.83684900  1
  O  O3  1  0.07759700  0.89904900  0.15405000  1
  O  O4  1  0.15164500  0.07023500  0.97843800  1
  O  O5  1  0.15513300  0.43843200  0.03642600  1
  O  O6  1  0.14611800  0.15980000  0.58287100  1
  O  O7  1  0.14959500  0.34216400  0.42408600  1
  O  O8  1  0.16062000  0.26564300  0.82399100  1
  O  O9  1  0.15829300  0.22571500  0.18084100  1
  O  O10  1  0.16026700  0.97725400  0.78205000  1
  O  O11  1  0.16917000  0.51100700  0.23630500  1
  O  O12  1  0.32397600  0.48434800  0.71476300  1
  O  O13  1  0.32045300  0.01143100  0.26633600  1
  O  O14  1  0.35610500  0.72251700  0.32054700  1
  O  O15  1  0.34396200  0.76945300  0.67399000  1
  O  O16  1  0.35376000  0.65948600  0.92160600  1
  O  O17  1  0.35409000  0.84466000  0.07693100  1
  O  O18  1  0.35143200  0.57260000  0.52059400  1
  O  O19  1  0.33959200  0.94590600  0.45866900  1
  O  O20  1  0.42785500  0.09814600  0.66365600  1
  O  O21  1  0.42996300  0.39859800  0.34171500  1
  O  O22  1  0.44280300  0.35355900  0.92553100  1
  O  O23  1  0.43934700  0.14090800  0.07606700  1
  O  O24  1  0.55851800  0.64955700  0.07768400  1
  O  O25  1  0.55629400  0.85431700  0.92219300  1
  O  O26  1  0.57955900  0.60354800  0.65349000  1
  O  O27  1  0.57557800  0.90881900  0.33846500  1
  O  O28  1  0.65718100  0.06111200  0.53699000  1
  O  O29  1  0.64595900  0.42037400  0.48383400  1
  O  O30  1  0.64471700  0.15679200  0.92308100  1
  O  O31  1  0.64468700  0.33749700  0.08112700  1
  O  O32  1  0.65977300  0.27464200  0.68211900  1
  O  O33  1  0.66142700  0.23268200  0.32458900  1
  O  O34  1  0.69217400  0.99053300  0.72953800  1
  O  O35  1  0.69709500  0.51874000  0.29434400  1
  O  O36  1  0.82311600  0.49003500  0.76744600  1
  O  O37  1  0.82257900  0.01576000  0.21695900  1
  O  O38  1  0.85550900  0.78032400  0.82086200  1
  O  O39  1  0.84745100  0.72841100  0.17907900  1
  O  O40  1  0.85570900  0.65327600  0.57743400  1
  O  O41  1  0.84777200  0.83341600  0.41841100  1
  O  O42  1  0.84545000  0.56012100  0.95930200  1
  O  O43  1  0.84608300  0.92415400  0.02352300  1
  O  O44  1  0.92066800  0.10548400  0.84740300  1
  O  O45  1  0.92382900  0.40339100  0.16168200  1
  O  O46  1  0.94119700  0.35695800  0.57558100  1
  O  O47  1  0.94502000  0.14341100  0.42670200  1
loop_
_geom_bond_atom_site_label_1
_geom_bond_atom_site_label_2
_geom_bond_distance
_geom_bond_site_symmetry_2
Li0 O10 1.904065 1_555
Li0 O16 1.946297 1_555
Li0 O2 1.959528 1_555
Li0 O15 2.003714 1_555
Li1 O13 1.945156 1_555
Li1 O9 1.995865 1_555
Li1 O21 2.000578 1_555
Li1 O7 2.015174 1_555
Li2 O12 1.880577 1_555
Li2 O20 1.967656 1_555
Li2 O6 1.975293 1_555
Li2 O8 2.003450 1_555
Li3 O27 1.855302 1_555
Li3 O35 1.873102 1_555
Li3 O41 2.033602 1_555
Li3 O39 2.070776 1_555
Li4 O36 1.944248 1_555
Li4 O44 1.970243 1_555
Li4 O32 1.980245 1_555
Li4 O30 2.021651 1_555
Li5 O37 1.886099 1_555
Li5 O31 1.974390 1_555
Li5 O45 1.975758 1_555
Li5 O33 1.995851 1_555
Li6 O38 1.958808 1_555
Li6 O1 2.019479 1_655
Li6 O34 2.108832 1_555
Li6 O10 2.262782 1_655
Li6 O44 2.376623 1_565
Li7 O0 1.985341 1_655
Li7 O39 2.010886 1_555
Li7 O11 2.036348 1_655
Li7 O45 2.135787 1_555
Li7 O35 2.250032 1_555
Mn0 O22 1.925805 1_555
Mn0 O16 1.958555 1_555
Mn0 O8 1.991364 1_555
Mn0 O2 1.998036 1_555
Mn0 O5 2.035404 1_556
Mn0 O12 2.235498 1_555
Mn1 O4 1.893874 1_554
Mn1 O17 1.898933 1_545
Mn1 O3 1.926330 1_545
Mn1 O23 1.931213 1_555
Mn1 O13 1.960276 1_555
Mn1 O9 2.027882 1_555
Mn2 O15 1.967449 1_555
Mn2 O6 1.986699 1_565
Mn2 O20 1.991387 1_565
Mn2 O1 1.993275 1_555
Mn2 O19 2.012224 1_555
Mn2 O10 2.291688 1_555
Mn3 O18 1.862391 1_555
Mn3 O14 1.950058 1_555
Mn3 O11 1.979352 1_555
Mn3 O0 1.993165 1_555
Mn3 O7 1.994775 1_555
Mn3 O21 1.998727 1_555
Mn4 O29 1.883108 1_555
Mn4 O40 1.907043 1_555
Mn4 O26 1.938918 1_555
Mn4 O36 1.961937 1_555
Mn4 O46 1.964457 1_555
Mn4 O32 1.991179 1_555
Mn5 O47 1.919305 1_555
Mn5 O27 1.963570 1_545
Mn5 O33 1.985881 1_555
Mn5 O41 1.994430 1_545
Mn5 O28 2.026535 1_555
Mn5 O37 2.214467 1_555
Mn6 O25 1.884913 1_555
Mn6 O43 1.889322 1_556
Mn6 O30 1.941495 1_565
Mn6 O38 2.014287 1_555
Mn6 O34 2.020127 1_555
Mn6 O44 2.030309 1_565
Mn7 O24 1.904735 1_555
Mn7 O31 1.958694 1_555
Mn7 O42 2.007789 1_554
Mn7 O45 2.022036 1_555
Mn7 O39 2.034571 1_555
Mn7 O35 2.380419 1_555
O0 P11 1.556807 1_455
O1 P11 1.545775 1_455
O2 P9 1.550303 1_455
O3 P10 1.546905 1_455
O4 P2 1.522072 1_555
O5 P1 1.494663 1_555
O6 P0 1.557481 1_555
O7 P0 1.569223 1_555
O8 P2 1.551094 1_555
O9 P1 1.557818 1_555
O10 P2 1.536790 1_565
O11 P1 1.568366 1_555
O12 P3 1.522176 1_555
O13 P4 1.564687 1_545
O14 P4 1.549257 1_555
O15 P3 1.563204 1_555
O16 P5 1.545410 1_556
O17 P5 1.539120 1_555
O18 P3 1.539666 1_555
O19 P4 1.507478 1_555
O20 P7 1.553146 1_555
O21 P8 1.571043 1_555
O22 P6 1.525178 1_556
O23 P6 1.527838 1_555
O24 P5 1.531461 1_555
O25 P5 1.551182 1_556
O26 P3 1.551777 1_555
O27 P4 1.552045 1_555
O28 P7 1.503390 1_555
O29 P8 1.527682 1_555
O30 P6 1.570559 1_556
O31 P6 1.552865 1_555
O32 P7 1.566282 1_555
O33 P8 1.550568 1_555
O34 P7 1.566687 1_565
O35 P8 1.532877 1_555
O36 P9 1.565131 1_555
O37 P10 1.521997 1_545
O38 P9 1.558317 1_555
O39 P10 1.579032 1_555
O40 P11 1.537937 1_555
O41 P11 1.543785 1_555
O42 P9 1.506439 1_555
O43 P10 1.535183 1_555
O44 P2 1.570831 1_655
O45 P1 1.578943 1_655
O46 P0 1.530303 1_655
O47 P0 1.533413 1_655
