# generated using pymatgen
data_Co3OF5
_symmetry_space_group_name_H-M   'P 1'
_cell_length_a   4.72923697
_cell_length_b   4.72923697
_cell_length_c   9.42155645
_cell_angle_alpha   89.20949443
_cell_angle_beta   89.20949443
_cell_angle_gamma   91.46164868
_symmetry_Int_Tables_number   1
_chemical_formula_structural   Co3OF5
_chemical_formula_sum   'Co6 O2 F10'
_cell_volume   210.60982579
_cell_formula_units_Z   2
loop_
 _symmetry_equiv_pos_site_id
 _symmetry_equiv_pos_as_xyz
  1  'x, y, z'
loop_
 _atom_site_type_symbol
 _atom_site_label
 _atom_site_symmetry_multiplicity
 _atom_site_fract_x
 _atom_site_fract_y
 _atom_site_fract_z
 _atom_site_occupancy
  Co  Co0  1  0.02419700  0.02419700  0.66298400  1
  Co  Co1  1  0.97580300  0.97580300  0.33701600  1
  Co  Co2  1  0.00000000  0.00000000  0.00000000  1
  Co  Co3  1  0.50000000  0.50000000  0.50000000  1
  Co  Co4  1  0.49727100  0.49727100  0.82535300  1
  Co  Co5  1  0.50272900  0.50272900  0.17464700  1
  O  O0  1  0.67402200  0.67402200  0.35305500  1
  O  O1  1  0.32597800  0.32597800  0.64694500  1
  F  F0  1  0.79845600  0.20154400  0.50000000  1
  F  F1  1  0.81331100  0.20535800  0.83107100  1
  F  F2  1  0.79464200  0.18668900  0.16892900  1
  F  F3  1  0.71203700  0.71203700  0.65974900  1
  F  F4  1  0.69368300  0.69368300  0.99766900  1
  F  F5  1  0.30631700  0.30631700  0.00233100  1
  F  F6  1  0.28796300  0.28796300  0.34025100  1
  F  F7  1  0.20154400  0.79845600  0.50000000  1
  F  F8  1  0.20535800  0.81331100  0.83107100  1
  F  F9  1  0.18668900  0.79464200  0.16892900  1
loop_
_geom_bond_atom_site_label_1
_geom_bond_atom_site_label_2
_geom_bond_distance
_geom_bond_site_symmetry_2
Co0 O1 1.995190 1_555
Co0 F3 2.061802 1_445
Co0 F0 2.063131 1_455
Co0 F7 2.063131 1_545
Co0 F1 2.067380 1_455
Co0 F8 2.067380 1_545
Co1 O0 1.995190 1_555
Co1 F6 2.061802 1_665
Co1 F0 2.063131 1_565
Co1 F7 2.063131 1_655
Co1 F2 2.067380 1_565
Co1 F9 2.067380 1_655
Co2 F5 2.022950 1_555
Co2 F4 2.022950 1_444
Co2 F1 2.072603 1_454
Co2 F8 2.072603 1_544
Co2 F9 2.072603 1_545
Co2 F2 2.072603 1_455
Co3 O0 1.781544 1_555
Co3 O1 1.781544 1_555
Co3 F0 2.021417 1_555
Co3 F7 2.021417 1_555
Co3 F3 2.075663 1_555
Co3 F6 2.075663 1_555
Co4 O1 2.044383 1_555
Co4 F1 2.061092 1_555
Co4 F8 2.061092 1_555
Co4 F5 2.070412 1_556
Co4 F3 2.087462 1_555
Co4 F4 2.097746 1_555
Co5 O0 2.044383 1_555
Co5 F2 2.061092 1_555
Co5 F9 2.061092 1_555
Co5 F4 2.070412 1_554
Co5 F6 2.087462 1_555
Co5 F5 2.097746 1_555
