# generated using pymatgen
data_Na4Al3Ge3NO14
_symmetry_space_group_name_H-M   'P 1'
_cell_length_a   9.20149571
_cell_length_b   9.20149571
_cell_length_c   9.18401126
_cell_angle_alpha   89.93380255
_cell_angle_beta   89.93380255
_cell_angle_gamma   90.00737944
_symmetry_Int_Tables_number   1
_chemical_formula_structural   Na4Al3Ge3NO14
_chemical_formula_sum   'Na8 Al6 Ge6 N2 O28'
_cell_volume   777.58644285
_cell_formula_units_Z   2
loop_
 _symmetry_equiv_pos_site_id
 _symmetry_equiv_pos_as_xyz
  1  'x, y, z'
loop_
 _atom_site_type_symbol
 _atom_site_label
 _atom_site_symmetry_multiplicity
 _atom_site_fract_x
 _atom_site_fract_y
 _atom_site_fract_z
 _atom_site_occupancy
  Na  Na0  1  0.18037900  0.31991800  0.18078700  1
  Na  Na1  1  0.18087200  0.68051400  0.81877500  1
  Na  Na2  1  0.31991800  0.18037900  0.68078700  1
  Na  Na3  1  0.32106900  0.81903300  0.31988400  1
  Na  Na4  1  0.68051400  0.18087200  0.31877500  1
  Na  Na5  1  0.67922700  0.81868100  0.68047900  1
  Na  Na6  1  0.81903300  0.32106900  0.81988400  1
  Na  Na7  1  0.81868100  0.67922700  0.18047900  1
  Al  Al0  1  0.99968900  0.00017000  0.24999600  1
  Al  Al1  1  0.24995100  0.50008600  0.50011100  1
  Al  Al2  1  0.50010200  0.75012300  0.99988300  1
  Al  Al3  1  0.50008600  0.24995100  0.00011100  1
  Al  Al4  1  0.75012300  0.50010200  0.49988300  1
  Al  Al5  1  0.00017000  0.99968900  0.74999600  1
  Ge  Ge0  1  0.99994300  0.25033100  0.49959800  1
  Ge  Ge1  1  0.25033100  0.99994300  0.99959800  1
  Ge  Ge2  1  0.50007100  0.50031200  0.75000200  1
  Ge  Ge3  1  0.50031200  0.50007100  0.25000200  1
  Ge  Ge4  1  0.74964200  0.99993700  0.00038900  1
  Ge  Ge5  1  0.99993700  0.74964200  0.50038900  1
  N  N0  1  0.03199200  0.49941700  0.00009100  1
  N  N1  1  0.49941700  0.03199200  0.50009100  1
  O  O0  1  0.06936500  0.14563400  0.64511600  1
  O  O1  1  0.06988500  0.85462400  0.35488800  1
  O  O2  1  0.14563400  0.06936500  0.14511600  1
  O  O3  1  0.14472700  0.93044800  0.85564100  1
  O  O4  1  0.14565300  0.35436600  0.43112000  1
  O  O5  1  0.14521800  0.64538900  0.56886200  1
  O  O6  1  0.35502500  0.43043800  0.64550200  1
  O  O7  1  0.35483600  0.56942600  0.35433500  1
  O  O8  1  0.35436600  0.14565300  0.93112000  1
  O  O9  1  0.35436200  0.85473200  0.06950700  1
  O  O10  1  0.43043800  0.35502500  0.14550200  1
  O  O11  1  0.43040400  0.64454800  0.85522600  1
  O  O12  1  0.44221700  0.95809300  0.60209000  1
  O  O13  1  0.55835200  0.95854300  0.39779900  1
  O  O14  1  0.56942600  0.35483600  0.85433500  1
  O  O15  1  0.56942900  0.64474300  0.14498800  1
  O  O16  1  0.64538900  0.14521800  0.06886200  1
  O  O17  1  0.64540900  0.85519600  0.93055000  1
  O  O18  1  0.64454800  0.43040400  0.35522600  1
  O  O19  1  0.64474300  0.56942900  0.64498800  1
  O  O20  1  0.85473200  0.35436200  0.56950700  1
  O  O21  1  0.85519600  0.64540900  0.43055000  1
  O  O22  1  0.85551300  0.92996700  0.14437900  1
  O  O23  1  0.85462400  0.06988500  0.85488800  1
  O  O24  1  0.93044800  0.14472700  0.35564100  1
  O  O25  1  0.92996700  0.85551300  0.64437900  1
  O  O26  1  0.95854300  0.55835200  0.89779900  1
  O  O27  1  0.95809300  0.44221700  0.10209000  1
loop_
_geom_bond_atom_site_label_1
_geom_bond_atom_site_label_2
_geom_bond_distance
_geom_bond_site_symmetry_2
Na0 O4 2.342705 1_555
Na0 O10 2.345512 1_555
Na0 O2 2.350849 1_555
Na0 O27 2.444257 1_455
Na1 O5 2.341683 1_555
Na1 O11 2.344191 1_555
Na1 O3 2.348598 1_555
Na1 O26 2.443253 1_455
Na2 O8 2.342705 1_555
Na2 O6 2.345512 1_555
Na2 O0 2.350849 1_555
Na2 O12 2.444257 1_545
Na3 O7 2.338905 1_555
Na3 O9 2.342198 1_555
Na3 O1 2.356116 1_555
Na3 O13 2.632868 1_555
Na4 O16 2.341683 1_555
Na4 O18 2.344191 1_555
Na4 O24 2.348598 1_555
Na4 O13 2.443253 1_545
Na5 O19 2.338548 1_555
Na5 O17 2.341902 1_555
Na5 O25 2.354919 1_555
Na5 O12 2.631002 1_555
Na6 O14 2.338905 1_555
Na6 O20 2.342198 1_555
Na6 O23 2.356116 1_555
Na6 O26 2.632868 1_555
Na7 O15 2.338548 1_555
Na7 O21 2.341902 1_555
Na7 O22 2.354919 1_555
Na7 O27 2.631002 1_555
Al0 O24 1.765883 1_555
Al0 O22 1.767008 1_545
Al0 O2 1.769735 1_655
Al0 O1 1.771284 1_645
Al1 O5 1.765179 1_555
Al1 O4 1.767309 1_555
Al1 O7 1.767990 1_555
Al1 O6 1.769068 1_555
Al2 O15 1.766987 1_556
Al2 O17 1.767533 1_555
Al2 O11 1.767709 1_555
Al2 O9 1.770173 1_556
Al3 O16 1.765179 1_555
Al3 O8 1.767309 1_554
Al3 O14 1.767990 1_554
Al3 O10 1.769068 1_555
Al4 O19 1.766987 1_555
Al4 O21 1.767533 1_555
Al4 O18 1.767709 1_555
Al4 O20 1.770173 1_555
Al5 O3 1.765883 1_555
Al5 O25 1.767008 1_455
Al5 O0 1.769735 1_565
Al5 O23 1.771284 1_465
Ge0 O4 1.762339 1_655
Ge0 O24 1.762343 1_555
Ge0 O20 1.764545 1_555
Ge0 O0 1.766735 1_655
Ge1 O8 1.762339 1_565
Ge1 O3 1.762343 1_555
Ge1 O9 1.764545 1_556
Ge1 O2 1.766735 1_566
Ge2 O19 1.761284 1_555
Ge2 O11 1.762951 1_555
Ge2 O14 1.765194 1_555
Ge2 O6 1.766320 1_555
Ge3 O15 1.761284 1_555
Ge3 O18 1.762951 1_555
Ge3 O7 1.765194 1_555
Ge3 O10 1.766320 1_555
Ge4 O16 1.761705 1_565
Ge4 O17 1.762985 1_554
Ge4 O22 1.764498 1_555
Ge4 O23 1.768591 1_564
Ge5 O5 1.761705 1_655
Ge5 O21 1.762985 1_555
Ge5 O25 1.764498 1_555
Ge5 O1 1.768591 1_655
N0 O27 1.270515 1_455
N0 O26 1.278199 1_454
N0 Na0 2.710298 1_555
N0 Na1 2.722883 1_554
N1 O12 1.270515 1_545
N1 O13 1.278199 1_545
N1 Na2 2.710298 1_555
N1 Na4 2.722883 1_555
