# generated using pymatgen
data_YTa3O9
_symmetry_space_group_name_H-M   'P 1'
_cell_length_a   7.45530271
_cell_length_b   5.26564522
_cell_length_c   8.22601906
_cell_angle_alpha   87.58884939
_cell_angle_beta   90.00000000
_cell_angle_gamma   90.00000000
_symmetry_Int_Tables_number   1
_chemical_formula_structural   YTa3O9
_chemical_formula_sum   'Y2 Ta6 O18'
_cell_volume   322.64275686
_cell_formula_units_Z   2
loop_
 _symmetry_equiv_pos_site_id
 _symmetry_equiv_pos_as_xyz
  1  'x, y, z'
loop_
 _atom_site_type_symbol
 _atom_site_label
 _atom_site_symmetry_multiplicity
 _atom_site_fract_x
 _atom_site_fract_y
 _atom_site_fract_z
 _atom_site_occupancy
  Y  Y0  1  0.25000000  0.96637886  0.43520512  1
  Y  Y1  1  0.75000000  0.03362114  0.56479488  1
  Ta  Ta0  1  0.00000000  -0.00000000  0.00000000  1
  Ta  Ta1  1  0.50000000  -0.00000000  0.00000000  1
  Ta  Ta2  1  0.49235314  0.52758485  0.69785665  1
  Ta  Ta3  1  0.00764686  0.52758485  0.69785665  1
  Ta  Ta4  1  0.99235314  0.47241515  0.30214335  1
  Ta  Ta5  1  0.50764686  0.47241515  0.30214335  1
  O  O0  1  0.25000000  0.89999828  0.97840421  1
  O  O1  1  0.93552995  0.85280986  0.78406784  1
  O  O2  1  0.56447005  0.85280986  0.78406784  1
  O  O3  1  0.95702098  0.74140119  0.46675891  1
  O  O4  1  0.54297902  0.74140119  0.46675891  1
  O  O5  1  0.25000000  0.66525617  0.65439796  1
  O  O6  1  0.94385127  0.67412739  0.11892785  1
  O  O7  1  0.55614873  0.67412739  0.11892785  1
  O  O8  1  0.25000000  0.57663004  0.31281590  1
  O  O9  1  0.75000000  0.42336996  0.68718410  1
  O  O10  1  0.05614873  0.32587261  0.88107215  1
  O  O11  1  0.44385127  0.32587261  0.88107215  1
  O  O12  1  0.75000000  0.33474383  0.34560204  1
  O  O13  1  0.04297902  0.25859881  0.53324109  1
  O  O14  1  0.45702098  0.25859881  0.53324109  1
  O  O15  1  0.06447005  0.14719014  0.21593216  1
  O  O16  1  0.43552995  0.14719014  0.21593216  1
  O  O17  1  0.75000000  0.10000172  0.02159579  1
loop_
_geom_bond_atom_site_label_1
_geom_bond_atom_site_label_2
_geom_bond_distance
_geom_bond_site_symmetry_2
O0 Ta1 1.946935 1_566
O0 Ta0 1.946935 1_566
O1 Ta3 1.956249 1_655
O1 Ta0 2.025504 1_666
O1 Y1 2.434884 1_565
O2 Ta2 1.956249 1_555
O2 Ta1 2.025504 1_566
O2 Y1 2.434884 1_565
O3 Ta4 2.017568 1_555
O3 Ta3 2.200871 1_655
O3 Y1 2.346176 1_565
O3 Y0 2.493158 1_655
O4 Ta5 2.017568 1_555
O4 Ta2 2.200871 1_555
O4 Y1 2.346176 1_565
O4 Y0 2.493158 1_555
O5 Ta3 1.973854 1_555
O5 Ta2 1.973854 1_555
O5 Y0 2.350469 1_555
O6 Ta4 1.842733 1_555
O6 Ta0 1.983803 1_665
O7 Ta5 1.842733 1_555
O7 Ta1 1.983803 1_565
O8 Ta4 2.000626 1_455
O8 Ta5 2.000626 1_555
O8 Y0 2.323639 1_555
O9 Ta3 2.000626 1_655
O9 Ta2 2.000626 1_555
O9 Y1 2.323639 1_555
O10 Ta3 1.842733 1_555
O10 Ta0 1.983803 1_556
O11 Ta2 1.842733 1_555
O11 Ta1 1.983803 1_556
O12 Ta5 1.973854 1_555
O12 Ta4 1.973854 1_555
O12 Y1 2.350469 1_555
O13 Ta3 2.017568 1_555
O13 Ta4 2.200871 1_455
O13 Y0 2.346176 1_545
O13 Y1 2.493158 1_455
O14 Ta2 2.017568 1_555
O14 Ta5 2.200871 1_555
O14 Y0 2.346176 1_545
O14 Y1 2.493158 1_555
O15 Ta4 1.956249 1_455
O15 Ta0 2.025504 1_555
O15 Y0 2.434884 1_545
O16 Ta5 1.956249 1_555
O16 Ta1 2.025504 1_555
O16 Y0 2.434884 1_545
O17 Ta1 1.946935 1_555
O17 Ta0 1.946935 1_655
