# generated using pymatgen
data_VCrO3
_symmetry_space_group_name_H-M   'P 1'
_cell_length_a   5.03078224
_cell_length_b   5.40156481
_cell_length_c   7.36508051
_cell_angle_alpha   83.90028352
_cell_angle_beta   89.90972671
_cell_angle_gamma   89.83364971
_symmetry_Int_Tables_number   1
_chemical_formula_structural   VCrO3
_chemical_formula_sum   'V4 Cr4 O12'
_cell_volume   199.00531148
_cell_formula_units_Z   4
loop_
 _symmetry_equiv_pos_site_id
 _symmetry_equiv_pos_as_xyz
  1  'x, y, z'
loop_
 _atom_site_type_symbol
 _atom_site_label
 _atom_site_symmetry_multiplicity
 _atom_site_fract_x
 _atom_site_fract_y
 _atom_site_fract_z
 _atom_site_occupancy
  V  V0  1  0.49603703  0.19729495  0.85048918  1
  V  V1  1  -0.00116143  0.70000221  0.85084033  1
  V  V2  1  0.50045115  0.79676218  0.65030322  1
  V  V3  1  -0.00189381  0.30341596  0.14640065  1
  Cr  Cr0  1  0.99858934  0.30119315  0.64896936  1
  Cr  Cr1  1  0.50062217  0.20128659  0.35072801  1
  Cr  Cr2  1  0.00035880  0.69877454  0.34867262  1
  Cr  Cr3  1  0.50101657  0.80505280  0.15306194  1
  O  O0  1  0.30503278  0.49194323  0.74767229  1
  O  O1  1  0.85091616  0.34324221  0.90157780  1
  O  O2  1  0.65290716  0.15158116  0.59927639  1
  O  O3  1  0.18821463  0.99661299  0.74871987  1
  O  O4  1  0.15232497  0.34986565  0.40089588  1
  O  O5  1  0.65342876  0.84337093  0.90368638  1
  O  O6  1  0.84680327  0.64837287  0.59523724  1
  O  O7  1  0.35487407  0.15643691  0.09926305  1
  O  O8  1  0.34621469  0.85075132  0.40151575  1
  O  O9  1  0.15616188  0.65792118  0.09893203  1
  O  O10  1  0.69558683  0.50430352  0.25165128  1
  O  O11  1  0.80351498  0.00181667  0.25210570  1
loop_
_geom_bond_atom_site_label_1
_geom_bond_atom_site_label_2
_geom_bond_distance
_geom_bond_site_symmetry_2
Cr0 O2 1.970879 1_555
Cr0 O3 1.973000 1_645
Cr0 O4 1.974881 1_655
Cr0 O6 2.022726 1_555
Cr0 O0 2.034380 1_655
Cr0 O1 2.036999 1_555
Cr1 O4 1.975771 1_555
Cr1 O2 1.977070 1_555
Cr1 O10 1.981599 1_555
Cr1 O7 2.031526 1_555
Cr1 O11 2.040521 1_555
Cr1 O8 2.045859 1_545
Cr2 O6 1.964779 1_455
Cr2 O11 1.977708 1_465
Cr2 O8 1.982684 1_555
Cr2 O4 2.030478 1_555
Cr2 O9 2.031505 1_555
Cr2 O10 2.034012 1_455
Cr3 O10 1.966406 1_555
Cr3 O9 1.969241 1_555
Cr3 O5 1.979850 1_554
Cr3 O8 2.026395 1_555
Cr3 O7 2.032983 1_565
Cr3 O11 2.038449 1_565
O0 V0 1.940906 1_555
O0 V2 1.986953 1_555
O0 V1 2.093070 1_555
O1 V3 1.940812 1_656
O1 V0 2.005932 1_555
O1 V1 2.064317 1_655
O2 V0 2.048996 1_555
O2 V2 2.063325 1_545
O3 V1 1.946995 1_555
O3 V2 2.076292 1_555
O3 V0 2.078715 1_565
O4 V3 2.069741 1_555
O5 V1 1.955724 1_655
O5 V2 2.060053 1_555
O5 V0 2.065970 1_565
O6 V2 1.975278 1_555
O6 V1 2.079441 1_655
O7 V0 1.954740 1_554
O7 V3 2.005132 1_555
O8 V2 1.983479 1_555
O9 V1 1.982937 1_554
O9 V3 2.070495 1_555
O10 V3 2.063982 1_655
O11 V3 1.988907 1_655
