# generated using pymatgen
data_LiMn2(PO4)2
_symmetry_space_group_name_H-M   'P 1'
_cell_length_a   5.08679025
_cell_length_b   9.71376982
_cell_length_c   7.22784080
_cell_angle_alpha   90.07533673
_cell_angle_beta   90.07510487
_cell_angle_gamma   94.27930162
_symmetry_Int_Tables_number   1
_chemical_formula_structural   LiMn2(PO4)2
_chemical_formula_sum   'Li2 Mn4 P4 O16'
_cell_volume   356.14509759
_cell_formula_units_Z   2
loop_
 _symmetry_equiv_pos_site_id
 _symmetry_equiv_pos_as_xyz
  1  'x, y, z'
loop_
 _atom_site_type_symbol
 _atom_site_label
 _atom_site_symmetry_multiplicity
 _atom_site_fract_x
 _atom_site_fract_y
 _atom_site_fract_z
 _atom_site_occupancy
  Li  Li0  1  0.73755000  0.34843700  0.51806800  1
  Li  Li1  1  0.73830000  0.84869500  0.98189900  1
  Mn  Mn0  1  0.74922500  0.31943700  0.02217000  1
  Mn  Mn1  1  0.75103900  0.81861100  0.47836900  1
  Mn  Mn2  1  0.19495800  0.12844100  0.45954400  1
  Mn  Mn3  1  0.19516000  0.62816600  0.04019300  1
  P  P0  1  0.73620100  0.08459500  0.72534100  1
  P  P1  1  0.73565200  0.58450000  0.77467500  1
  P  P2  1  0.27281200  0.42119600  0.26576800  1
  P  P3  1  0.27443200  0.92118200  0.23434600  1
  O  O0  1  0.26274000  0.07913600  0.19912400  1
  O  O1  1  0.26052100  0.57914300  0.30148100  1
  O  O2  1  0.03396700  0.13754200  0.69245100  1
  O  O3  1  0.03384700  0.63731700  0.80712500  1
  O  O4  1  0.58100800  0.14820000  0.56354600  1
  O  O5  1  0.58210900  0.64859600  0.93700500  1
  O  O6  1  0.66655300  0.12970400  0.92040200  1
  O  O7  1  0.66506200  0.62925900  0.57966300  1
  O  O8  1  0.10267900  0.32569500  0.39881300  1
  O  O9  1  0.10555200  0.82597600  0.09960700  1
  O  O10  1  0.14594700  0.41558000  0.06348400  1
  O  O11  1  0.14597600  0.91559600  0.43579200  1
  O  O12  1  0.55530500  0.37516000  0.26430500  1
  O  O13  1  0.55684000  0.87519600  0.23694400  1
  O  O14  1  0.70164700  0.42513500  0.77863200  1
  O  O15  1  0.70241900  0.92527000  0.72125200  1
loop_
_geom_bond_atom_site_label_1
_geom_bond_atom_site_label_2
_geom_bond_distance
_geom_bond_site_symmetry_2
Li0 O14 2.037845 1_555
Li0 O4 2.072825 1_555
Li0 O8 2.075185 1_655
Li0 O12 2.079335 1_555
Li1 O15 2.039309 1_555
Li1 O5 2.069243 1_555
Li1 O9 2.078533 1_656
Li1 O13 2.086906 1_556
Mn0 O6 1.998648 1_554
Mn0 O14 2.062026 1_554
Mn0 O12 2.100153 1_555
Mn0 O10 2.179512 1_655
Mn1 O7 1.998683 1_555
Mn1 O15 2.061804 1_555
Mn1 O13 2.098085 1_555
Mn1 O11 2.176717 1_655
Mn2 O2 1.877863 1_555
Mn2 O0 1.978685 1_555
Mn2 O8 2.054332 1_555
Mn2 O11 2.070821 1_545
Mn2 O4 2.097080 1_555
Mn3 O3 1.877948 1_554
Mn3 O1 1.981986 1_555
Mn3 O9 2.052638 1_555
Mn3 O10 2.068612 1_555
Mn3 O5 2.101404 1_554
O0 P3 1.561127 1_545
O1 P2 1.561349 1_555
O2 P0 1.581226 1_455
O3 P1 1.581675 1_455
O4 P0 1.563576 1_555
O5 P1 1.564400 1_555
O6 P0 1.525812 1_555
O7 P1 1.525872 1_555
O8 P2 1.555312 1_555
O9 P3 1.555170 1_555
O10 P2 1.596610 1_555
O11 P3 1.596032 1_555
O12 P2 1.536532 1_555
O13 P3 1.535996 1_555
O14 P1 1.545095 1_555
O15 P0 1.544600 1_565
