# generated using pymatgen
data_Fe2C2O7
_symmetry_space_group_name_H-M   'P 1'
_cell_length_a   4.95307000
_cell_length_b   4.96091072
_cell_length_c   16.01251747
_cell_angle_alpha   89.70219298
_cell_angle_beta   90.61986140
_cell_angle_gamma   119.89910509
_symmetry_Int_Tables_number   1
_chemical_formula_structural   Fe2C2O7
_chemical_formula_sum   'Fe4 C4 O14'
_cell_volume   341.06828809
_cell_formula_units_Z   2
loop_
 _symmetry_equiv_pos_site_id
 _symmetry_equiv_pos_as_xyz
  1  'x, y, z'
loop_
 _atom_site_type_symbol
 _atom_site_label
 _atom_site_symmetry_multiplicity
 _atom_site_fract_x
 _atom_site_fract_y
 _atom_site_fract_z
 _atom_site_occupancy
  Fe  Fe0  1  0.33635400  0.67128800  0.13625600  1
  Fe  Fe1  1  0.33380300  0.67100200  0.36370600  1
  Fe  Fe2  1  0.66619700  0.32899800  0.63629400  1
  Fe  Fe3  1  0.66364600  0.32871200  0.86374400  1
  C  C0  1  0.66705900  0.33479100  0.09629500  1
  C  C1  1  0.66759400  0.33489800  0.40371200  1
  C  C2  1  0.33240600  0.66510200  0.59628800  1
  C  C3  1  0.33294100  0.66520900  0.90370500  1
  O  O0  1  0.41289900  0.06864700  0.40606300  1
  O  O1  1  0.06697700  0.41076000  0.90468100  1
  O  O2  1  0.41204400  0.34603800  0.09758100  1
  O  O3  1  0.34437300  0.41050500  0.59595200  1
  O  O4  1  0.65571500  0.06854300  0.09406100  1
  O  O5  1  0.06638000  0.65416100  0.59728400  1
  O  O6  1  0.66425800  0.32478300  0.75002400  1
  O  O7  1  0.33574200  0.67521700  0.24997600  1
  O  O8  1  0.93362000  0.34583900  0.40271600  1
  O  O9  1  0.34428500  0.93145700  0.90593900  1
  O  O10  1  0.65562700  0.58949500  0.40404800  1
  O  O11  1  0.58795600  0.65396200  0.90241900  1
  O  O12  1  0.93302300  0.58924000  0.09531900  1
  O  O13  1  0.58710100  0.93135300  0.59393700  1
loop_
_geom_bond_atom_site_label_1
_geom_bond_atom_site_label_2
_geom_bond_distance
_geom_bond_site_symmetry_2
Fe0 O7 1.821201 1_555
Fe0 O4 1.934922 1_565
Fe0 O2 1.935468 1_555
Fe0 O12 1.936506 1_455
Fe1 O7 1.821189 1_555
Fe1 O10 1.933714 1_555
Fe1 O0 1.934593 1_565
Fe1 O8 1.936448 1_455
Fe2 O6 1.821189 1_555
Fe2 O3 1.933714 1_555
Fe2 O13 1.934593 1_545
Fe2 O5 1.936448 1_655
Fe3 O6 1.821201 1_555
Fe3 O9 1.934922 1_545
Fe3 O11 1.935468 1_555
Fe3 O1 1.936506 1_655
C0 O2 1.292212 1_555
C0 O12 1.292851 1_555
C0 O4 1.294409 1_555
C1 O8 1.291718 1_555
C1 O10 1.293641 1_555
C1 O0 1.294917 1_555
C2 O5 1.291718 1_555
C2 O3 1.293641 1_555
C2 O13 1.294917 1_555
C3 O11 1.292212 1_555
C3 O1 1.292851 1_555
C3 O9 1.294409 1_555
