# generated using pymatgen
data_LiCu(PO3)2
_symmetry_space_group_name_H-M   'P 1'
_cell_length_a   5.18955000
_cell_length_b   14.18580600
_cell_length_c   14.28046554
_cell_angle_alpha   74.64926745
_cell_angle_beta   90.00000000
_cell_angle_gamma   90.00000000
_symmetry_Int_Tables_number   1
_chemical_formula_structural   LiCu(PO3)2
_chemical_formula_sum   'Li8 Cu8 P16 O48'
_cell_volume   1013.79182591
_cell_formula_units_Z   8
loop_
 _symmetry_equiv_pos_site_id
 _symmetry_equiv_pos_as_xyz
  1  'x, y, z'
loop_
 _atom_site_type_symbol
 _atom_site_label
 _atom_site_symmetry_multiplicity
 _atom_site_fract_x
 _atom_site_fract_y
 _atom_site_fract_z
 _atom_site_occupancy
  Li  Li0  1  0.29592900  0.43478100  0.13318600  1
  Li  Li1  1  0.68864500  0.93663100  0.11761600  1
  Li  Li2  1  0.18864500  0.06336900  0.38238400  1
  Li  Li3  1  0.79592900  0.56521900  0.36681400  1
  Li  Li4  1  0.20407100  0.43478100  0.63318600  1
  Li  Li5  1  0.81135500  0.93663100  0.61761600  1
  Li  Li6  1  0.31135500  0.06336900  0.88238400  1
  Li  Li7  1  0.70407100  0.56521900  0.86681400  1
  Cu  Cu0  1  0.25749400  0.09406300  0.13812100  1
  Cu  Cu1  1  0.85480000  0.61262100  0.14702400  1
  Cu  Cu2  1  0.35480000  0.38737900  0.35297600  1
  Cu  Cu3  1  0.75749400  0.90593700  0.36187900  1
  Cu  Cu4  1  0.24250600  0.09406300  0.63812100  1
  Cu  Cu5  1  0.64520000  0.61262100  0.64702400  1
  Cu  Cu6  1  0.14520000  0.38737900  0.85297600  1
  Cu  Cu7  1  0.74250600  0.90593700  0.86187900  1
  P  P0  1  0.70063700  0.36301400  0.00851600  1
  P  P1  1  0.28949800  0.84865700  0.00355000  1
  P  P2  1  0.83167500  0.34973200  0.20952200  1
  P  P3  1  0.66914900  0.14240800  0.29651200  1
  P  P4  1  0.16914900  0.85759200  0.20348800  1
  P  P5  1  0.33167500  0.65026800  0.29047800  1
  P  P6  1  0.78949800  0.15134300  0.49645000  1
  P  P7  1  0.79936300  0.36301400  0.50851600  1
  P  P8  1  0.20063700  0.63698600  0.49148400  1
  P  P9  1  0.21050200  0.84865700  0.50355000  1
  P  P10  1  0.66832500  0.34973200  0.70952200  1
  P  P11  1  0.83085100  0.14240800  0.79651200  1
  P  P12  1  0.33085100  0.85759200  0.70348800  1
  P  P13  1  0.16832500  0.65026800  0.79047800  1
  P  P14  1  0.71050200  0.15134300  0.99645000  1
  P  P15  1  0.29936300  0.63698600  0.99148400  1
  O  O0  1  0.85492700  0.07030600  0.06628800  1
  O  O1  1  0.76893600  0.24917800  0.02732800  1
  O  O2  1  0.42158700  0.37770500  0.02627900  1
  O  O3  1  0.88259900  0.38496100  0.09351700  1
  O  O4  1  0.17852000  0.57900000  0.08524100  1
  O  O5  1  0.57411300  0.86195900  0.01849900  1
  O  O6  1  0.81315400  0.23256300  0.22388600  1
  O  O7  1  0.40128300  0.12945600  0.26102900  1
  O  O8  1  0.07413700  0.37261700  0.25594200  1
  O  O9  1  0.57915500  0.39191000  0.22759200  1
  O  O10  1  0.13667500  0.81888100  0.10732700  1
  O  O11  1  0.85189200  0.05695200  0.31847100  1
  O  O12  1  0.35189200  0.94304800  0.18152900  1
  O  O13  1  0.63667500  0.18111900  0.39267300  1
  O  O14  1  0.07915500  0.60809000  0.27240800  1
  O  O15  1  0.57413700  0.62738300  0.24405800  1
  O  O16  1  0.90128300  0.87054400  0.23897100  1
  O  O17  1  0.31315400  0.76743700  0.27611400  1
  O  O18  1  0.07411300  0.13804100  0.48150100  1
  O  O19  1  0.67852000  0.42100000  0.41475900  1
  O  O20  1  0.64507300  0.07030600  0.56628800  1
  O  O21  1  0.38259900  0.61503900  0.40648300  1
  O  O22  1  0.73106400  0.24917800  0.52732800  1
  O  O23  1  0.92158700  0.62229500  0.47372100  1
  O  O24  1  0.07841300  0.37770500  0.52627900  1
  O  O25  1  0.26893600  0.75082200  0.47267200  1
  O  O26  1  0.61740100  0.38496100  0.59351700  1
  O  O27  1  0.35492700  0.92969400  0.43371200  1
  O  O28  1  0.32148000  0.57900000  0.58524100  1
  O  O29  1  0.92588700  0.86195900  0.51849900  1
  O  O30  1  0.68684600  0.23256300  0.72388600  1
  O  O31  1  0.09871700  0.12945600  0.76102900  1
  O  O32  1  0.42586300  0.37261700  0.75594200  1
  O  O33  1  0.92084500  0.39191000  0.72759200  1
  O  O34  1  0.36332500  0.81888100  0.60732700  1
  O  O35  1  0.64810800  0.05695200  0.81847100  1
  O  O36  1  0.14810800  0.94304800  0.68152900  1
  O  O37  1  0.86332500  0.18111900  0.89267300  1
  O  O38  1  0.42084500  0.60809000  0.77240800  1
  O  O39  1  0.92586300  0.62738300  0.74405800  1
  O  O40  1  0.59871700  0.87054400  0.73897100  1
  O  O41  1  0.18684600  0.76743700  0.77611400  1
  O  O42  1  0.42588700  0.13804100  0.98150100  1
  O  O43  1  0.82148000  0.42100000  0.91475900  1
  O  O44  1  0.11740100  0.61503900  0.90648300  1
  O  O45  1  0.57841300  0.62229500  0.97372100  1
  O  O46  1  0.23106400  0.75082200  0.97267200  1
  O  O47  1  0.14507300  0.92969400  0.93371200  1
loop_
_geom_bond_atom_site_label_1
_geom_bond_atom_site_label_2
_geom_bond_distance
_geom_bond_site_symmetry_2
Li0 O9 1.978297 1_555
Li0 O2 2.016440 1_555
Li0 O4 2.069770 1_555
Li0 O8 2.087351 1_555
Li0 O3 2.373473 1_455
Li1 O12 1.984793 1_555
Li1 O0 2.035167 1_565
Li1 O16 2.059057 1_555
Li1 O5 2.067039 1_555
Li2 O11 1.984793 1_455
Li2 O27 2.035167 1_545
Li2 O7 2.059057 1_555
Li2 O18 2.067039 1_555
Li3 O14 1.978297 1_655
Li3 O23 2.016440 1_555
Li3 O19 2.069770 1_555
Li3 O15 2.087351 1_555
Li3 O21 2.373473 1_555
Li4 O33 1.978297 1_455
Li4 O24 2.016440 1_555
Li4 O28 2.069770 1_555
Li4 O32 2.087351 1_555
Li4 O26 2.373473 1_555
Li5 O36 1.984793 1_655
Li5 O20 2.035167 1_565
Li5 O40 2.059057 1_555
Li5 O29 2.067039 1_555
Li6 O35 1.984793 1_555
Li6 O47 2.035167 1_545
Li6 O31 2.059057 1_555
Li6 O42 2.067039 1_555
Li7 O38 1.978297 1_555
Li7 O45 2.016440 1_555
Li7 O43 2.069770 1_555
Li7 O39 2.087351 1_555
Li7 O44 2.373473 1_655
Cu0 O7 2.087137 1_555
Cu0 O12 2.123786 1_545
Cu0 O42 2.327342 1_554
Cu0 O0 2.390274 1_455
Cu1 O4 2.012703 1_655
Cu1 O15 2.058898 1_555
Cu1 O14 2.122460 1_655
Cu2 O19 2.012703 1_555
Cu2 O8 2.058898 1_555
Cu2 O9 2.122460 1_555
Cu3 O16 2.087137 1_555
Cu3 O11 2.123786 1_565
Cu3 O29 2.327342 1_555
Cu3 O27 2.390274 1_555
Cu4 O31 2.087137 1_555
Cu4 O36 2.123786 1_545
Cu4 O18 2.327342 1_555
Cu4 O20 2.390274 1_555
Cu5 O28 2.012703 1_555
Cu5 O39 2.058898 1_555
Cu5 O38 2.122460 1_555
Cu6 O43 2.012703 1_455
Cu6 O32 2.058898 1_555
Cu6 O33 2.122460 1_455
Cu7 O40 2.087137 1_555
Cu7 O35 2.123786 1_565
Cu7 O5 2.327342 1_556
Cu7 O47 2.390274 1_655
O0 P14 1.506952 1_554
O1 P14 1.592668 1_554
O1 P0 1.604951 1_555
O2 P0 1.494285 1_555
O3 P2 1.620371 1_555
O3 P0 1.631614 1_555
O4 P15 1.509781 1_554
O5 P1 1.511327 1_555
O6 P3 1.602342 1_555
O6 P2 1.622806 1_555
O7 P3 1.507381 1_555
O8 P2 1.497334 1_455
O9 P2 1.491191 1_555
O10 P4 1.617086 1_555
O10 P1 1.634700 1_555
O11 P3 1.505331 1_555
O12 P4 1.505331 1_555
O13 P3 1.617086 1_555
O13 P6 1.634700 1_555
O14 P5 1.491191 1_555
O15 P5 1.497334 1_555
O16 P4 1.507381 1_655
O17 P4 1.602342 1_555
O17 P5 1.622806 1_555
O18 P6 1.511327 1_455
O19 P7 1.509781 1_555
O20 P6 1.506952 1_555
O21 P5 1.620371 1_555
O21 P8 1.631614 1_555
O22 P6 1.592668 1_555
O22 P7 1.604951 1_555
O23 P8 1.494285 1_655
O24 P7 1.494285 1_455
O25 P9 1.592668 1_555
O25 P8 1.604951 1_555
O26 P10 1.620371 1_555
O26 P7 1.631614 1_555
O27 P9 1.506952 1_555
O28 P8 1.509781 1_555
O29 P9 1.511327 1_655
O30 P11 1.602342 1_555
O30 P10 1.622806 1_555
O31 P11 1.507381 1_455
O32 P10 1.497334 1_555
O33 P10 1.491191 1_555
O34 P12 1.617086 1_555
O34 P9 1.634700 1_555
O35 P11 1.505331 1_555
O36 P12 1.505331 1_555
O37 P11 1.617086 1_555
O37 P14 1.634700 1_555
O38 P13 1.491191 1_555
O39 P13 1.497334 1_655
O40 P12 1.507381 1_555
O41 P12 1.602342 1_555
O41 P13 1.622806 1_555
O42 P14 1.511327 1_555
O43 P0 1.509781 1_556
O44 P13 1.620371 1_555
O44 P15 1.631614 1_555
O45 P15 1.494285 1_555
O46 P1 1.592668 1_556
O46 P15 1.604951 1_555
O47 P1 1.506952 1_556
