# generated using pymatgen
data_Li2MnV(PO4)2
_symmetry_space_group_name_H-M   'P 1'
_cell_length_a   4.78581572
_cell_length_b   10.55667696
_cell_length_c   6.14373304
_cell_angle_alpha   89.98757938
_cell_angle_beta   90.00138043
_cell_angle_gamma   90.09778655
_symmetry_Int_Tables_number   1
_chemical_formula_structural   Li2MnV(PO4)2
_chemical_formula_sum   'Li4 Mn2 V2 P4 O16'
_cell_volume   310.39512884
_cell_formula_units_Z   2
loop_
 _symmetry_equiv_pos_site_id
 _symmetry_equiv_pos_as_xyz
  1  'x, y, z'
loop_
 _atom_site_type_symbol
 _atom_site_label
 _atom_site_symmetry_multiplicity
 _atom_site_fract_x
 _atom_site_fract_y
 _atom_site_fract_z
 _atom_site_occupancy
  Li  Li0  1  0.00003800  0.99999100  0.99998300  1
  Li  Li1  1  0.00003900  0.99999200  0.49999600  1
  Li  Li2  1  0.49998100  0.49999500  0.99998800  1
  Li  Li3  1  0.49997300  0.49998900  0.49999500  1
  Mn  Mn0  1  0.02329800  0.72241900  0.74992500  1
  Mn  Mn1  1  0.97650200  0.27759700  0.25008200  1
  V  V0  1  0.47954500  0.22296700  0.74993900  1
  V  V1  1  0.52051700  0.77704200  0.25008700  1
  P  P0  1  0.41120300  0.08959200  0.24996800  1
  P  P1  1  0.58884700  0.91040600  0.75005200  1
  P  P2  1  0.91113400  0.40686400  0.75002700  1
  P  P3  1  0.08886700  0.59316200  0.24995100  1
  O  O0  1  0.71043900  0.04715700  0.74996700  1
  O  O1  1  0.28956600  0.95284500  0.25002900  1
  O  O2  1  0.73207900  0.09513000  0.25001100  1
  O  O3  1  0.26791300  0.90487800  0.74996100  1
  O  O4  1  0.23240200  0.40243200  0.74998100  1
  O  O5  1  0.76761300  0.59754900  0.25001300  1
  O  O6  1  0.20765200  0.45627000  0.25001600  1
  O  O7  1  0.79236300  0.54373700  0.74996400  1
  O  O8  1  0.27738100  0.15884900  0.04845100  1
  O  O9  1  0.27741300  0.15885500  0.45146800  1
  O  O10  1  0.72258700  0.84113000  0.54854700  1
  O  O11  1  0.72257900  0.84114000  0.95155600  1
  O  O12  1  0.77598400  0.33765000  0.54859800  1
  O  O13  1  0.77602700  0.33763500  0.95146100  1
  O  O14  1  0.22403700  0.66237200  0.04855700  1
  O  O15  1  0.22402400  0.66235600  0.45142700  1
loop_
_geom_bond_atom_site_label_1
_geom_bond_atom_site_label_2
_geom_bond_distance
_geom_bond_site_symmetry_2
Li0 O1 2.128275 1_556
Li0 O0 2.128413 1_465
Li0 O8 2.157637 1_566
Li0 O11 2.157886 1_455
Li0 O3 2.239723 1_555
Li0 O2 2.240102 1_466
Li1 O1 2.128128 1_555
Li1 O0 2.128418 1_465
Li1 O9 2.157729 1_565
Li1 O10 2.157969 1_455
Li1 O3 2.239144 1_555
Li1 O2 2.239578 1_465
Li2 O6 2.127809 1_556
Li2 O7 2.127996 1_555
Li2 O14 2.186181 1_556
Li2 O13 2.186300 1_555
Li2 O4 2.248552 1_555
Li2 O5 2.248728 1_556
Li3 O6 2.127648 1_555
Li3 O7 2.127887 1_555
Li3 O12 2.185978 1_555
Li3 O15 2.186002 1_555
Li3 O4 2.248150 1_555
Li3 O5 2.248336 1_555
Mn0 O15 2.165801 1_555
Mn0 O14 2.166204 1_556
Mn0 O7 2.184596 1_455
Mn0 O3 2.252309 1_555
Mn0 O10 2.275463 1_455
Mn0 O11 2.276724 1_455
Mn1 O12 2.165421 1_555
Mn1 O13 2.165558 1_554
Mn1 O6 2.185034 1_655
Mn1 O2 2.251905 1_555
Mn1 O9 2.276277 1_655
Mn1 O8 2.277367 1_655
O0 P1 1.555585 1_545
O0 V0 2.161639 1_555
O1 P0 1.555626 1_565
O1 V1 2.161715 1_555
O2 P0 1.536666 1_555
O3 P1 1.536940 1_555
O4 P2 1.538321 1_455
O4 V0 2.235163 1_555
O5 P3 1.538239 1_655
O5 V1 2.235295 1_555
O6 P3 1.553822 1_555
O7 P2 1.553611 1_555
O8 P0 1.574386 1_555
O8 V0 2.180605 1_554
O9 P0 1.574545 1_555
O9 V0 2.180513 1_555
O10 P1 1.574535 1_555
O10 V1 2.180247 1_555
O11 P1 1.574192 1_555
O11 V1 2.180422 1_556
O12 P2 1.575577 1_555
O12 V0 2.236548 1_555
O13 P2 1.575366 1_555
O13 V0 2.237461 1_555
O14 P3 1.575204 1_555
O14 V1 2.237493 1_555
O15 P3 1.575720 1_555
O15 V1 2.236725 1_555
