# generated using pymatgen
data_NaH5(SO4)3
_symmetry_space_group_name_H-M   'P 1'
_cell_length_a   5.98169800
_cell_length_b   9.58901830
_cell_length_c   13.03566611
_cell_angle_alpha   68.97508603
_cell_angle_beta   84.26282891
_cell_angle_gamma   84.48354419
_symmetry_Int_Tables_number   1
_chemical_formula_structural   NaH5(SO4)3
_chemical_formula_sum   'Na2 H10 S6 O24'
_cell_volume   692.96914476
_cell_formula_units_Z   2
loop_
 _symmetry_equiv_pos_site_id
 _symmetry_equiv_pos_as_xyz
  1  'x, y, z'
loop_
 _atom_site_type_symbol
 _atom_site_label
 _atom_site_symmetry_multiplicity
 _atom_site_fract_x
 _atom_site_fract_y
 _atom_site_fract_z
 _atom_site_occupancy
  Na  Na0  1  0.86487600  0.19243400  0.31356900  1
  Na  Na1  1  0.13512400  0.80756600  0.68643100  1
  H  H0  1  0.44675900  0.50030400  0.24187100  1
  H  H1  1  0.55324100  0.49969600  0.75812900  1
  H  H2  1  0.20904800  0.39471500  0.76108000  1
  H  H3  1  0.79095200  0.60528500  0.23892000  1
  H  H4  1  0.82073900  0.10447400  0.83418500  1
  H  H5  1  0.17926100  0.89552600  0.16581500  1
  H  H6  1  0.82252100  0.19018700  0.03317100  1
  H  H7  1  0.17747900  0.80981300  0.96682900  1
  H  H8  1  0.44650000  0.16658400  0.62998600  1
  H  H9  1  0.55350000  0.83341600  0.37001400  1
  S  S0  1  0.13577200  0.74193300  0.07965100  1
  S  S1  1  0.86422800  0.25806700  0.92034900  1
  S  S2  1  0.41629400  0.25608500  0.52153600  1
  S  S3  1  0.58370600  0.74391500  0.47846400  1
  S  S4  1  0.31807600  0.24941100  0.17921800  1
  S  S5  1  0.68192400  0.75058900  0.82078200  1
  O  O0  1  0.90358200  0.69159000  0.09450800  1
  O  O1  1  0.09641800  0.30841000  0.90549200  1
  O  O2  1  0.18736800  0.36260300  0.21886600  1
  O  O3  1  0.81263200  0.63739700  0.78113400  1
  O  O4  1  0.16110000  0.73204400  0.35964700  1
  O  O5  1  0.83890000  0.26795600  0.64035300  1
  O  O6  1  0.47376600  0.59664500  0.24773400  1
  O  O7  1  0.52623400  0.40335500  0.75226600  1
  O  O8  1  0.61001300  0.21946600  0.45472600  1
  O  O9  1  0.38998700  0.78053400  0.54527400  1
  O  O10  1  0.19517300  0.11232300  0.52953600  1
  O  O11  1  0.80482700  0.88767700  0.47046400  1
  O  O12  1  0.80174300  0.90177000  0.56636000  1
  O  O13  1  0.19825700  0.09823000  0.43364000  1
  O  O14  1  0.68355400  0.56453700  0.30443500  1
  O  O15  1  0.31644600  0.43546300  0.69556500  1
  O  O16  1  0.56128600  0.23269000  0.19811400  1
  O  O17  1  0.43871400  0.76731000  0.80188600  1
  O  O18  1  0.20332400  0.10756700  0.21281600  1
  O  O19  1  0.79667600  0.89243300  0.78718400  1
  O  O20  1  0.12600900  0.90613300  0.09463900  1
  O  O21  1  0.87399100  0.09386700  0.90536100  1
  O  O22  1  0.06816100  0.61290700  0.39746100  1
  O  O23  1  0.93183900  0.38709300  0.60253900  1
loop_
_geom_bond_atom_site_label_1
_geom_bond_atom_site_label_2
_geom_bond_distance
_geom_bond_site_symmetry_2
Na0 O8 2.341502 1_555
Na0 O16 2.388873 1_555
Na0 O18 2.530687 1_655
Na0 O13 2.550648 1_655
Na0 O2 2.567393 1_655
Na0 O11 2.935683 1_545
Na1 O9 2.341502 1_555
Na1 O17 2.388873 1_555
Na1 O19 2.530687 1_455
Na1 O12 2.550648 1_455
Na1 O3 2.567393 1_455
Na1 O10 2.935683 1_565
H0 O6 0.983463 1_555
H1 O7 0.983463 1_555
H2 O15 0.996932 1_555
H3 O14 0.996932 1_555
H4 O21 0.978682 1_555
H5 O20 0.978682 1_555
H6 S1 1.385592 1_554
H7 S0 1.385592 1_556
H8 S2 1.385085 1_555
H9 S3 1.385085 1_555
O0 S0 1.485801 1_655
O1 S1 1.485801 1_455
O2 S4 1.488318 1_555
O3 S5 1.488318 1_555
O8 S2 1.471044 1_555
O9 S3 1.471044 1_555
O10 O13 1.302843 1_555
O10 S2 1.969911 1_555
O11 O12 1.302843 1_555
O11 S3 1.969911 1_555
O16 S4 1.483681 1_555
O17 S5 1.483681 1_555
O18 S4 1.484898 1_555
O19 S5 1.484898 1_555
O20 S0 1.649686 1_555
O21 S1 1.649686 1_555
O22 O4 1.233038 1_555
O23 O5 1.233038 1_555
