# generated using pymatgen
data_LiNiPO4
_symmetry_space_group_name_H-M   'P 1'
_cell_length_a   4.85518100
_cell_length_b   6.22417200
_cell_length_c   9.51371900
_cell_angle_alpha   90.00000000
_cell_angle_beta   90.00000000
_cell_angle_gamma   90.00000000
_symmetry_Int_Tables_number   1
_chemical_formula_structural   LiNiPO4
_chemical_formula_sum   'Li4 Ni4 P4 O16'
_cell_volume   287.49965660
_cell_formula_units_Z   4
loop_
 _symmetry_equiv_pos_site_id
 _symmetry_equiv_pos_as_xyz
  1  'x, y, z'
loop_
 _atom_site_type_symbol
 _atom_site_label
 _atom_site_symmetry_multiplicity
 _atom_site_fract_x
 _atom_site_fract_y
 _atom_site_fract_z
 _atom_site_occupancy
  Li  Li0  1  0.50000000  0.50000000  0.00000000  1
  Li  Li1  1  0.50000000  0.00000000  0.00000000  1
  Li  Li2  1  0.00000000  0.50000000  0.50000000  1
  Li  Li3  1  0.00000000  0.00000000  0.50000000  1
  Ni  Ni0  1  0.96388200  0.25000000  0.14735400  1
  Ni  Ni1  1  0.46388200  0.75000000  0.35264600  1
  Ni  Ni2  1  0.53611800  0.25000000  0.64735400  1
  Ni  Ni3  1  0.03611800  0.75000000  0.85264600  1
  P  P0  1  0.96414700  0.75000000  0.18304500  1
  P  P1  1  0.46414700  0.25000000  0.31695500  1
  P  P2  1  0.53585300  0.75000000  0.68304500  1
  P  P3  1  0.03585300  0.25000000  0.81695500  1
  O  O0  1  0.28063500  0.75000000  0.16286400  1
  O  O1  1  0.83981700  0.55027400  0.11072900  1
  O  O2  1  0.83981700  0.94972600  0.11072900  1
  O  O3  1  0.38258300  0.25000000  0.15752100  1
  O  O4  1  0.88258300  0.75000000  0.34247900  1
  O  O5  1  0.33981700  0.44972600  0.38927100  1
  O  O6  1  0.33981700  0.05027400  0.38927100  1
  O  O7  1  0.78063500  0.25000000  0.33713600  1
  O  O8  1  0.21936500  0.75000000  0.66286400  1
  O  O9  1  0.66018300  0.55027400  0.61072900  1
  O  O10  1  0.66018300  0.94972600  0.61072900  1
  O  O11  1  0.11741700  0.25000000  0.65752100  1
  O  O12  1  0.61741700  0.75000000  0.84247900  1
  O  O13  1  0.16018300  0.05027400  0.88927100  1
  O  O14  1  0.16018300  0.44972600  0.88927100  1
  O  O15  1  0.71936500  0.25000000  0.83713600  1
loop_
_geom_bond_atom_site_label_1
_geom_bond_atom_site_label_2
_geom_bond_distance
_geom_bond_site_symmetry_2
Li0 O14 1.982358 1_554
Li0 O1 1.982358 1_555
Li0 O3 2.234300 1_555
Li0 O12 2.234300 1_554
Li0 O0 2.440571 1_555
Li0 O15 2.440571 1_554
Li1 O13 1.982358 1_554
Li1 O2 1.982358 1_545
Li1 O3 2.234300 1_555
Li1 O12 2.234300 1_544
Li1 O0 2.440571 1_545
Li1 O15 2.440571 1_554
Li2 O5 1.982358 1_555
Li2 O9 1.982358 1_455
Li2 O11 2.234300 1_555
Li2 O4 2.234300 1_455
Li2 O8 2.440571 1_555
Li2 O7 2.440571 1_455
Li3 O6 1.982358 1_555
Li3 O10 1.982358 1_445
Li3 O11 2.234300 1_555
Li3 O4 2.234300 1_445
Li3 O8 2.440571 1_545
Li3 O7 2.440571 1_455
Ni0 O1 1.994303 1_555
Ni0 O2 1.994303 1_545
Ni0 O7 2.012836 1_555
Ni0 O3 2.035169 1_655
Ni1 O6 1.994303 1_565
Ni1 O5 1.994303 1_555
Ni1 O0 2.012836 1_555
Ni1 O4 2.035169 1_555
Ni2 O9 1.994303 1_555
Ni2 O10 1.994303 1_545
Ni2 O15 2.012836 1_555
Ni2 O11 2.035169 1_555
Ni3 O13 1.994303 1_565
Ni3 O14 1.994303 1_555
Ni3 O8 2.012836 1_555
Ni3 O12 2.035169 1_455
O0 P0 1.548555 1_455
O1 P0 1.543727 1_555
O2 P0 1.543727 1_555
O3 P1 1.567653 1_555
O4 P0 1.567653 1_555
O5 P1 1.543727 1_555
O6 P1 1.543727 1_555
O7 P1 1.548555 1_555
O8 P2 1.548555 1_555
O9 P2 1.543727 1_555
O10 P2 1.543727 1_555
O11 P3 1.567653 1_555
O12 P2 1.567653 1_555
O13 P3 1.543727 1_555
O14 P3 1.543727 1_555
O15 P3 1.548555 1_655
