# generated using pymatgen
data_CuBi(PO4)2
_symmetry_space_group_name_H-M   'P 1'
_cell_length_a   6.28685800
_cell_length_b   5.40014300
_cell_length_c   10.35581379
_cell_angle_alpha   83.72204272
_cell_angle_beta   90.00000000
_cell_angle_gamma   90.00000000
_symmetry_Int_Tables_number   1
_chemical_formula_structural   CuBi(PO4)2
_chemical_formula_sum   'Cu2 Bi2 P4 O16'
_cell_volume   349.47079075
_cell_formula_units_Z   2
loop_
 _symmetry_equiv_pos_site_id
 _symmetry_equiv_pos_as_xyz
  1  'x, y, z'
loop_
 _atom_site_type_symbol
 _atom_site_label
 _atom_site_symmetry_multiplicity
 _atom_site_fract_x
 _atom_site_fract_y
 _atom_site_fract_z
 _atom_site_occupancy
  Cu  Cu0  1  0.25000000  0.84299600  0.68399900  1
  Cu  Cu1  1  0.75000000  0.15700400  0.31600100  1
  Bi  Bi0  1  0.75000000  0.44459600  0.78688900  1
  Bi  Bi1  1  0.25000000  0.55540400  0.21311100  1
  P  P0  1  0.25000000  0.36342700  0.88811500  1
  P  P1  1  0.75000000  0.94500900  0.59519400  1
  P  P2  1  0.25000000  0.05499100  0.40480600  1
  P  P3  1  0.75000000  0.63657300  0.11188500  1
  O  O0  1  0.75000000  0.67499400  0.96243800  1
  O  O1  1  0.25000000  0.65235200  0.84813200  1
  O  O2  1  0.05524600  0.23632700  0.83004800  1
  O  O3  1  0.44475400  0.23632700  0.83004800  1
  O  O4  1  0.55884500  0.79559000  0.66913500  1
  O  O5  1  0.94115500  0.79559000  0.66913500  1
  O  O6  1  0.75000000  0.22453500  0.60389100  1
  O  O7  1  0.25000000  0.10482300  0.54971600  1
  O  O8  1  0.75000000  0.89517700  0.45028400  1
  O  O9  1  0.25000000  0.77546500  0.39610900  1
  O  O10  1  0.05884500  0.20441000  0.33086500  1
  O  O11  1  0.44115500  0.20441000  0.33086500  1
  O  O12  1  0.55524600  0.76367300  0.16995200  1
  O  O13  1  0.94475400  0.76367300  0.16995200  1
  O  O14  1  0.75000000  0.34764800  0.15186800  1
  O  O15  1  0.25000000  0.32500600  0.03756200  1
loop_
_geom_bond_atom_site_label_1
_geom_bond_atom_site_label_2
_geom_bond_distance
_geom_bond_site_symmetry_2
Cu0 O7 1.871605 1_565
Cu0 O1 1.888454 1_555
Cu0 O5 1.966700 1_455
Cu0 O4 1.966700 1_555
Cu1 O8 1.871605 1_545
Cu1 O14 1.888454 1_555
Cu1 O11 1.966700 1_555
Cu1 O10 1.966700 1_655
Bi0 O2 2.244425 1_655
Bi0 O3 2.244425 1_555
Bi0 O0 2.312492 1_555
Bi0 O6 2.344379 1_555
Bi0 O4 2.453238 1_555
Bi0 O5 2.453238 1_555
Bi1 O12 2.244425 1_555
Bi1 O13 2.244425 1_455
Bi1 O15 2.312492 1_555
Bi1 O9 2.344379 1_555
Bi1 O10 2.453238 1_555
Bi1 O11 2.453238 1_555
O0 P3 1.538839 1_556
O1 P0 1.569870 1_555
O2 P0 1.556305 1_555
O3 P0 1.556305 1_555
O4 P1 1.595776 1_555
O5 P1 1.595776 1_555
O6 P1 1.521964 1_545
O7 P2 1.553292 1_555
O8 P1 1.553292 1_555
O9 P2 1.521964 1_565
O10 P2 1.595776 1_555
O11 P2 1.595776 1_555
O12 P3 1.556305 1_555
O13 P3 1.556305 1_555
O14 P3 1.569870 1_555
O15 P0 1.538839 1_554
