# generated using pymatgen
data_LiFePO4
_symmetry_space_group_name_H-M   'P 1'
_cell_length_a   10.93028100
_cell_length_b   5.77552100
_cell_length_c   9.94085884
_cell_angle_alpha   88.65623972
_cell_angle_beta   90.00000000
_cell_angle_gamma   90.00000000
_symmetry_Int_Tables_number   1
_chemical_formula_structural   LiFePO4
_chemical_formula_sum   'Li8 Fe8 P8 O32'
_cell_volume   627.37462534
_cell_formula_units_Z   8
loop_
 _symmetry_equiv_pos_site_id
 _symmetry_equiv_pos_as_xyz
  1  'x, y, z'
loop_
 _atom_site_type_symbol
 _atom_site_label
 _atom_site_symmetry_multiplicity
 _atom_site_fract_x
 _atom_site_fract_y
 _atom_site_fract_z
 _atom_site_occupancy
  Li  Li0  1  0.85482800  0.88015300  0.88707400  1
  Li  Li1  1  0.64517200  0.88015300  0.38707400  1
  Li  Li2  1  0.34113000  0.61117300  0.64119000  1
  Li  Li3  1  0.15887000  0.61117300  0.14119000  1
  Li  Li4  1  0.84113000  0.38882700  0.85881000  1
  Li  Li5  1  0.65887000  0.38882700  0.35881000  1
  Li  Li6  1  0.35482800  0.11984700  0.61292600  1
  Li  Li7  1  0.14517200  0.11984700  0.11292600  1
  Fe  Fe0  1  0.09643600  0.88116800  0.73105200  1
  Fe  Fe1  1  0.40356400  0.88116800  0.23105200  1
  Fe  Fe2  1  0.62538300  0.65756000  0.98645100  1
  Fe  Fe3  1  0.87461700  0.65756000  0.48645100  1
  Fe  Fe4  1  0.12538300  0.34244000  0.51354900  1
  Fe  Fe5  1  0.37461700  0.34244000  0.01354900  1
  Fe  Fe6  1  0.59643600  0.11883200  0.76894800  1
  Fe  Fe7  1  0.90356400  0.11883200  0.26894800  1
  P  P0  1  0.35536900  0.86873900  0.90895100  1
  P  P1  1  0.14463100  0.86873900  0.40895100  1
  P  P2  1  0.60605700  0.62547600  0.65859900  1
  P  P3  1  0.89394300  0.62547600  0.15859900  1
  P  P4  1  0.10605700  0.37452400  0.84140100  1
  P  P5  1  0.39394300  0.37452400  0.34140100  1
  P  P6  1  0.85536900  0.13126100  0.59104900  1
  P  P7  1  0.64463100  0.13126100  0.09104900  1
  O  O0  1  0.21242800  0.91327800  0.54411800  1
  O  O1  1  0.93054300  0.90576300  0.62365600  1
  O  O2  1  0.28757200  0.91327800  0.04411800  1
  O  O3  1  0.56945700  0.90576300  0.12365600  1
  O  O4  1  0.27110500  0.82500800  0.79003400  1
  O  O5  1  0.52285800  0.84470500  0.64951900  1
  O  O6  1  0.22889500  0.82500800  0.29003400  1
  O  O7  1  0.97714200  0.84470500  0.14951900  1
  O  O8  1  0.43987300  0.65568900  0.92779700  1
  O  O9  1  0.68994800  0.63747400  0.78739500  1
  O  O10  1  0.06012700  0.65568900  0.42779700  1
  O  O11  1  0.68639000  0.61618200  0.52900500  1
  O  O12  1  0.02283200  0.59342100  0.83149200  1
  O  O13  1  0.81005200  0.63747400  0.28739500  1
  O  O14  1  0.81361000  0.61618200  0.02900500  1
  O  O15  1  0.47716800  0.59342100  0.33149200  1
  O  O16  1  0.52283200  0.40657900  0.66850800  1
  O  O17  1  0.18639000  0.38381800  0.97099500  1
  O  O18  1  0.18994800  0.36252600  0.71260500  1
  O  O19  1  0.97716800  0.40657900  0.16850800  1
  O  O20  1  0.31361000  0.38381800  0.47099500  1
  O  O21  1  0.93987300  0.34431100  0.57220300  1
  O  O22  1  0.31005200  0.36252600  0.21260500  1
  O  O23  1  0.56012700  0.34431100  0.07220300  1
  O  O24  1  0.02285800  0.15529500  0.85048100  1
  O  O25  1  0.77110500  0.17499200  0.70996600  1
  O  O26  1  0.47714200  0.15529500  0.35048100  1
  O  O27  1  0.72889500  0.17499200  0.20996600  1
  O  O28  1  0.43054300  0.09423700  0.87634400  1
  O  O29  1  0.71242800  0.08672200  0.95588200  1
  O  O30  1  0.06945700  0.09423700  0.37634400  1
  O  O31  1  0.78757200  0.08672200  0.45588200  1
loop_
_geom_bond_atom_site_label_1
_geom_bond_atom_site_label_2
_geom_bond_distance
_geom_bond_site_symmetry_2
Li0 O29 2.086169 1_565
Li0 O14 2.101686 1_556
Li0 O24 2.450219 1_665
Li0 O9 2.501871 1_555
Li0 O12 2.542193 1_655
Li0 O25 2.587711 1_565
Li1 O31 2.086169 1_565
Li1 O11 2.101686 1_555
Li1 O26 2.450219 1_565
Li1 O13 2.501871 1_555
Li1 O15 2.542193 1_555
Li1 O27 2.587711 1_565
Li2 O4 2.094303 1_555
Li2 O20 2.186634 1_555
Li2 O18 2.291090 1_555
Li2 O16 2.323655 1_555
Li2 O5 2.403500 1_555
Li2 O0 2.423950 1_555
Li3 O6 2.094303 1_555
Li3 O17 2.186634 1_554
Li3 O22 2.291090 1_555
Li3 O19 2.323655 1_455
Li3 O7 2.403500 1_455
Li3 O2 2.423950 1_555
Li4 O25 2.094303 1_555
Li4 O14 2.186634 1_556
Li4 O9 2.291090 1_555
Li4 O12 2.323655 1_655
Li4 O24 2.403500 1_655
Li4 O29 2.423950 1_555
Li5 O27 2.094303 1_555
Li5 O11 2.186634 1_555
Li5 O13 2.291090 1_555
Li5 O15 2.323655 1_555
Li5 O26 2.403500 1_555
Li5 O31 2.423950 1_555
Li6 O0 2.086169 1_545
Li6 O20 2.101686 1_555
Li6 O5 2.450219 1_545
Li6 O18 2.501871 1_555
Li6 O16 2.542193 1_555
Li6 O4 2.587711 1_545
Li7 O2 2.086169 1_545
Li7 O17 2.101686 1_554
Li7 O7 2.450219 1_445
Li7 O22 2.501871 1_555
Li7 O19 2.542193 1_455
Li7 O6 2.587711 1_545
Fe0 O4 2.021149 1_555
Fe0 O12 2.080435 1_555
Fe0 O1 2.107310 1_455
Fe0 O24 2.156630 1_565
Fe0 O0 2.253626 1_555
Fe1 O6 2.021149 1_555
Fe1 O15 2.080435 1_555
Fe1 O3 2.107310 1_555
Fe1 O26 2.156630 1_565
Fe1 O2 2.253626 1_555
Fe2 O3 2.092993 1_556
Fe2 O23 2.106229 1_556
Fe2 O9 2.106622 1_555
Fe2 O8 2.109942 1_555
Fe2 O14 2.112843 1_556
Fe2 O29 2.665681 1_565
Fe3 O1 2.092993 1_555
Fe3 O21 2.106229 1_555
Fe3 O13 2.106622 1_555
Fe3 O10 2.109942 1_655
Fe3 O11 2.112843 1_555
Fe3 O31 2.665681 1_565
Fe4 O30 2.092993 1_555
Fe4 O10 2.106229 1_555
Fe4 O18 2.106622 1_555
Fe4 O21 2.109942 1_455
Fe4 O20 2.112843 1_555
Fe4 O0 2.665681 1_545
Fe5 O28 2.092993 1_554
Fe5 O8 2.106229 1_554
Fe5 O22 2.106622 1_555
Fe5 O23 2.109942 1_555
Fe5 O17 2.112843 1_554
Fe5 O2 2.665681 1_545
Fe6 O25 2.021149 1_555
Fe6 O16 2.080435 1_555
Fe6 O28 2.107310 1_555
Fe6 O5 2.156630 1_545
Fe6 O29 2.253626 1_555
Fe7 O27 2.021149 1_555
Fe7 O19 2.080435 1_555
Fe7 O30 2.107310 1_655
Fe7 O7 2.156630 1_545
Fe7 O31 2.253626 1_555
O0 P1 1.561085 1_555
O1 P6 1.567347 1_565
O2 P0 1.561085 1_554
O3 P7 1.567347 1_565
O4 P0 1.524315 1_555
O5 P2 1.559788 1_555
O6 P1 1.524315 1_555
O7 P3 1.559788 1_555
O8 P0 1.546444 1_555
O9 P2 1.577670 1_555
O10 P1 1.546444 1_555
O11 P2 1.561016 1_555
O12 P4 1.558743 1_555
O13 P3 1.577670 1_555
O14 P3 1.561016 1_555
O15 P5 1.558743 1_555
O16 P2 1.558743 1_555
O17 P4 1.561016 1_555
O18 P4 1.577670 1_555
O19 P3 1.558743 1_555
O20 P5 1.561016 1_555
O21 P6 1.546444 1_555
O22 P5 1.577670 1_555
O23 P7 1.546444 1_555
O24 P4 1.559788 1_555
O25 P6 1.524315 1_555
O26 P5 1.559788 1_555
O27 P7 1.524315 1_555
O28 P0 1.567347 1_545
O29 P7 1.561085 1_556
O30 P1 1.567347 1_545
O31 P6 1.561085 1_555
