# generated using pymatgen
data_Li4MnFe3O8
_symmetry_space_group_name_H-M   'P 1'
_cell_length_a   5.09372600
_cell_length_b   5.53105175
_cell_length_c   6.65194023
_cell_angle_alpha   90.24103074
_cell_angle_beta   90.18082127
_cell_angle_gamma   92.02782136
_symmetry_Int_Tables_number   1
_chemical_formula_structural   Li4MnFe3O8
_chemical_formula_sum   'Li4 Mn1 Fe3 O8'
_cell_volume   187.28947230
_cell_formula_units_Z   1
loop_
 _symmetry_equiv_pos_site_id
 _symmetry_equiv_pos_as_xyz
  1  'x, y, z'
loop_
 _atom_site_type_symbol
 _atom_site_label
 _atom_site_symmetry_multiplicity
 _atom_site_fract_x
 _atom_site_fract_y
 _atom_site_fract_z
 _atom_site_occupancy
  Li  Li0  1  0.99750100  0.91713200  0.37811900  1
  Li  Li1  1  0.49357300  0.58315000  0.87597400  1
  Li  Li2  1  0.99029600  0.41979100  0.12384300  1
  Li  Li3  1  0.49854600  0.08667200  0.62404100  1
  Mn  Mn0  1  0.49895900  0.08354900  0.12778700  1
  Fe  Fe0  1  0.00245200  0.91623700  0.87094200  1
  Fe  Fe1  1  0.49448200  0.58664100  0.37401200  1
  Fe  Fe2  1  0.99552900  0.41678800  0.62433500  1
  O  O0  1  0.37766400  0.94012300  0.87566000  1
  O  O1  1  0.40132700  0.91718200  0.37404900  1
  O  O2  1  0.89083900  0.58298300  0.86282200  1
  O  O3  1  0.87113900  0.56716500  0.38496700  1
  O  O4  1  0.37253600  0.43268400  0.61440000  1
  O  O5  1  0.37502400  0.41615500  0.13930900  1
  O  O6  1  0.89143800  0.08375500  0.63549000  1
  O  O7  1  0.87509400  0.04999600  0.11424900  1
loop_
_geom_bond_atom_site_label_1
_geom_bond_atom_site_label_2
_geom_bond_distance
_geom_bond_site_symmetry_2
Li0 O7 2.011485 1_565
Li0 O3 2.018910 1_555
Li0 O6 2.024852 1_565
Li0 O1 2.057233 1_655
Li1 O4 2.011211 1_555
Li1 O2 2.025763 1_555
Li1 O5 2.065676 1_556
Li1 O0 2.080747 1_555
Li2 O5 1.962891 1_655
Li2 O3 2.019825 1_555
Li2 O2 2.031280 1_554
Li2 O7 2.108464 1_555
Li3 O0 1.954536 1_545
Li3 O1 1.959141 1_545
Li3 O6 2.003131 1_555
Li3 O4 2.041194 1_555
Mn0 O7 1.933764 1_555
Mn0 O1 1.939828 1_545
Mn0 O0 1.942011 1_544
Mn0 O5 1.967248 1_555
Fe0 O7 1.902140 1_466
Fe0 O2 1.910104 1_455
Fe0 O0 1.911268 1_555
Fe0 O6 1.917023 1_465
Fe1 O1 1.904995 1_555
Fe1 O5 1.907326 1_555
Fe1 O4 1.910029 1_555
Fe1 O3 1.926578 1_555
Fe2 O6 1.900515 1_555
Fe2 O3 1.915887 1_555
Fe2 O2 1.916713 1_555
Fe2 O4 1.920630 1_655
