# generated using pymatgen
data_Nb3Tl3O10
_symmetry_space_group_name_H-M   'P 1'
_cell_length_a   17.14630836
_cell_length_b   17.14630836
_cell_length_c   17.14630836
_cell_angle_alpha   154.41627576
_cell_angle_beta   154.41627576
_cell_angle_gamma   36.49483663
_symmetry_Int_Tables_number   1
_chemical_formula_structural   Nb3Tl3O10
_chemical_formula_sum   'Nb12 Tl12 O40'
_cell_volume   938.76914032
_cell_formula_units_Z   4
loop_
 _symmetry_equiv_pos_site_id
 _symmetry_equiv_pos_as_xyz
  1  'x, y, z'
loop_
 _atom_site_type_symbol
 _atom_site_label
 _atom_site_symmetry_multiplicity
 _atom_site_fract_x
 _atom_site_fract_y
 _atom_site_fract_z
 _atom_site_occupancy
  Nb  Nb0  1  0.21061900  0.45874600  0.75187200  1
  Nb  Nb1  1  0.70687400  0.45874600  0.24812800  1
  Nb  Nb2  1  0.87500000  0.12500000  0.25000000  1
  Nb  Nb3  1  0.87500000  0.62500000  0.75000000  1
  Nb  Nb4  1  0.53938100  0.79125400  0.74812800  1
  Nb  Nb5  1  0.04312600  0.79125400  0.25187200  1
  Nb  Nb6  1  0.20874600  0.95687400  0.74812800  1
  Nb  Nb7  1  0.20874600  0.46061900  0.25187200  1
  Nb  Nb8  1  0.87500000  0.12500000  0.75000000  1
  Nb  Nb9  1  0.37500000  0.12500000  0.25000000  1
  Nb  Nb10  1  0.54125400  0.78938100  0.24812800  1
  Nb  Nb11  1  0.54125400  0.29312600  0.75187200  1
  Tl  Tl0  1  0.19504500  0.96066800  0.23437700  1
  Tl  Tl1  1  0.72629100  0.96066800  0.76562300  1
  Tl  Tl2  1  0.37500000  0.62500000  0.25000000  1
  Tl  Tl3  1  0.37500000  0.12500000  0.75000000  1
  Tl  Tl4  1  0.02370900  0.28933200  0.73437700  1
  Tl  Tl5  1  0.55495500  0.28933200  0.26562300  1
  Tl  Tl6  1  0.71066800  0.97629100  0.26562300  1
  Tl  Tl7  1  0.71066800  0.44504500  0.73437700  1
  Tl  Tl8  1  0.37500000  0.62500000  0.75000000  1
  Tl  Tl9  1  0.87500000  0.62500000  0.25000000  1
  Tl  Tl10  1  0.03933200  0.27370900  0.23437700  1
  Tl  Tl11  1  0.03933200  0.80495500  0.76562300  1
  O  O0  1  0.43520800  0.43520800  0.00000000  1
  O  O1  1  0.40813000  0.90813000  0.50000000  1
  O  O2  1  0.72678200  0.22571200  0.11981800  1
  O  O3  1  0.72678200  0.60696400  0.50107100  1
  O  O4  1  0.10589400  0.22571200  0.49892900  1
  O  O5  1  0.10589400  0.60696400  0.88018200  1
  O  O6  1  0.89439900  0.89439900  0.00000000  1
  O  O7  1  0.85560100  0.35560100  0.50000000  1
  O  O8  1  0.64410600  0.02428800  0.00107100  1
  O  O9  1  0.02321800  0.02428800  0.38018200  1
  O  O10  1  0.02321800  0.64303600  0.99892900  1
  O  O11  1  0.64410600  0.64303600  0.61981800  1
  O  O12  1  0.34187000  0.34187000  0.00000000  1
  O  O13  1  0.31479200  0.81479200  0.50000000  1
  O  O14  1  0.77432800  0.77432800  0.00000000  1
  O  O15  1  0.07058600  0.57058600  0.14117200  1
  O  O16  1  0.42941400  0.57058600  0.50000000  1
  O  O17  1  0.07058600  0.92941400  0.50000000  1
  O  O18  1  0.42941400  0.92941400  0.85882800  1
  O  O19  1  0.22567200  0.22567200  0.00000000  1
  O  O20  1  0.18520800  0.68520800  0.50000000  1
  O  O21  1  0.35696400  0.97678200  0.00107100  1
  O  O22  1  0.35696400  0.35589400  0.38018200  1
  O  O23  1  0.97571200  0.97678200  0.61981800  1
  O  O24  1  0.65813000  0.65813000  0.00000000  1
  O  O25  1  0.97571200  0.35589400  0.99892900  1
  O  O26  1  0.64439900  0.14439900  0.50000000  1
  O  O27  1  0.10560100  0.10560100  0.00000000  1
  O  O28  1  0.77428800  0.89410600  0.50107100  1
  O  O29  1  0.39303600  0.89410600  0.11981800  1
  O  O30  1  0.09187000  0.59187000  0.50000000  1
  O  O31  1  0.77428800  0.27321800  0.88018200  1
  O  O32  1  0.39303600  0.27321800  0.49892900  1
  O  O33  1  0.56479200  0.56479200  0.00000000  1
  O  O34  1  0.52432800  0.02432800  0.50000000  1
  O  O35  1  0.67941400  0.67941400  0.35882800  1
  O  O36  1  0.32058600  0.67941400  0.00000000  1
  O  O37  1  0.67941400  0.32058600  0.00000000  1
  O  O38  1  0.32058600  0.32058600  0.64117200  1
  O  O39  1  0.97567200  0.47567200  0.50000000  1
loop_
_geom_bond_atom_site_label_1
_geom_bond_atom_site_label_2
_geom_bond_distance
_geom_bond_site_symmetry_2
Nb0 O38 1.983183 1_555
Nb0 O36 1.983188 1_556
Nb0 O39 1.990258 1_455
Nb0 O0 2.033963 1_556
Nb0 O4 2.055806 1_555
Nb0 O5 2.055818 1_555
Nb1 O35 1.983197 1_555
Nb1 O37 1.983197 1_555
Nb1 O39 1.990259 1_555
Nb1 O0 2.033961 1_555
Nb1 O2 2.055804 1_555
Nb1 O3 2.055818 1_555
Nb2 O6 2.000563 1_545
Nb2 O7 2.000563 1_555
Nb2 O9 2.021681 1_655
Nb2 O2 2.021681 1_555
Nb2 O8 2.021688 1_555
Nb2 O4 2.021688 1_655
Nb3 O6 2.000563 1_556
Nb3 O7 2.000563 1_555
Nb3 O3 2.021666 1_555
Nb3 O10 2.021666 1_655
Nb3 O11 2.021681 1_555
Nb3 O5 2.021681 1_655
Nb4 O18 1.983183 1_555
Nb4 O16 1.983188 1_555
Nb4 O14 1.990258 1_556
Nb4 O13 2.033963 1_555
Nb4 O8 2.055806 1_566
Nb4 O11 2.055818 1_555
Nb5 O17 1.983197 1_555
Nb5 O15 1.983197 1_555
Nb5 O14 1.990259 1_455
Nb5 O13 2.033961 1_555
Nb5 O9 2.055804 1_565
Nb5 O10 2.055818 1_554
Nb6 O18 1.983197 1_555
Nb6 O17 1.983197 1_555
Nb6 O19 1.990259 1_566
Nb6 O20 2.033961 1_555
Nb6 O23 2.055804 1_455
Nb6 O21 2.055818 1_556
Nb7 O15 1.983183 1_555
Nb7 O16 1.983188 1_555
Nb7 O19 1.990258 1_555
Nb7 O20 2.033963 1_555
Nb7 O25 2.055806 1_454
Nb7 O22 2.055818 1_555
Nb8 O26 2.000563 1_555
Nb8 O27 2.000563 1_656
Nb8 O23 2.021681 1_545
Nb8 O31 2.021681 1_555
Nb8 O25 2.021688 1_555
Nb8 O28 2.021688 1_545
Nb9 O26 2.000563 1_555
Nb9 O27 2.000563 1_555
Nb9 O21 2.021666 1_545
Nb9 O32 2.021666 1_555
Nb9 O29 2.021681 1_545
Nb9 O22 2.021681 1_555
Nb10 O35 1.983183 1_555
Nb10 O36 1.983188 1_555
Nb10 O34 1.990258 1_565
Nb10 O33 2.033963 1_555
Nb10 O28 2.055806 1_555
Nb10 O29 2.055818 1_555
Nb11 O38 1.983197 1_555
Nb11 O37 1.983197 1_556
Nb11 O34 1.990259 1_555
Nb11 O33 2.033961 1_556
Nb11 O31 2.055804 1_555
Nb11 O32 2.055818 1_555
O0 Tl2 2.729117 1_555
O0 Tl3 2.729117 1_554
O1 Tl3 2.183415 1_565
O1 Tl2 2.183415 1_555
O1 Tl0 2.644852 1_555
O1 Tl1 2.644852 1_555
O2 Tl3 2.751683 1_554
O3 Tl2 2.751678 1_555
O4 Tl3 2.751694 1_555
O5 Tl2 2.751683 1_556
O8 Tl3 2.751694 1_554
O9 Tl3 2.751683 1_555
O10 Tl2 2.751678 1_556
O11 Tl2 2.751683 1_555
O12 Tl3 2.183415 1_554
O12 Tl2 2.183415 1_555
O12 Tl5 2.644852 1_555
O12 Tl4 2.644852 1_554
O13 Tl3 2.729117 1_565
O13 Tl2 2.729117 1_555
O20 Tl9 2.729117 1_455
O20 Tl8 2.729117 1_555
O21 Tl8 2.751678 1_554
O22 Tl8 2.751683 1_555
O23 Tl9 2.751683 1_555
O24 Tl9 2.183415 1_555
O24 Tl8 2.183415 1_554
O24 Tl6 2.644852 1_555
O24 Tl7 2.644852 1_554
O25 Tl9 2.751694 1_556
O28 Tl9 2.751694 1_555
O29 Tl8 2.751683 1_554
O30 Tl8 2.183415 1_555
O30 Tl9 2.183415 1_455
O30 Tl11 2.644852 1_555
O30 Tl10 2.644852 1_555
O31 Tl9 2.751683 1_556
O32 Tl8 2.751678 1_555
O33 Tl8 2.729117 1_554
O33 Tl9 2.729117 1_555
