# generated using pymatgen
data_LiMn2F7
_symmetry_space_group_name_H-M   'P 1'
_cell_length_a   5.70450915
_cell_length_b   5.70450915
_cell_length_c   9.72529248
_cell_angle_alpha   82.32123860
_cell_angle_beta   82.32123860
_cell_angle_gamma   122.35229654
_symmetry_Int_Tables_number   1
_chemical_formula_structural   LiMn2F7
_chemical_formula_sum   'Li2 Mn4 F14'
_cell_volume   256.87673290
_cell_formula_units_Z   2
loop_
 _symmetry_equiv_pos_site_id
 _symmetry_equiv_pos_as_xyz
  1  'x, y, z'
loop_
 _atom_site_type_symbol
 _atom_site_label
 _atom_site_symmetry_multiplicity
 _atom_site_fract_x
 _atom_site_fract_y
 _atom_site_fract_z
 _atom_site_occupancy
  Li  Li0  1  0.89994000  0.41171600  0.16286300  1
  Li  Li1  1  0.41171600  0.89994000  0.66286300  1
  Mn  Mn0  1  0.77653900  0.68088800  0.57639100  1
  Mn  Mn1  1  0.32464600  0.25282800  0.93136100  1
  Mn  Mn2  1  0.68088800  0.77653900  0.07639100  1
  Mn  Mn3  1  0.25282800  0.32464600  0.43136100  1
  F  F0  1  0.06499400  0.89427100  0.40542500  1
  F  F1  1  0.49376200  0.55906700  0.75742900  1
  F  F2  1  0.72675200  0.51459300  0.99397000  1
  F  F3  1  0.11747000  0.94287700  0.09670900  1
  F  F4  1  0.63336400  0.01335200  0.16743200  1
  F  F5  1  0.01335200  0.63336400  0.66743200  1
  F  F6  1  0.51459300  0.72675200  0.49397000  1
  F  F7  1  0.48947200  0.26054700  0.53378700  1
  F  F8  1  0.04770400  0.41340500  0.33282300  1
  F  F9  1  0.41340500  0.04770400  0.83282300  1
  F  F10  1  0.89427100  0.06499400  0.90542500  1
  F  F11  1  0.26054700  0.48947200  0.03378700  1
  F  F12  1  0.55906700  0.49376200  0.25742900  1
  F  F13  1  0.94287700  0.11747000  0.59670900  1
loop_
_geom_bond_atom_site_label_1
_geom_bond_atom_site_label_2
_geom_bond_distance
_geom_bond_site_symmetry_2
F0 Mn0 1.881011 1_455
F0 Mn3 2.159039 1_565
F1 Mn1 1.953026 1_555
F1 Mn0 1.974643 1_555
F1 Li1 2.336054 1_555
F2 Mn2 1.904277 1_556
F2 Mn1 2.193742 1_555
F2 Li0 2.194300 1_556
F3 Mn1 1.898609 1_564
F3 Mn2 2.189607 1_455
F3 Li0 2.525145 1_455
F4 Mn2 1.824779 1_545
F4 Li0 1.932634 1_555
F5 Mn0 1.824779 1_455
F5 Li1 1.932634 1_555
F6 Mn0 1.904277 1_555
F6 Mn3 2.193742 1_555
F6 Li1 2.194300 1_555
F7 Mn3 1.933545 1_555
F7 Li1 2.046636 1_545
F7 Mn0 2.201661 1_555
F8 Mn3 1.829760 1_555
F8 Li0 1.952081 1_455
F9 Mn1 1.829760 1_555
F9 Li1 1.952081 1_545
F10 Mn2 1.881011 1_546
F10 Mn1 2.159039 1_655
F11 Mn1 1.933545 1_554
F11 Li0 2.046636 1_455
F11 Mn2 2.201661 1_555
F12 Mn3 1.953026 1_555
F12 Mn2 1.974643 1_555
F12 Li0 2.336054 1_555
F13 Mn3 1.898609 1_655
F13 Mn0 2.189607 1_545
F13 Li1 2.525145 1_545
