# generated using pymatgen
data_Li2Fe3F8
_symmetry_space_group_name_H-M   'P 1'
_cell_length_a   5.34810700
_cell_length_b   5.69076153
_cell_length_c   5.92736129
_cell_angle_alpha   106.62528809
_cell_angle_beta   89.84855757
_cell_angle_gamma   117.33187369
_symmetry_Int_Tables_number   1
_chemical_formula_structural   Li2Fe3F8
_chemical_formula_sum   'Li2 Fe3 F8'
_cell_volume   151.79344624
_cell_formula_units_Z   1
loop_
 _symmetry_equiv_pos_site_id
 _symmetry_equiv_pos_as_xyz
  1  'x, y, z'
loop_
 _atom_site_type_symbol
 _atom_site_label
 _atom_site_symmetry_multiplicity
 _atom_site_fract_x
 _atom_site_fract_y
 _atom_site_fract_z
 _atom_site_occupancy
  Li  Li0  1  0.44709800  0.91033300  0.24372500  1
  Li  Li1  1  0.55290200  0.08966700  0.75627500  1
  Fe  Fe0  1  0.00000000  0.00000000  0.00000000  1
  Fe  Fe1  1  0.23510500  0.46983200  0.63989500  1
  Fe  Fe2  1  0.76489500  0.53016800  0.36010500  1
  F  F0  1  0.21820700  0.76599100  0.93851600  1
  F  F1  1  0.21516700  0.72895900  0.45713100  1
  F  F2  1  0.31453100  0.23591500  0.31696900  1
  F  F3  1  0.28176200  0.23426900  0.81482300  1
  F  F4  1  0.71823800  0.76573100  0.18517700  1
  F  F5  1  0.68546900  0.76408500  0.68303100  1
  F  F6  1  0.78483300  0.27104100  0.54286900  1
  F  F7  1  0.78179300  0.23400900  0.06148400  1
loop_
_geom_bond_atom_site_label_1
_geom_bond_atom_site_label_2
_geom_bond_distance
_geom_bond_site_symmetry_2
F0 Li0 1.919383 1_556
F0 Fe1 2.100868 1_555
F0 Fe0 2.101242 1_566
F0 Li1 2.421649 1_565
F1 Li0 1.940907 1_555
F1 Fe1 2.102041 1_555
F1 Fe2 2.131408 1_455
F1 Li1 2.269272 1_565
F2 Fe0 2.159034 1_555
F2 Fe1 2.161747 1_555
F2 Fe2 2.173778 1_555
F2 Li0 2.206444 1_545
F3 Li1 1.957047 1_555
F3 Fe1 2.009544 1_555
F3 Fe0 2.058305 1_556
F4 Li0 1.957047 1_555
F4 Fe2 2.009544 1_555
F4 Fe0 2.058305 1_665
F5 Fe0 2.159034 1_666
F5 Fe2 2.161747 1_555
F5 Fe1 2.173778 1_555
F5 Li1 2.206444 1_565
F6 Li1 1.940907 1_555
F6 Fe2 2.102041 1_555
F6 Fe1 2.131408 1_655
F6 Li0 2.269272 1_545
F7 Li1 1.919383 1_554
F7 Fe2 2.100868 1_555
F7 Fe0 2.101242 1_655
F7 Li0 2.421649 1_545
