# generated using pymatgen
data_K3Ca2Mg10Si16(HO12)4
_symmetry_space_group_name_H-M   'P 1'
_cell_length_a   8.20590900
_cell_length_b   8.41229473
_cell_length_c   15.15309320
_cell_angle_alpha   90.69399098
_cell_angle_beta   97.59233872
_cell_angle_gamma   117.88836721
_symmetry_Int_Tables_number   1
_chemical_formula_structural   K3Ca2Mg10Si16(HO12)4
_chemical_formula_sum   'K3 Ca2 Mg10 Si16 H4 O48'
_cell_volume   913.16875151
_cell_formula_units_Z   1
loop_
 _symmetry_equiv_pos_site_id
 _symmetry_equiv_pos_as_xyz
  1  'x, y, z'
loop_
 _atom_site_type_symbol
 _atom_site_label
 _atom_site_symmetry_multiplicity
 _atom_site_fract_x
 _atom_site_fract_y
 _atom_site_fract_z
 _atom_site_occupancy
  K  K0  1  0.54173000  0.76295600  0.39148000  1
  K  K1  1  0.00000000  0.50000000  0.00000000  1
  K  K2  1  0.45827000  0.23704400  0.60852000  1
  Ca  Ca0  1  0.74782200  0.97858500  0.81038800  1
  Ca  Ca1  1  0.25217800  0.02141500  0.18961200  1
  Mg  Mg0  1  0.70650100  0.79168600  0.62872900  1
  Mg  Mg1  1  0.23543100  0.51259600  0.51279900  1
  Mg  Mg2  1  0.13800800  0.96783200  0.71933900  1
  Mg  Mg3  1  0.86199200  0.03216800  0.28066100  1
  Mg  Mg4  1  0.76456900  0.48740400  0.48720100  1
  Mg  Mg5  1  0.29349900  0.20831400  0.37127100  1
  Mg  Mg6  1  0.73969400  0.86269400  0.02634700  1
  Mg  Mg7  1  0.65537500  0.19109100  0.35651200  1
  Mg  Mg8  1  0.34462500  0.80890900  0.64348800  1
  Mg  Mg9  1  0.26030600  0.13730600  0.97365300  1
  Si  Si0  1  0.83684200  0.52482900  0.71028500  1
  Si  Si1  1  0.36351000  0.73646600  0.89663600  1
  Si  Si2  1  0.82684400  0.11749100  0.50058400  1
  Si  Si3  1  0.00810500  0.21075600  0.11684200  1
  Si  Si4  1  0.99189500  0.78924400  0.88315800  1
  Si  Si5  1  0.17315600  0.88250900  0.49941600  1
  Si  Si6  1  0.63649000  0.26353400  0.10336400  1
  Si  Si7  1  0.16315800  0.47517100  0.28971500  1
  Si  Si8  1  0.44266000  0.77293100  0.18260200  1
  Si  Si9  1  0.99910600  0.24814100  0.68350500  1
  Si  Si10  1  0.41367300  0.51367100  0.05295300  1
  Si  Si11  1  0.40884800  0.55894300  0.74808600  1
  Si  Si12  1  0.59115200  0.44105700  0.25191400  1
  Si  Si13  1  0.58632700  0.48632900  0.94704700  1
  Si  Si14  1  0.00089400  0.75185900  0.31649500  1
  Si  Si15  1  0.55734000  0.22706900  0.81739800  1
  H  H0  1  0.62634200  0.69571000  0.74905500  1
  H  H1  1  0.37365800  0.30429000  0.25094500  1
  H  H2  1  0.30853600  0.85177300  0.06981700  1
  H  H3  1  0.69146400  0.14822700  0.93018300  1
  O  O0  1  0.76858300  0.65353300  0.26637200  1
  O  O1  1  0.04619700  0.27617300  0.22483700  1
  O  O2  1  0.73528900  0.15506100  0.68681500  1
  O  O3  1  0.02287100  0.56109600  0.28827800  1
  O  O4  1  0.40039100  0.59644600  0.63416400  1
  O  O5  1  0.39900300  0.05254600  0.75941600  1
  O  O6  1  0.18159100  0.33442500  0.06256500  1
  O  O7  1  0.68323800  0.20561300  0.49568900  1
  O  O8  1  0.42544700  0.10191500  0.06743600  1
  O  O9  1  0.98484200  0.46565800  0.45607100  1
  O  O10  1  0.76263600  0.91213400  0.52326700  1
  O  O11  1  0.29837800  0.58209800  0.96760700  1
  O  O12  1  0.70162200  0.41790200  0.03239300  1
  O  O13  1  0.23736400  0.08786600  0.47673300  1
  O  O14  1  0.01515800  0.53434200  0.54392900  1
  O  O15  1  0.57455300  0.89808500  0.93256400  1
  O  O16  1  0.31676200  0.79438700  0.50431100  1
  O  O17  1  0.81840900  0.66557500  0.93743500  1
  O  O18  1  0.60099700  0.94745400  0.24058400  1
  O  O19  1  0.97712900  0.43890400  0.71172200  1
  O  O20  1  0.26471100  0.84493900  0.31318500  1
  O  O21  1  0.95569200  0.04265400  0.71378600  1
  O  O22  1  0.95380300  0.72382700  0.77516300  1
  O  O23  1  0.59960900  0.40355400  0.36583600  1
  O  O24  1  0.61415500  0.95884800  0.67000800  1
  O  O25  1  0.23141700  0.34646700  0.73362800  1
  O  O26  1  0.26032700  0.77936000  0.12065500  1
  O  O27  1  0.65882400  0.40754300  0.76497700  1
  O  O28  1  0.01761300  0.99063600  0.89993900  1
  O  O29  1  0.67047300  0.29706800  0.21563100  1
  O  O30  1  0.97903400  0.75286500  0.42544600  1
  O  O31  1  0.20028300  0.80683900  0.91584000  1
  O  O32  1  0.74883500  0.56858300  0.61687600  1
  O  O33  1  0.46028800  0.26719600  0.89801600  1
  O  O34  1  0.50575400  0.44140900  0.14013600  1
  O  O35  1  0.85925700  0.12855700  0.39361700  1
  O  O36  1  0.14074300  0.87144300  0.60638300  1
  O  O37  1  0.49424600  0.55859100  0.85986400  1
  O  O38  1  0.53971200  0.73280400  0.10198400  1
  O  O39  1  0.25116500  0.43141700  0.38312400  1
  O  O40  1  0.79971700  0.19316100  0.08416000  1
  O  O41  1  0.02096600  0.24713500  0.57455400  1
  O  O42  1  0.32952700  0.70293200  0.78436900  1
  O  O43  1  0.34117600  0.59245700  0.23502300  1
  O  O44  1  0.73967300  0.22064000  0.87934500  1
  O  O45  1  0.38584500  0.04115200  0.32999200  1
  O  O46  1  0.98238700  0.00936400  0.10006100  1
  O  O47  1  0.04430800  0.95734600  0.28621400  1
loop_
_geom_bond_atom_site_label_1
_geom_bond_atom_site_label_2
_geom_bond_distance
_geom_bond_site_symmetry_2
K0 O10 2.388174 1_555
K0 O39 2.677746 1_555
K0 O16 2.771426 1_555
K0 O20 2.797213 1_555
K1 O11 2.335970 1_554
K1 O12 2.335970 1_455
K1 O6 2.580636 1_555
K1 O17 2.580636 1_454
K1 O26 2.756138 1_555
K1 O44 2.756138 1_454
K1 O31 2.766788 1_554
K1 O40 2.766788 1_455
K2 O13 2.388174 1_555
K2 O32 2.677746 1_555
K2 O7 2.771426 1_555
K2 O2 2.797213 1_555
Ca0 O24 2.227136 1_555
Ca0 H0 2.236643 1_555
Ca0 O21 2.271947 1_565
Ca0 O44 2.310169 1_565
Ca0 O15 2.394340 1_555
Ca0 O28 2.397037 1_655
Ca0 O2 2.424894 1_565
Ca1 O45 2.227136 1_555
Ca1 H1 2.236643 1_555
Ca1 O47 2.271947 1_545
Ca1 O26 2.310169 1_545
Ca1 O8 2.394340 1_555
Ca1 O46 2.397037 1_455
Ca1 O20 2.424894 1_545
Mg0 O10 1.894679 1_555
Mg0 O24 2.010909 1_555
Mg0 O32 2.072100 1_555
Mg0 O4 2.283079 1_555
Mg0 O21 2.344953 1_565
Mg1 O9 1.971892 1_455
Mg1 O14 2.013885 1_555
Mg1 O4 2.032128 1_555
Mg1 O39 2.112150 1_555
Mg1 O16 2.152049 1_555
Mg1 O41 2.401873 1_555
Mg2 O21 1.868267 1_465
Mg2 O36 1.892413 1_555
Mg2 O5 1.918736 1_565
Mg2 O22 2.165893 1_455
Mg3 O47 1.868267 1_645
Mg3 O35 1.892413 1_555
Mg3 O18 1.918736 1_545
Mg3 O1 2.165893 1_655
Mg4 O14 1.971892 1_655
Mg4 O9 2.013885 1_555
Mg4 O23 2.032128 1_555
Mg4 O32 2.112150 1_555
Mg4 O7 2.152049 1_555
Mg4 O30 2.401873 1_555
Mg5 O13 1.894679 1_555
Mg5 O45 2.010909 1_555
Mg5 O39 2.072100 1_555
Mg5 O23 2.283079 1_555
Mg5 O47 2.344953 1_545
Mg6 O46 1.953520 1_565
Mg6 O15 1.955338 1_554
Mg6 O38 2.012570 1_555
Mg6 O17 2.481929 1_554
Mg7 O45 1.946097 1_555
Mg7 O35 1.993453 1_555
Mg7 O23 2.049370 1_555
Mg7 O7 2.086895 1_555
Mg7 O29 2.319505 1_555
Mg7 O18 2.517086 1_545
Mg8 O24 1.946097 1_555
Mg8 O36 1.993453 1_555
Mg8 O4 2.049370 1_555
Mg8 O16 2.086895 1_555
Mg8 O42 2.319505 1_555
Mg8 O5 2.517086 1_565
Mg9 O28 1.953520 1_545
Mg9 O8 1.955338 1_556
Mg9 O33 2.012570 1_555
Mg9 O6 2.481929 1_556
H0 Si11 1.606527 1_555
H0 Mg0 2.065128 1_555
H1 Si12 1.606527 1_555
H1 Mg5 2.065128 1_555
H2 O26 0.993718 1_555
H3 O44 0.993718 1_555
O0 Si12 1.683556 1_555
O0 Si14 1.738442 1_655
O1 Si3 1.661516 1_555
O1 Si7 1.702285 1_555
O2 O24 1.471542 1_545
O2 Si9 1.935484 1_555
O3 Si7 1.618754 1_555
O3 Si14 1.750735 1_555
O4 Si11 1.756809 1_555
O5 Si15 1.580550 1_555
O6 Si3 1.652282 1_555
O6 Si10 1.820433 1_555
O7 Si2 1.655043 1_555
O8 Si6 1.635317 1_555
O10 Si2 1.609605 1_565
O11 Si1 1.632473 1_555
O11 Si10 1.761577 1_556
O12 Si6 1.632473 1_555
O12 Si13 1.761577 1_554
O13 Si5 1.609605 1_545
O14 O9 1.388353 1_455
O15 Si1 1.635317 1_555
O16 Si5 1.655043 1_555
O17 Si4 1.652282 1_555
O17 Si13 1.820433 1_555
O18 Si8 1.580550 1_555
O19 Si0 1.618754 1_555
O19 Si9 1.750735 1_555
O20 O45 1.471542 1_565
O20 Si14 1.935484 1_555
O21 Si9 1.676867 1_555
O22 Si4 1.661516 1_555
O22 Si0 1.702285 1_555
O23 Si12 1.756809 1_555
O25 Si11 1.683556 1_555
O25 Si9 1.738442 1_455
O26 Si8 1.681815 1_555
O27 Si15 1.628086 1_555
O27 Si0 1.669019 1_555
O28 Si4 1.618738 1_455
O29 Si6 1.685474 1_555
O29 Si12 1.734690 1_555
O30 Si14 1.684401 1_655
O30 Si5 1.690151 1_655
O31 Si4 1.651960 1_455
O31 Si1 1.752091 1_555
O32 Si0 1.628389 1_555
O33 Si15 1.655030 1_555
O33 Si13 1.732062 1_555
O34 Si10 1.694442 1_555
O34 Si12 1.745966 1_555
O35 Si2 1.673643 1_555
O36 Si5 1.673643 1_555
O37 Si13 1.694442 1_555
O37 Si11 1.745966 1_555
O38 Si8 1.655030 1_555
O38 Si10 1.732062 1_555
O39 Si7 1.628389 1_555
O40 Si3 1.651960 1_655
O40 Si6 1.752091 1_555
O41 Si9 1.684401 1_455
O41 Si2 1.690151 1_455
O42 Si1 1.685474 1_555
O42 Si11 1.734690 1_555
O43 Si8 1.628086 1_555
O43 Si7 1.669019 1_555
O44 Si15 1.681815 1_555
O46 Si3 1.618738 1_655
O47 Si14 1.676867 1_555
