# generated using pymatgen
data_Li2MnF4
_symmetry_space_group_name_H-M   'P 1'
_cell_length_a   7.34957500
_cell_length_b   9.94308500
_cell_length_c   10.12079550
_cell_angle_alpha   63.17735124
_cell_angle_beta   90.00000000
_cell_angle_gamma   90.00000000
_symmetry_Int_Tables_number   1
_chemical_formula_structural   Li2MnF4
_chemical_formula_sum   'Li16 Mn8 F32'
_cell_volume   660.02631106
_cell_formula_units_Z   8
loop_
 _symmetry_equiv_pos_site_id
 _symmetry_equiv_pos_as_xyz
  1  'x, y, z'
loop_
 _atom_site_type_symbol
 _atom_site_label
 _atom_site_symmetry_multiplicity
 _atom_site_fract_x
 _atom_site_fract_y
 _atom_site_fract_z
 _atom_site_occupancy
  Li  Li0  1  0.98070300  0.34088700  0.07913300  1
  Li  Li1  1  0.63653500  0.12435700  0.43927200  1
  Li  Li2  1  0.59226000  0.35442400  0.05617200  1
  Li  Li3  1  0.00479700  0.15515700  0.41466400  1
  Li  Li4  1  0.51929700  0.34088700  0.57913300  1
  Li  Li5  1  0.86346500  0.12435700  0.93927200  1
  Li  Li6  1  0.90774000  0.35442400  0.55617200  1
  Li  Li7  1  0.49520300  0.15515700  0.91466400  1
  Li  Li8  1  0.50479700  0.84484300  0.08533600  1
  Li  Li9  1  0.09226000  0.64557600  0.44382800  1
  Li  Li10  1  0.13653500  0.87564300  0.06072800  1
  Li  Li11  1  0.48070300  0.65911300  0.42086700  1
  Li  Li12  1  0.99520300  0.84484300  0.58533600  1
  Li  Li13  1  0.40774000  0.64557600  0.94382800  1
  Li  Li14  1  0.36346500  0.87564300  0.56072800  1
  Li  Li15  1  0.01929700  0.65911300  0.92086700  1
  Mn  Mn0  1  0.27948900  0.03836900  0.23286000  1
  Mn  Mn1  1  0.22051100  0.03836900  0.73286000  1
  Mn  Mn2  1  0.22013600  0.48071100  0.24979500  1
  Mn  Mn3  1  0.72013600  0.51928900  0.25020500  1
  Mn  Mn4  1  0.27986400  0.48071100  0.74979500  1
  Mn  Mn5  1  0.77986400  0.51928900  0.75020500  1
  Mn  Mn6  1  0.77948900  0.96163100  0.26714000  1
  Mn  Mn7  1  0.72051100  0.96163100  0.76714000  1
  F  F0  1  0.02576500  0.03707700  0.12130000  1
  F  F1  1  0.16468700  0.99170700  0.43690000  1
  F  F2  1  0.41470200  0.21088900  0.06539800  1
  F  F3  1  0.79133800  0.17792600  0.26168100  1
  F  F4  1  0.47423500  0.03707700  0.62130000  1
  F  F5  1  0.33531300  0.99170700  0.93690000  1
  F  F6  1  0.14220700  0.28605800  0.24365200  1
  F  F7  1  0.08529800  0.21088900  0.56539800  1
  F  F8  1  0.85701500  0.51143000  0.07843800  1
  F  F9  1  0.70866200  0.17792600  0.76168100  1
  F  F10  1  0.69190100  0.31611400  0.44480800  1
  F  F11  1  0.48226200  0.47481000  0.14996400  1
  F  F12  1  0.98226200  0.52519000  0.35003600  1
  F  F13  1  0.35779300  0.28605800  0.74365200  1
  F  F14  1  0.19190100  0.68388600  0.05519200  1
  F  F15  1  0.35701500  0.48857000  0.42156200  1
  F  F16  1  0.64298500  0.51143000  0.57843800  1
  F  F17  1  0.80809900  0.31611400  0.94480800  1
  F  F18  1  0.64220700  0.71394200  0.25634800  1
  F  F19  1  0.01773800  0.47481000  0.64996400  1
  F  F20  1  0.51773800  0.52519000  0.85003600  1
  F  F21  1  0.30809900  0.68388600  0.55519200  1
  F  F22  1  0.29133800  0.82207400  0.23831900  1
  F  F23  1  0.14298500  0.48857000  0.92156200  1
  F  F24  1  0.91470200  0.78911100  0.43460200  1
  F  F25  1  0.85779300  0.71394200  0.75634800  1
  F  F26  1  0.66468700  0.00829300  0.06310000  1
  F  F27  1  0.52576500  0.96292300  0.37870000  1
  F  F28  1  0.20866200  0.82207400  0.73831900  1
  F  F29  1  0.58529800  0.78911100  0.93460200  1
  F  F30  1  0.83531300  0.00829300  0.56310000  1
  F  F31  1  0.97423500  0.96292300  0.87870000  1
loop_
_geom_bond_atom_site_label_1
_geom_bond_atom_site_label_2
_geom_bond_distance
_geom_bond_site_symmetry_2
F0 Li5 2.031528 1_454
F0 Li10 2.122061 1_545
F0 Mn0 2.182982 1_555
F0 Mn6 2.240157 1_445
F1 Li14 1.931714 1_555
F1 Li3 1.934621 1_565
F1 Li12 1.990256 1_455
F1 Mn0 2.080129 1_565
F2 Li2 1.904800 1_555
F2 Li7 1.935806 1_554
F2 Mn0 2.044227 1_555
F3 Li1 1.986125 1_555
F3 Mn6 2.128064 1_545
F3 Li3 2.143226 1_655
F3 Li0 2.296564 1_555
F3 Li2 2.500506 1_555
F4 Li1 2.031528 1_555
F4 Li14 2.122061 1_545
F4 Mn1 2.182982 1_555
F4 Mn7 2.240157 1_545
F5 Li10 1.931714 1_556
F5 Li7 1.934621 1_565
F5 Li8 1.990256 1_556
F5 Mn1 2.080129 1_565
F6 Li0 1.912950 1_455
F6 Li3 1.917440 1_555
F6 Mn2 2.046086 1_555
F7 Li6 1.904800 1_455
F7 Li3 1.935806 1_555
F7 Mn1 2.044227 1_555
F8 Li0 1.921235 1_555
F8 Li15 2.002167 1_654
F8 Mn3 2.040304 1_555
F9 Li5 1.986125 1_555
F9 Mn7 2.128064 1_545
F9 Li7 2.143226 1_555
F9 Li4 2.296564 1_555
F9 Li6 2.500506 1_555
F10 Li4 1.954562 1_555
F10 Li1 1.974960 1_555
F10 Li6 2.078297 1_555
F10 Mn3 2.100608 1_555
F11 Li2 2.003224 1_555
F11 Li13 2.082940 1_554
F11 Mn3 2.164767 1_555
F11 Mn2 2.188435 1_555
F12 Li9 2.003224 1_655
F12 Li6 2.082940 1_555
F12 Mn2 2.164767 1_655
F12 Mn3 2.188435 1_555
F13 Li4 1.912950 1_555
F13 Li7 1.917440 1_555
F13 Mn4 2.046086 1_555
F14 Li15 1.954562 1_554
F14 Li10 1.974960 1_555
F14 Li13 2.078297 1_554
F14 Mn2 2.100608 1_555
F15 Li11 1.921235 1_555
F15 Li4 2.002167 1_555
F15 Mn2 2.040304 1_555
F16 Li4 1.921235 1_555
F16 Li11 2.002167 1_555
F16 Mn5 2.040304 1_555
F17 Li0 1.954562 1_556
F17 Li5 1.974960 1_555
F17 Li2 2.078297 1_556
F17 Mn5 2.100608 1_555
F18 Li11 1.912950 1_555
F18 Li8 1.917440 1_555
F18 Mn3 2.046086 1_555
F19 Li6 2.003224 1_455
F19 Li9 2.082940 1_555
F19 Mn5 2.164767 1_455
F19 Mn4 2.188435 1_555
F20 Li13 2.003224 1_555
F20 Li2 2.082940 1_556
F20 Mn4 2.164767 1_555
F20 Mn5 2.188435 1_555
F21 Li11 1.954562 1_555
F21 Li14 1.974960 1_555
F21 Li9 2.078297 1_555
F21 Mn4 2.100608 1_555
F22 Li10 1.986125 1_555
F22 Mn0 2.128064 1_565
F22 Li8 2.143226 1_555
F22 Li11 2.296564 1_555
F22 Li9 2.500506 1_555
F23 Li15 1.921235 1_555
F23 Li0 2.002167 1_456
F23 Mn4 2.040304 1_555
F24 Li9 1.904800 1_655
F24 Li12 1.935806 1_555
F24 Mn6 2.044227 1_555
F25 Li15 1.912950 1_655
F25 Li12 1.917440 1_555
F25 Mn5 2.046086 1_555
F26 Li5 1.931714 1_554
F26 Li8 1.934621 1_545
F26 Li7 1.990256 1_554
F26 Mn6 2.080129 1_545
F27 Li14 2.031528 1_555
F27 Li1 2.122061 1_565
F27 Mn6 2.182982 1_555
F27 Mn0 2.240157 1_565
F28 Li14 1.986125 1_555
F28 Mn1 2.128064 1_565
F28 Li12 2.143226 1_455
F28 Li15 2.296564 1_555
F28 Li13 2.500506 1_555
F29 Li13 1.904800 1_555
F29 Li8 1.935806 1_556
F29 Mn7 2.044227 1_555
F30 Li1 1.931714 1_555
F30 Li12 1.934621 1_545
F30 Li3 1.990256 1_655
F30 Mn7 2.080129 1_545
F31 Li10 2.031528 1_656
F31 Li5 2.122061 1_565
F31 Mn7 2.182982 1_555
F31 Mn1 2.240157 1_665
