# generated using pymatgen
data_Li3Fe(PO4)2
_symmetry_space_group_name_H-M   'P 1'
_cell_length_a   9.92432700
_cell_length_b   8.58348800
_cell_length_c   16.48282546
_cell_angle_alpha   64.46916774
_cell_angle_beta   90.00000000
_cell_angle_gamma   90.00000000
_symmetry_Int_Tables_number   1
_chemical_formula_structural   Li3Fe(PO4)2
_chemical_formula_sum   'Li24 Fe8 P16 O64'
_cell_volume   1266.99012438
_cell_formula_units_Z   8
loop_
 _symmetry_equiv_pos_site_id
 _symmetry_equiv_pos_as_xyz
  1  'x, y, z'
loop_
 _atom_site_type_symbol
 _atom_site_label
 _atom_site_symmetry_multiplicity
 _atom_site_fract_x
 _atom_site_fract_y
 _atom_site_fract_z
 _atom_site_occupancy
  Li  Li0  1  0.40522500  0.97719900  0.44968300  1
  Li  Li1  1  0.88908400  0.62172600  0.79203400  1
  Li  Li2  1  0.61709600  0.60477100  0.72191700  1
  Li  Li3  1  0.08395700  0.28042600  0.01024800  1
  Li  Li4  1  0.12476800  0.02922000  0.24870400  1
  Li  Li5  1  0.58149700  0.24838000  0.99982300  1
  Li  Li6  1  0.08149700  0.75162000  0.50017700  1
  Li  Li7  1  0.62476800  0.97078000  0.25129600  1
  Li  Li8  1  0.58395700  0.71957400  0.48975200  1
  Li  Li9  1  0.11709600  0.39522900  0.77808300  1
  Li  Li10  1  0.38908400  0.37827400  0.70796600  1
  Li  Li11  1  0.90522500  0.02280100  0.05031700  1
  Li  Li12  1  0.09477500  0.97719900  0.94968300  1
  Li  Li13  1  0.61091600  0.62172600  0.29203400  1
  Li  Li14  1  0.88290400  0.60477100  0.22191700  1
  Li  Li15  1  0.41604300  0.28042600  0.51024800  1
  Li  Li16  1  0.37523200  0.02922000  0.74870400  1
  Li  Li17  1  0.91850300  0.24838000  0.49982300  1
  Li  Li18  1  0.41850300  0.75162000  0.00017700  1
  Li  Li19  1  0.87523200  0.97078000  0.75129600  1
  Li  Li20  1  0.91604300  0.71957400  0.98975200  1
  Li  Li21  1  0.38290400  0.39522900  0.27808300  1
  Li  Li22  1  0.11091600  0.37827400  0.20796600  1
  Li  Li23  1  0.59477500  0.02280100  0.55031700  1
  Fe  Fe0  1  0.86749600  0.03304100  0.37896300  1
  Fe  Fe1  1  0.37860500  0.56592200  0.86176000  1
  Fe  Fe2  1  0.87860500  0.43407800  0.63824000  1
  Fe  Fe3  1  0.36749600  0.96695900  0.12103700  1
  Fe  Fe4  1  0.63250400  0.03304100  0.87896300  1
  Fe  Fe5  1  0.12139500  0.56592200  0.36176000  1
  Fe  Fe6  1  0.62139500  0.43407800  0.13824000  1
  Fe  Fe7  1  0.13250400  0.96695900  0.62103700  1
  P  P0  1  0.85486500  0.25347600  0.15798400  1
  P  P1  1  0.35304100  0.77887300  0.63885700  1
  P  P2  1  0.83774300  0.82921500  0.60031000  1
  P  P3  1  0.33582500  0.37137200  0.08543800  1
  P  P4  1  0.83582500  0.62862800  0.41456200  1
  P  P5  1  0.33774300  0.17078500  0.89969000  1
  P  P6  1  0.85304100  0.22112700  0.86114300  1
  P  P7  1  0.35486500  0.74652400  0.34201600  1
  P  P8  1  0.64513500  0.25347600  0.65798400  1
  P  P9  1  0.14695900  0.77887300  0.13885700  1
  P  P10  1  0.66225700  0.82921500  0.10031000  1
  P  P11  1  0.16417500  0.37137200  0.58543800  1
  P  P12  1  0.66417500  0.62862800  0.91456200  1
  P  P13  1  0.16225700  0.17078500  0.39969000  1
  P  P14  1  0.64695900  0.22112700  0.36114300  1
  P  P15  1  0.14513500  0.74652400  0.84201600  1
  O  O0  1  0.05830600  0.02283600  0.41744200  1
  O  O1  1  0.57943800  0.59941000  0.84227500  1
  O  O2  1  0.76907900  0.77691900  0.69234200  1
  O  O3  1  0.18664000  0.34177700  0.10936300  1
  O  O4  1  0.35880600  0.52911800  0.99272800  1
  O  O5  1  0.93428500  0.15004900  0.24932700  1
  O  O6  1  0.73697800  0.89173500  0.52195200  1
  O  O7  1  0.66867400  0.06161400  0.33965000  1
  O  O8  1  0.15180600  0.55181900  0.85819800  1
  O  O9  1  0.38658400  0.60759700  0.72429800  1
  O  O10  1  0.92250900  0.21666200  0.08538400  1
  O  O11  1  0.70214400  0.20011800  0.16631400  1
  O  O12  1  0.47012600  0.81633100  0.57271700  1
  O  O13  1  0.21007700  0.76309100  0.60218600  1
  O  O14  1  0.92155200  0.67400200  0.60294100  1
  O  O15  1  0.40156300  0.20810100  0.08388600  1
  O  O16  1  0.90156300  0.79189900  0.41611400  1
  O  O17  1  0.42155200  0.32599800  0.89705900  1
  O  O18  1  0.71007700  0.23690900  0.89781400  1
  O  O19  1  0.20214400  0.79988200  0.33368600  1
  O  O20  1  0.97012600  0.18366900  0.92728300  1
  O  O21  1  0.42250900  0.78333800  0.41461600  1
  O  O22  1  0.88658400  0.39240300  0.77570200  1
  O  O23  1  0.65180600  0.44818100  0.64180200  1
  O  O24  1  0.16867400  0.93838600  0.16035000  1
  O  O25  1  0.23697800  0.10826500  0.97804800  1
  O  O26  1  0.43428500  0.84995100  0.25067300  1
  O  O27  1  0.68664000  0.65822300  0.39063700  1
  O  O28  1  0.85880600  0.47088200  0.50727200  1
  O  O29  1  0.26907900  0.22308100  0.80765800  1
  O  O30  1  0.55830600  0.97716400  0.08255800  1
  O  O31  1  0.07943800  0.40059000  0.65772500  1
  O  O32  1  0.92056200  0.59941000  0.34227500  1
  O  O33  1  0.44169400  0.02283600  0.91744200  1
  O  O34  1  0.73092100  0.77691900  0.19234200  1
  O  O35  1  0.14119400  0.52911800  0.49272800  1
  O  O36  1  0.31336000  0.34177700  0.60936300  1
  O  O37  1  0.56571500  0.15004900  0.74932700  1
  O  O38  1  0.76302200  0.89173500  0.02195200  1
  O  O39  1  0.83132600  0.06161400  0.83965000  1
  O  O40  1  0.34819400  0.55181900  0.35819800  1
  O  O41  1  0.11341600  0.60759700  0.22429800  1
  O  O42  1  0.57749100  0.21666200  0.58538400  1
  O  O43  1  0.02987400  0.81633100  0.07271700  1
  O  O44  1  0.79785600  0.20011800  0.66631400  1
  O  O45  1  0.28992300  0.76309100  0.10218600  1
  O  O46  1  0.57844800  0.67400200  0.10294100  1
  O  O47  1  0.09843700  0.20810100  0.58388600  1
  O  O48  1  0.59843700  0.79189900  0.91611400  1
  O  O49  1  0.07844800  0.32599800  0.39705900  1
  O  O50  1  0.78992300  0.23690900  0.39781400  1
  O  O51  1  0.52987400  0.18366900  0.42728300  1
  O  O52  1  0.29785600  0.79988200  0.83368600  1
  O  O53  1  0.07749100  0.78333800  0.91461600  1
  O  O54  1  0.61341600  0.39240300  0.27570200  1
  O  O55  1  0.84819400  0.44818100  0.14180200  1
  O  O56  1  0.33132600  0.93838600  0.66035000  1
  O  O57  1  0.26302200  0.10826500  0.47804800  1
  O  O58  1  0.06571500  0.84995100  0.75067300  1
  O  O59  1  0.64119400  0.47088200  0.00727200  1
  O  O60  1  0.81336000  0.65822300  0.89063700  1
  O  O61  1  0.23092100  0.22308100  0.30765800  1
  O  O62  1  0.42056200  0.40059000  0.15772500  1
  O  O63  1  0.94169400  0.97716400  0.58255800  1
loop_
_geom_bond_atom_site_label_1
_geom_bond_atom_site_label_2
_geom_bond_distance
_geom_bond_site_symmetry_2
Li0 O57 1.982244 1_565
Li0 O21 1.990348 1_555
Li0 O12 2.005070 1_555
Li0 O51 2.059953 1_565
Li1 O60 1.934747 1_555
Li1 O2 2.001547 1_555
Li1 O22 2.098667 1_555
Li1 O58 2.494781 1_655
Li2 O1 1.999681 1_555
Li2 O2 2.018707 1_555
Li2 O23 2.280123 1_555
Li2 O9 2.288321 1_555
Li3 O10 1.953532 1_455
Li3 O3 2.174015 1_555
Li3 O20 2.194311 1_454
Li3 O25 2.334035 1_554
Li4 O24 1.974181 1_545
Li4 O19 2.012456 1_545
Li4 O5 2.158380 1_455
Li4 O61 2.493357 1_555
Li5 O59 2.053219 1_556
Li5 O30 2.143735 1_546
Li5 O18 2.146590 1_555
Li5 O15 2.194375 1_556
Li5 O17 2.204513 1_555
Li6 O35 2.053219 1_555
Li6 O0 2.143735 1_565
Li6 O13 2.146590 1_555
Li6 O16 2.194375 1_455
Li6 O14 2.204513 1_455
Li7 O7 1.974181 1_565
Li7 O11 2.012456 1_565
Li7 O26 2.158380 1_555
Li7 O34 2.493357 1_555
Li8 O21 1.953532 1_555
Li8 O27 2.174015 1_555
Li8 O12 2.194311 1_555
Li8 O6 2.334035 1_555
Li9 O31 1.999681 1_555
Li9 O29 2.018707 1_555
Li9 O8 2.280123 1_555
Li9 O22 2.288321 1_455
Li10 O36 1.934747 1_555
Li10 O29 2.001547 1_555
Li10 O9 2.098667 1_555
Li10 O37 2.494781 1_555
Li11 O38 1.982244 1_545
Li11 O10 1.990348 1_555
Li11 O20 2.005070 1_554
Li11 O43 2.059953 1_645
Li12 O25 1.982244 1_565
Li12 O53 1.990348 1_555
Li12 O43 2.005070 1_556
Li12 O20 2.059953 1_465
Li13 O27 1.934747 1_555
Li13 O34 2.001547 1_555
Li13 O54 2.098667 1_555
Li13 O26 2.494781 1_555
Li14 O32 1.999681 1_555
Li14 O34 2.018707 1_555
Li14 O55 2.280123 1_555
Li14 O41 2.288321 1_655
Li15 O42 1.953532 1_555
Li15 O36 2.174015 1_555
Li15 O51 2.194311 1_555
Li15 O57 2.334035 1_555
Li16 O56 1.974181 1_545
Li16 O52 2.012456 1_545
Li16 O37 2.158380 1_555
Li16 O29 2.493357 1_555
Li17 O28 2.053219 1_555
Li17 O63 2.143735 1_545
Li17 O50 2.146590 1_555
Li17 O47 2.194375 1_655
Li17 O49 2.204513 1_655
Li18 O4 2.053219 1_554
Li18 O33 2.143735 1_564
Li18 O45 2.146590 1_555
Li18 O48 2.194375 1_554
Li18 O46 2.204513 1_555
Li19 O39 1.974181 1_565
Li19 O44 2.012456 1_565
Li19 O58 2.158380 1_655
Li19 O2 2.493357 1_555
Li20 O53 1.953532 1_655
Li20 O60 2.174015 1_555
Li20 O43 2.194311 1_656
Li20 O38 2.334035 1_556
Li21 O62 1.999681 1_555
Li21 O61 2.018707 1_555
Li21 O40 2.280123 1_555
Li21 O54 2.288321 1_555
Li22 O3 1.934747 1_555
Li22 O61 2.001547 1_555
Li22 O41 2.098667 1_555
Li22 O5 2.494781 1_455
Li23 O6 1.982244 1_545
Li23 O42 1.990348 1_555
Li23 O51 2.005070 1_555
Li23 O12 2.059953 1_545
Fe0 O16 1.918584 1_545
Fe0 O0 1.986957 1_655
Fe0 O5 2.040576 1_555
Fe0 O50 2.054279 1_555
Fe0 O7 2.058268 1_555
Fe0 O6 2.497921 1_545
Fe1 O17 1.930908 1_555
Fe1 O1 2.019597 1_555
Fe1 O52 2.021918 1_555
Fe1 O4 2.051987 1_555
Fe1 O9 2.137583 1_555
Fe1 O8 2.256203 1_555
Fe2 O14 1.930908 1_555
Fe2 O31 2.019597 1_655
Fe2 O44 2.021918 1_555
Fe2 O28 2.051987 1_555
Fe2 O22 2.137583 1_555
Fe2 O23 2.256203 1_555
Fe3 O15 1.918584 1_565
Fe3 O30 1.986957 1_555
Fe3 O26 2.040576 1_555
Fe3 O45 2.054279 1_555
Fe3 O24 2.058268 1_555
Fe3 O25 2.497921 1_564
Fe4 O48 1.918584 1_545
Fe4 O33 1.986957 1_555
Fe4 O37 2.040576 1_555
Fe4 O18 2.054279 1_555
Fe4 O39 2.058268 1_555
Fe4 O38 2.497921 1_546
Fe5 O49 1.930908 1_555
Fe5 O32 2.019597 1_455
Fe5 O19 2.021918 1_555
Fe5 O35 2.051987 1_555
Fe5 O41 2.137583 1_555
Fe5 O40 2.256203 1_555
Fe6 O46 1.930908 1_555
Fe6 O62 2.019597 1_555
Fe6 O11 2.021918 1_555
Fe6 O59 2.051987 1_555
Fe6 O54 2.137583 1_555
Fe6 O55 2.256203 1_555
Fe7 O47 1.918584 1_565
Fe7 O63 1.986957 1_455
Fe7 O58 2.040576 1_555
Fe7 O13 2.054279 1_555
Fe7 O56 2.058268 1_555
Fe7 O57 2.497921 1_565
O0 P13 1.562785 1_555
O1 P12 1.564399 1_555
O2 P2 1.542735 1_555
O3 P3 1.525042 1_555
O4 P3 1.561081 1_556
O5 P0 1.588718 1_555
O6 P2 1.535810 1_555
O7 P14 1.569939 1_555
O8 P15 1.576182 1_555
O9 P1 1.571875 1_555
O10 P0 1.519359 1_555
O11 P0 1.572136 1_555
O12 P1 1.529685 1_555
O13 P1 1.570775 1_555
O14 P2 1.555257 1_555
O15 P3 1.556024 1_555
O16 P4 1.556024 1_555
O17 P5 1.555257 1_555
O18 P6 1.570775 1_555
O19 P7 1.572136 1_555
O20 P6 1.529685 1_555
O21 P7 1.519359 1_555
O22 P6 1.571875 1_555
O23 P8 1.576182 1_555
O24 P9 1.569939 1_555
O25 P5 1.535810 1_555
O26 P7 1.588718 1_555
O27 P4 1.525042 1_555
O28 P4 1.561081 1_555
O29 P5 1.542735 1_555
O30 P10 1.562785 1_555
O31 P11 1.564399 1_555
O32 P4 1.564399 1_555
O33 P5 1.562785 1_555
O34 P10 1.542735 1_555
O35 P11 1.561081 1_555
O36 P11 1.525042 1_555
O37 P8 1.588718 1_555
O38 P10 1.535810 1_555
O39 P6 1.569939 1_555
O40 P7 1.576182 1_555
O41 P9 1.571875 1_555
O42 P8 1.519359 1_555
O43 P9 1.529685 1_555
O44 P8 1.572136 1_555
O45 P9 1.570775 1_555
O46 P10 1.555257 1_555
O47 P11 1.556024 1_555
O48 P12 1.556024 1_555
O49 P13 1.555257 1_555
O50 P14 1.570775 1_555
O51 P14 1.529685 1_555
O52 P15 1.572136 1_555
O53 P15 1.519359 1_555
O54 P14 1.571875 1_555
O55 P0 1.576182 1_555
O56 P1 1.569939 1_555
O57 P13 1.535810 1_555
O58 P15 1.588718 1_555
O59 P12 1.561081 1_554
O60 P12 1.525042 1_555
O61 P13 1.542735 1_555
O62 P3 1.564399 1_555
O63 P2 1.562785 1_555
