# generated using pymatgen
data_Li3Co(CuO2)4
_symmetry_space_group_name_H-M   'P 1'
_cell_length_a   6.03372346
_cell_length_b   6.03372346
_cell_length_c   5.54599311
_cell_angle_alpha   64.42012901
_cell_angle_beta   64.42012901
_cell_angle_gamma   55.93336099
_symmetry_Int_Tables_number   1
_chemical_formula_structural   Li3Co(CuO2)4
_chemical_formula_sum   'Li3 Co1 Cu4 O8'
_cell_volume   145.90856647
_cell_formula_units_Z   1
loop_
 _symmetry_equiv_pos_site_id
 _symmetry_equiv_pos_as_xyz
  1  'x, y, z'
loop_
 _atom_site_type_symbol
 _atom_site_label
 _atom_site_symmetry_multiplicity
 _atom_site_fract_x
 _atom_site_fract_y
 _atom_site_fract_z
 _atom_site_occupancy
  Li  Li0  1  0.00000000  0.50000000  0.00000000  1
  Li  Li1  1  0.00000000  0.00000000  0.50000000  1
  Li  Li2  1  0.50000000  0.00000000  0.00000000  1
  Co  Co0  1  0.50000000  0.50000000  0.00000000  1
  Cu  Cu0  1  0.50000000  0.50000000  0.50000000  1
  Cu  Cu1  1  0.00000000  0.00000000  0.00000000  1
  Cu  Cu2  1  0.00000000  0.50000000  0.50000000  1
  Cu  Cu3  1  0.50000000  0.00000000  0.50000000  1
  O  O0  1  0.29472400  0.29472400  0.23780600  1
  O  O1  1  0.24287200  0.70349600  0.77188700  1
  O  O2  1  0.70349600  0.24287200  0.77188700  1
  O  O3  1  0.79402400  0.79402400  0.24145000  1
  O  O4  1  0.20597600  0.20597600  0.75855000  1
  O  O5  1  0.29650400  0.75712800  0.22811300  1
  O  O6  1  0.75712800  0.29650400  0.22811300  1
  O  O7  1  0.70527600  0.70527600  0.76219400  1
loop_
_geom_bond_atom_site_label_1
_geom_bond_atom_site_label_2
_geom_bond_distance
_geom_bond_site_symmetry_2
Li0 O1 2.080632 1_554
Li0 O6 2.080632 1_455
Li0 O0 2.140774 1_555
Li0 O7 2.140774 1_454
Li0 O3 2.151563 1_455
Li0 O4 2.151563 1_554
Li1 O1 2.064780 1_545
Li1 O2 2.064780 1_455
Li1 O6 2.064780 1_455
Li1 O5 2.064780 1_545
Li2 O2 2.080632 1_554
Li2 O5 2.080632 1_545
Li2 O0 2.140774 1_555
Li2 O7 2.140774 1_544
Li2 O3 2.151563 1_545
Li2 O4 2.151563 1_554
Co0 O0 1.924838 1_555
Co0 O7 1.924838 1_554
Co0 O5 1.932481 1_555
Co0 O6 1.932481 1_555
Co0 O2 1.932481 1_554
Co0 O1 1.932481 1_554
Cu0 O2 1.905989 1_555
Cu0 O1 1.905989 1_555
Cu0 O5 1.905989 1_555
Cu0 O6 1.905989 1_555
Cu1 O4 1.933499 1_554
Cu1 O3 1.933499 1_445
Cu1 O6 2.089260 1_455
Cu1 O5 2.089260 1_545
Cu1 O1 2.089260 1_544
Cu1 O2 2.089260 1_454
Cu2 O3 1.902646 1_455
Cu2 O4 1.902646 1_555
Cu2 O7 1.914578 1_455
Cu2 O0 1.914578 1_555
Cu3 O3 1.902646 1_545
Cu3 O4 1.902646 1_555
Cu3 O7 1.914578 1_545
Cu3 O0 1.914578 1_555
