# generated using pymatgen
data_Li4TiFe5O12
_symmetry_space_group_name_H-M   'P 1'
_cell_length_a   5.14649175
_cell_length_b   5.14649175
_cell_length_c   10.26739102
_cell_angle_alpha   89.43620487
_cell_angle_beta   89.43620487
_cell_angle_gamma   119.75842790
_symmetry_Int_Tables_number   1
_chemical_formula_structural   Li4TiFe5O12
_chemical_formula_sum   'Li4 Ti1 Fe5 O12'
_cell_volume   236.03794682
_cell_formula_units_Z   1
loop_
 _symmetry_equiv_pos_site_id
 _symmetry_equiv_pos_as_xyz
  1  'x, y, z'
loop_
 _atom_site_type_symbol
 _atom_site_label
 _atom_site_symmetry_multiplicity
 _atom_site_fract_x
 _atom_site_fract_y
 _atom_site_fract_z
 _atom_site_occupancy
  Li  Li0  1  0.64505000  0.13489700  0.75040500  1
  Li  Li1  1  0.86510300  0.35495000  0.24959500  1
  Li  Li2  1  0.13489700  0.64505000  0.75040500  1
  Li  Li3  1  0.35495000  0.86510300  0.24959500  1
  Ti  Ti0  1  0.00000000  0.00000000  0.00000000  1
  Fe  Fe0  1  0.83566900  0.16433100  0.50000000  1
  Fe  Fe1  1  0.33650200  0.66349800  0.00000000  1
  Fe  Fe2  1  0.66349800  0.33650200  0.00000000  1
  Fe  Fe3  1  0.16433100  0.83566900  0.50000000  1
  Fe  Fe4  1  0.50000000  0.50000000  0.50000000  1
  O  O0  1  0.67248800  0.00888000  0.10796200  1
  O  O1  1  0.99112000  0.32751200  0.89203800  1
  O  O2  1  0.51705100  0.18218800  0.39321400  1
  O  O3  1  0.18218800  0.51705100  0.39321400  1
  O  O4  1  0.81781200  0.48294900  0.60678600  1
  O  O5  1  0.18493800  0.18493800  0.59494500  1
  O  O6  1  0.48294900  0.81781200  0.60678600  1
  O  O7  1  0.00888000  0.67248800  0.10796200  1
  O  O8  1  0.31506500  0.31506500  0.09713700  1
  O  O9  1  0.32751200  0.99112000  0.89203800  1
  O  O10  1  0.68493500  0.68493500  0.90286300  1
  O  O11  1  0.81506200  0.81506200  0.40505500  1
loop_
_geom_bond_atom_site_label_1
_geom_bond_atom_site_label_2
_geom_bond_distance
_geom_bond_site_symmetry_2
Li0 O9 2.016067 1_545
Li0 O6 2.062412 1_545
Li0 O4 2.124794 1_555
Li0 O1 2.143875 1_555
Li1 O7 2.016067 1_655
Li1 O3 2.062412 1_655
Li1 O2 2.124794 1_555
Li1 O0 2.143875 1_555
Li2 O1 2.016067 1_455
Li2 O4 2.062412 1_455
Li2 O6 2.124794 1_555
Li2 O9 2.143875 1_555
Li3 O0 2.016067 1_565
Li3 O2 2.062412 1_565
Li3 O3 2.124794 1_555
Li3 O7 2.143875 1_555
Fe0 O5 2.009945 1_655
Fe0 O11 2.009945 1_545
Fe0 O2 2.020493 1_555
Fe0 O4 2.020493 1_555
Fe0 O6 2.094383 1_545
Fe0 O3 2.094383 1_655
Fe1 O10 1.997175 1_554
Fe1 O8 1.997175 1_555
Fe1 O7 2.028670 1_555
Fe1 O9 2.028670 1_554
Fe1 O0 2.098482 1_565
Fe1 O1 2.098482 1_454
Fe2 O10 1.997175 1_554
Fe2 O8 1.997175 1_555
Fe2 O1 2.028670 1_554
Fe2 O0 2.028670 1_555
Fe2 O7 2.098482 1_655
Fe2 O9 2.098482 1_544
Fe3 O5 2.009945 1_565
Fe3 O11 2.009945 1_455
Fe3 O3 2.020493 1_555
Fe3 O6 2.020493 1_555
Fe3 O2 2.094383 1_565
Fe3 O4 2.094383 1_455
Fe4 O11 1.880548 1_555
Fe4 O5 1.880548 1_555
Fe4 O6 2.015179 1_555
Fe4 O3 2.015179 1_555
Fe4 O4 2.015179 1_555
Fe4 O2 2.015179 1_555
O0 Ti0 2.027946 1_655
O1 Ti0 2.027946 1_656
O7 Ti0 2.027946 1_565
O8 Ti0 1.925296 1_555
O9 Ti0 2.027946 1_566
O10 Ti0 1.925296 1_666
