# generated using pymatgen
data_Li3TlPCO7
_symmetry_space_group_name_H-M   'P 1'
_cell_length_a   6.95527900
_cell_length_b   5.22786900
_cell_length_c   8.70040016
_cell_angle_alpha   88.29185810
_cell_angle_beta   90.00000000
_cell_angle_gamma   90.00000000
_symmetry_Int_Tables_number   1
_chemical_formula_structural   Li3TlPCO7
_chemical_formula_sum   'Li6 Tl2 P2 C2 O14'
_cell_volume   316.21717277
_cell_formula_units_Z   2
loop_
 _symmetry_equiv_pos_site_id
 _symmetry_equiv_pos_as_xyz
  1  'x, y, z'
loop_
 _atom_site_type_symbol
 _atom_site_label
 _atom_site_symmetry_multiplicity
 _atom_site_fract_x
 _atom_site_fract_y
 _atom_site_fract_z
 _atom_site_occupancy
  Li  Li0  1  0.50801800  0.94844600  0.99901200  1
  Li  Li1  1  0.81730500  0.49716300  0.15811400  1
  Li  Li2  1  0.48257600  0.57897100  0.49028800  1
  Li  Li3  1  0.98257600  0.42102900  0.50971200  1
  Li  Li4  1  0.31730500  0.50283700  0.84188600  1
  Li  Li5  1  0.00801800  0.05155400  0.00098800  1
  Tl  Tl0  1  0.24717300  0.00711000  0.30767600  1
  Tl  Tl1  1  0.74717300  0.99289000  0.69232400  1
  P  P0  1  0.76021100  0.99297400  0.29871300  1
  P  P1  1  0.26021100  0.00702600  0.70128700  1
  C  C0  1  0.26863900  0.50804200  0.13937700  1
  C  C1  1  0.76863900  0.49195800  0.86062300  1
  O  O0  1  0.30524100  0.69502100  0.04444800  1
  O  O1  1  0.20207400  0.29707600  0.08391100  1
  O  O2  1  0.91415600  0.85801000  0.19683000  1
  O  O3  1  0.57409700  0.03595800  0.20266900  1
  O  O4  1  0.29342400  0.52309200  0.28910000  1
  O  O5  1  0.83815400  0.25555900  0.34877500  1
  O  O6  1  0.71433200  0.80630500  0.43849000  1
  O  O7  1  0.21433200  0.19369500  0.56151000  1
  O  O8  1  0.33815400  0.74444100  0.65122500  1
  O  O9  1  0.79342400  0.47690800  0.71090000  1
  O  O10  1  0.07409700  0.96404200  0.79733100  1
  O  O11  1  0.41415600  0.14199000  0.80317000  1
  O  O12  1  0.70207400  0.70292400  0.91608900  1
  O  O13  1  0.80524100  0.30497900  0.95555200  1
loop_
_geom_bond_atom_site_label_1
_geom_bond_atom_site_label_2
_geom_bond_distance
_geom_bond_site_symmetry_2
Li0 O3 1.899602 1_566
Li0 O0 1.967100 1_556
Li0 O12 2.011209 1_555
Li0 O11 2.061671 1_565
Li1 O2 2.040552 1_555
Li1 O13 2.056210 1_554
Li1 O5 2.059898 1_555
Li1 O12 2.469504 1_554
Li2 O8 1.946830 1_555
Li2 O6 2.044980 1_555
Li2 O4 2.215987 1_555
Li3 O5 1.946830 1_555
Li3 O7 2.044980 1_655
Li3 O9 2.215987 1_555
Li4 O11 2.040552 1_555
Li4 O0 2.056210 1_556
Li4 O8 2.059898 1_555
Li4 O1 2.469504 1_556
Li5 O10 1.899602 1_544
Li5 O13 1.967100 1_454
Li5 O1 2.011209 1_555
Li5 O2 2.061671 1_445
C0 O0 1.286209 1_555
C0 O1 1.302057 1_555
C0 O4 1.318679 1_555
C1 O13 1.286209 1_555
C1 O12 1.302057 1_555
C1 O9 1.318679 1_555
O1 Tl0 2.451657 1_555
O2 P0 1.570774 1_555
O2 Tl0 2.635788 1_665
O3 P0 1.553457 1_545
O3 Tl0 2.453484 1_555
O4 Tl0 2.560629 1_565
O4 Tl0 2.716624 1_555
O5 P0 1.550392 1_545
O6 P0 1.569189 1_555
O6 Tl1 2.451402 1_555
O7 P1 1.569189 1_555
O7 Tl0 2.451402 1_555
O8 P1 1.550392 1_565
O9 Tl1 2.560629 1_545
O9 Tl1 2.716624 1_555
O10 P1 1.553457 1_565
O10 Tl1 2.453484 1_455
O11 P1 1.570774 1_555
O11 Tl1 2.635788 1_545
O12 Tl1 2.451657 1_555
