# generated using pymatgen
data_Li3VCr3O8
_symmetry_space_group_name_H-M   'P 1'
_cell_length_a   5.19303900
_cell_length_b   7.84168242
_cell_length_c   7.86775011
_cell_angle_alpha   94.37962193
_cell_angle_beta   109.14520811
_cell_angle_gamma   96.07087189
_symmetry_Int_Tables_number   1
_chemical_formula_structural   Li3VCr3O8
_chemical_formula_sum   'Li6 V2 Cr6 O16'
_cell_volume   298.86325504
_cell_formula_units_Z   2
loop_
 _symmetry_equiv_pos_site_id
 _symmetry_equiv_pos_as_xyz
  1  'x, y, z'
loop_
 _atom_site_type_symbol
 _atom_site_label
 _atom_site_symmetry_multiplicity
 _atom_site_fract_x
 _atom_site_fract_y
 _atom_site_fract_z
 _atom_site_occupancy
  Li  Li0  1  0.00328900  0.99894400  0.00218800  1
  Li  Li1  1  0.74578800  0.25614800  0.75210300  1
  Li  Li2  1  0.49333800  0.48786500  0.49755500  1
  Li  Li3  1  0.62504100  0.87363300  0.62989800  1
  Li  Li4  1  0.12693400  0.37744200  0.12241200  1
  Li  Li5  1  0.24682500  0.75091600  0.24306200  1
  V  V0  1  0.05635800  0.68367200  0.57073100  1
  V  V1  1  0.80532700  0.94040200  0.31276800  1
  Cr  Cr0  1  0.19752400  0.06338700  0.68476000  1
  Cr  Cr1  1  0.31368700  0.43978900  0.81539300  1
  Cr  Cr2  1  0.44152500  0.81196200  0.93834900  1
  Cr  Cr3  1  0.94007200  0.31059100  0.43230200  1
  Cr  Cr4  1  0.55410200  0.18820700  0.06292600  1
  Cr  Cr5  1  0.69475500  0.56310000  0.18583000  1
  O  O0  1  0.57414000  0.02977700  0.84769400  1
  O  O1  1  0.68939300  0.39958100  0.97408300  1
  O  O2  1  0.32067000  0.28507400  0.60357700  1
  O  O3  1  0.43066800  0.65827100  0.71781500  1
  O  O4  1  0.93028500  0.15018400  0.21823000  1
  O  O5  1  0.07813600  0.53149200  0.35169900  1
  O  O6  1  0.18459600  0.88625800  0.47478900  1
  O  O7  1  0.17140100  0.22001100  0.89687800  1
  O  O8  1  0.83272700  0.79488300  0.11515100  1
  O  O9  1  0.81354400  0.08719500  0.52117200  1
  O  O10  1  0.92422700  0.47372600  0.64051000  1
  O  O11  1  0.06035700  0.84725100  0.77418900  1
  O  O12  1  0.56156600  0.35314900  0.27392100  1
  O  O13  1  0.67990200  0.72342600  0.40563600  1
  O  O14  1  0.32096900  0.59780100  0.03243000  1
  O  O15  1  0.43285100  0.96586000  0.15194700  1
loop_
_geom_bond_atom_site_label_1
_geom_bond_atom_site_label_2
_geom_bond_distance
_geom_bond_site_symmetry_2
Li0 O8 2.137470 1_455
Li0 O4 2.156239 1_465
Li0 O11 2.195002 1_554
Li0 O7 2.197161 1_564
Li0 O15 2.208358 1_555
Li0 O0 2.210107 1_464
Li1 O1 2.122780 1_555
Li1 O2 2.178298 1_555
Li1 O7 2.189355 1_655
Li1 O0 2.195498 1_555
Li1 O10 2.229033 1_555
Li1 O9 2.308797 1_555
Li2 O2 2.102437 1_555
Li2 O12 2.131090 1_555
Li2 O5 2.162398 1_555
Li2 O10 2.169103 1_555
Li2 O3 2.236716 1_555
Li2 O13 2.271310 1_555
Li3 O0 2.133195 1_565
Li3 O3 2.150625 1_555
Li3 O13 2.159880 1_555
Li3 O11 2.212104 1_655
Li3 O9 2.217180 1_565
Li3 O6 2.228467 1_555
Li4 O7 2.172677 1_554
Li4 O14 2.188360 1_555
Li4 O5 2.193080 1_555
Li4 O12 2.216398 1_555
Li4 O1 2.220337 1_454
Li4 O4 2.261025 1_455
Li5 O8 2.132204 1_455
Li5 O14 2.132748 1_555
Li5 O15 2.140678 1_555
Li5 O6 2.172149 1_555
Li5 O5 2.203525 1_555
Li5 O13 2.235679 1_555
Cr0 O2 2.010306 1_555
Cr0 O0 2.013452 1_555
Cr0 O9 2.024740 1_455
Cr0 O11 2.032375 1_545
Cr0 O7 2.045179 1_555
Cr0 O6 2.054258 1_545
Cr1 O2 1.997662 1_555
Cr1 O1 2.014274 1_555
Cr1 O14 2.019209 1_556
Cr1 O7 2.034037 1_555
Cr1 O3 2.044595 1_555
Cr1 O10 2.097356 1_455
Cr2 O14 2.007885 1_556
Cr2 O15 2.008493 1_556
Cr2 O3 2.017016 1_555
Cr2 O11 2.038716 1_555
Cr2 O0 2.039568 1_565
Cr2 O8 2.076636 1_556
Cr3 O4 2.007065 1_555
Cr3 O10 2.029124 1_555
Cr3 O5 2.029820 1_655
Cr3 O12 2.030614 1_555
Cr3 O2 2.034742 1_655
Cr3 O9 2.057762 1_555
Cr4 O1 1.995583 1_554
Cr4 O4 2.002838 1_555
Cr4 O12 2.012334 1_555
Cr4 O7 2.042107 1_554
Cr4 O15 2.042216 1_545
Cr4 O0 2.059969 1_554
Cr5 O12 1.979172 1_555
Cr5 O14 1.980840 1_555
Cr5 O1 2.014001 1_554
Cr5 O5 2.043967 1_655
Cr5 O8 2.065528 1_555
Cr5 O13 2.086446 1_555
O3 V0 1.949068 1_555
O4 V1 1.989515 1_545
O5 V0 2.061284 1_555
O6 V0 1.956036 1_555
O6 V1 2.072948 1_455
O8 V1 1.910046 1_555
O9 V1 1.915942 1_545
O10 V0 1.904946 1_655
O11 V0 1.966524 1_555
O13 V1 2.029947 1_555
O13 V0 2.032573 1_655
O15 V1 1.974131 1_555
