# generated using pymatgen
data_NaV6O13
_symmetry_space_group_name_H-M   'P 1'
_cell_length_a   3.75203215
_cell_length_b   11.53594483
_cell_length_c   12.11952906
_cell_angle_alpha   68.76537471
_cell_angle_beta   90.08356497
_cell_angle_gamma   80.64160531
_symmetry_Int_Tables_number   1
_chemical_formula_structural   NaV6O13
_chemical_formula_sum   'Na2 V12 O26'
_cell_volume   481.40893548
_cell_formula_units_Z   2
loop_
 _symmetry_equiv_pos_site_id
 _symmetry_equiv_pos_as_xyz
  1  'x, y, z'
loop_
 _atom_site_type_symbol
 _atom_site_label
 _atom_site_symmetry_multiplicity
 _atom_site_fract_x
 _atom_site_fract_y
 _atom_site_fract_z
 _atom_site_occupancy
  Na  Na0  1  0.17233800  0.65297800  0.71791100  1
  Na  Na1  1  0.82414800  0.34826800  0.28006500  1
  V  V0  1  0.04681900  0.89728600  0.95913700  1
  V  V1  1  0.56341500  0.87397200  0.77280700  1
  V  V2  1  0.57318800  0.85741600  0.48403600  1
  V  V3  1  0.07355500  0.85753600  0.28418300  1
  V  V4  1  0.77259700  0.45199600  0.92084800  1
  V  V5  1  0.75332600  0.48800800  0.60457000  1
  V  V6  1  0.22293100  0.51287000  0.38786000  1
  V  V7  1  0.22719300  0.54964700  0.07318200  1
  V  V8  1  0.93030700  0.14167200  0.71538300  1
  V  V9  1  0.42958900  0.14220900  0.51593000  1
  V  V10  1  0.43866500  0.12623000  0.22786300  1
  V  V11  1  0.95087000  0.10248100  0.04178500  1
  O  O0  1  0.55529400  0.88778900  0.93403800  1
  O  O1  1  0.04004700  0.92061900  0.78237000  1
  O  O2  1  0.54483500  0.91368700  0.60132900  1
  O  O3  1  0.06556200  0.87374600  0.44402100  1
  O  O4  1  0.64079100  0.71790900  0.80960700  1
  O  O5  1  0.55358800  0.89766400  0.30570600  1
  O  O6  1  0.04312800  0.91657100  0.10833000  1
  O  O7  1  0.65275600  0.69873200  0.55433200  1
  O  O8  1  0.25170300  0.49479200  0.93223700  1
  O  O9  1  0.15123700  0.69648200  0.32525000  1
  O  O10  1  0.74885600  0.49697800  0.76518700  1
  O  O11  1  0.14593000  0.70778300  0.02565600  1
  O  O12  1  0.24614800  0.50468400  0.57095800  1
  O  O13  1  0.75307200  0.49683100  0.42924400  1
  O  O14  1  0.85190000  0.29573500  0.97290700  1
  O  O15  1  0.25397000  0.50266600  0.24467600  1
  O  O16  1  0.84879000  0.30176000  0.67450100  1
  O  O17  1  0.75127500  0.49857000  0.06460500  1
  O  O18  1  0.34777300  0.30087900  0.44587100  1
  O  O19  1  0.95986500  0.08126600  0.89215500  1
  O  O20  1  0.45060200  0.10090400  0.69374500  1
  O  O21  1  0.35911100  0.28207400  0.19219600  1
  O  O22  1  0.93817100  0.12527200  0.55514400  1
  O  O23  1  0.45952800  0.08473100  0.39921200  1
  O  O24  1  0.96265700  0.07847800  0.21883900  1
  O  O25  1  0.44475600  0.11380000  0.06652400  1
loop_
_geom_bond_atom_site_label_1
_geom_bond_atom_site_label_2
_geom_bond_distance
_geom_bond_site_symmetry_2
Na0 O4 2.428425 1_455
Na0 O4 2.431227 1_555
Na0 O10 2.495879 1_555
Na0 O10 2.505438 1_455
Na0 O8 2.559936 1_555
Na0 O7 2.627833 1_455
Na0 O7 2.649513 1_555
Na0 O12 2.868723 1_555
Na1 O21 2.403866 1_555
Na1 O21 2.417198 1_655
Na1 O15 2.477463 1_555
Na1 O15 2.517937 1_655
Na1 O17 2.542414 1_555
Na1 O18 2.653341 1_655
Na1 O18 2.657840 1_555
Na1 O13 2.893846 1_555
O0 V0 1.895755 1_655
O0 V0 1.924096 1_555
O0 V1 2.017134 1_555
O1 V1 1.964357 1_455
O1 V1 1.965014 1_555
O1 V0 2.059756 1_555
O1 V8 2.342930 1_465
O2 V2 1.760648 1_555
O2 V1 1.957880 1_555
O2 V9 2.420612 1_565
O3 V2 1.926844 1_555
O3 V2 1.932147 1_455
O3 V3 2.012264 1_555
O4 V1 1.665055 1_555
O5 V3 1.970670 1_555
O5 V3 1.970714 1_655
O5 V2 2.038046 1_555
O5 V10 2.419800 1_565
O6 V0 1.899881 1_554
O6 V11 1.968402 1_465
O6 V3 1.985371 1_555
O7 V2 1.690490 1_555
O7 V5 2.247499 1_555
O8 V4 1.954190 1_555
O8 V4 1.957418 1_455
O8 V7 2.022708 1_556
O9 V3 1.714098 1_555
O9 V6 1.945379 1_555
O10 V4 1.763968 1_555
O10 V5 1.986376 1_555
O11 V7 1.676326 1_555
O11 V0 2.006325 1_554
O12 V5 1.909471 1_555
O12 V5 1.919161 1_455
O12 V6 2.187626 1_555
O13 V6 1.853413 1_655
O13 V6 2.013085 1_555
O13 V5 2.090150 1_555
O14 V4 1.654450 1_555
O14 V11 2.046120 1_556
O15 V6 1.784058 1_555
O15 V7 1.946637 1_555
O16 V8 1.703710 1_555
O16 V5 1.972975 1_555
O17 V7 1.973009 1_555
O17 V7 1.983071 1_655
O17 V4 1.998764 1_554
O18 V9 1.690050 1_555
O18 V6 2.252842 1_555
O19 V11 1.915358 1_556
O19 V0 1.948317 1_645
O19 V8 1.995115 1_555
O20 V8 1.973000 1_555
O20 V8 1.973105 1_455
O20 V9 2.029997 1_555
O20 V1 2.402492 1_545
O21 V10 1.664401 1_555
O22 V9 1.927218 1_555
O22 V9 1.927733 1_655
O22 V8 2.018069 1_555
O23 V9 1.763218 1_555
O23 V10 1.953217 1_555
O23 V2 2.407778 1_545
O24 V10 1.966783 1_655
O24 V10 1.967932 1_555
O24 V11 2.061182 1_555
O24 V3 2.342766 1_645
O25 V11 1.909520 1_455
O25 V11 1.913729 1_555
O25 V10 2.011630 1_555
