# generated using pymatgen
data_Li4Mn3NbV2(PO4)6
_symmetry_space_group_name_H-M   'P 1'
_cell_length_a   8.62418600
_cell_length_b   8.67285637
_cell_length_c   8.68174167
_cell_angle_alpha   63.18701837
_cell_angle_beta   63.39990944
_cell_angle_gamma   63.27308064
_symmetry_Int_Tables_number   1
_chemical_formula_structural   Li4Mn3NbV2(PO4)6
_chemical_formula_sum   'Li4 Mn3 Nb1 V2 P6 O24'
_cell_volume   492.59402447
_cell_formula_units_Z   1
loop_
 _symmetry_equiv_pos_site_id
 _symmetry_equiv_pos_as_xyz
  1  'x, y, z'
loop_
 _atom_site_type_symbol
 _atom_site_label
 _atom_site_symmetry_multiplicity
 _atom_site_fract_x
 _atom_site_fract_y
 _atom_site_fract_z
 _atom_site_occupancy
  Li  Li0  1  0.25234400  0.64457400  0.85161400  1
  Li  Li1  1  0.70711800  0.35619200  0.15195400  1
  Li  Li2  1  0.36079900  0.14756200  0.70823900  1
  Li  Li3  1  0.14814000  0.70692100  0.36012000  1
  Mn  Mn0  1  0.65275500  0.65142300  0.64583600  1
  Mn  Mn1  1  0.84759200  0.85001300  0.84779700  1
  Mn  Mn2  1  0.34284500  0.33940900  0.34382600  1
  Nb  Nb0  1  0.15177200  0.15157800  0.15480700  1
  V  V0  1  0.99269000  0.00080700  0.99829700  1
  V  V1  1  0.50411000  0.49945400  0.49701100  1
  P  P0  1  0.94058600  0.56426600  0.25481600  1
  P  P1  1  0.56435500  0.25158300  0.94180300  1
  P  P2  1  0.25244700  0.94114300  0.56502100  1
  P  P3  1  0.75178000  0.05554400  0.44632200  1
  P  P4  1  0.43677100  0.74820400  0.05224700  1
  P  P5  1  0.06502600  0.44968600  0.75426200  1
  O  O0  1  0.53389300  0.32010100  0.09146100  1
  O  O1  1  0.32302800  0.08850200  0.53531900  1
  O  O2  1  0.08790300  0.53083500  0.32985600  1
  O  O3  1  0.94045500  0.74119000  0.09254800  1
  O  O4  1  0.99875800  0.39697800  0.18672000  1
  O  O5  1  0.75239200  0.56834100  0.39688400  1
  O  O6  1  0.74909300  0.10173300  0.92082700  1
  O  O7  1  0.54685100  0.40683600  0.76263800  1
  O  O8  1  0.82827300  0.01721500  0.59063500  1
  O  O9  1  0.39406500  0.74936400  0.57331000  1
  O  O10  1  0.90136100  0.08902200  0.24584800  1
  O  O11  1  0.59341700  0.81682700  0.99564600  1
  O  O12  1  0.39972100  0.17698800  0.00245800  1
  O  O13  1  0.10429400  0.91957500  0.75321400  1
  O  O14  1  0.59915000  0.24721900  0.42705900  1
  O  O15  1  0.18328600  0.99430600  0.40195500  1
  O  O16  1  0.42716100  0.59726900  0.24321200  1
  O  O17  1  0.24105400  0.90216500  0.09126100  1
  O  O18  1  0.25192100  0.42258400  0.59803400  1
  O  O19  1  0.05270200  0.59014300  0.82276100  1
  O  O20  1  0.08756600  0.25026700  0.90395000  1
  O  O21  1  0.89930000  0.49546400  0.70379100  1
  O  O22  1  0.69165800  0.90394900  0.47316700  1
  O  O23  1  0.44157400  0.69176600  0.90647200  1
loop_
_geom_bond_atom_site_label_1
_geom_bond_atom_site_label_2
_geom_bond_distance
_geom_bond_site_symmetry_2
Li0 O13 2.109026 1_555
Li0 O19 2.115187 1_555
Li0 O23 2.128453 1_555
Li0 O9 2.128660 1_555
Li0 O7 2.503684 1_555
Li0 O3 2.613023 1_456
Li1 O0 1.969044 1_555
Li1 O14 2.056263 1_555
Li1 O10 2.206182 1_555
Li1 O16 2.463608 1_555
Li2 O1 1.975844 1_555
Li2 O18 2.053668 1_555
Li2 O20 2.263851 1_555
Li2 O14 2.476390 1_555
Li3 O2 1.966975 1_555
Li3 O16 2.085717 1_555
Li3 O17 2.222046 1_555
Li3 O18 2.494727 1_555
Mn0 O21 2.088262 1_555
Mn0 O22 2.098814 1_555
Mn0 O23 2.238327 1_555
Mn0 O5 2.261383 1_555
Mn0 O9 2.272929 1_555
Mn0 O7 2.309745 1_555
Mn1 O11 2.061555 1_555
Mn1 O8 2.076096 1_565
Mn1 O19 2.183476 1_655
Mn1 O6 2.233380 1_565
Mn1 O13 2.250741 1_655
Mn1 O3 2.254334 1_556
Mn2 O1 2.084402 1_555
Mn2 O2 2.092600 1_555
Mn2 O0 2.095984 1_555
Mn2 O14 2.316652 1_555
Mn2 O18 2.320271 1_555
Mn2 O16 2.329106 1_555
Nb0 O12 1.999664 1_555
Nb0 O4 2.006544 1_455
Nb0 O15 2.021562 1_545
Nb0 O10 2.172863 1_455
Nb0 O20 2.180435 1_554
Nb0 O17 2.185040 1_545
O0 P1 1.536479 1_554
O1 P2 1.527160 1_545
O2 P0 1.536913 1_455
O3 P0 1.545582 1_555
O3 V0 2.205082 1_564
O4 P0 1.599909 1_555
O5 P0 1.533546 1_555
O5 V1 2.170885 1_555
O6 P1 1.533550 1_555
O6 V0 2.170758 1_555
O7 P1 1.547009 1_555
O7 V1 2.218775 1_555
O8 P3 1.510827 1_555
O9 P2 1.551397 1_555
O9 V1 2.217949 1_555
O10 P3 1.627272 1_555
O10 V0 2.291316 1_554
O11 P4 1.511820 1_556
O12 P1 1.600343 1_554
O13 P2 1.551371 1_555
O13 V0 2.204201 1_465
O14 P3 1.581837 1_555
O14 V1 2.228497 1_555
O15 P2 1.578761 1_555
O16 P4 1.576617 1_555
O16 V1 2.265358 1_555
O17 P4 1.617248 1_555
O17 V0 2.290883 1_464
O18 P5 1.575413 1_555
O18 V1 2.238856 1_555
O19 P5 1.526227 1_555
O20 P5 1.616792 1_555
O20 V0 2.326941 1_455
O21 P5 1.511908 1_655
O22 P3 1.510061 1_565
O23 P4 1.528621 1_556
