# generated using pymatgen
data_Dy2WO6
_symmetry_space_group_name_H-M   'P 1'
_cell_length_a   5.33655020
_cell_length_b   7.62213399
_cell_length_c   11.35712454
_cell_angle_alpha   75.49523760
_cell_angle_beta   90.00000000
_cell_angle_gamma   90.00000000
_symmetry_Int_Tables_number   1
_chemical_formula_structural   Dy2WO6
_chemical_formula_sum   'Dy8 W4 O24'
_cell_volume   447.23709757
_cell_formula_units_Z   4
loop_
 _symmetry_equiv_pos_site_id
 _symmetry_equiv_pos_as_xyz
  1  'x, y, z'
loop_
 _atom_site_type_symbol
 _atom_site_label
 _atom_site_symmetry_multiplicity
 _atom_site_fract_x
 _atom_site_fract_y
 _atom_site_fract_z
 _atom_site_occupancy
  Dy  Dy0  1  0.73762566  -0.00000000  0.75000000  1
  Dy  Dy1  1  0.26237434  -0.00000000  0.25000000  1
  Dy  Dy2  1  0.18738307  0.79752325  0.57757761  1
  Dy  Dy3  1  0.81261693  0.79752325  0.07757761  1
  Dy  Dy4  1  0.68254078  0.50000000  0.75000000  1
  Dy  Dy5  1  0.31745922  0.50000000  0.25000000  1
  Dy  Dy6  1  0.18738307  0.20247675  0.92242239  1
  Dy  Dy7  1  0.81261693  0.20247675  0.42242239  1
  W  W0  1  0.25371094  0.72155932  0.88650605  1
  W  W1  1  0.74628906  0.72155932  0.38650605  1
  W  W2  1  0.25371094  0.27844068  0.61349395  1
  W  W3  1  0.74628906  0.27844068  0.11349395  1
  O  O0  1  0.03875766  0.93746309  0.89621453  1
  O  O1  1  0.52419360  0.85117070  0.93014916  1
  O  O2  1  0.96124234  0.93746309  0.39621453  1
  O  O3  1  0.46238209  0.78614866  0.72843481  1
  O  O4  1  0.47580640  0.85117070  0.43014916  1
  O  O5  1  0.98524778  0.71034361  0.77166516  1
  O  O6  1  0.53761791  0.78614866  0.22843481  1
  O  O7  1  0.84769253  0.63397118  0.54820558  1
  O  O8  1  0.35866316  0.48988034  0.88740610  1
  O  O9  1  0.01475222  0.71034361  0.27166516  1
  O  O10  1  0.35866316  0.51011966  0.61259390  1
  O  O11  1  0.84769253  0.36602882  0.95179442  1
  O  O12  1  0.15230747  0.63397118  0.04820558  1
  O  O13  1  0.64133684  0.48988034  0.38740610  1
  O  O14  1  0.98524778  0.28965639  0.72833484  1
  O  O15  1  0.64133684  0.51011966  0.11259390  1
  O  O16  1  0.15230747  0.36602882  0.45179442  1
  O  O17  1  0.46238209  0.21385134  0.77156519  1
  O  O18  1  0.01475222  0.28965639  0.22833484  1
  O  O19  1  0.52419360  0.14882930  0.56985084  1
  O  O20  1  0.53761791  0.21385134  0.27156519  1
  O  O21  1  0.03875766  0.06253691  0.60378547  1
  O  O22  1  0.47580640  0.14882930  0.06985084  1
  O  O23  1  0.96124234  0.06253691  0.10378547  1
loop_
_geom_bond_atom_site_label_1
_geom_bond_atom_site_label_2
_geom_bond_distance
_geom_bond_site_symmetry_2
Dy0 O17 2.252642 1_555
Dy0 O3 2.252642 1_545
Dy0 O21 2.273916 1_655
Dy0 O0 2.273916 1_645
Dy0 O1 2.368030 1_545
Dy0 O19 2.368030 1_555
Dy0 O14 2.531606 1_555
Dy0 O5 2.531606 1_545
Dy1 O6 2.252642 1_545
Dy1 O20 2.252642 1_555
Dy1 O2 2.273916 1_445
Dy1 O23 2.273916 1_455
Dy1 O22 2.368030 1_555
Dy1 O4 2.368030 1_545
Dy1 O18 2.531606 1_555
Dy1 O9 2.531606 1_545
Dy2 O4 2.235359 1_555
Dy2 O3 2.241029 1_555
Dy2 O21 2.258124 1_565
Dy2 O7 2.271517 1_455
Dy2 O10 2.314323 1_555
Dy2 O5 2.393800 1_455
Dy2 O2 2.395037 1_455
Dy3 O1 2.235359 1_554
Dy3 O6 2.241029 1_555
Dy3 O23 2.258124 1_565
Dy3 O12 2.271517 1_655
Dy3 O15 2.314323 1_555
Dy3 O9 2.393800 1_655
Dy3 O0 2.395037 1_654
Dy4 O10 2.316951 1_555
Dy4 O8 2.316951 1_555
Dy4 O5 2.331988 1_555
Dy4 O14 2.331988 1_555
Dy4 O7 2.428905 1_555
Dy4 O11 2.428905 1_555
Dy4 O17 2.435118 1_555
Dy4 O3 2.435118 1_555
Dy5 O13 2.316951 1_555
Dy5 O15 2.316951 1_555
Dy5 O18 2.331988 1_555
Dy5 O9 2.331988 1_555
Dy5 O16 2.428905 1_555
Dy5 O12 2.428905 1_555
Dy5 O20 2.435118 1_555
Dy5 O6 2.435118 1_555
Dy6 O22 2.235359 1_556
Dy6 O17 2.241029 1_555
Dy6 O0 2.258124 1_545
Dy6 O11 2.271517 1_455
Dy6 O8 2.314323 1_555
Dy6 O14 2.393800 1_455
Dy6 O23 2.395037 1_456
Dy7 O19 2.235359 1_555
Dy7 O20 2.241029 1_555
Dy7 O2 2.258124 1_545
Dy7 O16 2.271517 1_655
Dy7 O13 2.314323 1_555
Dy7 O18 2.393800 1_655
Dy7 O21 2.395037 1_655
O0 W0 2.031518 1_555
O1 W0 1.884270 1_555
O2 W1 2.031518 1_555
O3 W0 2.064603 1_555
O4 W1 1.884270 1_555
O5 W0 1.953662 1_655
O6 W1 2.064603 1_555
O7 W1 1.870004 1_555
O8 W0 1.850167 1_555
O9 W1 1.953662 1_455
O10 W2 1.850167 1_555
O11 W3 1.870004 1_556
O12 W0 1.870004 1_554
O13 W1 1.850167 1_555
O14 W2 1.953662 1_655
O15 W3 1.850167 1_555
O16 W2 1.870004 1_555
O17 W2 2.064603 1_555
O18 W3 1.953662 1_455
O19 W2 1.884270 1_555
O20 W3 2.064603 1_555
O21 W2 2.031518 1_555
O22 W3 1.884270 1_555
O23 W3 2.031518 1_555
