# generated using pymatgen
data_LiFe2(BO3)2
_symmetry_space_group_name_H-M   'P 1'
_cell_length_a   5.26611800
_cell_length_b   5.27101683
_cell_length_c   20.16571467
_cell_angle_alpha   91.01306449
_cell_angle_beta   89.92094227
_cell_angle_gamma   119.52984245
_symmetry_Int_Tables_number   1
_chemical_formula_structural   LiFe2(BO3)2
_chemical_formula_sum   'Li4 Fe8 B8 O24'
_cell_volume   486.94958699
_cell_formula_units_Z   4
loop_
 _symmetry_equiv_pos_site_id
 _symmetry_equiv_pos_as_xyz
  1  'x, y, z'
loop_
 _atom_site_type_symbol
 _atom_site_label
 _atom_site_symmetry_multiplicity
 _atom_site_fract_x
 _atom_site_fract_y
 _atom_site_fract_z
 _atom_site_occupancy
  Li  Li0  1  0.66613500  0.64208800  0.83188100  1
  Li  Li1  1  0.64639900  0.66773700  0.58001000  1
  Li  Li2  1  0.34460300  0.34666300  0.20072700  1
  Li  Li3  1  0.33979700  0.33953700  0.45075200  1
  Fe  Fe0  1  0.99422600  0.68189500  0.18946700  1
  Fe  Fe1  1  0.01300200  0.67351900  0.69088100  1
  Fe  Fe2  1  0.33262500  0.99488000  0.06733200  1
  Fe  Fe3  1  0.31535200  0.00177000  0.56434600  1
  Fe  Fe4  1  0.67682800  0.98982200  0.43854100  1
  Fe  Fe5  1  0.67770800  0.01920400  0.93994200  1
  Fe  Fe6  1  0.99034600  0.33089500  0.31510100  1
  Fe  Fe7  1  0.00821300  0.31541400  0.81327000  1
  B  B0  1  0.00308400  0.33767800  0.06504000  1
  B  B1  1  0.99147900  0.33107400  0.56385700  1
  B  B2  1  0.66803000  0.00392200  0.18998500  1
  B  B3  1  0.67138300  0.00762100  0.68771800  1
  B  B4  1  0.33233900  0.99976100  0.31243200  1
  B  B5  1  0.33594400  0.99602200  0.81446800  1
  B  B6  1  0.00473100  0.66557800  0.43905800  1
  B  B7  1  0.01153300  0.67509600  0.93830000  1
  O  O0  1  0.91885100  0.25967600  0.21184200  1
  O  O1  1  0.89383900  0.27332200  0.71075800  1
  O  O2  1  0.73442400  0.11690600  0.03888100  1
  O  O3  1  0.02225100  0.60055400  0.08402700  1
  O  O4  1  0.73783600  0.07394300  0.54733700  1
  O  O5  1  0.97412700  0.57556400  0.58705900  1
  O  O6  1  0.42850700  0.03332700  0.16779200  1
  O  O7  1  0.73679600  0.64655200  0.44319000  1
  O  O8  1  0.40214000  0.97990200  0.67128200  1
  O  O9  1  0.78579600  0.72760900  0.92754100  1
  O  O10  1  0.65191900  0.74054100  0.18998100  1
  O  O11  1  0.71435200  0.77289400  0.67955200  1
  O  O12  1  0.29582300  0.23927500  0.30819600  1
  O  O13  1  0.35202500  0.26015600  0.81574100  1
  O  O14  1  0.23059900  0.28875700  0.07249500  1
  O  O15  1  0.59741300  0.02913800  0.33336600  1
  O  O16  1  0.26149000  0.35126400  0.55586600  1
  O  O17  1  0.57226700  0.96420300  0.83650800  1
  O  O18  1  0.02958200  0.42080100  0.41816300  1
  O  O19  1  0.98342600  0.40857400  0.91818200  1
  O  O20  1  0.25788900  0.92268900  0.45762000  1
  O  O21  1  0.27529300  0.88988700  0.96522600  1
  O  O22  1  0.10753900  0.72742800  0.29369800  1
  O  O23  1  0.07920900  0.74400700  0.79183400  1
loop_
_geom_bond_atom_site_label_1
_geom_bond_atom_site_label_2
_geom_bond_distance
_geom_bond_site_symmetry_2
Li0 O13 1.894903 1_555
Li0 O17 1.989331 1_555
Li0 O9 2.003529 1_555
Li0 O23 2.128669 1_655
Li1 O16 1.941459 1_555
Li1 O5 2.016060 1_555
Li1 O11 2.057133 1_555
Li1 O4 2.069559 1_565
Li2 O10 1.918142 1_555
Li2 O6 2.010940 1_555
Li2 O0 2.067895 1_455
Li2 O12 2.231952 1_555
Li3 O7 1.919811 1_555
Li3 O18 1.996700 1_555
Li3 O20 2.027150 1_545
Li3 O16 2.164504 1_555
Fe0 O10 1.973390 1_555
Fe0 O0 2.116203 1_555
Fe0 O22 2.162424 1_655
Fe0 O6 2.168531 1_665
Fe0 O3 2.180806 1_655
Fe1 O11 1.901927 1_455
Fe1 O8 1.929179 1_555
Fe1 O1 1.930944 1_455
Fe1 O23 2.061931 1_555
Fe1 O5 2.133216 1_455
Fe2 O14 1.874449 1_565
Fe2 O3 1.944060 1_555
Fe2 O2 1.971833 1_565
Fe2 O6 2.070632 1_565
Fe2 O21 2.105657 1_554
Fe3 O16 2.007414 1_555
Fe3 O4 2.092966 1_555
Fe3 O5 2.130829 1_445
Fe3 O20 2.177854 1_545
Fe3 O8 2.221676 1_545
Fe4 O7 1.987894 1_555
Fe4 O20 2.091267 1_555
Fe4 O18 2.156696 1_665
Fe4 O15 2.195361 1_565
Fe4 O4 2.222692 1_565
Fe5 O9 1.896662 1_545
Fe5 O19 1.941515 1_555
Fe5 O21 1.949576 1_545
Fe5 O2 2.036869 1_556
Fe5 O17 2.136854 1_545
Fe6 O12 1.898229 1_655
Fe6 O22 1.922349 1_655
Fe6 O15 1.929128 1_555
Fe6 O0 2.110406 1_555
Fe6 O18 2.111046 1_655
Fe7 O13 1.971301 1_555
Fe7 O1 2.130943 1_455
Fe7 O23 2.152153 1_555
Fe7 O17 2.180689 1_445
Fe7 O19 2.181679 1_455
B0 O14 1.353147 1_555
B0 O3 1.385721 1_555
B0 O2 1.411212 1_455
B1 O16 1.382002 1_655
B1 O4 1.390240 1_555
B1 O5 1.408078 1_555
B2 O10 1.348490 1_545
B2 O0 1.407692 1_555
B2 O6 1.418472 1_555
B3 O11 1.370320 1_545
B3 O1 1.382341 1_555
B3 O8 1.391733 1_545
B4 O12 1.371608 1_565
B4 O22 1.382628 1_555
B4 O15 1.391760 1_565
B5 O13 1.352303 1_565
B5 O17 1.408678 1_555
B5 O23 1.417990 1_555
B6 O7 1.366873 1_455
B6 O20 1.398758 1_555
B6 O18 1.416481 1_555
B7 O9 1.365294 1_455
B7 O19 1.391084 1_455
B7 O21 1.391440 1_555
