# generated using pymatgen
data_Mn6O5F7
_symmetry_space_group_name_H-M   'P 1'
_cell_length_a   5.13948000
_cell_length_b   5.74930642
_cell_length_c   14.55828655
_cell_angle_alpha   86.20939547
_cell_angle_beta   87.92856239
_cell_angle_gamma   89.20789212
_symmetry_Int_Tables_number   1
_chemical_formula_structural   Mn6O5F7
_chemical_formula_sum   'Mn12 O10 F14'
_cell_volume   428.92495739
_cell_formula_units_Z   2
loop_
 _symmetry_equiv_pos_site_id
 _symmetry_equiv_pos_as_xyz
  1  'x, y, z'
loop_
 _atom_site_type_symbol
 _atom_site_label
 _atom_site_symmetry_multiplicity
 _atom_site_fract_x
 _atom_site_fract_y
 _atom_site_fract_z
 _atom_site_occupancy
  Mn  Mn0  1  0.02314000  0.12451700  0.00708600  1
  Mn  Mn1  1  0.50926000  0.89317000  0.17784500  1
  Mn  Mn2  1  0.01989100  0.12514400  0.33873100  1
  Mn  Mn3  1  0.48522100  0.90726000  0.49701900  1
  Mn  Mn4  1  0.01046300  0.10906900  0.66416100  1
  Mn  Mn5  1  0.49509300  0.91710600  0.83412100  1
  Mn  Mn6  1  0.98478100  0.54735700  0.16923100  1
  Mn  Mn7  1  0.52974200  0.42408800  0.99647200  1
  Mn  Mn8  1  0.45587300  0.41976300  0.65764500  1
  Mn  Mn9  1  0.96516000  0.55710200  0.49861500  1
  Mn  Mn10  1  0.50036100  0.39441700  0.33237500  1
  Mn  Mn11  1  0.99579400  0.49525400  0.83518800  1
  O  O0  1  0.32099600  0.13980000  0.40704300  1
  O  O1  1  0.27724800  0.19095700  0.74652000  1
  O  O2  1  0.83349800  0.36280800  0.06862700  1
  O  O3  1  0.18336700  0.35902100  0.25985000  1
  O  O4  1  0.16124600  0.35209000  0.58482800  1
  O  O5  1  0.20817200  0.36817600  0.93253800  1
  O  O6  1  0.81752800  0.34464100  0.40306900  1
  O  O7  1  0.69289800  0.62304000  0.90010300  1
  O  O8  1  0.64157400  0.62225400  0.56464200  1
  O  O9  1  0.67117000  0.60720300  0.23973400  1
  F  F0  1  0.71482300  0.11547400  0.25737300  1
  F  F1  1  0.36894600  0.14995900  0.08467500  1
  F  F2  1  0.67869800  0.12127200  0.59173700  1
  F  F3  1  0.71612200  0.14132600  0.91216400  1
  F  F4  1  0.77633300  0.39977300  0.73132600  1
  F  F5  1  0.32011400  0.63284300  0.09820000  1
  F  F6  1  0.29911500  0.63193600  0.42263900  1
  F  F7  1  0.29947300  0.66738700  0.75799600  1
  F  F8  1  0.83835100  0.87013700  0.41874700  1
  F  F9  1  0.85443400  0.87237200  0.09076100  1
  F  F10  1  0.83167100  0.89104400  0.75081800  1
  F  F11  1  0.15142300  0.84995500  0.57665700  1
  F  F12  1  0.20052700  0.89167300  0.93440200  1
  F  F13  1  0.16749200  0.88061400  0.25706200  1
loop_
_geom_bond_atom_site_label_1
_geom_bond_atom_site_label_2
_geom_bond_distance
_geom_bond_site_symmetry_2
Mn0 O2 1.921412 1_455
Mn0 O5 1.950855 1_554
Mn1 O9 2.006952 1_555
Mn2 O0 1.875343 1_555
Mn2 O3 1.894734 1_555
Mn2 O6 1.897658 1_455
Mn3 O0 2.008185 1_565
Mn3 O8 2.026667 1_555
Mn4 O4 1.907486 1_555
Mn4 O1 1.936650 1_555
Mn5 O7 2.150106 1_555
Mn5 O1 2.268891 1_565
Mn6 O9 1.918736 1_555
Mn6 O3 1.957674 1_655
Mn6 O2 2.045980 1_555
Mn7 O7 1.925906 1_555
Mn7 O2 1.928515 1_556
Mn7 O5 1.966353 1_555
Mn8 O4 1.937764 1_555
Mn8 O8 1.956610 1_555
Mn8 O1 1.992446 1_555
Mn9 O8 1.935172 1_555
Mn9 O4 1.960409 1_655
Mn9 O6 2.080672 1_555
Mn10 O9 1.952489 1_555
Mn10 O6 1.966645 1_555
Mn10 O0 1.982129 1_555
Mn10 O3 1.993083 1_555
Mn11 O5 1.920067 1_655
Mn11 O7 1.951949 1_555
Mn11 O1 2.629283 1_655
F0 Mn2 2.002404 1_655
F0 Mn1 2.100377 1_545
F0 Mn10 2.252719 1_555
F1 Mn1 2.077496 1_545
F1 Mn7 2.123081 1_554
F1 Mn0 2.151774 1_555
F2 Mn4 2.034910 1_655
F2 Mn3 2.182074 1_545
F2 Mn8 2.293719 1_555
F3 Mn0 2.131797 1_656
F3 Mn5 2.137891 1_545
F3 Mn7 2.280933 1_555
F3 Mn11 2.669336 1_555
F4 Mn8 1.995648 1_555
F4 Mn11 2.027314 1_555
F4 Mn4 2.296273 1_655
F5 Mn6 2.026948 1_455
F5 Mn7 2.208722 1_554
F5 Mn1 2.209233 1_555
F6 Mn9 2.043197 1_455
F6 Mn10 2.182051 1_555
F6 Mn3 2.221809 1_555
F7 Mn11 2.108814 1_455
F7 Mn5 2.152004 1_555
F7 Mn8 2.228398 1_555
F8 Mn2 2.027421 1_665
F8 Mn3 2.123640 1_555
F8 Mn9 2.182070 1_555
F9 Mn0 2.015474 1_665
F9 Mn1 2.149493 1_555
F9 Mn6 2.232490 1_555
F10 Mn4 1.935496 1_665
F10 Mn5 2.085845 1_555
F11 Mn3 2.053577 1_555
F11 Mn4 2.126343 1_565
F11 Mn9 2.327712 1_455
F12 Mn0 1.956209 1_566
F12 Mn5 2.064656 1_555
F13 Mn2 2.022846 1_565
F13 Mn1 2.065578 1_555
F13 Mn6 2.578432 1_455
