# generated using pymatgen
data_Li2U(WO5)2
_symmetry_space_group_name_H-M   'P 1'
_cell_length_a   7.62906400
_cell_length_b   7.87309003
_cell_length_c   13.00271762
_cell_angle_alpha   89.94487334
_cell_angle_beta   89.78921716
_cell_angle_gamma   89.51502697
_symmetry_Int_Tables_number   1
_chemical_formula_structural   Li2U(WO5)2
_chemical_formula_sum   'Li8 U4 W8 O40'
_cell_volume   780.96563229
_cell_formula_units_Z   4
loop_
 _symmetry_equiv_pos_site_id
 _symmetry_equiv_pos_as_xyz
  1  'x, y, z'
loop_
 _atom_site_type_symbol
 _atom_site_label
 _atom_site_symmetry_multiplicity
 _atom_site_fract_x
 _atom_site_fract_y
 _atom_site_fract_z
 _atom_site_occupancy
  Li  Li0  1  0.28230500  0.97274700  0.50407300  1
  Li  Li1  1  0.97686700  0.83756000  0.50363400  1
  Li  Li2  1  0.50117200  0.68880000  0.99490300  1
  Li  Li3  1  0.74902300  0.50014700  0.98903700  1
  Li  Li4  1  0.25076300  0.49985500  0.01277100  1
  Li  Li5  1  0.99801100  0.31297500  0.99424000  1
  Li  Li6  1  0.98904900  0.17151700  0.49576200  1
  Li  Li7  1  0.53791900  0.15558600  0.50745100  1
  U  U0  1  0.74884300  0.00029000  0.01868700  1
  U  U1  1  0.25028400  0.00030800  0.98060900  1
  U  U2  1  0.74513400  0.50658400  0.51966800  1
  U  U3  1  0.24800200  0.49961400  0.48072900  1
  W  W0  1  0.50127000  0.97915700  0.74396600  1
  W  W1  1  0.00004900  0.97562200  0.25440500  1
  W  W2  1  0.49861900  0.52445000  0.24244800  1
  W  W3  1  0.99887400  0.52114800  0.75670400  1
  W  W4  1  0.50030600  0.47992300  0.75797300  1
  W  W5  1  0.99952400  0.47560700  0.24245900  1
  W  W6  1  0.49930100  0.02437100  0.25570700  1
  W  W7  1  0.00178500  0.02083700  0.74286300  1
  O  O0  1  0.74925100  0.99982000  0.21411800  1
  O  O1  1  0.75175800  0.99958200  0.73037500  1
  O  O2  1  0.24895500  0.99812200  0.25803300  1
  O  O3  1  0.25013500  0.99999500  0.78995900  1
  O  O4  1  0.97037300  0.99572100  0.39268800  1
  O  O5  1  0.53060600  0.99216800  0.90109000  1
  O  O6  1  0.02603600  0.00045100  0.09677500  1
  O  O7  1  0.44681500  0.01156200  0.61029900  1
  O  O8  1  0.99904500  0.75562600  0.75198300  1
  O  O9  1  0.50299900  0.75851700  0.25331500  1
  O  O10  1  0.73986900  0.76301200  0.02057400  1
  O  O11  1  0.26067500  0.76338200  0.97793400  1
  O  O12  1  0.99944500  0.74104700  0.24835600  1
  O  O13  1  0.49821300  0.74583200  0.74522900  1
  O  O14  1  0.22740800  0.73585400  0.47917400  1
  O  O15  1  0.75219400  0.73897100  0.52266800  1
  O  O16  1  0.52570000  0.50053900  0.40182300  1
  O  O17  1  0.94936600  0.48972000  0.89196300  1
  O  O18  1  0.02989900  0.50165300  0.59944500  1
  O  O19  1  0.45162300  0.52205100  0.10587500  1
  O  O20  1  0.74925900  0.50217800  0.71105200  1
  O  O21  1  0.74940000  0.50009900  0.23100500  1
  O  O22  1  0.24914200  0.49989000  0.77050700  1
  O  O23  1  0.24863300  0.50034900  0.28726300  1
  O  O24  1  0.54809200  0.51295500  0.89304400  1
  O  O25  1  0.04695400  0.48060800  0.10577300  1
  O  O26  1  0.46719100  0.49382500  0.59960400  1
  O  O27  1  0.96922600  0.49371700  0.40210800  1
  O  O28  1  0.75394300  0.26904600  0.52237800  1
  O  O29  1  0.00074900  0.25448300  0.74609500  1
  O  O30  1  0.49862300  0.25960400  0.24475000  1
  O  O31  1  0.24916700  0.26111600  0.48035000  1
  O  O32  1  0.75967200  0.23756000  0.02039500  1
  O  O33  1  0.23813200  0.23737000  0.97782600  1
  O  O34  1  0.99766300  0.24161700  0.25234000  1
  O  O35  1  0.50492600  0.24637500  0.75652700  1
  O  O36  1  0.96973600  0.00773200  0.90022000  1
  O  O37  1  0.05442600  0.00183800  0.60535300  1
  O  O38  1  0.47268200  0.99969100  0.09562800  1
  O  O39  1  0.52126900  0.01433100  0.39304400  1
loop_
_geom_bond_atom_site_label_1
_geom_bond_atom_site_label_2
_geom_bond_distance
_geom_bond_site_symmetry_2
Li0 O7 1.896419 1_565
Li0 O14 1.942711 1_555
Li0 O37 2.187719 1_565
Li0 O31 2.302843 1_565
Li0 O39 2.346234 1_565
Li1 O15 1.902819 1_555
Li1 O4 1.905291 1_555
Li1 O37 1.947889 1_665
Li1 O14 2.089467 1_655
Li2 O11 1.935029 1_555
Li2 O24 1.946951 1_555
Li2 O10 1.947261 1_556
Li2 O19 1.987266 1_556
Li3 O17 1.979882 1_555
Li3 O24 1.982207 1_555
Li3 O32 2.107760 1_556
Li3 O10 2.110707 1_556
Li4 O19 1.965416 1_555
Li4 O25 1.973004 1_555
Li4 O33 2.119422 1_554
Li4 O11 2.125130 1_554
Li5 O33 1.932519 1_655
Li5 O32 1.946217 1_556
Li5 O17 1.958057 1_555
Li5 O25 2.000112 1_656
Li6 O4 1.934032 1_545
Li6 O28 1.974624 1_555
Li6 O37 2.013516 1_655
Li6 O31 2.120459 1_655
Li7 O39 1.863560 1_555
Li7 O7 1.887009 1_555
Li7 O28 1.891913 1_555
Li7 O31 2.375173 1_555
O0 W6 1.988059 1_565
O0 W1 1.993148 1_655
O0 U0 2.541147 1_565
O1 W7 1.923682 1_665
O1 W0 1.926559 1_555
O2 W1 1.909417 1_555
O2 W6 1.922916 1_565
O3 W7 1.998703 1_565
O3 W0 2.010414 1_555
O3 U1 2.478976 1_565
O4 W1 1.818308 1_655
O5 W0 2.058822 1_555
O5 U0 2.266040 1_566
O5 U1 2.372406 1_565
O6 W1 2.067692 1_545
O6 U1 2.278011 1_554
O6 U0 2.349223 1_455
O7 W0 1.805854 1_545
O8 W3 1.847039 1_555
O8 W7 2.091558 1_665
O9 W2 1.848969 1_555
O9 W6 2.093303 1_565
O10 U0 1.870078 1_565
O11 U1 1.866705 1_565
O12 W1 1.848625 1_655
O12 W5 2.091308 1_555
O13 W0 1.837391 1_555
O13 W4 2.099845 1_555
O14 U3 1.865334 1_555
O15 U2 1.831309 1_555
O16 W2 2.091489 1_555
O16 U2 2.274449 1_555
O16 U3 2.350602 1_555
O17 W3 1.814631 1_555
O18 W3 2.063297 1_455
O18 U3 2.265477 1_555
O18 U2 2.410877 1_455
O19 W2 1.813093 1_555
O20 W4 2.001770 1_555
O20 W3 2.003606 1_555
O20 U2 2.489031 1_555
O21 W5 1.922614 1_555
O21 W2 1.926414 1_555
O22 W3 1.924252 1_455
O22 W4 1.927574 1_555
O23 W5 2.000937 1_455
O23 W2 2.002637 1_555
O23 U3 2.515572 1_555
O24 W4 1.814467 1_555
O25 W5 1.812903 1_455
O26 W4 2.078256 1_555
O26 U3 2.281475 1_555
O26 U2 2.360908 1_555
O27 W5 2.092720 1_555
O27 U2 2.290806 1_555
O27 U3 2.363951 1_655
O28 U2 1.871099 1_555
O29 W7 1.839986 1_555
O29 W3 2.104061 1_455
O30 W6 1.857311 1_555
O30 W2 2.085342 1_555
O31 U3 1.877673 1_555
O32 U0 1.870729 1_555
O33 U1 1.868250 1_555
O34 W5 1.846747 1_555
O34 W1 2.094275 1_645
O35 W4 1.838897 1_555
O35 W0 2.110746 1_545
O36 W7 2.062320 1_655
O36 U0 2.280036 1_556
O36 U1 2.385625 1_655
O37 W7 1.837071 1_555
O38 W6 2.101437 1_565
O38 U1 2.265831 1_564
O38 U0 2.329029 1_565
O39 W6 1.795818 1_555
