# generated using pymatgen
data_Li4CrGa3O8
_symmetry_space_group_name_H-M   'P 1'
_cell_length_a   5.55319037
_cell_length_b   8.23816382
_cell_length_c   8.20963463
_cell_angle_alpha   104.59526245
_cell_angle_beta   91.56232347
_cell_angle_gamma   88.52521273
_symmetry_Int_Tables_number   1
_chemical_formula_structural   Li4CrGa3O8
_chemical_formula_sum   'Li8 Cr2 Ga6 O16'
_cell_volume   363.25109924
_cell_formula_units_Z   2
loop_
 _symmetry_equiv_pos_site_id
 _symmetry_equiv_pos_as_xyz
  1  'x, y, z'
loop_
 _atom_site_type_symbol
 _atom_site_label
 _atom_site_symmetry_multiplicity
 _atom_site_fract_x
 _atom_site_fract_y
 _atom_site_fract_z
 _atom_site_occupancy
  Li  Li0  1  0.08001900  0.80781400  0.18314700  1
  Li  Li1  1  0.08010600  0.30780600  0.68320400  1
  Li  Li2  1  0.41795600  0.30924600  0.18695600  1
  Li  Li3  1  0.41812200  0.80927500  0.68702400  1
  Li  Li4  1  0.58007300  0.93079000  0.05953500  1
  Li  Li5  1  0.58002000  0.43090200  0.55966000  1
  Li  Li6  1  0.91734600  0.43801600  0.05781500  1
  Li  Li7  1  0.91731900  0.93805900  0.55785100  1
  Cr  Cr0  1  0.91373600  0.18626100  0.30490100  1
  Cr  Cr1  1  0.91422400  0.68625500  0.80475800  1
  Ga  Ga0  1  0.09079300  0.06688600  0.93440900  1
  Ga  Ga1  1  0.09084500  0.56697100  0.43444200  1
  Ga  Ga2  1  0.41134100  0.55863200  0.93911000  1
  Ga  Ga3  1  0.41117100  0.05854900  0.43891600  1
  Ga  Ga4  1  0.58268800  0.18514400  0.81446900  1
  Ga  Ga5  1  0.58272800  0.68512000  0.31453600  1
  O  O0  1  0.08478600  0.24796600  0.12749700  1
  O  O1  1  0.08498200  0.74806400  0.62749000  1
  O  O2  1  0.08706800  0.51349700  0.87899100  1
  O  O3  1  0.08688300  0.01353400  0.37897700  1
  O  O4  1  0.41243400  0.51597600  0.37651800  1
  O  O5  1  0.41242700  0.01599000  0.87651200  1
  O  O6  1  0.42663900  0.74058100  0.13055200  1
  O  O7  1  0.42664000  0.24051400  0.63041700  1
  O  O8  1  0.57065000  0.37643900  0.99597200  1
  O  O9  1  0.57061600  0.87646600  0.49598000  1
  O  O10  1  0.58178900  0.62009600  0.77285200  1
  O  O11  1  0.58168600  0.12000400  0.27277600  1
  O  O12  1  0.90611800  0.62982000  0.26434500  1
  O  O13  1  0.90608700  0.12980100  0.76433000  1
  O  O14  1  0.93633300  0.88589200  0.98617400  1
  O  O15  1  0.93638100  0.38603700  0.48629400  1
loop_
_geom_bond_atom_site_label_1
_geom_bond_atom_site_label_2
_geom_bond_distance
_geom_bond_site_symmetry_2
Li0 O6 2.016969 1_555
Li0 O3 2.021174 1_565
Li0 O14 2.023059 1_454
Li0 O12 2.031682 1_455
Li1 O7 2.016880 1_555
Li1 O2 2.020826 1_555
Li1 O15 2.023330 1_455
Li1 O13 2.031777 1_455
Li2 O0 1.947011 1_555
Li2 O4 1.996860 1_555
Li2 O8 2.004449 1_554
Li2 O11 2.049209 1_555
Li3 O1 1.946826 1_555
Li3 O5 1.996450 1_565
Li3 O9 2.004366 1_555
Li3 O10 2.048664 1_555
Li4 O5 2.009631 1_564
Li4 O6 2.019293 1_555
Li4 O11 2.029571 1_565
Li4 O14 2.080518 1_554
Li5 O4 2.009746 1_555
Li5 O7 2.019369 1_555
Li5 O10 2.029211 1_555
Li5 O15 2.081043 1_555
Li6 O0 1.997645 1_655
Li6 O2 1.998980 1_654
Li6 O12 2.006477 1_555
Li6 O8 2.022111 1_554
Li7 O1 1.997639 1_655
Li7 O3 1.998856 1_665
Li7 O13 2.005914 1_565
Li7 O9 2.022214 1_555
Cr0 O3 1.911269 1_655
Cr0 O15 1.925440 1_555
Cr0 O11 1.928817 1_555
Cr0 O0 1.937845 1_655
Cr1 O2 1.911313 1_655
Cr1 O14 1.924593 1_555
Cr1 O10 1.930579 1_555
Cr1 O1 1.936476 1_655
Ga0 O5 1.870606 1_555
Ga0 O13 1.878723 1_455
Ga0 O14 1.882722 1_445
Ga0 O0 1.883570 1_556
Ga1 O4 1.870527 1_555
Ga1 O12 1.878657 1_455
Ga1 O15 1.882620 1_455
Ga1 O1 1.883405 1_555
Ga2 O10 1.859769 1_555
Ga2 O8 1.874999 1_555
Ga2 O2 1.875651 1_555
Ga2 O6 1.880461 1_556
Ga3 O11 1.859143 1_555
Ga3 O9 1.875291 1_545
Ga3 O3 1.875300 1_555
Ga3 O7 1.880886 1_555
Ga4 O7 1.870225 1_555
Ga4 O13 1.872465 1_555
Ga4 O8 1.877460 1_555
Ga4 O5 1.883371 1_555
Ga5 O6 1.870172 1_555
Ga5 O12 1.872438 1_555
Ga5 O9 1.877461 1_555
Ga5 O4 1.883164 1_555
