# generated using pymatgen
data_Li3Fe8(BO3)8
_symmetry_space_group_name_H-M   'P 1'
_cell_length_a   5.24353100
_cell_length_b   9.12033141
_cell_length_c   11.41571581
_cell_angle_alpha   113.06072985
_cell_angle_beta   103.10920927
_cell_angle_gamma   89.34529846
_symmetry_Int_Tables_number   1
_chemical_formula_structural   Li3Fe8(BO3)8
_chemical_formula_sum   'Li3 Fe8 B8 O24'
_cell_volume   487.38625419
_cell_formula_units_Z   1
loop_
 _symmetry_equiv_pos_site_id
 _symmetry_equiv_pos_as_xyz
  1  'x, y, z'
loop_
 _atom_site_type_symbol
 _atom_site_label
 _atom_site_symmetry_multiplicity
 _atom_site_fract_x
 _atom_site_fract_y
 _atom_site_fract_z
 _atom_site_occupancy
  Li  Li0  1  0.02932100  0.03416700  0.40657000  1
  Li  Li1  1  0.49010700  0.50672200  0.66057300  1
  Li  Li2  1  0.76689900  0.74770700  0.15926800  1
  Fe  Fe0  1  0.01242300  0.35982500  0.37088000  1
  Fe  Fe1  1  0.26914600  0.93869400  0.88699300  1
  Fe  Fe2  1  0.49324200  0.14760000  0.63348700  1
  Fe  Fe3  1  0.23114500  0.55914800  0.12412900  1
  Fe  Fe4  1  0.76037400  0.43484100  0.88077000  1
  Fe  Fe5  1  0.51721700  0.84085800  0.38362700  1
  Fe  Fe6  1  0.97662200  0.66088200  0.63099800  1
  Fe  Fe7  1  0.75007600  0.06638200  0.12579100  1
  B  B0  1  0.03258800  0.68771700  0.37427900  1
  B  B1  1  0.25507400  0.60471100  0.87220200  1
  B  B2  1  0.47208500  0.81378600  0.63213900  1
  B  B3  1  0.24165700  0.88503900  0.12858500  1
  B  B4  1  0.52017500  0.18925300  0.38540700  1
  B  B5  1  0.76714600  0.09811100  0.87204000  1
  B  B6  1  0.97948200  0.31641800  0.61936300  1
  B  B7  1  0.72859600  0.40658800  0.13344700  1
  O  O0  1  0.02500000  0.08412000  0.87387400  1
  O  O1  1  0.10651400  0.71325500  0.82817300  1
  O  O2  1  0.14144500  0.52985500  0.93483100  1
  O  O3  1  0.12697100  0.19004400  0.61131900  1
  O  O4  1  0.06966300  0.43727900  0.58604200  1
  O  O5  1  0.24334400  0.83333500  0.67686400  1
  O  O6  1  0.25164600  0.64848900  0.32163300  1
  O  O7  1  0.49516700  0.57644000  0.84728000  1
  O  O8  1  0.62911900  0.20094300  0.82071100  1
  O  O9  1  0.44004400  0.07390000  0.42695500  1
  O  O10  1  0.36246500  0.30646100  0.37956600  1
  O  O11  1  0.63501000  0.01392500  0.92180900  1
  O  O12  1  0.35670600  0.97418700  0.07630700  1
  O  O13  1  0.61529600  0.68567200  0.62952300  1
  O  O14  1  0.55053000  0.92246700  0.58747500  1
  O  O15  1  0.40038200  0.77622500  0.16570500  1
  O  O16  1  0.46923500  0.40720000  0.12687900  1
  O  O17  1  0.73887300  0.33024200  0.65437800  1
  O  O18  1  0.76625800  0.17955300  0.35360500  1
  O  O19  1  0.95444600  0.59005600  0.43273700  1
  O  O20  1  0.89704900  0.81248200  0.36519800  1
  O  O21  1  0.84936300  0.50898100  0.09265700  1
  O  O22  1  0.88020000  0.30622000  0.18220400  1
  O  O23  1  0.99145900  0.90103600  0.14512900  1
loop_
_geom_bond_atom_site_label_1
_geom_bond_atom_site_label_2
_geom_bond_distance
_geom_bond_site_symmetry_2
Li0 O20 1.981746 1_445
Li0 O18 2.057771 1_455
Li0 O9 2.132619 1_555
Li0 O3 2.148730 1_555
Li1 O13 1.950251 1_555
Li1 O7 1.964908 1_555
Li1 O17 2.049842 1_555
Li1 O4 2.178125 1_555
Li2 O23 1.915398 1_555
Li2 O15 1.950434 1_555
Li2 O21 2.082370 1_555
Li2 O20 2.129470 1_555
Fe0 O10 1.884261 1_555
Fe0 O22 1.965776 1_455
Fe0 O19 1.980235 1_455
Fe0 O18 2.021684 1_455
Fe0 O4 2.221101 1_555
Fe1 O0 1.857501 1_565
Fe1 O11 1.944131 1_565
Fe1 O12 1.997852 1_556
Fe1 O1 2.025904 1_555
Fe1 O5 2.178474 1_555
Fe2 O3 1.934348 1_555
Fe2 O14 1.947994 1_545
Fe2 O8 1.953180 1_555
Fe2 O17 2.022120 1_555
Fe2 O9 2.133738 1_555
Fe3 O16 1.859253 1_555
Fe3 O21 1.977844 1_455
Fe3 O15 2.011309 1_555
Fe3 O2 2.012940 1_554
Fe3 O6 2.052256 1_555
Fe4 O7 1.962745 1_555
Fe4 O8 2.041594 1_555
Fe4 O2 2.045887 1_655
Fe4 O21 2.177072 1_556
Fe4 O17 2.353899 1_555
Fe5 O6 2.038190 1_555
Fe5 O9 2.042881 1_565
Fe5 O20 2.052702 1_555
Fe5 O14 2.112210 1_555
Fe5 O15 2.253818 1_555
Fe6 O13 1.902557 1_555
Fe6 O5 1.943415 1_655
Fe6 O4 1.982723 1_655
Fe6 O1 2.056279 1_655
Fe6 O19 2.071295 1_555
Fe7 O23 2.003811 1_545
Fe7 O22 2.096715 1_555
Fe7 O12 2.102291 1_545
Fe7 O11 2.124104 1_554
Fe7 O18 2.373810 1_555
B0 O20 1.360576 1_455
B0 O6 1.394224 1_555
B0 O19 1.415844 1_455
B1 O7 1.352748 1_555
B1 O2 1.384620 1_555
B1 O1 1.426195 1_555
B2 O13 1.375802 1_555
B2 O14 1.382762 1_555
B2 O5 1.390193 1_555
B3 O23 1.365476 1_455
B3 O12 1.391332 1_555
B3 O15 1.416951 1_555
B4 O10 1.357070 1_555
B4 O18 1.410440 1_555
B4 O9 1.414124 1_555
B5 O0 1.352816 1_655
B5 O11 1.387385 1_555
B5 O8 1.403347 1_555
B6 O3 1.365238 1_655
B6 O17 1.397517 1_555
B6 O4 1.416096 1_655
B7 O16 1.345015 1_555
B7 O22 1.400529 1_555
B7 O21 1.406362 1_555
