# generated using pymatgen
data_Eu6WO12
_symmetry_space_group_name_H-M   'P 1'
_cell_length_a   6.62950305
_cell_length_b   6.62950305
_cell_length_c   6.62950328
_cell_angle_alpha   98.32741633
_cell_angle_beta   98.32741633
_cell_angle_gamma   98.32741169
_symmetry_Int_Tables_number   1
_chemical_formula_structural   Eu6WO12
_chemical_formula_sum   'Eu6 W1 O12'
_cell_volume   281.13645050
_cell_formula_units_Z   1
loop_
 _symmetry_equiv_pos_site_id
 _symmetry_equiv_pos_as_xyz
  1  'x, y, z'
loop_
 _atom_site_type_symbol
 _atom_site_label
 _atom_site_symmetry_multiplicity
 _atom_site_fract_x
 _atom_site_fract_y
 _atom_site_fract_z
 _atom_site_occupancy
  Eu  Eu0  1  0.13928100  0.30322900  0.60558100  1
  Eu  Eu1  1  0.39441900  0.86071900  0.69677100  1
  Eu  Eu2  1  0.69677100  0.39441900  0.86071900  1
  Eu  Eu3  1  0.30322900  0.60558100  0.13928100  1
  Eu  Eu4  1  0.60558100  0.13928100  0.30322900  1
  Eu  Eu5  1  0.86071900  0.69677100  0.39441900  1
  W  W0  1  0.00000000  0.00000000  0.00000000  1
  O  O0  1  0.07313100  0.29010500  0.96699500  1
  O  O1  1  0.03300500  0.92686900  0.70989500  1
  O  O2  1  0.40644300  0.56633100  0.82363900  1
  O  O3  1  0.17636100  0.59355700  0.43366900  1
  O  O4  1  0.70989500  0.03300500  0.92686900  1
  O  O5  1  0.43366900  0.17636100  0.59355700  1
  O  O6  1  0.56633100  0.82363900  0.40644300  1
  O  O7  1  0.29010500  0.96699500  0.07313100  1
  O  O8  1  0.82363900  0.40644300  0.56633100  1
  O  O9  1  0.59355700  0.43366900  0.17636100  1
  O  O10  1  0.96699500  0.07313100  0.29010500  1
  O  O11  1  0.92686900  0.70989500  0.03300500  1
loop_
_geom_bond_atom_site_label_1
_geom_bond_atom_site_label_2
_geom_bond_distance
_geom_bond_site_symmetry_2
Eu0 O5 2.241381 1_555
Eu0 O8 2.285450 1_455
Eu0 O3 2.375586 1_555
Eu0 O10 2.425888 1_455
Eu0 O2 2.429460 1_555
Eu0 O0 2.508859 1_555
Eu0 O1 2.707729 1_545
Eu1 O2 2.241381 1_555
Eu1 O5 2.285450 1_565
Eu1 O6 2.375586 1_555
Eu1 O4 2.425888 1_565
Eu1 O3 2.429460 1_555
Eu1 O1 2.508859 1_555
Eu1 O7 2.707729 1_556
Eu2 O8 2.241381 1_555
Eu2 O9 2.285450 1_556
Eu2 O2 2.375586 1_555
Eu2 O11 2.425888 1_556
Eu2 O5 2.429460 1_555
Eu2 O4 2.508859 1_555
Eu2 O0 2.707729 1_655
Eu3 O3 2.241381 1_555
Eu3 O2 2.285450 1_554
Eu3 O9 2.375586 1_555
Eu3 O0 2.425888 1_554
Eu3 O6 2.429460 1_555
Eu3 O7 2.508859 1_555
Eu3 O11 2.707729 1_455
Eu4 O9 2.241381 1_555
Eu4 O6 2.285450 1_545
Eu4 O5 2.375586 1_555
Eu4 O7 2.425888 1_545
Eu4 O8 2.429460 1_555
Eu4 O10 2.508859 1_555
Eu4 O4 2.707729 1_554
Eu5 O6 2.241381 1_555
Eu5 O3 2.285450 1_655
Eu5 O8 2.375586 1_555
Eu5 O1 2.425888 1_655
Eu5 O9 2.429460 1_555
Eu5 O11 2.508859 1_555
Eu5 O10 2.707729 1_565
O0 W0 1.965798 1_556
O1 W0 1.965798 1_566
O4 W0 1.965798 1_656
O7 W0 1.965798 1_565
O10 W0 1.965798 1_655
O11 W0 1.965798 1_665
