# generated using pymatgen
data_Li7(NiO2)9
_symmetry_space_group_name_H-M   'P 1'
_cell_length_a   5.76975526
_cell_length_b   6.35008762
_cell_length_c   8.58090001
_cell_angle_alpha   102.80794846
_cell_angle_beta   89.62831454
_cell_angle_gamma   103.81669635
_symmetry_Int_Tables_number   1
_chemical_formula_structural   Li7(NiO2)9
_chemical_formula_sum   'Li7 Ni9 O18'
_cell_volume   297.33929513
_cell_formula_units_Z   1
loop_
 _symmetry_equiv_pos_site_id
 _symmetry_equiv_pos_as_xyz
  1  'x, y, z'
loop_
 _atom_site_type_symbol
 _atom_site_label
 _atom_site_symmetry_multiplicity
 _atom_site_fract_x
 _atom_site_fract_y
 _atom_site_fract_z
 _atom_site_occupancy
  Li  Li0  1  0.65584432  0.65897246  0.10146070  1
  Li  Li1  1  0.00000000  0.00000000  -0.00000000  1
  Li  Li2  1  0.34415568  0.34102754  0.89853930  1
  Li  Li3  1  0.99783468  0.99382914  0.67026479  1
  Li  Li4  1  0.34015851  0.34492104  0.55533278  1
  Li  Li5  1  0.65984149  0.65507896  0.44466722  1
  Li  Li6  1  0.00216532  0.00617086  0.32973521  1
  Ni  Ni0  1  0.83133580  0.32977816  0.22270929  1
  Ni  Ni1  1  0.15984470  0.66585072  0.11238419  1
  Ni  Ni2  1  0.50000000  0.00000000  -0.00000000  1
  Ni  Ni3  1  0.84015530  0.33414928  0.88761581  1
  Ni  Ni4  1  0.16866420  0.67022184  0.77729071  1
  Ni  Ni5  1  0.83583702  0.33335594  0.55924341  1
  Ni  Ni6  1  0.51324207  0.99722302  0.66731860  1
  Ni  Ni7  1  0.16416298  0.66664406  0.44075659  1
  Ni  Ni8  1  0.48675793  0.00277698  0.33268140  1
  O  O0  1  0.93850092  0.66034500  0.27842691  1
  O  O1  1  0.38648651  0.68615082  0.27799496  1
  O  O2  1  0.70558035  0.99948920  0.17085953  1
  O  O3  1  0.60923112  0.31719363  0.03761631  1
  O  O4  1  0.23173667  0.97243854  0.15994961  1
  O  O5  1  0.06719249  0.34989531  0.04536415  1
  O  O6  1  0.39076888  0.68280637  0.96238369  1
  O  O7  1  0.93280751  0.65010469  0.95463585  1
  O  O8  1  0.76826333  0.02756146  0.84005039  1
  O  O9  1  0.29441965  0.00051080  0.82914047  1
  O  O10  1  0.06149908  0.33965500  0.72157309  1
  O  O11  1  0.61351349  0.31384918  0.72200504  1
  O  O12  1  0.39691828  0.68195769  0.59427737  1
  O  O13  1  0.93505076  0.64855525  0.59463580  1
  O  O14  1  0.74313157  0.01830170  0.51081273  1
  O  O15  1  0.25686843  0.98169830  0.48918727  1
  O  O16  1  0.60308172  0.31804231  0.40572263  1
  O  O17  1  0.06494924  0.35144475  0.40536420  1
loop_
_geom_bond_atom_site_label_1
_geom_bond_atom_site_label_2
_geom_bond_distance
_geom_bond_site_symmetry_2
Li0 O6 2.000143 1_554
Li0 O7 2.032125 1_554
Li0 O2 2.060946 1_555
Li0 O3 2.068509 1_555
Li0 O1 2.172888 1_555
Li0 O0 2.232752 1_555
Li1 O8 1.986012 1_454
Li1 O4 1.986012 1_545
Li1 O7 2.108455 1_444
Li1 O5 2.108455 1_555
Li1 O9 2.236602 1_554
Li1 O2 2.236602 1_445
Li2 O3 2.000143 1_556
Li2 O5 2.032125 1_556
Li2 O9 2.060946 1_555
Li2 O6 2.068509 1_555
Li2 O11 2.172888 1_555
Li2 O10 2.232752 1_555
Li3 O8 1.973596 1_565
Li3 O14 2.070103 1_565
Li3 O10 2.083131 1_665
Li3 O13 2.086232 1_555
Li3 O15 2.150758 1_655
Li3 O9 2.181422 1_665
Li4 O16 1.994943 1_555
Li4 O12 2.036904 1_555
Li4 O17 2.064146 1_555
Li4 O10 2.141663 1_555
Li4 O15 2.183281 1_545
Li4 O11 2.207928 1_555
Li5 O12 1.994943 1_555
Li5 O16 2.036904 1_555
Li5 O13 2.064146 1_555
Li5 O0 2.141663 1_555
Li5 O14 2.183281 1_565
Li5 O1 2.207928 1_555
Li6 O4 1.973596 1_545
Li6 O15 2.070103 1_545
Li6 O0 2.083131 1_445
Li6 O17 2.086232 1_555
Li6 O14 2.150758 1_455
Li6 O2 2.181422 1_445
Ni0 O0 1.989014 1_555
Ni0 O2 1.996734 1_545
Ni0 O3 2.022970 1_555
Ni0 O17 2.033601 1_655
Ni0 O5 2.039681 1_655
Ni0 O16 2.045571 1_555
Ni1 O4 1.842032 1_555
Ni1 O6 1.847761 1_554
Ni1 O7 1.859757 1_454
Ni1 O1 1.899601 1_555
Ni1 O5 1.903170 1_555
Ni1 O0 1.907721 1_455
Ni2 O9 1.892881 1_554
Ni2 O2 1.892881 1_545
Ni2 O6 1.914806 1_544
Ni2 O3 1.914806 1_555
Ni2 O8 2.063904 1_554
Ni2 O4 2.063904 1_545
Ni3 O8 1.842032 1_555
Ni3 O3 1.847761 1_556
Ni3 O5 1.859757 1_656
Ni3 O11 1.899601 1_555
Ni3 O7 1.903170 1_555
Ni3 O10 1.907721 1_655
Ni4 O10 1.989014 1_555
Ni4 O9 1.996734 1_565
Ni4 O6 2.022970 1_555
Ni4 O13 2.033601 1_455
Ni4 O7 2.039681 1_455
Ni4 O12 2.045571 1_555
Ni5 O16 1.857991 1_555
Ni5 O17 1.864473 1_655
Ni5 O14 1.893262 1_555
Ni5 O11 1.894458 1_555
Ni5 O10 1.900279 1_655
Ni5 O13 1.900418 1_555
Ni6 O9 1.870725 1_565
Ni6 O14 1.884835 1_565
Ni6 O11 1.904484 1_565
Ni6 O12 1.912724 1_555
Ni6 O8 2.040922 1_565
Ni6 O15 2.104058 1_555
Ni7 O12 1.857991 1_555
Ni7 O13 1.864473 1_455
Ni7 O15 1.893262 1_555
Ni7 O1 1.894458 1_555
Ni7 O0 1.900279 1_455
Ni7 O17 1.900418 1_555
Ni8 O2 1.870725 1_545
Ni8 O15 1.884835 1_545
Ni8 O1 1.904484 1_545
Ni8 O16 1.912724 1_555
Ni8 O4 2.040922 1_545
Ni8 O14 2.104058 1_555
