# generated using pymatgen
data_Na13Ni11O24
_symmetry_space_group_name_H-M   'P 1'
_cell_length_a   8.12968600
_cell_length_b   8.21773060
_cell_length_c   9.04936912
_cell_angle_alpha   107.19798918
_cell_angle_beta   102.46081322
_cell_angle_gamma   111.59198099
_symmetry_Int_Tables_number   1
_chemical_formula_structural   Na13Ni11O24
_chemical_formula_sum   'Na13 Ni11 O24'
_cell_volume   499.87234239
_cell_formula_units_Z   1
loop_
 _symmetry_equiv_pos_site_id
 _symmetry_equiv_pos_as_xyz
  1  'x, y, z'
loop_
 _atom_site_type_symbol
 _atom_site_label
 _atom_site_symmetry_multiplicity
 _atom_site_fract_x
 _atom_site_fract_y
 _atom_site_fract_z
 _atom_site_occupancy
  Na  Na0  1  0.25354500  0.61675600  0.87068700  1
  Na  Na1  1  0.08135100  0.71042700  0.12259000  1
  Na  Na2  1  0.91566000  0.79022700  0.38300600  1
  Na  Na3  1  0.00000000  0.00000000  0.00000000  1
  Na  Na4  1  0.75537400  0.87912700  0.63022400  1
  Na  Na5  1  0.41288900  0.03977200  0.12108100  1
  Na  Na6  1  0.58711100  0.96022800  0.87891900  1
  Na  Na7  1  0.08434000  0.20977300  0.61699400  1
  Na  Na8  1  0.24462600  0.12087300  0.36977600  1
  Na  Na9  1  0.91864900  0.28957300  0.87741000  1
  Na  Na10  1  0.58507500  0.46065300  0.37885700  1
  Na  Na11  1  0.41492500  0.53934700  0.62114300  1
  Na  Na12  1  0.74645500  0.38324400  0.12931300  1
  Ni  Ni0  1  0.66813000  0.66836000  0.00201400  1
  Ni  Ni1  1  0.33403200  0.83336400  0.49878400  1
  Ni  Ni2  1  0.49730400  0.74929200  0.24913500  1
  Ni  Ni3  1  0.17122300  0.91648000  0.74645100  1
  Ni  Ni4  1  0.66596800  0.16663600  0.50121600  1
  Ni  Ni5  1  0.82877700  0.08352000  0.25354900  1
  Ni  Ni6  1  0.33187000  0.33164000  0.99798600  1
  Ni  Ni7  1  0.00000000  0.50000000  0.50000000  1
  Ni  Ni8  1  0.16223300  0.41438800  0.24860000  1
  Ni  Ni9  1  0.50269600  0.25070800  0.75086500  1
  Ni  Ni10  1  0.83776700  0.58561200  0.75140000  1
  O  O0  1  0.06197100  0.58714300  0.33358000  1
  O  O1  1  0.89218300  0.66820500  0.58002800  1
  O  O2  1  0.43666400  0.66300200  0.41569700  1
  O  O3  1  0.27538400  0.74725300  0.66549100  1
  O  O4  1  0.91516800  0.89521200  0.18317000  1
  O  O5  1  0.11148500  0.80433000  0.89796100  1
  O  O6  1  0.71269400  0.73628800  0.82175500  1
  O  O7  1  0.23287200  0.00411200  0.58008800  1
  O  O8  1  0.39214200  0.91925900  0.32987800  1
  O  O9  1  0.55674900  0.83273000  0.07970800  1
  O  O10  1  0.88851500  0.19567000  0.10203900  1
  O  O11  1  0.08483200  0.10478800  0.81683000  1
  O  O12  1  0.76712800  0.99588800  0.41991200  1
  O  O13  1  0.60785800  0.08074100  0.67012200  1
  O  O14  1  0.10781700  0.33179500  0.41997200  1
  O  O15  1  0.28730600  0.26371200  0.17824500  1
  O  O16  1  0.44325100  0.16727000  0.92029200  1
  O  O17  1  0.93802900  0.41285700  0.66642000  1
  O  O18  1  0.72461600  0.25274700  0.33450900  1
  O  O19  1  0.56333600  0.33699800  0.58430300  1
  O  O20  1  0.40424600  0.42472700  0.83577400  1
  O  O21  1  0.22404100  0.49844900  0.07944000  1
  O  O22  1  0.59575400  0.57527300  0.16422600  1
  O  O23  1  0.77595900  0.50155100  0.92056000  1
loop_
_geom_bond_atom_site_label_1
_geom_bond_atom_site_label_2
_geom_bond_distance
_geom_bond_site_symmetry_2
Na0 O5 2.231362 1_555
Na0 O20 2.320811 1_555
Na0 O9 2.363613 1_556
Na0 O21 2.383558 1_556
Na0 O17 2.400620 1_455
Na0 O3 2.410249 1_555
Na1 O23 2.345586 1_454
Na1 O8 2.389031 1_555
Na1 O4 2.401855 1_455
Na1 O5 2.406435 1_554
Na1 O21 2.411036 1_555
Na1 O0 2.419293 1_555
Na2 O4 2.221853 1_555
Na2 O1 2.298687 1_555
Na2 O0 2.376813 1_655
Na2 O7 2.397076 1_665
Na2 O12 2.401711 1_555
Na2 O22 2.476400 1_555
Na3 O5 2.194397 1_544
Na3 O10 2.194397 1_455
Na3 O4 2.205677 1_445
Na3 O11 2.205677 1_554
Na3 O6 2.309841 1_444
Na3 O15 2.309841 1_555
Na4 O13 2.368350 1_565
Na4 O1 2.370434 1_555
Na4 O12 2.375460 1_555
Na4 O6 2.380167 1_555
Na4 O11 2.450520 1_665
Na4 O2 2.457649 1_555
Na5 O16 2.364155 1_554
Na5 O9 2.383190 1_545
Na5 O8 2.387575 1_545
Na5 O15 2.396733 1_555
Na5 O18 2.416655 1_555
Na5 O5 2.426905 1_544
Na6 O9 2.364155 1_556
Na6 O16 2.383190 1_565
Na6 O13 2.387575 1_565
Na6 O6 2.396733 1_555
Na6 O3 2.416655 1_555
Na6 O10 2.426905 1_566
Na7 O11 2.221853 1_555
Na7 O14 2.298687 1_555
Na7 O17 2.376813 1_455
Na7 O12 2.397076 1_445
Na7 O7 2.401711 1_555
Na7 O20 2.476400 1_555
Na8 O8 2.368350 1_545
Na8 O14 2.370434 1_555
Na8 O7 2.375460 1_555
Na8 O15 2.380167 1_555
Na8 O4 2.450520 1_445
Na8 O19 2.457649 1_555
Na9 O21 2.345586 1_656
Na9 O13 2.389031 1_555
Na9 O11 2.401855 1_655
Na9 O10 2.406435 1_556
Na9 O23 2.411036 1_555
Na9 O17 2.419293 1_555
Na10 O15 2.292968 1_555
Na10 O1 2.350529 1_555
Na10 O18 2.363151 1_555
Na10 O19 2.376360 1_555
Na10 O2 2.377878 1_555
Na10 O22 2.400335 1_555
Na11 O6 2.292968 1_555
Na11 O14 2.350529 1_555
Na11 O3 2.363151 1_555
Na11 O2 2.376360 1_555
Na11 O19 2.377878 1_555
Na11 O20 2.400335 1_555
Na12 O10 2.231362 1_555
Na12 O22 2.320811 1_555
Na12 O16 2.363613 1_554
Na12 O23 2.383558 1_554
Na12 O0 2.400620 1_655
Na12 O18 2.410249 1_555
Ni0 O6 1.936086 1_554
Ni0 O9 1.937030 1_555
Ni0 O23 1.938193 1_554
Ni0 O22 1.947215 1_555
Ni0 O4 2.052471 1_555
Ni0 O20 2.130465 1_554
Ni1 O7 1.920014 1_565
Ni1 O3 1.922837 1_555
Ni1 O2 1.931174 1_555
Ni1 O8 1.939563 1_555
Ni1 O0 2.170606 1_555
Ni1 O13 2.192750 1_565
Ni2 O2 1.926964 1_555
Ni2 O22 1.932356 1_555
Ni2 O9 1.936998 1_555
Ni2 O8 1.939230 1_555
Ni2 O12 2.172595 1_555
Ni2 O21 2.197300 1_555
Ni3 O5 1.915785 1_555
Ni3 O11 1.924489 1_565
Ni3 O3 1.928652 1_555
Ni3 O7 1.933221 1_565
Ni3 O16 2.199982 1_565
Ni3 O1 2.208872 1_455
Ni4 O12 1.920014 1_545
Ni4 O18 1.922837 1_555
Ni4 O19 1.931174 1_555
Ni4 O13 1.939563 1_555
Ni4 O17 2.170606 1_555
Ni4 O8 2.192750 1_545
Ni5 O10 1.915785 1_555
Ni5 O4 1.924489 1_545
Ni5 O18 1.928652 1_555
Ni5 O12 1.933221 1_545
Ni5 O9 2.199982 1_545
Ni5 O14 2.208872 1_655
Ni6 O15 1.936086 1_556
Ni6 O16 1.937030 1_555
Ni6 O21 1.938193 1_556
Ni6 O20 1.947215 1_555
Ni6 O11 2.052471 1_555
Ni6 O22 2.130465 1_556
Ni7 O0 1.932437 1_555
Ni7 O17 1.932437 1_455
Ni7 O14 1.943473 1_555
Ni7 O1 1.943473 1_455
Ni7 O18 2.188416 1_455
Ni7 O3 2.188416 1_555
Ni8 O15 1.926714 1_555
Ni8 O0 1.935910 1_555
Ni8 O14 1.938787 1_555
Ni8 O21 1.942884 1_555
Ni8 O10 2.077096 1_455
Ni8 O2 2.191033 1_555
Ni9 O19 1.926964 1_555
Ni9 O20 1.932356 1_555
Ni9 O16 1.936998 1_555
Ni9 O13 1.939230 1_555
Ni9 O7 2.172595 1_555
Ni9 O23 2.197300 1_555
Ni10 O6 1.926714 1_555
Ni10 O17 1.935910 1_555
Ni10 O1 1.938787 1_555
Ni10 O23 1.942884 1_555
Ni10 O5 2.077096 1_655
Ni10 O19 2.191033 1_555
