# generated using pymatgen
data_Li4Ti15O32
_symmetry_space_group_name_H-M   'P 1'
_cell_length_a   19.76762503
_cell_length_b   19.76762503
_cell_length_c   19.76762500
_cell_angle_alpha   17.37286414
_cell_angle_beta   17.37286414
_cell_angle_gamma   17.37286484
_symmetry_Int_Tables_number   1
_chemical_formula_structural   Li4Ti15O32
_chemical_formula_sum   'Li4 Ti15 O32'
_cell_volume   600.97358245
_cell_formula_units_Z   1
loop_
 _symmetry_equiv_pos_site_id
 _symmetry_equiv_pos_as_xyz
  1  'x, y, z'
loop_
 _atom_site_type_symbol
 _atom_site_label
 _atom_site_symmetry_multiplicity
 _atom_site_fract_x
 _atom_site_fract_y
 _atom_site_fract_z
 _atom_site_occupancy
  Li  Li0  1  0.18766700  0.18766700  0.18766700  1
  Li  Li1  1  0.84327400  0.84327400  0.84327400  1
  Li  Li2  1  0.24993700  0.24993700  0.24993700  1
  Li  Li3  1  0.49875800  0.49875800  0.49875800  1
  Ti  Ti0  1  0.72382600  0.21718000  0.21718000  1
  Ti  Ti1  1  0.34535100  0.34535100  0.34535100  1
  Ti  Ti2  1  0.21718000  0.72382600  0.21718000  1
  Ti  Ti3  1  0.21718000  0.21718000  0.72382600  1
  Ti  Ti4  1  0.09572000  0.09572000  0.09572000  1
  Ti  Ti5  1  0.72165000  0.21031100  0.72165000  1
  Ti  Ti6  1  0.96543400  0.47794600  0.96543400  1
  Ti  Ti7  1  0.96543400  0.96543400  0.47794600  1
  Ti  Ti8  1  0.47794600  0.96543400  0.96543400  1
  Ti  Ti9  1  0.21031100  0.72165000  0.72165000  1
  Ti  Ti10  1  0.72165000  0.72165000  0.21031100  1
  Ti  Ti11  1  0.46913300  0.46913300  0.96974100  1
  Ti  Ti12  1  0.96974100  0.46913300  0.46913300  1
  Ti  Ti13  1  0.59429400  0.59429400  0.59429400  1
  Ti  Ti14  1  0.46913300  0.96974100  0.46913300  1
  O  O0  1  0.51074500  0.07467300  0.51074500  1
  O  O1  1  0.07467300  0.51074500  0.51074500  1
  O  O2  1  0.40225200  0.40225200  0.40225200  1
  O  O3  1  0.03506300  0.03506300  0.03506300  1
  O  O4  1  0.66425300  0.13119200  0.66425300  1
  O  O5  1  0.92401000  0.92401000  0.36523100  1
  O  O6  1  0.92401000  0.36523100  0.92401000  1
  O  O7  1  0.25997000  0.25997000  0.82739300  1
  O  O8  1  0.51074500  0.51074500  0.07467300  1
  O  O9  1  0.55570500  0.02377800  0.02377800  1
  O  O10  1  0.82739300  0.25997000  0.25997000  1
  O  O11  1  0.15378600  0.15378600  0.15378600  1
  O  O12  1  0.78540600  0.78540600  0.78540600  1
  O  O13  1  0.13119200  0.66425300  0.66425300  1
  O  O14  1  0.36523100  0.92401000  0.92401000  1
  O  O15  1  0.42473400  0.42473400  0.86595800  1
  O  O16  1  0.66425300  0.66425300  0.13119200  1
  O  O17  1  0.02377800  0.02377800  0.55570500  1
  O  O18  1  0.25997000  0.82739300  0.25997000  1
  O  O19  1  0.02377800  0.55570500  0.02377800  1
  O  O20  1  0.90220500  0.90220500  0.90220500  1
  O  O21  1  0.86595800  0.42473400  0.42473400  1
  O  O22  1  0.53392300  0.53392300  0.53392300  1
  O  O23  1  0.61320600  0.17463500  0.17463500  1
  O  O24  1  0.28401900  0.28401900  0.28401900  1
  O  O25  1  0.17463500  0.17463500  0.61320600  1
  O  O26  1  0.42473400  0.86595800  0.42473400  1
  O  O27  1  0.17463500  0.61320600  0.17463500  1
  O  O28  1  0.76113000  0.32490200  0.76113000  1
  O  O29  1  0.76113000  0.76113000  0.32490200  1
  O  O30  1  0.65246200  0.65246200  0.65246200  1
  O  O31  1  0.32490200  0.76113000  0.76113000  1
loop_
_geom_bond_atom_site_label_1
_geom_bond_atom_site_label_2
_geom_bond_distance
_geom_bond_site_symmetry_2
Li0 O11 1.978452 1_555
Li0 O17 1.994138 1_555
Li0 O9 1.994138 1_555
Li0 O19 1.994138 1_555
Li1 O16 2.110479 1_556
Li1 O13 2.110479 1_655
Li1 O4 2.110479 1_565
Li1 O17 2.155698 1_665
Li1 O19 2.155698 1_656
Li1 O9 2.155698 1_566
Li2 O24 1.990189 1_555
Li2 O15 2.039226 1_554
Li2 O21 2.039226 1_455
Li2 O26 2.039226 1_545
Li3 O16 1.970708 1_555
Li3 O4 1.970708 1_555
Li3 O13 1.970708 1_555
Li3 O22 2.053430 1_555
O0 Ti1 1.904932 1_555
O0 Ti0 2.035241 1_555
O0 Ti3 2.035241 1_555
O1 Ti1 1.904932 1_555
O1 Ti2 2.035241 1_555
O1 Ti3 2.035241 1_555
O2 Ti3 1.986011 1_555
O2 Ti2 1.986011 1_555
O2 Ti0 1.986011 1_555
O3 Ti3 1.989129 1_554
O3 Ti2 1.989129 1_545
O3 Ti0 1.989129 1_455
O4 Ti8 1.921216 1_545
O4 Ti7 1.921216 1_545
O5 Ti2 1.941121 1_655
O5 Ti0 1.941121 1_565
O5 Ti4 2.093588 1_665
O6 Ti0 1.941121 1_556
O6 Ti3 1.941121 1_655
O6 Ti4 2.093588 1_656
O7 Ti4 1.896196 1_556
O7 Ti8 2.035362 1_545
O7 Ti6 2.035362 1_455
O8 Ti1 1.904932 1_555
O8 Ti0 2.035241 1_555
O8 Ti2 2.035241 1_555
O9 Ti5 1.919297 1_554
O9 Ti10 1.919297 1_545
O10 Ti4 1.896196 1_655
O10 Ti6 2.035362 1_554
O10 Ti7 2.035362 1_545
O11 Ti7 2.041452 1_445
O11 Ti8 2.041452 1_544
O11 Ti6 2.041452 1_454
O12 Ti7 1.967795 1_555
O12 Ti6 1.967795 1_555
O12 Ti8 1.967795 1_555
O13 Ti6 1.921216 1_455
O13 Ti7 1.921216 1_455
O14 Ti2 1.941121 1_556
O14 Ti3 1.941121 1_565
O14 Ti4 2.093588 1_566
O15 Ti13 2.009359 1_555
O15 Ti9 2.046290 1_555
O15 Ti5 2.046290 1_555
O16 Ti6 1.921216 1_554
O16 Ti8 1.921216 1_554
O17 Ti5 1.919297 1_455
O17 Ti9 1.919297 1_545
O18 Ti4 1.896196 1_565
O18 Ti8 2.035362 1_554
O18 Ti7 2.035362 1_455
O19 Ti9 1.919297 1_554
O19 Ti10 1.919297 1_455
O20 Ti10 1.975386 1_556
O20 Ti5 1.975386 1_565
O20 Ti9 1.975386 1_655
O21 Ti13 2.009359 1_555
O21 Ti5 2.046290 1_555
O21 Ti10 2.046290 1_555
O22 Ti10 2.031130 1_555
O22 Ti5 2.031131 1_555
O22 Ti9 2.031131 1_555
O23 Ti14 1.941858 1_545
O23 Ti11 1.941858 1_554
O23 Ti1 2.082511 1_555
O24 Ti11 2.037096 1_554
O24 Ti14 2.037096 1_545
O24 Ti12 2.037096 1_455
O25 Ti14 1.941858 1_545
O25 Ti12 1.941858 1_455
O25 Ti1 2.082511 1_555
O26 Ti13 2.009359 1_555
O26 Ti9 2.046290 1_555
O26 Ti10 2.046290 1_555
O27 Ti12 1.941858 1_455
O27 Ti11 1.941858 1_554
O27 Ti1 2.082511 1_555
O28 Ti13 1.956248 1_555
O28 Ti12 2.011733 1_555
O28 Ti11 2.011733 1_555
O29 Ti13 1.956248 1_555
O29 Ti14 2.011733 1_555
O29 Ti12 2.011733 1_555
O30 Ti11 1.975345 1_555
O30 Ti14 1.975345 1_555
O30 Ti12 1.975345 1_555
O31 Ti13 1.956248 1_555
O31 Ti14 2.011733 1_555
O31 Ti11 2.011733 1_555
