# generated using pymatgen
data_CoH22C3(N3O4)2
_symmetry_space_group_name_H-M   'P 1'
_cell_length_a   9.70730200
_cell_length_b   10.29161500
_cell_length_c   13.24145800
_cell_angle_alpha   90.00000000
_cell_angle_beta   90.00000000
_cell_angle_gamma   90.00000000
_symmetry_Int_Tables_number   1
_chemical_formula_structural   CoH22C3(N3O4)2
_chemical_formula_sum   'Co4 H88 C12 N24 O32'
_cell_volume   1322.87216868
_cell_formula_units_Z   4
loop_
 _symmetry_equiv_pos_site_id
 _symmetry_equiv_pos_as_xyz
  1  'x, y, z'
loop_
 _atom_site_type_symbol
 _atom_site_label
 _atom_site_symmetry_multiplicity
 _atom_site_fract_x
 _atom_site_fract_y
 _atom_site_fract_z
 _atom_site_occupancy
  Co  Co0  1  0.50000000  0.00000000  0.00000000  1
  Co  Co1  1  0.00000000  0.50000000  0.50000000  1
  Co  Co2  1  0.00000000  0.50000000  0.00000000  1
  Co  Co3  1  0.50000000  0.00000000  0.50000000  1
  H  H0  1  0.64051300  0.01384700  0.83789800  1
  H  H1  1  0.35948700  0.98615300  0.83789800  1
  H  H2  1  0.14051300  0.48615300  0.66210200  1
  H  H3  1  0.85948700  0.51384700  0.66210200  1
  H  H4  1  0.35948700  0.98615300  0.16210200  1
  H  H5  1  0.64051300  0.01384700  0.16210200  1
  H  H6  1  0.85948700  0.51384700  0.33789800  1
  H  H7  1  0.14051300  0.48615300  0.33789800  1
  H  H8  1  0.60155500  0.85696000  0.86100500  1
  H  H9  1  0.39844500  0.14304000  0.86100500  1
  H  H10  1  0.10155500  0.64304000  0.63899500  1
  H  H11  1  0.89844500  0.35696000  0.63899500  1
  H  H12  1  0.39844500  0.14304000  0.13899500  1
  H  H13  1  0.60155500  0.85696000  0.13899500  1
  H  H14  1  0.89844500  0.35696000  0.36100500  1
  H  H15  1  0.10155500  0.64304000  0.36100500  1
  H  H16  1  0.72739000  0.92959900  0.92373900  1
  H  H17  1  0.27261000  0.07040100  0.92373900  1
  H  H18  1  0.22739000  0.57040100  0.57626100  1
  H  H19  1  0.77261000  0.42959900  0.57626100  1
  H  H20  1  0.27261000  0.07040100  0.07626100  1
  H  H21  1  0.72739000  0.92959900  0.07626100  1
  H  H22  1  0.77261000  0.42959900  0.42373900  1
  H  H23  1  0.22739000  0.57040100  0.42373900  1
  H  H24  1  0.56466100  0.22658000  0.93777900  1
  H  H25  1  0.43533900  0.77342000  0.93777900  1
  H  H26  1  0.06466100  0.27342000  0.56222100  1
  H  H27  1  0.93533900  0.72658000  0.56222100  1
  H  H28  1  0.43533900  0.77342000  0.06222100  1
  H  H29  1  0.56466100  0.22658000  0.06222100  1
  H  H30  1  0.93533900  0.72658000  0.43777900  1
  H  H31  1  0.06466100  0.27342000  0.43777900  1
  H  H32  1  0.69569300  0.15914100  0.00000000  1
  H  H33  1  0.30430700  0.84085900  0.00000000  1
  H  H34  1  0.19569300  0.34085900  0.50000000  1
  H  H35  1  0.80430700  0.65914100  0.50000000  1
  H  H36  1  0.02312200  0.36603200  0.84090100  1
  H  H37  1  0.97687800  0.63396800  0.84090100  1
  H  H38  1  0.52312200  0.13396800  0.65909900  1
  H  H39  1  0.47687800  0.86603200  0.65909900  1
  H  H40  1  0.97687800  0.63396800  0.15909900  1
  H  H41  1  0.02312200  0.36603200  0.15909900  1
  H  H42  1  0.47687800  0.86603200  0.34090100  1
  H  H43  1  0.52312200  0.13396800  0.34090100  1
  H  H44  1  0.91913000  0.28782300  0.92096700  1
  H  H45  1  0.08087000  0.71217700  0.92096700  1
  H  H46  1  0.41913000  0.21217700  0.57903300  1
  H  H47  1  0.58087000  0.78782300  0.57903300  1
  H  H48  1  0.08087000  0.71217700  0.07903300  1
  H  H49  1  0.91913000  0.28782300  0.07903300  1
  H  H50  1  0.58087000  0.78782300  0.42096700  1
  H  H51  1  0.41913000  0.21217700  0.42096700  1
  H  H52  1  0.85717300  0.41004300  0.85466000  1
  H  H53  1  0.14282700  0.58995700  0.85466000  1
  H  H54  1  0.35717300  0.08995700  0.64534000  1
  H  H55  1  0.64282700  0.91004300  0.64534000  1
  H  H56  1  0.14282700  0.58995700  0.14534000  1
  H  H57  1  0.85717300  0.41004300  0.14534000  1
  H  H58  1  0.64282700  0.91004300  0.35466000  1
  H  H59  1  0.35717300  0.08995700  0.35466000  1
  H  H60  1  0.75666000  0.56202700  0.93779500  1
  H  H61  1  0.24334000  0.43797300  0.93779500  1
  H  H62  1  0.25666000  0.93797300  0.56220500  1
  H  H63  1  0.74334000  0.06202700  0.56220500  1
  H  H64  1  0.24334000  0.43797300  0.06220500  1
  H  H65  1  0.75666000  0.56202700  0.06220500  1
  H  H66  1  0.74334000  0.06202700  0.43779500  1
  H  H67  1  0.25666000  0.93797300  0.43779500  1
  H  H68  1  0.83203500  0.68345800  0.00000000  1
  H  H69  1  0.16796500  0.31654200  0.00000000  1
  H  H70  1  0.33203500  0.81654200  0.50000000  1
  H  H71  1  0.66796500  0.18345800  0.50000000  1
  H  H72  1  0.76961200  0.14563900  0.72197800  1
  H  H73  1  0.23038800  0.85436100  0.72197800  1
  H  H74  1  0.26961200  0.35436100  0.77802200  1
  H  H75  1  0.73038800  0.64563900  0.77802200  1
  H  H76  1  0.23038800  0.85436100  0.27802200  1
  H  H77  1  0.76961200  0.14563900  0.27802200  1
  H  H78  1  0.73038800  0.64563900  0.22197800  1
  H  H79  1  0.26961200  0.35436100  0.22197800  1
  H  H80  1  0.66632800  0.24460000  0.77357400  1
  H  H81  1  0.33367200  0.75540000  0.77357400  1
  H  H82  1  0.16632800  0.25540000  0.72642600  1
  H  H83  1  0.83367200  0.74460000  0.72642600  1
  H  H84  1  0.33367200  0.75540000  0.22642600  1
  H  H85  1  0.66632800  0.24460000  0.22642600  1
  H  H86  1  0.83367200  0.74460000  0.27357400  1
  H  H87  1  0.16632800  0.25540000  0.27357400  1
  C  C0  1  0.99876300  0.07623700  0.00000000  1
  C  C1  1  0.00123700  0.92376300  0.00000000  1
  C  C2  1  0.49876300  0.42376300  0.50000000  1
  C  C3  1  0.50123700  0.57623700  0.50000000  1
  C  C4  1  0.52554700  0.42764600  0.83155000  1
  C  C5  1  0.47445300  0.57235400  0.83155000  1
  C  C6  1  0.02554700  0.07235400  0.66845000  1
  C  C7  1  0.97445300  0.92764600  0.66845000  1
  C  C8  1  0.47445300  0.57235400  0.16845000  1
  C  C9  1  0.52554700  0.42764600  0.16845000  1
  C  C10  1  0.97445300  0.92764600  0.33155000  1
  C  C11  1  0.02554700  0.07235400  0.33155000  1
  N  N0  1  0.63054300  0.94357500  0.89341000  1
  N  N1  1  0.36945700  0.05642500  0.89341000  1
  N  N2  1  0.13054300  0.55642500  0.60659000  1
  N  N3  1  0.86945700  0.44357500  0.60659000  1
  N  N4  1  0.36945700  0.05642500  0.10659000  1
  N  N5  1  0.63054300  0.94357500  0.10659000  1
  N  N6  1  0.86945700  0.44357500  0.39341000  1
  N  N7  1  0.13054300  0.55642500  0.39341000  1
  N  N8  1  0.59040600  0.17213200  0.00000000  1
  N  N9  1  0.40959400  0.82786800  0.00000000  1
  N  N10  1  0.09040600  0.32786800  0.50000000  1
  N  N11  1  0.90959400  0.67213200  0.50000000  1
  N  N12  1  0.94333600  0.37813500  0.89202700  1
  N  N13  1  0.05666400  0.62186500  0.89202700  1
  N  N14  1  0.44333600  0.12186500  0.60797300  1
  N  N15  1  0.55666400  0.87813500  0.60797300  1
  N  N16  1  0.05666400  0.62186500  0.10797300  1
  N  N17  1  0.94333600  0.37813500  0.10797300  1
  N  N18  1  0.55666400  0.87813500  0.39202700  1
  N  N19  1  0.44333600  0.12186500  0.39202700  1
  N  N20  1  0.81546000  0.58418000  0.00000000  1
  N  N21  1  0.18454000  0.41582000  0.00000000  1
  N  N22  1  0.31546000  0.91582000  0.50000000  1
  N  N23  1  0.68454000  0.08418000  0.50000000  1
  O  O0  1  0.88163300  0.13091500  0.00000000  1
  O  O1  1  0.11836700  0.86908500  0.00000000  1
  O  O2  1  0.38163300  0.36908500  0.50000000  1
  O  O3  1  0.61836700  0.63091500  0.50000000  1
  O  O4  1  0.11342200  0.13509700  0.00000000  1
  O  O5  1  0.88657800  0.86490300  0.00000000  1
  O  O6  1  0.61342200  0.36490300  0.50000000  1
  O  O7  1  0.38657800  0.63509700  0.50000000  1
  O  O8  1  0.65446800  0.40822700  0.82759700  1
  O  O9  1  0.34553200  0.59177300  0.82759700  1
  O  O10  1  0.15446800  0.09177300  0.67240300  1
  O  O11  1  0.84553200  0.90822700  0.67240300  1
  O  O12  1  0.34553200  0.59177300  0.17240300  1
  O  O13  1  0.65446800  0.40822700  0.17240300  1
  O  O14  1  0.84553200  0.90822700  0.32759700  1
  O  O15  1  0.15446800  0.09177300  0.32759700  1
  O  O16  1  0.43473400  0.33907200  0.83633400  1
  O  O17  1  0.56526600  0.66092800  0.83633400  1
  O  O18  1  0.93473400  0.16092800  0.66366600  1
  O  O19  1  0.06526600  0.83907200  0.66366600  1
  O  O20  1  0.56526600  0.66092800  0.16366600  1
  O  O21  1  0.43473400  0.33907200  0.16366600  1
  O  O22  1  0.06526600  0.83907200  0.33633400  1
  O  O23  1  0.93473400  0.16092800  0.33633400  1
  O  O24  1  0.67392800  0.15414100  0.74804100  1
  O  O25  1  0.32607200  0.84585900  0.74804100  1
  O  O26  1  0.17392800  0.34585900  0.75195900  1
  O  O27  1  0.82607200  0.65414100  0.75195900  1
  O  O28  1  0.32607200  0.84585900  0.25195900  1
  O  O29  1  0.67392800  0.15414100  0.25195900  1
  O  O30  1  0.82607200  0.65414100  0.24804100  1
  O  O31  1  0.17392800  0.34585900  0.24804100  1
loop_
_geom_bond_atom_site_label_1
_geom_bond_atom_site_label_2
_geom_bond_distance
_geom_bond_site_symmetry_2
Co0 N9 1.976980 1_545
Co0 N8 1.976980 1_555
Co0 N0 1.983717 1_544
Co0 N5 1.983717 1_545
Co0 N1 1.983717 1_554
Co0 N4 1.983717 1_555
Co1 N11 1.976980 1_455
Co1 N10 1.976980 1_555
Co1 N2 1.983717 1_555
Co1 N3 1.983717 1_455
Co1 N7 1.983717 1_555
Co1 N6 1.983717 1_455
Co2 N16 1.979810 1_555
Co2 N13 1.979810 1_554
Co2 N17 1.979810 1_455
Co2 N12 1.979810 1_454
Co2 N21 1.989880 1_555
Co2 N20 1.989880 1_455
Co3 N19 1.979810 1_555
Co3 N14 1.979810 1_555
Co3 N15 1.979810 1_545
Co3 N18 1.979810 1_545
Co3 N22 1.989880 1_545
Co3 N23 1.989880 1_555
H0 N0 1.035720 1_545
H1 N1 1.035720 1_565
H2 N2 1.035720 1_555
H3 N3 1.035720 1_555
H4 N4 1.035720 1_565
H5 N5 1.035720 1_545
H6 N6 1.035720 1_555
H7 N7 1.035720 1_555
H8 N0 1.028547 1_555
H9 N1 1.028547 1_555
H10 N2 1.028547 1_555
H11 N3 1.028547 1_555
H12 N4 1.028547 1_555
H13 N5 1.028547 1_555
H14 N6 1.028547 1_555
H15 N7 1.028547 1_555
H16 N0 1.032377 1_555
H17 N1 1.032377 1_555
H18 N2 1.032377 1_555
H19 N3 1.032377 1_555
H20 N4 1.032377 1_555
H21 N5 1.032377 1_555
H22 N6 1.032377 1_555
H23 N7 1.032377 1_555
H24 N8 1.027260 1_556
H25 N9 1.027260 1_556
H26 N10 1.027260 1_555
H27 N11 1.027260 1_555
H28 N9 1.027260 1_555
H29 N8 1.027260 1_555
H30 N11 1.027260 1_555
H31 N10 1.027260 1_555
H32 N8 1.030760 1_555
H33 N9 1.030760 1_555
H34 N10 1.030760 1_555
H35 N11 1.030760 1_555
H36 N12 1.036186 1_455
H37 N13 1.036186 1_655
H38 N14 1.036186 1_555
H39 N15 1.036186 1_555
H40 N16 1.036186 1_655
H41 N17 1.036186 1_455
H42 N18 1.036186 1_555
H43 N19 1.036186 1_555
H44 N12 1.032449 1_555
H45 N13 1.032449 1_555
H46 N14 1.032449 1_555
H47 N15 1.032449 1_555
H48 N16 1.032449 1_555
H49 N17 1.032449 1_555
H50 N18 1.032449 1_555
H51 N19 1.032449 1_555
H52 N12 1.025787 1_555
H53 N13 1.025787 1_555
H54 N14 1.025787 1_555
H55 N15 1.025787 1_555
H56 N16 1.025787 1_555
H57 N17 1.025787 1_555
H58 N18 1.025787 1_555
H59 N19 1.025787 1_555
H60 N20 1.027734 1_556
H61 N21 1.027734 1_556
H62 N22 1.027734 1_555
H63 N23 1.027734 1_555
H64 N21 1.027734 1_555
H65 N20 1.027734 1_555
H66 N23 1.027734 1_555
H67 N22 1.027734 1_555
H68 N20 1.034322 1_555
H69 N21 1.034322 1_555
H70 N22 1.034322 1_555
H71 N23 1.034322 1_555
H72 O24 0.994731 1_555
H73 O25 0.994731 1_555
H74 O26 0.994731 1_555
H75 O27 0.994731 1_555
H76 O28 0.994731 1_555
H77 O29 0.994731 1_555
H78 O30 0.994731 1_555
H79 O31 0.994731 1_555
H80 O24 0.993204 1_555
H81 O25 0.993204 1_555
H82 O26 0.993204 1_555
H83 O27 0.993204 1_555
H84 O28 0.993204 1_555
H85 O29 0.993204 1_555
H86 O30 0.993204 1_555
H87 O31 0.993204 1_555
C0 O4 1.267196 1_655
C0 O0 1.268647 1_555
C1 O5 1.267196 1_455
C1 O1 1.268647 1_555
C2 O6 1.267196 1_555
C2 O2 1.268647 1_555
C3 O7 1.267196 1_555
C3 O3 1.268647 1_555
C4 O8 1.268413 1_555
C4 O16 1.269685 1_555
C5 O9 1.268413 1_555
C5 O17 1.269685 1_555
C6 O10 1.268413 1_555
C6 O18 1.269685 1_455
C7 O11 1.268413 1_555
C7 O19 1.269685 1_655
C8 O12 1.268413 1_555
C8 O20 1.269685 1_555
C9 O13 1.268413 1_555
C9 O21 1.269685 1_555
C10 O14 1.268413 1_555
C10 O22 1.269685 1_655
C11 O15 1.268413 1_555
C11 O23 1.269685 1_455
