# generated using pymatgen
data_Er2TiO5
_symmetry_space_group_name_H-M   'P 1'
_cell_length_a   3.60780200
_cell_length_b   7.44975500
_cell_length_c   15.43841800
_cell_angle_alpha   90.00000000
_cell_angle_beta   90.00000000
_cell_angle_gamma   90.00000000
_symmetry_Int_Tables_number   1
_chemical_formula_structural   Er2TiO5
_chemical_formula_sum   'Er8 Ti4 O20'
_cell_volume   414.94208107
_cell_formula_units_Z   4
loop_
 _symmetry_equiv_pos_site_id
 _symmetry_equiv_pos_as_xyz
  1  'x, y, z'
loop_
 _atom_site_type_symbol
 _atom_site_label
 _atom_site_symmetry_multiplicity
 _atom_site_fract_x
 _atom_site_fract_y
 _atom_site_fract_z
 _atom_site_occupancy
  Er  Er0  1  0.25000000  0.10088600  0.08405800  1
  Er  Er1  1  0.25000000  0.16203700  0.73748900  1
  Er  Er2  1  0.75000000  0.33796300  0.23748900  1
  Er  Er3  1  0.75000000  0.39911400  0.58405800  1
  Er  Er4  1  0.25000000  0.60088600  0.41594200  1
  Er  Er5  1  0.25000000  0.66203700  0.76251100  1
  Er  Er6  1  0.75000000  0.83796300  0.26251100  1
  Er  Er7  1  0.75000000  0.89911400  0.91594200  1
  Ti  Ti0  1  0.25000000  0.11411500  0.42330500  1
  Ti  Ti1  1  0.75000000  0.38588500  0.92330500  1
  Ti  Ti2  1  0.25000000  0.61411500  0.07669500  1
  Ti  Ti3  1  0.75000000  0.88588500  0.57669500  1
  O  O0  1  0.75000000  0.06926800  0.17418200  1
  O  O1  1  0.75000000  0.07394400  0.45313200  1
  O  O2  1  0.75000000  0.12197700  0.64845500  1
  O  O3  1  0.75000000  0.15693300  0.99493400  1
  O  O4  1  0.25000000  0.24597200  0.32209400  1
  O  O5  1  0.75000000  0.25402800  0.82209400  1
  O  O6  1  0.25000000  0.34306700  0.49493400  1
  O  O7  1  0.25000000  0.37802300  0.14845500  1
  O  O8  1  0.25000000  0.42605600  0.95313200  1
  O  O9  1  0.25000000  0.43073200  0.67418200  1
  O  O10  1  0.75000000  0.56926800  0.32581800  1
  O  O11  1  0.75000000  0.57394400  0.04686800  1
  O  O12  1  0.75000000  0.62197700  0.85154500  1
  O  O13  1  0.75000000  0.65693300  0.50506600  1
  O  O14  1  0.25000000  0.74597200  0.17790600  1
  O  O15  1  0.75000000  0.75402800  0.67790600  1
  O  O16  1  0.25000000  0.84306700  0.00506600  1
  O  O17  1  0.25000000  0.87802300  0.35154500  1
  O  O18  1  0.25000000  0.92605600  0.54686800  1
  O  O19  1  0.25000000  0.93073200  0.82581800  1
loop_
_geom_bond_atom_site_label_1
_geom_bond_atom_site_label_2
_geom_bond_distance
_geom_bond_site_symmetry_2
Er0 O16 2.275138 1_545
Er0 O0 2.290296 1_455
Er0 O0 2.290296 1_555
Er0 O7 2.291505 1_555
Er0 O3 2.306857 1_554
Er0 O3 2.306857 1_454
Er1 O19 2.197469 1_545
Er1 O9 2.227573 1_555
Er1 O2 2.287465 1_455
Er1 O2 2.287465 1_555
Er1 O5 2.330189 1_455
Er1 O5 2.330189 1_555
Er2 O10 2.197469 1_555
Er2 O0 2.227573 1_555
Er2 O7 2.287465 1_655
Er2 O7 2.287465 1_555
Er2 O4 2.330189 1_655
Er2 O4 2.330189 1_555
Er3 O13 2.275138 1_555
Er3 O9 2.290296 1_655
Er3 O9 2.290296 1_555
Er3 O2 2.291505 1_555
Er3 O6 2.306857 1_655
Er3 O6 2.306857 1_555
Er4 O6 2.275138 1_555
Er4 O10 2.290296 1_455
Er4 O10 2.290296 1_555
Er4 O17 2.291505 1_555
Er4 O13 2.306857 1_455
Er4 O13 2.306857 1_555
Er5 O9 2.197469 1_555
Er5 O19 2.227573 1_555
Er5 O12 2.287465 1_455
Er5 O12 2.287465 1_555
Er5 O15 2.330189 1_455
Er5 O15 2.330189 1_555
Er6 O0 2.197469 1_565
Er6 O10 2.227573 1_555
Er6 O17 2.287465 1_555
Er6 O17 2.287465 1_655
Er6 O14 2.330189 1_655
Er6 O14 2.330189 1_555
Er7 O3 2.275138 1_565
Er7 O19 2.290296 1_555
Er7 O19 2.290296 1_655
Er7 O12 2.291505 1_555
Er7 O16 2.306857 1_656
Er7 O16 2.306857 1_556
O1 Ti0 1.885646 1_655
O1 Ti0 1.885646 1_555
O1 Ti3 2.366809 1_545
O2 Ti3 2.078661 1_545
O3 Ti1 2.032750 1_555
O4 Ti0 1.845655 1_555
O5 Ti1 1.845655 1_555
O6 Ti0 2.032750 1_555
O7 Ti2 2.078661 1_555
O8 Ti1 1.885646 1_555
O8 Ti1 1.885646 1_455
O8 Ti2 2.366809 1_556
O11 Ti2 1.885646 1_555
O11 Ti2 1.885646 1_655
O11 Ti1 2.366809 1_554
O12 Ti1 2.078661 1_555
O13 Ti3 2.032750 1_555
O14 Ti2 1.845655 1_555
O15 Ti3 1.845655 1_555
O16 Ti2 2.032750 1_555
O17 Ti0 2.078661 1_565
O18 Ti3 1.885646 1_555
O18 Ti3 1.885646 1_455
O18 Ti0 2.366809 1_565
