# generated using pymatgen
data_Li2VP2HO8
_symmetry_space_group_name_H-M   'P 1'
_cell_length_a   8.13465761
_cell_length_b   8.68514397
_cell_length_c   9.68099286
_cell_angle_alpha   102.11713201
_cell_angle_beta   105.51663338
_cell_angle_gamma   97.57944749
_symmetry_Int_Tables_number   1
_chemical_formula_structural   Li2VP2HO8
_chemical_formula_sum   'Li8 V4 P8 H4 O32'
_cell_volume   631.38860097
_cell_formula_units_Z   4
loop_
 _symmetry_equiv_pos_site_id
 _symmetry_equiv_pos_as_xyz
  1  'x, y, z'
loop_
 _atom_site_type_symbol
 _atom_site_label
 _atom_site_symmetry_multiplicity
 _atom_site_fract_x
 _atom_site_fract_y
 _atom_site_fract_z
 _atom_site_occupancy
  Li  Li0  1  0.14019600  0.77031900  0.11037500  1
  Li  Li1  1  0.14016800  0.77036600  0.61036200  1
  Li  Li2  1  0.85979700  0.22967500  0.38961800  1
  Li  Li3  1  0.85983900  0.22964100  0.88964500  1
  Li  Li4  1  0.37158800  0.61750100  0.33525200  1
  Li  Li5  1  0.37165600  0.61749600  0.83524800  1
  Li  Li6  1  0.62840700  0.38249500  0.16474100  1
  Li  Li7  1  0.62834900  0.38251000  0.66476000  1
  V  V0  1  0.18445000  0.21317500  0.70273500  1
  V  V1  1  0.81554400  0.78682800  0.79725000  1
  V  V2  1  0.18449100  0.21313600  0.20294000  1
  V  V3  1  0.81551200  0.78686800  0.29707300  1
  P  P0  1  0.23381300  0.94235600  0.41997700  1
  P  P1  1  0.23384400  0.94239700  0.92001400  1
  P  P2  1  0.76618600  0.05764100  0.08002200  1
  P  P3  1  0.76615700  0.05760500  0.57998800  1
  P  P4  1  0.24358100  0.42433200  0.04567900  1
  P  P5  1  0.24360500  0.42443500  0.54571400  1
  P  P6  1  0.75641500  0.57565600  0.45432200  1
  P  P7  1  0.75640000  0.57557700  0.95428500  1
  H  H0  1  0.44992400  0.13126600  0.43549600  1
  H  H1  1  0.44986000  0.13127200  0.93537900  1
  H  H2  1  0.55007500  0.86873400  0.06450600  1
  H  H3  1  0.55014000  0.86872800  0.56462000  1
  O  O0  1  0.06802400  0.86333300  0.28877700  1
  O  O1  1  0.06804000  0.86335000  0.78885300  1
  O  O2  1  0.93197500  0.13666200  0.21122300  1
  O  O3  1  0.93196100  0.13665300  0.71114600  1
  O  O4  1  0.07119600  0.31742500  0.04816300  1
  O  O5  1  0.07117600  0.31747900  0.54810000  1
  O  O6  1  0.92880100  0.68256900  0.45184700  1
  O  O7  1  0.92882700  0.68252500  0.95189100  1
  O  O8  1  0.19049000  0.00751500  0.06437100  1
  O  O9  1  0.19037500  0.00743000  0.56428400  1
  O  O10  1  0.80951000  0.99248700  0.43563100  1
  O  O11  1  0.80962200  0.99256600  0.93571500  1
  O  O12  1  0.25030800  0.40562600  0.38331700  1
  O  O13  1  0.25026900  0.40552100  0.88328600  1
  O  O14  1  0.74969900  0.59439400  0.11668300  1
  O  O15  1  0.74972600  0.59446100  0.61671500  1
  O  O16  1  0.36257900  0.83179400  0.44647800  1
  O  O17  1  0.36263900  0.83183600  0.94654400  1
  O  O18  1  0.63742000  0.16820400  0.05351900  1
  O  O19  1  0.63736100  0.16816600  0.55346000  1
  O  O20  1  0.26332800  0.59979300  0.12259800  1
  O  O21  1  0.26333000  0.59985300  0.62264400  1
  O  O22  1  0.73666700  0.40019800  0.37739200  1
  O  O23  1  0.73667600  0.40015600  0.87736200  1
  O  O24  1  0.32217800  0.09102100  0.36880500  1
  O  O25  1  0.32214700  0.09100700  0.86877700  1
  O  O26  1  0.67782000  0.90898000  0.13119700  1
  O  O27  1  0.67785500  0.90899100  0.63122100  1
  O  O28  1  0.37966300  0.34469400  0.13915000  1
  O  O29  1  0.37962200  0.34475500  0.63916500  1
  O  O30  1  0.62033700  0.65530200  0.36085700  1
  O  O31  1  0.62037900  0.65524800  0.86082500  1
loop_
_geom_bond_atom_site_label_1
_geom_bond_atom_site_label_2
_geom_bond_distance
_geom_bond_site_symmetry_2
Li0 O20 1.900597 1_555
Li0 O7 1.908756 1_454
Li0 O0 2.015458 1_555
Li0 O8 2.206807 1_565
Li1 O21 1.900697 1_555
Li1 O6 1.908893 1_455
Li1 O1 2.015918 1_555
Li1 O9 2.205955 1_565
Li2 O22 1.900567 1_555
Li2 O5 1.908808 1_655
Li2 O2 2.015426 1_555
Li2 O10 2.206773 1_545
Li3 O23 1.900718 1_555
Li3 O4 1.908843 1_656
Li3 O3 2.015965 1_555
Li3 O11 2.206020 1_545
Li4 O30 1.945752 1_555
Li4 O16 1.966116 1_555
Li4 O20 1.974534 1_555
Li4 O12 2.168461 1_555
Li5 O31 1.945593 1_555
Li5 O17 1.966721 1_555
Li5 O21 1.974292 1_555
Li5 O13 2.169400 1_555
Li6 O28 1.945738 1_555
Li6 O18 1.966098 1_555
Li6 O22 1.974516 1_555
Li6 O14 2.168639 1_555
Li7 O29 1.945592 1_555
Li7 O19 1.966751 1_555
Li7 O23 1.974270 1_555
Li7 O15 2.169228 1_555
H0 O24 1.034100 1_555
H0 O19 1.586668 1_555
H1 O25 1.033655 1_555
H1 O18 1.588105 1_556
H2 O26 1.034094 1_555
H2 O17 1.586655 1_554
H3 O27 1.033664 1_555
H3 O16 1.588118 1_555
O0 P0 1.541586 1_555
O0 V3 2.101810 1_455
O1 P1 1.541504 1_555
O1 V1 2.102142 1_455
O2 P2 1.541588 1_555
O2 V2 2.101810 1_655
O3 P3 1.541491 1_555
O3 V0 2.102138 1_655
O4 P4 1.585263 1_555
O4 V2 1.991510 1_555
O5 P5 1.585399 1_555
O5 V0 1.990547 1_555
O6 P6 1.585262 1_555
O6 V3 1.991532 1_555
O7 P7 1.585382 1_555
O7 V1 1.990607 1_555
O8 P1 1.543305 1_544
O8 V2 2.010838 1_555
O9 P0 1.543150 1_545
O9 V0 2.010899 1_555
O10 P3 1.543301 1_565
O10 V3 2.010781 1_555
O11 P2 1.543144 1_566
O11 V1 2.010912 1_555
O12 P5 1.562611 1_555
O12 V2 2.041798 1_555
O13 P4 1.562532 1_556
O13 V0 2.042075 1_555
O14 P7 1.562609 1_554
O14 V3 2.041794 1_555
O15 P6 1.562540 1_555
O15 V1 2.042091 1_555
O16 P0 1.519890 1_555
O17 P1 1.520088 1_555
O18 P2 1.519899 1_555
O19 P3 1.520091 1_555
O20 P4 1.515788 1_555
O21 P5 1.515511 1_555
O22 P6 1.515790 1_555
O23 P7 1.515519 1_555
O24 P0 1.625878 1_545
O24 V2 2.241384 1_555
O25 P1 1.625656 1_545
O25 V0 2.242900 1_555
O26 P2 1.625870 1_565
O26 V3 2.241453 1_555
O27 P3 1.625657 1_565
O27 V1 2.242760 1_555
O28 P4 1.565707 1_555
O28 V2 2.133031 1_555
O29 P5 1.565530 1_555
O29 V0 2.131847 1_555
O30 P6 1.565705 1_555
O30 V3 2.133049 1_555
O31 P7 1.565541 1_555
O31 V1 2.131833 1_555
