# generated using pymatgen
data_Li3LaNiO4
_symmetry_space_group_name_H-M   'P 1'
_cell_length_a   5.88309300
_cell_length_b   7.41277950
_cell_length_c   9.79225804
_cell_angle_alpha   85.03308776
_cell_angle_beta   76.98285965
_cell_angle_gamma   79.73994008
_symmetry_Int_Tables_number   1
_chemical_formula_structural   Li3LaNiO4
_chemical_formula_sum   'Li12 La4 Ni4 O16'
_cell_volume   408.93309094
_cell_formula_units_Z   4
loop_
 _symmetry_equiv_pos_site_id
 _symmetry_equiv_pos_as_xyz
  1  'x, y, z'
loop_
 _atom_site_type_symbol
 _atom_site_label
 _atom_site_symmetry_multiplicity
 _atom_site_fract_x
 _atom_site_fract_y
 _atom_site_fract_z
 _atom_site_occupancy
  Li  Li0  1  0.97276900  0.80487700  0.12470200  1
  Li  Li1  1  0.31979500  0.06124800  0.09788900  1
  Li  Li2  1  0.04032100  0.45044200  0.12878600  1
  Li  Li3  1  0.97089200  0.05428400  0.37568100  1
  Li  Li4  1  0.67721700  0.43388500  0.40246500  1
  Li  Li5  1  0.32412000  0.31603100  0.34684600  1
  Li  Li6  1  0.67588000  0.68396900  0.65315400  1
  Li  Li7  1  0.32278300  0.56611500  0.59753500  1
  Li  Li8  1  0.02910800  0.94571600  0.62431900  1
  Li  Li9  1  0.95967900  0.54955800  0.87121400  1
  Li  Li10  1  0.68020500  0.93875100  0.90211100  1
  Li  Li11  1  0.02723100  0.19512300  0.87529800  1
  La  La0  1  0.52000300  0.62773300  0.12279800  1
  La  La1  1  0.50525600  0.87755700  0.37583400  1
  La  La2  1  0.49474400  0.12244300  0.62416600  1
  La  La3  1  0.47999700  0.37226700  0.87720200  1
  Ni  Ni0  1  0.68581800  0.18628900  0.15034000  1
  Ni  Ni1  1  0.03720400  0.69394400  0.37657500  1
  Ni  Ni2  1  0.96279600  0.30605600  0.62342500  1
  Ni  Ni3  1  0.31418200  0.81371100  0.84966000  1
  O  O0  1  0.83021200  0.36473400  0.01951400  1
  O  O1  1  0.65616300  0.93350900  0.11246700  1
  O  O2  1  0.82146900  0.61674600  0.27068100  1
  O  O3  1  0.35881800  0.31967700  0.13554700  1
  O  O4  1  0.65696000  0.17817600  0.35639100  1
  O  O5  1  0.18467700  0.87931600  0.23523700  1
  O  O6  1  0.82055700  0.85948500  0.51561800  1
  O  O7  1  0.34850300  0.56744500  0.39164800  1
  O  O8  1  0.65149700  0.43255500  0.60835200  1
  O  O9  1  0.17944300  0.14051500  0.48438200  1
  O  O10  1  0.81532300  0.12068400  0.76476300  1
  O  O11  1  0.34304000  0.82182400  0.64360900  1
  O  O12  1  0.64118200  0.68032300  0.86445300  1
  O  O13  1  0.17853100  0.38325400  0.72931900  1
  O  O14  1  0.34383700  0.06649100  0.88753300  1
  O  O15  1  0.16978800  0.63526600  0.98048600  1
loop_
_geom_bond_atom_site_label_1
_geom_bond_atom_site_label_2
_geom_bond_distance
_geom_bond_site_symmetry_2
Li0 O1 1.959842 1_555
Li0 O15 1.992359 1_654
Li0 O5 1.996647 1_655
Li0 O2 2.074685 1_555
Li1 O5 1.961055 1_545
Li1 O14 2.030120 1_554
Li1 O3 2.043437 1_555
Li1 O1 2.066234 1_545
Li2 O3 1.962822 1_555
Li2 O2 2.008325 1_455
Li2 O0 2.017380 1_455
Li2 O15 2.023612 1_554
Li3 O4 1.952693 1_555
Li3 O9 2.008099 1_655
Li3 O5 2.025826 1_645
Li3 O6 2.076402 1_545
Li4 O2 1.958685 1_555
Li4 O8 1.986784 1_555
Li4 O4 2.015815 1_555
Li4 O7 2.030587 1_555
Li5 O9 1.950826 1_555
Li5 O7 1.987838 1_555
Li5 O3 2.031148 1_555
Li5 O4 2.059211 1_555
Li6 O6 1.950826 1_555
Li6 O8 1.987838 1_555
Li6 O12 2.031148 1_555
Li6 O11 2.059211 1_555
Li7 O13 1.958685 1_555
Li7 O7 1.986784 1_555
Li7 O11 2.015815 1_555
Li7 O8 2.030587 1_555
Li8 O11 1.952693 1_555
Li8 O6 2.008099 1_455
Li8 O10 2.025826 1_465
Li8 O9 2.076402 1_565
Li9 O12 1.962822 1_555
Li9 O13 2.008325 1_655
Li9 O15 2.017380 1_655
Li9 O0 2.023612 1_556
Li10 O10 1.961061 1_565
Li10 O1 2.030120 1_556
Li10 O12 2.043430 1_555
Li10 O14 2.066236 1_565
Li11 O14 1.959842 1_555
Li11 O0 1.992359 1_456
Li11 O10 1.996647 1_455
Li11 O13 2.074685 1_555
La0 O12 2.485112 1_554
La0 O2 2.516792 1_555
La0 O1 2.521943 1_555
La0 O0 2.529177 1_555
La0 O5 2.578463 1_555
La0 O3 2.607316 1_555
La0 O7 2.628470 1_555
La0 O15 2.725642 1_554
La1 O6 2.521094 1_555
La1 O4 2.521334 1_565
La1 O2 2.541527 1_555
La1 O1 2.554557 1_555
La1 O5 2.571084 1_555
La1 O9 2.591029 1_565
La1 O11 2.604331 1_555
La1 O7 2.605394 1_555
La2 O9 2.521094 1_555
La2 O11 2.521334 1_545
La2 O13 2.541527 1_555
La2 O14 2.554557 1_555
La2 O10 2.571084 1_555
La2 O6 2.591029 1_545
La2 O4 2.604331 1_555
La2 O8 2.605394 1_555
La3 O3 2.485112 1_556
La3 O13 2.516792 1_555
La3 O14 2.521943 1_555
La3 O15 2.529177 1_555
La3 O10 2.578463 1_555
La3 O12 2.607316 1_555
La3 O8 2.628470 1_555
La3 O0 2.725642 1_556
Ni0 O0 1.931096 1_555
Ni0 O4 1.982897 1_555
Ni0 O1 1.986214 1_545
Ni0 O3 2.030437 1_555
Ni1 O7 1.934206 1_555
Ni1 O6 1.983561 1_455
Ni1 O2 1.991963 1_455
Ni1 O5 2.027533 1_555
Ni2 O8 1.934206 1_555
Ni2 O9 1.983561 1_655
Ni2 O13 1.991963 1_655
Ni2 O10 2.027533 1_555
Ni3 O15 1.931096 1_555
Ni3 O11 1.982897 1_555
Ni3 O14 1.986214 1_565
Ni3 O12 2.030437 1_555
