# generated using pymatgen
data_Li5SbS4
_symmetry_space_group_name_H-M   'P 1'
_cell_length_a   6.20361800
_cell_length_b   15.08927300
_cell_length_c   17.61006000
_cell_angle_alpha   90.00000000
_cell_angle_beta   90.00000000
_cell_angle_gamma   90.00000000
_symmetry_Int_Tables_number   1
_chemical_formula_structural   Li5SbS4
_chemical_formula_sum   'Li40 Sb8 S32'
_cell_volume   1648.44400372
_cell_formula_units_Z   8
loop_
 _symmetry_equiv_pos_site_id
 _symmetry_equiv_pos_as_xyz
  1  'x, y, z'
loop_
 _atom_site_type_symbol
 _atom_site_label
 _atom_site_symmetry_multiplicity
 _atom_site_fract_x
 _atom_site_fract_y
 _atom_site_fract_z
 _atom_site_occupancy
  Li  Li0  1  0.10828400  0.08018700  0.41344400  1
  Li  Li1  1  0.39171600  0.08018700  0.91344400  1
  Li  Li2  1  0.67061900  0.14388000  0.74005200  1
  Li  Li3  1  0.82938100  0.14388000  0.24005200  1
  Li  Li4  1  0.65831900  0.16812800  0.49642100  1
  Li  Li5  1  0.84168100  0.16812800  0.99642100  1
  Li  Li6  1  0.46833900  0.22177800  0.33444500  1
  Li  Li7  1  0.03166100  0.22177800  0.83444500  1
  Li  Li8  1  0.53027200  0.21703500  0.12308200  1
  Li  Li9  1  0.96972800  0.21703500  0.62308200  1
  Li  Li10  1  0.03027200  0.28296500  0.12308200  1
  Li  Li11  1  0.46972800  0.28296500  0.62308200  1
  Li  Li12  1  0.96833900  0.27822200  0.33444500  1
  Li  Li13  1  0.53166100  0.27822200  0.83444500  1
  Li  Li14  1  0.15831900  0.33187200  0.49642100  1
  Li  Li15  1  0.34168100  0.33187200  0.99642100  1
  Li  Li16  1  0.32938100  0.35612000  0.24005200  1
  Li  Li17  1  0.17061900  0.35612000  0.74005200  1
  Li  Li18  1  0.89171600  0.41981300  0.91344400  1
  Li  Li19  1  0.60828400  0.41981300  0.41344400  1
  Li  Li20  1  0.10828400  0.58018700  0.08655600  1
  Li  Li21  1  0.39171600  0.58018700  0.58655600  1
  Li  Li22  1  0.82938100  0.64388000  0.25994800  1
  Li  Li23  1  0.67061900  0.64388000  0.75994800  1
  Li  Li24  1  0.65831900  0.66812800  0.00357900  1
  Li  Li25  1  0.84168100  0.66812800  0.50357900  1
  Li  Li26  1  0.46833900  0.72177800  0.16555500  1
  Li  Li27  1  0.03166100  0.72177800  0.66555500  1
  Li  Li28  1  0.53027200  0.71703500  0.37691800  1
  Li  Li29  1  0.96972800  0.71703500  0.87691800  1
  Li  Li30  1  0.03027200  0.78296500  0.37691800  1
  Li  Li31  1  0.46972800  0.78296500  0.87691800  1
  Li  Li32  1  0.53166100  0.77822200  0.66555500  1
  Li  Li33  1  0.96833900  0.77822200  0.16555500  1
  Li  Li34  1  0.15831900  0.83187200  0.00357900  1
  Li  Li35  1  0.34168100  0.83187200  0.50357900  1
  Li  Li36  1  0.32938100  0.85612000  0.25994800  1
  Li  Li37  1  0.17061900  0.85612000  0.75994800  1
  Li  Li38  1  0.89171600  0.91981300  0.58655600  1
  Li  Li39  1  0.60828400  0.91981300  0.08655600  1
  Sb  Sb0  1  0.16293400  0.06518300  0.12476300  1
  Sb  Sb1  1  0.33706600  0.06518300  0.62476300  1
  Sb  Sb2  1  0.66293400  0.43481700  0.12476300  1
  Sb  Sb3  1  0.83706600  0.43481700  0.62476300  1
  Sb  Sb4  1  0.33706600  0.56518300  0.87523700  1
  Sb  Sb5  1  0.16293400  0.56518300  0.37523700  1
  Sb  Sb6  1  0.66293400  0.93481700  0.37523700  1
  Sb  Sb7  1  0.83706600  0.93481700  0.87523700  1
  S  S0  1  0.75688200  0.07359100  0.11600700  1
  S  S1  1  0.74311800  0.07359100  0.61600700  1
  S  S2  1  0.26219100  0.17000600  0.51879600  1
  S  S3  1  0.23780900  0.17000600  0.01879600  1
  S  S4  1  0.21851400  0.18506700  0.22210100  1
  S  S5  1  0.28148600  0.18506700  0.72210100  1
  S  S6  1  0.77980400  0.14591300  0.37172000  1
  S  S7  1  0.72019600  0.14591300  0.87172000  1
  S  S8  1  0.22019600  0.35408700  0.87172000  1
  S  S9  1  0.27980400  0.35408700  0.37172000  1
  S  S10  1  0.71851400  0.31493300  0.22210100  1
  S  S11  1  0.78148600  0.31493300  0.72210100  1
  S  S12  1  0.73780900  0.32999400  0.01879600  1
  S  S13  1  0.76219100  0.32999400  0.51879600  1
  S  S14  1  0.25688200  0.42640900  0.11600700  1
  S  S15  1  0.24311800  0.42640900  0.61600700  1
  S  S16  1  0.74311800  0.57359100  0.88399300  1
  S  S17  1  0.75688200  0.57359100  0.38399300  1
  S  S18  1  0.26219100  0.67000600  0.98120400  1
  S  S19  1  0.23780900  0.67000600  0.48120400  1
  S  S20  1  0.21851400  0.68506700  0.27789900  1
  S  S21  1  0.28148600  0.68506700  0.77789900  1
  S  S22  1  0.77980400  0.64591300  0.12828000  1
  S  S23  1  0.72019600  0.64591300  0.62828000  1
  S  S24  1  0.22019600  0.85408700  0.62828000  1
  S  S25  1  0.27980400  0.85408700  0.12828000  1
  S  S26  1  0.71851400  0.81493300  0.27789900  1
  S  S27  1  0.78148600  0.81493300  0.77789900  1
  S  S28  1  0.73780900  0.82999400  0.48120400  1
  S  S29  1  0.76219100  0.82999400  0.98120400  1
  S  S30  1  0.25688200  0.92640900  0.38399300  1
  S  S31  1  0.24311800  0.92640900  0.88399300  1
loop_
_geom_bond_atom_site_label_1
_geom_bond_atom_site_label_2
_geom_bond_distance
_geom_bond_site_symmetry_2
Li0 S6 2.382424 1_455
Li0 S2 2.488056 1_555
Li0 S30 2.550103 1_545
Li1 S7 2.382424 1_555
Li1 S3 2.488056 1_556
Li1 S31 2.550103 1_545
Li2 S7 2.339191 1_555
Li2 S1 2.469606 1_555
Li2 S5 2.512712 1_555
Li2 S11 2.689771 1_555
Li3 S6 2.339191 1_555
Li3 S0 2.469606 1_555
Li3 S4 2.512712 1_655
Li3 S10 2.689771 1_555
Li4 S6 2.345790 1_555
Li4 S2 2.488977 1_555
Li4 S13 2.556560 1_555
Li4 S1 2.597405 1_555
Li5 S7 2.345790 1_555
Li5 S3 2.488977 1_656
Li5 S12 2.556560 1_556
Li5 S0 2.597405 1_556
Li6 S6 2.339821 1_555
Li6 S9 2.405128 1_555
Li6 S4 2.573479 1_555
Li6 S10 2.880713 1_555
Li7 S7 2.339821 1_455
Li7 S8 2.405128 1_555
Li7 S5 2.573479 1_555
Li7 S11 2.880713 1_455
Li8 S10 2.566410 1_555
Li8 S0 2.583934 1_555
Li8 S4 2.648347 1_555
Li8 S3 2.677319 1_555
Li8 S12 2.817000 1_555
Li9 S11 2.566410 1_555
Li9 S1 2.583934 1_555
Li9 S5 2.648347 1_655
Li9 S2 2.677319 1_655
Li9 S13 2.817000 1_555
Li10 S4 2.566410 1_555
Li10 S14 2.583934 1_555
Li10 S10 2.648347 1_455
Li10 S12 2.677319 1_455
Li10 S3 2.817000 1_555
Li11 S5 2.566410 1_555
Li11 S15 2.583934 1_555
Li11 S11 2.648347 1_555
Li11 S13 2.677319 1_555
Li11 S2 2.817000 1_555
Li12 S9 2.339821 1_655
Li12 S6 2.405128 1_555
Li12 S10 2.573479 1_555
Li12 S4 2.880713 1_655
Li13 S8 2.339821 1_555
Li13 S7 2.405128 1_555
Li13 S11 2.573479 1_555
Li13 S5 2.880713 1_555
Li14 S9 2.345790 1_555
Li14 S13 2.488977 1_455
Li14 S2 2.556560 1_555
Li14 S15 2.597405 1_555
Li15 S8 2.345790 1_555
Li15 S12 2.488977 1_556
Li15 S3 2.556560 1_556
Li15 S14 2.597405 1_556
Li16 S9 2.339191 1_555
Li16 S14 2.469606 1_555
Li16 S10 2.512712 1_555
Li16 S4 2.689771 1_555
Li17 S8 2.339191 1_555
Li17 S15 2.469606 1_555
Li17 S11 2.512712 1_455
Li17 S5 2.689771 1_555
Li18 S8 2.382424 1_655
Li18 S12 2.488056 1_556
Li18 S16 2.550103 1_555
Li19 S9 2.382424 1_555
Li19 S13 2.488056 1_555
Li19 S17 2.550103 1_555
Li20 S22 2.382424 1_455
Li20 S18 2.488056 1_554
Li20 S14 2.550103 1_555
Li21 S23 2.382424 1_555
Li21 S19 2.488056 1_555
Li21 S15 2.550103 1_555
Li22 S22 2.339191 1_555
Li22 S17 2.469606 1_555
Li22 S20 2.512712 1_655
Li22 S26 2.689771 1_555
Li23 S23 2.339191 1_555
Li23 S16 2.469606 1_555
Li23 S21 2.512712 1_555
Li23 S27 2.689771 1_555
Li24 S22 2.345790 1_555
Li24 S18 2.488977 1_554
Li24 S29 2.556560 1_554
Li24 S16 2.597405 1_554
Li25 S23 2.345790 1_555
Li25 S19 2.488977 1_655
Li25 S28 2.556560 1_555
Li25 S17 2.597405 1_555
Li26 S22 2.339821 1_555
Li26 S25 2.405128 1_555
Li26 S20 2.573479 1_555
Li26 S26 2.880713 1_555
Li27 S23 2.339821 1_455
Li27 S24 2.405128 1_555
Li27 S21 2.573479 1_555
Li27 S27 2.880713 1_455
Li28 S26 2.566410 1_555
Li28 S17 2.583934 1_555
Li28 S20 2.648347 1_555
Li28 S19 2.677319 1_555
Li28 S28 2.817000 1_555
Li29 S27 2.566410 1_555
Li29 S16 2.583934 1_555
Li29 S21 2.648347 1_655
Li29 S18 2.677319 1_655
Li29 S29 2.817000 1_555
Li30 S20 2.566410 1_555
Li30 S30 2.583934 1_555
Li30 S26 2.648347 1_455
Li30 S28 2.677319 1_455
Li30 S19 2.817000 1_555
Li31 S21 2.566410 1_555
Li31 S31 2.583934 1_555
Li31 S27 2.648347 1_555
Li31 S29 2.677319 1_555
Li31 S18 2.817000 1_555
Li32 S24 2.339821 1_555
Li32 S23 2.405128 1_555
Li32 S27 2.573479 1_555
Li32 S21 2.880713 1_555
Li33 S25 2.339821 1_655
Li33 S22 2.405128 1_555
Li33 S26 2.573479 1_555
Li33 S20 2.880713 1_655
Li34 S25 2.345790 1_555
Li34 S29 2.488977 1_454
Li34 S18 2.556560 1_554
Li34 S31 2.597405 1_554
Li35 S24 2.345790 1_555
Li35 S28 2.488977 1_555
Li35 S19 2.556560 1_555
Li35 S30 2.597405 1_555
Li36 S25 2.339191 1_555
Li36 S30 2.469606 1_555
Li36 S26 2.512712 1_555
Li36 S20 2.689771 1_555
Li37 S24 2.339191 1_555
Li37 S31 2.469606 1_555
Li37 S27 2.512712 1_455
Li37 S21 2.689771 1_555
Li38 S24 2.382424 1_655
Li38 S28 2.488056 1_555
Li38 S1 2.550103 1_565
Li39 S25 2.382424 1_555
Li39 S29 2.488056 1_554
Li39 S0 2.550103 1_565
S0 Sb0 2.526893 1_655
S1 Sb1 2.526893 1_555
S2 Sb1 2.489943 1_555
S3 Sb0 2.489943 1_555
S4 Sb0 2.515843 1_555
S5 Sb1 2.515843 1_555
S10 Sb2 2.515843 1_555
S11 Sb3 2.515843 1_555
S12 Sb2 2.489943 1_555
S13 Sb3 2.489943 1_555
S14 Sb2 2.526893 1_555
S15 Sb3 2.526893 1_455
S16 Sb4 2.526893 1_555
S17 Sb5 2.526893 1_655
S18 Sb4 2.489943 1_555
S19 Sb5 2.489943 1_555
S20 Sb5 2.515843 1_555
S21 Sb4 2.515843 1_555
S26 Sb6 2.515843 1_555
S27 Sb7 2.515843 1_555
S28 Sb6 2.489943 1_555
S29 Sb7 2.489943 1_555
S30 Sb6 2.526893 1_555
S31 Sb7 2.526893 1_455
