# generated using pymatgen
data_CuSb3(PO4)6
_symmetry_space_group_name_H-M   'P 1'
_cell_length_a   8.87639099
_cell_length_b   8.87639099
_cell_length_c   8.87639081
_cell_angle_alpha   57.96477195
_cell_angle_beta   57.96477195
_cell_angle_gamma   57.96477380
_symmetry_Int_Tables_number   1
_chemical_formula_structural   CuSb3(PO4)6
_chemical_formula_sum   'Cu1 Sb3 P6 O24'
_cell_volume   471.43986022
_cell_formula_units_Z   1
loop_
 _symmetry_equiv_pos_site_id
 _symmetry_equiv_pos_as_xyz
  1  'x, y, z'
loop_
 _atom_site_type_symbol
 _atom_site_label
 _atom_site_symmetry_multiplicity
 _atom_site_fract_x
 _atom_site_fract_y
 _atom_site_fract_z
 _atom_site_occupancy
  Cu  Cu0  1  0.14481300  0.14481300  0.14481300  1
  Sb  Sb0  1  0.85685500  0.85685500  0.85685500  1
  Sb  Sb1  1  0.64350000  0.64350000  0.64350000  1
  Sb  Sb2  1  0.35662500  0.35662500  0.35662500  1
  P  P0  1  0.53230300  0.96397800  0.24843900  1
  P  P1  1  0.24843900  0.53230300  0.96397800  1
  P  P2  1  0.96397800  0.24843900  0.53230300  1
  P  P3  1  0.03941000  0.75546400  0.45685300  1
  P  P4  1  0.75546400  0.45685300  0.03941000  1
  P  P5  1  0.45685300  0.03941000  0.75546400  1
  O  O0  1  0.48722200  0.86729200  0.72329400  1
  O  O1  1  0.86729200  0.72329400  0.48722200  1
  O  O2  1  0.72005700  0.94078600  0.07602900  1
  O  O3  1  0.72329400  0.48722200  0.86729200  1
  O  O4  1  0.56037800  0.78148500  0.42406700  1
  O  O5  1  0.36517800  0.98578700  0.22552600  1
  O  O6  1  0.07602900  0.72005700  0.94078600  1
  O  O7  1  0.42406700  0.56037800  0.78148500  1
  O  O8  1  0.78148500  0.42406700  0.56037800  1
  O  O9  1  0.01411800  0.77193500  0.63582700  1
  O  O10  1  0.05761500  0.92646900  0.28003500  1
  O  O11  1  0.77193500  0.63582700  0.01411800  1
  O  O12  1  0.22552600  0.36517800  0.98578700  1
  O  O13  1  0.94078600  0.07602900  0.72005700  1
  O  O14  1  0.98578700  0.22552600  0.36517800  1
  O  O15  1  0.21780000  0.57332000  0.44379700  1
  O  O16  1  0.57332000  0.44379700  0.21780000  1
  O  O17  1  0.92646900  0.28003500  0.05761500  1
  O  O18  1  0.63582700  0.01411800  0.77193500  1
  O  O19  1  0.44379700  0.21780000  0.57332000  1
  O  O20  1  0.27499500  0.51583600  0.13291200  1
  O  O21  1  0.28003500  0.05761500  0.92646900  1
  O  O22  1  0.13291300  0.27499500  0.51583600  1
  O  O23  1  0.51583600  0.13291200  0.27499500  1
loop_
_geom_bond_atom_site_label_1
_geom_bond_atom_site_label_2
_geom_bond_distance
_geom_bond_site_symmetry_2
Cu0 O12 1.953604 1_554
Cu0 O14 1.953604 1_455
Cu0 O5 1.953605 1_545
Cu0 O21 1.983422 1_554
Cu0 O10 1.983422 1_545
Cu0 O17 1.983422 1_455
O0 P5 1.559676 1_565
O0 Sb1 1.974572 1_555
O1 P3 1.559676 1_655
O1 Sb1 1.974572 1_555
O2 P0 1.557691 1_555
O2 Sb0 1.971323 1_554
O3 P4 1.559676 1_556
O3 Sb1 1.974572 1_555
O4 P0 1.556040 1_555
O4 Sb1 1.968086 1_555
O5 P0 1.501055 1_555
O6 P1 1.557691 1_555
O6 Sb0 1.971323 1_455
O7 P1 1.556040 1_555
O7 Sb1 1.968086 1_555
O8 P2 1.556041 1_555
O8 Sb1 1.968087 1_555
O9 P3 1.558455 1_555
O9 Sb0 1.978167 1_455
O10 P3 1.502416 1_555
O11 P4 1.558455 1_555
O11 Sb0 1.978167 1_554
O12 P1 1.501055 1_555
O13 P2 1.557691 1_555
O13 Sb0 1.971323 1_545
O14 P2 1.501055 1_555
O15 P3 1.556561 1_555
O15 Sb2 1.967182 1_555
O16 P4 1.556561 1_555
O16 Sb2 1.967182 1_555
O17 P4 1.502416 1_555
O18 P5 1.558455 1_555
O18 Sb0 1.978167 1_545
O19 P5 1.556561 1_555
O19 Sb2 1.967182 1_555
O20 P1 1.559299 1_554
O20 Sb2 1.982020 1_555
O21 P5 1.502416 1_555
O22 P2 1.559308 1_455
O22 Sb2 1.982013 1_555
O23 P0 1.559299 1_545
O23 Sb2 1.982020 1_555
