# generated using pymatgen
data_Mn7O7F
_symmetry_space_group_name_H-M   'P 1'
_cell_length_a   3.53626224
_cell_length_b   3.53626224
_cell_length_c   19.56948500
_cell_angle_alpha   90.00000000
_cell_angle_beta   90.00000000
_cell_angle_gamma   120.00000443
_symmetry_Int_Tables_number   1
_chemical_formula_structural   Mn7O7F
_chemical_formula_sum   'Mn7 O7 F1'
_cell_volume   211.93317071
_cell_formula_units_Z   1
loop_
 _symmetry_equiv_pos_site_id
 _symmetry_equiv_pos_as_xyz
  1  'x, y, z'
loop_
 _atom_site_type_symbol
 _atom_site_label
 _atom_site_symmetry_multiplicity
 _atom_site_fract_x
 _atom_site_fract_y
 _atom_site_fract_z
 _atom_site_occupancy
  Mn  Mn0  1  0.33333300  0.66666700  0.07963100  1
  Mn  Mn1  1  0.33333300  0.66666700  0.35069600  1
  Mn  Mn2  1  0.33333300  0.66666700  0.61742100  1
  Mn  Mn3  1  0.33333300  0.66666700  0.87186900  1
  Mn  Mn4  1  0.66666700  0.33333300  0.21629700  1
  Mn  Mn5  1  0.66666700  0.33333300  0.48392800  1
  Mn  Mn6  1  0.66666700  0.33333300  0.74254100  1
  O  O0  1  0.33333300  0.66666700  0.24311600  1
  O  O1  1  0.33333300  0.66666700  0.50866300  1
  O  O2  1  0.33333300  0.66666700  0.74027500  1
  O  O3  1  0.66666700  0.33333300  0.10918300  1
  O  O4  1  0.66666700  0.33333300  0.37596900  1
  O  O5  1  0.66666700  0.33333300  0.64017100  1
  O  O6  1  0.66666700  0.33333300  0.84295100  1
  F  F0  1  0.33333300  0.66666700  0.97524100  1
loop_
_geom_bond_atom_site_label_1
_geom_bond_atom_site_label_2
_geom_bond_distance
_geom_bond_site_symmetry_2
Mn0 O3 2.121986 1_455
Mn0 O3 2.121986 1_565
Mn0 O3 2.121992 1_555
Mn1 O4 2.100710 1_455
Mn1 O4 2.100710 1_565
Mn1 O4 2.100716 1_555
Mn1 O0 2.105285 1_555
Mn2 O5 2.089637 1_455
Mn2 O5 2.089637 1_565
Mn2 O5 2.089643 1_555
Mn2 O1 2.128338 1_555
Mn2 O2 2.404190 1_555
Mn3 O6 2.118639 1_455
Mn3 O6 2.118639 1_565
Mn3 O6 2.118645 1_555
Mn3 O2 2.575227 1_555
Mn4 O3 2.096166 1_555
Mn4 O0 2.108038 1_545
Mn4 O0 2.108038 1_655
Mn4 O0 2.108044 1_555
Mn5 O1 2.098257 1_545
Mn5 O1 2.098257 1_655
Mn5 O1 2.098263 1_555
Mn5 O4 2.112702 1_555
Mn6 O6 1.964972 1_555
Mn6 O5 2.003328 1_555
Mn6 O2 2.042141 1_545
Mn6 O2 2.042141 1_655
Mn6 O2 2.042148 1_555
F0 Mn3 2.022937 1_555
F0 Mn0 2.042859 1_556
