# generated using pymatgen
data_LiTiP2O7
_symmetry_space_group_name_H-M   'P 1'
_cell_length_a   6.37747440
_cell_length_b   6.38900127
_cell_length_c   13.21855043
_cell_angle_alpha   78.66480155
_cell_angle_beta   78.28969159
_cell_angle_gamma   100.28073137
_symmetry_Int_Tables_number   1
_chemical_formula_structural   LiTiP2O7
_chemical_formula_sum   'Li4 Ti4 P8 O28'
_cell_volume   503.54922983
_cell_formula_units_Z   4
loop_
 _symmetry_equiv_pos_site_id
 _symmetry_equiv_pos_as_xyz
  1  'x, y, z'
loop_
 _atom_site_type_symbol
 _atom_site_label
 _atom_site_symmetry_multiplicity
 _atom_site_fract_x
 _atom_site_fract_y
 _atom_site_fract_z
 _atom_site_occupancy
  Li  Li0  1  0.38444200  0.97096000  0.37649500  1
  Li  Li1  1  0.15299000  0.22668200  0.87751900  1
  Li  Li2  1  0.85041800  0.76894400  0.12134600  1
  Li  Li3  1  0.60899900  0.03646800  0.62634200  1
  Ti  Ti0  1  0.22994100  0.59148100  0.64503600  1
  Ti  Ti1  1  0.73604100  0.87811300  0.85621300  1
  Ti  Ti2  1  0.26289900  0.12464500  0.14197300  1
  Ti  Ti3  1  0.76914500  0.40505200  0.35647800  1
  P  P0  1  0.22502100  0.75379800  0.86567900  1
  P  P1  1  0.34534100  0.66816800  0.07357700  1
  P  P2  1  0.24326800  0.42200500  0.42590100  1
  P  P3  1  0.87988800  0.90648000  0.36648300  1
  P  P4  1  0.12196800  0.09359300  0.63448200  1
  P  P5  1  0.75821200  0.58119800  0.57391700  1
  P  P6  1  0.65473200  0.33514300  0.92604400  1
  P  P7  1  0.77468300  0.24858900  0.13215600  1
  O  O0  1  0.04652500  0.88365800  0.88691300  1
  O  O1  1  0.20877800  0.81196500  0.12551400  1
  O  O2  1  0.27058000  0.93484600  0.61346100  1
  O  O3  1  0.44987900  0.91114300  0.81367300  1
  O  O4  1  0.08753900  0.46703000  0.35447600  1
  O  O5  1  0.17160100  0.57278800  0.80789800  1
  O  O6  1  0.23145000  0.61408000  0.98009200  1
  O  O7  1  0.30684200  0.61304000  0.47631700  1
  O  O8  1  0.58724100  0.78466000  0.02365000  1
  O  O9  1  0.31917500  0.44147900  0.14496400  1
  O  O10  1  0.09691700  0.21366300  0.51977200  1
  O  O11  1  0.56025300  0.66231500  0.62599900  1
  O  O12  1  0.88094500  0.98562900  0.69291300  1
  O  O13  1  0.22756700  0.26484400  0.68651400  1
  O  O14  1  0.77216800  0.73118000  0.31744300  1
  O  O15  1  0.11926000  0.01601500  0.30600000  1
  O  O16  1  0.43921000  0.33937400  0.37237800  1
  O  O17  1  0.90844500  0.79053700  0.48142400  1
  O  O18  1  0.67776300  0.56148100  0.85450500  1
  O  O19  1  0.41273300  0.21773800  0.97493900  1
  O  O20  1  0.69546900  0.38990400  0.52345000  1
  O  O21  1  0.76716000  0.39516500  0.01914600  1
  O  O22  1  0.82608800  0.42459000  0.19312900  1
  O  O23  1  0.91137000  0.53433600  0.64647600  1
  O  O24  1  0.54994400  0.09039500  0.18178600  1
  O  O25  1  0.73108900  0.06528200  0.38691900  1
  O  O26  1  0.79208800  0.19102100  0.87472700  1
  O  O27  1  0.95514300  0.12244700  0.10785700  1
loop_
_geom_bond_atom_site_label_1
_geom_bond_atom_site_label_2
_geom_bond_distance
_geom_bond_site_symmetry_2
Li0 O15 2.125877 1_565
Li0 O25 2.224913 1_565
Li0 O16 2.305167 1_565
Li0 O7 2.315187 1_555
Li0 O24 2.481607 1_565
Li1 O0 2.146418 1_545
Li1 O5 2.193801 1_555
Li1 O26 2.280666 1_455
Li1 O19 2.297030 1_555
Li1 O13 2.426826 1_555
Li2 O22 2.182322 1_555
Li2 O27 2.198580 1_565
Li2 O1 2.265971 1_655
Li2 O8 2.320315 1_555
Li2 O14 2.492471 1_555
Li3 O12 2.143823 1_545
Li3 O2 2.191133 1_545
Li3 O20 2.301464 1_555
Li3 O11 2.355962 1_545
Li3 O3 2.390235 1_545
O0 P0 1.536866 1_555
O0 Ti1 2.096077 1_455
O1 P1 1.537763 1_555
O1 Ti2 2.027939 1_565
O2 P4 1.533344 1_565
O2 Ti0 2.108831 1_555
O3 P0 1.534014 1_555
O3 Ti1 2.049077 1_555
O4 P2 1.528511 1_555
O4 Ti3 1.991908 1_455
O5 P0 1.532668 1_555
O5 Ti0 2.084508 1_555
O6 P0 1.610384 1_555
O6 P1 1.617604 1_556
O7 P2 1.533288 1_555
O7 Ti0 2.155115 1_555
O8 P1 1.534025 1_555
O8 Ti1 2.140403 1_554
O9 P1 1.525937 1_555
O9 Ti2 2.001467 1_555
O10 P4 1.611833 1_555
O10 P2 1.618578 1_555
O11 P5 1.535379 1_555
O11 Ti0 2.026198 1_555
O12 P4 1.537945 1_665
O12 Ti1 2.089536 1_555
O13 P4 1.531184 1_555
O13 Ti0 2.047315 1_555
O14 P3 1.529074 1_555
O14 Ti3 2.041355 1_555
O15 P3 1.537110 1_445
O15 Ti2 2.096953 1_555
O16 P2 1.537603 1_555
O16 Ti3 2.029375 1_555
O17 P3 1.615049 1_555
O17 P5 1.620460 1_555
O18 P6 1.528790 1_555
O18 Ti1 1.995998 1_555
O19 P6 1.534139 1_555
O19 Ti2 2.136904 1_556
O20 P5 1.533997 1_555
O20 Ti3 2.140184 1_555
O21 P7 1.614318 1_555
O21 P6 1.619036 1_554
O22 P7 1.534092 1_555
O22 Ti3 2.090295 1_555
O23 P5 1.528206 1_555
O23 Ti0 1.994537 1_655
O24 P7 1.531913 1_555
O24 Ti2 2.040786 1_555
O25 P3 1.533046 1_545
O25 Ti3 2.088560 1_555
O26 P6 1.538697 1_555
O26 Ti1 2.038897 1_545
O27 P7 1.536220 1_555
O27 Ti2 2.099458 1_655
