# generated using pymatgen
data_LiV(Si3O7)2
_symmetry_space_group_name_H-M   'P 1'
_cell_length_a   12.77047110
_cell_length_b   12.77047110
_cell_length_c   12.77047110
_cell_angle_alpha   146.41641412
_cell_angle_beta   107.36833395
_cell_angle_gamma   82.43833868
_symmetry_Int_Tables_number   1
_chemical_formula_structural   LiV(Si3O7)2
_chemical_formula_sum   'Li4 V4 Si24 O56'
_cell_volume   1072.12426318
_cell_formula_units_Z   4
loop_
 _symmetry_equiv_pos_site_id
 _symmetry_equiv_pos_as_xyz
  1  'x, y, z'
loop_
 _atom_site_type_symbol
 _atom_site_label
 _atom_site_symmetry_multiplicity
 _atom_site_fract_x
 _atom_site_fract_y
 _atom_site_fract_z
 _atom_site_occupancy
  Li  Li0  1  0.25000000  0.25000000  0.00000000  1
  Li  Li1  1  0.75000000  0.75000000  0.00000000  1
  Li  Li2  1  0.50000000  0.00000000  0.50000000  1
  Li  Li3  1  0.00000000  0.50000000  0.50000000  1
  V  V0  1  0.46325600  0.25000000  0.21325600  1
  V  V1  1  0.96325600  0.75000000  0.21325600  1
  V  V2  1  0.03674400  0.25000000  0.78674400  1
  V  V3  1  0.53674400  0.75000000  0.78674400  1
  Si  Si0  1  0.37174900  0.68605100  0.05780000  1
  Si  Si1  1  0.12825100  0.18605100  0.31430100  1
  Si  Si2  1  0.83471800  0.23673200  0.07145000  1
  Si  Si3  1  0.23020300  0.41007800  0.33465500  1
  Si  Si4  1  0.92457700  0.10445200  0.33465500  1
  Si  Si5  1  0.57542300  0.91007800  0.17987500  1
  Si  Si6  1  0.26979700  0.60445200  0.17987500  1
  Si  Si7  1  0.33471800  0.26326800  0.59798600  1
  Si  Si8  1  0.02948800  0.49835600  0.21933800  1
  Si  Si9  1  0.77901800  0.99835600  0.46886900  1
  Si  Si10  1  0.72098200  0.18985100  0.21933800  1
  Si  Si11  1  0.47051300  0.68985100  0.46886900  1
  Si  Si12  1  0.52948800  0.31014900  0.53113100  1
  Si  Si13  1  0.22098200  0.00164400  0.53113100  1
  Si  Si14  1  0.97051300  0.50164400  0.78066200  1
  Si  Si15  1  0.27901800  0.81014900  0.78066200  1
  Si  Si16  1  0.66528200  0.73673200  0.40201400  1
  Si  Si17  1  0.73020300  0.39554800  0.82012500  1
  Si  Si18  1  0.76979700  0.58992200  0.66534500  1
  Si  Si19  1  0.07542300  0.89554800  0.66534500  1
  Si  Si20  1  0.42457700  0.08992200  0.82012500  1
  Si  Si21  1  0.16528200  0.76326800  0.92855000  1
  Si  Si22  1  0.87174900  0.81394900  0.68569900  1
  Si  Si23  1  0.62825100  0.31394900  0.94220000  1
  O  O0  1  0.49328100  0.82982400  0.19074700  1
  O  O1  1  0.36092300  0.69746600  0.19074700  1
  O  O2  1  0.27228400  0.76718500  0.03946800  1
  O  O3  1  0.43156200  0.23653700  0.03996800  1
  O  O4  1  0.80343100  0.60840600  0.03996800  1
  O  O5  1  0.12830400  0.96847500  0.09677900  1
  O  O6  1  0.93156200  0.89159400  0.19502500  1
  O  O7  1  0.30343100  0.26346300  0.19502500  1
  O  O8  1  0.30630800  0.09014500  0.53145100  1
  O  O9  1  0.44130500  0.22514300  0.53145100  1
  O  O10  1  0.09972800  0.05520700  0.54171900  1
  O  O11  1  0.48651100  0.44199100  0.54171900  1
  O  O12  1  0.13907700  0.32982400  0.33654300  1
  O  O13  1  0.00671900  0.19746600  0.33654300  1
  O  O14  1  0.22771600  0.26718500  0.49490100  1
  O  O15  1  0.98651100  0.44479300  0.04452100  1
  O  O16  1  0.59972800  0.05800900  0.04452100  1
  O  O17  1  0.70331200  0.94868000  0.29844300  1
  O  O18  1  0.15023700  0.44868000  0.24536900  1
  O  O19  1  0.79668800  0.09513200  0.24536900  1
  O  O20  1  0.34976300  0.59513200  0.29844300  1
  O  O21  1  0.80630800  0.27485700  0.21616300  1
  O  O22  1  0.94130500  0.40985500  0.21616300  1
  O  O23  1  0.95586900  0.26466100  0.57158600  1
  O  O24  1  0.19307400  0.76466100  0.30879200  1
  O  O25  1  0.54413100  0.11571700  0.30879200  1
  O  O26  1  0.30692600  0.61571700  0.57158600  1
  O  O27  1  0.37169600  0.46847500  0.84017200  1
  O  O28  1  0.62830400  0.53152500  0.15982800  1
  O  O29  1  0.04413100  0.73533900  0.42841400  1
  O  O30  1  0.69307400  0.38428300  0.42841400  1
  O  O31  1  0.45586900  0.88428300  0.69120800  1
  O  O32  1  0.80692600  0.23533900  0.69120800  1
  O  O33  1  0.05869500  0.59014500  0.78383700  1
  O  O34  1  0.19369200  0.72514300  0.78383700  1
  O  O35  1  0.84976300  0.55132000  0.75463100  1
  O  O36  1  0.20331200  0.90486800  0.75463100  1
  O  O37  1  0.29668800  0.05132000  0.70155700  1
  O  O38  1  0.65023700  0.40486800  0.70155700  1
  O  O39  1  0.01348900  0.55520700  0.95547900  1
  O  O40  1  0.40027200  0.94199100  0.95547900  1
  O  O41  1  0.77228400  0.73281500  0.50509900  1
  O  O42  1  0.86092300  0.67017600  0.66345700  1
  O  O43  1  0.99328100  0.80253400  0.66345700  1
  O  O44  1  0.90027200  0.94479300  0.45828100  1
  O  O45  1  0.51348900  0.55800900  0.45828100  1
  O  O46  1  0.55869500  0.77485700  0.46854900  1
  O  O47  1  0.69369200  0.90985500  0.46854900  1
  O  O48  1  0.69656900  0.73653700  0.80497500  1
  O  O49  1  0.06843900  0.10840600  0.80497500  1
  O  O50  1  0.87169600  0.03152500  0.90322100  1
  O  O51  1  0.19656900  0.39159400  0.96003200  1
  O  O52  1  0.56843900  0.76346300  0.96003200  1
  O  O53  1  0.72771600  0.23281500  0.96053200  1
  O  O54  1  0.63907700  0.30253400  0.80925300  1
  O  O55  1  0.50671900  0.17017600  0.80925300  1
loop_
_geom_bond_atom_site_label_1
_geom_bond_atom_site_label_2
_geom_bond_distance
_geom_bond_site_symmetry_2
Li0 O49 2.236254 1_554
Li0 O3 2.236264 1_555
Li0 O7 2.236264 1_555
Li0 O51 2.236264 1_554
Li0 O37 2.483023 1_554
Li0 O36 2.483029 1_544
Li0 O20 2.483031 1_555
Li0 O18 2.483031 1_555
Li1 O52 2.236252 1_554
Li1 O6 2.236264 1_555
Li1 O48 2.236264 1_554
Li1 O4 2.236264 1_555
Li1 O17 2.483023 1_555
Li1 O19 2.483029 1_565
Li1 O35 2.483031 1_554
Li1 O38 2.483031 1_554
Li2 O54 2.423602 1_555
Li2 O0 2.423602 1_545
Li2 O55 2.423602 1_555
Li2 O1 2.423602 1_545
Li2 O47 2.584237 1_545
Li2 O8 2.584237 1_555
Li2 O9 2.584239 1_555
Li2 O46 2.584239 1_545
Li3 O13 2.423602 1_555
Li3 O42 2.423602 1_455
Li3 O12 2.423602 1_555
Li3 O43 2.423602 1_455
Li3 O22 2.584236 1_455
Li3 O33 2.584236 1_555
Li3 O34 2.584237 1_555
Li3 O21 2.584237 1_455
O0 Si0 1.626450 1_555
O0 Si5 1.666443 1_555
O1 Si0 1.626450 1_555
O1 Si6 1.666443 1_555
O2 Si21 1.618791 1_554
O2 Si0 1.619269 1_555
O3 Si20 1.591157 1_554
O3 V0 1.985005 1_555
O4 Si17 1.591157 1_554
O4 V1 1.985005 1_555
O5 Si1 1.605412 1_565
O5 Si21 1.614158 1_554
O6 Si4 1.591157 1_565
O6 V1 1.985005 1_555
O7 Si3 1.591157 1_555
O7 V0 1.985005 1_555
O8 Si7 1.624386 1_555
O8 Si13 1.666877 1_555
O9 Si7 1.624374 1_555
O9 Si12 1.666896 1_555
O10 Si13 1.605014 1_555
O10 V2 2.152455 1_555
O10 V1 2.450888 1_445
O11 Si12 1.605020 1_555
O11 V3 2.152456 1_555
O11 V0 2.450891 1_555
O12 Si1 1.626440 1_555
O12 Si3 1.666443 1_555
O13 Si1 1.626455 1_555
O13 Si4 1.666443 1_455
O14 Si7 1.618798 1_555
O14 Si1 1.619272 1_555
O15 Si8 1.605013 1_655
O15 V2 2.152462 1_654
O15 V1 2.450886 1_555
O16 Si10 1.605014 1_555
O16 V3 2.152455 1_544
O16 V0 2.450888 1_555
O17 Si9 1.636668 1_555
O17 Si5 1.641608 1_555
O18 Si8 1.636660 1_555
O18 Si3 1.641599 1_555
O19 Si10 1.636665 1_555
O19 Si4 1.641609 1_555
O20 Si11 1.636671 1_555
O20 Si6 1.641599 1_555
O21 Si2 1.624386 1_555
O21 Si10 1.666877 1_555
O22 Si2 1.624377 1_555
O22 Si8 1.666896 1_655
O23 Si4 1.636942 1_555
O23 Si14 1.646333 1_555
O23 V2 2.786293 1_655
O24 Si6 1.636951 1_555
O24 Si13 1.646332 1_565
O24 V1 2.786281 1_455
O25 Si5 1.636942 1_545
O25 Si12 1.646327 1_555
O25 V0 2.786293 1_555
O26 Si3 1.636945 1_555
O26 Si15 1.646339 1_555
O26 V3 2.786282 1_555
O27 Si0 1.605412 1_556
O27 Si7 1.614164 1_555
O28 Si23 1.605412 1_554
O28 Si16 1.614164 1_555
O29 Si19 1.636942 1_555
O29 Si8 1.646334 1_555
O29 V1 2.786293 1_455
O30 Si18 1.636945 1_555
O30 Si10 1.646339 1_555
O30 V0 2.786282 1_555
O31 Si20 1.636942 1_565
O31 Si11 1.646333 1_555
O31 V3 2.786293 1_555
O32 Si17 1.636951 1_555
O32 Si9 1.646332 1_545
O32 V2 2.786281 1_655
O33 Si21 1.624377 1_555
O33 Si14 1.666886 1_455
O34 Si21 1.624386 1_555
O34 Si15 1.666877 1_555
O35 Si14 1.636671 1_555
O35 Si18 1.641599 1_555
O36 Si15 1.636665 1_555
O36 Si19 1.641609 1_555
O37 Si13 1.636668 1_555
O37 Si20 1.641608 1_555
O38 Si12 1.636662 1_555
O38 Si17 1.641599 1_555
O39 Si14 1.605014 1_455
O39 V1 2.152462 1_456
O39 V2 2.450886 1_555
O40 Si15 1.605014 1_555
O40 V0 2.152455 1_566
O40 V3 2.450888 1_555
O41 Si16 1.618798 1_555
O41 Si22 1.619272 1_555
O42 Si22 1.626440 1_555
O42 Si18 1.666443 1_555
O43 Si22 1.626455 1_555
O43 Si19 1.666443 1_655
O44 Si9 1.605014 1_555
O44 V1 2.152455 1_555
O44 V2 2.450888 1_665
O45 Si11 1.605017 1_555
O45 V0 2.152456 1_555
O45 V3 2.450891 1_555
O46 Si16 1.624374 1_555
O46 Si11 1.666887 1_555
O47 Si16 1.624386 1_555
O47 Si9 1.666877 1_555
O48 Si18 1.591157 1_555
O48 V3 1.985005 1_555
O49 Si19 1.591155 1_545
O49 V2 1.985006 1_555
O50 Si22 1.605412 1_545
O50 Si2 1.614158 1_556
O51 Si6 1.591157 1_556
O51 V2 1.985005 1_555
O52 Si5 1.591161 1_556
O52 V3 1.985004 1_555
O53 Si2 1.618791 1_556
O53 Si23 1.619269 1_555
O54 Si23 1.626450 1_555
O54 Si17 1.666443 1_555
O55 Si23 1.626450 1_555
O55 Si20 1.666443 1_555
