# generated using pymatgen
data_Pr20AlSi19N33Cl2O19
_symmetry_space_group_name_H-M   'P 1'
_cell_length_a   11.71260800
_cell_length_b   10.62744500
_cell_length_c   11.29521926
_cell_angle_alpha   89.89147739
_cell_angle_beta   90.00000000
_cell_angle_gamma   90.00000000
_symmetry_Int_Tables_number   1
_chemical_formula_structural   Pr20AlSi19N33Cl2O19
_chemical_formula_sum   'Pr20 Al1 Si19 N33 Cl2 O19'
_cell_volume   1405.97099485
_cell_formula_units_Z   1
loop_
 _symmetry_equiv_pos_site_id
 _symmetry_equiv_pos_as_xyz
  1  'x, y, z'
loop_
 _atom_site_type_symbol
 _atom_site_label
 _atom_site_symmetry_multiplicity
 _atom_site_fract_x
 _atom_site_fract_y
 _atom_site_fract_z
 _atom_site_occupancy
  Pr  Pr0  1  0.16481700  0.00343200  0.00093500  1
  Pr  Pr1  1  0.00000000  0.89787400  0.36251800  1
  Pr  Pr2  1  0.50000000  0.86913700  0.11835200  1
  Pr  Pr3  1  0.76866500  0.86087600  0.60502900  1
  Pr  Pr4  1  0.23133500  0.86087600  0.60502900  1
  Pr  Pr5  1  0.75668500  0.64531900  0.10377000  1
  Pr  Pr6  1  0.24331500  0.64531900  0.10377000  1
  Pr  Pr7  1  0.50000000  0.62455100  0.61898600  1
  Pr  Pr8  1  0.00000000  0.61117400  0.87338600  1
  Pr  Pr9  1  0.17275800  0.49885900  0.49774400  1
  Pr  Pr10  1  0.82724200  0.49885900  0.49774400  1
  Pr  Pr11  1  0.00000000  0.36431300  0.12453900  1
  Pr  Pr12  1  0.50000000  0.35989100  0.38442500  1
  Pr  Pr13  1  0.77235500  0.35322600  0.89582200  1
  Pr  Pr14  1  0.22764500  0.35322600  0.89582200  1
  Pr  Pr15  1  0.76318300  0.14129500  0.40078100  1
  Pr  Pr16  1  0.23681700  0.14129500  0.40078100  1
  Pr  Pr17  1  0.50000000  0.12614500  0.88072900  1
  Pr  Pr18  1  0.00000000  0.13931300  0.62683900  1
  Pr  Pr19  1  0.83518300  0.00343200  0.00093500  1
  Al  Al0  1  0.00000000  0.78087800  0.10842400  1
  Si  Si0  1  0.75076400  0.88440800  0.25710900  1
  Si  Si1  1  0.24923600  0.88440800  0.25710900  1
  Si  Si2  1  0.36410000  0.85006000  0.85540400  1
  Si  Si3  1  0.63590000  0.85006000  0.85540400  1
  Si  Si4  1  0.00000000  0.70660500  0.61070200  1
  Si  Si5  1  0.36673600  0.65034400  0.35625200  1
  Si  Si6  1  0.63326400  0.65034400  0.35625200  1
  Si  Si7  1  0.24664300  0.61620200  0.75698100  1
  Si  Si8  1  0.75335700  0.61620200  0.75698100  1
  Si  Si9  1  0.75455500  0.38672000  0.24339500  1
  Si  Si10  1  0.24544500  0.38672000  0.24339500  1
  Si  Si11  1  0.36401800  0.34843700  0.64779200  1
  Si  Si12  1  0.63598200  0.34843700  0.64779200  1
  Si  Si13  1  0.00000000  0.28154900  0.38488700  1
  Si  Si14  1  0.00000000  0.21545100  0.89306200  1
  Si  Si15  1  0.36497700  0.15268100  0.14516200  1
  Si  Si16  1  0.63502300  0.15268100  0.14516200  1
  Si  Si17  1  0.24282500  0.11372200  0.73874700  1
  Si  Si18  1  0.75717500  0.11372200  0.73874700  1
  N  N0  1  0.71503600  0.97646600  0.80769800  1
  N  N1  1  0.28496400  0.97646600  0.80769800  1
  N  N2  1  0.50000000  0.89905600  0.88496400  1
  N  N3  1  0.87116200  0.82874700  0.18636600  1
  N  N4  1  0.12883800  0.82874700  0.18636600  1
  N  N5  1  0.35575700  0.77224900  0.25555600  1
  N  N6  1  0.64424300  0.77224900  0.25555600  1
  N  N7  1  0.35037400  0.73047000  0.75156800  1
  N  N8  1  0.64962600  0.73047000  0.75156800  1
  N  N9  1  0.87814800  0.66718400  0.68513100  1
  N  N10  1  0.12185200  0.66718400  0.68513100  1
  N  N11  1  0.50000000  0.59577700  0.39082900  1
  N  N12  1  0.71824800  0.52790700  0.30588800  1
  N  N13  1  0.28175200  0.52790700  0.30588800  1
  N  N14  1  0.71585700  0.47631600  0.69516100  1
  N  N15  1  0.28414300  0.47631600  0.69516100  1
  N  N16  1  0.50000000  0.39850000  0.61905400  1
  N  N17  1  0.00000000  0.38099700  0.90186300  1
  N  N18  1  0.87692400  0.33700500  0.31838100  1
  N  N19  1  0.12307600  0.33700500  0.31838100  1
  N  N20  1  0.35072200  0.27470100  0.24590400  1
  N  N21  1  0.64927800  0.27470100  0.24590400  1
  N  N22  1  0.34857400  0.22979900  0.75049100  1
  N  N23  1  0.65142600  0.22979900  0.75049100  1
  N  N24  1  0.87736900  0.16766900  0.81859900  1
  N  N25  1  0.12263100  0.16766900  0.81859900  1
  N  N26  1  0.00000000  0.15342400  0.03509800  1
  N  N27  1  0.00000000  0.12099600  0.40147100  1
  N  N28  1  0.50000000  0.10380000  0.11011800  1
  N  N29  1  0.80209700  0.08027900  0.59935000  1
  N  N30  1  0.19790300  0.08027900  0.59935000  1
  N  N31  1  0.71384200  0.02523200  0.19461500  1
  N  N32  1  0.28615800  0.02523200  0.19461500  1
  Cl  Cl0  1  0.50000000  0.57711500  0.05078500  1
  Cl  Cl1  1  0.50000000  0.07948300  0.45072700  1
  O  O0  1  0.79404900  0.91377000  0.39606800  1
  O  O1  1  0.20595100  0.91377000  0.39606800  1
  O  O2  1  0.00000000  0.86156300  0.58115800  1
  O  O3  1  0.00000000  0.84933300  0.96366200  1
  O  O4  1  0.31338900  0.81812900  0.99085100  1
  O  O5  1  0.68661100  0.81812900  0.99085100  1
  O  O6  1  0.68586700  0.68207600  0.49185900  1
  O  O7  1  0.31413300  0.68207600  0.49185900  1
  O  O8  1  0.00000000  0.63938400  0.47751500  1
  O  O9  1  0.00000000  0.61384000  0.08379600  1
  O  O10  1  0.79475400  0.58450700  0.89586500  1
  O  O11  1  0.20524600  0.58450700  0.89586500  1
  O  O12  1  0.79752900  0.41893700  0.10480400  1
  O  O13  1  0.20247100  0.41893700  0.10480400  1
  O  O14  1  0.00000000  0.34812200  0.52281900  1
  O  O15  1  0.68727800  0.32341300  0.51061300  1
  O  O16  1  0.31272200  0.32341300  0.51061300  1
  O  O17  1  0.31264700  0.18592600  0.00995600  1
  O  O18  1  0.68735300  0.18592600  0.00995600  1
loop_
_geom_bond_atom_site_label_1
_geom_bond_atom_site_label_2
_geom_bond_distance
_geom_bond_site_symmetry_2
Al0 O3 1.788397 1_554
Al0 O9 1.797371 1_555
Al0 N4 1.820088 1_555
Al0 N3 1.820088 1_455
N0 Si3 1.717961 1_555
N0 Si18 1.724413 1_565
N0 Pr19 2.613195 1_566
N0 Pr3 2.674815 1_555
N0 Pr17 3.091809 1_565
N1 Si2 1.717961 1_555
N1 Si17 1.724413 1_565
N1 Pr0 2.613195 1_566
N1 Pr4 2.674815 1_555
N1 Pr17 3.091809 1_565
N2 Si2 1.707898 1_555
N2 Si3 1.707898 1_555
N2 Pr17 2.413759 1_565
N2 Pr2 2.654677 1_556
N3 Si0 1.725917 1_555
N3 Pr5 2.544626 1_555
N3 Pr1 2.604077 1_655
N3 Pr19 2.827745 1_565
N4 Si1 1.725917 1_555
N4 Pr6 2.544626 1_555
N4 Pr1 2.604077 1_555
N4 Pr0 2.827745 1_565
N5 Si1 1.725621 1_555
N5 Si5 1.727141 1_555
N5 Pr2 2.512008 1_555
N5 Pr6 2.549946 1_555
N6 Si0 1.725621 1_555
N6 Si6 1.727141 1_555
N6 Pr2 2.512008 1_555
N6 Pr5 2.549946 1_555
N7 Si7 1.718807 1_555
N7 Si2 1.738491 1_555
N7 Pr7 2.566593 1_555
N7 Pr4 2.568188 1_555
N8 Si8 1.718807 1_555
N8 Si3 1.738491 1_555
N8 Pr7 2.566593 1_555
N8 Pr3 2.568188 1_555
N9 Si4 1.708173 1_655
N9 Si8 1.756952 1_555
N9 Pr3 2.587112 1_555
N9 Pr8 2.628294 1_655
N9 Pr10 2.837214 1_555
N10 Si4 1.708173 1_555
N10 Si7 1.756952 1_555
N10 Pr4 2.587112 1_555
N10 Pr8 2.628294 1_555
N10 Pr9 2.837214 1_555
N11 Si6 1.710053 1_555
N11 Si5 1.710053 1_555
N11 Pr12 2.508046 1_555
N11 Pr7 2.595738 1_555
N12 Si9 1.713031 1_555
N12 Si6 1.735025 1_555
N12 Pr10 2.533498 1_555
N12 Pr5 2.638334 1_555
N13 Si10 1.713031 1_555
N13 Si5 1.735025 1_555
N13 Pr9 2.533498 1_555
N13 Pr6 2.638334 1_555
N14 Si8 1.701324 1_555
N14 Si12 1.735288 1_555
N14 Pr10 2.594164 1_555
N14 Pr13 2.697210 1_555
N15 Si7 1.701324 1_555
N15 Si11 1.735288 1_555
N15 Pr9 2.594164 1_555
N15 Pr14 2.697210 1_555
N16 Si12 1.710113 1_555
N16 Si11 1.710113 1_555
N16 Pr7 2.402343 1_555
N16 Pr12 2.682529 1_555
N17 Si14 1.762325 1_555
N17 Pr8 2.466646 1_555
N17 Pr11 2.521081 1_556
N17 Pr13 2.683483 1_455
N17 Pr14 2.683483 1_555
N18 Si13 1.728585 1_655
N18 Si9 1.746158 1_555
N18 Pr11 2.636990 1_655
N18 Pr15 2.638116 1_555
N18 Pr10 2.723048 1_555
N19 Si13 1.728585 1_555
N19 Si10 1.746158 1_555
N19 Pr11 2.636990 1_555
N19 Pr16 2.638116 1_555
N19 Pr9 2.723048 1_555
N20 Si10 1.714166 1_555
N20 Si15 1.734900 1_555
N20 Pr12 2.515970 1_555
N20 Pr16 2.615501 1_555
N21 Si9 1.714166 1_555
N21 Si16 1.734900 1_555
N21 Pr12 2.515970 1_555
N21 Pr15 2.615501 1_555
N22 Si11 1.721181 1_555
N22 Si17 1.753314 1_555
N22 Pr14 2.535664 1_555
N22 Pr17 2.552842 1_555
N23 Si12 1.721181 1_555
N23 Si18 1.753314 1_555
N23 Pr13 2.535664 1_555
N23 Pr17 2.552842 1_555
N24 Si14 1.740669 1_655
N24 Si18 1.768055 1_555
N24 Pr13 2.483743 1_555
N24 Pr18 2.616822 1_655
N24 Pr19 2.742017 1_556
N25 Si14 1.740669 1_555
N25 Si17 1.768055 1_555
N25 Pr14 2.483743 1_555
N25 Pr18 2.616822 1_555
N25 Pr0 2.742017 1_556
N26 Si14 1.733318 1_554
N26 Pr11 2.460126 1_555
N26 Pr19 2.533526 1_455
N26 Pr0 2.533526 1_555
N27 Si13 1.716167 1_555
N27 Pr1 2.412510 1_545
N27 Pr18 2.553381 1_555
N27 Pr16 2.782131 1_555
N27 Pr15 2.782131 1_455
N28 Si16 1.711249 1_555
N28 Si15 1.711249 1_555
N28 Pr2 2.495426 1_545
N28 Pr17 2.601411 1_554
N29 Si18 1.698349 1_555
N29 Pr3 2.365095 1_545
N29 Pr15 2.377651 1_555
N29 Pr18 2.421506 1_655
N30 Si17 1.698349 1_555
N30 Pr4 2.365095 1_545
N30 Pr16 2.377651 1_555
N30 Pr18 2.421506 1_555
N31 Si0 1.709121 1_545
N31 Si16 1.730883 1_555
N31 Pr19 2.619410 1_555
N31 Pr15 2.699827 1_555
N31 Pr2 3.126118 1_545
N32 Si1 1.709121 1_545
N32 Si15 1.730883 1_555
N32 Pr0 2.619410 1_555
N32 Pr16 2.699827 1_555
N32 Pr2 3.126118 1_545
Cl0 Pr5 3.150230 1_555
Cl0 Pr6 3.150230 1_555
Cl0 Pr2 3.197313 1_555
Cl1 Pr12 3.071305 1_555
Cl1 Pr15 3.201649 1_555
Cl1 Pr16 3.201649 1_555
O0 Si0 1.679230 1_555
O0 Pr3 2.443396 1_555
O0 Pr15 2.445565 1_565
O0 Pr1 2.447695 1_655
O1 Si1 1.679230 1_555
O1 Pr4 2.443396 1_555
O1 Pr16 2.445565 1_565
O1 Pr1 2.447695 1_555
O2 Si4 1.679659 1_555
O2 Pr1 2.498832 1_555
O2 Pr4 2.722927 1_555
O2 Pr3 2.722927 1_455
O2 Pr18 2.997493 1_565
O3 Pr0 2.566795 1_566
O3 Pr19 2.566795 1_466
O3 Pr8 2.730496 1_555
O4 Si2 1.675285 1_555
O4 Pr6 2.379990 1_556
O4 Pr0 2.630614 1_566
O4 Pr2 2.673601 1_556
O5 Si3 1.675285 1_555
O5 Pr5 2.379990 1_556
O5 Pr19 2.630614 1_566
O5 Pr2 2.673601 1_556
O6 Si6 1.685651 1_555
O6 Pr3 2.488852 1_555
O6 Pr10 2.556784 1_555
O6 Pr7 2.677980 1_555
O7 Si5 1.685651 1_555
O7 Pr4 2.488852 1_555
O7 Pr9 2.556784 1_555
O7 Pr7 2.677980 1_555
O8 Si4 1.666604 1_555
O8 Pr9 2.524987 1_555
O8 Pr10 2.524987 1_455
O8 Pr1 3.036472 1_555
O9 Pr8 2.376850 1_554
O9 Pr11 2.690611 1_555
O9 Pr6 2.878327 1_555
O9 Pr5 2.878327 1_455
O10 Si8 1.675545 1_555
O10 Pr8 2.433837 1_655
O10 Pr13 2.471889 1_555
O10 Pr5 2.477277 1_556
O11 Si7 1.675545 1_555
O11 Pr8 2.433837 1_555
O11 Pr14 2.471889 1_555
O11 Pr6 2.477277 1_556
O12 Si9 1.679009 1_555
O12 Pr11 2.451537 1_655
O12 Pr5 2.452970 1_555
O12 Pr13 2.480486 1_554
O13 Si10 1.679009 1_555
O13 Pr11 2.451537 1_555
O13 Pr6 2.452970 1_555
O13 Pr14 2.480486 1_554
O14 Si13 1.712311 1_555
O14 Pr18 2.508986 1_555
O14 Pr9 2.595973 1_555
O14 Pr10 2.595973 1_455
O15 Si12 1.683480 1_555
O15 Pr15 2.466676 1_555
O15 Pr10 2.486779 1_555
O15 Pr12 2.644095 1_555
O16 Si11 1.683480 1_555
O16 Pr16 2.466676 1_555
O16 Pr9 2.486779 1_555
O16 Pr12 2.644095 1_555
O17 Si15 1.682480 1_555
O17 Pr14 2.409495 1_554
O17 Pr0 2.602034 1_555
O17 Pr17 2.711655 1_554
O18 Si16 1.682480 1_555
O18 Pr13 2.409495 1_554
O18 Pr19 2.602034 1_555
O18 Pr17 2.711655 1_554
