# generated using pymatgen
data_Li3NbFe3O8
_symmetry_space_group_name_H-M   'P 1'
_cell_length_a   6.01707085
_cell_length_b   6.08383561
_cell_length_c   6.09152534
_cell_angle_alpha   59.25924873
_cell_angle_beta   120.06408724
_cell_angle_gamma   120.06172637
_symmetry_Int_Tables_number   1
_chemical_formula_structural   Li3NbFe3O8
_chemical_formula_sum   'Li3 Nb1 Fe3 O8'
_cell_volume   156.62973859
_cell_formula_units_Z   1
loop_
 _symmetry_equiv_pos_site_id
 _symmetry_equiv_pos_as_xyz
  1  'x, y, z'
loop_
 _atom_site_type_symbol
 _atom_site_label
 _atom_site_symmetry_multiplicity
 _atom_site_fract_x
 _atom_site_fract_y
 _atom_site_fract_z
 _atom_site_occupancy
  Li  Li0  1  0.00000400  0.49999800  0.00000400  1
  Li  Li1  1  0.00000500  0.00000300  0.49999900  1
  Li  Li2  1  0.50000300  0.50000100  0.50000500  1
  Nb  Nb0  1  0.99999400  0.99999400  0.99999700  1
  Fe  Fe0  1  0.49999500  0.49999300  0.99999800  1
  Fe  Fe1  1  0.49999600  0.00000500  0.49999100  1
  Fe  Fe2  1  0.00000500  0.50000300  0.50000300  1
  O  O0  1  0.74361500  0.26702300  0.26952200  1
  O  O1  1  0.23829600  0.23959200  0.23757300  1
  O  O2  1  0.76532300  0.75233200  0.24323700  1
  O  O3  1  0.76749300  0.24543400  0.75088000  1
  O  O4  1  0.23250900  0.75456700  0.24912300  1
  O  O5  1  0.23467300  0.24766800  0.75676300  1
  O  O6  1  0.76170400  0.76040600  0.76242500  1
  O  O7  1  0.25638900  0.73298000  0.73048000  1
loop_
_geom_bond_atom_site_label_1
_geom_bond_atom_site_label_2
_geom_bond_distance
_geom_bond_site_symmetry_2
Li0 O1 2.124379 1_555
Li0 O6 2.124419 1_454
Li0 O3 2.182547 1_454
Li0 O4 2.182549 1_555
Li0 O0 2.247759 1_455
Li0 O7 2.247765 1_554
Li1 O1 2.134588 1_555
Li1 O6 2.134629 1_445
Li1 O5 2.185269 1_555
Li1 O2 2.185282 1_445
Li1 O7 2.235873 1_545
Li1 O0 2.235889 1_455
Li2 O3 2.222132 1_555
Li2 O4 2.222144 1_555
Li2 O5 2.223412 1_555
Li2 O2 2.223412 1_555
Li2 O6 2.261063 1_555
Li2 O1 2.261132 1_555
Nb0 O3 2.034438 1_565
Nb0 O4 2.034442 1_656
Nb0 O2 2.035172 1_556
Nb0 O5 2.035181 1_665
Nb0 O6 2.063593 1_555
Nb0 O1 2.063653 1_666
Fe0 O0 2.035799 1_556
Fe0 O7 2.035806 1_555
Fe0 O1 2.126935 1_556
Fe0 O6 2.126972 1_555
Fe0 O5 2.144884 1_555
Fe0 O2 2.144962 1_556
Fe1 O0 2.025684 1_555
Fe1 O7 2.025718 1_545
Fe1 O1 2.134242 1_555
Fe1 O6 2.134327 1_545
Fe1 O4 2.148505 1_545
Fe1 O3 2.148559 1_555
Fe2 O7 2.008382 1_555
Fe2 O0 2.008413 1_455
Fe2 O4 2.059871 1_555
Fe2 O3 2.059892 1_455
Fe2 O5 2.073911 1_555
Fe2 O2 2.073944 1_455
