# generated using pymatgen
data_Li2Co(CO3)2
_symmetry_space_group_name_H-M   'P 1'
_cell_length_a   9.59659500
_cell_length_b   7.68941900
_cell_length_c   7.82624818
_cell_angle_alpha   69.12535799
_cell_angle_beta   90.00000000
_cell_angle_gamma   90.00000000
_symmetry_Int_Tables_number   1
_chemical_formula_structural   Li2Co(CO3)2
_chemical_formula_sum   'Li8 Co4 C8 O24'
_cell_volume   539.60951788
_cell_formula_units_Z   4
loop_
 _symmetry_equiv_pos_site_id
 _symmetry_equiv_pos_as_xyz
  1  'x, y, z'
loop_
 _atom_site_type_symbol
 _atom_site_label
 _atom_site_symmetry_multiplicity
 _atom_site_fract_x
 _atom_site_fract_y
 _atom_site_fract_z
 _atom_site_occupancy
  Li  Li0  1  0.63230200  0.45285500  0.24447700  1
  Li  Li1  1  0.13961700  0.80457300  0.92391400  1
  Li  Li2  1  0.63961700  0.19542700  0.07608600  1
  Li  Li3  1  0.13230200  0.54714500  0.75552300  1
  Li  Li4  1  0.86576100  0.01528000  0.71212000  1
  Li  Li5  1  0.36368000  0.28617100  0.42016500  1
  Li  Li6  1  0.86368000  0.71382900  0.57983500  1
  Li  Li7  1  0.36576100  0.98472000  0.28788000  1
  Co  Co0  1  0.12513700  0.32574700  0.18352600  1
  Co  Co1  1  0.62513700  0.67425300  0.81647400  1
  Co  Co2  1  0.38216600  0.82165200  0.68886000  1
  Co  Co3  1  0.88216600  0.17834800  0.31114000  1
  C  C0  1  0.39407100  0.44822000  0.01271000  1
  C  C1  1  0.89407100  0.55178000  0.98729000  1
  C  C2  1  0.99435000  0.08413900  0.01227600  1
  C  C3  1  0.49435000  0.91586100  0.98772400  1
  C  C4  1  0.49796300  0.59318900  0.50143200  1
  C  C5  1  0.99796300  0.40681100  0.49856800  1
  C  C6  1  0.11519700  0.95122600  0.51851400  1
  C  C7  1  0.61519700  0.04877400  0.48148600  1
  O  O0  1  0.33564200  0.33641000  0.15905200  1
  O  O1  1  0.82036300  0.45064800  0.12401900  1
  O  O2  1  0.03077800  0.54597800  0.98957300  1
  O  O3  1  0.53077800  0.45402200  0.01042700  1
  O  O4  1  0.32036300  0.54935200  0.87598100  1
  O  O5  1  0.87810300  0.10495600  0.09202000  1
  O  O6  1  0.83564200  0.66359000  0.84094800  1
  O  O7  1  0.10887500  0.16084200  0.03837100  1
  O  O8  1  0.49529700  0.01386300  0.09075300  1
  O  O9  1  0.99529700  0.98613700  0.90924700  1
  O  O10  1  0.60887500  0.83915800  0.96162900  1
  O  O11  1  0.60412100  0.58112200  0.60907900  1
  O  O12  1  0.37810300  0.89504400  0.90798000  1
  O  O13  1  0.99161800  0.51138000  0.59498600  1
  O  O14  1  0.39708700  0.71145500  0.49043100  1
  O  O15  1  0.89708700  0.28854500  0.50956900  1
  O  O16  1  0.49161800  0.48862000  0.40501400  1
  O  O17  1  0.16714700  0.82738000  0.66409600  1
  O  O18  1  0.10412100  0.41887800  0.39092100  1
  O  O19  1  0.48077300  0.05088000  0.50538300  1
  O  O20  1  0.69645200  0.92999800  0.59538100  1
  O  O21  1  0.19645200  0.07000200  0.40461900  1
  O  O22  1  0.98077300  0.94912000  0.49461700  1
  O  O23  1  0.66714700  0.17262000  0.33590400  1
loop_
_geom_bond_atom_site_label_1
_geom_bond_atom_site_label_2
_geom_bond_distance
_geom_bond_site_symmetry_2
Li0 O16 1.929547 1_555
Li0 O1 2.039005 1_555
Li0 O23 2.041655 1_555
Li0 O3 2.071918 1_555
Li1 O9 1.940695 1_455
Li1 O17 1.995279 1_555
Li1 O2 2.140266 1_555
Li1 O12 2.382356 1_555
Li2 O8 1.940695 1_555
Li2 O23 1.995279 1_555
Li2 O3 2.140266 1_555
Li2 O5 2.382356 1_555
Li3 O13 1.929547 1_455
Li3 O4 2.039005 1_555
Li3 O17 2.041655 1_555
Li3 O2 2.071918 1_555
Li4 O9 1.931132 1_545
Li4 O20 2.081264 1_545
Li4 O15 2.155166 1_555
Li4 O22 2.234222 1_545
Li4 O6 2.543658 1_545
Li5 O16 1.952765 1_555
Li5 O0 1.958336 1_555
Li5 O19 2.030015 1_555
Li5 O21 2.344638 1_555
Li6 O13 1.952765 1_555
Li6 O6 1.958336 1_555
Li6 O22 2.030015 1_555
Li6 O20 2.344638 1_555
Li7 O8 1.931132 1_565
Li7 O21 2.081264 1_565
Li7 O14 2.155166 1_555
Li7 O19 2.234222 1_565
Li7 O0 2.543658 1_565
Co0 O7 1.987297 1_555
Co0 O18 2.004095 1_555
Co0 O0 2.028090 1_555
Co0 O2 2.039597 1_554
Co0 O21 2.214655 1_555
Co1 O10 1.987297 1_555
Co1 O11 2.004095 1_555
Co1 O6 2.028090 1_555
Co1 O3 2.039597 1_556
Co1 O20 2.214655 1_555
Co2 O12 1.987594 1_555
Co2 O14 2.021868 1_555
Co2 O19 2.064101 1_565
Co2 O17 2.071532 1_555
Co2 O4 2.166865 1_555
Co3 O5 1.987594 1_555
Co3 O15 2.021868 1_555
Co3 O22 2.064101 1_545
Co3 O23 2.071532 1_555
Co3 O1 2.166865 1_555
C0 O4 1.287287 1_554
C0 O0 1.289799 1_555
C0 O3 1.312585 1_555
C1 O1 1.287287 1_556
C1 O6 1.289799 1_555
C1 O2 1.312585 1_655
C2 O9 1.284975 1_544
C2 O7 1.297430 1_655
C2 O5 1.315607 1_555
C3 O8 1.284975 1_566
C3 O10 1.297430 1_555
C3 O12 1.315607 1_555
C4 O16 1.285321 1_555
C4 O11 1.304041 1_555
C4 O14 1.309874 1_555
C5 O13 1.285321 1_555
C5 O18 1.304041 1_655
C5 O15 1.309874 1_555
C6 O21 1.287076 1_565
C6 O17 1.296277 1_555
C6 O22 1.304428 1_455
C7 O20 1.287076 1_545
C7 O23 1.296277 1_555
C7 O19 1.304428 1_555
