# generated using pymatgen
data_Li4Cr3NiO8
_symmetry_space_group_name_H-M   'P 1'
_cell_length_a   5.10062700
_cell_length_b   5.11077780
_cell_length_c   5.87826643
_cell_angle_alpha   90.10518073
_cell_angle_beta   106.67186777
_cell_angle_gamma   99.52520490
_symmetry_Int_Tables_number   1
_chemical_formula_structural   Li4Cr3NiO8
_chemical_formula_sum   'Li4 Cr3 Ni1 O8'
_cell_volume   144.57296718
_cell_formula_units_Z   1
loop_
 _symmetry_equiv_pos_site_id
 _symmetry_equiv_pos_as_xyz
  1  'x, y, z'
loop_
 _atom_site_type_symbol
 _atom_site_label
 _atom_site_symmetry_multiplicity
 _atom_site_fract_x
 _atom_site_fract_y
 _atom_site_fract_z
 _atom_site_occupancy
  Li  Li0  1  0.49471200  0.74803200  0.87168700  1
  Li  Li1  1  0.50528800  0.25196800  0.12831300  1
  Li  Li2  1  0.50029500  0.74602100  0.37764400  1
  Li  Li3  1  0.49970500  0.25397900  0.62235600  1
  Cr  Cr0  1  0.00000000  0.50000000  0.00000000  1
  Cr  Cr1  1  0.99843500  0.99733300  0.25207100  1
  Cr  Cr2  1  0.00156500  0.00266700  0.74792900  1
  Ni  Ni0  1  0.00000000  0.50000000  0.50000000  1
  O  O0  1  0.22327100  0.86999400  0.05406600  1
  O  O1  1  0.77672900  0.13000600  0.94593400  1
  O  O2  1  0.22279200  0.36913300  0.30402400  1
  O  O3  1  0.77136300  0.63544100  0.18658100  1
  O  O4  1  0.23022100  0.88191200  0.55522000  1
  O  O5  1  0.76977900  0.11808800  0.44478000  1
  O  O6  1  0.22863700  0.36455900  0.81341900  1
  O  O7  1  0.77720800  0.63086700  0.69597600  1
loop_
_geom_bond_atom_site_label_1
_geom_bond_atom_site_label_2
_geom_bond_distance
_geom_bond_site_symmetry_2
Li0 O3 2.126632 1_556
Li0 O0 2.142334 1_556
Li0 O4 2.149183 1_555
Li0 O7 2.153798 1_555
Li0 O6 2.156545 1_555
Li0 O1 2.185850 1_565
Li1 O6 2.126632 1_554
Li1 O1 2.142334 1_554
Li1 O5 2.149183 1_555
Li1 O2 2.153798 1_555
Li1 O3 2.156545 1_555
Li1 O0 2.185850 1_545
Li2 O5 2.117058 1_565
Li2 O7 2.146048 1_555
Li2 O4 2.146768 1_555
Li2 O3 2.153994 1_555
Li2 O2 2.155016 1_555
Li2 O0 2.185068 1_555
Li3 O4 2.117058 1_545
Li3 O2 2.146048 1_555
Li3 O5 2.146768 1_555
Li3 O6 2.153994 1_555
Li3 O7 2.155016 1_555
Li3 O1 2.185068 1_555
Cr0 O7 2.005794 1_454
Cr0 O2 2.005794 1_555
Cr0 O6 2.010060 1_554
Cr0 O3 2.010060 1_455
Cr0 O1 2.012721 1_454
Cr0 O0 2.012721 1_555
Cr1 O3 1.985714 1_555
Cr1 O4 1.986716 1_655
Cr1 O5 2.004506 1_565
Cr1 O1 2.016822 1_564
Cr1 O2 2.022673 1_665
Cr1 O0 2.025719 1_655
Cr2 O6 1.985714 1_555
Cr2 O5 1.986716 1_455
Cr2 O4 2.004506 1_545
Cr2 O0 2.016822 1_546
Cr2 O7 2.022673 1_445
Cr2 O1 2.025719 1_455
Ni0 O2 2.016347 1_555
Ni0 O7 2.016347 1_455
Ni0 O6 2.067004 1_555
Ni0 O3 2.067004 1_455
Ni0 O4 2.077127 1_555
Ni0 O5 2.077127 1_455
