# generated using pymatgen
data_Sm2Ge5Ru3
_symmetry_space_group_name_H-M   'P 1'
_cell_length_a   8.46318757
_cell_length_b   8.46267279
_cell_length_c   8.46277579
_cell_angle_alpha   139.80877858
_cell_angle_beta   108.44090892
_cell_angle_gamma   85.39470904
_symmetry_Int_Tables_number   1
_chemical_formula_structural   Sm2Ge5Ru3
_chemical_formula_sum   'Sm4 Ge10 Ru6'
_cell_volume   357.94539450
_cell_formula_units_Z   2
loop_
 _symmetry_equiv_pos_site_id
 _symmetry_equiv_pos_as_xyz
  1  'x, y, z'
loop_
 _atom_site_type_symbol
 _atom_site_label
 _atom_site_symmetry_multiplicity
 _atom_site_fract_x
 _atom_site_fract_y
 _atom_site_fract_z
 _atom_site_occupancy
  Sm  Sm0  1  0.09388894  0.36263875  0.73111399  1
  Sm  Sm1  1  0.36853251  0.13717472  0.23137048  1
  Sm  Sm2  1  0.63146383  0.86282887  0.76862236  1
  Sm  Sm3  1  0.90612227  0.63736444  0.26889413  1
  Ge  Ge0  1  0.23762060  0.90920292  0.32825872  1
  Ge  Ge1  1  0.70952876  0.95971715  0.25045578  1
  Ge  Ge2  1  0.41889748  0.59044256  0.82846710  1
  Ge  Ge3  1  0.70960399  0.45913186  0.74986127  1
  Ge  Ge4  1  0.99997389  0.75000060  0.75002740  1
  Ge  Ge5  1  0.00003581  0.25000847  0.24997272  1
  Ge  Ge6  1  0.29039422  0.54086507  0.25013750  1
  Ge  Ge7  1  0.58108461  0.40954517  0.17152753  1
  Ge  Ge8  1  0.29046938  0.04028202  0.74954581  1
  Ge  Ge9  1  0.76237245  0.09078514  0.67174747  1
  Ru  Ru0  1  0.94689074  0.85391574  0.09320274  1
  Ru  Ru1  1  0.23945719  0.64609033  0.59349595  1
  Ru  Ru2  1  0.76054741  0.35392439  0.40649707  1
  Ru  Ru3  1  0.05313059  0.14609613  0.90680468  1
  Ru  Ru4  1  0.50005481  0.75008290  0.25012135  1
  Ru  Ru5  1  0.49992951  0.24990178  0.74987894  1
loop_
_geom_bond_atom_site_label_1
_geom_bond_atom_site_label_2
_geom_bond_distance
_geom_bond_site_symmetry_2
Ge0 Ru0 2.428252 1_455
Ge0 Ru5 2.504347 1_565
Ge0 Ru4 2.504398 1_555
Ge0 Ge6 2.677274 1_555
Ge0 Ge8 2.677729 1_565
Ge0 Sm1 2.992753 1_565
Ge0 Sm0 3.116831 1_565
Ge0 Sm0 3.116901 1_554
Ge0 Sm3 3.434326 1_455
Ge1 Ru0 2.488006 1_555
Ge1 Ru2 2.489888 1_565
Ge1 Ru4 2.604688 1_555
Ge1 Ge9 2.677832 1_565
Ge1 Ge2 2.682552 1_554
Ge1 Ge3 2.904039 1_565
Ge1 Ge3 2.911338 1_554
Ge1 Sm1 3.160636 1_565
Ge1 Sm3 3.160955 1_555
Ge1 Sm0 3.312673 1_665
Ge1 Sm2 3.318223 1_554
Ge2 Ru1 2.426427 1_555
Ge2 Ru5 2.502162 1_555
Ge2 Ru4 2.502678 1_556
Ge2 Ge3 2.682815 1_555
Ge2 Sm0 2.992054 1_555
Ge2 Sm1 3.116963 1_566
Ge2 Sm1 3.117063 1_555
Ge2 Sm2 3.439816 1_555
Ge3 Ru0 2.488401 1_556
Ge3 Ru2 2.490116 1_555
Ge3 Ru5 2.605612 1_555
Ge3 Ge9 2.677376 1_555
Ge3 Sm1 3.161308 1_555
Ge3 Sm3 3.161318 1_556
Ge3 Sm0 3.312299 1_655
Ge3 Sm2 3.317975 1_555
Ge4 Ru1 2.503730 1_655
Ge4 Ru3 2.503733 1_665
Ge4 Ru2 2.503775 1_555
Ge4 Ru0 2.503940 1_556
Ge4 Sm0 3.203728 1_655
Ge4 Sm3 3.203795 1_555
Ge4 Sm2 3.204049 1_555
Ge4 Sm1 3.204636 1_666
Ge5 Ru0 2.503733 1_445
Ge5 Ru2 2.503734 1_455
Ge5 Ru1 2.503783 1_555
Ge5 Ru3 2.503945 1_554
Ge5 Sm3 3.203633 1_455
Ge5 Sm0 3.203891 1_555
Ge5 Sm1 3.203956 1_555
Ge5 Sm2 3.204727 1_444
Ge6 Ru3 2.488238 1_554
Ge6 Ru1 2.489959 1_555
Ge6 Ru4 2.605440 1_555
Ge6 Ge7 2.682703 1_555
Ge6 Ge8 2.904054 1_565
Ge6 Ge8 2.911323 1_554
Ge6 Sm0 3.161265 1_554
Ge6 Sm2 3.161270 1_555
Ge6 Sm3 3.312212 1_455
Ge6 Sm1 3.317884 1_555
Ge7 Ru2 2.426307 1_555
Ge7 Ru4 2.502108 1_555
Ge7 Ru5 2.502622 1_554
Ge7 Ge8 2.682441 1_554
Ge7 Sm3 2.992280 1_555
Ge7 Sm2 3.116921 1_544
Ge7 Sm2 3.117021 1_555
Ge7 Sm1 3.439617 1_555
Ge8 Ru3 2.487834 1_555
Ge8 Ru1 2.489717 1_545
Ge8 Ru5 2.604520 1_555
Ge8 Sm2 3.160597 1_545
Ge8 Sm0 3.160905 1_555
Ge8 Sm3 3.312585 1_445
Ge8 Sm1 3.318128 1_556
Ge9 Ru3 2.428369 1_655
Ge9 Ru4 2.504403 1_545
Ge9 Ru5 2.504452 1_555
Ge9 Sm2 2.992523 1_545
Ge9 Sm3 3.116878 1_545
Ge9 Sm3 3.116942 1_556
Ge9 Sm0 3.434523 1_655
Ru0 Sm3 3.205799 1_555
Ru0 Sm2 3.212836 1_554
Ru0 Sm0 3.213880 1_665
Ru0 Sm0 3.215581 1_654
Ru1 Sm2 3.206361 1_555
Ru1 Sm1 3.213818 1_566
Ru1 Sm3 3.214163 1_455
Ru1 Sm1 3.214235 1_555
Ru2 Sm1 3.206454 1_555
Ru2 Sm2 3.213817 1_544
Ru2 Sm2 3.214217 1_555
Ru2 Sm0 3.214324 1_655
Ru3 Sm0 3.205699 1_555
Ru3 Sm1 3.212686 1_556
Ru3 Sm3 3.213880 1_445
Ru3 Sm3 3.215593 1_456
Ru4 Sm2 3.476787 1_555
Ru4 Sm1 3.477375 1_565
Ru4 Sm3 3.479261 1_555
Ru4 Sm0 3.480560 1_554
Ru5 Sm1 3.476959 1_555
Ru5 Sm2 3.477205 1_545
Ru5 Sm0 3.479084 1_555
Ru5 Sm3 3.480736 1_556
