# generated using pymatgen
data_AlFeO3
_symmetry_space_group_name_H-M   'P 1'
_cell_length_a   4.86811200
_cell_length_b   5.12117900
_cell_length_c   7.33976900
_cell_angle_alpha   89.99993521
_cell_angle_beta   89.99996085
_cell_angle_gamma   89.99852011
_symmetry_Int_Tables_number   1
_chemical_formula_structural   AlFeO3
_chemical_formula_sum   'Al4 Fe4 O12'
_cell_volume   182.98391244
_cell_formula_units_Z   4
loop_
 _symmetry_equiv_pos_site_id
 _symmetry_equiv_pos_as_xyz
  1  'x, y, z'
loop_
 _atom_site_type_symbol
 _atom_site_label
 _atom_site_symmetry_multiplicity
 _atom_site_fract_x
 _atom_site_fract_y
 _atom_site_fract_z
 _atom_site_occupancy
  Al  Al0  1  0.00000000  0.50000100  0.00000000  1
  Al  Al1  1  0.00000000  0.50000100  0.50000000  1
  Al  Al2  1  0.50000100  0.00000000  0.00000000  1
  Al  Al3  1  0.50000100  0.00000000  0.50000000  1
  Fe  Fe0  1  0.47628500  0.43692600  0.75000200  1
  Fe  Fe1  1  0.52371500  0.56307100  0.24999900  1
  Fe  Fe2  1  0.02374100  0.93691800  0.75000300  1
  Fe  Fe3  1  0.97626000  0.06307600  0.25000000  1
  O  O0  1  0.13832900  0.43651100  0.25000000  1
  O  O1  1  0.36167200  0.93650000  0.25000000  1
  O  O2  1  0.63832800  0.06350200  0.75000000  1
  O  O3  1  0.86167100  0.56348900  0.74999900  1
  O  O4  1  0.19002900  0.19364900  0.57166500  1
  O  O5  1  0.19002900  0.19364800  0.92833600  1
  O  O6  1  0.30997700  0.69364700  0.92833200  1
  O  O7  1  0.30997600  0.69364800  0.57166700  1
  O  O8  1  0.69002300  0.30635300  0.07166800  1
  O  O9  1  0.69002300  0.30635400  0.42833300  1
  O  O10  1  0.80997000  0.80635300  0.07166300  1
  O  O11  1  0.80997100  0.80635300  0.42833500  1
loop_
_geom_bond_atom_site_label_1
_geom_bond_atom_site_label_2
_geom_bond_distance
_geom_bond_site_symmetry_2
Al0 O6 1.880779 1_554
Al0 O8 1.880784 1_455
Al0 O10 1.895725 1_455
Al0 O5 1.895729 1_554
Al0 O0 1.981461 1_555
Al0 O3 1.981467 1_454
Al1 O7 1.880777 1_555
Al1 O9 1.880781 1_455
Al1 O4 1.895726 1_555
Al1 O11 1.895726 1_455
Al1 O3 1.981453 1_455
Al1 O0 1.981461 1_555
Al2 O10 1.880699 1_545
Al2 O5 1.880716 1_554
Al2 O8 1.895760 1_555
Al2 O6 1.895765 1_544
Al2 O2 1.981473 1_554
Al2 O1 1.981475 1_545
Al3 O11 1.880708 1_545
Al3 O4 1.880721 1_555
Al3 O7 1.895760 1_545
Al3 O9 1.895761 1_555
Al3 O2 1.981475 1_555
Al3 O1 1.981476 1_545
Fe0 O3 1.984924 1_555
Fe0 O6 2.024131 1_555
Fe0 O7 2.024158 1_555
Fe0 O2 2.068661 1_555
Fe0 O5 2.281993 1_555
Fe0 O4 2.282005 1_555
Fe1 O0 1.984919 1_555
Fe1 O8 2.024125 1_555
Fe1 O9 2.024135 1_555
Fe1 O1 2.068685 1_555
Fe1 O10 2.282009 1_555
Fe1 O11 2.282015 1_555
Fe2 O2 1.985052 1_465
Fe2 O5 2.024164 1_565
Fe2 O4 2.024188 1_565
Fe2 O3 2.068773 1_455
Fe2 O6 2.281854 1_555
Fe2 O7 2.281879 1_555
Fe3 O1 1.985034 1_645
Fe3 O11 2.024149 1_545
Fe3 O10 2.024163 1_545
Fe3 O0 2.068799 1_655
Fe3 O8 2.281887 1_555
Fe3 O9 2.281894 1_555
