# generated using pymatgen
data_Sr10Fe4Co(MoO6)5
_symmetry_space_group_name_H-M   'P 1'
_cell_length_a   7.97763100
_cell_length_b   9.73684348
_cell_length_c   9.84457508
_cell_angle_alpha   81.40600954
_cell_angle_beta   113.86108631
_cell_angle_gamma   114.11769782
_symmetry_Int_Tables_number   1
_chemical_formula_structural   Sr10Fe4Co(MoO6)5
_chemical_formula_sum   'Sr10 Fe4 Co1 Mo5 O30'
_cell_volume   638.17529658
_cell_formula_units_Z   1
loop_
 _symmetry_equiv_pos_site_id
 _symmetry_equiv_pos_as_xyz
  1  'x, y, z'
loop_
 _atom_site_type_symbol
 _atom_site_label
 _atom_site_symmetry_multiplicity
 _atom_site_fract_x
 _atom_site_fract_y
 _atom_site_fract_z
 _atom_site_occupancy
  Sr  Sr0  1  0.05135300  0.39737500  0.19938000  1
  Sr  Sr1  1  0.54582600  0.39696600  0.19973900  1
  Sr  Sr2  1  0.24418800  0.99932500  0.99928400  1
  Sr  Sr3  1  0.75581200  0.00067500  0.00071600  1
  Sr  Sr4  1  0.45417400  0.60303400  0.80026100  1
  Sr  Sr5  1  0.94864700  0.60262500  0.80062000  1
  Sr  Sr6  1  0.64741800  0.19590000  0.59822300  1
  Sr  Sr7  1  0.14656000  0.19515600  0.59889500  1
  Sr  Sr8  1  0.85344000  0.80484400  0.40110500  1
  Sr  Sr9  1  0.35258200  0.80410000  0.40177700  1
  Fe  Fe0  1  0.69968300  0.09736400  0.30134100  1
  Fe  Fe1  1  0.90078900  0.69955100  0.10283900  1
  Fe  Fe2  1  0.09921100  0.30044900  0.89716100  1
  Fe  Fe3  1  0.30031700  0.90263600  0.69865900  1
  Co  Co0  1  0.50000000  0.50000000  0.50000000  1
  Mo  Mo0  1  0.20008700  0.10092800  0.29762500  1
  Mo  Mo1  1  0.39915200  0.69767000  0.09917300  1
  Mo  Mo2  1  0.60084800  0.30233000  0.90082700  1
  Mo  Mo3  1  0.79991300  0.89907200  0.70237500  1
  Mo  Mo4  1  0.00000000  0.50000000  0.50000000  1
  O  O0  1  0.92595500  0.07325600  0.28455400  1
  O  O1  1  0.08842900  0.90580200  0.20603500  1
  O  O2  1  0.51120800  0.89699000  0.19531600  1
  O  O3  1  0.13958100  0.67314700  0.08685200  1
  O  O4  1  0.44802200  0.60471400  0.29194700  1
  O  O5  1  0.66106500  0.72732400  0.11382400  1
  O  O6  1  0.28820800  0.50722000  0.00114200  1
  O  O7  1  0.14896700  0.19971200  0.10122600  1
  O  O8  1  0.71179200  0.49278000  0.99885800  1
  O  O9  1  0.33893500  0.27267600  0.88617600  1
  O  O10  1  0.64899100  0.20199400  0.09587900  1
  O  O11  1  0.86041900  0.32685300  0.91314800  1
  O  O12  1  0.48879200  0.10301000  0.80468400  1
  O  O13  1  0.35100900  0.79800600  0.90412100  1
  O  O14  1  0.91157100  0.09419800  0.79396500  1
  O  O15  1  0.52554000  0.87043200  0.68732200  1
  O  O16  1  0.85103300  0.80028800  0.89877400  1
  O  O17  1  0.07404500  0.92674400  0.71544600  1
  O  O18  1  0.68784700  0.70721700  0.60243400  1
  O  O19  1  0.55197800  0.39528600  0.70805300  1
  O  O20  1  0.11298600  0.69563900  0.59965000  1
  O  O21  1  0.73761500  0.47307900  0.48658100  1
  O  O22  1  0.04757300  0.40382400  0.69115300  1
  O  O23  1  0.26238500  0.52692100  0.51341900  1
  O  O24  1  0.88701400  0.30436100  0.40035000  1
  O  O25  1  0.74930800  0.00041900  0.49822500  1
  O  O26  1  0.31215300  0.29278300  0.39756600  1
  O  O27  1  0.25069200  0.99958100  0.50177500  1
  O  O28  1  0.47446000  0.12956800  0.31267800  1
  O  O29  1  0.95242700  0.59617600  0.30884700  1
loop_
_geom_bond_atom_site_label_1
_geom_bond_atom_site_label_2
_geom_bond_distance
_geom_bond_site_symmetry_2
Fe0 O0 1.984961 1_555
Fe0 O25 1.985527 1_555
Fe0 O28 1.993037 1_555
Fe0 O2 2.024408 1_545
Fe0 O24 2.047624 1_555
Fe0 O10 2.086084 1_555
Fe1 O1 2.056343 1_655
Fe1 O16 2.059026 1_554
Fe1 O8 2.064232 1_554
Fe1 O5 2.083485 1_555
Fe1 O29 2.085360 1_555
Fe1 O3 2.091595 1_655
Fe2 O14 2.056343 1_455
Fe2 O7 2.059026 1_556
Fe2 O6 2.064232 1_556
Fe2 O9 2.083485 1_555
Fe2 O22 2.085360 1_555
Fe2 O11 2.091595 1_455
Fe3 O17 1.984961 1_555
Fe3 O27 1.985527 1_555
Fe3 O15 1.993037 1_555
Fe3 O12 2.024408 1_565
Fe3 O20 2.047624 1_555
Fe3 O13 2.086084 1_555
Co0 O26 2.061072 1_555
Co0 O18 2.061072 1_555
Co0 O23 2.073281 1_555
Co0 O21 2.073281 1_555
Co0 O4 2.107334 1_555
Co0 O19 2.107334 1_555
Mo0 O1 1.922304 1_545
Mo0 O26 1.931259 1_555
Mo0 O7 1.989116 1_555
Mo0 O28 2.035160 1_555
Mo0 O0 2.042777 1_455
Mo0 O27 2.062123 1_545
Mo1 O6 1.912060 1_555
Mo1 O5 1.935343 1_555
Mo1 O4 1.936282 1_555
Mo1 O3 1.939369 1_555
Mo1 O2 1.976892 1_555
Mo1 O13 1.984555 1_554
Mo2 O8 1.912060 1_555
Mo2 O9 1.935343 1_555
Mo2 O19 1.936282 1_555
Mo2 O11 1.939369 1_555
Mo2 O12 1.976892 1_555
Mo2 O10 1.984555 1_556
Mo3 O14 1.922304 1_565
Mo3 O18 1.931259 1_555
Mo3 O16 1.989116 1_555
Mo3 O15 2.035160 1_555
Mo3 O17 2.042777 1_655
Mo3 O25 2.062123 1_565
Mo4 O22 1.936025 1_555
Mo4 O29 1.936025 1_455
Mo4 O21 1.950878 1_455
Mo4 O23 1.950878 1_555
Mo4 O24 1.960466 1_455
Mo4 O20 1.960466 1_555
O0 Sr8 2.624259 1_545
O0 Sr3 2.624400 1_555
O0 Sr0 2.995204 1_655
O0 Sr7 3.011116 1_655
O1 Sr9 2.642807 1_555
O1 Sr2 2.661492 1_554
O1 Sr8 3.001821 1_455
O1 Sr3 3.014273 1_465
O2 Sr2 2.662492 1_554
O2 Sr9 2.673335 1_555
O2 Sr3 3.055098 1_565
O2 Sr8 3.057283 1_555
O3 Sr5 2.642505 1_454
O3 Sr0 2.670197 1_555
O3 Sr2 3.020601 1_554
O3 Sr9 3.045281 1_555
O4 Sr0 2.813525 1_555
O4 Sr1 2.817118 1_555
O4 Sr9 2.831803 1_555
O4 Sr8 2.841820 1_555
O5 Sr3 2.654490 1_565
O5 Sr8 2.665199 1_555
O5 Sr4 3.013265 1_554
O5 Sr1 3.050683 1_555
O6 Sr4 2.663034 1_554
O6 Sr1 2.669011 1_555
O6 Sr0 3.038244 1_555
O6 Sr5 3.046309 1_454
O7 Sr0 2.762909 1_555
O7 Sr3 2.768941 1_455
O7 Sr1 2.784988 1_555
O7 Sr2 2.793634 1_544
O8 Sr1 2.663034 1_556
O8 Sr4 2.669011 1_555
O8 Sr5 3.038244 1_555
O8 Sr0 3.046309 1_656
O9 Sr2 2.654490 1_545
O9 Sr7 2.665199 1_555
O9 Sr1 3.013265 1_556
O9 Sr4 3.050683 1_555
O10 Sr1 2.804370 1_555
O10 Sr0 2.811334 1_655
O10 Sr3 2.829518 1_555
O10 Sr2 2.845283 1_544
O11 Sr0 2.642505 1_656
O11 Sr5 2.670197 1_555
O11 Sr3 3.020601 1_556
O11 Sr6 3.045281 1_555
O12 Sr3 2.662492 1_556
O12 Sr6 2.673335 1_555
O12 Sr2 3.055098 1_545
O12 Sr7 3.057283 1_555
O13 Sr4 2.804370 1_555
O13 Sr5 2.811334 1_455
O13 Sr2 2.829518 1_555
O13 Sr3 2.845283 1_566
O14 Sr6 2.642807 1_555
O14 Sr3 2.661492 1_556
O14 Sr7 3.001821 1_655
O14 Sr2 3.014273 1_645
O15 Sr4 2.602827 1_555
O15 Sr9 2.626668 1_555
O15 Sr6 3.016400 1_565
O15 Sr3 3.030124 1_566
O16 Sr5 2.762909 1_555
O16 Sr2 2.768941 1_655
O16 Sr4 2.784988 1_555
O16 Sr3 2.793634 1_566
O17 Sr7 2.624259 1_565
O17 Sr2 2.624400 1_555
O17 Sr5 2.995204 1_455
O17 Sr8 3.011116 1_455
O18 Sr5 2.650681 1_555
O18 Sr8 2.665722 1_555
O18 Sr4 3.016347 1_555
O18 Sr9 3.029211 1_555
O19 Sr5 2.813525 1_555
O19 Sr4 2.817118 1_555
O19 Sr6 2.831803 1_555
O19 Sr7 2.841820 1_555
O20 Sr5 2.654437 1_455
O20 Sr8 2.672475 1_455
O20 Sr4 3.040795 1_555
O20 Sr9 3.051440 1_555
O21 Sr1 2.658488 1_555
O21 Sr6 2.678768 1_555
O21 Sr5 3.033539 1_555
O21 Sr8 3.061757 1_555
O22 Sr7 2.831879 1_555
O22 Sr6 2.834696 1_455
O22 Sr5 2.844471 1_455
O22 Sr4 2.846020 1_555
O23 Sr4 2.658488 1_555
O23 Sr9 2.678768 1_555
O23 Sr0 3.033539 1_555
O23 Sr7 3.061757 1_555
O24 Sr0 2.654437 1_655
O24 Sr7 2.672475 1_655
O24 Sr1 3.040795 1_555
O24 Sr6 3.051440 1_555
O25 Sr8 2.776701 1_545
O25 Sr6 2.779276 1_555
O25 Sr7 2.780413 1_655
O25 Sr9 2.781974 1_545
O26 Sr0 2.650681 1_555
O26 Sr7 2.665722 1_555
O26 Sr1 3.016347 1_555
O26 Sr6 3.029211 1_555
O27 Sr7 2.776701 1_565
O27 Sr9 2.779276 1_555
O27 Sr8 2.780413 1_455
O27 Sr6 2.781974 1_565
O28 Sr1 2.602827 1_555
O28 Sr6 2.626668 1_555
O28 Sr9 3.016400 1_545
O28 Sr2 3.030124 1_544
O29 Sr8 2.831879 1_555
O29 Sr9 2.834696 1_655
O29 Sr0 2.844471 1_655
O29 Sr1 2.846020 1_555
