# generated using pymatgen
data_Ba3YI9
_symmetry_space_group_name_H-M   'P 1'
_cell_length_a   8.26189200
_cell_length_b   14.30238200
_cell_length_c   20.41597400
_cell_angle_alpha   90.00000000
_cell_angle_beta   90.00000000
_cell_angle_gamma   90.00000000
_symmetry_Int_Tables_number   1
_chemical_formula_structural   Ba3YI9
_chemical_formula_sum   'Ba12 Y4 I36'
_cell_volume   2412.44816619
_cell_formula_units_Z   4
loop_
 _symmetry_equiv_pos_site_id
 _symmetry_equiv_pos_as_xyz
  1  'x, y, z'
loop_
 _atom_site_type_symbol
 _atom_site_label
 _atom_site_symmetry_multiplicity
 _atom_site_fract_x
 _atom_site_fract_y
 _atom_site_fract_z
 _atom_site_occupancy
  Ba  Ba0  1  0.75000000  0.04940800  0.90145800  1
  Ba  Ba1  1  0.75000000  0.19022300  0.47236200  1
  Ba  Ba2  1  0.25000000  0.23449000  0.67506000  1
  Ba  Ba3  1  0.75000000  0.26551000  0.17506000  1
  Ba  Ba4  1  0.25000000  0.30977700  0.97236200  1
  Ba  Ba5  1  0.25000000  0.45059200  0.40145800  1
  Ba  Ba6  1  0.75000000  0.54940800  0.59854200  1
  Ba  Ba7  1  0.75000000  0.69022300  0.02763800  1
  Ba  Ba8  1  0.25000000  0.73449000  0.82494000  1
  Ba  Ba9  1  0.75000000  0.76551000  0.32494000  1
  Ba  Ba10  1  0.25000000  0.80977700  0.52763800  1
  Ba  Ba11  1  0.25000000  0.95059200  0.09854200  1
  Y  Y0  1  0.25000000  0.02109100  0.32446400  1
  Y  Y1  1  0.75000000  0.47890900  0.82446400  1
  Y  Y2  1  0.25000000  0.52109100  0.17553600  1
  Y  Y3  1  0.75000000  0.97890900  0.67553600  1
  I  I0  1  0.49089800  0.06699900  0.58628200  1
  I  I1  1  0.00910200  0.06699900  0.58628200  1
  I  I2  1  0.50549400  0.08168200  0.23152400  1
  I  I3  1  0.99450600  0.08168200  0.23152400  1
  I  I4  1  0.75000000  0.16151900  0.74737100  1
  I  I5  1  0.25000000  0.16889200  0.83931300  1
  I  I6  1  0.50261800  0.13722200  0.03831800  1
  I  I7  1  0.99738200  0.13722200  0.03831800  1
  I  I8  1  0.25000000  0.18632200  0.41587100  1
  I  I9  1  0.75000000  0.31367800  0.91587100  1
  I  I10  1  0.00261800  0.36277800  0.53831800  1
  I  I11  1  0.49738200  0.36277800  0.53831800  1
  I  I12  1  0.75000000  0.33110800  0.33931300  1
  I  I13  1  0.25000000  0.33848100  0.24737100  1
  I  I14  1  0.49450600  0.41831800  0.73152400  1
  I  I15  1  0.00549400  0.41831800  0.73152400  1
  I  I16  1  0.99089800  0.43300100  0.08628200  1
  I  I17  1  0.50910200  0.43300100  0.08628200  1
  I  I18  1  0.49089800  0.56699900  0.91371800  1
  I  I19  1  0.00910200  0.56699900  0.91371800  1
  I  I20  1  0.99450600  0.58168200  0.26847600  1
  I  I21  1  0.50549400  0.58168200  0.26847600  1
  I  I22  1  0.75000000  0.66151900  0.75262900  1
  I  I23  1  0.25000000  0.66889200  0.66068700  1
  I  I24  1  0.50261800  0.63722200  0.46168200  1
  I  I25  1  0.99738200  0.63722200  0.46168200  1
  I  I26  1  0.25000000  0.68632200  0.08412900  1
  I  I27  1  0.75000000  0.81367800  0.58412900  1
  I  I28  1  0.00261800  0.86277800  0.96168200  1
  I  I29  1  0.49738200  0.86277800  0.96168200  1
  I  I30  1  0.75000000  0.83110800  0.16068700  1
  I  I31  1  0.25000000  0.83848100  0.25262900  1
  I  I32  1  0.49450600  0.91831800  0.76847600  1
  I  I33  1  0.00549400  0.91831800  0.76847600  1
  I  I34  1  0.99089800  0.93300100  0.41371800  1
  I  I35  1  0.50910200  0.93300100  0.41371800  1
loop_
_geom_bond_atom_site_label_1
_geom_bond_atom_site_label_2
_geom_bond_distance
_geom_bond_site_symmetry_2
Ba0 I4 3.530914 1_555
Ba0 I28 3.604533 1_645
Ba0 I29 3.604533 1_545
Ba0 I7 3.682644 1_556
Ba0 I6 3.682644 1_556
Ba0 I9 3.791127 1_555
Ba0 I32 3.916885 1_545
Ba0 I33 3.916885 1_645
Ba1 I12 3.382101 1_555
Ba1 I10 3.501425 1_655
Ba1 I11 3.501425 1_555
Ba1 I1 3.619090 1_655
Ba1 I0 3.619090 1_555
Ba2 I5 3.482158 1_555
Ba2 I14 3.510297 1_555
Ba2 I15 3.510297 1_555
Ba2 I0 3.603446 1_555
Ba2 I1 3.603446 1_555
Ba2 I11 3.916322 1_555
Ba2 I10 3.916322 1_555
Ba3 I12 3.482158 1_555
Ba3 I2 3.510297 1_555
Ba3 I3 3.510297 1_555
Ba3 I16 3.603446 1_555
Ba3 I17 3.603446 1_555
Ba3 I7 3.916322 1_555
Ba3 I6 3.916322 1_555
Ba4 I5 3.382101 1_555
Ba4 I6 3.501425 1_556
Ba4 I7 3.501425 1_456
Ba4 I17 3.619090 1_556
Ba4 I16 3.619090 1_456
Ba5 I13 3.530914 1_555
Ba5 I25 3.604533 1_455
Ba5 I24 3.604533 1_555
Ba5 I11 3.682644 1_555
Ba5 I10 3.682644 1_555
Ba5 I8 3.791127 1_555
Ba5 I20 3.916885 1_455
Ba5 I21 3.916885 1_555
Ba6 I22 3.530914 1_555
Ba6 I10 3.604533 1_655
Ba6 I11 3.604533 1_555
Ba6 I24 3.682644 1_555
Ba6 I25 3.682644 1_555
Ba6 I27 3.791127 1_555
Ba6 I14 3.916885 1_555
Ba6 I15 3.916885 1_655
Ba7 I30 3.382101 1_555
Ba7 I28 3.501425 1_654
Ba7 I29 3.501425 1_554
Ba7 I19 3.619090 1_654
Ba7 I18 3.619090 1_554
Ba8 I23 3.482158 1_555
Ba8 I33 3.510297 1_555
Ba8 I32 3.510297 1_555
Ba8 I18 3.603446 1_555
Ba8 I19 3.603446 1_555
Ba8 I29 3.916322 1_555
Ba8 I28 3.916322 1_555
Ba9 I30 3.482158 1_555
Ba9 I20 3.510297 1_555
Ba9 I21 3.510297 1_555
Ba9 I34 3.603446 1_555
Ba9 I35 3.603446 1_555
Ba9 I25 3.916322 1_555
Ba9 I24 3.916322 1_555
Ba10 I23 3.382101 1_555
Ba10 I25 3.501425 1_455
Ba10 I24 3.501425 1_555
Ba10 I35 3.619090 1_555
Ba10 I34 3.619090 1_455
Ba11 I31 3.530914 1_555
Ba11 I7 3.604533 1_465
Ba11 I6 3.604533 1_565
Ba11 I29 3.682644 1_554
Ba11 I28 3.682644 1_554
Ba11 I26 3.791127 1_555
Ba11 I3 3.916885 1_465
Ba11 I2 3.916885 1_565
I0 Y3 3.080626 1_545
I1 Y3 3.080626 1_445
I2 Y0 2.967674 1_555
I3 Y0 2.967674 1_655
I4 Y3 2.995353 1_545
I8 Y0 3.011190 1_555
I9 Y1 3.011190 1_555
I13 Y2 2.995353 1_555
I14 Y1 2.967674 1_555
I15 Y1 2.967674 1_455
I16 Y2 3.080626 1_655
I17 Y2 3.080626 1_555
I18 Y1 3.080626 1_555
I19 Y1 3.080626 1_455
I20 Y2 2.967674 1_655
I21 Y2 2.967674 1_555
I22 Y1 2.995353 1_555
I26 Y2 3.011190 1_555
I27 Y3 3.011190 1_555
I31 Y0 2.995353 1_565
I32 Y3 2.967674 1_555
I33 Y3 2.967674 1_455
I34 Y0 3.080626 1_665
I35 Y0 3.080626 1_565
