# generated using pymatgen
data_Li3Al(FeO3)2
_symmetry_space_group_name_H-M   'P 1'
_cell_length_a   10.34856200
_cell_length_b   5.94677400
_cell_length_c   10.09067381
_cell_angle_alpha   54.50336240
_cell_angle_beta   90.00000000
_cell_angle_gamma   90.00000000
_symmetry_Int_Tables_number   1
_chemical_formula_structural   Li3Al(FeO3)2
_chemical_formula_sum   'Li12 Al4 Fe8 O24'
_cell_volume   505.57526569
_cell_formula_units_Z   4
loop_
 _symmetry_equiv_pos_site_id
 _symmetry_equiv_pos_as_xyz
  1  'x, y, z'
loop_
 _atom_site_type_symbol
 _atom_site_label
 _atom_site_symmetry_multiplicity
 _atom_site_fract_x
 _atom_site_fract_y
 _atom_site_fract_z
 _atom_site_occupancy
  Li  Li0  1  0.99777900  0.52118100  0.63607000  1
  Li  Li1  1  0.65798000  0.55686000  0.62393300  1
  Li  Li2  1  0.99708400  0.03530600  0.11610100  1
  Li  Li3  1  0.15798000  0.44314000  0.87606700  1
  Li  Li4  1  0.49708400  0.96469400  0.38389900  1
  Li  Li5  1  0.49777900  0.47881900  0.86393000  1
  Li  Li6  1  0.50222100  0.52118100  0.13607000  1
  Li  Li7  1  0.50291600  0.03530600  0.61610100  1
  Li  Li8  1  0.84202000  0.55686000  0.12393300  1
  Li  Li9  1  0.00291600  0.96469400  0.88389900  1
  Li  Li10  1  0.34202000  0.44314000  0.37606700  1
  Li  Li11  1  0.00222100  0.47881900  0.36393000  1
  Al  Al0  1  0.33247600  0.03944200  0.12646100  1
  Al  Al1  1  0.83247600  0.96055800  0.37353900  1
  Al  Al2  1  0.16752400  0.03944200  0.62646100  1
  Al  Al3  1  0.66752400  0.96055800  0.87353900  1
  Fe  Fe0  1  0.33381000  0.54913500  0.62138500  1
  Fe  Fe1  1  0.65345100  0.04726600  0.12692300  1
  Fe  Fe2  1  0.83381000  0.45086500  0.87861500  1
  Fe  Fe3  1  0.15345100  0.95273400  0.37307700  1
  Fe  Fe4  1  0.84654900  0.04726600  0.62692300  1
  Fe  Fe5  1  0.16619000  0.54913500  0.12138500  1
  Fe  Fe6  1  0.34654900  0.95273400  0.87307700  1
  Fe  Fe7  1  0.66619000  0.45086500  0.37861500  1
  O  O0  1  0.33048100  0.26789700  0.88354600  1
  O  O1  1  0.68186900  0.79556800  0.37084400  1
  O  O2  1  0.98774300  0.30340700  0.87648500  1
  O  O3  1  0.98539300  0.81861000  0.37109600  1
  O  O4  1  0.31695800  0.79240600  0.36691300  1
  O  O5  1  0.67182000  0.26616600  0.88055800  1
  O  O6  1  0.17182000  0.73383400  0.61944200  1
  O  O7  1  0.81695800  0.20759400  0.13308700  1
  O  O8  1  0.48539300  0.18139000  0.12890400  1
  O  O9  1  0.48774300  0.69659300  0.62351500  1
  O  O10  1  0.83048100  0.73210300  0.61645400  1
  O  O11  1  0.18186900  0.20443200  0.12915600  1
  O  O12  1  0.81813100  0.79556800  0.87084400  1
  O  O13  1  0.16951900  0.26789700  0.38354600  1
  O  O14  1  0.51225700  0.30340700  0.37648500  1
  O  O15  1  0.51460700  0.81861000  0.87109600  1
  O  O16  1  0.18304200  0.79240600  0.86691300  1
  O  O17  1  0.82818000  0.26616600  0.38055800  1
  O  O18  1  0.32818000  0.73383400  0.11944200  1
  O  O19  1  0.68304200  0.20759400  0.63308700  1
  O  O20  1  0.01460700  0.18139000  0.62890400  1
  O  O21  1  0.01225700  0.69659300  0.12351500  1
  O  O22  1  0.31813100  0.20443200  0.62915600  1
  O  O23  1  0.66951900  0.73210300  0.11645400  1
loop_
_geom_bond_atom_site_label_1
_geom_bond_atom_site_label_2
_geom_bond_distance
_geom_bond_site_symmetry_2
Li0 O2 1.981073 1_555
Li0 O20 2.070823 1_655
Li0 O10 2.078825 1_555
Li0 O6 2.150540 1_655
Li0 O3 2.191308 1_555
Li1 O9 1.946807 1_555
Li1 O19 2.041311 1_555
Li1 O10 2.046243 1_555
Li1 O1 2.094810 1_555
Li1 O5 2.125068 1_555
Li2 O21 1.977993 1_645
Li2 O2 1.980067 1_554
Li2 O3 2.108387 1_545
Li2 O7 2.181215 1_555
Li2 O11 2.199885 1_655
Li3 O2 1.946807 1_455
Li3 O16 2.041311 1_555
Li3 O0 2.046243 1_555
Li3 O11 2.094810 1_556
Li3 O6 2.125068 1_555
Li4 O14 1.977993 1_565
Li4 O9 1.980067 1_555
Li4 O8 2.108387 1_565
Li4 O4 2.181215 1_555
Li4 O1 2.199885 1_555
Li5 O9 1.981073 1_555
Li5 O15 2.070823 1_555
Li5 O0 2.078825 1_555
Li5 O5 2.150540 1_555
Li5 O8 2.191308 1_556
Li6 O14 1.981073 1_555
Li6 O8 2.070823 1_555
Li6 O23 2.078825 1_555
Li6 O18 2.150540 1_555
Li6 O15 2.191308 1_554
Li7 O9 1.977993 1_545
Li7 O14 1.980067 1_555
Li7 O15 2.108387 1_545
Li7 O19 2.181215 1_555
Li7 O22 2.199885 1_555
Li8 O21 1.946807 1_655
Li8 O7 2.041311 1_555
Li8 O23 2.046243 1_555
Li8 O12 2.094810 1_554
Li8 O17 2.125068 1_555
Li9 O2 1.977993 1_465
Li9 O21 1.980067 1_556
Li9 O20 2.108387 1_565
Li9 O16 2.181215 1_555
Li9 O12 2.199885 1_455
Li10 O14 1.946807 1_555
Li10 O4 2.041311 1_555
Li10 O13 2.046243 1_555
Li10 O22 2.094810 1_555
Li10 O18 2.125068 1_555
Li11 O21 1.981073 1_555
Li11 O3 2.070823 1_455
Li11 O13 2.078825 1_555
Li11 O17 2.150540 1_455
Li11 O20 2.191308 1_555
Al0 O8 1.800430 1_555
Al0 O11 1.850277 1_555
Al0 O18 1.859933 1_545
Al0 O4 1.982821 1_545
Al0 O0 1.996780 1_554
Al1 O3 1.800430 1_555
Al1 O1 1.850277 1_555
Al1 O17 1.859933 1_565
Al1 O7 1.982821 1_565
Al1 O10 1.996780 1_555
Al2 O20 1.800430 1_555
Al2 O22 1.850277 1_555
Al2 O6 1.859933 1_545
Al2 O16 1.982821 1_545
Al2 O13 1.996780 1_555
Al3 O15 1.800430 1_555
Al3 O12 1.850277 1_555
Al3 O5 1.859933 1_565
Al3 O19 1.982821 1_565
Al3 O23 1.996780 1_556
Fe0 O9 1.824528 1_555
Fe0 O6 1.997992 1_555
Fe0 O22 2.011909 1_555
Fe0 O4 2.098298 1_555
Fe0 O0 2.158326 1_555
Fe1 O8 1.918271 1_555
Fe1 O23 1.944575 1_545
Fe1 O7 1.960829 1_555
Fe1 O1 2.026481 1_545
Fe1 O5 2.037810 1_554
Fe2 O2 1.824528 1_555
Fe2 O5 1.997992 1_555
Fe2 O12 2.011909 1_555
Fe2 O7 2.098298 1_556
Fe2 O10 2.158326 1_555
Fe3 O3 1.918271 1_455
Fe3 O13 1.944575 1_565
Fe3 O4 1.960829 1_555
Fe3 O11 2.026481 1_565
Fe3 O6 2.037810 1_555
Fe4 O20 1.918271 1_655
Fe4 O10 1.944575 1_545
Fe4 O19 1.960829 1_555
Fe4 O12 2.026481 1_545
Fe4 O17 2.037810 1_555
Fe5 O21 1.824528 1_555
Fe5 O18 1.997992 1_555
Fe5 O11 2.011909 1_555
Fe5 O16 2.098298 1_554
Fe5 O13 2.158326 1_555
Fe6 O15 1.918271 1_555
Fe6 O0 1.944575 1_565
Fe6 O16 1.960829 1_555
Fe6 O22 2.026481 1_565
Fe6 O18 2.037810 1_556
Fe7 O14 1.824528 1_555
Fe7 O17 1.997992 1_555
Fe7 O1 2.011909 1_555
Fe7 O19 2.098298 1_555
Fe7 O23 2.158326 1_555
