# generated using pymatgen
data_CS4N4ClO2
_symmetry_space_group_name_H-M   'P 1'
_cell_length_a   6.60699400
_cell_length_b   11.20008000
_cell_length_c   15.80195100
_cell_angle_alpha   90.00000000
_cell_angle_beta   90.00000000
_cell_angle_gamma   90.00000000
_symmetry_Int_Tables_number   1
_chemical_formula_structural   CS4N4ClO2
_chemical_formula_sum   'C4 S16 N16 Cl4 O8'
_cell_volume   1169.32638126
_cell_formula_units_Z   4
loop_
 _symmetry_equiv_pos_site_id
 _symmetry_equiv_pos_as_xyz
  1  'x, y, z'
loop_
 _atom_site_type_symbol
 _atom_site_label
 _atom_site_symmetry_multiplicity
 _atom_site_fract_x
 _atom_site_fract_y
 _atom_site_fract_z
 _atom_site_occupancy
  C  C0  1  0.64178900  0.78918900  0.80155300  1
  C  C1  1  0.85821100  0.21081100  0.30155300  1
  C  C2  1  0.14178900  0.71081100  0.19844700  1
  C  C3  1  0.35821100  0.28918900  0.69844700  1
  S  S0  1  0.22225200  0.43555700  0.91425600  1
  S  S1  1  0.27774800  0.56444300  0.41425600  1
  S  S2  1  0.72225200  0.06444300  0.08574400  1
  S  S3  1  0.77774800  0.93555700  0.58574400  1
  S  S4  1  0.92900800  0.29343600  0.88915000  1
  S  S5  1  0.57099200  0.70656400  0.38915000  1
  S  S6  1  0.42900800  0.20656400  0.11085000  1
  S  S7  1  0.07099200  0.79343600  0.61085000  1
  S  S8  1  0.94264700  0.49873500  0.78530800  1
  S  S9  1  0.55735300  0.50126500  0.28530800  1
  S  S10  1  0.44264700  0.00126500  0.21469200  1
  S  S11  1  0.05735300  0.99873500  0.71469200  1
  S  S12  1  0.90969700  0.44034300  0.03410300  1
  S  S13  1  0.59030300  0.55965700  0.53410300  1
  S  S14  1  0.40969700  0.05965700  0.96589700  1
  S  S15  1  0.09030300  0.94034300  0.46589700  1
  N  N0  1  0.15574300  0.51628200  0.83526500  1
  N  N1  1  0.34425700  0.48371800  0.33526500  1
  N  N2  1  0.65574300  0.98371800  0.16473500  1
  N  N3  1  0.84425700  0.01628200  0.66473500  1
  N  N4  1  0.13229900  0.47531600  0.00592200  1
  N  N5  1  0.36770100  0.52468400  0.50592200  1
  N  N6  1  0.63229900  0.02468400  0.99407800  1
  N  N7  1  0.86770100  0.97531600  0.49407800  1
  N  N8  1  0.82267400  0.33464300  0.97782300  1
  N  N9  1  0.67732600  0.66535700  0.47782300  1
  N  N10  1  0.32267400  0.16535700  0.02217700  1
  N  N11  1  0.17732600  0.83464300  0.52217700  1
  N  N12  1  0.86288900  0.36365100  0.80548300  1
  N  N13  1  0.63711100  0.63634900  0.30548300  1
  N  N14  1  0.36288900  0.13634900  0.19451700  1
  N  N15  1  0.13711100  0.86365100  0.69451700  1
  Cl  Cl0  1  0.72733700  0.59001300  0.01298700  1
  Cl  Cl1  1  0.77266300  0.40998700  0.51298700  1
  Cl  Cl2  1  0.22733700  0.90998700  0.98701300  1
  Cl  Cl3  1  0.27266300  0.09001300  0.48701300  1
  O  O0  1  0.88964200  0.41937600  0.12348200  1
  O  O1  1  0.61035800  0.58062400  0.62348200  1
  O  O2  1  0.38964200  0.08062400  0.87651800  1
  O  O3  1  0.11035800  0.91937600  0.37651800  1
  O  O4  1  0.57778100  0.70703400  0.83511100  1
  O  O5  1  0.92221900  0.29296600  0.33511100  1
  O  O6  1  0.07778100  0.79296600  0.16488900  1
  O  O7  1  0.42221900  0.20703400  0.66488900  1
loop_
_geom_bond_atom_site_label_1
_geom_bond_atom_site_label_2
_geom_bond_distance
_geom_bond_site_symmetry_2
C0 O4 1.143112 1_555
C1 O5 1.143112 1_555
C2 O6 1.143112 1_555
C3 O7 1.143112 1_555
N0 S0 1.602676 1_555
N0 S8 1.626055 1_455
N1 S1 1.602676 1_555
N1 S9 1.626055 1_555
N2 S2 1.602676 1_565
N2 S10 1.626055 1_565
N3 S3 1.602676 1_545
N3 S11 1.626055 1_645
N4 S12 1.585806 1_455
N4 S0 1.627780 1_554
N5 S13 1.585806 1_555
N5 S1 1.627780 1_555
N6 S14 1.585806 1_555
N6 S2 1.627780 1_556
N7 S15 1.585806 1_655
N7 S3 1.627780 1_555
N8 S12 1.588393 1_556
N8 S4 1.634000 1_555
N9 S13 1.588393 1_555
N9 S5 1.634000 1_555
N10 S14 1.588393 1_554
N10 S6 1.634000 1_555
N11 S15 1.588393 1_555
N11 S7 1.634000 1_555
N12 S4 1.599136 1_555
N12 S8 1.633507 1_555
N13 S5 1.599136 1_555
N13 S9 1.633507 1_555
N14 S6 1.599136 1_555
N14 S10 1.633507 1_555
N15 S7 1.599136 1_555
N15 S11 1.633507 1_555
Cl0 S12 2.091182 1_555
Cl1 S13 2.091182 1_555
Cl2 S14 2.091182 1_565
Cl3 S15 2.091182 1_545
O0 S12 1.437870 1_555
O1 S13 1.437870 1_555
O2 S14 1.437870 1_555
O3 S15 1.437870 1_555
