# generated using pymatgen
data_LiFePH2O5
_symmetry_space_group_name_H-M   'P 1'
_cell_length_a   5.15687900
_cell_length_b   10.02267300
_cell_length_c   16.99323000
_cell_angle_alpha   90.00000000
_cell_angle_beta   90.00000000
_cell_angle_gamma   90.00000000
_symmetry_Int_Tables_number   1
_chemical_formula_structural   LiFePH2O5
_chemical_formula_sum   'Li8 Fe8 P8 H16 O40'
_cell_volume   878.30719033
_cell_formula_units_Z   8
loop_
 _symmetry_equiv_pos_site_id
 _symmetry_equiv_pos_as_xyz
  1  'x, y, z'
loop_
 _atom_site_type_symbol
 _atom_site_label
 _atom_site_symmetry_multiplicity
 _atom_site_fract_x
 _atom_site_fract_y
 _atom_site_fract_z
 _atom_site_occupancy
  Li  Li0  1  0.47440900  0.14853500  0.69463400  1
  Li  Li1  1  0.52559100  0.14853500  0.19463400  1
  Li  Li2  1  0.10621600  0.42054300  0.94538800  1
  Li  Li3  1  0.89378400  0.42054300  0.44538800  1
  Li  Li4  1  0.52559100  0.64853500  0.30536600  1
  Li  Li5  1  0.47440900  0.64853500  0.80536600  1
  Li  Li6  1  0.10621600  0.92054300  0.55461200  1
  Li  Li7  1  0.89378400  0.92054300  0.05461200  1
  Fe  Fe0  1  0.47463300  0.18207100  0.50253300  1
  Fe  Fe1  1  0.52536700  0.18207100  0.00253300  1
  Fe  Fe2  1  0.90376100  0.39602000  0.25163500  1
  Fe  Fe3  1  0.09623900  0.39602000  0.75163500  1
  Fe  Fe4  1  0.47463300  0.68207100  0.99746700  1
  Fe  Fe5  1  0.52536700  0.68207100  0.49746700  1
  Fe  Fe6  1  0.09623900  0.89602000  0.74836500  1
  Fe  Fe7  1  0.90376100  0.89602000  0.24836500  1
  P  P0  1  0.00783100  0.22917300  0.09414500  1
  P  P1  1  0.99216900  0.22917300  0.59414500  1
  P  P2  1  0.40730700  0.34092900  0.34324800  1
  P  P3  1  0.59269300  0.34092900  0.84324800  1
  P  P4  1  0.00783100  0.72917300  0.40585500  1
  P  P5  1  0.99216900  0.72917300  0.90585500  1
  P  P6  1  0.59269300  0.84092900  0.65675200  1
  P  P7  1  0.40730700  0.84092900  0.15675200  1
  H  H0  1  0.06752900  0.99370300  0.37890600  1
  H  H1  1  0.93247100  0.99370300  0.87890600  1
  H  H2  1  0.61039800  0.06600000  0.37657900  1
  H  H3  1  0.38960200  0.06600000  0.87657900  1
  H  H4  1  0.18109100  0.10204200  0.31572300  1
  H  H5  1  0.81890900  0.10204200  0.81572300  1
  H  H6  1  0.70854100  0.46014600  0.05909000  1
  H  H7  1  0.29145900  0.46014600  0.55909000  1
  H  H8  1  0.06752900  0.49370300  0.12109400  1
  H  H9  1  0.93247100  0.49370300  0.62109400  1
  H  H10  1  0.38960200  0.56600000  0.62342100  1
  H  H11  1  0.61039800  0.56600000  0.12342100  1
  H  H12  1  0.81890900  0.60204200  0.68427700  1
  H  H13  1  0.18109100  0.60204200  0.18427700  1
  H  H14  1  0.70854100  0.96014600  0.44091000  1
  H  H15  1  0.29145900  0.96014600  0.94091000  1
  O  O0  1  0.56664100  0.02537600  0.42759400  1
  O  O1  1  0.43335900  0.02537600  0.92759400  1
  O  O2  1  0.03466900  0.03773600  0.32755100  1
  O  O3  1  0.96533100  0.03773600  0.82755100  1
  O  O4  1  0.86427200  0.11686800  0.04715900  1
  O  O5  1  0.13572800  0.11686800  0.54715900  1
  O  O6  1  0.30084100  0.19645400  0.10135000  1
  O  O7  1  0.69915900  0.19645400  0.60135000  1
  O  O8  1  0.57562200  0.20421900  0.80106000  1
  O  O9  1  0.42437800  0.20421900  0.30106000  1
  O  O10  1  0.88211400  0.23642700  0.17755100  1
  O  O11  1  0.11788600  0.23642700  0.67755100  1
  O  O12  1  0.46385800  0.33306100  0.92644900  1
  O  O13  1  0.53614200  0.33306100  0.42644900  1
  O  O14  1  0.97032100  0.36337000  0.04949200  1
  O  O15  1  0.02967900  0.36337000  0.54949200  1
  O  O16  1  0.11778500  0.38210600  0.35137100  1
  O  O17  1  0.88221500  0.38210600  0.85137100  1
  O  O18  1  0.55518700  0.44963100  0.29485400  1
  O  O19  1  0.44481300  0.44963100  0.79485400  1
  O  O20  1  0.43335900  0.52537600  0.57240600  1
  O  O21  1  0.56664100  0.52537600  0.07240600  1
  O  O22  1  0.96533100  0.53773600  0.67244900  1
  O  O23  1  0.03466900  0.53773600  0.17244900  1
  O  O24  1  0.13572800  0.61686800  0.95284100  1
  O  O25  1  0.86427200  0.61686800  0.45284100  1
  O  O26  1  0.69915900  0.69645400  0.89865000  1
  O  O27  1  0.30084100  0.69645400  0.39865000  1
  O  O28  1  0.42437800  0.70421900  0.19894000  1
  O  O29  1  0.57562200  0.70421900  0.69894000  1
  O  O30  1  0.11788600  0.73642700  0.82244900  1
  O  O31  1  0.88211400  0.73642700  0.32244900  1
  O  O32  1  0.46385800  0.83306100  0.57355100  1
  O  O33  1  0.53614200  0.83306100  0.07355100  1
  O  O34  1  0.97032100  0.86337000  0.45050800  1
  O  O35  1  0.02967900  0.86337000  0.95050800  1
  O  O36  1  0.88221500  0.88210600  0.64862900  1
  O  O37  1  0.11778500  0.88210600  0.14862900  1
  O  O38  1  0.44481300  0.94963100  0.70514600  1
  O  O39  1  0.55518700  0.94963100  0.20514600  1
loop_
_geom_bond_atom_site_label_1
_geom_bond_atom_site_label_2
_geom_bond_distance
_geom_bond_site_symmetry_2
Li0 O8 1.963327 1_555
Li0 O38 2.007348 1_545
Li0 O7 2.021587 1_555
Li0 O11 2.059255 1_555
Li1 O9 1.963327 1_555
Li1 O39 2.007348 1_545
Li1 O6 2.021587 1_555
Li1 O10 2.059255 1_555
Li2 O24 1.977638 1_555
Li2 O14 1.987223 1_456
Li2 O17 2.008797 1_455
Li2 O12 2.067333 1_555
Li3 O25 1.977638 1_555
Li3 O15 1.987223 1_655
Li3 O16 2.008797 1_655
Li3 O13 2.067333 1_555
Li4 O28 1.963327 1_555
Li4 O18 2.007348 1_555
Li4 O27 2.021587 1_555
Li4 O31 2.059255 1_555
Li5 O29 1.963327 1_555
Li5 O19 2.007348 1_555
Li5 O26 2.021587 1_555
Li5 O30 2.059255 1_555
Li6 O5 1.977638 1_565
Li6 O34 1.987223 1_455
Li6 O36 2.008797 1_455
Li6 O32 2.067333 1_555
Li7 O4 1.977638 1_565
Li7 O35 1.987223 1_654
Li7 O37 2.008797 1_655
Li7 O33 2.067333 1_555
Fe0 O5 2.014095 1_555
Fe0 O13 2.015536 1_555
Fe0 O7 2.044795 1_555
Fe0 O0 2.076847 1_555
Fe1 O4 2.014095 1_555
Fe1 O12 2.015536 1_554
Fe1 O6 2.044795 1_555
Fe1 O1 2.076847 1_554
Fe2 O18 2.014772 1_555
Fe2 O16 2.027329 1_655
Fe2 O10 2.038606 1_555
Fe2 O23 2.069758 1_655
Fe3 O19 2.014772 1_555
Fe3 O17 2.027329 1_455
Fe3 O11 2.038606 1_555
Fe3 O22 2.069758 1_455
Fe4 O24 2.014095 1_555
Fe4 O33 2.015536 1_556
Fe4 O26 2.044795 1_555
Fe4 O21 2.076847 1_556
Fe5 O25 2.014095 1_555
Fe5 O32 2.015536 1_555
Fe5 O27 2.044795 1_555
Fe5 O20 2.076847 1_555
Fe6 O38 2.014772 1_555
Fe6 O36 2.027329 1_455
Fe6 O30 2.038606 1_555
Fe6 O3 2.069758 1_465
Fe7 O39 2.014772 1_555
Fe7 O37 2.027329 1_655
Fe7 O31 2.038606 1_555
Fe7 O2 2.069758 1_665
H0 O2 0.992506 1_565
H1 O3 0.992506 1_565
H2 O0 0.983987 1_555
H3 O1 0.983987 1_555
H4 O2 1.012892 1_555
H4 O9 1.638556 1_555
H5 O3 1.012892 1_555
H5 O8 1.638556 1_555
H6 O21 1.007028 1_555
H6 O14 1.670277 1_555
H7 O20 1.007028 1_555
H7 O15 1.670277 1_555
H8 O23 0.992506 1_555
H9 O22 0.992506 1_555
H10 O20 0.983987 1_555
H11 O21 0.983987 1_555
H12 O22 1.012892 1_555
H12 O29 1.638556 1_555
H13 O23 1.012892 1_555
H13 O28 1.638556 1_555
H14 O0 1.007028 1_565
H14 O34 1.670277 1_555
H15 O1 1.007028 1_565
H15 O35 1.670277 1_555
O4 P0 1.566061 1_655
O5 P1 1.566061 1_455
O6 P0 1.551033 1_555
O7 P1 1.551033 1_555
O8 P3 1.548921 1_555
O9 P2 1.548921 1_555
O10 P0 1.560267 1_655
O11 P1 1.560267 1_455
O12 P3 1.564164 1_555
O13 P2 1.564164 1_555
O14 P0 1.556358 1_655
O15 P1 1.556358 1_455
O16 P2 1.555158 1_555
O17 P3 1.555158 1_555
O18 P2 1.563594 1_555
O19 P3 1.563594 1_555
O24 P5 1.566061 1_455
O25 P4 1.566061 1_655
O26 P5 1.551033 1_555
O27 P4 1.551033 1_555
O28 P7 1.548921 1_555
O29 P6 1.548921 1_555
O30 P5 1.560267 1_455
O31 P4 1.560267 1_655
O32 P6 1.564164 1_555
O33 P7 1.564164 1_555
O34 P4 1.556358 1_655
O35 P5 1.556358 1_455
O36 P6 1.555158 1_555
O37 P7 1.555158 1_555
O38 P6 1.563594 1_555
O39 P7 1.563594 1_555
