# generated using pymatgen
data_Li2MnSiO4
_symmetry_space_group_name_H-M   'P 1'
_cell_length_a   5.04495401
_cell_length_b   8.73772106
_cell_length_c   11.82546412
_cell_angle_alpha   89.98601646
_cell_angle_beta   90.00371722
_cell_angle_gamma   89.99526586
_symmetry_Int_Tables_number   1
_chemical_formula_structural   Li2MnSiO4
_chemical_formula_sum   'Li12 Mn6 Si6 O24'
_cell_volume   521.28300578
_cell_formula_units_Z   6
loop_
 _symmetry_equiv_pos_site_id
 _symmetry_equiv_pos_as_xyz
  1  'x, y, z'
loop_
 _atom_site_type_symbol
 _atom_site_label
 _atom_site_symmetry_multiplicity
 _atom_site_fract_x
 _atom_site_fract_y
 _atom_site_fract_z
 _atom_site_occupancy
  Li  Li0  1  0.88251600  0.44492800  0.58606900  1
  Li  Li1  1  0.38249100  0.94489600  0.58609900  1
  Li  Li2  1  0.89141400  0.21872900  0.91939100  1
  Li  Li3  1  0.39142800  0.71876600  0.91938900  1
  Li  Li4  1  0.22616300  0.33630400  0.25272400  1
  Li  Li5  1  0.72614800  0.83633200  0.25274300  1
  Li  Li6  1  0.38246200  0.05510600  0.08060300  1
  Li  Li7  1  0.88247400  0.55507500  0.08063000  1
  Li  Li8  1  0.39141600  0.28122400  0.74724700  1
  Li  Li9  1  0.89140200  0.78125900  0.74724700  1
  Li  Li10  1  0.72613000  0.16368600  0.41391500  1
  Li  Li11  1  0.22614900  0.66370900  0.41393300  1
  Mn  Mn0  1  0.27273400  0.72722100  0.16669900  1
  Mn  Mn1  1  0.27269600  0.27281600  0.49991100  1
  Mn  Mn2  1  0.95375700  0.50002600  0.83336500  1
  Mn  Mn3  1  0.77279700  0.22713700  0.16668700  1
  Mn  Mn4  1  0.77278700  0.77291800  0.49992700  1
  Mn  Mn5  1  0.45381000  0.00002900  0.83336500  1
  Si  Si0  1  0.89850700  0.10151400  0.66672400  1
  Si  Si1  1  0.39849400  0.60156700  0.66670300  1
  Si  Si2  1  0.20309900  0.00000800  0.33331400  1
  Si  Si3  1  0.70310800  0.50001100  0.33331400  1
  Si  Si4  1  0.39846900  0.39842200  0.99998200  1
  Si  Si5  1  0.89847600  0.89846700  0.99995900  1
  O  O0  1  0.71592900  0.42061000  0.96789900  1
  O  O1  1  0.21590100  0.92067600  0.96785700  1
  O  O2  1  0.01099300  0.14756900  0.30117200  1
  O  O3  1  0.51106000  0.64762300  0.30118900  1
  O  O4  1  0.21593200  0.07926600  0.69884000  1
  O  O5  1  0.71595600  0.57934500  0.69880000  1
  O  O6  1  0.27322700  0.43175400  0.63448100  1
  O  O7  1  0.77327600  0.93171200  0.63446900  1
  O  O8  1  0.51109100  0.35239600  0.36548400  1
  O  O9  1  0.01102500  0.85244500  0.36550200  1
  O  O10  1  0.77320200  0.06826400  0.03215800  1
  O  O11  1  0.27316100  0.56823100  0.03214300  1
  O  O12  1  0.87904200  0.22030900  0.55810500  1
  O  O13  1  0.37909200  0.72036800  0.55807100  1
  O  O14  1  0.89098500  0.45035900  0.22477800  1
  O  O15  1  0.39097300  0.95041800  0.22477800  1
  O  O16  1  0.23004800  0.32933100  0.89139700  1
  O  O17  1  0.73004100  0.82944100  0.89136100  1
  O  O18  1  0.37902700  0.27964000  0.10858700  1
  O  O19  1  0.87897100  0.77968700  0.10855000  1
  O  O20  1  0.39100900  0.04960300  0.44192300  1
  O  O21  1  0.89102200  0.54966400  0.44192200  1
  O  O22  1  0.73005600  0.17051400  0.77528100  1
  O  O23  1  0.23006000  0.67062700  0.77524800  1
loop_
_geom_bond_atom_site_label_1
_geom_bond_atom_site_label_2
_geom_bond_distance
_geom_bond_site_symmetry_2
Li0 O21 1.935015 1_555
Li0 O5 1.965559 1_555
Li0 O12 1.990480 1_555
Li0 O6 2.055747 1_655
Li1 O20 1.935198 1_565
Li1 O4 1.965392 1_565
Li1 O13 1.989819 1_555
Li1 O7 2.055971 1_555
Li2 O22 1.935088 1_555
Li2 O10 1.965149 1_556
Li2 O16 1.990561 1_655
Li2 O0 2.055422 1_555
Li3 O23 1.935288 1_555
Li3 O11 1.965539 1_556
Li3 O17 1.990847 1_555
Li3 O1 2.055598 1_555
Li4 O18 1.935373 1_555
Li4 O8 1.965697 1_555
Li4 O14 1.990279 1_455
Li4 O2 2.055745 1_555
Li5 O19 1.935832 1_555
Li5 O9 1.965514 1_655
Li5 O15 1.990440 1_555
Li5 O3 2.055338 1_555
Li6 O15 1.935100 1_545
Li6 O1 1.965758 1_544
Li6 O18 1.989783 1_555
Li6 O10 2.056077 1_555
Li7 O14 1.934935 1_555
Li7 O0 1.965786 1_554
Li7 O19 1.990332 1_555
Li7 O11 2.055958 1_655
Li8 O16 1.935384 1_555
Li8 O6 1.965368 1_555
Li8 O22 1.990950 1_555
Li8 O4 2.055757 1_555
Li9 O17 1.935137 1_555
Li9 O7 1.964917 1_555
Li9 O23 1.990632 1_655
Li9 O5 2.055477 1_555
Li10 O12 1.935875 1_555
Li10 O2 1.965446 1_655
Li10 O20 1.990456 1_555
Li10 O8 2.054982 1_555
Li11 O13 1.935476 1_555
Li11 O3 1.965612 1_555
Li11 O21 1.990278 1_455
Li11 O9 2.055391 1_555
Mn0 O3 2.111356 1_555
Mn0 O11 2.112549 1_555
Mn0 O19 2.151458 1_455
Mn0 O15 2.152147 1_555
Mn1 O8 2.111125 1_555
Mn1 O6 2.112376 1_555
Mn1 O12 2.151350 1_455
Mn1 O20 2.151969 1_555
Mn2 O5 2.109716 1_555
Mn2 O0 2.109978 1_555
Mn2 O16 2.153461 1_655
Mn2 O23 2.153470 1_655
Mn3 O2 2.110852 1_655
Mn3 O10 2.111636 1_555
Mn3 O18 2.151375 1_555
Mn3 O14 2.152319 1_555
Mn4 O9 2.110503 1_655
Mn4 O7 2.111299 1_555
Mn4 O13 2.151432 1_555
Mn4 O21 2.152249 1_555
Mn5 O4 2.109345 1_555
Mn5 O1 2.109655 1_545
Mn5 O22 2.152457 1_555
Mn5 O17 2.152483 1_545
O0 Si4 1.657303 1_555
O1 Si5 1.657205 1_455
O2 Si2 1.657008 1_555
O3 Si3 1.657138 1_555
O4 Si0 1.657204 1_455
O5 Si1 1.657307 1_555
O6 Si1 1.657278 1_555
O7 Si0 1.657213 1_565
O8 Si3 1.657342 1_555
O9 Si2 1.657206 1_565
O10 Si5 1.657029 1_544
O11 Si4 1.657085 1_554
O12 Si0 1.654165 1_555
O13 Si1 1.654298 1_555
O14 Si3 1.653575 1_555
O15 Si2 1.653424 1_565
O16 Si4 1.653951 1_555
O17 Si5 1.653899 1_555
O18 Si4 1.653978 1_554
O19 Si5 1.653858 1_554
O20 Si2 1.654155 1_555
O21 Si3 1.654291 1_555
O22 Si0 1.653516 1_555
O23 Si1 1.653553 1_555
