# generated using pymatgen
data_V2(OF)3
_symmetry_space_group_name_H-M   'P 1'
_cell_length_a   5.11543749
_cell_length_b   5.13874477
_cell_length_c   12.95528542
_cell_angle_alpha   88.93133794
_cell_angle_beta   89.21495270
_cell_angle_gamma   60.48319339
_symmetry_Int_Tables_number   1
_chemical_formula_structural   V2(OF)3
_chemical_formula_sum   'V6 O9 F9'
_cell_volume   296.29894393
_cell_formula_units_Z   3
loop_
 _symmetry_equiv_pos_site_id
 _symmetry_equiv_pos_as_xyz
  1  'x, y, z'
loop_
 _atom_site_type_symbol
 _atom_site_label
 _atom_site_symmetry_multiplicity
 _atom_site_fract_x
 _atom_site_fract_y
 _atom_site_fract_z
 _atom_site_occupancy
  V  V0  1  0.96288254  0.03053464  0.49035341  1
  V  V1  1  0.97274740  0.00080003  0.00194241  1
  V  V2  1  0.37579982  0.33882487  0.83009346  1
  V  V3  1  0.68850675  0.70301675  0.66807540  1
  V  V4  1  0.27562297  0.36320785  0.33142881  1
  V  V5  1  0.63270445  0.68354403  0.15642447  1
  O  O0  1  0.57338374  0.98990697  0.74900683  1
  O  O1  1  0.67540832  0.09865817  0.41991191  1
  O  O2  1  0.66965778  0.23443825  0.91245765  1
  O  O3  1  0.00223400  0.56944456  0.25175187  1
  O  O4  1  0.91373587  0.75397634  0.58662018  1
  O  O5  1  0.42506524  0.55844707  0.74854832  1
  O  O6  1  0.10010273  0.24475625  0.42099938  1
  O  O7  1  0.77018312  0.90235172  0.08214300  1
  O  O8  1  0.33914261  0.76147850  0.08384577  1
  F  F0  1  0.99296577  0.41481055  0.75343168  1
  F  F1  1  0.92277416  0.33366569  0.08317049  1
  F  F2  1  0.76799420  0.32348970  0.59169134  1
  F  F3  1  0.42058138  0.99408481  0.25641674  1
  F  F4  1  0.24136208  0.08055818  0.91629416  1
  F  F5  1  0.58563931  0.40916105  0.25135320  1
  F  F6  1  0.25575340  0.67275850  0.41552706  1
  F  F7  1  0.08311074  0.65231268  0.91492391  1
  F  F8  1  0.35263961  0.88577484  0.58358754  1
loop_
_geom_bond_atom_site_label_1
_geom_bond_atom_site_label_2
_geom_bond_distance
_geom_bond_site_symmetry_2
O0 V3 1.674761 1_555
O0 V2 1.896163 1_565
O1 V0 1.623423 1_555
O1 V4 2.147357 1_555
O2 V2 1.707059 1_555
O2 V1 1.830960 1_556
O3 V4 1.637932 1_555
O3 V5 2.094539 1_455
O4 V3 1.662314 1_555
O4 V0 1.978807 1_565
O5 V2 1.637608 1_555
O5 V3 2.091411 1_555
O6 V4 1.734025 1_555
O6 V0 1.794179 1_455
O7 V1 1.696070 1_565
O7 V5 1.845319 1_555
O8 V5 1.652770 1_555
O8 V1 1.971242 1_465
F0 V3 1.885509 1_555
F0 V2 2.063831 1_655
F1 V1 1.930676 1_555
F1 V5 1.931649 1_555
F2 V0 1.882234 1_555
F2 V3 2.056161 1_555
F3 V5 1.932480 1_555
F3 V4 1.937855 1_565
F4 V1 1.945116 1_456
F4 V2 2.074720 1_555
F5 V5 1.954533 1_555
F5 V4 1.990411 1_555
F6 V4 1.905258 1_555
F6 V0 1.969007 1_465
F7 V2 1.920662 1_555
F7 V1 1.964237 1_466
F8 V3 1.858822 1_555
F8 V0 2.135071 1_465
