# generated using pymatgen
data_Ti3VO8
_symmetry_space_group_name_H-M   'P 1'
_cell_length_a   5.95050879
_cell_length_b   5.95050879
_cell_length_c   9.00915200
_cell_angle_alpha   90.00000000
_cell_angle_beta   90.00000000
_cell_angle_gamma   120.00000873
_symmetry_Int_Tables_number   1
_chemical_formula_structural   Ti3VO8
_chemical_formula_sum   'Ti6 V2 O16'
_cell_volume   276.26299083
_cell_formula_units_Z   2
loop_
 _symmetry_equiv_pos_site_id
 _symmetry_equiv_pos_as_xyz
  1  'x, y, z'
loop_
 _atom_site_type_symbol
 _atom_site_label
 _atom_site_symmetry_multiplicity
 _atom_site_fract_x
 _atom_site_fract_y
 _atom_site_fract_z
 _atom_site_occupancy
  Ti  Ti0  1  0.16680600  0.83319400  0.20930500  1
  Ti  Ti1  1  0.16680600  0.33361100  0.20930500  1
  Ti  Ti2  1  0.66638900  0.83319400  0.20930500  1
  Ti  Ti3  1  0.33361100  0.16680600  0.70930500  1
  Ti  Ti4  1  0.83319400  0.66638900  0.70930500  1
  Ti  Ti5  1  0.83319400  0.16680600  0.70930500  1
  V  V0  1  0.33333300  0.66666700  0.48540700  1
  V  V1  1  0.66666700  0.33333300  0.98540700  1
  O  O0  1  0.16973100  0.83026900  0.60452500  1
  O  O1  1  0.04956400  0.52478200  0.33941400  1
  O  O2  1  0.33333300  0.66666700  0.09805400  1
  O  O3  1  0.00000000  0.00000000  0.31236800  1
  O  O4  1  0.00000000  0.00000000  0.81236800  1
  O  O5  1  0.16973100  0.33946300  0.60452500  1
  O  O6  1  0.47521800  0.95043600  0.33941400  1
  O  O7  1  0.47521800  0.52478200  0.33941400  1
  O  O8  1  0.33946300  0.16973100  0.10452500  1
  O  O9  1  0.66053700  0.83026900  0.60452500  1
  O  O10  1  0.52478200  0.47521800  0.83941400  1
  O  O11  1  0.52478200  0.04956400  0.83941400  1
  O  O12  1  0.66666700  0.33333300  0.59805400  1
  O  O13  1  0.83026900  0.66053700  0.10452500  1
  O  O14  1  0.95043600  0.47521800  0.83941400  1
  O  O15  1  0.83026900  0.16973100  0.10452500  1
loop_
_geom_bond_atom_site_label_1
_geom_bond_atom_site_label_2
_geom_bond_distance
_geom_bond_site_symmetry_2
O0 Ti3 1.974711 1_565
O0 Ti4 1.974711 1_455
O0 V0 1.998712 1_555
O1 V0 1.966823 1_555
O1 Ti0 1.987048 1_555
O1 Ti1 1.987052 1_555
O2 Ti0 1.987544 1_555
O2 Ti2 1.987552 1_555
O2 Ti1 1.987552 1_555
O3 Ti1 1.953909 1_555
O3 Ti2 1.953909 1_445
O3 Ti0 1.953914 1_545
O4 Ti4 1.953909 1_445
O4 Ti3 1.953909 1_555
O4 Ti5 1.953914 1_455
O5 Ti5 1.974711 1_455
O5 Ti3 1.974711 1_555
O5 V0 1.998712 1_555
O6 V0 1.966823 1_555
O6 Ti0 1.987048 1_555
O6 Ti2 1.987052 1_555
O7 V0 1.966827 1_555
O7 Ti2 1.987048 1_555
O7 Ti1 1.987048 1_555
O8 Ti0 1.974711 1_545
O8 Ti1 1.974711 1_555
O8 V1 1.998712 1_554
O9 Ti5 1.974711 1_565
O9 Ti4 1.974711 1_555
O9 V0 1.998712 1_555
O10 V1 1.966827 1_555
O10 Ti4 1.987048 1_555
O10 Ti3 1.987048 1_555
O11 V1 1.966823 1_555
O11 Ti5 1.987048 1_555
O11 Ti3 1.987052 1_555
O12 Ti5 1.987544 1_555
O12 Ti4 1.987552 1_555
O12 Ti3 1.987552 1_555
O13 Ti0 1.974711 1_655
O13 Ti2 1.974711 1_555
O13 V1 1.998712 1_554
O14 V1 1.966823 1_555
O14 Ti5 1.987048 1_555
O14 Ti4 1.987052 1_555
O15 Ti1 1.974711 1_655
O15 Ti2 1.974711 1_545
O15 V1 1.998712 1_554
