# generated using pymatgen
data_Li3V3O3F5
_symmetry_space_group_name_H-M   'P 1'
_cell_length_a   6.08395681
_cell_length_b   10.47973438
_cell_length_c   6.06291788
_cell_angle_alpha   73.78174447
_cell_angle_beta   119.40873669
_cell_angle_gamma   90.77914551
_symmetry_Int_Tables_number   1
_chemical_formula_structural   Li3V3O3F5
_chemical_formula_sum   'Li6 V6 O6 F10'
_cell_volume   319.80098691
_cell_formula_units_Z   2
loop_
 _symmetry_equiv_pos_site_id
 _symmetry_equiv_pos_as_xyz
  1  'x, y, z'
loop_
 _atom_site_type_symbol
 _atom_site_label
 _atom_site_symmetry_multiplicity
 _atom_site_fract_x
 _atom_site_fract_y
 _atom_site_fract_z
 _atom_site_occupancy
  Li  Li0  1  0.98937700  0.00270900  0.01549100  1
  Li  Li1  1  0.48932500  0.50256200  0.01565600  1
  Li  Li2  1  0.42082900  0.19363100  0.35894900  1
  Li  Li3  1  0.92109900  0.69338000  0.35943300  1
  Li  Li4  1  0.39409500  0.86819000  0.75667100  1
  Li  Li5  1  0.89392700  0.36816300  0.75652800  1
  V  V0  1  0.93798200  0.68600700  0.87695500  1
  V  V1  1  0.68111700  0.93264400  0.36204800  1
  V  V2  1  0.94470600  0.19272200  0.36434200  1
  V  V3  1  0.43800000  0.18607400  0.87658800  1
  V  V4  1  0.18073500  0.43296200  0.36214700  1
  V  V5  1  0.44444700  0.69278500  0.36402600  1
  O  O0  1  0.80031700  0.06675200  0.15496600  1
  O  O1  1  0.30103100  0.56625700  0.15541500  1
  O  O2  1  0.58077300  0.80855200  0.60177100  1
  O  O3  1  0.08111600  0.30859800  0.60270700  1
  O  O4  1  0.57242700  0.80859700  0.15635400  1
  O  O5  1  0.07212400  0.30857400  0.15635000  1
  F  F0  1  0.80237100  0.06710100  0.59928300  1
  F  F1  1  0.30224600  0.56706300  0.59946200  1
  F  F2  1  0.30471800  0.07053100  0.60841300  1
  F  F3  1  0.80396000  0.57033800  0.60827600  1
  F  F4  1  0.54372500  0.31216000  0.61084900  1
  F  F5  1  0.04361300  0.81217700  0.61081500  1
  F  F6  1  0.57396200  0.30377600  0.14287400  1
  F  F7  1  0.07392600  0.80400200  0.14284500  1
  F  F8  1  0.32915500  0.06183300  0.14026500  1
  F  F9  1  0.82889300  0.56186100  0.14051800  1
loop_
_geom_bond_atom_site_label_1
_geom_bond_atom_site_label_2
_geom_bond_distance
_geom_bond_site_symmetry_2
Li0 O0 1.944689 1_555
Li1 O1 1.940603 1_555
Li2 O5 2.035774 1_555
Li3 O4 2.036668 1_555
Li4 O2 1.989270 1_555
Li4 O4 2.007575 1_556
Li5 O3 1.985942 1_655
Li5 O5 2.008336 1_656
O0 V2 1.983759 1_555
O0 V1 1.989540 1_545
O0 V3 2.124530 1_554
O1 V5 1.985143 1_555
O1 V4 1.988222 1_555
O1 V0 2.129220 1_454
O2 V1 1.992561 1_555
O2 V5 2.003217 1_555
O2 V0 2.115191 1_555
O3 V4 1.994482 1_555
O3 V2 2.006737 1_455
O3 V3 2.112925 1_555
O4 V5 1.935996 1_555
O4 V1 1.937738 1_555
O5 V2 1.935050 1_455
O5 V4 1.941168 1_555
F0 Li0 2.089901 1_556
F0 V2 2.155198 1_555
F0 V1 2.158774 1_545
F0 Li2 2.225424 1_555
F1 Li1 2.089801 1_556
F1 V4 2.156003 1_555
F1 V5 2.157123 1_555
F1 Li3 2.222762 1_455
F2 Li4 2.021566 1_545
F2 Li2 2.094144 1_555
F2 V2 2.112262 1_455
F2 V3 2.132036 1_555
F3 Li5 2.020187 1_555
F3 Li3 2.095482 1_555
F3 V5 2.111301 1_555
F3 V0 2.135299 1_555
F4 Li5 2.017800 1_555
F4 Li2 2.085059 1_555
F4 V4 2.119640 1_555
F4 V3 2.135643 1_555
F5 Li4 2.019269 1_555
F5 Li3 2.085047 1_455
F5 V1 2.116100 1_455
F5 V0 2.137393 1_455
F6 Li1 1.985312 1_555
F6 Li2 2.059436 1_555
F6 V2 2.114050 1_555
F6 V3 2.141346 1_554
F7 Li0 1.984460 1_465
F7 Li3 2.062096 1_455
F7 V5 2.113753 1_555
F7 V0 2.142005 1_454
F8 Li0 1.980074 1_455
F8 Li2 2.062157 1_555
F8 V1 2.111995 1_545
F8 V3 2.131423 1_554
F9 Li1 1.979707 1_555
F9 Li3 2.060488 1_555
F9 V4 2.110065 1_655
F9 V0 2.131518 1_554
