# generated using pymatgen
data_CdIO
_symmetry_space_group_name_H-M   'P 1'
_cell_length_a   6.88592700
_cell_length_b   7.54801900
_cell_length_c   10.38947200
_cell_angle_alpha   90.00000000
_cell_angle_beta   90.00000000
_cell_angle_gamma   90.00000000
_symmetry_Int_Tables_number   1
_chemical_formula_structural   CdIO
_chemical_formula_sum   'Cd8 I8 O8'
_cell_volume   539.99392748
_cell_formula_units_Z   8
loop_
 _symmetry_equiv_pos_site_id
 _symmetry_equiv_pos_as_xyz
  1  'x, y, z'
loop_
 _atom_site_type_symbol
 _atom_site_label
 _atom_site_symmetry_multiplicity
 _atom_site_fract_x
 _atom_site_fract_y
 _atom_site_fract_z
 _atom_site_occupancy
  Cd  Cd0  1  0.20658100  0.37202200  0.00812900  1
  Cd  Cd1  1  0.29341900  0.87202200  0.99187100  1
  Cd  Cd2  1  0.70658100  0.62797800  0.49187100  1
  Cd  Cd3  1  0.79341900  0.12797800  0.50812900  1
  Cd  Cd4  1  0.79341900  0.62797800  0.99187100  1
  Cd  Cd5  1  0.70658100  0.12797800  0.00812900  1
  Cd  Cd6  1  0.29341900  0.37202200  0.50812900  1
  Cd  Cd7  1  0.20658100  0.87202200  0.49187100  1
  I  I0  1  0.06233000  0.10663800  0.80817700  1
  I  I1  1  0.43767000  0.60663800  0.19182300  1
  I  I2  1  0.56233000  0.89336200  0.69182300  1
  I  I3  1  0.93767000  0.39336200  0.30817700  1
  I  I4  1  0.93767000  0.89336200  0.19182300  1
  I  I5  1  0.56233000  0.39336200  0.80817700  1
  I  I6  1  0.43767000  0.10663800  0.30817700  1
  I  I7  1  0.06233000  0.60663800  0.69182300  1
  O  O0  1  0.38829600  0.13976700  0.07832200  1
  O  O1  1  0.11170400  0.63976700  0.92167800  1
  O  O2  1  0.88829600  0.86023300  0.42167800  1
  O  O3  1  0.61170400  0.36023300  0.57832200  1
  O  O4  1  0.61170400  0.86023300  0.92167800  1
  O  O5  1  0.88829600  0.36023300  0.07832200  1
  O  O6  1  0.11170400  0.13976700  0.57832200  1
  O  O7  1  0.38829600  0.63976700  0.42167800  1
loop_
_geom_bond_atom_site_label_1
_geom_bond_atom_site_label_2
_geom_bond_distance
_geom_bond_site_symmetry_2
Cd0 O0 2.273931 1_555
Cd0 O1 2.306028 1_554
Cd0 O5 2.311546 1_455
Cd0 I1 3.051305 1_555
Cd0 I0 3.052003 1_554
Cd0 I5 3.215954 1_554
Cd1 O1 2.273931 1_555
Cd1 O0 2.306028 1_566
Cd1 O4 2.311546 1_555
Cd1 I0 3.051305 1_565
Cd1 I1 3.052003 1_556
Cd1 I4 3.215954 1_456
Cd2 O2 2.273931 1_555
Cd2 O3 2.306028 1_555
Cd2 O7 2.311546 1_555
Cd2 I3 3.051305 1_555
Cd2 I2 3.052003 1_555
Cd2 I7 3.215954 1_655
Cd3 O3 2.273931 1_555
Cd3 O2 2.306028 1_545
Cd3 O6 2.311546 1_655
Cd3 I2 3.051305 1_545
Cd3 I3 3.052003 1_555
Cd3 I6 3.215954 1_555
Cd4 O4 2.273931 1_555
Cd4 O5 2.306028 1_556
Cd4 O1 2.311546 1_655
Cd4 I5 3.051305 1_555
Cd4 I4 3.052003 1_556
Cd4 I1 3.215954 1_556
Cd5 O5 2.273931 1_555
Cd5 O4 2.306028 1_544
Cd5 O0 2.311546 1_555
Cd5 I4 3.051305 1_545
Cd5 I5 3.052003 1_554
Cd5 I0 3.215954 1_654
Cd6 O6 2.273931 1_555
Cd6 O7 2.306028 1_555
Cd6 O3 2.311546 1_555
Cd6 I7 3.051305 1_555
Cd6 I6 3.052003 1_555
Cd6 I3 3.215954 1_455
Cd7 O7 2.273931 1_555
Cd7 O6 2.306028 1_565
Cd7 O2 2.311546 1_455
Cd7 I6 3.051305 1_565
Cd7 I7 3.052003 1_555
Cd7 I2 3.215954 1_555
I0 O6 2.425079 1_555
I1 O7 2.425079 1_555
I2 O4 2.425079 1_555
I3 O5 2.425079 1_555
I4 O2 2.425079 1_555
I5 O3 2.425079 1_555
I6 O0 2.425079 1_555
I7 O1 2.425079 1_555
