# generated using pymatgen
data_Mn3Fe2Co(PO4)6
_symmetry_space_group_name_H-M   'P 1'
_cell_length_a   8.44407304
_cell_length_b   8.44407304
_cell_length_c   8.44407266
_cell_angle_alpha   60.71403065
_cell_angle_beta   60.71403065
_cell_angle_gamma   60.71403247
_symmetry_Int_Tables_number   1
_chemical_formula_structural   Mn3Fe2Co(PO4)6
_chemical_formula_sum   'Mn3 Fe2 Co1 P6 O24'
_cell_volume   432.59699112
_cell_formula_units_Z   1
loop_
 _symmetry_equiv_pos_site_id
 _symmetry_equiv_pos_as_xyz
  1  'x, y, z'
loop_
 _atom_site_type_symbol
 _atom_site_label
 _atom_site_symmetry_multiplicity
 _atom_site_fract_x
 _atom_site_fract_y
 _atom_site_fract_z
 _atom_site_occupancy
  Mn  Mn0  1  0.64133600  0.64133600  0.64133600  1
  Mn  Mn1  1  0.85877300  0.85877300  0.85877300  1
  Mn  Mn2  1  0.35802700  0.35802700  0.35802700  1
  Fe  Fe0  1  0.00095900  0.00095900  0.00095900  1
  Fe  Fe1  1  0.49926300  0.49926300  0.49926300  1
  Co  Co0  1  0.14035700  0.14035700  0.14035700  1
  P  P0  1  0.96065100  0.24838300  0.53958800  1
  P  P1  1  0.53958800  0.96065100  0.24838300  1
  P  P2  1  0.24838300  0.53958800  0.96065100  1
  P  P3  1  0.75216000  0.45832800  0.03967300  1
  P  P4  1  0.45832800  0.03967300  0.75216000  1
  P  P5  1  0.03967300  0.75216000  0.45832800  1
  O  O0  1  0.50990300  0.11773000  0.31097300  1
  O  O1  1  0.31097300  0.50990300  0.11773000  1
  O  O2  1  0.11773000  0.31097300  0.50990300  1
  O  O3  1  0.94140700  0.08912200  0.74364500  1
  O  O4  1  0.99109000  0.18614700  0.38303000  1
  O  O5  1  0.75897700  0.41287100  0.55795600  1
  O  O6  1  0.74364500  0.94140700  0.08912200  1
  O  O7  1  0.55795600  0.75897700  0.41287100  1
  O  O8  1  0.81311400  0.61731400  0.00757100  1
  O  O9  1  0.41287100  0.55795600  0.75897700  1
  O  O10  1  0.91588000  0.25796300  0.05544700  1
  O  O11  1  0.61731400  0.00757100  0.81311400  1
  O  O12  1  0.38303000  0.99109000  0.18614700  1
  O  O13  1  0.08912200  0.74364500  0.94140700  1
  O  O14  1  0.58666900  0.44560200  0.23785500  1
  O  O15  1  0.18614700  0.38303000  0.99109000  1
  O  O16  1  0.44560200  0.23785500  0.58666900  1
  O  O17  1  0.25796300  0.05544700  0.91588000  1
  O  O18  1  0.23785500  0.58666900  0.44560200  1
  O  O19  1  0.00757100  0.81311400  0.61731400  1
  O  O20  1  0.05544700  0.91588000  0.25796300  1
  O  O21  1  0.88313100  0.68348300  0.49562200  1
  O  O22  1  0.68348300  0.49562200  0.88313100  1
  O  O23  1  0.49562200  0.88313100  0.68348300  1
loop_
_geom_bond_atom_site_label_1
_geom_bond_atom_site_label_2
_geom_bond_distance
_geom_bond_site_symmetry_2
Mn0 O22 1.906302 1_555
Mn0 O21 1.906302 1_555
Mn0 O23 1.906302 1_555
Mn0 O7 1.993473 1_555
Mn0 O9 1.993473 1_555
Mn0 O5 1.993473 1_555
Mn1 O19 1.916579 1_655
Mn1 O8 1.916579 1_556
Mn1 O11 1.916579 1_565
Mn1 O6 2.007369 1_556
Mn1 O3 2.007369 1_565
Mn1 O13 2.007369 1_655
Mn2 O1 1.914193 1_555
Mn2 O2 1.914193 1_555
Mn2 O0 1.914193 1_555
Mn2 O16 2.012458 1_555
Mn2 O14 2.012458 1_555
Mn2 O18 2.012458 1_555
Fe0 O20 2.136724 1_545
Fe0 O17 2.136724 1_554
Fe0 O10 2.136724 1_455
Fe0 O3 2.155978 1_454
Fe0 O6 2.155978 1_445
Fe0 O13 2.155978 1_544
Fe1 O14 2.163309 1_555
Fe1 O16 2.163309 1_555
Fe1 O18 2.163309 1_555
Fe1 O9 2.175247 1_555
Fe1 O7 2.175247 1_555
Fe1 O5 2.175247 1_555
Co0 O4 1.925796 1_455
Co0 O15 1.925796 1_554
Co0 O12 1.925796 1_545
Co0 O17 1.970939 1_554
Co0 O20 1.970939 1_545
Co0 O10 1.970939 1_455
O0 P1 1.527222 1_545
O1 P2 1.527222 1_554
O2 P0 1.527222 1_455
O3 P0 1.573771 1_555
O4 P0 1.518223 1_555
O5 P0 1.578466 1_555
O6 P1 1.573771 1_555
O7 P1 1.578466 1_555
O8 P3 1.524519 1_555
O9 P2 1.578466 1_555
O10 P3 1.569338 1_555
O11 P4 1.524519 1_555
O12 P1 1.518223 1_555
O13 P2 1.573771 1_555
O14 P3 1.564581 1_555
O15 P2 1.518223 1_555
O16 P4 1.564581 1_555
O17 P4 1.569338 1_555
O18 P5 1.564581 1_555
O19 P5 1.524519 1_555
O20 P5 1.569338 1_555
O21 P5 1.531927 1_655
O22 P3 1.531927 1_556
O23 P4 1.531927 1_565
