# generated using pymatgen
data_La3Pt3O11
_symmetry_space_group_name_H-M   'P 1'
_cell_length_a   9.51634500
_cell_length_b   9.51634500
_cell_length_c   9.51634500
_cell_angle_alpha   90.00000000
_cell_angle_beta   90.00000000
_cell_angle_gamma   90.00000000
_symmetry_Int_Tables_number   1
_chemical_formula_structural   La3Pt3O11
_chemical_formula_sum   'La12 Pt12 O44'
_cell_volume   861.80802715
_cell_formula_units_Z   4
loop_
 _symmetry_equiv_pos_site_id
 _symmetry_equiv_pos_as_xyz
  1  'x, y, z'
loop_
 _atom_site_type_symbol
 _atom_site_label
 _atom_site_symmetry_multiplicity
 _atom_site_fract_x
 _atom_site_fract_y
 _atom_site_fract_z
 _atom_site_occupancy
  La  La0  1  0.75000000  0.75000000  0.25000000  1
  La  La1  1  0.75000000  0.25000000  0.75000000  1
  La  La2  1  0.86391414  0.86391414  0.86391414  1
  La  La3  1  0.86391414  0.13608586  0.13608586  1
  La  La4  1  0.13608586  0.86391414  0.13608586  1
  La  La5  1  0.13608586  0.13608586  0.86391414  1
  La  La6  1  0.25000000  0.25000000  0.25000000  1
  La  La7  1  0.25000000  0.75000000  0.75000000  1
  La  La8  1  0.36391414  0.36391414  0.63608586  1
  La  La9  1  0.36391414  0.63608586  0.36391414  1
  La  La10  1  0.63608586  0.36391414  0.36391414  1
  La  La11  1  0.63608586  0.63608586  0.63608586  1
  Pt  Pt0  1  0.84301551  0.50000000  0.00000000  1
  Pt  Pt1  1  0.00000000  0.84301551  0.50000000  1
  Pt  Pt2  1  0.00000000  0.50000000  0.34301551  1
  Pt  Pt3  1  0.00000000  0.50000000  0.65698449  1
  Pt  Pt4  1  0.00000000  0.15698449  0.50000000  1
  Pt  Pt5  1  0.15698449  0.50000000  0.00000000  1
  Pt  Pt6  1  0.34301551  0.00000000  0.50000000  1
  Pt  Pt7  1  0.50000000  0.00000000  0.84301551  1
  Pt  Pt8  1  0.50000000  0.00000000  0.15698449  1
  Pt  Pt9  1  0.50000000  0.34301551  0.00000000  1
  Pt  Pt10  1  0.50000000  0.65698449  0.00000000  1
  Pt  Pt11  1  0.65698449  0.00000000  0.50000000  1
  O  O0  1  0.78931524  0.83298480  0.50330212  1
  O  O1  1  0.78931524  0.16701520  0.49669788  1
  O  O2  1  0.83298480  0.50330212  0.78931524  1
  O  O3  1  0.83298480  0.49669788  0.21068476  1
  O  O4  1  0.85960305  0.50000000  0.50000000  1
  O  O5  1  0.89436616  0.89436616  0.10563384  1
  O  O6  1  0.89436616  0.10563384  0.89436616  1
  O  O7  1  0.99669788  0.71068476  0.66701520  1
  O  O8  1  0.99669788  0.28931524  0.33298480  1
  O  O9  1  0.00000000  0.64039695  0.00000000  1
  O  O10  1  0.00000000  0.35960305  0.00000000  1
  O  O11  1  0.00000000  0.00000000  0.35960305  1
  O  O12  1  0.00000000  0.00000000  0.64039695  1
  O  O13  1  0.00330212  0.28931524  0.66701520  1
  O  O14  1  0.00330212  0.71068476  0.33298480  1
  O  O15  1  0.10563384  0.89436616  0.89436616  1
  O  O16  1  0.10563384  0.10563384  0.10563384  1
  O  O17  1  0.14039695  0.50000000  0.50000000  1
  O  O18  1  0.16701520  0.49669788  0.78931524  1
  O  O19  1  0.16701520  0.50330212  0.21068476  1
  O  O20  1  0.21068476  0.83298480  0.49669788  1
  O  O21  1  0.21068476  0.16701520  0.50330212  1
  O  O22  1  0.28931524  0.33298480  0.99669788  1
  O  O23  1  0.28931524  0.66701520  0.00330212  1
  O  O24  1  0.33298480  0.99669788  0.28931524  1
  O  O25  1  0.33298480  0.00330212  0.71068476  1
  O  O26  1  0.35960305  0.00000000  0.00000000  1
  O  O27  1  0.39436616  0.39436616  0.39436616  1
  O  O28  1  0.39436616  0.60563384  0.60563384  1
  O  O29  1  0.49669788  0.78931524  0.16701520  1
  O  O30  1  0.49669788  0.21068476  0.83298480  1
  O  O31  1  0.50000000  0.85960305  0.50000000  1
  O  O32  1  0.50000000  0.14039695  0.50000000  1
  O  O33  1  0.50000000  0.50000000  0.85960305  1
  O  O34  1  0.50000000  0.50000000  0.14039695  1
  O  O35  1  0.50330212  0.78931524  0.83298480  1
  O  O36  1  0.50330212  0.21068476  0.16701520  1
  O  O37  1  0.60563384  0.39436616  0.60563384  1
  O  O38  1  0.60563384  0.60563384  0.39436616  1
  O  O39  1  0.64039695  0.00000000  0.00000000  1
  O  O40  1  0.66701520  0.99669788  0.71068476  1
  O  O41  1  0.66701520  0.00330212  0.28931524  1
  O  O42  1  0.71068476  0.66701520  0.99669788  1
  O  O43  1  0.71068476  0.33298480  0.00330212  1
loop_
_geom_bond_atom_site_label_1
_geom_bond_atom_site_label_2
_geom_bond_distance
_geom_bond_site_symmetry_2
La0 O5 2.379558 1_555
La0 O38 2.379558 1_555
La0 O0 2.564017 1_555
La0 O42 2.564017 1_554
La0 O29 2.564017 1_555
La0 O3 2.564017 1_555
La0 O41 2.564017 1_565
La0 O14 2.564017 1_655
La1 O37 2.379558 1_555
La1 O6 2.379558 1_555
La1 O40 2.564017 1_545
La1 O2 2.564017 1_555
La1 O1 2.564017 1_555
La1 O30 2.564017 1_555
La1 O13 2.564017 1_655
La1 O43 2.564017 1_556
La2 O6 2.336511 1_565
La2 O5 2.336511 1_556
La2 O15 2.336511 1_655
La2 O42 2.689609 1_555
La2 O40 2.689609 1_555
La2 O7 2.689609 1_555
La2 O9 2.806897 1_656
La2 O12 2.806897 1_665
La2 O39 2.806897 1_566
La3 O6 2.336511 1_554
La3 O5 2.336511 1_545
La3 O16 2.336511 1_655
La3 O41 2.689609 1_555
La3 O43 2.689609 1_555
La3 O8 2.689609 1_555
La3 O10 2.806897 1_655
La3 O11 2.806897 1_655
La3 O39 2.806897 1_555
La4 O15 2.336511 1_554
La4 O5 2.336511 1_455
La4 O16 2.336511 1_565
La4 O23 2.689609 1_555
La4 O14 2.689609 1_555
La4 O24 2.689609 1_555
La4 O26 2.806897 1_565
La4 O11 2.806897 1_565
La4 O9 2.806897 1_555
La5 O15 2.336511 1_545
La5 O6 2.336511 1_455
La5 O16 2.336511 1_556
La5 O13 2.689609 1_555
La5 O25 2.689609 1_555
La5 O22 2.689609 1_555
La5 O10 2.806897 1_556
La5 O26 2.806897 1_556
La5 O12 2.806897 1_555
La6 O16 2.379558 1_555
La6 O27 2.379558 1_555
La6 O21 2.564017 1_555
La6 O22 2.564017 1_554
La6 O19 2.564017 1_555
La6 O24 2.564017 1_545
La6 O8 2.564017 1_455
La6 O36 2.564017 1_555
La7 O15 2.379558 1_555
La7 O28 2.379558 1_555
La7 O18 2.564017 1_555
La7 O20 2.564017 1_555
La7 O7 2.564017 1_455
La7 O35 2.564017 1_555
La7 O23 2.564017 1_556
La7 O25 2.564017 1_565
La8 O27 2.336511 1_555
La8 O37 2.336511 1_555
La8 O28 2.336511 1_555
La8 O18 2.689609 1_555
La8 O30 2.689609 1_555
La8 O21 2.689609 1_555
La8 O32 2.806897 1_555
La8 O17 2.806897 1_555
La8 O33 2.806897 1_555
La9 O27 2.336511 1_555
La9 O38 2.336511 1_555
La9 O28 2.336511 1_555
La9 O20 2.689609 1_555
La9 O29 2.689609 1_555
La9 O19 2.689609 1_555
La9 O17 2.806897 1_555
La9 O34 2.806897 1_555
La9 O31 2.806897 1_555
La10 O27 2.336511 1_555
La10 O38 2.336511 1_555
La10 O37 2.336511 1_555
La10 O3 2.689609 1_555
La10 O1 2.689609 1_555
La10 O36 2.689609 1_555
La10 O32 2.806897 1_555
La10 O4 2.806897 1_555
La10 O34 2.806897 1_555
La11 O38 2.336511 1_555
La11 O37 2.336511 1_555
La11 O28 2.336511 1_555
La11 O2 2.689609 1_555
La11 O35 2.689609 1_555
La11 O0 2.689609 1_555
La11 O33 2.806897 1_555
La11 O4 2.806897 1_555
La11 O31 2.806897 1_555
O0 Pt1 2.007466 1_655
O0 Pt11 2.028040 1_565
O1 Pt4 2.007466 1_655
O1 Pt11 2.028040 1_555
O2 Pt0 2.007466 1_556
O2 Pt3 2.028040 1_655
O3 Pt0 2.007466 1_555
O3 Pt2 2.028040 1_655
O4 Pt2 2.004212 1_655
O4 Pt3 2.004212 1_655
O7 Pt3 2.007466 1_655
O7 Pt1 2.028040 1_655
O8 Pt2 2.007466 1_655
O8 Pt4 2.028040 1_655
O9 Pt0 2.004212 1_455
O9 Pt5 2.004212 1_555
O10 Pt0 2.004212 1_455
O10 Pt5 2.004212 1_555
O11 Pt4 2.004212 1_555
O11 Pt1 2.004212 1_545
O12 Pt4 2.004212 1_555
O12 Pt1 2.004212 1_545
O13 Pt3 2.007466 1_555
O13 Pt4 2.028040 1_555
O14 Pt2 2.007466 1_555
O14 Pt1 2.028040 1_555
O17 Pt2 2.004212 1_555
O17 Pt3 2.004212 1_555
O18 Pt5 2.007466 1_556
O18 Pt3 2.028040 1_555
O19 Pt5 2.007466 1_555
O19 Pt2 2.028040 1_555
O20 Pt1 2.007466 1_555
O20 Pt6 2.028040 1_565
O21 Pt4 2.007466 1_555
O21 Pt6 2.028040 1_555
O22 Pt9 2.007466 1_556
O22 Pt5 2.028040 1_556
O23 Pt10 2.007466 1_555
O23 Pt5 2.028040 1_555
O24 Pt6 2.007466 1_565
O24 Pt8 2.028040 1_565
O25 Pt6 2.007466 1_555
O25 Pt7 2.028040 1_555
O26 Pt7 2.004212 1_554
O26 Pt8 2.004212 1_555
O29 Pt8 2.007466 1_565
O29 Pt10 2.028040 1_555
O30 Pt7 2.007466 1_555
O30 Pt9 2.028040 1_556
O31 Pt11 2.004212 1_565
O31 Pt6 2.004212 1_565
O32 Pt6 2.004212 1_555
O32 Pt11 2.004212 1_555
O33 Pt10 2.004212 1_556
O33 Pt9 2.004212 1_556
O34 Pt9 2.004212 1_555
O34 Pt10 2.004212 1_555
O35 Pt7 2.007466 1_565
O35 Pt10 2.028040 1_556
O36 Pt8 2.007466 1_555
O36 Pt9 2.028040 1_555
O39 Pt8 2.004212 1_555
O39 Pt7 2.004212 1_554
O40 Pt11 2.007466 1_565
O40 Pt7 2.028040 1_565
O41 Pt11 2.007466 1_555
O41 Pt8 2.028040 1_555
O42 Pt10 2.007466 1_556
O42 Pt0 2.028040 1_556
O43 Pt9 2.007466 1_555
O43 Pt0 2.028040 1_555
