# generated using pymatgen
data_Na2LaPCO7
_symmetry_space_group_name_H-M   'P 1'
_cell_length_a   7.18551800
_cell_length_b   5.29259000
_cell_length_c   9.46693803
_cell_angle_alpha   88.91001215
_cell_angle_beta   90.00000000
_cell_angle_gamma   90.00000000
_symmetry_Int_Tables_number   1
_chemical_formula_structural   Na2LaPCO7
_chemical_formula_sum   'Na4 La2 P2 C2 O14'
_cell_volume   359.96251349
_cell_formula_units_Z   2
loop_
 _symmetry_equiv_pos_site_id
 _symmetry_equiv_pos_as_xyz
  1  'x, y, z'
loop_
 _atom_site_type_symbol
 _atom_site_label
 _atom_site_symmetry_multiplicity
 _atom_site_fract_x
 _atom_site_fract_y
 _atom_site_fract_z
 _atom_site_occupancy
  Na  Na0  1  0.49511200  0.22679100  0.79749500  1
  Na  Na1  1  0.00488800  0.22679100  0.79749500  1
  Na  Na2  1  0.50488800  0.77320900  0.20250500  1
  Na  Na3  1  0.99511200  0.77320900  0.20250500  1
  La  La0  1  0.75000000  0.76398900  0.61500600  1
  La  La1  1  0.25000000  0.23601100  0.38499400  1
  P  P0  1  0.25000000  0.71181000  0.59069400  1
  P  P1  1  0.75000000  0.28819000  0.40930600  1
  C  C0  1  0.75000000  0.72962100  0.92284500  1
  C  C1  1  0.25000000  0.27037900  0.07715500  1
  O  O0  1  0.25000000  0.29404500  0.94441100  1
  O  O1  1  0.75000000  0.95090500  0.85706400  1
  O  O2  1  0.75000000  0.53147800  0.83896200  1
  O  O3  1  0.07446000  0.84362300  0.64878100  1
  O  O4  1  0.42554000  0.84362300  0.64878100  1
  O  O5  1  0.75000000  0.26138900  0.57621300  1
  O  O6  1  0.25000000  0.42273200  0.62333000  1
  O  O7  1  0.75000000  0.57726800  0.37667000  1
  O  O8  1  0.25000000  0.73861100  0.42378700  1
  O  O9  1  0.57446000  0.15637700  0.35121900  1
  O  O10  1  0.92554000  0.15637700  0.35121900  1
  O  O11  1  0.25000000  0.46852200  0.16103800  1
  O  O12  1  0.25000000  0.04909500  0.14293600  1
  O  O13  1  0.75000000  0.70595500  0.05558900  1
loop_
_geom_bond_atom_site_label_1
_geom_bond_atom_site_label_2
_geom_bond_distance
_geom_bond_site_symmetry_2
Na0 O0 2.276402 1_555
Na0 O1 2.402736 1_545
Na0 O2 2.476493 1_555
Na0 O4 2.540316 1_545
Na0 O6 2.613616 1_555
Na0 O5 2.785999 1_555
Na1 O0 2.276402 1_555
Na1 O1 2.402736 1_445
Na1 O2 2.476493 1_455
Na1 O3 2.540316 1_545
Na1 O6 2.613616 1_555
Na1 O5 2.785999 1_455
Na2 O13 2.276402 1_555
Na2 O12 2.402736 1_565
Na2 O11 2.476493 1_555
Na2 O9 2.540316 1_565
Na2 O7 2.613616 1_555
Na2 O8 2.785999 1_555
Na3 O13 2.276402 1_555
Na3 O12 2.402736 1_665
Na3 O11 2.476493 1_655
Na3 O10 2.540316 1_565
Na3 O7 2.613616 1_555
Na3 O8 2.785999 1_655
La0 O3 2.391754 1_655
La0 O4 2.391754 1_555
La0 O2 2.431097 1_555
La0 O7 2.480401 1_555
La0 O1 2.513184 1_555
La0 O5 2.651099 1_565
La0 O5 2.692199 1_555
La1 O10 2.391754 1_455
La1 O9 2.391754 1_555
La1 O11 2.431097 1_555
La1 O6 2.480401 1_555
La1 O12 2.513184 1_555
La1 O8 2.651099 1_545
La1 O8 2.692199 1_555
C0 O13 1.260533 1_556
C0 O1 1.315938 1_555
C0 O2 1.327423 1_555
C1 O0 1.260533 1_554
C1 O12 1.315938 1_555
C1 O11 1.327423 1_555
O3 P0 1.547474 1_555
O4 P0 1.547474 1_555
O5 P1 1.583763 1_555
O6 P0 1.555084 1_555
O7 P1 1.555084 1_555
O8 P0 1.583763 1_555
O9 P1 1.547474 1_555
O10 P1 1.547474 1_555
