# generated using pymatgen
data_AgRuO4
_symmetry_space_group_name_H-M   'P 1'
_cell_length_a   6.85270769
_cell_length_b   6.85270769
_cell_length_c   6.85270769
_cell_angle_alpha   136.03972887
_cell_angle_beta   136.03972887
_cell_angle_gamma   63.91891975
_symmetry_Int_Tables_number   1
_chemical_formula_structural   AgRuO4
_chemical_formula_sum   'Ag2 Ru2 O8'
_cell_volume   152.99036288
_cell_formula_units_Z   2
loop_
 _symmetry_equiv_pos_site_id
 _symmetry_equiv_pos_as_xyz
  1  'x, y, z'
loop_
 _atom_site_type_symbol
 _atom_site_label
 _atom_site_symmetry_multiplicity
 _atom_site_fract_x
 _atom_site_fract_y
 _atom_site_fract_z
 _atom_site_occupancy
  Ag  Ag0  1  0.50000000  0.50000000  -0.00000000  1
  Ag  Ag1  1  0.25000000  0.75000000  0.50000000  1
  Ru  Ru0  1  -0.00000000  0.00000000  -0.00000000  1
  Ru  Ru1  1  0.75000000  0.25000000  0.50000000  1
  O  O0  1  0.67584994  0.07248209  0.90959094  1
  O  O1  1  0.58710884  0.48374000  0.40959094  1
  O  O2  1  0.51626000  0.92584994  0.10336885  1
  O  O3  1  0.92751791  0.83710884  0.60336885  1
  O  O4  1  0.23374000  0.32415006  0.39663115  1
  O  O5  1  0.82248209  0.41289116  0.89663115  1
  O  O6  1  0.07415006  0.17751791  0.59040906  1
  O  O7  1  0.16289116  0.76626000  0.09040906  1
loop_
_geom_bond_atom_site_label_1
_geom_bond_atom_site_label_2
_geom_bond_distance
_geom_bond_site_symmetry_2
Ag0 O0 2.403421 1_554
Ag0 O7 2.403422 1_555
Ag0 O3 2.403422 1_555
Ag0 O4 2.403424 1_554
Ag0 O2 2.495307 1_555
Ag0 O6 2.495309 1_554
Ag0 O5 2.495314 1_554
Ag0 O1 2.495314 1_555
Ag1 O6 2.403421 1_565
Ag1 O1 2.403422 1_555
Ag1 O5 2.403422 1_454
Ag1 O2 2.403424 1_556
Ag1 O4 2.495307 1_555
Ag1 O0 2.495309 1_565
Ag1 O3 2.495314 1_455
Ag1 O7 2.495314 1_555
O0 Ru0 1.748254 1_656
O1 Ru1 1.748248 1_555
O2 Ru1 1.748252 1_565
O3 Ru0 1.748248 1_666
O4 Ru0 1.748252 1_555
O5 Ru1 1.748248 1_555
O6 Ru1 1.748254 1_455
O7 Ru0 1.748248 1_565
