# generated using pymatgen
data_LiAlVO4
_symmetry_space_group_name_H-M   'P 1'
_cell_length_a   5.81273111
_cell_length_b   5.81278810
_cell_length_c   8.15699209
_cell_angle_alpha   89.98856585
_cell_angle_beta   90.01231301
_cell_angle_gamma   90.06965932
_symmetry_Int_Tables_number   1
_chemical_formula_structural   LiAlVO4
_chemical_formula_sum   'Li4 Al4 V4 O16'
_cell_volume   275.60965430
_cell_formula_units_Z   4
loop_
 _symmetry_equiv_pos_site_id
 _symmetry_equiv_pos_as_xyz
  1  'x, y, z'
loop_
 _atom_site_type_symbol
 _atom_site_label
 _atom_site_symmetry_multiplicity
 _atom_site_fract_x
 _atom_site_fract_y
 _atom_site_fract_z
 _atom_site_occupancy
  Li  Li0  1  0.00011100  0.22613800  0.00003000  1
  Li  Li1  1  0.99995800  0.77375800  0.49999400  1
  Li  Li2  1  0.22614300  0.00010900  0.24996000  1
  Li  Li3  1  0.77380600  0.99994800  0.75002700  1
  Al  Al0  1  0.25822900  0.25823400  0.62499700  1
  Al  Al1  1  0.25842200  0.74166700  0.87497400  1
  Al  Al2  1  0.74167000  0.25842800  0.37502700  1
  Al  Al3  1  0.74167100  0.74167800  0.12499900  1
  V  V0  1  0.49961800  0.77454300  0.49989200  1
  V  V1  1  0.77449500  0.49962000  0.75007800  1
  V  V2  1  0.22546600  0.50057000  0.25011600  1
  V  V3  1  0.50054400  0.22547800  0.99992300  1
  O  O0  1  0.00381600  0.26722000  0.26131300  1
  O  O1  1  0.00400400  0.73259700  0.23864400  1
  O  O2  1  0.26724100  0.00382400  0.98868800  1
  O  O3  1  0.26729000  0.99611200  0.51123600  1
  O  O4  1  0.73259600  0.99611800  0.48856200  1
  O  O5  1  0.73259900  0.00398800  0.01134800  1
  O  O6  1  0.99611200  0.26729600  0.73878500  1
  O  O7  1  0.99609900  0.73257200  0.76141400  1
  O  O8  1  0.26679000  0.49276300  0.00993700  1
  O  O9  1  0.26679600  0.50685400  0.49015200  1
  O  O10  1  0.49275100  0.26679000  0.24006300  1
  O  O11  1  0.49326800  0.73341100  0.25972200  1
  O  O12  1  0.50688300  0.26681500  0.75984000  1
  O  O13  1  0.50707900  0.73314000  0.73996200  1
  O  O14  1  0.73315900  0.50708100  0.51001500  1
  O  O15  1  0.73338500  0.49324500  0.99030300  1
loop_
_geom_bond_atom_site_label_1
_geom_bond_atom_site_label_2
_geom_bond_distance
_geom_bond_site_symmetry_2
Li0 O5 2.022149 1_455
Li0 O2 2.023498 1_554
Li0 O6 2.144438 1_454
Li0 O0 2.144768 1_555
Li0 O8 2.192165 1_555
Li0 O15 2.196927 1_454
Li1 O3 2.022067 1_655
Li1 O4 2.024684 1_555
Li1 O1 2.145399 1_655
Li1 O7 2.145869 1_555
Li1 O14 2.192907 1_555
Li1 O9 2.196633 1_655
Li2 O1 2.022109 1_545
Li2 O0 2.023469 1_555
Li2 O3 2.144678 1_545
Li2 O2 2.144693 1_554
Li2 O10 2.192102 1_555
Li2 O11 2.196896 1_545
Li3 O6 2.021966 1_565
Li3 O7 2.024485 1_555
Li3 O5 2.145196 1_566
Li3 O4 2.146244 1_555
Li3 O13 2.193161 1_555
Li3 O12 2.196821 1_565
Al0 O3 1.784987 1_545
Al0 O6 1.785076 1_455
Al0 O9 1.816610 1_555
Al0 O12 1.816734 1_555
Al1 O7 1.784688 1_455
Al1 O2 1.784801 1_565
Al1 O13 1.818047 1_555
Al1 O8 1.818557 1_556
Al2 O4 1.784540 1_545
Al2 O0 1.784742 1_655
Al2 O14 1.817905 1_555
Al2 O10 1.818606 1_555
Al3 O5 1.785128 1_565
Al3 O1 1.785194 1_655
Al3 O11 1.815298 1_555
Al3 O15 1.815303 1_554
O0 V2 1.871872 1_555
O1 V2 1.867905 1_555
O2 V3 1.871703 1_555
O3 V0 1.869601 1_555
O4 V0 1.870062 1_555
O5 V3 1.868116 1_554
O6 V1 1.869757 1_555
O7 V1 1.870070 1_555
O8 V2 1.974397 1_555
O8 V3 2.066881 1_554
O9 V2 1.972944 1_555
O9 V0 2.062498 1_555
O10 V3 1.974069 1_554
O10 V2 2.066991 1_555
O11 V0 1.973980 1_555
O11 V2 2.063018 1_555
O12 V3 1.973340 1_555
O12 V1 2.062102 1_555
O13 V0 1.973409 1_555
O13 V1 2.066541 1_555
O14 V1 1.973301 1_555
O14 V0 2.066828 1_555
O15 V1 1.974416 1_555
O15 V3 2.062873 1_555
