# generated using pymatgen
data_Ba4Ta2O9
_symmetry_space_group_name_H-M   'P 1'
_cell_length_a   6.08987800
_cell_length_b   10.57127600
_cell_length_c   18.90259465
_cell_angle_alpha   56.09618631
_cell_angle_beta   90.00000000
_cell_angle_gamma   90.00000000
_symmetry_Int_Tables_number   1
_chemical_formula_structural   Ba4Ta2O9
_chemical_formula_sum   'Ba16 Ta8 O36'
_cell_volume   1010.00266499
_cell_formula_units_Z   4
loop_
 _symmetry_equiv_pos_site_id
 _symmetry_equiv_pos_as_xyz
  1  'x, y, z'
loop_
 _atom_site_type_symbol
 _atom_site_label
 _atom_site_symmetry_multiplicity
 _atom_site_fract_x
 _atom_site_fract_y
 _atom_site_fract_z
 _atom_site_occupancy
  Ba  Ba0  1  0.00000000  0.50000000  0.50000000  1
  Ba  Ba1  1  0.00000000  0.00000000  0.00000000  1
  Ba  Ba2  1  0.00657900  0.75978300  0.24218200  1
  Ba  Ba3  1  0.48739200  0.55286900  0.60324000  1
  Ba  Ba4  1  0.50908100  0.08983400  0.09075300  1
  Ba  Ba5  1  0.00908100  0.91016600  0.40924700  1
  Ba  Ba6  1  0.98739200  0.44713100  0.89676000  1
  Ba  Ba7  1  0.50657900  0.24021700  0.25781800  1
  Ba  Ba8  1  0.50000000  0.00000000  0.50000000  1
  Ba  Ba9  1  0.49342100  0.75978300  0.74218200  1
  Ba  Ba10  1  0.50000000  0.50000000  0.00000000  1
  Ba  Ba11  1  0.01260800  0.55286900  0.10324000  1
  Ba  Ba12  1  0.99091900  0.08983400  0.59075300  1
  Ba  Ba13  1  0.49091900  0.91016600  0.90924700  1
  Ba  Ba14  1  0.51260800  0.44713100  0.39676000  1
  Ba  Ba15  1  0.99342100  0.24021700  0.75781800  1
  Ta  Ta0  1  0.49370600  0.33371200  0.83042100  1
  Ta  Ta1  1  0.51002300  0.83873800  0.32944000  1
  Ta  Ta2  1  0.99370600  0.66628800  0.66957900  1
  Ta  Ta3  1  0.01002300  0.16126200  0.17056000  1
  Ta  Ta4  1  0.98997700  0.83873800  0.82944000  1
  Ta  Ta5  1  0.00629400  0.33371200  0.33042100  1
  Ta  Ta6  1  0.48997700  0.16126200  0.67056000  1
  Ta  Ta7  1  0.50629400  0.66628800  0.16957900  1
  O  O0  1  0.54101400  0.25813600  0.74438500  1
  O  O1  1  0.30918400  0.15678700  0.89235600  1
  O  O2  1  0.76509200  0.70582200  0.37567300  1
  O  O3  1  0.32118700  0.68946600  0.42013000  1
  O  O4  1  0.75549400  0.22978800  0.89468800  1
  O  O5  1  0.07756300  0.06624800  0.11042500  1
  O  O6  1  0.92646200  0.59675000  0.59672000  1
  O  O7  1  0.22675100  0.47775200  0.75070200  1
  O  O8  1  0.74175100  0.01243300  0.23231800  1
  O  O9  1  0.24175100  0.98756700  0.26768200  1
  O  O10  1  0.72675100  0.52224800  0.74929800  1
  O  O11  1  0.42646200  0.40325000  0.90328000  1
  O  O12  1  0.57756300  0.93375200  0.38957500  1
  O  O13  1  0.25549400  0.77021200  0.60531200  1
  O  O14  1  0.82118700  0.31053400  0.07987000  1
  O  O15  1  0.26509200  0.29417800  0.12432700  1
  O  O16  1  0.80918400  0.84321300  0.60764400  1
  O  O17  1  0.04101400  0.74186400  0.75561500  1
  O  O18  1  0.95898600  0.25813600  0.24438500  1
  O  O19  1  0.19081600  0.15678700  0.39235600  1
  O  O20  1  0.73490800  0.70582200  0.87567300  1
  O  O21  1  0.17881300  0.68946600  0.92013000  1
  O  O22  1  0.74450600  0.22978800  0.39468800  1
  O  O23  1  0.42243700  0.06624800  0.61042500  1
  O  O24  1  0.57353800  0.59675000  0.09672000  1
  O  O25  1  0.27324900  0.47775200  0.25070200  1
  O  O26  1  0.75824900  0.01243300  0.73231800  1
  O  O27  1  0.25824900  0.98756700  0.76768200  1
  O  O28  1  0.77324900  0.52224800  0.24929800  1
  O  O29  1  0.07353800  0.40325000  0.40328000  1
  O  O30  1  0.92243700  0.93375200  0.88957500  1
  O  O31  1  0.24450600  0.77021200  0.10531200  1
  O  O32  1  0.67881300  0.31053400  0.57987000  1
  O  O33  1  0.23490800  0.29417800  0.62432700  1
  O  O34  1  0.69081600  0.84321300  0.10764400  1
  O  O35  1  0.45898600  0.74186400  0.25561500  1
loop_
_geom_bond_atom_site_label_1
_geom_bond_atom_site_label_2
_geom_bond_distance
_geom_bond_site_symmetry_2
Ba0 O33 2.568878 1_555
Ba0 O2 2.568878 1_455
Ba0 O29 2.583641 1_555
Ba0 O6 2.583641 1_455
Ba0 O3 2.596806 1_555
Ba0 O32 2.596806 1_455
Ba1 O34 2.582685 1_445
Ba1 O1 2.582685 1_554
Ba1 O31 2.585742 1_545
Ba1 O4 2.585742 1_454
Ba1 O5 2.588679 1_555
Ba1 O30 2.588679 1_444
Ba2 O2 2.692494 1_455
Ba2 O35 2.763565 1_555
Ba2 O5 2.807861 1_565
Ba2 O28 2.822366 1_455
Ba2 O34 2.905315 1_455
Ba2 O31 2.913244 1_555
Ba2 O8 3.035388 1_465
Ba2 O9 3.062125 1_555
Ba2 O29 3.292524 1_555
Ba2 O25 3.319114 1_555
Ba2 O35 3.341769 1_455
Ba3 O6 2.704855 1_555
Ba3 O13 2.715742 1_555
Ba3 O0 2.767459 1_555
Ba3 O7 2.906951 1_555
Ba3 O33 2.964048 1_555
Ba3 O10 2.975734 1_555
Ba3 O32 3.062572 1_555
Ba3 O3 3.084488 1_555
Ba4 O5 2.646285 1_555
Ba4 O34 2.682379 1_545
Ba4 O8 2.719418 1_555
Ba4 O14 2.926219 1_555
Ba4 O15 2.967545 1_555
Ba5 O12 2.646285 1_455
Ba5 O19 2.682379 1_565
Ba5 O9 2.719418 1_555
Ba5 O3 2.926219 1_555
Ba5 O2 2.967545 1_455
Ba6 O11 2.704855 1_655
Ba6 O4 2.715742 1_555
Ba6 O17 2.767459 1_655
Ba6 O10 2.906951 1_555
Ba6 O20 2.964048 1_555
Ba6 O7 2.975734 1_655
Ba6 O21 3.062572 1_655
Ba6 O14 3.084488 1_556
Ba7 O15 2.692494 1_555
Ba7 O18 2.763565 1_555
Ba7 O12 2.807861 1_545
Ba7 O25 2.822366 1_555
Ba7 O19 2.905315 1_555
Ba7 O22 2.913244 1_555
Ba7 O9 3.035388 1_545
Ba7 O8 3.062125 1_555
Ba7 O24 3.292524 1_555
Ba7 O28 3.319114 1_555
Ba7 O18 3.341769 1_455
Ba8 O16 2.582685 1_545
Ba8 O19 2.582685 1_555
Ba8 O13 2.585742 1_545
Ba8 O22 2.585742 1_555
Ba8 O23 2.588679 1_555
Ba8 O12 2.588679 1_545
Ba9 O20 2.692494 1_555
Ba9 O17 2.763565 1_555
Ba9 O23 2.807861 1_565
Ba9 O10 2.822366 1_555
Ba9 O16 2.905315 1_555
Ba9 O13 2.913244 1_555
Ba9 O26 3.035388 1_565
Ba9 O27 3.062125 1_555
Ba9 O11 3.292524 1_555
Ba9 O7 3.319114 1_555
Ba9 O17 3.341769 1_655
Ba10 O15 2.568878 1_555
Ba10 O20 2.568878 1_554
Ba10 O11 2.583641 1_554
Ba10 O24 2.583641 1_555
Ba10 O21 2.596806 1_554
Ba10 O14 2.596806 1_555
Ba11 O24 2.704855 1_455
Ba11 O31 2.715742 1_555
Ba11 O18 2.767459 1_455
Ba11 O25 2.906951 1_555
Ba11 O15 2.964048 1_555
Ba11 O28 2.975734 1_455
Ba11 O14 3.062572 1_455
Ba11 O21 3.084488 1_554
Ba12 O23 2.646285 1_655
Ba12 O16 2.682379 1_545
Ba12 O26 2.719418 1_555
Ba12 O32 2.926219 1_555
Ba12 O33 2.967545 1_655
Ba13 O30 2.646285 1_555
Ba13 O1 2.682379 1_565
Ba13 O27 2.719418 1_555
Ba13 O21 2.926219 1_555
Ba13 O20 2.967545 1_555
Ba14 O29 2.704855 1_555
Ba14 O22 2.715742 1_555
Ba14 O35 2.767459 1_555
Ba14 O28 2.906951 1_555
Ba14 O2 2.964048 1_555
Ba14 O25 2.975734 1_555
Ba14 O3 3.062572 1_555
Ba14 O32 3.084488 1_555
Ba15 O33 2.692494 1_655
Ba15 O0 2.763565 1_555
Ba15 O30 2.807861 1_545
Ba15 O7 2.822366 1_655
Ba15 O1 2.905315 1_655
Ba15 O4 2.913244 1_555
Ba15 O27 3.035388 1_645
Ba15 O26 3.062125 1_555
Ba15 O6 3.292524 1_555
Ba15 O10 3.319114 1_555
Ba15 O0 3.341769 1_655
O0 Ta6 2.164952 1_555
O0 Ta0 2.194464 1_555
O1 Ta0 1.920596 1_555
O2 Ta1 1.944478 1_555
O3 Ta1 1.932214 1_555
O4 Ta0 1.932740 1_555
O5 Ta3 1.934904 1_555
O6 Ta2 1.932424 1_555
O7 Ta0 2.161598 1_555
O7 Ta2 2.219993 1_455
O8 Ta3 2.111454 1_655
O8 Ta1 2.229966 1_545
O9 Ta1 2.111454 1_555
O9 Ta3 2.229966 1_565
O10 Ta2 2.161598 1_555
O10 Ta0 2.219993 1_555
O11 Ta0 1.932424 1_555
O12 Ta1 1.934904 1_555
O13 Ta2 1.932740 1_455
O14 Ta3 1.932214 1_655
O15 Ta3 1.944478 1_555
O16 Ta2 1.920596 1_555
O17 Ta4 2.164952 1_455
O17 Ta2 2.194464 1_455
O18 Ta3 2.164952 1_655
O18 Ta5 2.194464 1_655
O19 Ta5 1.920596 1_555
O20 Ta4 1.944478 1_555
O21 Ta4 1.932214 1_455
O22 Ta5 1.932740 1_655
O23 Ta6 1.934904 1_555
O24 Ta7 1.932424 1_555
O25 Ta5 2.161598 1_555
O25 Ta7 2.219993 1_555
O26 Ta6 2.111454 1_555
O26 Ta4 2.229966 1_545
O27 Ta4 2.111454 1_455
O27 Ta6 2.229966 1_565
O28 Ta7 2.161598 1_555
O28 Ta5 2.219993 1_655
O29 Ta5 1.932424 1_555
O30 Ta4 1.934904 1_555
O31 Ta7 1.932740 1_555
O32 Ta6 1.932214 1_555
O33 Ta6 1.944478 1_555
O34 Ta7 1.920596 1_555
O35 Ta1 2.164952 1_555
O35 Ta7 2.194464 1_555
