# generated using pymatgen
data_Li3AuO3
_symmetry_space_group_name_H-M   'P 1'
_cell_length_a   9.08504050
_cell_length_b   9.08504050
_cell_length_c   3.55251326
_cell_angle_alpha   90.00000000
_cell_angle_beta   90.00000000
_cell_angle_gamma   90.00000000
_symmetry_Int_Tables_number   1
_chemical_formula_structural   Li3AuO3
_chemical_formula_sum   'Li12 Au4 O12'
_cell_volume   293.21720050
_cell_formula_units_Z   4
loop_
 _symmetry_equiv_pos_site_id
 _symmetry_equiv_pos_as_xyz
  1  'x, y, z'
loop_
 _atom_site_type_symbol
 _atom_site_label
 _atom_site_symmetry_multiplicity
 _atom_site_fract_x
 _atom_site_fract_y
 _atom_site_fract_z
 _atom_site_occupancy
  Li  Li0  1  0.14072923  0.59201041  -0.00000000  1
  Li  Li1  1  0.09201041  0.35927077  0.50000000  1
  Li  Li2  1  0.90798959  0.64072923  0.50000000  1
  Li  Li3  1  0.85927077  0.40798959  0.00000000  1
  Li  Li4  1  0.35927077  0.09201041  0.50000000  1
  Li  Li5  1  0.64072923  0.90798959  0.50000000  1
  Li  Li6  1  0.59201041  0.14072923  0.00000000  1
  Li  Li7  1  0.40798959  0.85927077  0.00000000  1
  Li  Li8  1  0.16761236  0.16761236  -0.00000000  1
  Li  Li9  1  0.66761236  0.33238764  0.50000000  1
  Li  Li10  1  0.33238764  0.66761236  0.50000000  1
  Li  Li11  1  0.83238764  0.83238764  0.00000000  1
  Au  Au0  1  0.61832273  0.61832273  0.00000000  1
  Au  Au1  1  0.88167727  0.11832273  0.50000000  1
  Au  Au2  1  0.38167727  0.38167727  0.00000000  1
  Au  Au3  1  0.11832273  0.88167727  0.50000000  1
  O  O0  1  0.10770511  0.10770511  0.50000000  1
  O  O1  1  0.89229489  0.89229489  0.50000000  1
  O  O2  1  0.39229489  0.60770511  0.00000000  1
  O  O3  1  0.60770511  0.39229489  0.00000000  1
  O  O4  1  0.38109319  0.16246246  0.00000000  1
  O  O5  1  0.66246246  0.11890681  0.50000000  1
  O  O6  1  0.33753754  0.88109319  0.50000000  1
  O  O7  1  0.61890681  0.83753754  0.00000000  1
  O  O8  1  0.11890681  0.66246246  0.50000000  1
  O  O9  1  0.88109319  0.33753754  0.50000000  1
  O  O10  1  0.16246246  0.38109319  0.00000000  1
  O  O11  1  0.83753754  0.61890681  0.00000000  1
loop_
_geom_bond_atom_site_label_1
_geom_bond_atom_site_label_2
_geom_bond_distance
_geom_bond_site_symmetry_2
Li0 O8 1.898439 1_555
Li0 O8 1.898439 1_554
Li0 O10 1.926337 1_555
Li0 O2 2.289928 1_555
Li1 O10 1.898439 1_555
Li1 O10 1.898439 1_556
Li1 O9 1.926337 1_455
Li1 O0 2.289928 1_555
Li2 O11 1.898439 1_556
Li2 O11 1.898439 1_555
Li2 O8 1.926337 1_655
Li2 O1 2.289928 1_555
Li3 O9 1.898439 1_554
Li3 O9 1.898439 1_555
Li3 O11 1.926337 1_555
Li3 O3 2.289928 1_555
Li4 O4 1.898439 1_556
Li4 O4 1.898439 1_555
Li4 O6 1.926337 1_545
Li4 O0 2.289928 1_555
Li5 O7 1.898439 1_556
Li5 O7 1.898439 1_555
Li5 O5 1.926337 1_565
Li5 O1 2.289928 1_555
Li6 O5 1.898439 1_555
Li6 O5 1.898439 1_554
Li6 O4 1.926337 1_555
Li6 O3 2.289928 1_555
Li7 O6 1.898439 1_554
Li7 O6 1.898439 1_555
Li7 O7 1.926337 1_555
Li7 O2 2.289928 1_555
Li8 O0 1.935853 1_555
Li8 O0 1.935853 1_554
Li8 O10 1.940046 1_555
Li8 O4 1.940046 1_555
Li9 O3 1.935853 1_556
Li9 O3 1.935853 1_555
Li9 O9 1.940046 1_555
Li9 O5 1.940046 1_555
Li10 O2 1.935853 1_556
Li10 O2 1.935853 1_555
Li10 O6 1.940046 1_555
Li10 O8 1.940046 1_555
Li11 O1 1.935853 1_554
Li11 O1 1.935853 1_555
Li11 O7 1.940046 1_555
Li11 O11 1.940046 1_555
Au0 O11 1.991582 1_555
Au0 O7 1.991582 1_555
Au0 O3 2.055736 1_555
Au0 O2 2.055736 1_555
Au1 O5 1.991582 1_555
Au1 O9 1.991582 1_555
Au1 O0 2.055736 1_655
Au1 O1 2.055736 1_545
Au2 O10 1.991582 1_555
Au2 O4 1.991582 1_555
Au2 O3 2.055736 1_555
Au2 O2 2.055736 1_555
Au3 O8 1.991582 1_555
Au3 O6 1.991582 1_555
Au3 O0 2.055736 1_565
Au3 O1 2.055736 1_455
