# generated using pymatgen
data_Li2MnVP2(HO5)2
_symmetry_space_group_name_H-M   'P 1'
_cell_length_a   5.50379297
_cell_length_b   7.33412261
_cell_length_c   5.16210665
_cell_angle_alpha   106.60166817
_cell_angle_beta   99.63314551
_cell_angle_gamma   107.65206049
_symmetry_Int_Tables_number   1
_chemical_formula_structural   Li2MnVP2(HO5)2
_chemical_formula_sum   'Li2 Mn1 V1 P2 H2 O10'
_cell_volume   182.77538171
_cell_formula_units_Z   1
loop_
 _symmetry_equiv_pos_site_id
 _symmetry_equiv_pos_as_xyz
  1  'x, y, z'
loop_
 _atom_site_type_symbol
 _atom_site_label
 _atom_site_symmetry_multiplicity
 _atom_site_fract_x
 _atom_site_fract_y
 _atom_site_fract_z
 _atom_site_occupancy
  Li  Li0  1  0.38820800  0.82530400  0.74338900  1
  Li  Li1  1  0.61194100  0.17471600  0.25656400  1
  Mn  Mn0  1  0.99998600  0.50017200  0.00043800  1
  V  V0  1  0.00000500  0.99994900  0.00002900  1
  P  P0  1  0.36705600  0.23399400  0.67232300  1
  P  P1  1  0.63269700  0.76594200  0.32761400  1
  H  H0  1  0.07458100  0.34532000  0.35779600  1
  H  H1  1  0.92560400  0.65470400  0.64215400  1
  O  O0  1  0.04130000  0.71988800  0.84103200  1
  O  O1  1  0.22242800  0.38388800  0.71043000  1
  O  O2  1  0.33337900  0.66282800  0.30470700  1
  O  O3  1  0.25858700  0.07237500  0.36713800  1
  O  O4  1  0.33792500  0.11571600  0.88174200  1
  O  O5  1  0.66216400  0.88422300  0.11834900  1
  O  O6  1  0.74154900  0.92760400  0.63265500  1
  O  O7  1  0.66633900  0.33704500  0.69495300  1
  O  O8  1  0.77762100  0.61627100  0.28964800  1
  O  O9  1  0.95862800  0.28006000  0.15904000  1
loop_
_geom_bond_atom_site_label_1
_geom_bond_atom_site_label_2
_geom_bond_distance
_geom_bond_site_symmetry_2
Li0 O0 2.036366 1_555
Li0 O5 2.087300 1_556
Li0 O6 2.098527 1_555
Li0 O2 2.156459 1_555
Li0 O4 2.162775 1_565
Li1 O9 2.034912 1_555
Li1 O4 2.086770 1_554
Li1 O3 2.098197 1_555
Li1 O7 2.155402 1_555
Li1 O5 2.163118 1_545
Mn0 O2 1.973387 1_655
Mn0 O7 1.977513 1_554
Mn0 O9 1.980642 1_555
Mn0 O0 1.980814 1_654
Mn0 O8 2.229074 1_555
Mn0 O1 2.232577 1_654
H0 O9 1.002015 1_455
H0 O1 1.768107 1_555
H1 O0 1.002059 1_655
H1 O8 1.767959 1_555
O0 V0 2.080008 1_556
O1 P0 1.529839 1_555
O2 P1 1.558176 1_555
O3 P0 1.559580 1_555
O3 V0 1.990608 1_545
O4 P0 1.567286 1_555
O4 V0 2.066734 1_546
O5 P1 1.566708 1_555
O5 V0 2.066404 1_655
O6 P1 1.559117 1_555
O6 V0 1.991445 1_656
O7 P0 1.558280 1_555
O8 P1 1.529697 1_555
O9 V0 2.080564 1_645
