# generated using pymatgen
data_Li4CrO5
_symmetry_space_group_name_H-M   'P 1'
_cell_length_a   5.11588800
_cell_length_b   7.56572500
_cell_length_c   4.99458197
_cell_angle_alpha   102.92173903
_cell_angle_beta   102.24177382
_cell_angle_gamma   106.33161758
_symmetry_Int_Tables_number   1
_chemical_formula_structural   Li4CrO5
_chemical_formula_sum   'Li8 Cr2 O10'
_cell_volume   172.83222185
_cell_formula_units_Z   2
loop_
 _symmetry_equiv_pos_site_id
 _symmetry_equiv_pos_as_xyz
  1  'x, y, z'
loop_
 _atom_site_type_symbol
 _atom_site_label
 _atom_site_symmetry_multiplicity
 _atom_site_fract_x
 _atom_site_fract_y
 _atom_site_fract_z
 _atom_site_occupancy
  Li  Li0  1  0.18884500  0.70640700  0.58707200  1
  Li  Li1  1  0.00000000  0.50000000  0.00000000  1
  Li  Li2  1  0.00000000  0.00000000  0.50000000  1
  Li  Li3  1  0.39156300  0.90353800  0.20808200  1
  Li  Li4  1  0.38264600  0.38979700  0.68248100  1
  Li  Li5  1  0.61735400  0.61020300  0.31751900  1
  Li  Li6  1  0.60843700  0.09646200  0.79191800  1
  Li  Li7  1  0.81115500  0.29359300  0.41292800  1
  Cr  Cr0  1  0.25011500  0.21831700  0.09215400  1
  Cr  Cr1  1  0.74988500  0.78168300  0.90784600  1
  O  O0  1  0.19732700  0.97765300  0.87542700  1
  O  O1  1  0.01401300  0.24553000  0.78468200  1
  O  O2  1  0.18112700  0.41322600  0.31831600  1
  O  O3  1  0.43122600  0.65992300  0.94576100  1
  O  O4  1  0.61120900  0.84193300  0.58688800  1
  O  O5  1  0.38879100  0.15806700  0.41311200  1
  O  O6  1  0.56877400  0.34007700  0.05423900  1
  O  O7  1  0.81887300  0.58677400  0.68168400  1
  O  O8  1  0.98598700  0.75447000  0.21531800  1
  O  O9  1  0.80267300  0.02234700  0.12457300  1
loop_
_geom_bond_atom_site_label_1
_geom_bond_atom_site_label_2
_geom_bond_distance
_geom_bond_site_symmetry_2
Li0 O7 2.057207 1_455
Li0 O8 2.086583 1_455
Li0 O3 2.110857 1_555
Li0 O4 2.115542 1_555
Li0 O0 2.211126 1_555
Li0 O2 2.306538 1_555
Li1 O2 2.000366 1_555
Li1 O7 2.000366 1_454
Li1 O1 2.013104 1_554
Li1 O8 2.013104 1_455
Li1 O3 2.302845 1_554
Li1 O6 2.302845 1_455
Li2 O0 1.999680 1_545
Li2 O9 1.999680 1_455
Li2 O8 2.044056 1_445
Li2 O1 2.044056 1_555
Li2 O4 2.198881 1_445
Li2 O5 2.198881 1_555
Li3 O5 1.974013 1_565
Li3 O0 2.022924 1_554
Li3 O8 2.076628 1_455
Li3 O3 2.097122 1_554
Li3 O4 2.201553 1_555
Li3 O9 2.209489 1_565
Li4 O2 1.963228 1_555
Li4 O5 1.969465 1_555
Li4 O6 2.063944 1_556
Li4 O3 2.083619 1_555
Li4 O1 2.123262 1_555
Li4 O7 2.310274 1_555
Li5 O7 1.963228 1_555
Li5 O4 1.969465 1_555
Li5 O3 2.063944 1_554
Li5 O6 2.083619 1_555
Li5 O8 2.123262 1_555
Li5 O2 2.310274 1_555
Li6 O4 1.974013 1_545
Li6 O9 2.022924 1_556
Li6 O1 2.076628 1_655
Li6 O6 2.097122 1_556
Li6 O5 2.201553 1_555
Li6 O0 2.209489 1_545
Li7 O2 2.057207 1_655
Li7 O1 2.086583 1_655
Li7 O6 2.110857 1_555
Li7 O5 2.115542 1_555
Li7 O9 2.211126 1_555
Li7 O7 2.306538 1_555
Cr0 O6 1.704834 1_555
Cr0 O0 1.810515 1_544
Cr0 O2 1.814342 1_555
Cr0 O5 1.818590 1_555
Cr0 O1 1.831485 1_554
Cr0 O9 2.412498 1_455
Cr1 O3 1.704834 1_555
Cr1 O9 1.810515 1_566
Cr1 O7 1.814342 1_555
Cr1 O4 1.818590 1_555
Cr1 O8 1.831485 1_556
Cr1 O0 2.412498 1_655
