# generated using pymatgen
data_Mn3CuNi2(PO4)6
_symmetry_space_group_name_H-M   'P 1'
_cell_length_a   8.43322467
_cell_length_b   8.43322467
_cell_length_c   8.43322468
_cell_angle_alpha   60.61911629
_cell_angle_beta   60.61911629
_cell_angle_gamma   60.61910995
_symmetry_Int_Tables_number   1
_chemical_formula_structural   Mn3CuNi2(PO4)6
_chemical_formula_sum   'Mn3 Cu1 Ni2 P6 O24'
_cell_volume   430.02709933
_cell_formula_units_Z   1
loop_
 _symmetry_equiv_pos_site_id
 _symmetry_equiv_pos_as_xyz
  1  'x, y, z'
loop_
 _atom_site_type_symbol
 _atom_site_label
 _atom_site_symmetry_multiplicity
 _atom_site_fract_x
 _atom_site_fract_y
 _atom_site_fract_z
 _atom_site_occupancy
  Mn  Mn0  1  0.14148200  0.14148200  0.14148200  1
  Mn  Mn1  1  0.35804300  0.35804300  0.35804300  1
  Mn  Mn2  1  0.64187900  0.64187900  0.64187900  1
  Cu  Cu0  1  0.85700200  0.85700200  0.85700200  1
  Ni  Ni0  1  0.99801600  0.99801600  0.99801600  1
  Ni  Ni1  1  0.49980700  0.49980700  0.49980700  1
  P  P0  1  0.75052100  0.04112400  0.45817100  1
  P  P1  1  0.04112400  0.45817100  0.75052100  1
  P  P2  1  0.45817100  0.75052100  0.04112400  1
  P  P3  1  0.54091600  0.24987900  0.96065800  1
  P  P4  1  0.96065800  0.54091600  0.24987900  1
  P  P5  1  0.24987900  0.96065800  0.54091600  1
  O  O0  1  0.31010100  0.12296300  0.50447700  1
  O  O1  1  0.50447700  0.31010100  0.12296300  1
  O  O2  1  0.91374100  0.05642700  0.25732300  1
  O  O3  1  0.12296300  0.50447700  0.31010100  1
  O  O4  1  0.80462900  0.01920200  0.61545100  1
  O  O5  1  0.58275700  0.24166500  0.44000000  1
  O  O6  1  0.05642700  0.25732300  0.91374100  1
  O  O7  1  0.24166500  0.44000000  0.58275700  1
  O  O8  1  0.37863100  0.19509400  0.99023300  1
  O  O9  1  0.44000000  0.58275700  0.24166500  1
  O  O10  1  0.73915400  0.08914700  0.94791600  1
  O  O11  1  0.99023300  0.37863100  0.19509400  1
  O  O12  1  0.01920200  0.61545100  0.80462900  1
  O  O13  1  0.25732300  0.91374100  0.05642700  1
  O  O14  1  0.55235400  0.41711100  0.76172700  1
  O  O15  1  0.61545100  0.80462900  0.01920200  1
  O  O16  1  0.76172700  0.55235400  0.41711100  1
  O  O17  1  0.94791600  0.73915400  0.08914700  1
  O  O18  1  0.41711100  0.76172700  0.55235400  1
  O  O19  1  0.19509400  0.99023300  0.37863100  1
  O  O20  1  0.87903400  0.48914700  0.69422000  1
  O  O21  1  0.08914700  0.94791600  0.73915400  1
  O  O22  1  0.48914700  0.69422000  0.87903400  1
  O  O23  1  0.69422000  0.87903400  0.48914700  1
loop_
_geom_bond_atom_site_label_1
_geom_bond_atom_site_label_2
_geom_bond_distance
_geom_bond_site_symmetry_2
Mn0 O11 1.910340 1_455
Mn0 O19 1.910341 1_545
Mn0 O8 1.910341 1_554
Mn0 O13 1.995166 1_545
Mn0 O6 1.995166 1_554
Mn0 O2 1.995166 1_455
Mn1 O3 1.874313 1_555
Mn1 O1 1.874313 1_555
Mn1 O0 1.874313 1_555
Mn1 O5 1.956228 1_555
Mn1 O7 1.956228 1_555
Mn1 O9 1.956228 1_555
Mn2 O20 1.906428 1_555
Mn2 O22 1.906428 1_555
Mn2 O23 1.906428 1_555
Mn2 O18 1.990014 1_555
Mn2 O16 1.990014 1_555
Mn2 O14 1.990014 1_555
Cu0 O12 1.942069 1_655
Cu0 O4 1.942069 1_565
Cu0 O15 1.942069 1_556
Cu0 O10 2.055298 1_565
Cu0 O17 2.055298 1_556
Cu0 O21 2.055298 1_655
Ni0 O10 2.115420 1_565
Ni0 O21 2.115420 1_655
Ni0 O17 2.115420 1_556
Ni0 O13 2.172161 1_656
Ni0 O2 2.172161 1_566
Ni0 O6 2.172161 1_665
Ni1 O18 2.169646 1_555
Ni1 O14 2.169646 1_555
Ni1 O16 2.169646 1_555
Ni1 O5 2.172517 1_555
Ni1 O9 2.172517 1_555
Ni1 O7 2.172517 1_555
O0 P5 1.530388 1_545
O1 P3 1.530388 1_554
O2 P0 1.566014 1_555
O3 P4 1.530388 1_455
O4 P0 1.507368 1_555
O5 P0 1.579858 1_555
O6 P1 1.566014 1_555
O7 P1 1.579858 1_555
O8 P3 1.523523 1_555
O9 P2 1.579858 1_555
O10 P3 1.544950 1_555
O11 P4 1.523523 1_555
O12 P1 1.507368 1_555
O13 P2 1.566014 1_555
O14 P3 1.570304 1_555
O15 P2 1.507368 1_555
O16 P4 1.570304 1_555
O17 P4 1.544950 1_555
O18 P5 1.570303 1_555
O19 P5 1.523523 1_555
O20 P1 1.525437 1_655
O21 P5 1.544950 1_555
O22 P2 1.525437 1_556
O23 P0 1.525437 1_565
