# generated using pymatgen
data_NbNi5(PO4)6
_symmetry_space_group_name_H-M   'P 1'
_cell_length_a   8.53345542
_cell_length_b   8.53345542
_cell_length_c   8.53345550
_cell_angle_alpha   61.13132184
_cell_angle_beta   61.13132184
_cell_angle_gamma   61.13131703
_symmetry_Int_Tables_number   1
_chemical_formula_structural   NbNi5(PO4)6
_chemical_formula_sum   'Nb1 Ni5 P6 O24'
_cell_volume   450.58688484
_cell_formula_units_Z   1
loop_
 _symmetry_equiv_pos_site_id
 _symmetry_equiv_pos_as_xyz
  1  'x, y, z'
loop_
 _atom_site_type_symbol
 _atom_site_label
 _atom_site_symmetry_multiplicity
 _atom_site_fract_x
 _atom_site_fract_y
 _atom_site_fract_z
 _atom_site_occupancy
  Nb  Nb0  1  0.14334800  0.14334800  0.14334800  1
  Ni  Ni0  1  0.99535500  0.99535500  0.99535500  1
  Ni  Ni1  1  0.64068800  0.64068800  0.64068800  1
  Ni  Ni2  1  0.49971300  0.49971300  0.49971300  1
  Ni  Ni3  1  0.85604300  0.85604300  0.85604300  1
  Ni  Ni4  1  0.35794100  0.35794100  0.35794100  1
  P  P0  1  0.95140100  0.25280400  0.55369600  1
  P  P1  1  0.55369600  0.95140100  0.25280400  1
  P  P2  1  0.25280400  0.55369600  0.95140100  1
  P  P3  1  0.74205000  0.45764500  0.04678300  1
  P  P4  1  0.45764500  0.04678300  0.74205000  1
  P  P5  1  0.04678300  0.74205000  0.45764500  1
  O  O0  1  0.51059100  0.10687400  0.32061300  1
  O  O1  1  0.32061300  0.51059100  0.10687400  1
  O  O2  1  0.10687400  0.32061300  0.51059100  1
  O  O3  1  0.93747300  0.09212900  0.74653600  1
  O  O4  1  0.00993200  0.17677800  0.38928500  1
  O  O5  1  0.75592000  0.40363100  0.55492400  1
  O  O6  1  0.74653600  0.93747300  0.09212900  1
  O  O7  1  0.55492400  0.75592000  0.40363100  1
  O  O8  1  0.81396900  0.60898100  0.00890800  1
  O  O9  1  0.40363100  0.55492400  0.75592000  1
  O  O10  1  0.90521400  0.25510400  0.06631000  1
  O  O11  1  0.60898100  0.00890800  0.81396900  1
  O  O12  1  0.38928500  0.00993200  0.17677800  1
  O  O13  1  0.09212900  0.74653600  0.93747300  1
  O  O14  1  0.59057200  0.44143100  0.24534000  1
  O  O15  1  0.17677800  0.38928500  0.00993200  1
  O  O16  1  0.44143100  0.24534000  0.59057200  1
  O  O17  1  0.25510400  0.06631000  0.90521400  1
  O  O18  1  0.24534000  0.59057200  0.44143100  1
  O  O19  1  0.00890800  0.81396900  0.60898100  1
  O  O20  1  0.06631000  0.90521400  0.25510400  1
  O  O21  1  0.89183000  0.67990500  0.49029400  1
  O  O22  1  0.67990500  0.49029400  0.89183000  1
  O  O23  1  0.49029400  0.89183000  0.67990500  1
loop_
_geom_bond_atom_site_label_1
_geom_bond_atom_site_label_2
_geom_bond_distance
_geom_bond_site_symmetry_2
Nb0 O12 1.933749 1_555
Nb0 O4 1.933749 1_555
Nb0 O15 1.933749 1_555
Nb0 O10 2.069878 1_455
Nb0 O17 2.069878 1_554
Nb0 O20 2.069878 1_545
Ni0 O13 2.088054 1_655
Ni0 O3 2.088054 1_565
Ni0 O6 2.088054 1_556
Ni0 O10 2.251950 1_566
Ni0 O20 2.251950 1_656
Ni0 O17 2.251950 1_665
Ni1 O23 1.993481 1_555
Ni1 O22 1.993481 1_555
Ni1 O21 1.993481 1_555
Ni1 O5 2.099676 1_555
Ni1 O7 2.099676 1_555
Ni1 O9 2.099676 1_555
Ni2 O5 2.136577 1_555
Ni2 O9 2.136577 1_555
Ni2 O7 2.136577 1_555
Ni2 O18 2.146003 1_555
Ni2 O14 2.146003 1_555
Ni2 O16 2.146003 1_555
Ni3 O11 1.974463 1_565
Ni3 O19 1.974463 1_655
Ni3 O8 1.974463 1_556
Ni3 O13 2.078875 1_655
Ni3 O6 2.078876 1_556
Ni3 O3 2.078876 1_565
Ni4 O0 1.987949 1_555
Ni4 O1 1.987950 1_555
Ni4 O2 1.987950 1_555
Ni4 O18 2.057780 1_555
Ni4 O16 2.057781 1_555
Ni4 O14 2.057781 1_555
O0 P1 1.514881 1_545
O1 P2 1.514881 1_554
O2 P0 1.514881 1_455
O3 P0 1.546562 1_555
O4 P0 1.590006 1_455
O5 P0 1.536979 1_555
O6 P1 1.546562 1_555
O7 P1 1.536979 1_555
O8 P3 1.523027 1_555
O9 P2 1.536979 1_555
O10 P3 1.604956 1_555
O11 P4 1.523027 1_555
O12 P1 1.590005 1_545
O13 P2 1.546562 1_555
O14 P3 1.546739 1_555
O15 P2 1.590006 1_554
O16 P4 1.546739 1_555
O17 P4 1.604956 1_555
O18 P5 1.546739 1_555
O19 P5 1.523027 1_555
O20 P5 1.604956 1_555
O21 P5 1.511952 1_655
O22 P3 1.511952 1_556
O23 P4 1.511952 1_565
