# generated using pymatgen
data_Rb3TmO3
_symmetry_space_group_name_H-M   'P 1'
_cell_length_a   7.26576305
_cell_length_b   7.75790769
_cell_length_c   11.58565095
_cell_angle_alpha   86.16063626
_cell_angle_beta   90.00000000
_cell_angle_gamma   90.00000000
_symmetry_Int_Tables_number   1
_chemical_formula_structural   Rb3TmO3
_chemical_formula_sum   'Rb12 Tm4 O12'
_cell_volume   651.58412730
_cell_formula_units_Z   4
loop_
 _symmetry_equiv_pos_site_id
 _symmetry_equiv_pos_as_xyz
  1  'x, y, z'
loop_
 _atom_site_type_symbol
 _atom_site_label
 _atom_site_symmetry_multiplicity
 _atom_site_fract_x
 _atom_site_fract_y
 _atom_site_fract_z
 _atom_site_occupancy
  Rb  Rb0  1  0.33505868  0.35998278  0.07883250  1
  Rb  Rb1  1  0.62356640  0.92894415  0.15687130  1
  Rb  Rb2  1  0.80256931  0.37408306  0.18994435  1
  Rb  Rb3  1  0.30256931  0.62591694  0.31005565  1
  Rb  Rb4  1  0.12356640  0.07105585  0.34312870  1
  Rb  Rb5  1  0.83505868  0.64001722  0.42116750  1
  Rb  Rb6  1  0.16494132  0.35998278  0.57883250  1
  Rb  Rb7  1  0.87643360  0.92894415  0.65687130  1
  Rb  Rb8  1  0.69743069  0.37408306  0.68994435  1
  Rb  Rb9  1  0.19743069  0.62591694  0.81005565  1
  Rb  Rb10  1  0.37643360  0.07105585  0.84312870  1
  Rb  Rb11  1  0.66494132  0.64001722  0.92116750  1
  Tm  Tm0  1  0.08859604  0.83978429  0.06833520  1
  Tm  Tm1  1  0.58859604  0.16021571  0.43166480  1
  Tm  Tm2  1  0.41140396  0.83978429  0.56833520  1
  Tm  Tm3  1  0.91140396  0.16021571  0.93166480  1
  O  O0  1  0.35253097  0.74480594  0.04626643  1
  O  O1  1  0.05016423  0.11049953  0.09363866  1
  O  O2  1  0.94289277  0.69458012  0.19215668  1
  O  O3  1  0.44289277  0.30541988  0.30784332  1
  O  O4  1  0.55016423  0.88950047  0.40636134  1
  O  O5  1  0.85253097  0.25519406  0.45373357  1
  O  O6  1  0.14746903  0.74480594  0.54626643  1
  O  O7  1  0.44983577  0.11049953  0.59363866  1
  O  O8  1  0.55710723  0.69458012  0.69215668  1
  O  O9  1  0.05710723  0.30541988  0.80784332  1
  O  O10  1  0.94983577  0.88950047  0.90636134  1
  O  O11  1  0.64746903  0.25519406  0.95373357  1
loop_
_geom_bond_atom_site_label_1
_geom_bond_atom_site_label_2
_geom_bond_distance
_geom_bond_site_symmetry_2
O0 Tm0 2.076308 1_555
O0 Rb1 2.793914 1_555
O0 Rb11 2.841079 1_554
O0 Rb0 2.986699 1_555
O0 Rb3 3.153594 1_555
O0 Rb9 3.154038 1_554
O0 Rb10 3.343258 1_564
O1 Tm3 2.142387 1_454
O1 Tm0 2.158040 1_545
O1 Rb0 2.831219 1_555
O1 Rb4 2.935070 1_555
O1 Rb2 2.994694 1_455
O1 Rb1 3.462602 1_445
O2 Tm0 2.056992 1_655
O2 Rb2 2.689016 1_555
O2 Rb5 2.771700 1_555
O2 Rb1 2.959127 1_555
O2 Rb3 2.980194 1_655
O3 Tm1 2.056992 1_555
O3 Rb3 2.689016 1_555
O3 Rb0 2.771700 1_555
O3 Rb4 2.959127 1_555
O3 Rb2 2.980194 1_555
O4 Tm2 2.142387 1_555
O4 Tm1 2.158040 1_565
O4 Rb5 2.831219 1_555
O4 Rb1 2.935070 1_555
O4 Rb3 2.994694 1_555
O4 Rb4 3.462602 1_565
O5 Tm1 2.076308 1_555
O5 Rb4 2.793914 1_655
O5 Rb6 2.841079 1_655
O5 Rb5 2.986699 1_555
O5 Rb2 3.153594 1_555
O5 Rb8 3.154038 1_555
O5 Rb7 3.343258 1_545
O6 Tm2 2.076308 1_555
O6 Rb7 2.793914 1_455
O6 Rb5 2.841079 1_455
O6 Rb6 2.986699 1_555
O6 Rb9 3.153594 1_555
O6 Rb3 3.154038 1_555
O6 Rb4 3.343258 1_565
O7 Tm1 2.142387 1_555
O7 Tm2 2.158040 1_545
O7 Rb6 2.831219 1_555
O7 Rb10 2.935070 1_555
O7 Rb8 2.994694 1_555
O7 Rb7 3.462602 1_545
O8 Tm2 2.056992 1_555
O8 Rb8 2.689016 1_555
O8 Rb11 2.771700 1_555
O8 Rb7 2.959127 1_555
O8 Rb9 2.980194 1_555
O9 Tm3 2.056992 1_455
O9 Rb9 2.689016 1_555
O9 Rb6 2.771700 1_555
O9 Rb10 2.959127 1_555
O9 Rb8 2.980194 1_455
O10 Tm0 2.142387 1_656
O10 Tm3 2.158040 1_565
O10 Rb11 2.831219 1_555
O10 Rb7 2.935070 1_555
O10 Rb9 2.994694 1_655
O10 Rb10 3.462602 1_665
O11 Tm3 2.076308 1_555
O11 Rb10 2.793914 1_555
O11 Rb0 2.841079 1_556
O11 Rb11 2.986699 1_555
O11 Rb8 3.153594 1_555
O11 Rb2 3.154038 1_556
O11 Rb1 3.343258 1_546
