# generated using pymatgen
data_Li2VCr(P2O7)2
_symmetry_space_group_name_H-M   'P 1'
_cell_length_a   8.22779100
_cell_length_b   7.02720600
_cell_length_c   9.73405613
_cell_angle_alpha   71.21143650
_cell_angle_beta   90.00000000
_cell_angle_gamma   90.00000000
_symmetry_Int_Tables_number   1
_chemical_formula_structural   Li2VCr(P2O7)2
_chemical_formula_sum   'Li4 V2 Cr2 P8 O28'
_cell_volume   532.81738080
_cell_formula_units_Z   2
loop_
 _symmetry_equiv_pos_site_id
 _symmetry_equiv_pos_as_xyz
  1  'x, y, z'
loop_
 _atom_site_type_symbol
 _atom_site_label
 _atom_site_symmetry_multiplicity
 _atom_site_fract_x
 _atom_site_fract_y
 _atom_site_fract_z
 _atom_site_occupancy
  Li  Li0  1  0.86300900  0.67681200  0.66152300  1
  Li  Li1  1  0.36300900  0.32318800  0.33847700  1
  Li  Li2  1  0.86282700  0.67635700  0.16173000  1
  Li  Li3  1  0.36282700  0.32364300  0.83827000  1
  V  V0  1  0.49945900  0.72929100  0.64193900  1
  V  V1  1  0.99945900  0.27070900  0.35806100  1
  Cr  Cr0  1  0.50020400  0.72728800  0.14264100  1
  Cr  Cr1  1  0.00020400  0.27271200  0.85735900  1
  P  P0  1  0.17979200  0.52161900  0.55037500  1
  P  P1  1  0.78463500  0.08650900  0.64488600  1
  P  P2  1  0.28463500  0.91349100  0.35511400  1
  P  P3  1  0.67979200  0.47838100  0.44962500  1
  P  P4  1  0.18057300  0.52279800  0.04956600  1
  P  P5  1  0.78314000  0.08480900  0.14300100  1
  P  P6  1  0.28314000  0.91519100  0.85699900  1
  P  P7  1  0.68057300  0.47720200  0.95043400  1
  O  O0  1  0.32228200  0.85343600  0.72450500  1
  O  O1  1  0.69691900  0.88512700  0.68503300  1
  O  O2  1  0.03654800  0.48177400  0.65666600  1
  O  O3  1  0.34404600  0.50431900  0.62688900  1
  O  O4  1  0.67826000  0.60585600  0.55151200  1
  O  O5  1  0.43494700  0.91725800  0.44833100  1
  O  O6  1  0.15240900  0.75319300  0.45276900  1
  O  O7  1  0.65240900  0.24680700  0.54723100  1
  O  O8  1  0.93494700  0.08274200  0.55166900  1
  O  O9  1  0.17826000  0.39414400  0.44848800  1
  O  O10  1  0.84404600  0.49568100  0.37311100  1
  O  O11  1  0.53654800  0.51822600  0.34333400  1
  O  O12  1  0.32417300  0.85240700  0.22295400  1
  O  O13  1  0.69334000  0.88333400  0.18422500  1
  O  O14  1  0.19691900  0.11487300  0.31496700  1
  O  O15  1  0.82228200  0.14656400  0.27549500  1
  O  O16  1  0.03830200  0.48194400  0.15704800  1
  O  O17  1  0.34601400  0.50944800  0.12563300  1
  O  O18  1  0.67971900  0.60608900  0.05058100  1
  O  O19  1  0.43362400  0.91761200  0.94927800  1
  O  O20  1  0.15135700  0.75404600  0.95279900  1
  O  O21  1  0.65135700  0.24595400  0.04720100  1
  O  O22  1  0.93362400  0.08238800  0.05072200  1
  O  O23  1  0.17971900  0.39391100  0.94941900  1
  O  O24  1  0.84601400  0.49055200  0.87436700  1
  O  O25  1  0.53830200  0.51805600  0.84295200  1
  O  O26  1  0.19334000  0.11666600  0.81577500  1
  O  O27  1  0.82417300  0.14759300  0.77704600  1
loop_
_geom_bond_atom_site_label_1
_geom_bond_atom_site_label_2
_geom_bond_distance
_geom_bond_site_symmetry_2
Li0 O2 1.990271 1_655
Li0 O4 2.012444 1_555
Li0 O24 2.068436 1_555
Li0 O1 2.068467 1_555
Li1 O11 1.990271 1_555
Li1 O9 2.012444 1_555
Li1 O17 2.068436 1_555
Li1 O14 2.068467 1_555
Li2 O16 1.998277 1_655
Li2 O18 2.007063 1_555
Li2 O10 2.046162 1_555
Li2 O13 2.076830 1_555
Li3 O25 1.998277 1_555
Li3 O23 2.007063 1_555
Li3 O3 2.046162 1_555
Li3 O26 2.076830 1_555
Cr0 O12 1.981085 1_555
Cr0 O19 2.002497 1_554
Cr0 O17 2.035555 1_555
Cr0 O13 2.043872 1_555
Cr0 O18 2.049779 1_555
Cr0 O11 2.053142 1_555
Cr1 O27 1.981085 1_455
Cr1 O22 2.002497 1_456
Cr1 O24 2.035555 1_455
Cr1 O26 2.043872 1_555
Cr1 O23 2.049779 1_555
Cr1 O2 2.053142 1_555
O0 P6 1.521809 1_555
O0 V0 1.995936 1_555
O1 P1 1.523156 1_565
O1 V0 2.076201 1_555
O2 P0 1.533404 1_555
O3 P0 1.528915 1_555
O3 V0 2.074864 1_555
O4 P3 1.535741 1_555
O4 V0 2.045297 1_555
O5 P2 1.539164 1_555
O5 V0 1.993652 1_555
O6 P0 1.614212 1_555
O6 P2 1.632889 1_555
O7 P3 1.614212 1_555
O7 P1 1.632889 1_555
O8 P1 1.539164 1_555
O8 V1 1.993652 1_555
O9 P0 1.535741 1_555
O9 V1 2.045297 1_455
O10 P3 1.528915 1_555
O10 V1 2.074864 1_555
O11 P3 1.533404 1_555
O12 P2 1.516823 1_555
O13 P5 1.531494 1_565
O14 P2 1.523156 1_545
O14 V1 2.076201 1_455
O15 P5 1.521809 1_555
O15 V1 1.995936 1_555
O16 P4 1.534209 1_555
O16 V1 2.064752 1_455
O17 P4 1.537924 1_555
O18 P7 1.529515 1_554
O19 P6 1.532972 1_555
O20 P4 1.612375 1_556
O20 P6 1.627076 1_555
O21 P7 1.612375 1_554
O21 P5 1.627076 1_555
O22 P5 1.532972 1_555
O23 P4 1.529515 1_556
O24 P7 1.537924 1_555
O25 P7 1.534209 1_555
O25 V0 2.064752 1_555
O26 P6 1.531494 1_545
O27 P1 1.516823 1_555
