# generated using pymatgen
data_RbLi2Ni2(BO3)3
_symmetry_space_group_name_H-M   'P 1'
_cell_length_a   5.00429500
_cell_length_b   6.37065600
_cell_length_c   12.90653423
_cell_angle_alpha   88.34572378
_cell_angle_beta   90.00000000
_cell_angle_gamma   90.00000000
_symmetry_Int_Tables_number   1
_chemical_formula_structural   RbLi2Ni2(BO3)3
_chemical_formula_sum   'Rb2 Li4 Ni4 B6 O18'
_cell_volume   411.29710352
_cell_formula_units_Z   2
loop_
 _symmetry_equiv_pos_site_id
 _symmetry_equiv_pos_as_xyz
  1  'x, y, z'
loop_
 _atom_site_type_symbol
 _atom_site_label
 _atom_site_symmetry_multiplicity
 _atom_site_fract_x
 _atom_site_fract_y
 _atom_site_fract_z
 _atom_site_occupancy
  Rb  Rb0  1  0.79048900  0.00000000  0.75000000  1
  Rb  Rb1  1  0.20951100  0.00000000  0.25000000  1
  Li  Li0  1  0.82685400  0.50390800  0.86749000  1
  Li  Li1  1  0.82685400  0.49609200  0.63251000  1
  Li  Li2  1  0.17314600  0.50390800  0.36749000  1
  Li  Li3  1  0.17314600  0.49609200  0.13251000  1
  Ni  Ni0  1  0.31558400  0.76828000  0.56560500  1
  Ni  Ni1  1  0.68441600  0.76828000  0.06560500  1
  Ni  Ni2  1  0.31558400  0.23172000  0.93439500  1
  Ni  Ni3  1  0.68441600  0.23172000  0.43439500  1
  B  B0  1  0.18277800  0.80663100  0.95889400  1
  B  B1  1  0.81722200  0.80663100  0.45889400  1
  B  B2  1  0.33527800  0.50000000  0.75000000  1
  B  B3  1  0.66472200  0.50000000  0.25000000  1
  B  B4  1  0.18277800  0.19336900  0.54110600  1
  B  B5  1  0.81722200  0.19336900  0.04110600  1
  O  O0  1  0.29648100  0.95709100  0.89330500  1
  O  O1  1  0.70351900  0.95709100  0.39330500  1
  O  O2  1  0.91337400  0.75871800  0.94982000  1
  O  O3  1  0.08662600  0.75871800  0.44982000  1
  O  O4  1  0.66800900  0.70014800  0.53346400  1
  O  O5  1  0.33199100  0.70014800  0.03346400  1
  O  O6  1  0.18046100  0.59663600  0.67120400  1
  O  O7  1  0.81953900  0.59663600  0.17120400  1
  O  O8  1  0.60244200  0.50000000  0.75000000  1
  O  O9  1  0.39755800  0.50000000  0.25000000  1
  O  O10  1  0.18046100  0.40336400  0.82879600  1
  O  O11  1  0.81953900  0.40336400  0.32879600  1
  O  O12  1  0.66800900  0.29985200  0.96653600  1
  O  O13  1  0.33199100  0.29985200  0.46653600  1
  O  O14  1  0.91337400  0.24128200  0.55018000  1
  O  O15  1  0.08662600  0.24128200  0.05018000  1
  O  O16  1  0.29648100  0.04290900  0.60669500  1
  O  O17  1  0.70351900  0.04290900  0.10669500  1
loop_
_geom_bond_atom_site_label_1
_geom_bond_atom_site_label_2
_geom_bond_distance
_geom_bond_site_symmetry_2
Li0 O8 1.887701 1_555
Li0 O10 1.951788 1_655
Li0 O12 1.964690 1_555
Li0 O2 2.012782 1_555
Li1 O8 1.887701 1_555
Li1 O6 1.951788 1_655
Li1 O4 1.964690 1_555
Li1 O14 2.012782 1_555
Li2 O9 1.887701 1_555
Li2 O11 1.951788 1_455
Li2 O13 1.964690 1_555
Li2 O3 2.012782 1_555
Li3 O9 1.887701 1_555
Li3 O7 1.951788 1_455
Li3 O5 1.964690 1_555
Li3 O15 2.012782 1_555
Ni0 O16 1.845249 1_565
Ni0 O6 1.850526 1_555
Ni0 O4 1.865823 1_555
Ni0 O3 1.885456 1_555
Ni1 O17 1.845249 1_565
Ni1 O7 1.850526 1_555
Ni1 O5 1.865823 1_555
Ni1 O2 1.885456 1_554
Ni2 O0 1.845249 1_545
Ni2 O10 1.850526 1_555
Ni2 O12 1.865823 1_555
Ni2 O15 1.885456 1_556
Ni3 O1 1.845249 1_545
Ni3 O11 1.850526 1_555
Ni3 O13 1.865823 1_555
Ni3 O14 1.885456 1_555
B0 O5 1.380705 1_556
B0 O0 1.382860 1_555
B0 O2 1.387995 1_455
B1 O4 1.380705 1_555
B1 O1 1.382860 1_555
B1 O3 1.387995 1_655
B2 O8 1.336967 1_555
B2 O10 1.406183 1_555
B2 O6 1.406183 1_555
B3 O9 1.336967 1_555
B3 O11 1.406183 1_555
B3 O7 1.406183 1_555
B4 O13 1.380705 1_555
B4 O16 1.382860 1_555
B4 O14 1.387995 1_455
B5 O12 1.380705 1_554
B5 O17 1.382860 1_555
B5 O15 1.387995 1_655
O0 Rb0 3.094839 1_565
O0 Rb0 3.142952 1_465
O1 Rb1 3.094839 1_565
O1 Rb1 3.142952 1_665
O2 Rb0 3.027077 1_565
O3 Rb1 3.027077 1_565
O4 Rb0 3.484752 1_565
O5 Rb1 3.484752 1_565
O6 Rb0 3.405430 1_465
O7 Rb1 3.405430 1_665
O8 Rb0 3.321427 1_555
O8 Rb0 3.321427 1_565
O9 Rb1 3.321427 1_555
O9 Rb1 3.321427 1_565
O10 Rb0 3.405430 1_455
O11 Rb1 3.405430 1_655
O12 Rb0 3.484752 1_555
O13 Rb1 3.484752 1_555
O14 Rb0 3.027077 1_555
O15 Rb1 3.027077 1_555
O16 Rb0 3.094839 1_555
O16 Rb0 3.142952 1_455
O17 Rb1 3.094839 1_555
O17 Rb1 3.142952 1_655
