# generated using pymatgen
data_Gd2Zr2O7
_symmetry_space_group_name_H-M   'P 1'
_cell_length_a   7.47600915
_cell_length_b   7.47600723
_cell_length_c   7.47608013
_cell_angle_alpha   60.00005572
_cell_angle_beta   60.00007040
_cell_angle_gamma   60.00087309
_symmetry_Int_Tables_number   1
_chemical_formula_structural   Gd2Zr2O7
_chemical_formula_sum   'Gd4 Zr4 O14'
_cell_volume   295.46209040
_cell_formula_units_Z   2
loop_
 _symmetry_equiv_pos_site_id
 _symmetry_equiv_pos_as_xyz
  1  'x, y, z'
loop_
 _atom_site_type_symbol
 _atom_site_label
 _atom_site_symmetry_multiplicity
 _atom_site_fract_x
 _atom_site_fract_y
 _atom_site_fract_z
 _atom_site_occupancy
  Gd  Gd0  1  0.12499978  0.12499925  0.12499960  1
  Gd  Gd1  1  0.62500080  0.12500000  0.12499908  1
  Gd  Gd2  1  0.12499936  0.12499978  0.62500111  1
  Gd  Gd3  1  0.12500019  0.62500111  0.12499963  1
  Zr  Zr0  1  0.62499906  0.62500035  0.12500059  1
  Zr  Zr1  1  0.62499979  0.62500004  0.62499988  1
  Zr  Zr2  1  0.62499950  0.12500002  0.62500070  1
  Zr  Zr3  1  0.12500065  0.62499985  0.62499923  1
  O  O0  1  0.71298626  0.71298605  0.28701388  1
  O  O1  1  0.96297657  0.53702340  0.53702351  1
  O  O2  1  0.24999938  0.24999978  0.24999899  1
  O  O3  1  0.96297627  0.53702383  0.96297653  1
  O  O4  1  0.96298575  0.96298628  0.53701459  1
  O  O5  1  0.53702372  0.96297618  0.53702319  1
  O  O6  1  0.71297574  0.28702387  0.28702320  1
  O  O7  1  0.53702453  0.96297601  0.96297650  1
  O  O8  1  0.28701429  0.28701376  0.71298562  1
  O  O9  1  0.71297608  0.28702382  0.71297681  1
  O  O10  1  0.28702427  0.71297585  0.28702350  1
  O  O11  1  0.00000075  0.00000044  0.00000078  1
  O  O12  1  0.28702336  0.71297642  0.71297700  1
  O  O13  1  0.53701391  0.53701391  0.96298608  1
loop_
_geom_bond_atom_site_label_1
_geom_bond_atom_site_label_2
_geom_bond_distance
_geom_bond_site_symmetry_2
Gd0 O11 2.289032 1_555
Gd0 O2 2.289049 1_555
Gd0 O8 2.535223 1_554
Gd0 O4 2.535227 1_445
Gd0 O10 2.535295 1_545
Gd0 O6 2.535299 1_455
Gd0 O3 2.535300 1_454
Gd0 O7 2.535302 1_544
Gd1 O11 2.289067 1_655
Gd1 O2 2.289076 1_555
Gd1 O13 2.535215 1_554
Gd1 O0 2.535217 1_545
Gd1 O7 2.535274 1_544
Gd1 O6 2.535276 1_555
Gd1 O9 2.535290 1_554
Gd1 O5 2.535300 1_545
Gd2 O11 2.289068 1_556
Gd2 O2 2.289083 1_555
Gd2 O4 2.535199 1_445
Gd2 O8 2.535199 1_555
Gd2 O12 2.535292 1_545
Gd2 O1 2.535292 1_455
Gd2 O9 2.535292 1_455
Gd2 O5 2.535297 1_545
Gd3 O11 2.289062 1_565
Gd3 O2 2.289074 1_555
Gd3 O13 2.535215 1_554
Gd3 O0 2.535218 1_455
Gd3 O10 2.535275 1_555
Gd3 O3 2.535283 1_454
Gd3 O12 2.535292 1_554
Gd3 O1 2.535298 1_455
O0 Zr0 2.087716 1_555
O0 Zr1 2.087729 1_555
O1 Zr3 2.087663 1_655
O1 Zr1 2.087677 1_555
O3 Zr0 2.087682 1_556
O3 Zr3 2.087685 1_655
O4 Zr2 2.087730 1_565
O4 Zr3 2.087732 1_655
O5 Zr2 2.087667 1_565
O5 Zr1 2.087672 1_555
O6 Zr0 2.087676 1_555
O6 Zr2 2.087686 1_555
O7 Zr0 2.087673 1_556
O7 Zr2 2.087676 1_565
O8 Zr2 2.087724 1_555
O8 Zr3 2.087728 1_555
O9 Zr2 2.087664 1_555
O9 Zr1 2.087672 1_555
O10 Zr0 2.087667 1_555
O10 Zr3 2.087676 1_555
O12 Zr3 2.087666 1_555
O12 Zr1 2.087674 1_555
O13 Zr0 2.087717 1_556
O13 Zr1 2.087731 1_555
