# generated using pymatgen
data_Li2AlCoO4
_symmetry_space_group_name_H-M   'P 1'
_cell_length_a   5.01138700
_cell_length_b   6.31050400
_cell_length_c   10.87501200
_cell_angle_alpha   90.00000000
_cell_angle_beta   90.00000000
_cell_angle_gamma   90.00000000
_symmetry_Int_Tables_number   1
_chemical_formula_structural   Li2AlCoO4
_chemical_formula_sum   'Li8 Al4 Co4 O16'
_cell_volume   343.91548708
_cell_formula_units_Z   4
loop_
 _symmetry_equiv_pos_site_id
 _symmetry_equiv_pos_as_xyz
  1  'x, y, z'
loop_
 _atom_site_type_symbol
 _atom_site_label
 _atom_site_symmetry_multiplicity
 _atom_site_fract_x
 _atom_site_fract_y
 _atom_site_fract_z
 _atom_site_occupancy
  Li  Li0  1  0.75773100  0.00403400  0.16440000  1
  Li  Li1  1  0.75573500  0.24630900  0.91770800  1
  Li  Li2  1  0.75573500  0.25369100  0.41770800  1
  Li  Li3  1  0.75773100  0.49596600  0.66440000  1
  Li  Li4  1  0.25773100  0.50403400  0.33560000  1
  Li  Li5  1  0.25573500  0.74630900  0.58229200  1
  Li  Li6  1  0.25573500  0.75369100  0.08229200  1
  Li  Li7  1  0.25773100  0.99596600  0.83560000  1
  Al  Al0  1  0.26093800  0.24233600  0.58719200  1
  Al  Al1  1  0.26093800  0.25766400  0.08719200  1
  Al  Al2  1  0.76093800  0.74233600  0.91280800  1
  Al  Al3  1  0.76093800  0.75766400  0.41280800  1
  Co  Co0  1  0.25906600  0.01053300  0.33277500  1
  Co  Co1  1  0.25906600  0.48946700  0.83277500  1
  Co  Co2  1  0.75906600  0.51053300  0.16722500  1
  Co  Co3  1  0.75906600  0.98946700  0.66722500  1
  O  O0  1  0.13441500  0.01346400  0.66344400  1
  O  O1  1  0.16067000  0.02324600  0.16656300  1
  O  O2  1  0.15822500  0.25716000  0.93035300  1
  O  O3  1  0.61634200  0.23121300  0.59110300  1
  O  O4  1  0.61634200  0.26878700  0.09110300  1
  O  O5  1  0.15822500  0.24284000  0.43035300  1
  O  O6  1  0.16067000  0.47675400  0.66656300  1
  O  O7  1  0.13441500  0.48653600  0.16344400  1
  O  O8  1  0.63441500  0.51346400  0.83655600  1
  O  O9  1  0.66067000  0.52324600  0.33343700  1
  O  O10  1  0.65822500  0.75716000  0.56964700  1
  O  O11  1  0.11634200  0.73121300  0.90889700  1
  O  O12  1  0.11634200  0.76878700  0.40889700  1
  O  O13  1  0.65822500  0.74284000  0.06964700  1
  O  O14  1  0.66067000  0.97675400  0.83343700  1
  O  O15  1  0.63441500  0.98653600  0.33655600  1
loop_
_geom_bond_atom_site_label_1
_geom_bond_atom_site_label_2
_geom_bond_distance
_geom_bond_site_symmetry_2
Li0 O15 1.974645 1_545
Li0 O4 1.982107 1_555
Li0 O13 2.006801 1_545
Li0 O1 2.023056 1_655
Li1 O14 1.990060 1_545
Li1 O8 1.997673 1_555
Li1 O4 2.015901 1_556
Li1 O2 2.022875 1_655
Li2 O9 1.990060 1_555
Li2 O15 1.997673 1_545
Li2 O3 2.015901 1_555
Li2 O5 2.022875 1_655
Li3 O8 1.974645 1_555
Li3 O3 1.982107 1_555
Li3 O10 2.006801 1_555
Li3 O6 2.023056 1_655
Li4 O7 1.974645 1_555
Li4 O12 1.982107 1_555
Li4 O5 2.006801 1_555
Li4 O9 2.023056 1_555
Li5 O6 1.990060 1_555
Li5 O0 1.997673 1_565
Li5 O12 2.015901 1_555
Li5 O10 2.022875 1_555
Li6 O1 1.990060 1_565
Li6 O7 1.997673 1_555
Li6 O11 2.015901 1_554
Li6 O13 2.022875 1_555
Li7 O0 1.974645 1_565
Li7 O11 1.982107 1_555
Li7 O2 2.006801 1_565
Li7 O14 2.023056 1_555
Al0 O5 1.781607 1_555
Al0 O0 1.782039 1_555
Al0 O3 1.782957 1_555
Al0 O6 1.784895 1_555
Al1 O2 1.781607 1_554
Al1 O7 1.782039 1_555
Al1 O4 1.782957 1_555
Al1 O1 1.784895 1_555
Al2 O13 1.781607 1_556
Al2 O8 1.782039 1_555
Al2 O11 1.782957 1_655
Al2 O14 1.784895 1_555
Al3 O10 1.781607 1_555
Al3 O15 1.782039 1_555
Al3 O12 1.782957 1_655
Al3 O9 1.784895 1_555
Co0 O1 1.875326 1_555
Co0 O12 1.877270 1_545
Co0 O5 1.878970 1_555
Co0 O15 1.887553 1_545
Co1 O6 1.875326 1_555
Co1 O11 1.877270 1_555
Co1 O2 1.878970 1_555
Co1 O8 1.887553 1_555
Co2 O9 1.875326 1_555
Co2 O4 1.877270 1_555
Co2 O13 1.878970 1_555
Co2 O7 1.887553 1_655
Co3 O14 1.875326 1_555
Co3 O3 1.877270 1_565
Co3 O10 1.878970 1_555
Co3 O0 1.887553 1_665
