# generated using pymatgen
data_Gd2W4O15
_symmetry_space_group_name_H-M   'P 1'
_cell_length_a   9.88335700
_cell_length_b   6.91817300
_cell_length_c   10.87753410
_cell_angle_alpha   74.31078169
_cell_angle_beta   90.00000000
_cell_angle_gamma   90.00000000
_symmetry_Int_Tables_number   1
_chemical_formula_structural   Gd2W4O15
_chemical_formula_sum   'Gd4 W8 O30'
_cell_volume   716.03881627
_cell_formula_units_Z   2
loop_
 _symmetry_equiv_pos_site_id
 _symmetry_equiv_pos_as_xyz
  1  'x, y, z'
loop_
 _atom_site_type_symbol
 _atom_site_label
 _atom_site_symmetry_multiplicity
 _atom_site_fract_x
 _atom_site_fract_y
 _atom_site_fract_z
 _atom_site_occupancy
  Gd  Gd0  1  0.52377300  0.78739700  0.77789100  1
  Gd  Gd1  1  0.97622700  0.78739700  0.27789100  1
  Gd  Gd2  1  0.02377300  0.21260300  0.72210900  1
  Gd  Gd3  1  0.47622700  0.21260300  0.22210900  1
  W  W0  1  0.24380500  0.91665200  0.51164400  1
  W  W1  1  0.90398500  0.61549400  0.84479300  1
  W  W2  1  0.25619500  0.91665200  0.01164400  1
  W  W3  1  0.59601500  0.61549400  0.34479300  1
  W  W4  1  0.40398500  0.38450600  0.65520700  1
  W  W5  1  0.74380500  0.08334800  0.98835600  1
  W  W6  1  0.09601500  0.38450600  0.15520700  1
  W  W7  1  0.75619500  0.08334800  0.48835600  1
  O  O0  1  0.62620100  0.97852800  0.89713900  1
  O  O1  1  0.94293300  0.87797200  0.81792000  1
  O  O2  1  0.34697200  0.77746400  0.91933800  1
  O  O3  1  0.87379900  0.97852800  0.39713900  1
  O  O4  1  0.66729100  0.88212400  0.59989400  1
  O  O5  1  0.36513700  0.74805400  0.61745600  1
  O  O6  1  0.55706700  0.87797200  0.31792000  1
  O  O7  1  0.72237900  0.61196300  0.85271200  1
  O  O8  1  0.15302800  0.77746400  0.41933800  1
  O  O9  1  0.83270900  0.88212400  0.09989400  1
  O  O10  1  0.97176800  0.55643100  0.70545300  1
  O  O11  1  0.13486300  0.74805400  0.11745600  1
  O  O12  1  0.47176800  0.44356900  0.79454700  1
  O  O13  1  0.77762100  0.61196300  0.35271200  1
  O  O14  1  0.50000000  0.50000000  0.50000000  1
  O  O15  1  0.22237900  0.38803700  0.64728800  1
  O  O16  1  0.52823200  0.55643100  0.20545300  1
  O  O17  1  0.86513700  0.25194600  0.88254400  1
  O  O18  1  0.02823200  0.44356900  0.29454700  1
  O  O19  1  0.00000000  0.50000000  0.00000000  1
  O  O20  1  0.16729100  0.11787600  0.90010600  1
  O  O21  1  0.84697200  0.22253600  0.58066200  1
  O  O22  1  0.27762100  0.38803700  0.14728800  1
  O  O23  1  0.44293300  0.12202800  0.68208000  1
  O  O24  1  0.63486300  0.25194600  0.38254400  1
  O  O25  1  0.33270900  0.11787600  0.40010600  1
  O  O26  1  0.12620100  0.02147200  0.60286100  1
  O  O27  1  0.65302800  0.22253600  0.08066200  1
  O  O28  1  0.05706700  0.12202800  0.18208000  1
  O  O29  1  0.37379900  0.02147200  0.10286100  1
loop_
_geom_bond_atom_site_label_1
_geom_bond_atom_site_label_2
_geom_bond_distance
_geom_bond_site_symmetry_2
Gd0 O2 2.316932 1_555
Gd0 O0 2.320213 1_555
Gd0 O7 2.335408 1_555
Gd0 O4 2.346049 1_555
Gd0 O12 2.392061 1_555
Gd0 O23 2.403958 1_565
Gd0 O5 2.415503 1_555
Gd1 O8 2.316932 1_655
Gd1 O3 2.320213 1_555
Gd1 O13 2.335408 1_555
Gd1 O9 2.346049 1_555
Gd1 O18 2.392061 1_655
Gd1 O28 2.403958 1_665
Gd1 O11 2.415503 1_655
Gd2 O21 2.316932 1_455
Gd2 O26 2.320213 1_555
Gd2 O15 2.335408 1_555
Gd2 O20 2.346049 1_555
Gd2 O10 2.392061 1_455
Gd2 O1 2.403958 1_445
Gd2 O17 2.415503 1_455
Gd3 O27 2.316932 1_555
Gd3 O29 2.320213 1_555
Gd3 O22 2.335408 1_555
Gd3 O25 2.346049 1_555
Gd3 O16 2.392061 1_555
Gd3 O6 2.403958 1_545
Gd3 O24 2.415503 1_555
O0 W5 1.802912 1_565
O1 W1 1.801089 1_555
O2 W2 1.806434 1_556
O3 W7 1.802912 1_565
O4 W7 1.807911 1_565
O5 W0 1.843134 1_555
O5 W4 2.466401 1_555
O6 W3 1.801089 1_555
O7 W1 1.796792 1_555
O8 W0 1.806434 1_555
O9 W5 1.807911 1_564
O10 W1 1.802216 1_555
O11 W2 1.843134 1_555
O11 W6 2.466401 1_555
O12 W4 1.802216 1_555
O13 W3 1.796792 1_555
O14 W4 1.913012 1_555
O14 W3 1.913012 1_555
O15 W4 1.796792 1_555
O16 W3 1.802216 1_555
O17 W5 1.843134 1_555
O17 W1 2.466401 1_555
O18 W6 1.802216 1_555
O19 W6 1.913012 1_555
O19 W1 1.913012 1_454
O20 W2 1.807911 1_546
O21 W7 1.806434 1_555
O22 W6 1.796792 1_555
O23 W4 1.801089 1_555
O24 W7 1.843134 1_555
O24 W3 2.466401 1_555
O25 W0 1.807911 1_545
O26 W0 1.802912 1_545
O27 W5 1.806434 1_554
O28 W6 1.801089 1_555
O29 W2 1.802912 1_545
