# generated using pymatgen
data_Li4MnF7
_symmetry_space_group_name_H-M   'P 1'
_cell_length_a   5.98109665
_cell_length_b   5.98109665
_cell_length_c   5.98109665
_cell_angle_alpha   60.00000000
_cell_angle_beta   60.00000000
_cell_angle_gamma   60.00000000
_symmetry_Int_Tables_number   1
_chemical_formula_structural   Li4MnF7
_chemical_formula_sum   'Li4 Mn1 F7'
_cell_volume   151.29600590
_cell_formula_units_Z   1
loop_
 _symmetry_equiv_pos_site_id
 _symmetry_equiv_pos_as_xyz
  1  'x, y, z'
loop_
 _atom_site_type_symbol
 _atom_site_label
 _atom_site_symmetry_multiplicity
 _atom_site_fract_x
 _atom_site_fract_y
 _atom_site_fract_z
 _atom_site_occupancy
  Li  Li0  1  0.87930900  0.37356400  0.37356400  1
  Li  Li1  1  0.37356400  0.87930900  0.37356400  1
  Li  Li2  1  0.37356400  0.37356400  0.37356400  1
  Li  Li3  1  0.37356400  0.37356400  0.87930900  1
  Mn  Mn0  1  0.00000000  0.00000000  0.00000000  1
  F  F0  1  0.25000000  0.25000000  0.25000000  1
  F  F1  1  0.76395700  0.76395700  0.23604300  1
  F  F2  1  0.23604300  0.76395700  0.76395700  1
  F  F3  1  0.76395700  0.23604300  0.76395700  1
  F  F4  1  0.76395700  0.23604300  0.23604300  1
  F  F5  1  0.23604300  0.76395700  0.23604300  1
  F  F6  1  0.23604300  0.23604300  0.76395700  1
loop_
_geom_bond_atom_site_label_1
_geom_bond_atom_site_label_2
_geom_bond_distance
_geom_bond_site_symmetry_2
F0 Li3 1.810286 1_554
F0 Li0 1.810286 1_455
F0 Li1 1.810286 1_545
F0 Li2 1.810291 1_555
F1 Li1 1.908038 1_555
F1 Li0 1.908038 1_555
F1 Mn0 1.996581 1_665
F2 Li1 1.908038 1_555
F2 Li3 1.908038 1_555
F2 Mn0 1.996581 1_566
F3 Li3 1.908038 1_555
F3 Li0 1.908038 1_555
F3 Mn0 1.996581 1_656
F4 Li2 1.908038 1_555
F4 Li0 1.908043 1_555
F4 Mn0 1.996581 1_655
F5 Li2 1.908038 1_555
F5 Li1 1.908043 1_555
F5 Mn0 1.996581 1_565
F6 Li2 1.908038 1_555
F6 Li3 1.908043 1_555
F6 Mn0 1.996581 1_556
