# generated using pymatgen
data_Co2O3F
_symmetry_space_group_name_H-M   'P 1'
_cell_length_a   4.54109306
_cell_length_b   4.54109306
_cell_length_c   14.65514400
_cell_angle_alpha   90.00000000
_cell_angle_beta   90.00000000
_cell_angle_gamma   94.84965566
_symmetry_Int_Tables_number   1
_chemical_formula_structural   Co2O3F
_chemical_formula_sum   'Co10 O15 F5'
_cell_volume   301.12950768
_cell_formula_units_Z   5
loop_
 _symmetry_equiv_pos_site_id
 _symmetry_equiv_pos_as_xyz
  1  'x, y, z'
loop_
 _atom_site_type_symbol
 _atom_site_label
 _atom_site_symmetry_multiplicity
 _atom_site_fract_x
 _atom_site_fract_y
 _atom_site_fract_z
 _atom_site_occupancy
  Co  Co0  1  0.99578200  0.00421800  0.60002200  1
  Co  Co1  1  0.99578200  0.00421800  0.39997800  1
  Co  Co2  1  0.98596500  0.01403500  0.20010600  1
  Co  Co3  1  0.98591500  0.01408500  0.00000000  1
  Co  Co4  1  0.98596500  0.01403500  0.79989400  1
  Co  Co5  1  0.45838300  0.54161700  0.50000000  1
  Co  Co6  1  0.52412800  0.47587200  0.09866300  1
  Co  Co7  1  0.52705300  0.47294700  0.30148900  1
  Co  Co8  1  0.52705300  0.47294700  0.69851100  1
  Co  Co9  1  0.52412800  0.47587200  0.90133700  1
  O  O0  1  0.80913800  0.19086200  0.09402800  1
  O  O1  1  0.81273200  0.18726800  0.30266100  1
  O  O2  1  0.80913800  0.19086200  0.90597200  1
  O  O3  1  0.81273200  0.18726800  0.69733900  1
  O  O4  1  0.30303700  0.31165300  0.60072200  1
  O  O5  1  0.30303700  0.31165300  0.39927800  1
  O  O6  1  0.30361700  0.30540700  0.00000000  1
  O  O7  1  0.31243800  0.30208700  0.80056200  1
  O  O8  1  0.31243800  0.30208700  0.19943800  1
  O  O9  1  0.68834700  0.69696300  0.60072200  1
  O  O10  1  0.68834700  0.69696300  0.39927800  1
  O  O11  1  0.69791300  0.68756200  0.19943800  1
  O  O12  1  0.69459300  0.69638300  0.00000000  1
  O  O13  1  0.69791300  0.68756200  0.80056200  1
  O  O14  1  0.17647300  0.82352700  0.50000000  1
  F  F0  1  0.78724000  0.21276000  0.50000000  1
  F  F1  1  0.18797800  0.81202200  0.09505400  1
  F  F2  1  0.20237800  0.79762200  0.29683900  1
  F  F3  1  0.20237800  0.79762200  0.70316100  1
  F  F4  1  0.18797800  0.81202200  0.90494600  1
loop_
_geom_bond_atom_site_label_1
_geom_bond_atom_site_label_2
_geom_bond_distance
_geom_bond_site_symmetry_2
Co0 O3 1.879576 1_555
Co0 O9 1.888545 1_545
Co0 O4 1.888545 1_655
Co0 O14 1.899756 1_645
Co0 F0 2.023355 1_555
Co0 F3 2.047886 1_645
Co1 O1 1.879576 1_555
Co1 O10 1.888545 1_545
Co1 O5 1.888545 1_655
Co1 O14 1.899756 1_645
Co1 F0 2.023355 1_555
Co1 F2 2.047886 1_645
Co2 O8 1.892402 1_655
Co2 O11 1.892402 1_545
Co2 O1 1.897685 1_555
Co2 O0 1.953291 1_555
Co2 F2 2.025980 1_645
Co2 F1 2.048319 1_645
Co3 O0 1.815676 1_555
Co3 O2 1.815676 1_554
Co3 O6 1.873188 1_655
Co3 O12 1.873188 1_545
Co3 F4 1.940831 1_644
Co3 F1 1.940831 1_645
Co4 O7 1.892402 1_655
Co4 O13 1.892402 1_545
Co4 O3 1.897685 1_555
Co4 O2 1.953291 1_555
Co4 F3 2.025980 1_645
Co4 F4 2.048319 1_645
Co5 O14 1.885424 1_555
Co5 O9 1.908528 1_555
Co5 O4 1.908528 1_555
Co5 O10 1.908528 1_555
Co5 O5 1.908528 1_555
Co5 F0 2.199407 1_555
Co6 O12 1.887213 1_555
Co6 O6 1.887213 1_555
Co6 O11 1.897309 1_555
Co6 O8 1.897309 1_555
Co6 O0 1.907366 1_555
Co6 F1 2.248805 1_555
Co7 O5 1.870605 1_555
Co7 O10 1.870605 1_555
Co7 O1 1.910708 1_555
Co7 O11 1.913297 1_555
Co7 O8 1.913297 1_555
Co7 F2 2.172506 1_555
Co8 O9 1.870605 1_555
Co8 O4 1.870605 1_555
Co8 O3 1.910708 1_555
Co8 O13 1.913297 1_555
Co8 O7 1.913297 1_555
Co8 F3 2.172506 1_555
Co9 O12 1.887213 1_556
Co9 O6 1.887213 1_556
Co9 O13 1.897309 1_555
Co9 O7 1.897309 1_555
Co9 O2 1.907366 1_555
Co9 F4 2.248805 1_555
