# generated using pymatgen
data_Mn3Mo2H34C22N16O5
_symmetry_space_group_name_H-M   'P 1'
_cell_length_a   14.57980738
_cell_length_b   14.57980738
_cell_length_c   13.66970215
_cell_angle_alpha   66.45112444
_cell_angle_beta   113.54887556
_cell_angle_gamma   128.69119629
_symmetry_Int_Tables_number   1
_chemical_formula_structural   Mn3Mo2H34C22N16O5
_chemical_formula_sum   'Mn6 Mo4 H68 C44 N32 O10'
_cell_volume   2033.09438655
_cell_formula_units_Z   2
loop_
 _symmetry_equiv_pos_site_id
 _symmetry_equiv_pos_as_xyz
  1  'x, y, z'
loop_
 _atom_site_type_symbol
 _atom_site_label
 _atom_site_symmetry_multiplicity
 _atom_site_fract_x
 _atom_site_fract_y
 _atom_site_fract_z
 _atom_site_occupancy
  Mn  Mn0  1  0.06720102  0.06720102  0.25000000  1
  Mn  Mn1  1  0.93279898  0.93279898  0.75000000  1
  Mn  Mn2  1  0.30402198  0.72877009  0.53957388  1
  Mn  Mn3  1  0.72877009  0.30402198  0.96042612  1
  Mn  Mn4  1  0.69597802  0.27122991  0.46042612  1
  Mn  Mn5  1  0.27122991  0.69597802  0.03957388  1
  Mo  Mo0  1  0.05312985  0.33851752  0.82628895  1
  Mo  Mo1  1  0.33851752  0.05312985  0.67371105  1
  Mo  Mo2  1  0.94687015  0.66148248  0.17371105  1
  Mo  Mo3  1  0.66148248  0.94687015  0.32628895  1
  H  H0  1  0.25569781  0.32021588  0.23157765  1
  H  H1  1  0.32021588  0.25569781  0.26842235  1
  H  H2  1  0.74430219  0.67978412  0.76842235  1
  H  H3  1  0.67978412  0.74430219  0.73157765  1
  H  H4  1  0.46167497  0.64984372  0.64211778  1
  H  H5  1  0.64984372  0.46167497  0.85788222  1
  H  H6  1  0.53832503  0.35015628  0.35788222  1
  H  H7  1  0.35015628  0.53832503  0.14211778  1
  H  H8  1  0.37655468  0.58891651  0.72198585  1
  H  H9  1  0.58891651  0.37655468  0.77801415  1
  H  H10  1  0.62344532  0.41108349  0.27801415  1
  H  H11  1  0.41108349  0.62344532  0.22198585  1
  H  H12  1  0.62809803  0.54576633  0.96672860  1
  H  H13  1  0.54576633  0.62809803  0.53327140  1
  H  H14  1  0.37190197  0.45423367  0.03327140  1
  H  H15  1  0.45423367  0.37190197  0.46672860  1
  H  H16  1  0.51171350  0.49243108  0.87727839  1
  H  H17  1  0.49243108  0.51171350  0.62272161  1
  H  H18  1  0.48828650  0.50756892  0.12272161  1
  H  H19  1  0.50756892  0.48828650  0.37727839  1
  H  H20  1  0.53289759  0.17015735  0.11012559  1
  H  H21  1  0.17015735  0.53289759  0.38987441  1
  H  H22  1  0.46710241  0.82984265  0.88987441  1
  H  H23  1  0.82984265  0.46710241  0.61012559  1
  H  H24  1  0.47741019  0.25760929  0.00709130  1
  H  H25  1  0.25760929  0.47741019  0.49290870  1
  H  H26  1  0.52258981  0.74239071  0.99290870  1
  H  H27  1  0.74239071  0.52258981  0.50709130  1
  H  H28  1  0.49881573  0.24771479  0.14867399  1
  H  H29  1  0.24771479  0.49881573  0.35132601  1
  H  H30  1  0.50118427  0.75228521  0.85132601  1
  H  H31  1  0.75228521  0.50118427  0.64867399  1
  H  H32  1  0.37758010  0.00286721  0.02402080  1
  H  H33  1  0.00286721  0.37758010  0.47597920  1
  H  H34  1  0.62241990  0.99713279  0.97597920  1
  H  H35  1  0.99713279  0.62241990  0.52402080  1
  H  H36  1  0.22274635  0.93539802  0.01740063  1
  H  H37  1  0.93539802  0.22274635  0.48259937  1
  H  H38  1  0.77725365  0.06460198  0.98259937  1
  H  H39  1  0.06460198  0.77725365  0.51740063  1
  H  H40  1  0.30197405  0.07285532  0.92528699  1
  H  H41  1  0.07285532  0.30197405  0.57471301  1
  H  H42  1  0.69802595  0.92714468  0.07471301  1
  H  H43  1  0.92714468  0.69802595  0.42528699  1
  H  H44  1  0.29012325  0.18609422  0.10890883  1
  H  H45  1  0.18609422  0.29012325  0.39109117  1
  H  H46  1  0.70987675  0.81390578  0.89109117  1
  H  H47  1  0.81390578  0.70987675  0.60890883  1
  H  H48  1  0.25926745  0.17818322  0.97168791  1
  H  H49  1  0.17818322  0.25926745  0.52831209  1
  H  H50  1  0.74073255  0.82181678  0.02831209  1
  H  H51  1  0.82181678  0.74073255  0.47168791  1
  H  H52  1  0.17017719  0.04821764  0.06437056  1
  H  H53  1  0.04821764  0.17017719  0.43562944  1
  H  H54  1  0.82982281  0.95178236  0.93562944  1
  H  H55  1  0.95178236  0.82982281  0.56437056  1
  H  H56  1  0.39653012  0.97929871  0.22250493  1
  H  H57  1  0.97929871  0.39653012  0.27749507  1
  H  H58  1  0.60346988  0.02070129  0.77749507  1
  H  H59  1  0.02070129  0.60346988  0.72250493  1
  H  H60  1  0.36636934  0.06093871  0.26024431  1
  H  H61  1  0.06093871  0.36636934  0.23975569  1
  H  H62  1  0.63363066  0.93906129  0.73975569  1
  H  H63  1  0.93906129  0.63363066  0.76024431  1
  H  H64  1  0.24519604  0.93338831  0.20063817  1
  H  H65  1  0.93338831  0.24519604  0.29936183  1
  H  H66  1  0.75480396  0.06661169  0.79936183  1
  H  H67  1  0.06661169  0.75480396  0.70063817  1
  C  C0  1  0.04767709  0.22424479  0.99220999  1
  C  C1  1  0.22424479  0.04767709  0.50779001  1
  C  C2  1  0.95232291  0.77575521  0.00779001  1
  C  C3  1  0.77575521  0.95232291  0.49220999  1
  C  C4  1  0.11988172  0.48365769  0.68892410  1
  C  C5  1  0.48365769  0.11988172  0.81107590  1
  C  C6  1  0.88011828  0.51634231  0.31107590  1
  C  C7  1  0.51634231  0.88011828  0.18892410  1
  C  C8  1  0.82071762  0.99281086  0.29381630  1
  C  C9  1  0.99281086  0.82071762  0.20618370  1
  C  C10  1  0.17928238  0.00718914  0.70618370  1
  C  C11  1  0.00718914  0.17928238  0.79381630  1
  C  C12  1  0.90511610  0.29367259  0.68957940  1
  C  C13  1  0.29367259  0.90511610  0.81042060  1
  C  C14  1  0.09488390  0.70632741  0.31042060  1
  C  C15  1  0.70632741  0.09488390  0.18957940  1
  C  C16  1  0.92254619  0.33784709  0.86414883  1
  C  C17  1  0.33784709  0.92254619  0.63585117  1
  C  C18  1  0.07745381  0.66215291  0.13585117  1
  C  C19  1  0.66215291  0.07745381  0.36414883  1
  C  C20  1  0.15686975  0.49041666  0.90656519  1
  C  C21  1  0.49041666  0.15686975  0.59343481  1
  C  C22  1  0.84313025  0.50958334  0.09343481  1
  C  C23  1  0.50958334  0.84313025  0.40656519  1
  C  C24  1  0.23914090  0.38619592  0.85157342  1
  C  C25  1  0.38619592  0.23914090  0.64842658  1
  C  C26  1  0.76085910  0.61380408  0.14842658  1
  C  C27  1  0.61380408  0.76085910  0.35157342  1
  C  C28  1  0.47259900  0.19923375  0.08844874  1
  C  C29  1  0.19923375  0.47259900  0.41155126  1
  C  C30  1  0.52740100  0.80076625  0.91155126  1
  C  C31  1  0.80076625  0.52740100  0.58844874  1
  C  C32  1  0.30963718  0.02039062  0.00821319  1
  C  C33  1  0.02039062  0.30963718  0.49178681  1
  C  C34  1  0.69036282  0.97960938  0.99178681  1
  C  C35  1  0.97960938  0.69036282  0.50821319  1
  C  C36  1  0.26035605  0.12815561  0.05627255  1
  C  C37  1  0.12815561  0.26035605  0.44372745  1
  C  C38  1  0.73964395  0.87184439  0.94372745  1
  C  C39  1  0.87184439  0.73964395  0.55627255  1
  C  C40  1  0.33808643  0.01046205  0.20099538  1
  C  C41  1  0.01046205  0.33808643  0.29900462  1
  C  C42  1  0.66191357  0.98953795  0.79900462  1
  C  C43  1  0.98953795  0.66191357  0.70099538  1
  N  N0  1  0.04260478  0.16093571  0.07913900  1
  N  N1  1  0.16093571  0.04260478  0.42086100  1
  N  N2  1  0.95739522  0.83906429  0.92086100  1
  N  N3  1  0.83906429  0.95739522  0.57913900  1
  N  N4  1  0.16578235  0.56448342  0.61847986  1
  N  N5  1  0.56448342  0.16578235  0.88152014  1
  N  N6  1  0.83421765  0.43551658  0.38152014  1
  N  N7  1  0.43551658  0.83421765  0.11847986  1
  N  N8  1  0.91241553  0.02278257  0.28304386  1
  N  N9  1  0.02278257  0.91241553  0.21695614  1
  N  N10  1  0.08758447  0.97721743  0.71695614  1
  N  N11  1  0.97721743  0.08758447  0.78304386  1
  N  N12  1  0.82521127  0.27037408  0.61314184  1
  N  N13  1  0.27037408  0.82521127  0.88685816  1
  N  N14  1  0.17478873  0.72962592  0.38685816  1
  N  N15  1  0.72962592  0.17478873  0.11314184  1
  N  N16  1  0.85542500  0.33752905  0.89139432  1
  N  N17  1  0.33752905  0.85542500  0.60860568  1
  N  N18  1  0.14457500  0.66247095  0.10860568  1
  N  N19  1  0.66247095  0.14457500  0.39139432  1
  N  N20  1  0.20938409  0.56896290  0.95196186  1
  N  N21  1  0.56896290  0.20938409  0.54803814  1
  N  N22  1  0.79061591  0.43103710  0.04803814  1
  N  N23  1  0.43103710  0.79061591  0.45196186  1
  N  N24  1  0.34088274  0.42304801  0.86485288  1
  N  N25  1  0.42304801  0.34088274  0.63514712  1
  N  N26  1  0.65911726  0.57695199  0.13514712  1
  N  N27  1  0.57695199  0.65911726  0.36485288  1
  N  N28  1  0.34564988  0.09018534  0.08856721  1
  N  N29  1  0.09018534  0.34564988  0.41143279  1
  N  N30  1  0.65435012  0.90981466  0.91143279  1
  N  N31  1  0.90981466  0.65435012  0.58856721  1
  O  O0  1  0.24103174  0.24103174  0.25000000  1
  O  O1  1  0.75896826  0.75896826  0.75000000  1
  O  O2  1  0.42474110  0.66599786  0.67531885  1
  O  O3  1  0.66599786  0.42474110  0.82468115  1
  O  O4  1  0.57525890  0.33400214  0.32468115  1
  O  O5  1  0.33400214  0.57525890  0.17531885  1
  O  O6  1  0.59918745  0.52913201  0.89381209  1
  O  O7  1  0.52913201  0.59918745  0.60618791  1
  O  O8  1  0.40081255  0.47086799  0.10618791  1
  O  O9  1  0.47086799  0.40081255  0.39381209  1
loop_
_geom_bond_atom_site_label_1
_geom_bond_atom_site_label_2
_geom_bond_distance
_geom_bond_site_symmetry_2
Mn0 N8 2.114211 1_455
Mn0 N9 2.114211 1_545
Mn0 O0 2.194512 1_555
Mn0 N1 2.200978 1_555
Mn0 N0 2.200978 1_555
Mn1 N11 2.114211 1_565
Mn1 N10 2.114211 1_655
Mn1 O1 2.194512 1_555
Mn1 N2 2.200978 1_555
Mn1 N3 2.200978 1_555
Mn2 N17 2.106000 1_555
Mn2 N23 2.120931 1_555
Mn2 N4 2.144739 1_555
Mn2 N14 2.184920 1_555
Mn2 O2 2.329346 1_555
Mn3 N16 2.106000 1_555
Mn3 N22 2.120931 1_556
Mn3 N5 2.144739 1_555
Mn3 N15 2.184920 1_556
Mn3 O3 2.329346 1_555
Mn4 N19 2.106000 1_555
Mn4 N21 2.120931 1_555
Mn4 N6 2.144739 1_555
Mn4 N12 2.184920 1_555
Mn4 O4 2.329346 1_555
Mn5 N18 2.106000 1_555
Mn5 N20 2.120931 1_554
Mn5 N7 2.144739 1_555
Mn5 N13 2.184920 1_554
Mn5 O5 2.329346 1_555
H0 O0 0.971628 1_555
H1 O0 0.971628 1_555
H2 O1 0.971628 1_555
H3 O1 0.971628 1_555
H4 O2 0.995331 1_555
H5 O3 0.995331 1_555
H6 O4 0.995331 1_555
H7 O5 0.995331 1_555
H8 O2 0.980636 1_555
H9 O3 0.980636 1_555
H10 O4 0.980636 1_555
H11 O5 0.980636 1_555
H12 O6 0.979607 1_555
H13 O7 0.979607 1_555
H14 O8 0.979607 1_555
H15 O9 0.979607 1_555
H16 O6 0.988451 1_555
H17 O7 0.988451 1_555
H18 O8 0.988451 1_555
H19 O9 0.988451 1_555
C0 N0 1.173857 1_556
C0 Mo0 2.210281 1_555
C1 N1 1.173857 1_555
C1 Mo1 2.210281 1_555
C2 N2 1.173857 1_554
C2 Mo2 2.210281 1_555
C3 N3 1.173857 1_555
C3 Mo3 2.210281 1_555
C4 N4 1.177298 1_555
C4 Mo0 2.159018 1_555
C5 N5 1.177298 1_555
C5 Mo1 2.159018 1_555
C6 N6 1.177298 1_555
C6 Mo2 2.159018 1_555
C7 N7 1.177298 1_555
C7 Mo3 2.159018 1_555
C8 N8 1.172826 1_565
C8 Mo3 2.162708 1_555
C9 N9 1.172826 1_655
C9 Mo2 2.162708 1_555
C10 N10 1.172826 1_545
C10 Mo1 2.162708 1_555
C11 N11 1.172826 1_455
C11 Mo0 2.162708 1_555
C12 N12 1.174964 1_555
C12 Mo0 2.136967 1_655
C13 N13 1.174964 1_555
C13 Mo1 2.136967 1_565
C14 N14 1.174964 1_555
C14 Mo2 2.136967 1_455
C15 N15 1.174964 1_555
C15 Mo3 2.136967 1_545
C16 N16 1.174989 1_555
C16 Mo0 2.157021 1_655
C17 N17 1.174989 1_555
C17 Mo1 2.157021 1_565
C18 N18 1.174989 1_555
C18 Mo2 2.157021 1_455
C19 N19 1.174989 1_555
C19 Mo3 2.157021 1_545
C20 N20 1.172493 1_555
C20 Mo0 2.196436 1_555
C21 N21 1.172493 1_555
C21 Mo1 2.196436 1_555
C22 N22 1.172493 1_555
C22 Mo2 2.196436 1_555
C23 N23 1.172493 1_555
C23 Mo3 2.196436 1_555
C24 N24 1.178284 1_555
C24 Mo0 2.245805 1_555
C25 N25 1.178284 1_555
C25 Mo1 2.245805 1_555
C26 N26 1.178284 1_555
C26 Mo2 2.245805 1_555
C27 N27 1.178284 1_555
C27 Mo3 2.245805 1_555
C28 H24 1.094297 1_555
C28 H20 1.094455 1_555
C28 H28 1.095098 1_555
C28 N28 1.508241 1_555
C29 H25 1.094297 1_555
C29 H21 1.094455 1_555
C29 H29 1.095098 1_555
C29 N29 1.508241 1_555
C30 H26 1.094297 1_555
C30 H22 1.094455 1_555
C30 H30 1.095098 1_555
C30 N30 1.508241 1_555
C31 H27 1.094297 1_555
C31 H23 1.094455 1_555
C31 H31 1.095098 1_555
C31 N31 1.508241 1_555
C32 H32 1.092935 1_555
C32 H40 1.093329 1_554
C32 H36 1.093764 1_545
C32 N28 1.510628 1_555
C33 H33 1.092935 1_555
C33 H41 1.093329 1_555
C33 H37 1.093764 1_455
C33 N29 1.510628 1_555
C34 H34 1.092935 1_555
C34 H42 1.093329 1_556
C34 H38 1.093764 1_565
C34 N30 1.510628 1_555
C35 H35 1.092935 1_555
C35 H43 1.093329 1_555
C35 H39 1.093764 1_655
C35 N31 1.510628 1_555
C36 H48 1.093200 1_554
C36 H52 1.093915 1_555
C36 H44 1.094273 1_555
C36 N28 1.508171 1_555
C37 H49 1.093200 1_555
C37 H53 1.093915 1_555
C37 H45 1.094273 1_555
C37 N29 1.508171 1_555
C38 H50 1.093200 1_556
C38 H54 1.093915 1_555
C38 H46 1.094273 1_555
C38 N30 1.508171 1_555
C39 H51 1.093200 1_555
C39 H55 1.093915 1_555
C39 H47 1.094273 1_555
C39 N31 1.508171 1_555
C40 H64 1.092401 1_545
C40 H56 1.093642 1_545
C40 H60 1.094353 1_555
C40 N28 1.507615 1_555
C41 H65 1.092401 1_455
C41 H57 1.093642 1_455
C41 H61 1.094353 1_555
C41 N29 1.507615 1_555
C42 H66 1.092401 1_565
C42 H58 1.093642 1_565
C42 H62 1.094353 1_555
C42 N30 1.507615 1_555
C43 H67 1.092401 1_655
C43 H59 1.093642 1_655
C43 H63 1.094353 1_555
C43 N31 1.507615 1_555
