# generated using pymatgen
data_VPH7N2O5
_symmetry_space_group_name_H-M   'P 1'
_cell_length_a   4.95945300
_cell_length_b   6.90767300
_cell_length_c   8.56210224
_cell_angle_alpha   89.04946141
_cell_angle_beta   90.00000000
_cell_angle_gamma   90.00000000
_symmetry_Int_Tables_number   1
_chemical_formula_structural   VPH7N2O5
_chemical_formula_sum   'V2 P2 H14 N4 O10'
_cell_volume   293.28252788
_cell_formula_units_Z   2
loop_
 _symmetry_equiv_pos_site_id
 _symmetry_equiv_pos_as_xyz
  1  'x, y, z'
loop_
 _atom_site_type_symbol
 _atom_site_label
 _atom_site_symmetry_multiplicity
 _atom_site_fract_x
 _atom_site_fract_y
 _atom_site_fract_z
 _atom_site_occupancy
  V  V0  1  0.33836300  0.63886300  0.66106200  1
  V  V1  1  0.83836300  0.36113700  0.33893800  1
  P  P0  1  0.29266400  0.63405900  0.27646100  1
  P  P1  1  0.79266400  0.36594100  0.72353900  1
  H  H0  1  0.76158200  0.94225300  0.93467800  1
  H  H1  1  0.56534300  0.91536000  0.48132400  1
  H  H2  1  0.72308700  0.90912900  0.65094300  1
  H  H3  1  0.95698400  0.82150900  0.06848800  1
  H  H4  1  0.62076000  0.83005800  0.09357100  1
  H  H5  1  0.80272100  0.75243900  0.51126100  1
  H  H6  1  0.74684800  0.69798400  0.94619900  1
  H  H7  1  0.24684800  0.30201600  0.05380100  1
  H  H8  1  0.30272100  0.24756100  0.48873900  1
  H  H9  1  0.12076000  0.16994200  0.90642900  1
  H  H10  1  0.45698400  0.17849100  0.93151200  1
  H  H11  1  0.22308700  0.09087100  0.34905700  1
  H  H12  1  0.06534300  0.08464000  0.51867600  1
  H  H13  1  0.26158200  0.05774700  0.06532200  1
  N  N0  1  0.64706500  0.82437400  0.56398700  1
  N  N1  1  0.77200700  0.82384900  0.01028300  1
  N  N2  1  0.27200700  0.17615100  0.98971700  1
  N  N3  1  0.14706500  0.17562600  0.43601300  1
  O  O0  1  0.25653500  0.83229200  0.19731000  1
  O  O1  1  0.20053800  0.81857500  0.75376200  1
  O  O2  1  0.17143000  0.62724300  0.44797800  1
  O  O3  1  0.59565500  0.58262800  0.27807900  1
  O  O4  1  0.62262400  0.52594700  0.80596000  1
  O  O5  1  0.12262400  0.47405300  0.19404000  1
  O  O6  1  0.09565500  0.41737200  0.72192100  1
  O  O7  1  0.67143000  0.37275700  0.55202200  1
  O  O8  1  0.70053800  0.18142500  0.24623800  1
  O  O9  1  0.75653500  0.16770800  0.80269000  1
loop_
_geom_bond_atom_site_label_1
_geom_bond_atom_site_label_2
_geom_bond_distance
_geom_bond_site_symmetry_2
H0 N1 1.035909 1_556
H1 N0 1.022476 1_555
H2 N0 1.026496 1_555
H3 N1 1.044006 1_555
H4 N1 1.036363 1_555
H5 N0 1.026691 1_555
H6 N1 1.043253 1_556
H7 N2 1.043253 1_554
H8 N3 1.026691 1_555
H9 N2 1.036363 1_555
H10 N2 1.044006 1_555
H11 N3 1.026496 1_555
H12 N3 1.022476 1_555
H13 N2 1.035909 1_554
N0 V0 2.154426 1_555
N3 V1 2.154426 1_455
O0 P0 1.528284 1_555
O1 V0 1.634300 1_555
O2 P0 1.586839 1_555
O2 V0 2.006320 1_555
O3 P0 1.544105 1_555
O3 V1 2.008688 1_555
O4 P1 1.567377 1_555
O4 V0 2.025566 1_555
O5 P0 1.567377 1_555
O5 V1 2.025566 1_455
O6 P1 1.544105 1_455
O6 V0 2.008688 1_555
O7 P1 1.586839 1_555
O7 V1 2.006320 1_555
O8 V1 1.634300 1_555
O9 P1 1.528284 1_555
