# generated using pymatgen
data_Na5Fe2P2(CO7)2
_symmetry_space_group_name_H-M   'P 1'
_cell_length_a   6.64418300
_cell_length_b   10.39082100
_cell_length_c   10.45977701
_cell_angle_alpha   60.51012999
_cell_angle_beta   90.00000000
_cell_angle_gamma   90.00000000
_symmetry_Int_Tables_number   1
_chemical_formula_structural   Na5Fe2P2(CO7)2
_chemical_formula_sum   'Na10 Fe4 P4 C4 O28'
_cell_volume   628.57062942
_cell_formula_units_Z   2
loop_
 _symmetry_equiv_pos_site_id
 _symmetry_equiv_pos_as_xyz
  1  'x, y, z'
loop_
 _atom_site_type_symbol
 _atom_site_label
 _atom_site_symmetry_multiplicity
 _atom_site_fract_x
 _atom_site_fract_y
 _atom_site_fract_z
 _atom_site_occupancy
  Na  Na0  1  0.25842400  0.09326100  0.81904700  1
  Na  Na1  1  0.24962700  0.58991100  0.33493500  1
  Na  Na2  1  0.00030400  0.75169200  0.98798200  1
  Na  Na3  1  0.49722700  0.75403000  0.98572500  1
  Na  Na4  1  0.01883700  0.23500300  0.49705800  1
  Na  Na5  1  0.99722700  0.24597000  0.01427500  1
  Na  Na6  1  0.50030400  0.24830800  0.01201800  1
  Na  Na7  1  0.51883700  0.76499700  0.50294200  1
  Na  Na8  1  0.75842400  0.90673900  0.18095300  1
  Na  Na9  1  0.74962700  0.41008900  0.66506500  1
  Fe  Fe0  1  0.74466600  0.46131000  0.18648700  1
  Fe  Fe1  1  0.74204300  0.97235700  0.67620600  1
  Fe  Fe2  1  0.24466600  0.53869000  0.81351300  1
  Fe  Fe3  1  0.24204300  0.02764300  0.32379400  1
  P  P0  1  0.24759100  0.39769400  0.18255900  1
  P  P1  1  0.25012300  0.89082300  0.68984700  1
  P  P2  1  0.74759100  0.60230600  0.81744100  1
  P  P3  1  0.75012300  0.10917700  0.31015300  1
  C  C0  1  0.75629000  0.08396600  0.86024000  1
  C  C1  1  0.74587800  0.58168100  0.34660300  1
  C  C2  1  0.25629000  0.91603400  0.13976000  1
  C  C3  1  0.24587800  0.41831900  0.65339700  1
  O  O0  1  0.24831800  0.85176100  0.06042200  1
  O  O1  1  0.22991400  0.36285800  0.57002000  1
  O  O2  1  0.74489200  0.66370100  0.20259100  1
  O  O3  1  0.76662200  0.16205900  0.71806700  1
  O  O4  1  0.75251000  0.94061300  0.92154100  1
  O  O5  1  0.76242100  0.43879400  0.39712100  1
  O  O6  1  0.43547500  0.48447300  0.19077100  1
  O  O7  1  0.05993000  0.48514800  0.19043400  1
  O  O8  1  0.43463000  0.95880600  0.72513500  1
  O  O9  1  0.06394200  0.97172100  0.70525800  1
  O  O10  1  0.74886900  0.60209400  0.96750000  1
  O  O11  1  0.76325700  0.11127600  0.45458700  1
  O  O12  1  0.24010500  0.72243700  0.81989400  1
  O  O13  1  0.24056700  0.23784100  0.30665500  1
  O  O14  1  0.74010500  0.27756300  0.18010600  1
  O  O15  1  0.74056700  0.76215900  0.69334500  1
  O  O16  1  0.24886900  0.39790600  0.03250000  1
  O  O17  1  0.26325700  0.88872400  0.54541300  1
  O  O18  1  0.93547500  0.51552700  0.80922900  1
  O  O19  1  0.55993000  0.51485200  0.80956600  1
  O  O20  1  0.56394200  0.02827900  0.29474200  1
  O  O21  1  0.93463000  0.04119400  0.27486500  1
  O  O22  1  0.25251000  0.05938700  0.07845900  1
  O  O23  1  0.26242100  0.56120600  0.60287900  1
  O  O24  1  0.24489200  0.33629900  0.79740900  1
  O  O25  1  0.26662200  0.83794100  0.28193300  1
  O  O26  1  0.74831800  0.14823900  0.93957800  1
  O  O27  1  0.72991400  0.63714200  0.42998000  1
loop_
_geom_bond_atom_site_label_1
_geom_bond_atom_site_label_2
_geom_bond_distance
_geom_bond_site_symmetry_2
Na0 O8 2.374571 1_545
Na0 O24 2.423644 1_555
Na0 O9 2.482156 1_545
Na0 O0 2.537362 1_546
Na0 O22 2.558835 1_556
Na0 O1 2.735719 1_555
Na1 O25 2.357019 1_555
Na1 O1 2.432708 1_555
Na1 O6 2.573988 1_555
Na1 O7 2.584166 1_555
Na1 O23 2.669820 1_555
Na1 O0 2.820634 1_555
Na2 O0 2.268566 1_556
Na2 O10 2.362395 1_455
Na2 O4 2.388297 1_455
Na2 O12 2.499656 1_555
Na2 O7 2.556888 1_556
Na2 O2 2.595009 1_456
Na2 O9 2.737616 1_555
Na3 O0 2.271103 1_556
Na3 O10 2.370758 1_555
Na3 O4 2.409341 1_555
Na3 O8 2.533753 1_555
Na3 O12 2.568185 1_555
Na3 O2 2.576446 1_556
Na3 O6 2.588247 1_556
Na4 O11 2.301322 1_455
Na4 O1 2.304867 1_555
Na4 O13 2.465719 1_555
Na4 O5 2.509969 1_455
Na4 O9 2.539865 1_545
Na4 O3 2.646050 1_455
Na5 O26 2.271103 1_554
Na5 O16 2.370758 1_655
Na5 O22 2.409341 1_655
Na5 O21 2.533753 1_555
Na5 O14 2.568185 1_555
Na5 O24 2.576446 1_654
Na5 O18 2.588247 1_554
Na6 O26 2.268566 1_554
Na6 O16 2.362395 1_555
Na6 O22 2.388297 1_555
Na6 O14 2.499656 1_555
Na6 O19 2.556888 1_554
Na6 O24 2.595009 1_554
Na6 O20 2.737616 1_555
Na7 O17 2.301322 1_555
Na7 O27 2.304867 1_555
Na7 O15 2.465719 1_555
Na7 O23 2.509969 1_555
Na7 O20 2.539865 1_565
Na7 O25 2.646050 1_555
Na8 O21 2.374571 1_565
Na8 O2 2.423644 1_555
Na8 O20 2.482156 1_565
Na8 O26 2.537362 1_564
Na8 O4 2.558835 1_554
Na8 O27 2.735719 1_555
Na9 O3 2.357019 1_555
Na9 O27 2.432708 1_555
Na9 O18 2.573988 1_555
Na9 O19 2.584166 1_555
Na9 O5 2.669820 1_555
Na9 O26 2.820634 1_555
Fe0 O14 1.943243 1_555
Fe0 O10 2.021986 1_554
Fe0 O6 2.071423 1_555
Fe0 O5 2.101235 1_555
Fe0 O7 2.112055 1_655
Fe0 O2 2.190841 1_555
Fe1 O11 2.045152 1_565
Fe1 O8 2.093476 1_555
Fe1 O15 2.101704 1_555
Fe1 O9 2.159788 1_655
Fe1 O3 2.225668 1_565
Fe1 O4 2.421861 1_555
Fe2 O12 1.943243 1_555
Fe2 O16 2.021986 1_556
Fe2 O18 2.071423 1_455
Fe2 O23 2.101235 1_555
Fe2 O19 2.112055 1_555
Fe2 O24 2.190841 1_555
Fe3 O17 2.045152 1_545
Fe3 O21 2.093476 1_455
Fe3 O13 2.101704 1_555
Fe3 O20 2.159788 1_555
Fe3 O25 2.225668 1_545
Fe3 O22 2.421861 1_555
C0 O26 1.297360 1_555
C0 O3 1.298682 1_555
C0 O4 1.300080 1_545
C1 O27 1.264410 1_555
C1 O5 1.312732 1_555
C1 O2 1.315861 1_555
C2 O0 1.297360 1_555
C2 O25 1.298682 1_555
C2 O22 1.300080 1_565
C3 O1 1.264410 1_555
C3 O23 1.312732 1_555
C3 O24 1.315861 1_555
O6 P0 1.566859 1_555
O7 P0 1.568724 1_555
O8 P1 1.547504 1_555
O9 P1 1.547970 1_555
O10 P2 1.568523 1_555
O11 P3 1.524103 1_555
O12 P1 1.604018 1_555
O13 P0 1.524231 1_555
O14 P3 1.604018 1_555
O15 P2 1.524231 1_555
O16 P0 1.568523 1_555
O17 P1 1.524103 1_555
O18 P2 1.566859 1_555
O19 P2 1.568724 1_555
O20 P3 1.547970 1_555
O21 P3 1.547504 1_555
