# generated using pymatgen
data_La(BRu)4
_symmetry_space_group_name_H-M   'P 1'
_cell_length_a   3.99412491
_cell_length_b   7.56451728
_cell_length_c   7.56451728
_cell_angle_alpha   90.00000000
_cell_angle_beta   90.00000000
_cell_angle_gamma   90.00000000
_symmetry_Int_Tables_number   1
_chemical_formula_structural   La(BRu)4
_chemical_formula_sum   'La2 B8 Ru8'
_cell_volume   228.55150278
_cell_formula_units_Z   2
loop_
 _symmetry_equiv_pos_site_id
 _symmetry_equiv_pos_as_xyz
  1  'x, y, z'
loop_
 _atom_site_type_symbol
 _atom_site_label
 _atom_site_symmetry_multiplicity
 _atom_site_fract_x
 _atom_site_fract_y
 _atom_site_fract_z
 _atom_site_occupancy
  La  La0  1  0.25000000  0.75000000  0.75000000  1
  La  La1  1  0.75000000  0.25000000  0.25000000  1
  B  B0  1  0.85844457  0.03812293  0.91592741  1
  B  B1  1  0.35844457  0.08407259  0.53812293  1
  B  B2  1  0.14155543  0.96187707  0.08407259  1
  B  B3  1  0.64155543  0.91592741  0.46187707  1
  B  B4  1  0.64155543  0.58407259  0.03812293  1
  B  B5  1  0.14155543  0.53812293  0.41592741  1
  B  B6  1  0.35844457  0.41592741  0.96187707  1
  B  B7  1  0.85844457  0.46187707  0.58407259  1
  Ru  Ru0  1  0.35790373  0.35743397  0.60627204  1
  Ru  Ru1  1  0.85790373  0.10627204  0.64256603  1
  Ru  Ru2  1  0.14209627  0.89372796  0.35743397  1
  Ru  Ru3  1  0.64209627  0.64256603  0.39372796  1
  Ru  Ru4  1  0.64209627  0.85743397  0.10627204  1
  Ru  Ru5  1  0.14209627  0.60627204  0.14256603  1
  Ru  Ru6  1  0.35790373  0.14256603  0.89372796  1
  Ru  Ru7  1  0.85790373  0.39372796  0.85743397  1
loop_
_geom_bond_atom_site_label_1
_geom_bond_atom_site_label_2
_geom_bond_distance
_geom_bond_site_symmetry_2
La0 Ru6 3.191580 1_565
La0 Ru0 3.191580 1_555
La0 Ru5 3.191580 1_556
La0 Ru2 3.191580 1_555
La0 Ru1 3.221216 1_465
La0 Ru4 3.221216 1_556
La0 Ru3 3.221216 1_555
La0 Ru7 3.221216 1_455
La1 Ru4 3.191580 1_545
La1 Ru3 3.191580 1_555
La1 Ru7 3.191580 1_554
La1 Ru1 3.191580 1_555
La1 Ru5 3.221216 1_655
La1 Ru2 3.221216 1_645
La1 Ru0 3.221216 1_555
La1 Ru6 3.221216 1_554
B0 B2 1.796982 1_646
B0 Ru1 2.131138 1_555
B0 Ru6 2.152216 1_655
B0 Ru6 2.156221 1_555
B0 Ru4 2.165209 1_546
B0 La0 2.961680 1_645
B0 La1 3.023679 1_556
B0 La0 3.497368 1_545
B1 B3 1.796982 1_545
B1 Ru0 2.131138 1_555
B1 Ru1 2.152216 1_555
B1 Ru1 2.156221 1_455
B1 Ru2 2.165209 1_545
B1 La1 2.961680 1_555
B1 La0 3.023679 1_545
B1 La1 3.497368 1_455
B2 Ru2 2.131138 1_555
B2 Ru4 2.152216 1_455
B2 Ru4 2.156221 1_555
B2 Ru6 2.165209 1_564
B2 La1 2.961680 1_465
B2 La0 3.023679 1_554
B2 La1 3.497368 1_565
B3 Ru3 2.131138 1_555
B3 Ru2 2.152216 1_555
B3 Ru2 2.156221 1_655
B3 Ru1 2.165209 1_565
B3 La0 2.961680 1_555
B3 La1 3.023679 1_565
B3 La0 3.497368 1_655
B4 B6 1.796982 1_554
B4 Ru4 2.131138 1_555
B4 Ru5 2.152216 1_555
B4 Ru5 2.156221 1_655
B4 Ru7 2.165209 1_554
B4 La0 2.961680 1_554
B4 La1 3.023679 1_555
B4 La0 3.497368 1_654
B5 B7 1.796982 1_455
B5 Ru5 2.131138 1_555
B5 Ru3 2.152216 1_455
B5 Ru3 2.156221 1_555
B5 Ru0 2.165209 1_555
B5 La1 2.961680 1_455
B5 La0 3.023679 1_555
B5 La1 3.497368 1_555
B6 Ru6 2.131138 1_555
B6 Ru7 2.152216 1_555
B6 Ru7 2.156221 1_455
B6 Ru5 2.165209 1_556
B6 La1 2.961680 1_556
B6 La0 3.023679 1_555
B6 La1 3.497368 1_456
B7 Ru7 2.131138 1_555
B7 Ru0 2.152216 1_655
B7 Ru0 2.156221 1_555
B7 Ru3 2.165209 1_555
B7 La0 2.961680 1_655
B7 La1 3.023679 1_555
B7 La0 3.497368 1_555
