# generated using pymatgen
data_Li4Cr3NiO8
_symmetry_space_group_name_H-M   'P 1'
_cell_length_a   5.10989200
_cell_length_b   5.89050263
_cell_length_c   10.20608167
_cell_angle_alpha   89.83011874
_cell_angle_beta   99.60828176
_cell_angle_gamma   106.99762711
_symmetry_Int_Tables_number   1
_chemical_formula_structural   Li4Cr3NiO8
_chemical_formula_sum   'Li8 Cr6 Ni2 O16'
_cell_volume   289.31829504
_cell_formula_units_Z   2
loop_
 _symmetry_equiv_pos_site_id
 _symmetry_equiv_pos_as_xyz
  1  'x, y, z'
loop_
 _atom_site_type_symbol
 _atom_site_label
 _atom_site_symmetry_multiplicity
 _atom_site_fract_x
 _atom_site_fract_y
 _atom_site_fract_z
 _atom_site_occupancy
  Li  Li0  1  0.00074400  0.24537400  0.25380600  1
  Li  Li1  1  0.99621200  0.24302000  0.74967100  1
  Li  Li2  1  0.00000000  0.00000000  0.00000000  1
  Li  Li3  1  0.00000000  0.00000000  0.50000000  1
  Li  Li4  1  0.00378800  0.75698000  0.25032900  1
  Li  Li5  1  0.99925600  0.75462600  0.74619400  1
  Li  Li6  1  0.00000000  0.50000000  0.00000000  1
  Li  Li7  1  0.00000000  0.50000000  0.50000000  1
  Cr  Cr0  1  0.49953400  0.12392500  0.87333000  1
  Cr  Cr1  1  0.50046600  0.87607500  0.12667000  1
  Cr  Cr2  1  0.50081300  0.62585200  0.87365400  1
  Cr  Cr3  1  0.50049800  0.62866300  0.37769700  1
  Cr  Cr4  1  0.49918700  0.37414800  0.12634600  1
  Cr  Cr5  1  0.49950200  0.37133700  0.62230300  1
  Ni  Ni0  1  0.49897400  0.12485300  0.37473000  1
  Ni  Ni1  1  0.50102600  0.87514700  0.62527000  1
  O  O0  1  0.26957700  0.06503300  0.18520700  1
  O  O1  1  0.26689800  0.07475600  0.69143500  1
  O  O2  1  0.72557900  0.18245100  0.06068300  1
  O  O3  1  0.72299900  0.18585900  0.56381100  1
  O  O4  1  0.27442100  0.81754900  0.93931700  1
  O  O5  1  0.73042300  0.93496700  0.81479300  1
  O  O6  1  0.27700100  0.81414100  0.43618900  1
  O  O7  1  0.73310200  0.92524400  0.30856500  1
  O  O8  1  0.27399600  0.56857200  0.19127100  1
  O  O9  1  0.72357700  0.68123600  0.06025900  1
  O  O10  1  0.27893000  0.56486800  0.68871100  1
  O  O11  1  0.73317700  0.67456000  0.55672800  1
  O  O12  1  0.27642300  0.31876400  0.93974100  1
  O  O13  1  0.72600400  0.43142800  0.80872900  1
  O  O14  1  0.26682300  0.32544000  0.44327200  1
  O  O15  1  0.72107000  0.43513200  0.31128900  1
loop_
_geom_bond_atom_site_label_1
_geom_bond_atom_site_label_2
_geom_bond_distance
_geom_bond_site_symmetry_2
Li0 O7 2.116547 1_445
Li0 O14 2.136139 1_555
Li0 O0 2.164346 1_555
Li0 O8 2.171985 1_555
Li0 O2 2.184909 1_455
Li0 O15 2.203102 1_455
Li1 O1 2.080460 1_655
Li1 O5 2.105312 1_545
Li1 O3 2.122636 1_555
Li1 O13 2.163131 1_555
Li1 O12 2.171807 1_655
Li1 O10 2.181765 1_655
Li2 O0 2.108041 1_555
Li2 O5 2.108041 1_444
Li2 O12 2.152102 1_554
Li2 O9 2.152102 1_445
Li2 O2 2.163316 1_455
Li2 O4 2.163316 1_544
Li3 O14 2.144263 1_555
Li3 O11 2.144263 1_445
Li3 O1 2.153071 1_555
Li3 O7 2.153071 1_445
Li3 O3 2.200951 1_455
Li3 O6 2.200951 1_545
Li4 O7 2.080460 1_455
Li4 O0 2.105312 1_565
Li4 O6 2.122636 1_555
Li4 O8 2.163131 1_555
Li4 O9 2.171807 1_455
Li4 O15 2.181765 1_455
Li5 O1 2.116547 1_665
Li5 O11 2.136139 1_555
Li5 O5 2.164346 1_555
Li5 O13 2.171985 1_555
Li5 O4 2.184909 1_655
Li5 O10 2.203102 1_655
Li6 O2 2.144356 1_455
Li6 O4 2.144356 1_554
Li6 O9 2.165316 1_455
Li6 O12 2.165316 1_554
Li6 O13 2.166991 1_454
Li6 O8 2.166991 1_555
Li7 O14 2.082828 1_555
Li7 O11 2.082828 1_455
Li7 O3 2.149653 1_455
Li7 O6 2.149653 1_555
Li7 O10 2.157899 1_555
Li7 O15 2.157899 1_455
Cr0 O5 1.998705 1_545
Cr0 O1 2.002137 1_555
Cr0 O4 2.017769 1_545
Cr0 O13 2.019148 1_555
Cr0 O12 2.025826 1_555
Cr0 O2 2.035461 1_556
Cr1 O0 1.998705 1_565
Cr1 O7 2.002137 1_555
Cr1 O2 2.017769 1_565
Cr1 O8 2.019148 1_555
Cr1 O9 2.025826 1_555
Cr1 O4 2.035461 1_554
Cr2 O10 2.007198 1_555
Cr2 O5 2.008158 1_555
Cr2 O12 2.019915 1_555
Cr2 O4 2.022251 1_555
Cr2 O9 2.022912 1_556
Cr2 O13 2.025916 1_555
Cr3 O6 1.953280 1_555
Cr3 O11 1.978680 1_555
Cr3 O7 2.005294 1_555
Cr3 O15 2.010006 1_555
Cr3 O14 2.019085 1_555
Cr3 O8 2.028397 1_555
Cr4 O15 2.007198 1_555
Cr4 O0 2.008158 1_555
Cr4 O9 2.019915 1_555
Cr4 O2 2.022251 1_555
Cr4 O12 2.022912 1_554
Cr4 O8 2.025916 1_555
Cr5 O3 1.953280 1_555
Cr5 O14 1.978680 1_555
Cr5 O1 2.005294 1_555
Cr5 O10 2.010006 1_555
Cr5 O11 2.019085 1_555
Cr5 O13 2.028397 1_555
Ni0 O6 2.011654 1_545
Ni0 O15 2.018227 1_555
Ni0 O3 2.046891 1_555
Ni0 O0 2.060418 1_555
Ni0 O7 2.089653 1_545
Ni0 O14 2.096207 1_555
Ni1 O3 2.011654 1_565
Ni1 O10 2.018227 1_555
Ni1 O6 2.046891 1_555
Ni1 O5 2.060418 1_555
Ni1 O1 2.089653 1_565
Ni1 O11 2.096207 1_555
