# generated using pymatgen
data_Na3VBAsO7
_symmetry_space_group_name_H-M   'P 1'
_cell_length_a   5.39896173
_cell_length_b   9.16232543
_cell_length_c   6.76265800
_cell_angle_alpha   90.00011544
_cell_angle_beta   89.99999230
_cell_angle_gamma   88.32925748
_symmetry_Int_Tables_number   1
_chemical_formula_structural   Na3VBAsO7
_chemical_formula_sum   'Na6 V2 B2 As2 O14'
_cell_volume   334.38648812
_cell_formula_units_Z   2
loop_
 _symmetry_equiv_pos_site_id
 _symmetry_equiv_pos_as_xyz
  1  'x, y, z'
loop_
 _atom_site_type_symbol
 _atom_site_label
 _atom_site_symmetry_multiplicity
 _atom_site_fract_x
 _atom_site_fract_y
 _atom_site_fract_z
 _atom_site_occupancy
  Na  Na0  1  0.75748800  0.07348300  0.24999400  1
  Na  Na1  1  0.24244600  0.92652400  0.74999600  1
  Na  Na2  1  0.24805400  0.24065000  0.99915600  1
  Na  Na3  1  0.24806500  0.24065200  0.50084300  1
  Na  Na4  1  0.75203800  0.75934000  0.49911500  1
  Na  Na5  1  0.75204000  0.75933900  0.00087000  1
  V  V0  1  0.21744500  0.67241300  0.24999700  1
  V  V1  1  0.78258500  0.32757500  0.75001300  1
  B  B0  1  0.72678700  0.06251700  0.74999700  1
  B  B1  1  0.27316900  0.93749900  0.24999400  1
  As  As0  1  0.71469000  0.42336400  0.25001800  1
  As  As1  1  0.28533200  0.57661600  0.74999800  1
  O  O0  1  0.31770400  0.08150000  0.24999400  1
  O  O1  1  0.68231500  0.91853400  0.74999200  1
  O  O2  1  0.96143200  0.12456300  0.75000700  1
  O  O3  1  0.03854500  0.87545700  0.24999200  1
  O  O4  1  0.53439700  0.17277200  0.75000400  1
  O  O5  1  0.46559200  0.82728600  0.24999900  1
  O  O6  1  0.40034700  0.46123900  0.24999200  1
  O  O7  1  0.59966600  0.53875400  0.75000100  1
  O  O8  1  0.12845700  0.41651800  0.75000200  1
  O  O9  1  0.87163900  0.58347000  0.24999300  1
  O  O10  1  0.79470000  0.31144600  0.05317500  1
  O  O11  1  0.79469400  0.31144900  0.44686600  1
  O  O12  1  0.20518800  0.68851900  0.55311800  1
  O  O13  1  0.20518500  0.68852100  0.94687500  1
loop_
_geom_bond_atom_site_label_1
_geom_bond_atom_site_label_2
_geom_bond_distance
_geom_bond_site_symmetry_2
Na0 O3 2.331090 1_645
Na0 O0 2.373371 1_555
Na0 O10 2.567336 1_555
Na0 O11 2.567537 1_555
Na0 O5 2.789124 1_545
Na1 O2 2.331034 1_465
Na1 O1 2.373830 1_555
Na1 O13 2.567886 1_555
Na1 O12 2.567892 1_555
Na1 O4 2.789685 1_565
Na2 O0 2.261257 1_556
Na2 O4 2.357897 1_555
Na2 O8 2.406612 1_555
Na2 O10 2.540191 1_456
Na2 O2 2.541816 1_455
Na2 O6 2.781243 1_556
Na3 O0 2.261311 1_555
Na3 O4 2.357909 1_555
Na3 O8 2.406634 1_555
Na3 O11 2.540241 1_455
Na3 O2 2.541931 1_455
Na3 O6 2.781278 1_555
Na4 O1 2.261766 1_555
Na4 O5 2.358238 1_555
Na4 O9 2.406474 1_555
Na4 O12 2.539175 1_655
Na4 O3 2.541436 1_655
Na4 O7 2.781569 1_555
Na5 O1 2.261783 1_554
Na5 O5 2.358308 1_555
Na5 O9 2.406474 1_555
Na5 O13 2.539135 1_654
Na5 O3 2.541427 1_655
Na5 O7 2.781491 1_554
B0 O1 1.347761 1_545
B0 O2 1.403586 1_555
B0 O4 1.427660 1_555
B1 O0 1.347993 1_565
B1 O3 1.403466 1_555
B1 O5 1.427522 1_555
As0 O9 1.715351 1_555
As0 O6 1.722300 1_555
As0 O10 1.727517 1_555
As0 O11 1.727522 1_555
As1 O8 1.715080 1_555
As1 O7 1.722232 1_555
As1 O13 1.727796 1_555
As1 O12 1.727801 1_555
O2 V1 2.070618 1_555
O3 V0 2.071004 1_555
O4 V1 1.979404 1_555
O5 V0 1.979722 1_555
O6 V0 2.146470 1_555
O7 V1 2.146550 1_555
O8 V1 2.059085 1_455
O9 V0 2.058758 1_655
O10 V1 2.056404 1_554
O11 V1 2.056299 1_555
O12 V0 2.056135 1_555
O13 V0 2.056144 1_556
