# generated using pymatgen
data_Li3V3P8O29
_symmetry_space_group_name_H-M   'P 1'
_cell_length_a   9.75308400
_cell_length_b   9.77671804
_cell_length_c   14.21554941
_cell_angle_alpha   90.05310266
_cell_angle_beta   89.99483290
_cell_angle_gamma   119.90050650
_symmetry_Int_Tables_number   1
_chemical_formula_structural   Li3V3P8O29
_chemical_formula_sum   'Li6 V6 P16 O58'
_cell_volume   1175.06974471
_cell_formula_units_Z   2
loop_
 _symmetry_equiv_pos_site_id
 _symmetry_equiv_pos_as_xyz
  1  'x, y, z'
loop_
 _atom_site_type_symbol
 _atom_site_label
 _atom_site_symmetry_multiplicity
 _atom_site_fract_x
 _atom_site_fract_y
 _atom_site_fract_z
 _atom_site_occupancy
  Li  Li0  1  0.69949200  0.91938900  0.55148000  1
  Li  Li1  1  0.10009500  0.33116200  0.05845500  1
  Li  Li2  1  0.08585100  0.77304900  0.56017600  1
  Li  Li3  1  0.76602300  0.09012400  0.94436200  1
  Li  Li4  1  0.31642900  0.09404200  0.44173800  1
  Li  Li5  1  0.01627500  0.94295200  0.00006500  1
  V  V0  1  0.99925200  0.43530000  0.25621500  1
  V  V1  1  0.99309000  0.56068500  0.75232500  1
  V  V2  1  0.56360100  0.99923600  0.75169500  1
  V  V3  1  0.43081900  0.99568000  0.24119000  1
  V  V4  1  0.56432100  0.56678600  0.24803200  1
  V  V5  1  0.43681800  0.43688600  0.75240100  1
  P  P0  1  0.69537000  0.77736100  0.84501300  1
  P  P1  1  0.68055600  0.91078900  0.33818900  1
  P  P2  1  0.22973800  0.31480800  0.34297100  1
  P  P3  1  0.33038400  0.66114700  0.12993300  1
  P  P4  1  0.33276300  0.66803200  0.63217700  1
  P  P5  1  0.08641700  0.31354700  0.83919600  1
  P  P6  1  0.91321900  0.22715200  0.65626700  1
  P  P7  1  0.22018300  0.91251600  0.84032800  1
  P  P8  1  0.77758500  0.09200300  0.15919500  1
  P  P9  1  0.09021000  0.77404200  0.34310500  1
  P  P10  1  0.91435100  0.68930500  0.16229100  1
  P  P11  1  0.65861000  0.32929900  0.36750100  1
  P  P12  1  0.66549600  0.33032600  0.86959800  1
  P  P13  1  0.77078100  0.68723500  0.65910700  1
  P  P14  1  0.31843600  0.09156300  0.66032900  1
  P  P15  1  0.30590600  0.22555100  0.15814600  1
  O  O0  1  0.76220600  0.76916800  0.57382900  1
  O  O1  1  0.65639200  0.74243900  0.32990400  1
  O  O2  1  0.78302200  0.01806300  0.06873200  1
  O  O3  1  0.65694100  0.91555400  0.83654600  1
  O  O4  1  0.53832900  0.61720000  0.83131700  1
  O  O5  1  0.47991700  0.66792700  0.17623000  1
  O  O6  1  0.38228700  0.47402300  0.32365100  1
  O  O7  1  0.20521000  0.20963900  0.07532700  1
  O  O8  1  0.25732000  0.34448100  0.83337700  1
  O  O9  1  0.48081700  0.81975500  0.67867400  1
  O  O10  1  0.52127000  0.90405300  0.31508200  1
  O  O11  1  0.34073600  0.52713600  0.68037200  1
  O  O12  1  0.33218600  0.66064900  0.02554600  1
  O  O13  1  0.34841500  0.67977100  0.52832400  1
  O  O14  1  0.18321700  0.50998500  0.17077200  1
  O  O15  1  0.38179300  0.91773500  0.82822800  1
  O  O16  1  0.32813000  0.81206100  0.17219700  1
  O  O17  1  0.08826200  0.34636900  0.33464000  1
  O  O18  1  0.99412900  0.20348200  0.75168300  1
  O  O19  1  0.99752000  0.23170700  0.56998300  1
  O  O20  1  0.00343100  0.23642800  0.92920000  1
  O  O21  1  0.09000000  0.47344400  0.82394000  1
  O  O22  1  0.18125200  0.66727000  0.66928700  1
  O  O23  1  0.91985900  0.26298400  0.16531500  1
  O  O24  1  0.10058000  0.62192200  0.32238200  1
  O  O25  1  0.25881800  0.92044400  0.33521900  1
  O  O26  1  0.79516500  0.00434400  0.24992600  1
  O  O27  1  0.74961000  0.99148100  0.42828600  1
  O  O28  1  0.24876400  0.00556500  0.57015300  1
  O  O29  1  0.74071300  0.08247000  0.66362900  1
  O  O30  1  0.90637400  0.38093300  0.67851300  1
  O  O31  1  0.08624300  0.73841800  0.82856500  1
  O  O32  1  0.81448300  0.33908900  0.32263300  1
  O  O33  1  0.92120500  0.53521200  0.17454600  1
  O  O34  1  0.99667000  0.78454700  0.07890200  1
  O  O35  1  0.01525900  0.76480400  0.43535600  1
  O  O36  1  0.99425200  0.79116000  0.25730400  1
  O  O37  1  0.91492900  0.65985900  0.66090000  1
  O  O38  1  0.67421300  0.18340300  0.82830300  1
  O  O39  1  0.61915000  0.09344600  0.17267200  1
  O  O40  1  0.81271000  0.48073500  0.82366300  1
  O  O41  1  0.67428000  0.32813000  0.97356300  1
  O  O42  1  0.66010800  0.32981000  0.47175000  1
  O  O43  1  0.65530200  0.47251600  0.32054600  1
  O  O44  1  0.47901900  0.09880200  0.68109800  1
  O  O45  1  0.51298600  0.17727300  0.32631600  1
  O  O46  1  0.73968300  0.64998500  0.16897500  1
  O  O47  1  0.79545100  0.79424900  0.75095400  1
  O  O48  1  0.79184100  0.79903900  0.92978000  1
  O  O49  1  0.61805800  0.52634700  0.67860400  1
  O  O50  1  0.51819900  0.32939800  0.82548000  1
  O  O51  1  0.46182800  0.38420400  0.16782900  1
  O  O52  1  0.34439400  0.08879900  0.16495000  1
  O  O53  1  0.20161600  0.98886400  0.92504100  1
  O  O54  1  0.20259800  0.99516700  0.74550500  1
  O  O55  1  0.34415400  0.25979600  0.66750900  1
  O  O56  1  0.23471000  0.23238400  0.42892900  1
  O  O57  1  0.20532600  0.20440300  0.25249200  1
loop_
_geom_bond_atom_site_label_1
_geom_bond_atom_site_label_2
_geom_bond_distance
_geom_bond_site_symmetry_2
Li0 O27 1.860458 1_555
Li0 O0 1.878446 1_555
Li0 O29 2.145164 1_565
Li0 O9 2.588081 1_555
Li1 O7 1.932631 1_555
Li1 O20 2.061406 1_554
Li1 O23 2.162210 1_455
Li1 O14 2.201149 1_555
Li2 O35 1.890392 1_555
Li2 O28 2.027489 1_565
Li2 O37 2.053545 1_455
Li2 O22 2.302970 1_555
Li3 O2 1.941245 1_556
Li3 O20 2.037708 1_655
Li3 O3 2.139851 1_545
Li3 O38 2.274346 1_555
Li4 O56 1.890224 1_555
Li4 O28 1.987399 1_555
Li4 O25 2.129264 1_545
Li4 O45 2.340090 1_555
Li5 O34 1.843615 1_455
Li5 O53 1.948869 1_554
Li5 O48 2.167154 1_454
Li5 O7 2.558021 1_565
O0 P13 1.478807 1_555
O1 P1 1.546399 1_555
O1 V4 1.889205 1_555
O2 P8 1.488493 1_555
O3 P0 1.576558 1_555
O3 V2 1.922913 1_555
O4 P0 1.563359 1_555
O4 V5 1.898131 1_555
O5 P3 1.571052 1_555
O5 V4 1.873726 1_555
O6 P2 1.550417 1_555
O6 V4 1.877829 1_555
O7 P15 1.490751 1_555
O8 P5 1.540801 1_555
O8 V5 1.905464 1_555
O9 P4 1.607850 1_555
O9 V2 1.841947 1_555
O10 P1 1.556837 1_555
O10 V3 1.863835 1_555
O11 P4 1.575276 1_555
O11 V5 1.879183 1_555
O12 P3 1.484053 1_555
O13 P4 1.482843 1_555
O14 P3 1.570956 1_555
O14 V0 1.980605 1_455
O15 P7 1.560887 1_555
O15 V2 1.885570 1_555
O16 P3 1.602834 1_555
O16 V3 1.841759 1_555
O17 P2 1.561326 1_555
O17 V0 1.872692 1_455
O18 P5 1.596189 1_655
O18 P6 1.642834 1_555
O19 P6 1.464885 1_555
O20 P5 1.501251 1_555
O21 P5 1.561481 1_555
O21 V1 1.860855 1_455
O22 P4 1.565516 1_555
O22 V1 1.985551 1_455
O23 P8 1.553881 1_555
O23 V0 1.950150 1_555
O24 P9 1.567809 1_555
O24 V0 1.841101 1_455
O25 P9 1.555340 1_555
O25 V3 1.978152 1_555
O26 P8 1.605001 1_555
O26 P1 1.625701 1_545
O27 P1 1.478145 1_555
O28 P14 1.496823 1_555
O29 P6 1.571632 1_555
O29 V2 1.952792 1_545
O30 P6 1.569739 1_555
O30 V1 1.849212 1_555
O31 P7 1.553807 1_555
O31 V1 1.855312 1_455
O32 P11 1.606855 1_555
O32 V0 1.826211 1_555
O33 P10 1.550911 1_555
O33 V0 1.903945 1_555
O34 P10 1.474244 1_555
O35 P9 1.482064 1_555
O36 P9 1.596346 1_655
O36 P10 1.627027 1_555
O37 P13 1.556912 1_555
O37 V1 1.987402 1_555
O38 P12 1.592272 1_555
O38 V2 1.910956 1_545
O39 P8 1.564070 1_555
O39 V3 1.867405 1_545
O40 P12 1.595903 1_555
O40 V1 1.834272 1_555
O41 P12 1.481203 1_555
O42 P11 1.482009 1_555
O43 P11 1.566492 1_555
O43 V4 1.875290 1_555
O44 P14 1.560330 1_555
O44 V2 1.854132 1_545
O45 P11 1.569398 1_555
O45 V3 1.958644 1_545
O46 P10 1.551137 1_555
O46 V4 1.861233 1_555
O47 P13 1.613631 1_555
O47 P0 1.614733 1_555
O48 P0 1.477552 1_555
O49 P13 1.560293 1_555
O49 V5 1.857438 1_555
O50 P12 1.563455 1_555
O50 V5 1.909796 1_555
O51 P15 1.544477 1_555
O51 V4 1.924312 1_555
O52 P15 1.561539 1_555
O52 V3 1.865744 1_545
O53 P7 1.474181 1_555
O54 P14 1.603436 1_565
O54 P7 1.624684 1_555
O55 P14 1.538496 1_555
O55 V5 1.925362 1_555
O56 P2 1.478397 1_555
O57 P15 1.613031 1_555
O57 P2 1.617832 1_555
