# generated using pymatgen
data_Er2B4O9
_symmetry_space_group_name_H-M   'P 1'
_cell_length_a   6.17463100
_cell_length_b   6.42941173
_cell_length_c   7.47202360
_cell_angle_alpha   102.58697814
_cell_angle_beta   97.17073994
_cell_angle_gamma   102.41149850
_symmetry_Int_Tables_number   1
_chemical_formula_structural   Er2B4O9
_chemical_formula_sum   'Er4 B8 O18'
_cell_volume   278.11521887
_cell_formula_units_Z   2
loop_
 _symmetry_equiv_pos_site_id
 _symmetry_equiv_pos_as_xyz
  1  'x, y, z'
loop_
 _atom_site_type_symbol
 _atom_site_label
 _atom_site_symmetry_multiplicity
 _atom_site_fract_x
 _atom_site_fract_y
 _atom_site_fract_z
 _atom_site_occupancy
  Er  Er0  1  0.11281800  0.32291700  0.64014200  1
  Er  Er1  1  0.45008400  0.90932900  0.71219100  1
  Er  Er2  1  0.54991600  0.09067100  0.28780900  1
  Er  Er3  1  0.88718200  0.67708300  0.35985800  1
  B  B0  1  0.00573700  0.85512200  0.80973600  1
  B  B1  1  0.26855400  0.66648000  0.01859800  1
  B  B2  1  0.37362400  0.64342700  0.34951200  1
  B  B3  1  0.33849100  0.31714800  0.07264700  1
  B  B4  1  0.66150900  0.68285200  0.92735300  1
  B  B5  1  0.62637600  0.35657300  0.65048800  1
  B  B6  1  0.73144600  0.33352000  0.98140200  1
  B  B7  1  0.99426300  0.14487800  0.19026400  1
  O  O0  1  0.07035800  0.95670200  0.67421100  1
  O  O1  1  0.13968000  0.71750700  0.85553400  1
  O  O2  1  0.22599700  0.42767000  0.95699100  1
  O  O3  1  0.21876900  0.59518400  0.47869100  1
  O  O4  1  0.23558200  0.73714900  0.21188300  1
  O  O5  1  0.18788000  0.13079300  0.12142900  1
  O  O6  1  0.41954400  0.18157200  0.55379300  1
  O  O7  1  0.49509500  0.20785700  0.97861600  1
  O  O8  1  0.53904400  0.53779400  0.74750300  1
  O  O9  1  0.46095600  0.46220600  0.25249700  1
  O  O10  1  0.50490500  0.79214300  0.02138400  1
  O  O11  1  0.58045600  0.81842800  0.44620700  1
  O  O12  1  0.81212000  0.86920700  0.87857100  1
  O  O13  1  0.76441800  0.26285100  0.78811700  1
  O  O14  1  0.78123100  0.40481600  0.52130900  1
  O  O15  1  0.77400300  0.57233000  0.04300900  1
  O  O16  1  0.86032000  0.28249300  0.14446600  1
  O  O17  1  0.92964200  0.04329800  0.32578900  1
loop_
_geom_bond_atom_site_label_1
_geom_bond_atom_site_label_2
_geom_bond_distance
_geom_bond_site_symmetry_2
Er0 O2 2.288388 1_555
Er0 O14 2.339014 1_455
Er0 O3 2.360670 1_555
Er0 O6 2.370324 1_555
Er0 O0 2.385367 1_545
Er0 O13 2.534224 1_455
Er0 O17 2.578884 1_455
Er0 O8 2.627818 1_555
Er0 O1 2.650831 1_555
Er1 O11 2.243861 1_555
Er1 O6 2.342906 1_565
Er1 O7 2.385675 1_565
Er1 O3 2.401130 1_555
Er1 O0 2.418535 1_555
Er1 O12 2.510600 1_555
Er1 O1 2.532548 1_555
Er1 O13 2.553804 1_565
Er1 O10 2.587039 1_556
Er1 O8 2.622981 1_555
Er2 O6 2.243861 1_555
Er2 O11 2.342906 1_545
Er2 O10 2.385675 1_545
Er2 O14 2.401130 1_555
Er2 O17 2.418535 1_555
Er2 O5 2.510600 1_555
Er2 O16 2.532548 1_555
Er2 O4 2.553804 1_545
Er2 O7 2.587039 1_554
Er2 O9 2.622981 1_555
Er3 O15 2.288388 1_555
Er3 O3 2.339014 1_655
Er3 O14 2.360670 1_555
Er3 O11 2.370324 1_555
Er3 O17 2.385367 1_565
Er3 O4 2.534224 1_655
Er3 O0 2.578884 1_655
Er3 O9 2.627818 1_555
Er3 O16 2.650831 1_555
B0 O12 1.371767 1_455
B0 O0 1.374156 1_555
B0 O1 1.399935 1_555
B1 O2 1.458337 1_554
B1 O4 1.469987 1_555
B1 O10 1.503738 1_555
B1 O1 1.506579 1_554
B2 O9 1.474237 1_555
B2 O3 1.474974 1_555
B2 O11 1.488838 1_555
B2 O4 1.555373 1_555
B3 O2 1.436730 1_554
B3 O9 1.464388 1_555
B3 O7 1.472737 1_554
B3 O5 1.493074 1_555
B4 O15 1.436730 1_556
B4 O8 1.464388 1_555
B4 O10 1.472737 1_556
B4 O12 1.493074 1_555
B5 O8 1.474237 1_555
B5 O14 1.474974 1_555
B5 O6 1.488838 1_555
B5 O13 1.555373 1_555
B6 O15 1.458337 1_556
B6 O13 1.469987 1_555
B6 O7 1.503738 1_555
B6 O16 1.506579 1_556
B7 O5 1.371767 1_655
B7 O17 1.374156 1_555
B7 O16 1.399935 1_555
