# generated using pymatgen
data_Li4Fe5SnO12
_symmetry_space_group_name_H-M   'P 1'
_cell_length_a   5.24623860
_cell_length_b   5.24623860
_cell_length_c   10.36223934
_cell_angle_alpha   89.28852596
_cell_angle_beta   89.28852596
_cell_angle_gamma   119.46908550
_symmetry_Int_Tables_number   1
_chemical_formula_structural   Li4Fe5SnO12
_chemical_formula_sum   'Li4 Fe5 Sn1 O12'
_cell_volume   248.22591467
_cell_formula_units_Z   1
loop_
 _symmetry_equiv_pos_site_id
 _symmetry_equiv_pos_as_xyz
  1  'x, y, z'
loop_
 _atom_site_type_symbol
 _atom_site_label
 _atom_site_symmetry_multiplicity
 _atom_site_fract_x
 _atom_site_fract_y
 _atom_site_fract_z
 _atom_site_occupancy
  Li  Li0  1  0.38456400  0.85722800  0.74600300  1
  Li  Li1  1  0.14277200  0.61543600  0.25399700  1
  Li  Li2  1  0.85722800  0.38456400  0.74600300  1
  Li  Li3  1  0.61543600  0.14277200  0.25399700  1
  Fe  Fe0  1  0.16438300  0.83561700  0.50000000  1
  Fe  Fe1  1  0.66287200  0.33712800  0.00000000  1
  Fe  Fe2  1  0.33712800  0.66287200  0.00000000  1
  Fe  Fe3  1  0.83561700  0.16438300  0.50000000  1
  Fe  Fe4  1  0.50000000  0.50000000  0.50000000  1
  Sn  Sn0  1  0.00000000  0.00000000  0.00000000  1
  O  O0  1  0.33127100  0.98111100  0.10906000  1
  O  O1  1  0.01888900  0.66872900  0.89094000  1
  O  O2  1  0.47972800  0.83336400  0.39290800  1
  O  O3  1  0.83336400  0.47972800  0.39290800  1
  O  O4  1  0.16663600  0.52027200  0.60709200  1
  O  O5  1  0.82835000  0.82835000  0.59317500  1
  O  O6  1  0.52027200  0.16663600  0.60709200  1
  O  O7  1  0.98111100  0.33127100  0.10906000  1
  O  O8  1  0.65975100  0.65975100  0.10048100  1
  O  O9  1  0.66872900  0.01888900  0.89094000  1
  O  O10  1  0.34024900  0.34024900  0.89951900  1
  O  O11  1  0.17165000  0.17165000  0.40682500  1
loop_
_geom_bond_atom_site_label_1
_geom_bond_atom_site_label_2
_geom_bond_distance
_geom_bond_site_symmetry_2
Li0 O6 1.998289 1_565
Li0 O9 2.010127 1_565
Li0 O4 2.149315 1_555
Li0 O1 2.222350 1_555
Li1 O3 1.998289 1_455
Li1 O7 2.010127 1_455
Li1 O2 2.149315 1_555
Li1 O0 2.222350 1_555
Li2 O4 1.998289 1_655
Li2 O1 2.010127 1_655
Li2 O6 2.149315 1_555
Li2 O9 2.222350 1_555
Li3 O2 1.998289 1_545
Li3 O0 2.010127 1_545
Li3 O3 2.149315 1_555
Li3 O7 2.222350 1_555
Fe0 O5 1.982973 1_455
Fe0 O11 1.982973 1_565
Fe0 O2 1.985581 1_555
Fe0 O4 1.985581 1_555
Fe0 O6 2.154613 1_565
Fe0 O3 2.154613 1_455
Fe1 O8 2.004929 1_555
Fe1 O10 2.004929 1_554
Fe1 O7 2.040092 1_555
Fe1 O9 2.040092 1_554
Fe1 O0 2.119867 1_545
Fe1 O1 2.119867 1_654
Fe2 O8 2.004929 1_555
Fe2 O10 2.004929 1_554
Fe2 O0 2.040092 1_555
Fe2 O1 2.040092 1_554
Fe2 O9 2.119867 1_564
Fe2 O7 2.119867 1_455
Fe3 O5 1.982973 1_545
Fe3 O11 1.982973 1_655
Fe3 O6 1.985581 1_555
Fe3 O3 1.985581 1_555
Fe3 O4 2.154613 1_655
Fe3 O2 2.154613 1_545
Fe4 O5 2.007464 1_555
Fe4 O11 2.007464 1_555
Fe4 O4 2.106938 1_555
Fe4 O6 2.106938 1_555
Fe4 O2 2.106938 1_555
Fe4 O3 2.106938 1_555
O0 Sn0 2.126686 1_565
O1 Sn0 2.126686 1_566
O7 Sn0 2.126686 1_655
O8 Sn0 2.056550 1_665
O9 Sn0 2.126686 1_656
O10 Sn0 2.056550 1_556
