# generated using pymatgen
data_Li4Nb2Cr3Co3O16
_symmetry_space_group_name_H-M   'P 1'
_cell_length_a   5.93649670
_cell_length_b   5.93652232
_cell_length_c   9.66064600
_cell_angle_alpha   89.99301392
_cell_angle_beta   89.99301426
_cell_angle_gamma   60.05429793
_symmetry_Int_Tables_number   1
_chemical_formula_structural   Li4Nb2Cr3Co3O16
_chemical_formula_sum   'Li4 Nb2 Cr3 Co3 O16'
_cell_volume   295.00983346
_cell_formula_units_Z   1
loop_
 _symmetry_equiv_pos_site_id
 _symmetry_equiv_pos_as_xyz
  1  'x, y, z'
loop_
 _atom_site_type_symbol
 _atom_site_label
 _atom_site_symmetry_multiplicity
 _atom_site_fract_x
 _atom_site_fract_y
 _atom_site_fract_z
 _atom_site_occupancy
  Li  Li0  1  0.66897800  0.66901000  0.90326400  1
  Li  Li1  1  0.99444000  0.99446000  0.99252200  1
  Li  Li2  1  0.99464500  0.99467400  0.49209800  1
  Li  Li3  1  0.33595400  0.33597100  0.39632400  1
  Nb  Nb0  1  0.66780700  0.66782900  0.49243400  1
  Nb  Nb1  1  0.33277000  0.33279800  0.99754100  1
  Cr  Cr0  1  0.17119200  0.17121700  0.71322500  1
  Cr  Cr1  1  0.34010900  0.83034800  0.21606400  1
  Cr  Cr2  1  0.83033400  0.34010200  0.21608000  1
  Co  Co0  1  0.17104500  0.65782600  0.71928200  1
  Co  Co1  1  0.65780200  0.17106600  0.71928100  1
  Co  Co2  1  0.82879100  0.82881400  0.21512200  1
  O  O0  1  0.51952600  0.51954100  0.34042100  1
  O  O1  1  0.67048000  0.67050500  0.11050500  1
  O  O2  1  0.99493000  0.99495700  0.30662500  1
  O  O3  1  0.99567300  0.99570300  0.80282100  1
  O  O4  1  0.16330500  0.16331800  0.09297100  1
  O  O5  1  0.83162600  0.83163600  0.59163400  1
  O  O6  1  0.34205700  0.34207200  0.61064000  1
  O  O7  1  0.48136100  0.48138600  0.84888800  1
  O  O8  1  0.33340500  0.84384700  0.58995600  1
  O  O9  1  0.84382500  0.33342600  0.58995300  1
  O  O10  1  0.52673600  0.96193000  0.33603600  1
  O  O11  1  0.96190800  0.52675900  0.33603500  1
  O  O12  1  0.03825900  0.47593800  0.84265700  1
  O  O13  1  0.47590800  0.03828900  0.84265500  1
  O  O14  1  0.16010400  0.66675100  0.09640400  1
  O  O15  1  0.66672800  0.16012600  0.09640200  1
loop_
_geom_bond_atom_site_label_1
_geom_bond_atom_site_label_2
_geom_bond_distance
_geom_bond_site_symmetry_2
Li0 O12 1.988396 1_655
Li0 O13 1.988399 1_565
Li0 O7 1.998980 1_555
Li0 O1 2.002143 1_556
Li1 O3 1.832677 1_555
Li1 O15 1.961822 1_566
Li1 O14 1.961825 1_656
Li1 O4 1.988771 1_666
Li2 O2 1.791791 1_555
Li2 O5 1.932014 1_555
Li2 O9 1.985482 1_565
Li2 O8 1.985524 1_655
Li3 O0 1.962710 1_555
Li3 O10 2.010465 1_545
Li3 O11 2.010485 1_455
Li3 O6 2.071390 1_555
Nb0 O5 1.937640 1_555
Nb0 O9 1.961941 1_555
Nb0 O8 1.961944 1_555
Nb0 O0 2.116772 1_555
Nb0 O10 2.138314 1_555
Nb0 O11 2.138316 1_555
Nb1 O14 1.965875 1_556
Nb1 O15 1.965883 1_556
Nb1 O4 1.970882 1_556
Nb1 O7 2.096368 1_555
Nb1 O12 2.129506 1_555
Nb1 O13 2.129517 1_555
Cr0 O3 2.000994 1_445
Cr0 O13 2.008386 1_555
Cr0 O12 2.008423 1_555
Cr0 O6 2.016547 1_555
Cr0 O9 2.062592 1_455
Cr0 O8 2.062594 1_545
Cr1 O2 1.979896 1_455
Cr1 O1 1.982070 1_555
Cr1 O0 2.004978 1_555
Cr1 O10 2.011340 1_555
Cr1 O4 2.086012 1_565
Cr1 O14 2.111431 1_555
Cr2 O2 1.979677 1_545
Cr2 O1 1.982298 1_555
Cr2 O0 2.004894 1_555
Cr2 O11 2.011348 1_555
Cr2 O4 2.086095 1_655
Cr2 O15 2.111438 1_555
Co0 O3 1.916732 1_455
Co0 O6 1.935521 1_555
Co0 O12 2.014234 1_555
Co0 O7 2.032811 1_555
Co0 O5 2.137765 1_455
Co0 O8 2.184371 1_555
Co1 O3 1.916700 1_545
Co1 O6 1.935471 1_555
Co1 O13 2.014218 1_555
Co1 O7 2.032838 1_555
Co1 O5 2.137812 1_545
Co1 O9 2.184390 1_555
Co2 O1 1.915773 1_555
Co2 O2 1.923173 1_555
Co2 O11 1.946627 1_555
Co2 O10 1.946627 1_555
Co2 O14 2.054260 1_655
Co2 O15 2.054273 1_565
