# generated using pymatgen
data_Li6TiCr3(PO4)6
_symmetry_space_group_name_H-M   'P 1'
_cell_length_a   8.48846556
_cell_length_b   8.56970548
_cell_length_c   8.55075336
_cell_angle_alpha   61.47945348
_cell_angle_beta   61.62668648
_cell_angle_gamma   61.73587734
_symmetry_Int_Tables_number   1
_chemical_formula_structural   Li6TiCr3(PO4)6
_chemical_formula_sum   'Li6 Ti1 Cr3 P6 O24'
_cell_volume   455.74761445
_cell_formula_units_Z   1
loop_
 _symmetry_equiv_pos_site_id
 _symmetry_equiv_pos_as_xyz
  1  'x, y, z'
loop_
 _atom_site_type_symbol
 _atom_site_label
 _atom_site_symmetry_multiplicity
 _atom_site_fract_x
 _atom_site_fract_y
 _atom_site_fract_z
 _atom_site_occupancy
  Li  Li0  1  0.02709000  0.00555200  0.99731400  1
  Li  Li1  1  0.74923900  0.15255300  0.34931300  1
  Li  Li2  1  0.47434400  0.50359000  0.49639800  1
  Li  Li3  1  0.26504800  0.84555000  0.65799700  1
  Li  Li4  1  0.65838000  0.26419500  0.83991200  1
  Li  Li5  1  0.84226500  0.65936700  0.26193000  1
  Ti  Ti0  1  0.85362900  0.85271300  0.85160700  1
  Cr  Cr0  1  0.14225800  0.14531300  0.13913100  1
  Cr  Cr1  1  0.35832700  0.36129600  0.35541100  1
  Cr  Cr2  1  0.64430900  0.64699200  0.64625600  1
  P  P0  1  0.04959000  0.74930300  0.44699300  1
  P  P1  1  0.44586500  0.05097300  0.74835500  1
  P  P2  1  0.74981400  0.45044300  0.04598400  1
  P  P3  1  0.25082000  0.53905000  0.96048000  1
  P  P4  1  0.54119300  0.96415400  0.25111500  1
  P  P5  1  0.95839300  0.24954700  0.53477800  1
  O  O0  1  0.13180800  0.28678300  0.49828700  1
  O  O1  1  0.29595000  0.51320100  0.12422300  1
  O  O2  1  0.05237600  0.92101800  0.26529800  1
  O  O3  1  0.53170700  0.12430100  0.29315500  1
  O  O4  1  0.23888400  0.59015900  0.43311000  1
  O  O5  1  0.01004600  0.80672400  0.61323800  1
  O  O6  1  0.25762900  0.07620700  0.90753200  1
  O  O7  1  0.45502200  0.23320200  0.57689100  1
  O  O8  1  0.59196300  0.43354800  0.23963000  1
  O  O9  1  0.19978800  0.37865500  0.98985600  1
  O  O10  1  0.08925300  0.73420700  0.93046500  1
  O  O11  1  0.37074900  0.00493500  0.20769400  1
  O  O12  1  0.61322100  0.00639500  0.80912700  1
  O  O13  1  0.90630700  0.25739800  0.07287700  1
  O  O14  1  0.81061500  0.61233600  0.00812600  1
  O  O15  1  0.41301700  0.56290000  0.76838900  1
  O  O16  1  0.56129000  0.77272600  0.41304700  1
  O  O17  1  0.73305900  0.93041200  0.08717200  1
  O  O18  1  0.97232700  0.20071600  0.37736300  1
  O  O19  1  0.76877900  0.41265500  0.56220100  1
  O  O20  1  0.47047200  0.89218500  0.69439000  1
  O  O21  1  0.93262300  0.08727100  0.72974100  1
  O  O22  1  0.69363300  0.47787400  0.88830600  1
  O  O23  1  0.88891700  0.69260400  0.47790900  1
loop_
_geom_bond_atom_site_label_1
_geom_bond_atom_site_label_2
_geom_bond_distance
_geom_bond_site_symmetry_2
Li0 O6 2.008971 1_555
Li0 O2 2.134633 1_546
Li0 O13 2.175561 1_456
Li0 O10 2.415156 1_545
Li0 O21 2.459665 1_455
Li0 O17 2.541921 1_446
Li1 O13 2.069608 1_555
Li1 O8 2.109326 1_555
Li1 O3 2.252990 1_555
Li1 O18 2.253960 1_555
Li1 O7 2.352080 1_555
Li1 O2 2.417261 1_645
Li2 O4 2.019486 1_555
Li2 O7 2.144631 1_555
Li2 O8 2.187490 1_555
Li2 O15 2.380316 1_555
Li2 O16 2.432006 1_555
Li2 O19 2.498727 1_555
Li3 O15 2.097108 1_555
Li3 O10 2.118144 1_555
Li3 O20 2.142815 1_555
Li3 O16 2.419913 1_555
Li3 O5 2.556099 1_555
Li3 O21 2.581121 1_465
Li4 O19 2.065150 1_555
Li4 O21 2.131281 1_555
Li4 O22 2.230294 1_555
Li4 O15 2.435340 1_555
Li4 O12 2.559380 1_555
Li4 O17 2.614434 1_546
Li5 O16 2.092164 1_555
Li5 O17 2.109575 1_555
Li5 O23 2.225485 1_555
Li5 O19 2.448347 1_555
Li5 O14 2.537013 1_555
Li5 O10 2.594209 1_654
Cr0 O11 1.936534 1_555
Cr0 O9 1.939431 1_554
Cr0 O18 1.984439 1_455
Cr0 O6 1.989721 1_554
Cr0 O13 1.997949 1_455
Cr0 O2 2.016674 1_545
Cr1 O1 1.940982 1_555
Cr1 O0 1.944910 1_555
Cr1 O8 2.002036 1_555
Cr1 O3 2.007791 1_555
Cr1 O4 2.009197 1_555
Cr1 O7 2.025853 1_555
Cr2 O23 1.981602 1_555
Cr2 O22 1.985922 1_555
Cr2 O20 2.018451 1_555
Cr2 O15 2.033993 1_555
Cr2 O16 2.049076 1_555
Cr2 O19 2.076745 1_555
O0 P5 1.509732 1_455
O1 P3 1.513078 1_554
O2 P0 1.547441 1_555
O3 P4 1.535634 1_545
O4 P0 1.534223 1_555
O5 P0 1.559995 1_555
O5 Ti0 1.942175 1_455
O6 P1 1.529457 1_555
O7 P1 1.553888 1_555
O8 P2 1.550545 1_555
O9 P3 1.506945 1_555
O10 P3 1.579928 1_555
O10 Ti0 2.047080 1_455
O11 P4 1.503664 1_545
O12 P1 1.559529 1_555
O12 Ti0 1.932149 1_545
O13 P2 1.549218 1_555
O14 P2 1.544809 1_555
O14 Ti0 1.945015 1_554
O15 P3 1.559434 1_555
O16 P4 1.558149 1_555
O17 P4 1.572389 1_555
O17 Ti0 2.055269 1_554
O18 P5 1.529891 1_555
O19 P5 1.556588 1_555
O20 P1 1.532016 1_565
O21 P5 1.577515 1_555
O21 Ti0 2.046491 1_545
O22 P2 1.517488 1_556
O23 P0 1.525908 1_655
