# generated using pymatgen
data_MgCr3(SO4)6
_symmetry_space_group_name_H-M   'P 1'
_cell_length_a   8.87223072
_cell_length_b   8.87223072
_cell_length_c   8.87223044
_cell_angle_alpha   56.01897440
_cell_angle_beta   56.01897440
_cell_angle_gamma   56.01897306
_symmetry_Int_Tables_number   1
_chemical_formula_structural   MgCr3(SO4)6
_chemical_formula_sum   'Mg1 Cr3 S6 O24'
_cell_volume   448.29480654
_cell_formula_units_Z   1
loop_
 _symmetry_equiv_pos_site_id
 _symmetry_equiv_pos_as_xyz
  1  'x, y, z'
loop_
 _atom_site_type_symbol
 _atom_site_label
 _atom_site_symmetry_multiplicity
 _atom_site_fract_x
 _atom_site_fract_y
 _atom_site_fract_z
 _atom_site_occupancy
  Mg  Mg0  1  0.85264000  0.85264000  0.85264000  1
  Cr  Cr0  1  0.64478000  0.64478000  0.64478000  1
  Cr  Cr1  1  0.35608200  0.35608200  0.35608200  1
  Cr  Cr2  1  0.15002500  0.15002500  0.15002500  1
  S  S0  1  0.96156000  0.25525000  0.53280100  1
  S  S1  1  0.46076700  0.04316600  0.74733500  1
  S  S2  1  0.74733500  0.46076700  0.04316600  1
  S  S3  1  0.25525000  0.53280100  0.96156000  1
  S  S4  1  0.53280100  0.96156000  0.25525000  1
  S  S5  1  0.04316600  0.74733500  0.46076700  1
  O  O0  1  0.70280400  0.48247700  0.89195300  1
  O  O1  1  0.89195300  0.70280400  0.48247700  1
  O  O2  1  0.98682700  0.05446000  0.66632100  1
  O  O3  1  0.97825400  0.28665400  0.34041800  1
  O  O4  1  0.64731100  0.02734700  0.71889000  1
  O  O5  1  0.95230300  0.32273500  0.01846100  1
  O  O6  1  0.48247700  0.89195300  0.70280400  1
  O  O7  1  0.76481200  0.38879400  0.61330700  1
  O  O8  1  0.32273500  0.01846100  0.95230300  1
  O  O9  1  0.61855600  0.37033000  0.23935900  1
  O  O10  1  0.37033000  0.23935900  0.61855600  1
  O  O11  1  0.71889000  0.64731100  0.02734700  1
  O  O12  1  0.28665400  0.34041800  0.97825400  1
  O  O13  1  0.61330700  0.76481200  0.38879400  1
  O  O14  1  0.38879400  0.61330700  0.76481200  1
  O  O15  1  0.66632100  0.98682700  0.05446000  1
  O  O16  1  0.23935900  0.61855600  0.37033000  1
  O  O17  1  0.50464600  0.10763300  0.31095300  1
  O  O18  1  0.05446000  0.66632100  0.98682700  1
  O  O19  1  0.34041800  0.97825400  0.28665400  1
  O  O20  1  0.02734700  0.71889000  0.64731100  1
  O  O21  1  0.01846100  0.95230300  0.32273500  1
  O  O22  1  0.10763300  0.31095300  0.50464600  1
  O  O23  1  0.31095300  0.50464600  0.10763300  1
loop_
_geom_bond_atom_site_label_1
_geom_bond_atom_site_label_2
_geom_bond_distance
_geom_bond_site_symmetry_2
Mg0 O15 2.056817 1_556
Mg0 O18 2.056817 1_655
Mg0 O2 2.056817 1_565
Mg0 O20 2.081676 1_655
Mg0 O4 2.081676 1_565
Mg0 O11 2.081676 1_556
Cr0 O13 2.010748 1_555
Cr0 O7 2.010748 1_555
Cr0 O14 2.010748 1_555
Cr0 O0 2.012729 1_555
Cr0 O6 2.012729 1_555
Cr0 O1 2.012729 1_555
Cr1 O23 1.976212 1_555
Cr1 O17 1.976212 1_555
Cr1 O22 1.976212 1_555
Cr1 O10 1.999588 1_555
Cr1 O16 1.999588 1_555
Cr1 O9 1.999588 1_555
Cr2 O3 1.997900 1_455
Cr2 O19 1.997900 1_545
Cr2 O12 1.997900 1_554
Cr2 O8 2.018071 1_554
Cr2 O5 2.018072 1_455
Cr2 O21 2.018072 1_545
O0 S2 1.487164 1_556
O1 S5 1.487164 1_655
O2 S0 1.455533 1_555
O3 S0 1.498292 1_555
O4 S1 1.461384 1_555
O5 S2 1.489915 1_555
O6 S1 1.487164 1_565
O7 S0 1.483719 1_555
O8 S1 1.489915 1_555
O9 S2 1.489814 1_555
O10 S1 1.489814 1_555
O11 S2 1.461384 1_555
O12 S3 1.498292 1_555
O13 S4 1.483719 1_555
O14 S3 1.483719 1_555
O15 S4 1.455533 1_555
O16 S5 1.489814 1_555
O17 S4 1.484023 1_545
O18 S3 1.455533 1_555
O19 S4 1.498292 1_555
O20 S5 1.461384 1_555
O21 S5 1.489915 1_555
O22 S0 1.484023 1_455
O23 S3 1.484023 1_554
