# generated using pymatgen
data_TbTiO3
_symmetry_space_group_name_H-M   'P 1'
_cell_length_a   5.36562100
_cell_length_b   5.71340000
_cell_length_c   7.72340100
_cell_angle_alpha   90.00000000
_cell_angle_beta   90.00000000
_cell_angle_gamma   90.00000000
_symmetry_Int_Tables_number   1
_chemical_formula_structural   TbTiO3
_chemical_formula_sum   'Tb4 Ti4 O12'
_cell_volume   236.76811009
_cell_formula_units_Z   4
loop_
 _symmetry_equiv_pos_site_id
 _symmetry_equiv_pos_as_xyz
  1  'x, y, z'
loop_
 _atom_site_type_symbol
 _atom_site_label
 _atom_site_symmetry_multiplicity
 _atom_site_fract_x
 _atom_site_fract_y
 _atom_site_fract_z
 _atom_site_occupancy
  Tb  Tb0  1  0.02110400  0.93021100  0.75000000  1
  Tb  Tb1  1  0.47889600  0.43021100  0.75000000  1
  Tb  Tb2  1  0.52110400  0.56978900  0.25000000  1
  Tb  Tb3  1  0.97889600  0.06978900  0.25000000  1
  Ti  Ti0  1  0.00000000  0.50000000  0.00000000  1
  Ti  Ti1  1  0.00000000  0.50000000  0.50000000  1
  Ti  Ti2  1  0.50000000  0.00000000  0.00000000  1
  Ti  Ti3  1  0.50000000  0.00000000  0.50000000  1
  O  O0  1  0.11769400  0.45696700  0.25000000  1
  O  O1  1  0.19213000  0.19905900  0.55762400  1
  O  O2  1  0.19213000  0.19905900  0.94237600  1
  O  O3  1  0.30787000  0.69905900  0.94237600  1
  O  O4  1  0.30787000  0.69905900  0.55762400  1
  O  O5  1  0.38230600  0.95696700  0.25000000  1
  O  O6  1  0.61769400  0.04303300  0.75000000  1
  O  O7  1  0.69213000  0.30094100  0.05762400  1
  O  O8  1  0.69213000  0.30094100  0.44237600  1
  O  O9  1  0.80787000  0.80094100  0.05762400  1
  O  O10  1  0.80787000  0.80094100  0.44237600  1
  O  O11  1  0.88230600  0.54303300  0.75000000  1
loop_
_geom_bond_atom_site_label_1
_geom_bond_atom_site_label_2
_geom_bond_distance
_geom_bond_site_symmetry_2
O0 Ti0 2.046320 1_555
O0 Ti1 2.046320 1_555
O0 Tb2 2.258487 1_555
O0 Tb3 2.334102 1_455
O1 Ti1 2.053569 1_555
O1 Ti3 2.054349 1_555
O1 Tb0 2.325747 1_545
O1 Tb1 2.513817 1_555
O1 Tb3 2.738511 1_455
O2 Ti0 2.053569 1_556
O2 Ti2 2.054349 1_556
O2 Tb0 2.325747 1_545
O2 Tb1 2.513817 1_555
O2 Tb3 2.738511 1_456
O3 Ti2 2.053569 1_566
O3 Ti0 2.054349 1_556
O3 Tb1 2.325747 1_555
O3 Tb0 2.513817 1_555
O3 Tb2 2.738511 1_556
O4 Ti3 2.053569 1_565
O4 Ti1 2.054349 1_555
O4 Tb1 2.325747 1_555
O4 Tb0 2.513817 1_555
O4 Tb2 2.738511 1_555
O5 Ti3 2.046320 1_565
O5 Ti2 2.046320 1_565
O5 Tb3 2.258487 1_465
O5 Tb2 2.334102 1_555
O6 Ti2 2.046320 1_556
O6 Ti3 2.046320 1_555
O6 Tb0 2.258487 1_645
O6 Tb1 2.334102 1_555
O7 Ti2 2.053569 1_555
O7 Ti0 2.054349 1_655
O7 Tb2 2.325747 1_555
O7 Tb3 2.513817 1_555
O7 Tb1 2.738511 1_554
O8 Ti3 2.053569 1_555
O8 Ti1 2.054349 1_655
O8 Tb2 2.325747 1_555
O8 Tb3 2.513817 1_555
O8 Tb1 2.738511 1_555
O9 Ti0 2.053569 1_655
O9 Ti2 2.054349 1_565
O9 Tb3 2.325747 1_565
O9 Tb2 2.513817 1_555
O9 Tb0 2.738511 1_654
O10 Ti1 2.053569 1_655
O10 Ti3 2.054349 1_565
O10 Tb3 2.325747 1_565
O10 Tb2 2.513817 1_555
O10 Tb0 2.738511 1_655
O11 Ti0 2.046320 1_656
O11 Ti1 2.046320 1_655
O11 Tb1 2.258487 1_555
O11 Tb0 2.334102 1_655
