# generated using pymatgen
data_Mn3(AgO2)4
_symmetry_space_group_name_H-M   'P 1'
_cell_length_a   8.88884500
_cell_length_b   9.25525001
_cell_length_c   9.27823444
_cell_angle_alpha   89.83637745
_cell_angle_beta   89.54830380
_cell_angle_gamma   89.52279637
_symmetry_Int_Tables_number   1
_chemical_formula_structural   Mn3(AgO2)4
_chemical_formula_sum   'Mn12 Ag16 O32'
_cell_volume   763.25310536
_cell_formula_units_Z   4
loop_
 _symmetry_equiv_pos_site_id
 _symmetry_equiv_pos_as_xyz
  1  'x, y, z'
loop_
 _atom_site_type_symbol
 _atom_site_label
 _atom_site_symmetry_multiplicity
 _atom_site_fract_x
 _atom_site_fract_y
 _atom_site_fract_z
 _atom_site_occupancy
  Mn  Mn0  1  0.12600400  0.83333100  0.07558900  1
  Mn  Mn1  1  0.34196200  0.58399100  0.12137000  1
  Mn  Mn2  1  0.59165400  0.37722500  0.16740000  1
  Mn  Mn3  1  0.09074500  0.62696000  0.32675800  1
  Mn  Mn4  1  0.83829200  0.42447000  0.36995900  1
  Mn  Mn5  1  0.62772300  0.16904600  0.41377000  1
  Mn  Mn6  1  0.87766600  0.66626700  0.58262000  1
  Mn  Mn7  1  0.66574700  0.91482000  0.62823600  1
  Mn  Mn8  1  0.41868700  0.12924100  0.66837100  1
  Mn  Mn9  1  0.91920200  0.86949800  0.83447100  1
  Mn  Mn10  1  0.16863200  0.08919400  0.87820500  1
  Mn  Mn11  1  0.37925700  0.33139500  0.92123800  1
  Ag  Ag0  1  0.98967000  0.16064100  0.20240000  1
  Ag  Ag1  1  0.29886900  0.97857900  0.33548700  1
  Ag  Ag2  1  0.12036100  0.36247900  0.61602800  1
  Ag  Ag3  1  0.40793900  0.50227100  0.53014300  1
  Ag  Ag4  1  0.78969500  0.21529400  0.91384100  1
  Ag  Ag5  1  0.62550900  0.62392700  0.87125400  1
  Ag  Ag6  1  0.17735300  0.60133800  0.78262600  1
  Ag  Ag7  1  0.26545700  0.81197300  0.59006500  1
  Ag  Ag8  1  0.88080300  0.90200100  0.34518200  1
  Ag  Ag9  1  0.95267400  0.47611800  0.97818800  1
  Ag  Ag10  1  0.67324200  0.38518700  0.69183900  1
  Ag  Ag11  1  0.25067700  0.28577400  0.34062800  1
  Ag  Ag12  1  0.98763600  0.10609400  0.55574900  1
  Ag  Ag13  1  0.49051100  0.88861800  0.94901400  1
  Ag  Ag14  1  0.72860400  0.99482200  0.11022800  1
  Ag  Ag15  1  0.54635800  0.74170000  0.34717000  1
  O  O0  1  0.91242800  0.84316700  0.03606900  1
  O  O1  1  0.15478200  0.03870400  0.07834900  1
  O  O2  1  0.33712300  0.79068100  0.09609700  1
  O  O3  1  0.11820200  0.61794600  0.11237300  1
  O  O4  1  0.36940200  0.36883500  0.13286800  1
  O  O5  1  0.55155800  0.58191800  0.15098200  1
  O  O6  1  0.80222000  0.40440900  0.16894500  1
  O  O7  1  0.59852900  0.16889700  0.21238300  1
  O  O8  1  0.10504400  0.83276500  0.28301600  1
  O  O9  1  0.30196900  0.59582500  0.32643000  1
  O  O10  1  0.05056700  0.42600700  0.33999300  1
  O  O11  1  0.86758300  0.63640800  0.36575600  1
  O  O12  1  0.61373400  0.38570800  0.38256200  1
  O  O13  1  0.83981400  0.21605800  0.39774100  1
  O  O14  1  0.65571400  0.96032500  0.42332100  1
  O  O15  1  0.41646900  0.15198100  0.45920000  1
  O  O16  1  0.09171200  0.66006200  0.53389000  1
  O  O17  1  0.86711400  0.46013500  0.57609100  1
  O  O18  1  0.66554700  0.70949400  0.59521000  1
  O  O19  1  0.88821400  0.87936800  0.61912700  1
  O  O20  1  0.63892700  0.13338300  0.63233200  1
  O  O21  1  0.45471700  0.92600900  0.66257700  1
  O  O22  1  0.20626500  0.10654100  0.67414900  1
  O  O23  1  0.41573700  0.33404400  0.71292300  1
  O  O24  1  0.91164200  0.66477900  0.78855700  1
  O  O25  1  0.70530500  0.89960900  0.82944200  1
  O  O26  1  0.95901900  0.07537400  0.83860100  1
  O  O27  1  0.14033500  0.86462300  0.86465800  1
  O  O28  1  0.39010100  0.11860300  0.88254500  1
  O  O29  1  0.16795200  0.29398400  0.90611800  1
  O  O30  1  0.36271500  0.53886100  0.91928700  1
  O  O31  1  0.59537300  0.34716100  0.96275800  1
loop_
_geom_bond_atom_site_label_1
_geom_bond_atom_site_label_2
_geom_bond_distance
_geom_bond_site_symmetry_2
Mn0 O1 1.920294 1_565
Mn0 O2 1.925234 1_555
Mn0 O8 1.932087 1_555
Mn0 O0 1.937714 1_455
Mn0 O27 1.980824 1_554
Mn0 O3 2.023152 1_555
Mn1 O5 1.885289 1_555
Mn1 O2 1.926787 1_555
Mn1 O30 1.929185 1_554
Mn1 O9 1.936005 1_555
Mn1 O4 2.006825 1_555
Mn1 O3 2.013400 1_555
Mn2 O6 1.890770 1_555
Mn2 O31 1.919769 1_554
Mn2 O5 1.930612 1_555
Mn2 O7 1.972168 1_555
Mn2 O4 2.006044 1_555
Mn2 O12 2.009309 1_555
Mn3 O9 1.897128 1_555
Mn3 O10 1.900213 1_555
Mn3 O16 1.947047 1_555
Mn3 O8 1.951370 1_555
Mn3 O3 2.004010 1_555
Mn3 O11 2.014800 1_455
Mn4 O6 1.904760 1_555
Mn4 O10 1.905248 1_655
Mn4 O13 1.945272 1_555
Mn4 O17 1.960905 1_555
Mn4 O11 1.981125 1_555
Mn4 O12 2.033383 1_555
Mn5 O7 1.888481 1_555
Mn5 O15 1.928949 1_555
Mn5 O13 1.942796 1_555
Mn5 O14 1.947521 1_545
Mn5 O12 2.028170 1_555
Mn5 O20 2.056680 1_555
Mn6 O17 1.912044 1_555
Mn6 O18 1.926920 1_555
Mn6 O24 1.936794 1_555
Mn6 O16 1.952550 1_655
Mn6 O19 2.005218 1_555
Mn6 O11 2.034562 1_555
Mn7 O21 1.902222 1_555
Mn7 O25 1.906977 1_555
Mn7 O18 1.925771 1_555
Mn7 O14 1.948731 1_555
Mn7 O19 2.002979 1_555
Mn7 O20 2.035309 1_565
Mn8 O22 1.901896 1_555
Mn8 O21 1.906241 1_545
Mn8 O23 1.941125 1_555
Mn8 O15 1.951755 1_555
Mn8 O20 1.984097 1_555
Mn8 O28 2.003594 1_555
Mn9 O0 1.886147 1_556
Mn9 O25 1.920227 1_555
Mn9 O26 1.941462 1_565
Mn9 O24 1.945035 1_555
Mn9 O27 1.987778 1_655
Mn9 O19 2.020763 1_555
Mn10 O26 1.907353 1_455
Mn10 O29 1.913680 1_555
Mn10 O1 1.916848 1_556
Mn10 O22 1.926488 1_555
Mn10 O28 1.990313 1_555
Mn10 O27 2.099943 1_545
Mn11 O29 1.919032 1_555
Mn11 O30 1.924594 1_555
Mn11 O23 1.957403 1_555
Mn11 O31 1.968928 1_555
Mn11 O4 1.995985 1_556
Mn11 O28 2.004298 1_555
Ag0 O1 2.169237 1_655
Ag0 O13 2.297421 1_555
Ag1 O15 2.245721 1_565
Ag1 O8 2.254397 1_555
Ag2 O17 2.449264 1_455
Ag2 O22 2.540474 1_555
Ag2 O10 2.701904 1_555
Ag2 O23 2.792018 1_555
Ag2 O29 2.798011 1_555
Ag3 O9 2.283550 1_555
Ag3 O23 2.299993 1_555
Ag3 O12 2.514189 1_555
Ag4 O26 2.094227 1_555
Ag4 O31 2.152851 1_555
Ag5 O30 2.507444 1_555
Ag5 O25 2.680286 1_555
Ag5 O24 2.680319 1_555
Ag5 O5 2.700160 1_556
Ag5 O18 2.700430 1_555
Ag5 O31 2.710987 1_555
Ag6 O30 2.160963 1_555
Ag6 O24 2.429243 1_455
Ag6 O16 2.492915 1_555
Ag6 O27 2.572682 1_555
Ag7 O21 2.109074 1_555
Ag7 O16 2.164858 1_555
Ag8 O8 2.163108 1_655
Ag8 O14 2.186664 1_555
Ag8 O11 2.468689 1_555
Ag8 O19 2.551070 1_555
Ag9 O6 2.309172 1_556
Ag9 O3 2.346988 1_656
Ag9 O24 2.501900 1_555
Ag9 O29 2.623547 1_655
Ag10 O17 2.142602 1_555
Ag10 O23 2.347753 1_555
Ag10 O20 2.418882 1_555
Ag10 O31 2.625445 1_555
Ag11 O10 2.193208 1_555
Ag11 O15 2.214235 1_555
Ag11 O4 2.322389 1_555
Ag12 O13 2.216111 1_555
Ag12 O22 2.239928 1_655
Ag12 O19 2.354942 1_545
Ag12 O26 2.649389 1_555
Ag13 O2 2.127699 1_556
Ag13 O25 2.203557 1_555
Ag13 O28 2.382705 1_565
Ag14 O7 2.188899 1_565
Ag14 O0 2.250117 1_555
Ag15 O5 2.348483 1_555
Ag15 O14 2.364341 1_555
Ag15 O18 2.556731 1_555
Ag15 O9 2.576004 1_555
