# generated using pymatgen
data_Na2NiH6C4N4O3
_symmetry_space_group_name_H-M   'P 1'
_cell_length_a   7.29887600
_cell_length_b   8.86728994
_cell_length_c   15.15036254
_cell_angle_alpha   89.32423102
_cell_angle_beta   87.40411777
_cell_angle_gamma   83.64063158
_symmetry_Int_Tables_number   1
_chemical_formula_structural   Na2NiH6C4N4O3
_chemical_formula_sum   'Na8 Ni4 H24 C16 N16 O12'
_cell_volume   973.49408769
_cell_formula_units_Z   4
loop_
 _symmetry_equiv_pos_site_id
 _symmetry_equiv_pos_as_xyz
  1  'x, y, z'
loop_
 _atom_site_type_symbol
 _atom_site_label
 _atom_site_symmetry_multiplicity
 _atom_site_fract_x
 _atom_site_fract_y
 _atom_site_fract_z
 _atom_site_occupancy
  Na  Na0  1  0.81346700  0.92425400  0.31108800  1
  Na  Na1  1  0.18653300  0.07574600  0.68891200  1
  Na  Na2  1  0.73971800  0.56801800  0.19281400  1
  Na  Na3  1  0.26028200  0.43198200  0.80718600  1
  Na  Na4  1  0.95350900  0.75794000  0.75677700  1
  Na  Na5  1  0.04649100  0.24206000  0.24322300  1
  Na  Na6  1  0.50000000  0.00000000  0.50000000  1
  Na  Na7  1  0.50000000  0.50000000  0.00000000  1
  Ni  Ni0  1  0.75026700  0.48839500  0.51713100  1
  Ni  Ni1  1  0.24973300  0.51160500  0.48286900  1
  Ni  Ni2  1  0.74571700  0.01217300  0.98682700  1
  Ni  Ni3  1  0.25428300  0.98782700  0.01317300  1
  H  H0  1  0.43020800  0.39884600  0.18735600  1
  H  H1  1  0.56979200  0.60115400  0.81264400  1
  H  H2  1  0.59134500  0.28719200  0.14823900  1
  H  H3  1  0.40865500  0.71280800  0.85176100  1
  H  H4  1  0.95876100  0.36290100  0.06577000  1
  H  H5  1  0.04123900  0.63709900  0.93423000  1
  H  H6  1  0.08317600  0.47797700  0.09898600  1
  H  H7  1  0.91682400  0.52202300  0.90101400  1
  H  H8  1  0.46912200  0.10750800  0.30903400  1
  H  H9  1  0.53087800  0.89249200  0.69096600  1
  H  H10  1  0.59914100  0.21042400  0.35204200  1
  H  H11  1  0.40085900  0.78957600  0.64795800  1
  H  H12  1  0.13695900  0.00607600  0.38459000  1
  H  H13  1  0.86304100  0.99392400  0.61541000  1
  H  H14  1  0.99939000  0.13390400  0.42339300  1
  H  H15  1  0.00061000  0.86609600  0.57660700  1
  H  H16  1  0.07527100  0.63844800  0.27209300  1
  H  H17  1  0.92472900  0.36155200  0.72790700  1
  H  H18  1  0.06182000  0.73045600  0.18569100  1
  H  H19  1  0.93818000  0.26954400  0.81430900  1
  H  H20  1  0.48475100  0.76930000  0.31772100  1
  H  H21  1  0.51524900  0.23070000  0.68227900  1
  H  H22  1  0.48785400  0.85040600  0.22766000  1
  H  H23  1  0.51214600  0.14959400  0.77234000  1
  C  C0  1  0.77068600  0.68686700  0.48267400  1
  C  C1  1  0.22931400  0.31313300  0.51732600  1
  C  C2  1  0.73915200  0.54290900  0.63511700  1
  C  C3  1  0.26084800  0.45709100  0.36488300  1
  C  C4  1  0.76747300  0.43356200  0.39939500  1
  C  C5  1  0.23252700  0.56643800  0.60060500  1
  C  C6  1  0.72320500  0.29030800  0.55039600  1
  C  C7  1  0.27679500  0.70969200  0.44960400  1
  C  C8  1  0.71270800  0.81663400  0.02321400  1
  C  C9  1  0.28729200  0.18336600  0.97678600  1
  C  C10  1  0.69157200  0.96625300  0.87221000  1
  C  C11  1  0.30842800  0.03374700  0.12779000  1
  C  C12  1  0.77670600  0.21102400  0.95516300  1
  C  C13  1  0.22329400  0.78897600  0.04483700  1
  C  C14  1  0.80285000  0.05330300  0.10114300  1
  C  C15  1  0.19715000  0.94669700  0.89885700  1
  N  N0  1  0.77748100  0.81277600  0.45907400  1
  N  N1  1  0.22251900  0.18722400  0.54092600  1
  N  N2  1  0.73678300  0.57337500  0.71050400  1
  N  N3  1  0.26321700  0.42662500  0.28949600  1
  N  N4  1  0.78342100  0.39789600  0.32477300  1
  N  N5  1  0.21657900  0.60210400  0.67522700  1
  N  N6  1  0.70297100  0.16543200  0.57242400  1
  N  N7  1  0.29702900  0.83456800  0.42757600  1
  N  N8  1  0.69046000  0.69408400  0.04837800  1
  N  N9  1  0.30954000  0.30591600  0.95162200  1
  N  N10  1  0.65956700  0.93608700  0.79950400  1
  N  N11  1  0.34043300  0.06391300  0.20049600  1
  N  N12  1  0.79661500  0.33809700  0.93781600  1
  N  N13  1  0.20338500  0.66190300  0.06218400  1
  N  N14  1  0.83870900  0.08081800  0.17358900  1
  N  N15  1  0.16129100  0.91918200  0.82641100  1
  O  O0  1  0.53559500  0.39215300  0.14385500  1
  O  O1  1  0.46440500  0.60784700  0.85614500  1
  O  O2  1  0.99443700  0.40817400  0.11996900  1
  O  O3  1  0.00556300  0.59182600  0.88003100  1
  O  O4  1  0.55726500  0.10949800  0.35628900  1
  O  O5  1  0.44273500  0.89050200  0.64371100  1
  O  O6  1  0.03210800  0.07944800  0.36841100  1
  O  O7  1  0.96789200  0.92055200  0.63158900  1
  O  O8  1  0.99219100  0.71307800  0.24095500  1
  O  O9  1  0.00780900  0.28692200  0.75904500  1
  O  O10  1  0.56228600  0.77670200  0.26371500  1
  O  O11  1  0.43771400  0.22329800  0.73628500  1
loop_
_geom_bond_atom_site_label_1
_geom_bond_atom_site_label_2
_geom_bond_distance
_geom_bond_site_symmetry_2
Na0 O8 2.391107 1_555
Na0 O6 2.415561 1_665
Na0 O4 2.427770 1_565
Na0 O10 2.502169 1_555
Na1 O9 2.391107 1_555
Na1 O7 2.415561 1_445
Na1 O5 2.427770 1_545
Na1 O11 2.502169 1_555
Na2 O10 2.375968 1_555
Na2 O0 2.417405 1_555
Na2 O2 2.439413 1_555
Na2 O8 2.500253 1_555
Na3 O11 2.375968 1_555
Na3 O1 2.417405 1_555
Na3 O3 2.439413 1_555
Na3 O9 2.500253 1_555
Na4 O7 2.374536 1_555
Na4 O3 2.382520 1_655
Na5 O6 2.374536 1_555
Na5 O2 2.382520 1_455
Na6 O5 2.411549 1_545
Na6 O4 2.411549 1_555
Na7 O0 2.383095 1_555
Na7 O1 2.383095 1_554
H0 O0 0.987140 1_555
H1 O1 0.987140 1_555
H2 O0 0.976381 1_555
H3 O1 0.976381 1_555
H4 O2 0.976489 1_555
H5 O3 0.976489 1_555
H6 O2 0.984481 1_455
H7 O3 0.984481 1_655
H8 O4 0.985543 1_555
H9 O5 0.985543 1_555
H10 O4 0.977719 1_555
H11 O5 0.977719 1_555
H12 O6 0.985892 1_555
H13 O7 0.985892 1_555
H14 O6 0.974683 1_655
H15 O7 0.974683 1_455
H16 O8 0.978696 1_455
H17 O9 0.978696 1_655
H18 O8 0.979188 1_455
H19 O9 0.979188 1_655
H20 O10 0.979315 1_555
H21 O11 0.979315 1_555
H22 O10 0.980034 1_555
H23 O11 0.980034 1_555
C0 N0 1.173905 1_555
C0 Ni0 1.849702 1_555
C1 N1 1.173905 1_555
C1 Ni1 1.849702 1_555
C2 N2 1.175678 1_555
C2 Ni0 1.853125 1_555
C3 N3 1.175678 1_555
C3 Ni1 1.853125 1_555
C4 N4 1.174765 1_555
C4 Ni0 1.849476 1_555
C5 N5 1.174765 1_555
C5 Ni1 1.849476 1_555
C6 N6 1.175744 1_555
C6 Ni0 1.850741 1_555
C7 N7 1.175744 1_555
C7 Ni1 1.850741 1_555
C8 N8 1.173164 1_555
C8 Ni2 1.851035 1_564
C9 N9 1.173164 1_555
C9 Ni3 1.851035 1_546
C10 N10 1.176254 1_555
C10 Ni2 1.857920 1_565
C11 N11 1.176254 1_555
C11 Ni3 1.857920 1_545
C12 N12 1.177148 1_555
C12 Ni2 1.857143 1_555
C13 N13 1.177148 1_555
C13 Ni3 1.857143 1_555
C14 N14 1.174395 1_555
C14 Ni2 1.849459 1_554
C15 N15 1.174395 1_555
C15 Ni3 1.849459 1_556
N0 Na0 2.454543 1_555
N0 Na6 2.531429 1_565
N1 Na1 2.454543 1_555
N1 Na6 2.531429 1_555
N2 Na4 2.524519 1_555
N3 Na5 2.524519 1_555
N4 Na2 2.500864 1_555
N4 Na5 2.521988 1_655
N5 Na3 2.500864 1_555
N5 Na4 2.521988 1_455
N6 Na6 2.493434 1_555
N7 Na6 2.493434 1_565
N8 Na7 2.466493 1_555
N8 Na2 2.468174 1_555
N9 Na7 2.466493 1_556
N9 Na3 2.468174 1_555
N10 Na4 2.581647 1_555
N11 Na5 2.581647 1_555
N12 Na7 2.606586 1_556
N13 Na7 2.606586 1_555
N14 Na5 2.473483 1_655
N14 Na0 2.500910 1_545
N15 Na4 2.473483 1_455
N15 Na1 2.500910 1_565
