# generated using pymatgen
data_SnH6Cl4O3
_symmetry_space_group_name_H-M   'P 1'
_cell_length_a   11.42899700
_cell_length_b   6.52675200
_cell_length_c   12.10651661
_cell_angle_alpha   89.37703038
_cell_angle_beta   90.00000000
_cell_angle_gamma   90.00000000
_symmetry_Int_Tables_number   1
_chemical_formula_structural   SnH6Cl4O3
_chemical_formula_sum   'Sn4 H24 Cl16 O12'
_cell_volume   903.02289236
_cell_formula_units_Z   4
loop_
 _symmetry_equiv_pos_site_id
 _symmetry_equiv_pos_as_xyz
  1  'x, y, z'
loop_
 _atom_site_type_symbol
 _atom_site_label
 _atom_site_symmetry_multiplicity
 _atom_site_fract_x
 _atom_site_fract_y
 _atom_site_fract_z
 _atom_site_occupancy
  Sn  Sn0  1  0.73437500  0.63590400  0.16431100  1
  Sn  Sn1  1  0.23437500  0.36409600  0.33568900  1
  Sn  Sn2  1  0.26562500  0.36409600  0.83568900  1
  Sn  Sn3  1  0.76562500  0.63590400  0.66431100  1
  H  H0  1  0.84830600  0.38500900  0.32811000  1
  H  H1  1  0.34830600  0.61499100  0.17189000  1
  H  H2  1  0.15169400  0.61499100  0.67189000  1
  H  H3  1  0.65169400  0.38500900  0.82811000  1
  H  H4  1  0.93724900  0.57159000  0.29236600  1
  H  H5  1  0.43724900  0.42841000  0.20763400  1
  H  H6  1  0.06275100  0.42841000  0.70763400  1
  H  H7  1  0.56275100  0.57159000  0.79236600  1
  H  H8  1  0.85632300  0.57410400  0.97188000  1
  H  H9  1  0.35632300  0.42589600  0.52812000  1
  H  H10  1  0.14367700  0.42589600  0.02812000  1
  H  H11  1  0.64367700  0.57410400  0.47188000  1
  H  H12  1  0.78903200  0.36230600  0.99120100  1
  H  H13  1  0.28903200  0.63769400  0.50879900  1
  H  H14  1  0.21096800  0.63769400  0.00879900  1
  H  H15  1  0.71096800  0.36230600  0.49120100  1
  H  H16  1  0.75142600  0.10813800  0.86445100  1
  H  H17  1  0.25142600  0.89186200  0.63554900  1
  H  H18  1  0.24857400  0.89186200  0.13554900  1
  H  H19  1  0.74857400  0.10813800  0.36445100  1
  H  H20  1  0.65552000  0.11675400  0.95659500  1
  H  H21  1  0.15552000  0.88324600  0.54340500  1
  H  H22  1  0.34448000  0.88324600  0.04340500  1
  H  H23  1  0.84448000  0.11675400  0.45659500  1
  Cl  Cl0  1  0.59498900  0.76716700  0.02998300  1
  Cl  Cl1  1  0.09498900  0.23283300  0.47001700  1
  Cl  Cl2  1  0.40501100  0.23283300  0.97001700  1
  Cl  Cl3  1  0.90501100  0.76716700  0.52998300  1
  Cl  Cl4  1  0.63064200  0.31320800  0.18623600  1
  Cl  Cl5  1  0.13064200  0.68679200  0.31376400  1
  Cl  Cl6  1  0.36935800  0.68679200  0.81376400  1
  Cl  Cl7  1  0.86935800  0.31320800  0.68623600  1
  Cl  Cl8  1  0.63741800  0.78700500  0.32439000  1
  Cl  Cl9  1  0.13741800  0.21299500  0.17561000  1
  Cl  Cl10  1  0.36258200  0.21299500  0.67561000  1
  Cl  Cl11  1  0.86258200  0.78700500  0.82439000  1
  Cl  Cl12  1  0.87534500  0.90173200  0.14121400  1
  Cl  Cl13  1  0.37534500  0.09826800  0.35878600  1
  Cl  Cl14  1  0.12465500  0.09826800  0.85878600  1
  Cl  Cl15  1  0.62465500  0.90173200  0.64121400  1
  O  O0  1  0.86764700  0.49205000  0.27064200  1
  O  O1  1  0.36764700  0.50795000  0.22935800  1
  O  O2  1  0.13235300  0.50795000  0.72935800  1
  O  O3  1  0.63235300  0.49205000  0.77064200  1
  O  O4  1  0.83111100  0.47642200  0.03020800  1
  O  O5  1  0.33111100  0.52357800  0.46979200  1
  O  O6  1  0.16888900  0.52357800  0.96979200  1
  O  O7  1  0.66888900  0.47642200  0.53020800  1
  O  O8  1  0.70717600  0.20347800  0.91111300  1
  O  O9  1  0.20717600  0.79652200  0.58888700  1
  O  O10  1  0.29282400  0.79652200  0.08888700  1
  O  O11  1  0.79282400  0.20347800  0.41111300  1
loop_
_geom_bond_atom_site_label_1
_geom_bond_atom_site_label_2
_geom_bond_distance
_geom_bond_site_symmetry_2
H0 O0 1.005200 1_555
H0 O11 1.670253 1_555
H1 O1 1.005200 1_555
H1 O10 1.670253 1_555
H2 O2 1.005200 1_555
H2 O9 1.670253 1_555
H3 O3 1.005200 1_555
H3 O8 1.670253 1_555
H4 O0 0.987134 1_555
H5 O1 0.987134 1_555
H6 O2 0.987134 1_555
H7 O3 0.987134 1_555
H8 O4 0.989116 1_556
H9 O5 0.989116 1_555
H10 O6 0.989116 1_554
H11 O7 0.989116 1_555
H12 O4 1.008305 1_556
H13 O5 1.008305 1_555
H14 O6 1.008305 1_554
H15 O7 1.008305 1_555
H16 O8 0.984757 1_555
H17 O9 0.984757 1_555
H18 O10 0.984757 1_555
H19 O11 0.984757 1_555
H20 O8 0.982519 1_555
H21 O9 0.982519 1_555
H22 O10 0.982519 1_555
H23 O11 0.982519 1_555
Cl0 Sn0 2.426134 1_555
Cl1 Sn1 2.426134 1_555
Cl2 Sn2 2.426134 1_555
Cl3 Sn3 2.426134 1_555
Cl4 Sn0 2.428942 1_555
Cl5 Sn1 2.428942 1_555
Cl6 Sn2 2.428942 1_555
Cl7 Sn3 2.428942 1_555
Cl8 Sn0 2.449066 1_555
Cl9 Sn1 2.449066 1_555
Cl10 Sn2 2.449066 1_555
Cl11 Sn3 2.449066 1_555
Cl12 Sn0 2.381939 1_555
Cl13 Sn1 2.381939 1_555
Cl14 Sn2 2.381939 1_555
Cl15 Sn3 2.381939 1_555
O0 Sn0 2.198276 1_555
O1 Sn1 2.198276 1_555
O2 Sn2 2.198276 1_555
O3 Sn3 2.198276 1_555
O4 Sn0 2.231228 1_555
O5 Sn1 2.231228 1_555
O6 Sn2 2.231228 1_555
O7 Sn3 2.231228 1_555
