# generated using pymatgen
data_Mn(Bi5O8)5
_symmetry_space_group_name_H-M   'P 1'
_cell_length_a   8.98959366
_cell_length_b   8.98959366
_cell_length_c   14.68229801
_cell_angle_alpha   89.99832092
_cell_angle_beta   89.99832092
_cell_angle_gamma   70.53753290
_symmetry_Int_Tables_number   1
_chemical_formula_structural   Mn(Bi5O8)5
_chemical_formula_sum   'Mn1 Bi25 O40'
_cell_volume   1118.71986442
_cell_formula_units_Z   1
loop_
 _symmetry_equiv_pos_site_id
 _symmetry_equiv_pos_as_xyz
  1  'x, y, z'
loop_
 _atom_site_type_symbol
 _atom_site_label
 _atom_site_symmetry_multiplicity
 _atom_site_fract_x
 _atom_site_fract_y
 _atom_site_fract_z
 _atom_site_occupancy
  Mn  Mn0  1  0.99885100  0.00114900  0.00000000  1
  Bi  Bi0  1  0.57867200  0.21900900  0.92142400  1
  Bi  Bi1  1  0.24060900  0.60107800  0.90225900  1
  Bi  Bi2  1  0.52671000  0.16676500  0.66465100  1
  Bi  Bi3  1  0.15971900  0.51231000  0.65246200  1
  Bi  Bi4  1  0.32740400  0.97500600  0.83013300  1
  Bi  Bi5  1  0.98921300  0.35141400  0.84699200  1
  Bi  Bi6  1  0.08825600  0.05537200  0.24964500  1
  Bi  Bi7  1  0.58222700  0.55645600  0.74855500  1
  Bi  Bi8  1  0.24233900  0.26116200  0.43064800  1
  Bi  Bi9  1  0.72767700  0.77112600  0.92803000  1
  Bi  Bi10  1  0.08985400  0.72675300  0.41465400  1
  Bi  Bi11  1  0.90457600  0.26500700  0.59526500  1
  Bi  Bi12  1  0.50172000  0.49828000  0.50000000  1
  Bi  Bi13  1  0.73499300  0.09542400  0.40473500  1
  Bi  Bi14  1  0.27324700  0.91014600  0.58534600  1
  Bi  Bi15  1  0.94462800  0.91174400  0.75035500  1
  Bi  Bi16  1  0.73883800  0.75766100  0.56935200  1
  Bi  Bi17  1  0.44354400  0.41777300  0.25144500  1
  Bi  Bi18  1  0.22887400  0.27232300  0.07197000  1
  Bi  Bi19  1  0.02499400  0.67259600  0.16986700  1
  Bi  Bi20  1  0.64858600  0.01078700  0.15300800  1
  Bi  Bi21  1  0.48769000  0.84028100  0.34753800  1
  Bi  Bi22  1  0.83323500  0.47329000  0.33534900  1
  Bi  Bi23  1  0.39892200  0.75939100  0.09774100  1
  Bi  Bi24  1  0.78099100  0.42132800  0.07857600  1
  O  O0  1  0.00275400  0.39310200  0.99908000  1
  O  O1  1  0.31990700  0.29861400  0.94210900  1
  O  O2  1  0.05190000  0.06562100  0.69297500  1
  O  O3  1  0.99807200  0.80860600  0.99981700  1
  O  O4  1  0.06388000  0.55938800  0.82121500  1
  O  O5  1  0.56847600  0.06903300  0.81262100  1
  O  O6  1  0.90374400  0.09612000  0.90348300  1
  O  O7  1  0.19139400  0.00192800  0.00018300  1
  O  O8  1  0.43415000  0.45115800  0.81596300  1
  O  O9  1  0.19065900  0.18095800  0.55758400  1
  O  O10  1  0.19547100  0.80413300  0.80686400  1
  O  O11  1  0.75193800  0.48858900  0.87129700  1
  O  O12  1  0.49611400  0.76448800  0.88080700  1
  O  O13  1  0.74190000  0.99734900  0.62608600  1
  O  O14  1  0.00517000  0.74581900  0.63300000  1
  O  O15  1  0.60689800  0.99724600  0.00092000  1
  O  O16  1  0.68258700  0.31701300  0.68579500  1
  O  O17  1  0.13624100  0.50318400  0.49940800  1
  O  O18  1  0.37478900  0.62523700  0.62620500  1
  O  O19  1  0.50225700  0.24427500  0.50039400  1
  O  O20  1  0.42377000  0.93726100  0.68988400  1
  O  O21  1  0.56589900  0.05609400  0.31690500  1
  O  O22  1  0.94390600  0.43410100  0.68309500  1
  O  O23  1  0.06273900  0.57623000  0.31011600  1
  O  O24  1  0.37476300  0.62521100  0.37379500  1
  O  O25  1  0.75572500  0.49774300  0.49960600  1
  O  O26  1  0.68298700  0.31741300  0.31420500  1
  O  O27  1  0.49681600  0.86375900  0.50059200  1
  O  O28  1  0.25418100  0.99483000  0.36700000  1
  O  O29  1  0.00265100  0.25810000  0.37391400  1
  O  O30  1  0.51141100  0.24806200  0.12870300  1
  O  O31  1  0.23551200  0.50388600  0.11919300  1
  O  O32  1  0.19586700  0.80452900  0.19313600  1
  O  O33  1  0.81904200  0.80934100  0.44241600  1
  O  O34  1  0.54884200  0.56585000  0.18403700  1
  O  O35  1  0.90388000  0.09625600  0.09651700  1
  O  O36  1  0.93096700  0.43152400  0.18737900  1
  O  O37  1  0.44061200  0.93612000  0.17878500  1
  O  O38  1  0.93437900  0.94810000  0.30702500  1
  O  O39  1  0.70138600  0.68009300  0.05789100  1
loop_
_geom_bond_atom_site_label_1
_geom_bond_atom_site_label_2
_geom_bond_distance
_geom_bond_site_symmetry_2
Mn0 O35 1.726733 1_555
Mn0 O6 1.726733 1_554
Mn0 O3 1.733231 1_544
Mn0 O7 1.733231 1_655
Bi0 O5 2.111996 1_555
Bi0 O1 2.214992 1_555
Bi0 O15 2.250284 1_546
Bi0 O8 2.575635 1_555
Bi0 O6 2.770946 1_555
Bi1 O4 2.115962 1_555
Bi1 O8 2.210478 1_555
Bi1 O10 2.228162 1_555
Bi1 O1 2.636648 1_555
Bi1 O3 2.752329 1_455
Bi2 O13 2.102138 1_545
Bi2 O16 2.268372 1_555
Bi2 O5 2.326565 1_555
Bi2 O19 2.499569 1_555
Bi2 O20 2.553893 1_545
Bi3 O14 2.115391 1_555
Bi3 O17 2.261126 1_555
Bi3 O22 2.317183 1_455
Bi3 O18 2.495002 1_555
Bi3 O4 2.610987 1_555
Bi4 O12 2.126625 1_555
Bi4 O20 2.215821 1_555
Bi4 O10 2.257652 1_555
Bi4 O5 2.587992 1_565
Bi4 O7 2.754961 1_566
Bi5 O11 2.108295 1_555
Bi5 O4 2.219322 1_655
Bi5 O0 2.274208 1_655
Bi5 O22 2.511436 1_555
Bi5 O6 2.778512 1_555
Bi6 O38 2.107603 1_445
Bi6 O28 2.224651 1_545
Bi6 O32 2.292494 1_545
Bi6 O29 2.511583 1_555
Bi6 O35 2.744308 1_455
Bi7 O8 2.118264 1_555
Bi7 O16 2.236574 1_555
Bi7 O11 2.308096 1_555
Bi7 O18 2.513661 1_555
Bi7 O12 2.627256 1_555
Bi8 O9 2.105276 1_555
Bi8 O17 2.297767 1_555
Bi8 O29 2.318830 1_555
Bi8 O19 2.508974 1_555
Bi8 O28 2.539129 1_545
Bi9 O39 2.118884 1_556
Bi9 O12 2.213695 1_555
Bi9 O15 2.232820 1_556
Bi9 O11 2.612172 1_555
Bi9 O3 2.771076 1_555
Bi10 O23 2.113322 1_555
Bi10 O17 2.281021 1_555
Bi10 O33 2.332297 1_455
Bi10 O24 2.488966 1_555
Bi10 O38 2.560601 1_455
Bi11 O22 2.111132 1_555
Bi11 O16 2.312113 1_555
Bi11 O2 2.332998 1_655
Bi11 O9 2.489183 1_655
Bi11 O25 2.504955 1_555
Bi12 O18 2.273825 1_555
Bi12 O24 2.273825 1_555
Bi12 O25 2.281805 1_555
Bi12 O19 2.281805 1_555
Bi13 O21 2.111132 1_555
Bi13 O26 2.312113 1_555
Bi13 O38 2.332998 1_545
Bi13 O33 2.489183 1_545
Bi13 O19 2.504955 1_555
Bi14 O20 2.113322 1_555
Bi14 O27 2.281021 1_555
Bi14 O9 2.332297 1_565
Bi14 O18 2.488966 1_555
Bi14 O2 2.560601 1_565
Bi15 O2 2.107603 1_665
Bi15 O14 2.224651 1_655
Bi15 O10 2.292494 1_655
Bi15 O13 2.511583 1_555
Bi15 O6 2.744308 1_565
Bi16 O33 2.105276 1_555
Bi16 O27 2.297767 1_555
Bi16 O13 2.318830 1_555
Bi16 O25 2.508974 1_555
Bi16 O14 2.539129 1_655
Bi17 O34 2.118264 1_555
Bi17 O26 2.236574 1_555
Bi17 O30 2.308096 1_555
Bi17 O24 2.513661 1_555
Bi17 O31 2.627256 1_555
Bi18 O1 2.118884 1_554
Bi18 O31 2.213695 1_555
Bi18 O0 2.232820 1_554
Bi18 O30 2.612172 1_555
Bi18 O7 2.771076 1_555
Bi19 O31 2.126625 1_555
Bi19 O23 2.215821 1_555
Bi19 O32 2.257652 1_555
Bi19 O36 2.587992 1_455
Bi19 O3 2.754961 1_454
Bi20 O30 2.108295 1_555
Bi20 O37 2.219322 1_545
Bi20 O15 2.274208 1_545
Bi20 O21 2.511436 1_555
Bi20 O35 2.778512 1_555
Bi21 O28 2.115391 1_555
Bi21 O27 2.261126 1_555
Bi21 O21 2.317183 1_565
Bi21 O24 2.495002 1_555
Bi21 O37 2.610987 1_555
Bi22 O29 2.102138 1_655
Bi22 O26 2.268372 1_555
Bi22 O36 2.326565 1_555
Bi22 O25 2.499569 1_555
Bi22 O23 2.553893 1_655
Bi23 O37 2.115962 1_555
Bi23 O34 2.210478 1_555
Bi23 O32 2.228162 1_555
Bi23 O39 2.636648 1_555
Bi23 O7 2.752329 1_565
Bi24 O36 2.111996 1_555
Bi24 O39 2.214992 1_555
Bi24 O0 2.250284 1_654
Bi24 O34 2.575635 1_555
Bi24 O35 2.770946 1_555
