# generated using pymatgen
data_H5CSN2ClO4
_symmetry_space_group_name_H-M   'P 1'
_cell_length_a   5.73256700
_cell_length_b   7.58219890
_cell_length_c   9.26458220
_cell_angle_alpha   99.17572873
_cell_angle_beta   104.29636441
_cell_angle_gamma   94.03065341
_symmetry_Int_Tables_number   1
_chemical_formula_structural   H5CSN2ClO4
_chemical_formula_sum   'H10 C2 S2 N4 Cl2 O8'
_cell_volume   382.68563744
_cell_formula_units_Z   2
loop_
 _symmetry_equiv_pos_site_id
 _symmetry_equiv_pos_as_xyz
  1  'x, y, z'
loop_
 _atom_site_type_symbol
 _atom_site_label
 _atom_site_symmetry_multiplicity
 _atom_site_fract_x
 _atom_site_fract_y
 _atom_site_fract_z
 _atom_site_occupancy
  H  H0  1  0.22583000  0.37914200  0.90655400  1
  H  H1  1  0.77417000  0.62085800  0.09344600  1
  H  H2  1  0.48850400  0.42730700  0.77029400  1
  H  H3  1  0.51149600  0.57269300  0.22970600  1
  H  H4  1  0.28829700  0.16989200  0.91084500  1
  H  H5  1  0.71170300  0.83010800  0.08915500  1
  H  H6  1  0.57189900  0.91691600  0.72611900  1
  H  H7  1  0.42810100  0.08308400  0.27388100  1
  H  H8  1  0.78789900  0.44182400  0.62497000  1
  H  H9  1  0.21210100  0.55817600  0.37503000  1
  C  C0  1  0.57649400  0.17094200  0.74243200  1
  C  C1  1  0.42350600  0.82905800  0.25756800  1
  S  S0  1  0.74808300  0.18310900  0.61889700  1
  S  S1  1  0.25191700  0.81689100  0.38110300  1
  N  N0  1  0.47288600  0.30501100  0.80112300  1
  N  N1  1  0.52711400  0.69498900  0.19887700  1
  N  N2  1  0.36365400  0.29905900  0.92101800  1
  N  N3  1  0.63634600  0.70094100  0.07898200  1
  Cl  Cl0  1  0.02866000  0.69468800  0.75259500  1
  Cl  Cl1  1  0.97134000  0.30531200  0.24740500  1
  O  O0  1  0.01439900  0.64176700  0.89648000  1
  O  O1  1  0.98560100  0.35823300  0.10352000  1
  O  O2  1  0.53315100  0.01699800  0.79371000  1
  O  O3  1  0.46684900  0.98300200  0.20629000  1
  O  O4  1  0.78883100  0.58189600  0.62309400  1
  O  O5  1  0.21116900  0.41810400  0.37690600  1
  O  O6  1  0.24297300  0.63498400  0.70838800  1
  O  O7  1  0.75702700  0.36501600  0.29161200  1
loop_
_geom_bond_atom_site_label_1
_geom_bond_atom_site_label_2
_geom_bond_distance
_geom_bond_site_symmetry_2
H0 N2 1.025668 1_555
H1 N3 1.025668 1_555
H2 N0 1.017277 1_555
H3 N1 1.017277 1_555
H4 N2 1.022566 1_555
H5 N3 1.022566 1_555
H6 O2 0.978852 1_565
H7 O3 0.978852 1_545
H8 O4 1.064624 1_555
H8 S0 1.949042 1_555
H9 O5 1.064624 1_555
H9 S1 1.949042 1_555
C0 N0 1.322826 1_555
C0 O2 1.358027 1_555
C0 S0 1.691999 1_555
C1 N1 1.322826 1_555
C1 O3 1.358027 1_555
C1 S1 1.691999 1_555
N0 N2 1.408365 1_555
N1 N3 1.408365 1_555
Cl0 O6 1.466148 1_555
Cl0 O0 1.471215 1_555
Cl0 O4 1.659471 1_455
Cl1 O7 1.466148 1_555
Cl1 O1 1.471215 1_555
Cl1 O5 1.659471 1_655
