# generated using pymatgen
data_Li12MnCo3P4(CO7)4
_symmetry_space_group_name_H-M   'P 1'
_cell_length_a   6.49318900
_cell_length_b   8.46067100
_cell_length_c   10.02954912
_cell_angle_alpha   85.11513224
_cell_angle_beta   90.00000000
_cell_angle_gamma   90.00000000
_symmetry_Int_Tables_number   1
_chemical_formula_structural   Li12MnCo3P4(CO7)4
_chemical_formula_sum   'Li12 Mn1 Co3 P4 C4 O28'
_cell_volume   548.98939396
_cell_formula_units_Z   1
loop_
 _symmetry_equiv_pos_site_id
 _symmetry_equiv_pos_as_xyz
  1  'x, y, z'
loop_
 _atom_site_type_symbol
 _atom_site_label
 _atom_site_symmetry_multiplicity
 _atom_site_fract_x
 _atom_site_fract_y
 _atom_site_fract_z
 _atom_site_occupancy
  Li  Li0  1  0.00000000  0.90071800  0.61734500  1
  Li  Li1  1  0.00000000  0.90617500  0.11785800  1
  Li  Li2  1  0.22674900  0.72242000  0.87410600  1
  Li  Li3  1  0.77325100  0.72242000  0.87410600  1
  Li  Li4  1  0.22825800  0.72474300  0.37645000  1
  Li  Li5  1  0.77174200  0.72474300  0.37645000  1
  Li  Li6  1  0.72682000  0.27760000  0.62625700  1
  Li  Li7  1  0.27318000  0.27760000  0.62625700  1
  Li  Li8  1  0.72650800  0.27611400  0.12235500  1
  Li  Li9  1  0.27349200  0.27611400  0.12235500  1
  Li  Li10  1  0.50000000  0.09816300  0.88328500  1
  Li  Li11  1  0.50000000  0.09878600  0.38375800  1
  Mn  Mn0  1  0.00000000  0.33925000  0.38850500  1
  Co  Co0  1  0.50000000  0.66801900  0.60542000  1
  Co  Co1  1  0.50000000  0.66886200  0.10448100  1
  Co  Co2  1  0.00000000  0.33154900  0.89521200  1
  P  P0  1  0.00000000  0.58590100  0.64135800  1
  P  P1  1  0.00000000  0.58985300  0.13629000  1
  P  P2  1  0.50000000  0.41341500  0.86103400  1
  P  P3  1  0.50000000  0.41289800  0.36197700  1
  C  C0  1  0.50000000  0.96220700  0.64935000  1
  C  C1  1  0.50000000  0.96283800  0.14916500  1
  C  C2  1  0.00000000  0.03826500  0.84995900  1
  C  C3  1  0.00000000  0.03219800  0.35093300  1
  O  O0  1  0.50000000  0.92753500  0.52611000  1
  O  O1  1  0.00000000  0.89245100  0.81906100  1
  O  O2  1  0.50000000  0.92835000  0.02611900  1
  O  O3  1  0.50000000  0.84494500  0.74307800  1
  O  O4  1  0.00000000  0.88547200  0.32038400  1
  O  O5  1  0.50000000  0.84523300  0.24289900  1
  O  O6  1  0.18670900  0.68977100  0.58910800  1
  O  O7  1  0.81329100  0.68977100  0.58910800  1
  O  O8  1  0.18721000  0.69166900  0.08361700  1
  O  O9  1  0.81279000  0.69166900  0.08361700  1
  O  O10  1  0.50000000  0.57975500  0.91389000  1
  O  O11  1  0.00000000  0.56685300  0.79765000  1
  O  O12  1  0.50000000  0.58004800  0.41467200  1
  O  O13  1  0.00000000  0.57442300  0.29231800  1
  O  O14  1  0.50000000  0.43318600  0.70515500  1
  O  O15  1  0.00000000  0.41953000  0.58991000  1
  O  O16  1  0.50000000  0.43414000  0.20550300  1
  O  O17  1  0.00000000  0.42022500  0.08853800  1
  O  O18  1  0.31336800  0.30924500  0.91291500  1
  O  O19  1  0.68663200  0.30924500  0.91291500  1
  O  O20  1  0.68427000  0.30900100  0.41458500  1
  O  O21  1  0.31573000  0.30900100  0.41458500  1
  O  O22  1  0.00000000  0.15497600  0.75612000  1
  O  O23  1  0.50000000  0.10770100  0.68143800  1
  O  O24  1  0.00000000  0.14559500  0.25429500  1
  O  O25  1  0.00000000  0.07402200  0.97315000  1
  O  O26  1  0.50000000  0.10829600  0.18129400  1
  O  O27  1  0.00000000  0.06704500  0.47370100  1
loop_
_geom_bond_atom_site_label_1
_geom_bond_atom_site_label_2
_geom_bond_distance
_geom_bond_site_symmetry_2
Li0 O27 1.926295 1_565
Li0 O1 2.018368 1_555
Li0 O6 2.195767 1_555
Li0 O7 2.195767 1_455
Li1 O25 1.942189 1_564
Li1 O4 2.023868 1_555
Li1 O8 2.235057 1_555
Li1 O9 2.235057 1_455
Li1 O24 2.539266 1_565
Li2 O1 2.099231 1_555
Li2 O8 2.110915 1_556
Li2 O11 2.158709 1_555
Li2 O10 2.163833 1_555
Li2 O3 2.391161 1_555
Li3 O1 2.099231 1_655
Li3 O9 2.110915 1_556
Li3 O11 2.158709 1_655
Li3 O10 2.163833 1_555
Li3 O3 2.391161 1_555
Li4 O4 2.057162 1_555
Li4 O6 2.145219 1_555
Li4 O12 2.163123 1_555
Li4 O13 2.170013 1_555
Li4 O5 2.390436 1_555
Li5 O4 2.057162 1_655
Li5 O7 2.145219 1_555
Li5 O12 2.163123 1_555
Li5 O13 2.170013 1_655
Li5 O5 2.390436 1_555
Li6 O23 2.099094 1_555
Li6 O20 2.134919 1_555
Li6 O15 2.155624 1_655
Li6 O14 2.169212 1_555
Li6 O22 2.385174 1_655
Li7 O23 2.099094 1_555
Li7 O21 2.134919 1_555
Li7 O15 2.155624 1_555
Li7 O14 2.169212 1_555
Li7 O22 2.385174 1_555
Li8 O26 2.094185 1_555
Li8 O19 2.111352 1_554
Li8 O17 2.164447 1_655
Li8 O16 2.199104 1_555
Li8 O24 2.423896 1_655
Li9 O26 2.094185 1_555
Li9 O18 2.111352 1_554
Li9 O17 2.164447 1_555
Li9 O16 2.199104 1_555
Li9 O24 2.423896 1_555
Li10 O2 1.940593 1_546
Li10 O23 2.019164 1_555
Li10 O18 2.199243 1_555
Li10 O19 2.199243 1_555
Li11 O0 1.945612 1_545
Li11 O26 2.025358 1_555
Li11 O21 2.187266 1_555
Li11 O20 2.187266 1_555
Mn0 O20 2.079761 1_455
Mn0 O21 2.079761 1_555
Mn0 O13 2.136060 1_555
Mn0 O15 2.185273 1_555
Mn0 O24 2.207266 1_555
Mn0 O27 2.387250 1_555
Co0 O7 2.047855 1_555
Co0 O6 2.047855 1_555
Co0 O12 2.111041 1_555
Co0 O3 2.121064 1_555
Co0 O14 2.147014 1_555
Co0 O0 2.270747 1_555
Co1 O9 2.049177 1_555
Co1 O8 2.049177 1_555
Co1 O10 2.113717 1_554
Co1 O5 2.122926 1_555
Co1 O16 2.151215 1_555
Co1 O2 2.267995 1_555
Co2 O18 2.049797 1_555
Co2 O19 2.049797 1_455
Co2 O22 2.129051 1_555
Co2 O17 2.137815 1_556
Co2 O11 2.142220 1_555
Co2 O25 2.251301 1_555
C0 O0 1.294451 1_555
C0 O23 1.298594 1_565
C0 O3 1.307345 1_555
C1 O2 1.292077 1_555
C1 O26 1.298434 1_565
C1 O5 1.309410 1_555
C2 O25 1.296829 1_555
C2 O1 1.297351 1_545
C2 O22 1.304828 1_555
C3 O27 1.290298 1_555
C3 O4 1.303737 1_545
C3 O24 1.304425 1_555
O6 P0 1.561492 1_555
O7 P0 1.561492 1_655
O8 P1 1.556055 1_555
O9 P1 1.556055 1_655
O10 P2 1.545548 1_555
O11 P0 1.562090 1_555
O12 P3 1.551314 1_555
O13 P1 1.559209 1_555
O14 P2 1.558092 1_555
O15 P0 1.539910 1_555
O16 P3 1.564342 1_555
O17 P1 1.551173 1_555
O18 P2 1.561402 1_555
O19 P2 1.561402 1_555
O20 P3 1.550396 1_555
O21 P3 1.550396 1_555
