# generated using pymatgen
data_LiV2O2F3
_symmetry_space_group_name_H-M   'P 1'
_cell_length_a   5.36727082
_cell_length_b   5.36727082
_cell_length_c   10.14719125
_cell_angle_alpha   89.85963064
_cell_angle_beta   89.85963064
_cell_angle_gamma   43.28391352
_symmetry_Int_Tables_number   1
_chemical_formula_structural   LiV2O2F3
_chemical_formula_sum   'Li2 V4 O4 F6'
_cell_volume   200.41537226
_cell_formula_units_Z   2
loop_
 _symmetry_equiv_pos_site_id
 _symmetry_equiv_pos_as_xyz
  1  'x, y, z'
loop_
 _atom_site_type_symbol
 _atom_site_label
 _atom_site_symmetry_multiplicity
 _atom_site_fract_x
 _atom_site_fract_y
 _atom_site_fract_z
 _atom_site_occupancy
  Li  Li0  1  0.86858400  0.86858400  0.05408300  1
  Li  Li1  1  0.13141600  0.13141600  0.94591700  1
  V  V0  1  0.86212000  0.86212000  0.44566000  1
  V  V1  1  0.81089500  0.81089500  0.74445900  1
  V  V2  1  0.18910500  0.18910500  0.25554100  1
  V  V3  1  0.13788000  0.13788000  0.55434000  1
  O  O0  1  0.95808000  0.95808000  0.61963300  1
  O  O1  1  0.30594300  0.30594300  0.42192600  1
  O  O2  1  0.69405700  0.69405700  0.57807400  1
  O  O3  1  0.04192000  0.04192000  0.38036700  1
  F  F0  1  0.95085600  0.95085600  0.88009300  1
  F  F1  1  0.30813900  0.30813900  0.09641500  1
  F  F2  1  0.73766100  0.73766100  0.26063600  1
  F  F3  1  0.26233900  0.26233900  0.73936400  1
  F  F4  1  0.69186100  0.69186100  0.90358500  1
  F  F5  1  0.04914400  0.04914400  0.11990700  1
loop_
_geom_bond_atom_site_label_1
_geom_bond_atom_site_label_2
_geom_bond_distance
_geom_bond_site_symmetry_2
O0 V3 1.910806 1_665
O0 V1 1.936828 1_555
O0 V0 2.010492 1_555
O1 V2 2.054248 1_555
O1 V0 2.071529 1_455
O1 V0 2.071529 1_545
O1 V3 2.146036 1_555
O2 V1 2.054248 1_555
O2 V3 2.071529 1_655
O2 V3 2.071529 1_565
O2 V0 2.146036 1_555
O3 V0 1.910806 1_445
O3 V2 1.936828 1_555
O3 V3 2.010492 1_555
F0 Li1 1.923076 1_665
F0 Li0 1.945059 1_556
F0 V1 1.963307 1_555
F1 V2 2.001929 1_555
F1 Li0 2.113107 1_455
F1 Li0 2.113107 1_545
F1 Li1 2.335722 1_554
F2 V2 2.038593 1_655
F2 V2 2.038593 1_565
F2 V0 2.253739 1_555
F2 Li0 2.466778 1_555
F3 V1 2.038593 1_545
F3 V1 2.038593 1_455
F3 V3 2.253739 1_555
F3 Li1 2.466778 1_555
F4 V1 2.001929 1_555
F4 Li1 2.113107 1_565
F4 Li1 2.113107 1_655
F4 Li0 2.335722 1_556
F5 Li0 1.923076 1_445
F5 Li1 1.945059 1_554
F5 V2 1.963307 1_555
