# generated using pymatgen
data_Li2V(PO4)2
_symmetry_space_group_name_H-M   'P 1'
_cell_length_a   17.38433100
_cell_length_b   4.89746600
_cell_length_c   6.59392341
_cell_angle_alpha   85.13495872
_cell_angle_beta   90.00000000
_cell_angle_gamma   90.00000000
_symmetry_Int_Tables_number   1
_chemical_formula_structural   Li2V(PO4)2
_chemical_formula_sum   'Li8 V4 P8 O32'
_cell_volume   559.37856518
_cell_formula_units_Z   4
loop_
 _symmetry_equiv_pos_site_id
 _symmetry_equiv_pos_as_xyz
  1  'x, y, z'
loop_
 _atom_site_type_symbol
 _atom_site_label
 _atom_site_symmetry_multiplicity
 _atom_site_fract_x
 _atom_site_fract_y
 _atom_site_fract_z
 _atom_site_occupancy
  Li  Li0  1  0.37981700  0.53667700  0.74240400  1
  Li  Li1  1  0.11703200  0.03362100  0.26245100  1
  Li  Li2  1  0.19512200  0.55962700  0.07041200  1
  Li  Li3  1  0.87981700  0.46332300  0.25759600  1
  Li  Li4  1  0.44492400  0.01605800  0.95156900  1
  Li  Li5  1  0.61703200  0.96637900  0.73754900  1
  Li  Li6  1  0.69512200  0.44037300  0.92958800  1
  Li  Li7  1  0.94492400  0.98394200  0.04843100  1
  V  V0  1  0.87033000  0.45983300  0.72824700  1
  V  V1  1  0.37033000  0.54016700  0.27175300  1
  V  V2  1  0.62709600  0.94302300  0.24726400  1
  V  V3  1  0.12709600  0.05697700  0.75273600  1
  P  P0  1  0.28695100  0.08043900  0.02904800  1
  P  P1  1  0.78695100  0.91956100  0.97095200  1
  P  P2  1  0.46373800  0.01823800  0.47540100  1
  P  P3  1  0.03709200  0.51839100  0.97507100  1
  P  P4  1  0.96373800  0.98176200  0.52459900  1
  P  P5  1  0.21409600  0.58301300  0.52962100  1
  P  P6  1  0.71409600  0.41698700  0.47037900  1
  P  P7  1  0.53709200  0.48160900  0.02492900  1
  O  O0  1  0.19194800  0.27089100  0.57203000  1
  O  O1  1  0.06803200  0.37890700  0.16787100  1
  O  O2  1  0.67638400  0.29582100  0.66226200  1
  O  O3  1  0.05382900  0.96775600  0.54505700  1
  O  O4  1  0.30403800  0.60140900  0.50651800  1
  O  O5  1  0.69194800  0.72910900  0.42797000  1
  O  O6  1  0.93013300  0.12344600  0.70936400  1
  O  O7  1  0.33457200  0.19100600  0.85135300  1
  O  O8  1  0.93515300  0.67544800  0.54571100  1
  O  O9  1  0.69203900  0.27232600  0.27537100  1
  O  O10  1  0.06199300  0.83123200  0.95861300  1
  O  O11  1  0.30374700  0.76456700  0.07640100  1
  O  O12  1  0.43013300  0.87655400  0.29063600  1
  O  O13  1  0.44653200  0.47532600  0.03717900  1
  O  O14  1  0.83457200  0.80899400  0.14864700  1
  O  O15  1  0.06829200  0.38106300  0.78647800  1
  O  O16  1  0.30483300  0.23134700  0.22389200  1
  O  O17  1  0.55382900  0.03224400  0.45494300  1
  O  O18  1  0.94070900  0.11890400  0.32203200  1
  O  O19  1  0.94653200  0.52467400  0.96282100  1
  O  O20  1  0.69792400  0.87865200  0.00393500  1
  O  O21  1  0.56829200  0.61893700  0.21352200  1
  O  O22  1  0.80403800  0.39859100  0.49348200  1
  O  O23  1  0.80374700  0.23543300  0.92359900  1
  O  O24  1  0.19792400  0.12134800  0.99606500  1
  O  O25  1  0.44070900  0.88109600  0.67796800  1
  O  O26  1  0.56199300  0.16876800  0.04138700  1
  O  O27  1  0.80483300  0.76865300  0.77610800  1
  O  O28  1  0.17638400  0.70417900  0.33773800  1
  O  O29  1  0.43515300  0.32455200  0.45428900  1
  O  O30  1  0.56803200  0.62109300  0.83212900  1
  O  O31  1  0.19203900  0.72767400  0.72462900  1
loop_
_geom_bond_atom_site_label_1
_geom_bond_atom_site_label_2
_geom_bond_distance
_geom_bond_site_symmetry_2
Li0 O7 1.947930 1_555
Li0 O25 2.006179 1_555
Li0 O4 2.042458 1_555
Li0 O13 2.261505 1_556
Li0 O29 2.438997 1_555
Li1 O28 1.943798 1_545
Li1 O1 1.948140 1_555
Li1 O3 2.163768 1_545
Li1 O24 2.262637 1_554
Li1 O10 2.499749 1_544
Li2 O28 1.981455 1_555
Li2 O11 2.140472 1_555
Li2 O24 2.242424 1_554
Li2 O31 2.358097 1_554
Li2 O1 2.445648 1_555
Li3 O14 1.947930 1_555
Li3 O18 2.006179 1_555
Li3 O22 2.042458 1_555
Li3 O19 2.261505 1_554
Li3 O8 2.438997 1_555
Li4 O25 1.974666 1_545
Li4 O7 2.180595 1_555
Li4 O26 2.264319 1_556
Li4 O12 2.296198 1_546
Li4 O13 2.365151 1_556
Li5 O2 1.943798 1_565
Li5 O30 1.948140 1_555
Li5 O17 2.163768 1_565
Li5 O20 2.262637 1_556
Li5 O26 2.499749 1_566
Li6 O2 1.981455 1_555
Li6 O23 2.140472 1_555
Li6 O20 2.242424 1_556
Li6 O9 2.358097 1_556
Li6 O30 2.445648 1_555
Li7 O18 1.974666 1_565
Li7 O14 2.180595 1_555
Li7 O10 2.264319 1_654
Li7 O6 2.296198 1_564
Li7 O19 2.365151 1_554
O0 P5 1.578157 1_555
O0 V3 1.891209 1_555
O1 P3 1.491602 1_554
O2 P6 1.501824 1_555
O3 P4 1.572968 1_455
O3 V3 1.946803 1_565
O4 P5 1.572827 1_555
O4 V1 1.973121 1_555
O5 P6 1.578157 1_555
O5 V2 1.891209 1_555
O6 P4 1.565404 1_545
O6 V0 1.960921 1_555
O7 P0 1.497949 1_556
O8 P4 1.575241 1_555
O8 V0 1.902135 1_555
O9 P6 1.567464 1_555
O9 V2 1.990133 1_545
O10 P3 1.586941 1_555
O10 V3 2.022757 1_565
O11 P0 1.579223 1_565
O11 V1 1.991674 1_555
O12 P2 1.565404 1_565
O12 V1 1.960921 1_555
O13 P7 1.576562 1_555
O13 V1 2.081230 1_555
O14 P1 1.497949 1_554
O15 P3 1.560400 1_555
O15 V3 1.916674 1_555
O16 P0 1.566714 1_555
O16 V1 1.940226 1_555
O17 P2 1.572968 1_555
O17 V2 1.946803 1_545
O18 P4 1.497779 1_545
O19 P3 1.576562 1_655
O19 V0 2.081230 1_555
O20 P1 1.573324 1_554
O20 V2 2.067770 1_555
O21 P7 1.560400 1_555
O21 V2 1.916674 1_555
O22 P6 1.572827 1_555
O22 V0 1.973121 1_555
O23 P1 1.579223 1_545
O23 V0 1.991674 1_555
O24 P0 1.573324 1_556
O24 V3 2.067770 1_555
O25 P2 1.497779 1_565
O26 P7 1.586941 1_555
O26 V2 2.022757 1_545
O27 P1 1.566714 1_555
O27 V0 1.940226 1_555
O28 P5 1.501824 1_555
O29 P2 1.575241 1_555
O29 V1 1.902135 1_555
O30 P7 1.491602 1_556
O31 P5 1.567464 1_555
O31 V3 1.990133 1_565
