# generated using pymatgen
data_BaPt2
_symmetry_space_group_name_H-M   'P 1'
_cell_length_a   5.67792053
_cell_length_b   5.67791873
_cell_length_c   5.67791948
_cell_angle_alpha   60.00000170
_cell_angle_beta   60.00001217
_cell_angle_gamma   60.00000111
_symmetry_Int_Tables_number   1
_chemical_formula_structural   BaPt2
_chemical_formula_sum   'Ba2 Pt4'
_cell_volume   129.43530837
_cell_formula_units_Z   2
loop_
 _symmetry_equiv_pos_site_id
 _symmetry_equiv_pos_as_xyz
  1  'x, y, z'
loop_
 _atom_site_type_symbol
 _atom_site_label
 _atom_site_symmetry_multiplicity
 _atom_site_fract_x
 _atom_site_fract_y
 _atom_site_fract_z
 _atom_site_occupancy
  Ba  Ba0  1  0.87500000  0.87500000  0.87500000  1
  Ba  Ba1  1  0.12500000  0.12500000  0.12500000  1
  Pt  Pt0  1  0.50000000  0.50000000  0.50000000  1
  Pt  Pt1  1  0.50000000  0.50000000  0.00000000  1
  Pt  Pt2  1  0.00000000  0.50000000  0.50000000  1
  Pt  Pt3  1  0.50000000  0.00000000  0.50000000  1
loop_
_geom_bond_atom_site_label_1
_geom_bond_atom_site_label_2
_geom_bond_distance
_geom_bond_site_symmetry_2
Ba0 Pt1 3.328975 1_566
Ba0 Pt2 3.328975 1_655
Ba0 Pt2 3.328975 1_665
Ba0 Pt0 3.328975 1_565
Ba0 Pt2 3.328975 1_656
Ba0 Pt3 3.328976 1_565
Ba0 Pt1 3.328976 1_556
Ba0 Pt3 3.328976 1_566
Ba0 Pt1 3.328976 1_656
Ba0 Pt0 3.328976 1_556
Ba0 Pt0 3.328976 1_655
Ba0 Pt3 3.328976 1_665
Ba1 Pt1 3.328975 1_545
Ba1 Pt2 3.328975 1_555
Ba1 Pt2 3.328975 1_545
Ba1 Pt0 3.328975 1_545
Ba1 Pt2 3.328975 1_554
Ba1 Pt3 3.328976 1_555
Ba1 Pt1 3.328976 1_555
Ba1 Pt3 3.328976 1_554
Ba1 Pt1 3.328976 1_455
Ba1 Pt0 3.328976 1_554
Ba1 Pt0 3.328976 1_455
Ba1 Pt3 3.328976 1_455
Pt0 Pt3 2.838959 1_565
Pt0 Pt3 2.838959 1_555
Pt0 Pt1 2.838960 1_555
Pt0 Pt1 2.838960 1_556
Pt0 Pt2 2.838960 1_655
Pt0 Pt2 2.838960 1_555
Pt1 Pt3 2.838960 1_564
Pt1 Pt3 2.838960 1_555
Pt1 Pt2 2.838961 1_555
Pt1 Pt2 2.838961 1_654
Pt2 Pt3 2.838960 1_465
Pt2 Pt3 2.838960 1_555
