# generated using pymatgen
data_Li5LaO4
_symmetry_space_group_name_H-M   'P 1'
_cell_length_a   13.84296200
_cell_length_b   13.84296200
_cell_length_c   4.86188800
_cell_angle_alpha   90.00000000
_cell_angle_beta   90.00000000
_cell_angle_gamma   90.00000000
_symmetry_Int_Tables_number   1
_chemical_formula_structural   Li5LaO4
_chemical_formula_sum   'Li40 La8 O32'
_cell_volume   931.67191400
_cell_formula_units_Z   8
loop_
 _symmetry_equiv_pos_site_id
 _symmetry_equiv_pos_as_xyz
  1  'x, y, z'
loop_
 _atom_site_type_symbol
 _atom_site_label
 _atom_site_symmetry_multiplicity
 _atom_site_fract_x
 _atom_site_fract_y
 _atom_site_fract_z
 _atom_site_occupancy
  Li  Li0  1  0.75645900  0.24354100  0.00000000  1
  Li  Li1  1  0.74354100  0.25645900  0.50000000  1
  Li  Li2  1  0.24354100  0.24354100  0.00000000  1
  Li  Li3  1  0.25645900  0.25645900  0.50000000  1
  Li  Li4  1  0.11023700  0.35882000  0.56819300  1
  Li  Li5  1  0.88976300  0.35882000  0.56819300  1
  Li  Li6  1  0.37211500  0.37211500  0.00000000  1
  Li  Li7  1  0.62788500  0.37211500  0.00000000  1
  Li  Li8  1  0.85882000  0.38976300  0.06819300  1
  Li  Li9  1  0.14118000  0.38976300  0.06819300  1
  Li  Li10  1  0.00000000  0.50000000  0.08926300  1
  Li  Li11  1  0.50000000  0.50000000  0.50000000  1
  Li  Li12  1  0.50000000  0.50000000  0.00000000  1
  Li  Li13  1  0.00000000  0.50000000  0.58926300  1
  Li  Li14  1  0.85882000  0.61023700  0.06819300  1
  Li  Li15  1  0.14118000  0.61023700  0.06819300  1
  Li  Li16  1  0.37211500  0.62788500  0.00000000  1
  Li  Li17  1  0.62788500  0.62788500  0.00000000  1
  Li  Li18  1  0.88976300  0.64118000  0.56819300  1
  Li  Li19  1  0.11023700  0.64118000  0.56819300  1
  Li  Li20  1  0.24354100  0.75645900  0.00000000  1
  Li  Li21  1  0.25645900  0.74354100  0.50000000  1
  Li  Li22  1  0.75645900  0.75645900  0.00000000  1
  Li  Li23  1  0.74354100  0.74354100  0.50000000  1
  Li  Li24  1  0.38976300  0.85882000  0.93180700  1
  Li  Li25  1  0.61023700  0.85882000  0.93180700  1
  Li  Li26  1  0.87211500  0.87211500  0.50000000  1
  Li  Li27  1  0.12788500  0.87211500  0.50000000  1
  Li  Li28  1  0.35882000  0.88976300  0.43180700  1
  Li  Li29  1  0.64118000  0.88976300  0.43180700  1
  Li  Li30  1  0.00000000  0.00000000  0.00000000  1
  Li  Li31  1  0.00000000  0.00000000  0.50000000  1
  Li  Li32  1  0.50000000  0.00000000  0.91073700  1
  Li  Li33  1  0.50000000  0.00000000  0.41073700  1
  Li  Li34  1  0.35882000  0.11023700  0.43180700  1
  Li  Li35  1  0.64118000  0.11023700  0.43180700  1
  Li  Li36  1  0.87211500  0.12788500  0.50000000  1
  Li  Li37  1  0.12788500  0.12788500  0.50000000  1
  Li  Li38  1  0.38976300  0.14118000  0.93180700  1
  Li  Li39  1  0.61023700  0.14118000  0.93180700  1
  La  La0  1  0.50000000  0.27376700  0.45475600  1
  La  La1  1  0.27376700  0.50000000  0.54524400  1
  La  La2  1  0.72623300  0.50000000  0.54524400  1
  La  La3  1  0.50000000  0.72623300  0.45475600  1
  La  La4  1  0.00000000  0.77376700  0.04524400  1
  La  La5  1  0.77376700  0.00000000  0.95475600  1
  La  La6  1  0.22623300  0.00000000  0.95475600  1
  La  La7  1  0.00000000  0.22623300  0.04524400  1
  O  O0  1  0.86229400  0.26124700  0.28441500  1
  O  O1  1  0.13770600  0.26124700  0.28441500  1
  O  O2  1  0.76124700  0.36229400  0.78441500  1
  O  O3  1  0.23875300  0.36229400  0.78441500  1
  O  O4  1  0.00000000  0.38195200  0.83349500  1
  O  O5  1  0.50000000  0.38812800  0.77863900  1
  O  O6  1  0.88195200  0.50000000  0.33349500  1
  O  O7  1  0.38812800  0.50000000  0.22136100  1
  O  O8  1  0.61187200  0.50000000  0.22136100  1
  O  O9  1  0.11804800  0.50000000  0.33349500  1
  O  O10  1  0.50000000  0.61187200  0.77863900  1
  O  O11  1  0.00000000  0.61804800  0.83349500  1
  O  O12  1  0.23875300  0.63770600  0.78441500  1
  O  O13  1  0.76124700  0.63770600  0.78441500  1
  O  O14  1  0.86229400  0.73875300  0.28441500  1
  O  O15  1  0.13770600  0.73875300  0.28441500  1
  O  O16  1  0.36229400  0.76124700  0.21558500  1
  O  O17  1  0.63770600  0.76124700  0.21558500  1
  O  O18  1  0.73875300  0.86229400  0.71558500  1
  O  O19  1  0.26124700  0.86229400  0.71558500  1
  O  O20  1  0.50000000  0.88195200  0.66650500  1
  O  O21  1  0.00000000  0.88812800  0.72136100  1
  O  O22  1  0.88812800  0.00000000  0.27863900  1
  O  O23  1  0.11187200  0.00000000  0.27863900  1
  O  O24  1  0.38195200  0.00000000  0.16650500  1
  O  O25  1  0.61804800  0.00000000  0.16650500  1
  O  O26  1  0.00000000  0.11187200  0.72136100  1
  O  O27  1  0.50000000  0.11804800  0.66650500  1
  O  O28  1  0.73875300  0.13770600  0.71558500  1
  O  O29  1  0.26124700  0.13770600  0.71558500  1
  O  O30  1  0.36229400  0.23875300  0.21558500  1
  O  O31  1  0.63770600  0.23875300  0.21558500  1
loop_
_geom_bond_atom_site_label_1
_geom_bond_atom_site_label_2
_geom_bond_distance
_geom_bond_site_symmetry_2
Li0 O31 1.950743 1_555
Li0 O2 1.950743 1_554
Li0 O28 2.029439 1_554
Li0 O0 2.029439 1_555
Li1 O28 1.950743 1_555
Li1 O0 1.950743 1_555
Li1 O2 2.029439 1_555
Li1 O31 2.029439 1_555
Li2 O30 1.950743 1_555
Li2 O3 1.950743 1_554
Li2 O1 2.029439 1_555
Li2 O29 2.029439 1_554
Li3 O29 1.950743 1_555
Li3 O1 1.950743 1_555
Li3 O3 2.029439 1_555
Li3 O30 2.029439 1_555
Li4 O1 1.967878 1_555
Li4 O4 2.023609 1_555
Li4 O3 2.066984 1_555
Li4 O9 2.265662 1_555
Li5 O0 1.967878 1_555
Li5 O4 2.023609 1_655
Li5 O2 2.066984 1_555
Li5 O6 2.265662 1_555
Li6 O5 2.083603 1_554
Li6 O7 2.083603 1_555
Li6 O30 2.127270 1_555
Li6 O3 2.127270 1_554
Li7 O5 2.083603 1_554
Li7 O8 2.083603 1_555
Li7 O31 2.127270 1_555
Li7 O2 2.127270 1_554
Li8 O2 1.967878 1_554
Li8 O6 2.023609 1_555
Li8 O0 2.066984 1_555
Li8 O4 2.265662 1_654
Li9 O3 1.967878 1_554
Li9 O9 2.023609 1_555
Li9 O1 2.066984 1_555
Li9 O4 2.265662 1_554
Li10 O9 2.019995 1_555
Li10 O6 2.019995 1_455
Li10 O11 2.053466 1_554
Li10 O4 2.053466 1_554
Li11 O8 2.057554 1_555
Li11 O10 2.057554 1_555
Li11 O5 2.057554 1_555
Li11 O7 2.057554 1_555
Li12 O10 1.885885 1_554
Li12 O8 1.885885 1_555
Li12 O7 1.885885 1_555
Li12 O5 1.885885 1_554
Li13 O11 2.019995 1_555
Li13 O4 2.019995 1_555
Li13 O9 2.053466 1_555
Li13 O6 2.053466 1_455
Li14 O13 1.967878 1_554
Li14 O6 2.023609 1_555
Li14 O14 2.066984 1_555
Li14 O11 2.265662 1_654
Li15 O12 1.967878 1_554
Li15 O9 2.023609 1_555
Li15 O15 2.066984 1_555
Li15 O11 2.265662 1_554
Li16 O10 2.083603 1_554
Li16 O7 2.083603 1_555
Li16 O12 2.127270 1_554
Li16 O16 2.127270 1_555
Li17 O10 2.083603 1_554
Li17 O8 2.083603 1_555
Li17 O13 2.127270 1_554
Li17 O17 2.127270 1_555
Li18 O14 1.967878 1_555
Li18 O11 2.023609 1_655
Li18 O13 2.066984 1_555
Li18 O6 2.265662 1_555
Li19 O15 1.967878 1_555
Li19 O11 2.023609 1_555
Li19 O12 2.066984 1_555
Li19 O9 2.265662 1_555
Li20 O12 1.950743 1_554
Li20 O16 1.950743 1_555
Li20 O15 2.029439 1_555
Li20 O19 2.029439 1_554
Li21 O19 1.950743 1_555
Li21 O15 1.950743 1_555
Li21 O12 2.029439 1_555
Li21 O16 2.029439 1_555
Li22 O17 1.950743 1_555
Li22 O13 1.950743 1_554
Li22 O14 2.029439 1_555
Li22 O18 2.029439 1_554
Li23 O18 1.950743 1_555
Li23 O14 1.950743 1_555
Li23 O17 2.029439 1_555
Li23 O13 2.029439 1_555
Li24 O16 1.967878 1_556
Li24 O20 2.023609 1_555
Li24 O19 2.066984 1_555
Li24 O24 2.265662 1_566
Li25 O17 1.967878 1_556
Li25 O20 2.023609 1_555
Li25 O18 2.066984 1_555
Li25 O25 2.265662 1_566
Li26 O21 2.083603 1_655
Li26 O22 2.083603 1_565
Li26 O18 2.127270 1_555
Li26 O14 2.127270 1_555
Li27 O21 2.083603 1_555
Li27 O23 2.083603 1_565
Li27 O19 2.127270 1_555
Li27 O15 2.127270 1_555
Li28 O19 1.967878 1_555
Li28 O24 2.023609 1_565
Li28 O16 2.066984 1_555
Li28 O20 2.265662 1_555
Li29 O18 1.967878 1_555
Li29 O25 2.023609 1_565
Li29 O17 2.066984 1_555
Li29 O20 2.265662 1_555
Li30 O23 2.057554 1_555
Li30 O26 2.057554 1_554
Li30 O22 2.057554 1_455
Li30 O21 2.057554 1_544
Li31 O26 1.885885 1_555
Li31 O23 1.885885 1_555
Li31 O21 1.885885 1_545
Li31 O22 1.885885 1_455
Li32 O27 2.019995 1_555
Li32 O20 2.019995 1_545
Li32 O25 2.053466 1_556
Li32 O24 2.053466 1_556
Li33 O25 2.019995 1_555
Li33 O24 2.019995 1_555
Li33 O27 2.053466 1_555
Li33 O20 2.053466 1_545
Li34 O29 1.967878 1_555
Li34 O24 2.023609 1_555
Li34 O30 2.066984 1_555
Li34 O27 2.265662 1_555
Li35 O28 1.967878 1_555
Li35 O25 2.023609 1_555
Li35 O31 2.066984 1_555
Li35 O27 2.265662 1_555
Li36 O26 2.083603 1_655
Li36 O22 2.083603 1_555
Li36 O28 2.127270 1_555
Li36 O0 2.127270 1_555
Li37 O26 2.083603 1_555
Li37 O23 2.083603 1_555
Li37 O29 2.127270 1_555
Li37 O1 2.127270 1_555
Li38 O30 1.967878 1_556
Li38 O27 2.023609 1_555
Li38 O29 2.066984 1_555
Li38 O24 2.265662 1_556
Li39 O31 1.967878 1_556
Li39 O27 2.023609 1_555
Li39 O28 2.066984 1_555
Li39 O25 2.265662 1_556
La0 O5 2.232894 1_555
La0 O31 2.284931 1_555
La0 O30 2.284931 1_555
La0 O27 2.388835 1_555
La1 O7 2.232894 1_555
La1 O12 2.284931 1_555
La1 O3 2.284931 1_555
La1 O9 2.388835 1_555
La2 O8 2.232894 1_555
La2 O13 2.284931 1_555
La2 O2 2.284931 1_555
La2 O6 2.388835 1_555
La3 O10 2.232894 1_555
La3 O16 2.284931 1_555
La3 O17 2.284931 1_555
La3 O20 2.388835 1_555
La4 O21 2.232894 1_554
La4 O15 2.284931 1_555
La4 O14 2.284931 1_455
La4 O11 2.388835 1_554
La5 O22 2.232894 1_556
La5 O28 2.284931 1_555
La5 O18 2.284931 1_545
La5 O25 2.388835 1_556
La6 O23 2.232894 1_556
La6 O29 2.284931 1_555
La6 O19 2.284931 1_545
La6 O24 2.388835 1_556
La7 O26 2.232894 1_554
La7 O0 2.284931 1_455
La7 O1 2.284931 1_555
La7 O4 2.388835 1_554
