# generated using pymatgen
data_Na2Ca3B5H2S2ClO18
_symmetry_space_group_name_H-M   'P 1'
_cell_length_a   6.46870649
_cell_length_b   6.46870649
_cell_length_c   18.98177295
_cell_angle_alpha   87.50657136
_cell_angle_beta   87.50657136
_cell_angle_gamma   75.46899828
_symmetry_Int_Tables_number   1
_chemical_formula_structural   Na2Ca3B5H2S2ClO18
_chemical_formula_sum   'Na4 Ca6 B10 H4 S4 Cl2 O36'
_cell_volume   767.70490588
_cell_formula_units_Z   2
loop_
 _symmetry_equiv_pos_site_id
 _symmetry_equiv_pos_as_xyz
  1  'x, y, z'
loop_
 _atom_site_type_symbol
 _atom_site_label
 _atom_site_symmetry_multiplicity
 _atom_site_fract_x
 _atom_site_fract_y
 _atom_site_fract_z
 _atom_site_occupancy
  Na  Na0  1  0.11816300  0.58060200  0.57810300  1
  Na  Na1  1  0.41939800  0.88183700  0.92189700  1
  Na  Na2  1  0.88183700  0.41939800  0.42189700  1
  Na  Na3  1  0.58060200  0.11816300  0.07810300  1
  Ca  Ca0  1  0.38996500  0.61003500  0.75000000  1
  Ca  Ca1  1  0.61003500  0.38996500  0.25000000  1
  Ca  Ca2  1  0.82768100  0.34582000  0.90291800  1
  Ca  Ca3  1  0.65418000  0.17231900  0.59708200  1
  Ca  Ca4  1  0.17231900  0.65418000  0.09708200  1
  Ca  Ca5  1  0.34582000  0.82768100  0.40291800  1
  B  B0  1  0.15365300  0.18571200  0.68187300  1
  B  B1  1  0.81428800  0.84634700  0.81812700  1
  B  B2  1  0.84634700  0.81428800  0.31812700  1
  B  B3  1  0.18571200  0.15365300  0.18187300  1
  B  B4  1  0.96889200  0.50622800  0.75154100  1
  B  B5  1  0.49377200  0.03110800  0.74845900  1
  B  B6  1  0.03110800  0.49377200  0.24845900  1
  B  B7  1  0.50622800  0.96889200  0.25154100  1
  B  B8  1  0.81072800  0.18927200  0.75000000  1
  B  B9  1  0.18927200  0.81072800  0.25000000  1
  H  H0  1  0.88049900  0.80620300  0.92427800  1
  H  H1  1  0.19379700  0.11950100  0.57572200  1
  H  H2  1  0.11950100  0.19379700  0.07572200  1
  H  H3  1  0.80620300  0.88049900  0.42427800  1
  S  S0  1  0.33915300  0.38395000  0.92269100  1
  S  S1  1  0.61605000  0.66084700  0.57730900  1
  S  S2  1  0.66084700  0.61605000  0.07730900  1
  S  S3  1  0.38395000  0.33915300  0.42269100  1
  Cl  Cl0  1  0.00000000  0.00000000  0.50000000  1
  Cl  Cl1  1  0.00000000  0.00000000  0.00000000  1
  O  O0  1  0.44021700  0.53008100  0.87547300  1
  O  O1  1  0.46991900  0.55978300  0.62452700  1
  O  O2  1  0.55978300  0.46991900  0.12452700  1
  O  O3  1  0.53008100  0.44021700  0.37547300  1
  O  O4  1  0.21719400  0.50603900  0.98068400  1
  O  O5  1  0.49396100  0.78280600  0.51931600  1
  O  O6  1  0.78280600  0.49396100  0.01931600  1
  O  O7  1  0.50603900  0.21719400  0.48068400  1
  O  O8  1  0.20285000  0.28955700  0.87933300  1
  O  O9  1  0.71044300  0.79715000  0.62066700  1
  O  O10  1  0.79715000  0.71044300  0.12066700  1
  O  O11  1  0.28955700  0.20285000  0.37933300  1
  O  O12  1  0.52017000  0.20971100  0.94976000  1
  O  O13  1  0.79028900  0.47983000  0.55024000  1
  O  O14  1  0.47983000  0.79028900  0.05024000  1
  O  O15  1  0.20971100  0.52017000  0.44976000  1
  O  O16  1  0.98262300  0.69952500  0.77444100  1
  O  O17  1  0.30047500  0.01737700  0.72555900  1
  O  O18  1  0.01737700  0.30047500  0.22555900  1
  O  O19  1  0.69952500  0.98262300  0.27444100  1
  O  O20  1  0.14131900  0.40404300  0.71012700  1
  O  O21  1  0.59595700  0.85868100  0.78987300  1
  O  O22  1  0.85868100  0.59595700  0.28987300  1
  O  O23  1  0.40404300  0.14131900  0.21012700  1
  O  O24  1  0.94361400  0.14138000  0.68535400  1
  O  O25  1  0.85862000  0.05638600  0.81464600  1
  O  O26  1  0.05638600  0.85862000  0.31464600  1
  O  O27  1  0.14138000  0.94361400  0.18535400  1
  O  O28  1  0.80208700  0.41530200  0.77159200  1
  O  O29  1  0.58469800  0.19791300  0.72840800  1
  O  O30  1  0.19791300  0.58469800  0.22840800  1
  O  O31  1  0.41530200  0.80208700  0.27159200  1
  O  O32  1  0.24967500  0.19864800  0.61025000  1
  O  O33  1  0.80135200  0.75032500  0.88975000  1
  O  O34  1  0.75032500  0.80135200  0.38975000  1
  O  O35  1  0.19864800  0.24967500  0.11025000  1
loop_
_geom_bond_atom_site_label_1
_geom_bond_atom_site_label_2
_geom_bond_distance
_geom_bond_site_symmetry_2
Na0 O1 2.445917 1_555
Na0 O13 2.454451 1_455
Na0 O32 2.461686 1_555
Na0 O15 2.505921 1_555
Na0 O20 2.702760 1_555
Na0 O9 2.762266 1_455
Na1 O0 2.445917 1_555
Na1 O12 2.454451 1_565
Na1 O33 2.461686 1_555
Na1 O14 2.505921 1_556
Na1 O21 2.702760 1_555
Na1 O8 2.762266 1_565
Na2 O3 2.445917 1_555
Na2 O15 2.454451 1_655
Na2 O34 2.461686 1_555
Na2 O13 2.505921 1_555
Na2 O22 2.702760 1_555
Na2 O11 2.762266 1_655
Na3 O2 2.445917 1_555
Na3 O14 2.454451 1_545
Na3 O35 2.461686 1_555
Na3 O12 2.505921 1_554
Na3 O23 2.702760 1_555
Na3 O10 2.762266 1_545
Ca0 O1 2.433408 1_555
Ca0 O0 2.433408 1_555
Ca0 O20 2.490896 1_555
Ca0 O21 2.490896 1_555
Ca0 O16 2.577792 1_455
Ca0 O17 2.577792 1_565
Ca0 O29 2.688263 1_555
Ca0 O28 2.688263 1_555
Ca1 O2 2.433408 1_555
Ca1 O3 2.433408 1_555
Ca1 O23 2.490896 1_555
Ca1 O22 2.490896 1_555
Ca1 O19 2.577792 1_545
Ca1 O18 2.577792 1_655
Ca1 O30 2.688263 1_555
Ca1 O31 2.688263 1_555
Ca2 O8 2.387246 1_655
Ca2 O6 2.423432 1_556
Ca2 O12 2.485866 1_555
Ca2 O28 2.518841 1_555
Ca2 O25 2.531536 1_555
Ca2 O0 2.556276 1_555
Ca2 O33 2.580963 1_555
Ca2 Cl1 2.865546 1_656
Ca3 O9 2.387246 1_545
Ca3 O7 2.423432 1_555
Ca3 O13 2.485866 1_555
Ca3 O29 2.518841 1_555
Ca3 O24 2.531536 1_555
Ca3 O1 2.556276 1_555
Ca3 O32 2.580963 1_555
Ca3 Cl0 2.865546 1_655
Ca4 O10 2.387246 1_455
Ca4 O4 2.423432 1_554
Ca4 O14 2.485866 1_555
Ca4 O30 2.518841 1_555
Ca4 O27 2.531536 1_555
Ca4 O2 2.556276 1_555
Ca4 O35 2.580963 1_555
Ca4 Cl1 2.865546 1_565
Ca5 O11 2.387246 1_565
Ca5 O5 2.423432 1_555
Ca5 O15 2.485866 1_555
Ca5 O31 2.518841 1_555
Ca5 O26 2.531536 1_555
Ca5 O3 2.556276 1_555
Ca5 O34 2.580963 1_555
Ca5 Cl0 2.865546 1_565
B0 O24 1.455567 1_455
B0 O32 1.477785 1_555
B0 O17 1.498792 1_555
B0 O20 1.514687 1_555
B1 O25 1.455567 1_565
B1 O33 1.477785 1_555
B1 O16 1.498792 1_555
B1 O21 1.514687 1_555
B2 O26 1.455567 1_655
B2 O34 1.477785 1_555
B2 O19 1.498792 1_555
B2 O22 1.514687 1_555
B3 O27 1.455567 1_545
B3 O35 1.477785 1_555
B3 O18 1.498792 1_555
B3 O23 1.514687 1_555
B4 O16 1.366263 1_555
B4 O20 1.377651 1_655
B4 O28 1.385040 1_555
B5 O17 1.366263 1_555
B5 O21 1.377651 1_545
B5 O29 1.385040 1_555
B6 O18 1.366263 1_555
B6 O22 1.377651 1_455
B6 O30 1.385040 1_555
B7 O19 1.366263 1_555
B7 O23 1.377651 1_565
B7 O31 1.385040 1_555
B8 O24 1.465714 1_555
B8 O25 1.465714 1_555
B8 O29 1.522512 1_555
B8 O28 1.522512 1_555
B9 O26 1.465714 1_555
B9 O27 1.465714 1_555
B9 O30 1.522512 1_555
B9 O31 1.522512 1_555
H0 O33 0.982344 1_555
H1 O32 0.982344 1_555
H2 O35 0.982344 1_555
H3 O34 0.982344 1_555
Cl0 Na2 2.974957 1_455
Cl0 Na0 2.974957 1_545
Cl1 Na3 2.974957 1_455
Cl1 Na1 2.974957 1_544
O0 S0 1.519760 1_555
O1 S1 1.519760 1_555
O2 S2 1.519760 1_555
O3 S3 1.519760 1_555
O4 S0 1.464690 1_555
O5 S1 1.464690 1_555
O6 S2 1.464690 1_555
O7 S3 1.464690 1_555
O8 S0 1.484791 1_555
O9 S1 1.484791 1_555
O10 S2 1.484791 1_555
O11 S3 1.484791 1_555
O12 S0 1.498388 1_555
O13 S1 1.498388 1_555
O14 S2 1.498388 1_555
O15 S3 1.498388 1_555
