# generated using pymatgen
data_Li8Mn5Fe3(BO3)8
_symmetry_space_group_name_H-M   'P 1'
_cell_length_a   5.23061300
_cell_length_b   5.23663711
_cell_length_c   20.89838390
_cell_angle_alpha   91.19688833
_cell_angle_beta   90.59528313
_cell_angle_gamma   119.85859321
_symmetry_Int_Tables_number   1
_chemical_formula_structural   Li8Mn5Fe3(BO3)8
_chemical_formula_sum   'Li8 Mn5 Fe3 B8 O24'
_cell_volume   496.18752681
_cell_formula_units_Z   1
loop_
 _symmetry_equiv_pos_site_id
 _symmetry_equiv_pos_as_xyz
  1  'x, y, z'
loop_
 _atom_site_type_symbol
 _atom_site_label
 _atom_site_symmetry_multiplicity
 _atom_site_fract_x
 _atom_site_fract_y
 _atom_site_fract_z
 _atom_site_occupancy
  Li  Li0  1  0.34660600  0.32306300  0.66625600  1
  Li  Li1  1  0.32175800  0.34674200  0.91537800  1
  Li  Li2  1  0.34849400  0.32141800  0.16639500  1
  Li  Li3  1  0.32149400  0.34746500  0.41627400  1
  Li  Li4  1  0.66377000  0.65086700  0.79171900  1
  Li  Li5  1  0.65104800  0.66240000  0.54147700  1
  Li  Li6  1  0.66534700  0.65179000  0.29135000  1
  Li  Li7  1  0.65162900  0.66242800  0.04101400  1
  Mn  Mn0  1  0.99285000  0.32596500  0.55899400  1
  Mn  Mn1  1  0.99634800  0.32978500  0.05833500  1
  Mn  Mn2  1  0.99935800  0.67830200  0.93269400  1
  Mn  Mn3  1  0.99941700  0.67875400  0.43282900  1
  Mn  Mn4  1  0.67435900  0.99746200  0.18448000  1
  Fe  Fe0  1  0.68013900  0.99872100  0.68426800  1
  Fe  Fe1  1  0.33592800  0.98904500  0.80731200  1
  Fe  Fe2  1  0.32477400  0.99974300  0.30851700  1
  B  B0  1  0.65878900  0.00323300  0.93623300  1
  B  B1  1  0.65883300  0.00348000  0.43636100  1
  B  B2  1  0.00004000  0.33454600  0.81098100  1
  B  B3  1  0.99459900  0.33064600  0.31190500  1
  B  B4  1  0.00036400  0.66219700  0.68759000  1
  B  B5  1  0.00157600  0.65912100  0.18809400  1
  B  B6  1  0.33314000  0.99391300  0.56317800  1
  B  B7  1  0.33442900  0.99568300  0.06216200  1
  O  O0  1  0.74820600  0.07151200  0.79178800  1
  O  O1  1  0.74613300  0.06768400  0.29265300  1
  O  O2  1  0.93033400  0.25439100  0.95162700  1
  O  O3  1  0.42252800  0.03487400  0.91554100  1
  O  O4  1  0.93020200  0.25431900  0.45192300  1
  O  O5  1  0.42163500  0.03349000  0.41557900  1
  O  O6  1  0.97563900  0.58569900  0.82477700  1
  O  O7  1  0.35733700  0.26864400  0.56993900  1
  O  O8  1  0.97359900  0.58154700  0.32626300  1
  O  O9  1  0.35899200  0.26988400  0.06961600  1
  O  O10  1  0.26927600  0.35008300  0.81837300  1
  O  O11  1  0.26751000  0.34838800  0.31830800  1
  O  O12  1  0.72550500  0.63975900  0.69426100  1
  O  O13  1  0.72569300  0.62938200  0.19513300  1
  O  O14  1  0.62954300  0.72782900  0.94361000  1
  O  O15  1  0.01901400  0.41498900  0.66888500  1
  O  O16  1  0.62930900  0.72803300  0.44390300  1
  O  O17  1  0.03258300  0.42157800  0.16707000  1
  O  O18  1  0.57629500  0.96149400  0.57888100  1
  O  O19  1  0.57708800  0.96226800  0.07777500  1
  O  O20  1  0.06973900  0.75094600  0.54137700  1
  O  O21  1  0.07006000  0.75313900  0.04065800  1
  O  O22  1  0.25548100  0.93135500  0.70096300  1
  O  O23  1  0.25200600  0.93074200  0.20349600  1
loop_
_geom_bond_atom_site_label_1
_geom_bond_atom_site_label_2
_geom_bond_distance
_geom_bond_site_symmetry_2
Li0 O12 1.919204 1_555
Li0 O15 1.998257 1_555
Li0 O22 2.014113 1_545
Li0 O7 2.032318 1_555
Li1 O14 1.911660 1_555
Li1 O3 1.949949 1_555
Li1 O2 2.015237 1_455
Li1 O10 2.044529 1_555
Li2 O13 1.902852 1_555
Li2 O17 1.966955 1_555
Li2 O23 2.021781 1_545
Li2 O9 2.039782 1_555
Li3 O16 1.906562 1_555
Li3 O5 1.958207 1_555
Li3 O4 2.008666 1_455
Li3 O11 2.064238 1_555
Li4 O6 1.948207 1_555
Li4 O10 1.968077 1_555
Li4 O0 2.019503 1_565
Li4 O12 2.069609 1_555
Li5 O18 1.944745 1_555
Li5 O7 1.970194 1_555
Li5 O20 2.000040 1_655
Li5 O16 2.086269 1_555
Li6 O8 1.960773 1_555
Li6 O11 1.985366 1_555
Li6 O1 2.000854 1_565
Li6 O13 2.048621 1_555
Li7 O19 1.942423 1_555
Li7 O9 1.965481 1_555
Li7 O21 1.995287 1_655
Li7 O14 2.082759 1_554
Mn0 O7 2.083448 1_655
Mn0 O20 2.096692 1_655
Mn0 O18 2.115191 1_545
Mn0 O4 2.254400 1_555
Mn0 O15 2.322798 1_655
Mn1 O9 2.082852 1_655
Mn1 O21 2.094293 1_655
Mn1 O19 2.127641 1_545
Mn1 O2 2.249353 1_554
Mn1 O17 2.299005 1_655
Mn2 O14 2.089806 1_555
Mn2 O3 2.107962 1_665
Mn2 O2 2.111007 1_555
Mn2 O21 2.276516 1_656
Mn2 O6 2.285930 1_555
Mn3 O16 2.090951 1_555
Mn3 O5 2.101808 1_665
Mn3 O4 2.114032 1_555
Mn3 O8 2.261655 1_555
Mn3 O20 2.287483 1_655
Mn4 O13 2.090202 1_555
Mn4 O23 2.101404 1_555
Mn4 O17 2.116627 1_665
Mn4 O19 2.265270 1_555
Mn4 O1 2.279657 1_565
Fe0 O12 2.023093 1_555
Fe0 O15 2.047127 1_665
Fe0 O22 2.102622 1_555
Fe0 O18 2.243981 1_555
Fe0 O0 2.265724 1_565
Fe1 O0 2.008781 1_565
Fe1 O6 2.056461 1_455
Fe1 O10 2.095034 1_565
Fe1 O22 2.243629 1_555
Fe1 O3 2.286123 1_565
Fe2 O11 1.998761 1_565
Fe2 O1 2.081656 1_565
Fe2 O8 2.085692 1_455
Fe2 O23 2.214727 1_555
Fe2 O5 2.272609 1_565
B0 O14 1.384625 1_545
B0 O3 1.391905 1_555
B0 O2 1.401229 1_555
B1 O16 1.384724 1_545
B1 O5 1.392276 1_555
B1 O4 1.400716 1_555
B2 O10 1.376435 1_555
B2 O0 1.397354 1_455
B2 O6 1.407560 1_455
B3 O11 1.388425 1_655
B3 O1 1.389658 1_555
B3 O8 1.398675 1_555
B4 O12 1.391695 1_455
B4 O15 1.394112 1_555
B4 O22 1.395858 1_555
B5 O13 1.381973 1_455
B5 O17 1.395075 1_555
B5 O23 1.399828 1_555
B6 O7 1.384043 1_565
B6 O20 1.393513 1_555
B6 O18 1.400987 1_555
B7 O9 1.381703 1_565
B7 O21 1.393465 1_555
B7 O19 1.401077 1_555
