# generated using pymatgen
data_Na2MnO2
_symmetry_space_group_name_H-M   'P 1'
_cell_length_a   5.47800100
_cell_length_b   8.74701900
_cell_length_c   15.42969992
_cell_angle_alpha   56.29377340
_cell_angle_beta   90.00000000
_cell_angle_gamma   90.00000000
_symmetry_Int_Tables_number   1
_chemical_formula_structural   Na2MnO2
_chemical_formula_sum   'Na16 Mn8 O16'
_cell_volume   615.04593818
_cell_formula_units_Z   8
loop_
 _symmetry_equiv_pos_site_id
 _symmetry_equiv_pos_as_xyz
  1  'x, y, z'
loop_
 _atom_site_type_symbol
 _atom_site_label
 _atom_site_symmetry_multiplicity
 _atom_site_fract_x
 _atom_site_fract_y
 _atom_site_fract_z
 _atom_site_occupancy
  Na  Na0  1  0.99102500  0.64323000  0.73602200  1
  Na  Na1  1  0.42841300  0.60041200  0.86492500  1
  Na  Na2  1  0.91027400  0.86460000  0.45655700  1
  Na  Na3  1  0.99252000  0.09131000  0.19308300  1
  Na  Na4  1  0.49252000  0.90869000  0.30691700  1
  Na  Na5  1  0.41027400  0.13540000  0.04344300  1
  Na  Na6  1  0.92841300  0.39958800  0.63507500  1
  Na  Na7  1  0.49102500  0.35677000  0.76397800  1
  Na  Na8  1  0.50897500  0.64323000  0.23602200  1
  Na  Na9  1  0.07158700  0.60041200  0.36492500  1
  Na  Na10  1  0.58972600  0.86460000  0.95655700  1
  Na  Na11  1  0.50748000  0.09131000  0.69308300  1
  Na  Na12  1  0.00748000  0.90869000  0.80691700  1
  Na  Na13  1  0.08972600  0.13540000  0.54344300  1
  Na  Na14  1  0.57158700  0.39958800  0.13507500  1
  Na  Na15  1  0.00897500  0.35677000  0.26397800  1
  Mn  Mn0  1  0.49520700  0.85085500  0.61167900  1
  Mn  Mn1  1  0.95606300  0.37413300  0.97089300  1
  Mn  Mn2  1  0.45606300  0.62586700  0.52910700  1
  Mn  Mn3  1  0.99520700  0.14914500  0.88832100  1
  Mn  Mn4  1  0.00479300  0.85085500  0.11167900  1
  Mn  Mn5  1  0.54393700  0.37413300  0.47089300  1
  Mn  Mn6  1  0.04393700  0.62586700  0.02910700  1
  Mn  Mn7  1  0.50479300  0.14914500  0.38832100  1
  O  O0  1  0.19269300  0.37463900  0.08073100  1
  O  O1  1  0.73519600  0.13587300  0.29215100  1
  O  O2  1  0.32614400  0.88910900  0.46986200  1
  O  O3  1  0.69851100  0.63251600  0.63330000  1
  O  O4  1  0.19851100  0.36748400  0.86670000  1
  O  O5  1  0.82614400  0.11089100  0.03013800  1
  O  O6  1  0.30730700  0.37463900  0.58073100  1
  O  O7  1  0.23519600  0.86412700  0.20784900  1
  O  O8  1  0.76480400  0.13587300  0.79215100  1
  O  O9  1  0.69269300  0.62536100  0.41926900  1
  O  O10  1  0.17385600  0.88910900  0.96986200  1
  O  O11  1  0.80148900  0.63251600  0.13330000  1
  O  O12  1  0.30148900  0.36748400  0.36670000  1
  O  O13  1  0.67385600  0.11089100  0.53013800  1
  O  O14  1  0.26480400  0.86412700  0.70784900  1
  O  O15  1  0.80730700  0.62536100  0.91926900  1
loop_
_geom_bond_atom_site_label_1
_geom_bond_atom_site_label_2
_geom_bond_distance
_geom_bond_site_symmetry_2
Na0 O14 2.288974 1_655
Na0 O3 2.292036 1_555
Na0 O4 2.403613 1_655
Na1 O15 2.293874 1_555
Na1 O4 2.382440 1_555
Na1 O14 2.406936 1_555
Na2 O2 2.307998 1_655
Na2 O1 2.510897 1_565
Na2 O3 2.599890 1_555
Na2 O9 2.732584 1_555
Na3 O1 2.266463 1_555
Na3 O7 2.294674 1_645
Na3 O0 2.362468 1_655
Na3 O5 2.589060 1_555
Na4 O7 2.266463 1_555
Na4 O1 2.294674 1_565
Na4 O9 2.362468 1_555
Na4 O2 2.589060 1_555
Na5 O5 2.307998 1_555
Na5 O7 2.510897 1_545
Na5 O4 2.599890 1_554
Na5 O0 2.732584 1_555
Na6 O6 2.293874 1_655
Na6 O3 2.382440 1_555
Na6 O8 2.406936 1_555
Na7 O8 2.288974 1_555
Na7 O4 2.292036 1_555
Na7 O3 2.403613 1_555
Na8 O7 2.288974 1_555
Na8 O11 2.292036 1_555
Na8 O12 2.403613 1_555
Na9 O9 2.293874 1_455
Na9 O12 2.382440 1_555
Na9 O7 2.406936 1_555
Na10 O10 2.307998 1_555
Na10 O8 2.510897 1_565
Na10 O11 2.599890 1_556
Na10 O15 2.732584 1_555
Na11 O8 2.266463 1_555
Na11 O14 2.294674 1_545
Na11 O6 2.362468 1_555
Na11 O13 2.589060 1_555
Na12 O14 2.266463 1_555
Na12 O8 2.294674 1_465
Na12 O15 2.362468 1_455
Na12 O10 2.589060 1_555
Na13 O13 2.307998 1_455
Na13 O14 2.510897 1_545
Na13 O12 2.599890 1_555
Na13 O6 2.732584 1_555
Na14 O0 2.293874 1_555
Na14 O11 2.382440 1_555
Na14 O1 2.406936 1_555
Na15 O1 2.288974 1_455
Na15 O12 2.292036 1_555
Na15 O11 2.403613 1_455
Mn0 O14 1.999892 1_555
Mn0 O3 2.071687 1_555
Mn0 O13 2.130277 1_565
Mn0 O2 2.223788 1_555
Mn1 O15 2.045677 1_555
Mn1 O5 2.075551 1_556
Mn1 O4 2.110848 1_655
Mn1 O0 2.135619 1_656
Mn2 O6 2.045677 1_555
Mn2 O2 2.075551 1_555
Mn2 O3 2.110848 1_555
Mn2 O9 2.135619 1_555
Mn3 O8 1.999892 1_555
Mn3 O4 2.071687 1_655
Mn3 O10 2.130277 1_645
Mn3 O5 2.223788 1_556
Mn4 O7 1.999892 1_555
Mn4 O11 2.071687 1_455
Mn4 O5 2.130277 1_465
Mn4 O10 2.223788 1_554
Mn5 O9 2.045677 1_555
Mn5 O13 2.075551 1_555
Mn5 O12 2.110848 1_555
Mn5 O6 2.135619 1_555
Mn6 O0 2.045677 1_555
Mn6 O10 2.075551 1_554
Mn6 O11 2.110848 1_455
Mn6 O15 2.135619 1_454
Mn7 O1 1.999892 1_555
Mn7 O12 2.071687 1_555
Mn7 O2 2.130277 1_545
Mn7 O13 2.223788 1_555
