# generated using pymatgen
data_Fe23O32
_symmetry_space_group_name_H-M   'P 1'
_cell_length_a   8.32335898
_cell_length_b   8.32335898
_cell_length_c   8.32335846
_cell_angle_alpha   89.66883657
_cell_angle_beta   89.66883657
_cell_angle_gamma   89.66883198
_symmetry_Int_Tables_number   1
_chemical_formula_structural   Fe23O32
_chemical_formula_sum   'Fe23 O32'
_cell_volume   576.59937942
_cell_formula_units_Z   1
loop_
 _symmetry_equiv_pos_site_id
 _symmetry_equiv_pos_as_xyz
  1  'x, y, z'
loop_
 _atom_site_type_symbol
 _atom_site_label
 _atom_site_symmetry_multiplicity
 _atom_site_fract_x
 _atom_site_fract_y
 _atom_site_fract_z
 _atom_site_occupancy
  Fe  Fe0  1  0.62424300  0.11978000  0.11978000  1
  Fe  Fe1  1  0.75313600  0.99773300  0.75313600  1
  Fe  Fe2  1  0.50000000  0.00000000  0.50000000  1
  Fe  Fe3  1  0.24686400  0.00226700  0.24686400  1
  Fe  Fe4  1  0.88022000  0.88022000  0.37575700  1
  Fe  Fe5  1  0.37575700  0.88022000  0.88022000  1
  Fe  Fe6  1  0.99773300  0.75313600  0.75313600  1
  Fe  Fe7  1  0.24664500  0.75335500  0.50000000  1
  Fe  Fe8  1  0.75313600  0.75313600  0.99773300  1
  Fe  Fe9  1  0.50000000  0.75335500  0.24664500  1
  Fe  Fe10  1  0.62930600  0.62930600  0.62930600  1
  Fe  Fe11  1  0.11978000  0.62424300  0.11978000  1
  Fe  Fe12  1  0.00000000  0.50000000  0.50000000  1
  Fe  Fe13  1  0.24664500  0.50000000  0.75335500  1
  Fe  Fe14  1  0.75335500  0.50000000  0.24664500  1
  Fe  Fe15  1  0.50000000  0.50000000  0.00000000  1
  Fe  Fe16  1  0.88022000  0.37575700  0.88022000  1
  Fe  Fe17  1  0.37069400  0.37069400  0.37069400  1
  Fe  Fe18  1  0.75335500  0.24664500  0.50000000  1
  Fe  Fe19  1  0.50000000  0.24664500  0.75335500  1
  Fe  Fe20  1  0.00226700  0.24686400  0.24686400  1
  Fe  Fe21  1  0.24686400  0.24686400  0.00226700  1
  Fe  Fe22  1  0.11978000  0.11978000  0.62424300  1
  O  O0  1  0.73322400  0.99934100  0.51546300  1
  O  O1  1  0.02037900  0.02037900  0.26277700  1
  O  O2  1  0.26277700  0.02037900  0.02037900  1
  O  O3  1  0.26677600  0.00065900  0.48453700  1
  O  O4  1  0.51546300  0.99934100  0.73322400  1
  O  O5  1  0.97962100  0.97962100  0.73722300  1
  O  O6  1  0.73722300  0.97962100  0.97962100  1
  O  O7  1  0.48453700  0.00065900  0.26677600  1
  O  O8  1  0.76286000  0.76286000  0.76286000  1
  O  O9  1  0.49663500  0.76740300  0.49663500  1
  O  O10  1  0.24879100  0.77099200  0.24879100  1
  O  O11  1  0.75120900  0.75120900  0.22900800  1
  O  O12  1  0.97962100  0.73722300  0.97962100  1
  O  O13  1  0.99934100  0.73322400  0.51546300  1
  O  O14  1  0.22900800  0.75120900  0.75120900  1
  O  O15  1  0.51546300  0.73322400  0.99934100  1
  O  O16  1  0.99934100  0.51546300  0.73322400  1
  O  O17  1  0.73322400  0.51546300  0.99934100  1
  O  O18  1  0.50336500  0.50336500  0.23259700  1
  O  O19  1  0.49663500  0.49663500  0.76740300  1
  O  O20  1  0.23259700  0.50336500  0.50336500  1
  O  O21  1  0.76740300  0.49663500  0.49663500  1
  O  O22  1  0.00065900  0.48453700  0.26677600  1
  O  O23  1  0.26677600  0.48453700  0.00065900  1
  O  O24  1  0.00065900  0.26677600  0.48453700  1
  O  O25  1  0.24879100  0.24879100  0.77099200  1
  O  O26  1  0.48453700  0.26677600  0.00065900  1
  O  O27  1  0.02037900  0.26277700  0.02037900  1
  O  O28  1  0.77099200  0.24879100  0.24879100  1
  O  O29  1  0.75120900  0.22900800  0.75120900  1
  O  O30  1  0.50336500  0.23259700  0.50336500  1
  O  O31  1  0.23714000  0.23714000  0.23714000  1
loop_
_geom_bond_atom_site_label_1
_geom_bond_atom_site_label_2
_geom_bond_distance
_geom_bond_site_symmetry_2
Fe0 O6 1.896458 1_544
Fe0 O26 1.953206 1_555
Fe0 O7 1.953207 1_555
Fe0 O28 1.960024 1_555
Fe1 O6 1.894199 1_555
Fe1 O5 1.894199 1_555
Fe1 O29 1.924934 1_565
Fe1 O8 1.957365 1_555
Fe1 O0 1.986084 1_555
Fe1 O4 1.986084 1_555
Fe2 O30 1.936719 1_555
Fe2 O9 1.936719 1_545
Fe2 O4 1.946185 1_545
Fe2 O7 1.946185 1_555
Fe2 O0 1.946185 1_545
Fe2 O3 1.946185 1_555
Fe3 O2 1.894199 1_555
Fe3 O1 1.894199 1_555
Fe3 O10 1.924934 1_545
Fe3 O31 1.957365 1_555
Fe3 O3 1.986084 1_555
Fe3 O7 1.986084 1_555
Fe4 O1 1.896458 1_665
Fe4 O13 1.953206 1_555
Fe4 O0 1.953206 1_555
Fe4 O11 1.960024 1_555
Fe5 O2 1.896458 1_566
Fe5 O15 1.953206 1_555
Fe5 O4 1.953207 1_555
Fe5 O14 1.960024 1_555
Fe6 O12 1.894199 1_555
Fe6 O5 1.894199 1_555
Fe6 O14 1.924934 1_655
Fe6 O8 1.957365 1_555
Fe6 O13 1.986084 1_555
Fe6 O16 1.986084 1_555
Fe7 O3 2.069378 1_565
Fe7 O13 2.069378 1_455
Fe7 O20 2.084731 1_555
Fe7 O9 2.084731 1_555
Fe7 O14 2.095183 1_555
Fe7 O10 2.095183 1_555
Fe8 O12 1.894199 1_555
Fe8 O6 1.894199 1_555
Fe8 O11 1.924934 1_556
Fe8 O8 1.957365 1_555
Fe8 O17 1.986084 1_555
Fe8 O15 1.986084 1_555
Fe9 O15 2.069378 1_554
Fe9 O7 2.069378 1_565
Fe9 O9 2.084731 1_555
Fe9 O18 2.084731 1_555
Fe9 O10 2.095183 1_555
Fe9 O11 2.095183 1_555
Fe10 O21 1.935138 1_555
Fe10 O9 1.935138 1_555
Fe10 O19 1.935138 1_555
Fe10 O8 1.936475 1_555
Fe11 O12 1.896458 1_454
Fe11 O23 1.953206 1_555
Fe11 O22 1.953207 1_555
Fe11 O10 1.960024 1_555
Fe12 O20 1.936719 1_555
Fe12 O21 1.936719 1_455
Fe12 O22 1.946185 1_555
Fe12 O16 1.946185 1_455
Fe12 O13 1.946185 1_455
Fe12 O24 1.946185 1_555
Fe13 O23 2.069378 1_556
Fe13 O16 2.069378 1_455
Fe13 O20 2.084731 1_555
Fe13 O19 2.084731 1_555
Fe13 O14 2.095183 1_555
Fe13 O25 2.095183 1_555
Fe14 O17 2.069378 1_554
Fe14 O22 2.069378 1_655
Fe14 O21 2.084731 1_555
Fe14 O18 2.084731 1_555
Fe14 O28 2.095183 1_555
Fe14 O11 2.095183 1_555
Fe15 O18 1.936719 1_555
Fe15 O19 1.936719 1_554
Fe15 O26 1.946185 1_555
Fe15 O23 1.946185 1_555
Fe15 O17 1.946185 1_554
Fe15 O15 1.946185 1_554
Fe16 O27 1.896458 1_656
Fe16 O17 1.953206 1_555
Fe16 O16 1.953207 1_555
Fe16 O29 1.960024 1_555
Fe17 O20 1.935138 1_555
Fe17 O30 1.935138 1_555
Fe17 O18 1.935138 1_555
Fe17 O31 1.936475 1_555
Fe18 O0 2.069378 1_545
Fe18 O24 2.069378 1_655
Fe18 O30 2.084731 1_555
Fe18 O21 2.084731 1_555
Fe18 O29 2.095183 1_555
Fe18 O28 2.095183 1_555
Fe19 O26 2.069378 1_556
Fe19 O4 2.069378 1_545
Fe19 O30 2.084731 1_555
Fe19 O19 2.084731 1_555
Fe19 O29 2.095183 1_555
Fe19 O25 2.095183 1_555
Fe20 O27 1.894199 1_555
Fe20 O1 1.894199 1_555
Fe20 O28 1.924934 1_455
Fe20 O31 1.957365 1_555
Fe20 O24 1.986084 1_555
Fe20 O22 1.986084 1_555
Fe21 O27 1.894199 1_555
Fe21 O2 1.894199 1_555
Fe21 O25 1.924934 1_554
Fe21 O31 1.957365 1_555
Fe21 O23 1.986084 1_555
Fe21 O26 1.986084 1_555
Fe22 O5 1.896458 1_445
Fe22 O3 1.953206 1_555
Fe22 O24 1.953206 1_555
Fe22 O25 1.960024 1_555
