# generated using pymatgen
data_Li4V5Sb3O16
_symmetry_space_group_name_H-M   'P 1'
_cell_length_a   6.13390000
_cell_length_b   6.21876815
_cell_length_c   9.77938851
_cell_angle_alpha   90.86116048
_cell_angle_beta   90.03342463
_cell_angle_gamma   118.93442864
_symmetry_Int_Tables_number   1
_chemical_formula_structural   Li4V5Sb3O16
_chemical_formula_sum   'Li4 V5 Sb3 O16'
_cell_volume   326.42288253
_cell_formula_units_Z   1
loop_
 _symmetry_equiv_pos_site_id
 _symmetry_equiv_pos_as_xyz
  1  'x, y, z'
loop_
 _atom_site_type_symbol
 _atom_site_label
 _atom_site_symmetry_multiplicity
 _atom_site_fract_x
 _atom_site_fract_y
 _atom_site_fract_z
 _atom_site_occupancy
  Li  Li0  1  0.65951700  0.33335600  0.88433100  1
  Li  Li1  1  0.99153600  0.01052000  0.99294800  1
  Li  Li2  1  0.99829000  0.01152700  0.50093500  1
  Li  Li3  1  0.32137200  0.65795800  0.40047600  1
  V  V0  1  0.67318900  0.31951200  0.48880700  1
  V  V1  1  0.35341400  0.67795200  0.98021100  1
  V  V2  1  0.83088800  0.16707600  0.21191200  1
  V  V3  1  0.66482700  0.83238600  0.71251100  1
  V  V4  1  0.16858600  0.33695900  0.71525600  1
  Sb  Sb0  1  0.83226200  0.66117900  0.21320100  1
  Sb  Sb1  1  0.34060900  0.16849100  0.21254600  1
  Sb  Sb2  1  0.17028500  0.83066700  0.71407200  1
  O  O0  1  0.84686100  0.68348800  0.60159100  1
  O  O1  1  0.49767600  0.45299600  0.35216900  1
  O  O2  1  0.64549200  0.30767600  0.09421500  1
  O  O3  1  0.02073200  0.02269800  0.31674500  1
  O  O4  1  0.00753000  0.99879800  0.81268500  1
  O  O5  1  0.32226100  0.15433600  0.60594100  1
  O  O6  1  0.95032700  0.44963100  0.35088200  1
  O  O7  1  0.51342900  0.02965200  0.33183900  1
  O  O8  1  0.18487700  0.85986400  0.08985200  1
  O  O9  1  0.83622200  0.15985600  0.60943300  1
  O  O10  1  0.47960100  0.96288000  0.83547400  1
  O  O11  1  0.04386200  0.53160200  0.84060100  1
  O  O12  1  0.32664400  0.66711900  0.60418000  1
  O  O13  1  0.67304500  0.85854400  0.09253000  1
  O  O14  1  0.48134000  0.53141900  0.83829800  1
  O  O15  1  0.16562600  0.32215800  0.10419800  1
loop_
_geom_bond_atom_site_label_1
_geom_bond_atom_site_label_2
_geom_bond_distance
_geom_bond_site_symmetry_2
Li0 O14 2.057400 1_555
Li0 O2 2.059752 1_556
Li0 O10 2.064034 1_545
Li0 O11 2.113157 1_655
Li1 O4 1.768016 1_645
Li1 O13 1.975211 1_546
Li1 O15 2.003148 1_656
Li1 O8 2.069485 1_646
Li2 O3 1.806414 1_655
Li2 O9 1.955515 1_555
Li2 O5 2.013639 1_655
Li2 O0 2.054567 1_545
Li3 O12 1.991855 1_555
Li3 O6 2.054344 1_455
Li3 O1 2.081721 1_555
Li3 O7 2.143359 1_565
O0 Sb2 2.047829 1_655
O0 V3 2.062145 1_555
O0 V0 2.250582 1_555
O1 Sb1 2.049241 1_555
O1 V0 2.128385 1_555
O1 Sb0 2.284778 1_555
O2 Sb1 2.012964 1_555
O2 V2 2.091264 1_555
O2 Sb0 2.232448 1_555
O3 Sb1 2.004737 1_555
O3 V2 2.061834 1_455
O3 Sb0 2.198080 1_445
O4 Sb2 2.000176 1_555
O4 V3 2.076455 1_455
O4 V4 2.087402 1_565
O5 Sb2 2.070797 1_545
O5 V4 2.078874 1_555
O5 V0 2.213493 1_555
O6 V0 2.017016 1_555
O6 V2 2.037819 1_555
O6 Sb0 2.245453 1_555
O7 Sb1 2.035840 1_555
O7 V2 2.078512 1_555
O7 V0 2.184443 1_555
O8 Sb1 2.047254 1_565
O8 V1 2.143502 1_554
O8 Sb0 2.263154 1_455
O9 V4 2.056912 1_655
O9 V3 2.063950 1_545
O9 V0 2.090926 1_555
O10 Sb2 2.035662 1_555
O10 V3 2.063935 1_555
O10 V1 2.119387 1_555
O11 Sb2 2.065463 1_555
O11 V4 2.098948 1_555
O11 V1 2.141295 1_555
O12 Sb2 2.005350 1_555
O12 V3 2.093676 1_555
O12 V4 2.116040 1_555
O13 V2 2.028700 1_565
O13 V1 2.035072 1_554
O13 Sb0 2.248305 1_555
O14 V1 2.006817 1_555
O14 V4 2.073479 1_555
O14 V3 2.077377 1_555
O15 Sb1 2.051715 1_555
O15 V2 2.091060 1_455
O15 V1 2.304079 1_554
