# generated using pymatgen
data_Li3Co2NiO6
_symmetry_space_group_name_H-M   'P 1'
_cell_length_a   2.85724184
_cell_length_b   11.56038348
_cell_length_c   6.50276876
_cell_angle_alpha   103.38145691
_cell_angle_beta   77.35752615
_cell_angle_gamma   90.09788862
_symmetry_Int_Tables_number   1
_chemical_formula_structural   Li3Co2NiO6
_chemical_formula_sum   'Li6 Co4 Ni2 O12'
_cell_volume   203.62281849
_cell_formula_units_Z   2
loop_
 _symmetry_equiv_pos_site_id
 _symmetry_equiv_pos_as_xyz
  1  'x, y, z'
loop_
 _atom_site_type_symbol
 _atom_site_label
 _atom_site_symmetry_multiplicity
 _atom_site_fract_x
 _atom_site_fract_y
 _atom_site_fract_z
 _atom_site_occupancy
  Li  Li0  1  0.33304200  0.41623400  0.33201300  1
  Li  Li1  1  0.33319500  0.91713100  0.33363000  1
  Li  Li2  1  0.00052000  0.24842200  0.99529100  1
  Li  Li3  1  0.00236300  0.74256100  0.99484600  1
  Li  Li4  1  0.66061400  0.09216700  0.67335100  1
  Li  Li5  1  0.66449100  0.57744900  0.66748500  1
  Co  Co0  1  0.00246200  0.99864300  0.99627400  1
  Co  Co1  1  0.66263600  0.33243500  0.66835400  1
  Co  Co2  1  0.00055300  0.49851500  0.99556200  1
  Co  Co3  1  0.66490500  0.83284600  0.66841400  1
  Ni  Ni0  1  0.33365800  0.66445100  0.32989400  1
  Ni  Ni1  1  0.33152300  0.16520700  0.33271700  1
  O  O0  1  0.50423800  0.11022300  0.99631500  1
  O  O1  1  0.50133800  0.61298300  0.99589300  1
  O  O2  1  0.16063400  0.21901300  0.66763800  1
  O  O3  1  0.16317000  0.72373800  0.66945500  1
  O  O4  1  0.81250700  0.28662100  0.35655500  1
  O  O5  1  0.81537700  0.79175200  0.36562900  1
  O  O6  1  0.85172300  0.04244800  0.30713700  1
  O  O7  1  0.84464000  0.54228100  0.30895800  1
  O  O8  1  0.15713600  0.44811100  0.68090800  1
  O  O9  1  0.15954400  0.94566600  0.68072600  1
  O  O10  1  0.50653200  0.38327300  0.98200100  1
  O  O11  1  0.51064500  0.88222200  0.97850400  1
loop_
_geom_bond_atom_site_label_1
_geom_bond_atom_site_label_2
_geom_bond_distance
_geom_bond_site_symmetry_2
Li0 O7 2.068917 1_555
Li0 O7 2.071903 1_455
Li0 O4 2.088242 1_555
Li0 O4 2.117029 1_455
Li0 O8 2.156452 1_555
Li0 O10 2.162557 1_554
Li1 O6 2.060831 1_465
Li1 O5 2.077051 1_555
Li1 O6 2.078444 1_565
Li1 O5 2.081025 1_455
Li1 O9 2.148289 1_555
Li1 O11 2.193084 1_554
Li2 O2 2.025616 1_555
Li2 O10 2.127916 1_555
Li2 O10 2.133817 1_455
Li2 O0 2.134536 1_455
Li2 O0 2.154269 1_555
Li2 O4 2.229489 1_456
Li3 O3 2.024186 1_555
Li3 O1 2.070368 1_455
Li3 O1 2.071915 1_555
Li3 O11 2.175085 1_555
Li3 O11 2.178174 1_455
Li3 O5 2.285786 1_456
Li4 O0 2.010108 1_555
Li4 O2 2.046368 1_655
Li4 O2 2.061086 1_555
Li4 O9 2.218009 1_545
Li4 O9 2.231280 1_645
Li4 O6 2.257859 1_555
Li5 O1 2.026204 1_555
Li5 O8 2.083817 1_555
Li5 O8 2.084699 1_655
Li5 O3 2.209093 1_655
Li5 O3 2.214080 1_555
Li5 O7 2.214143 1_555
Co0 O6 1.916793 1_466
Co0 O0 1.922575 1_465
Co0 O0 1.926923 1_565
Co0 O11 1.947320 1_455
Co0 O11 1.947891 1_555
Co0 O9 1.950152 1_555
Co1 O4 1.923157 1_555
Co1 O2 1.935089 1_655
Co1 O10 1.937025 1_555
Co1 O2 1.941720 1_555
Co1 O8 1.945439 1_655
Co1 O8 1.945633 1_555
Co2 O7 1.932292 1_456
Co2 O10 1.941331 1_455
Co2 O10 1.941418 1_555
Co2 O8 1.942841 1_555
Co2 O1 1.946652 1_455
Co2 O1 1.947317 1_555
Co3 O5 1.866669 1_555
Co3 O3 1.905813 1_655
Co3 O3 1.907792 1_555
Co3 O11 1.914469 1_555
Co3 O9 1.923482 1_655
Co3 O9 1.923516 1_555
Ni0 O7 1.988223 1_455
Ni0 O7 1.993954 1_555
Ni0 O5 2.022124 1_555
Ni0 O5 2.027610 1_455
Ni0 O1 2.061108 1_554
Ni0 O3 2.100595 1_555
Ni1 O4 1.966906 1_555
Ni1 O6 1.976086 1_455
Ni1 O4 1.999758 1_455
Ni1 O6 2.010111 1_555
Ni1 O2 2.068121 1_555
Ni1 O0 2.077940 1_554
