# generated using pymatgen
data_LiH20C8ClO4
_symmetry_space_group_name_H-M   'P 1'
_cell_length_a   7.79329505
_cell_length_b   7.79329505
_cell_length_c   12.21195295
_cell_angle_alpha   85.24562258
_cell_angle_beta   85.24562258
_cell_angle_gamma   62.42401057
_symmetry_Int_Tables_number   1
_chemical_formula_structural   LiH20C8ClO4
_chemical_formula_sum   'Li2 H40 C16 Cl2 O8'
_cell_volume   654.34516251
_cell_formula_units_Z   2
loop_
 _symmetry_equiv_pos_site_id
 _symmetry_equiv_pos_as_xyz
  1  'x, y, z'
loop_
 _atom_site_type_symbol
 _atom_site_label
 _atom_site_symmetry_multiplicity
 _atom_site_fract_x
 _atom_site_fract_y
 _atom_site_fract_z
 _atom_site_occupancy
  Li  Li0  1  0.05380900  0.94619100  0.75000000  1
  Li  Li1  1  0.94619100  0.05380900  0.25000000  1
  H  H0  1  0.13869700  0.71071800  0.46920900  1
  H  H1  1  0.28928200  0.86130300  0.03079100  1
  H  H2  1  0.86130300  0.28928200  0.53079100  1
  H  H3  1  0.71071800  0.13869700  0.96920900  1
  H  H4  1  0.23981900  0.54949100  0.58654600  1
  H  H5  1  0.45050900  0.76018100  0.91345400  1
  H  H6  1  0.76018100  0.45050900  0.41345400  1
  H  H7  1  0.54949100  0.23981900  0.08654600  1
  H  H8  1  0.44106800  0.87422100  0.59967600  1
  H  H9  1  0.12577900  0.55893200  0.90032400  1
  H  H10  1  0.55893200  0.12577900  0.40032400  1
  H  H11  1  0.87422100  0.44106800  0.09967600  1
  H  H12  1  0.49266800  0.62437900  0.60491000  1
  H  H13  1  0.37562100  0.50733200  0.89509000  1
  H  H14  1  0.50733200  0.37562100  0.39509000  1
  H  H15  1  0.62437900  0.49266800  0.10491000  1
  H  H16  1  0.42329800  0.76859600  0.47769900  1
  H  H17  1  0.23140400  0.57670200  0.02230100  1
  H  H18  1  0.57670200  0.23140400  0.52230100  1
  H  H19  1  0.76859600  0.42329800  0.97769900  1
  H  H20  1  0.88900900  0.64880900  0.58531600  1
  H  H21  1  0.35119100  0.11099100  0.91468400  1
  H  H22  1  0.11099100  0.35119100  0.41468400  1
  H  H23  1  0.64880900  0.88900900  0.08531600  1
  H  H24  1  0.83305500  0.90035400  0.57863400  1
  H  H25  1  0.09964600  0.16694500  0.92136600  1
  H  H26  1  0.16694500  0.09964600  0.42136600  1
  H  H27  1  0.90035400  0.83305500  0.07863400  1
  H  H28  1  0.77814100  0.77132900  0.86963400  1
  H  H29  1  0.22867100  0.22185900  0.63036600  1
  H  H30  1  0.22185900  0.22867100  0.13036600  1
  H  H31  1  0.77132900  0.77814100  0.36963400  1
  H  H32  1  0.64445100  0.91863800  0.75592300  1
  H  H33  1  0.08136200  0.35554900  0.74407700  1
  H  H34  1  0.35554900  0.08136200  0.24407700  1
  H  H35  1  0.91863800  0.64445100  0.25592300  1
  H  H36  1  0.72830000  0.65885500  0.76219800  1
  H  H37  1  0.34114500  0.27170000  0.73780200  1
  H  H38  1  0.27170000  0.34114500  0.23780200  1
  H  H39  1  0.65885500  0.72830000  0.26219800  1
  C  C0  1  0.13817400  0.69968800  0.56017300  1
  C  C1  1  0.30031200  0.86182600  0.93982700  1
  C  C2  1  0.86182600  0.30031200  0.43982700  1
  C  C3  1  0.69968800  0.13817400  0.06017300  1
  C  C4  1  0.40157900  0.76985600  0.56798600  1
  C  C5  1  0.23014400  0.59842100  0.93201400  1
  C  C6  1  0.59842100  0.23014400  0.43201400  1
  C  C7  1  0.76985600  0.40157900  0.06798600  1
  C  C8  1  0.93659700  0.75361300  0.60894500  1
  C  C9  1  0.24638700  0.06340300  0.89105500  1
  C  C10  1  0.06340300  0.24638700  0.39105500  1
  C  C11  1  0.75361300  0.93659700  0.10894500  1
  C  C12  1  0.76160200  0.77609500  0.78064800  1
  C  C13  1  0.22390500  0.23839800  0.71935200  1
  C  C14  1  0.23839800  0.22390500  0.21935200  1
  C  C15  1  0.77609500  0.76160200  0.28064800  1
  Cl  Cl0  1  0.75437300  0.24562700  0.75000000  1
  Cl  Cl1  1  0.24562700  0.75437300  0.25000000  1
  O  O0  1  0.20100100  0.82993300  0.59903800  1
  O  O1  1  0.17006700  0.79899900  0.90096200  1
  O  O2  1  0.79899900  0.17006700  0.40096200  1
  O  O3  1  0.82993300  0.20100100  0.09903800  1
  O  O4  1  0.94231100  0.74818800  0.72641000  1
  O  O5  1  0.25181200  0.05768900  0.77359000  1
  O  O6  1  0.05768900  0.25181200  0.27359000  1
  O  O7  1  0.74818800  0.94231100  0.22641000  1
loop_
_geom_bond_atom_site_label_1
_geom_bond_atom_site_label_2
_geom_bond_distance
_geom_bond_site_symmetry_2
Li0 O1 2.121196 1_555
Li0 O0 2.121196 1_555
Li0 O4 2.139112 1_455
Li0 O5 2.139112 1_565
Li1 O2 2.121196 1_555
Li1 O3 2.121196 1_555
Li1 O7 2.139112 1_545
Li1 O6 2.139112 1_655
C0 H4 1.105751 1_555
C0 H0 1.106858 1_555
C0 O0 1.440077 1_555
C1 H5 1.105751 1_555
C1 H1 1.106858 1_556
C1 O1 1.440077 1_555
C2 H6 1.105751 1_555
C2 H2 1.106858 1_555
C2 O2 1.440077 1_555
C3 H7 1.105751 1_555
C3 H3 1.106858 1_554
C3 O3 1.440077 1_555
C4 H8 1.099853 1_555
C4 H16 1.101703 1_555
C4 H12 1.102636 1_555
C4 O0 1.435289 1_555
C5 H9 1.099853 1_555
C5 H17 1.101703 1_556
C5 H13 1.102636 1_555
C5 O1 1.435289 1_555
C6 H10 1.099853 1_555
C6 H18 1.101703 1_555
C6 H14 1.102636 1_555
C6 O2 1.435289 1_555
C7 H11 1.099853 1_555
C7 H19 1.101703 1_554
C7 H15 1.102636 1_555
C7 O3 1.435289 1_555
C8 H24 1.104958 1_555
C8 H20 1.106878 1_555
C8 O4 1.435370 1_555
C9 H25 1.104958 1_555
C9 H21 1.106878 1_555
C9 O5 1.435370 1_555
C10 H26 1.104958 1_555
C10 H22 1.106878 1_555
C10 O6 1.435370 1_555
C11 H27 1.104958 1_555
C11 H23 1.106878 1_555
C11 O7 1.435370 1_555
C12 H32 1.099933 1_555
C12 H28 1.100450 1_555
C12 H36 1.102865 1_555
C12 O4 1.433542 1_555
C13 H33 1.099933 1_555
C13 H29 1.100450 1_555
C13 H37 1.102865 1_555
C13 O5 1.433542 1_555
C14 H34 1.099933 1_555
C14 H30 1.100450 1_555
C14 H38 1.102865 1_555
C14 O6 1.433542 1_555
C15 H35 1.099933 1_555
C15 H31 1.100450 1_555
C15 H39 1.102865 1_555
C15 O7 1.433542 1_555
Cl0 Li0 2.418565 1_645
Cl1 Li1 2.418565 1_465
