# generated using pymatgen
data_Mn12O7F17
_symmetry_space_group_name_H-M   'P 1'
_cell_length_a   4.80046500
_cell_length_b   5.79388353
_cell_length_c   15.85539258
_cell_angle_alpha   89.45927062
_cell_angle_beta   89.78954438
_cell_angle_gamma   86.13893996
_symmetry_Int_Tables_number   1
_chemical_formula_structural   Mn12O7F17
_chemical_formula_sum   'Mn12 O7 F17'
_cell_volume   439.96878379
_cell_formula_units_Z   1
loop_
 _symmetry_equiv_pos_site_id
 _symmetry_equiv_pos_as_xyz
  1  'x, y, z'
loop_
 _atom_site_type_symbol
 _atom_site_label
 _atom_site_symmetry_multiplicity
 _atom_site_fract_x
 _atom_site_fract_y
 _atom_site_fract_z
 _atom_site_occupancy
  Mn  Mn0  1  0.99841500  0.82198900  0.41292600  1
  Mn  Mn1  1  0.96332800  0.17045400  0.24535100  1
  Mn  Mn2  1  0.00444400  0.84604600  0.08483800  1
  Mn  Mn3  1  0.98467400  0.84465300  0.74382300  1
  Mn  Mn4  1  0.00105900  0.14961400  0.58136700  1
  Mn  Mn5  1  0.97819400  0.16299100  0.90519200  1
  Mn  Mn6  1  0.51446100  0.68812900  0.59810800  1
  Mn  Mn7  1  0.47590900  0.66984600  0.92676600  1
  Mn  Mn8  1  0.49915700  0.64401300  0.25726200  1
  Mn  Mn9  1  0.49546600  0.33900900  0.08404000  1
  Mn  Mn10  1  0.49078300  0.35465900  0.41072200  1
  Mn  Mn11  1  0.50462700  0.34737600  0.75083200  1
  O  O0  1  0.79449200  0.88928700  0.63754700  1
  O  O1  1  0.77914800  0.11586600  0.13394400  1
  O  O2  1  0.76555100  0.11001300  0.79671700  1
  O  O3  1  0.71460400  0.39413900  0.31011400  1
  O  O4  1  0.27460500  0.60969600  0.03761500  1
  O  O5  1  0.28378800  0.60836800  0.35819500  1
  O  O6  1  0.28768500  0.61799700  0.69762300  1
  F  F0  1  0.76029500  0.89279800  0.30534400  1
  F  F1  1  0.78210400  0.88272000  0.97322400  1
  F  F2  1  0.75541400  0.12011300  0.46710000  1
  F  F3  1  0.73466300  0.61724400  0.15115600  1
  F  F4  1  0.72898300  0.62338700  0.48683600  1
  F  F5  1  0.74530900  0.38446400  0.64328500  1
  F  F6  1  0.73459200  0.59973800  0.81510500  1
  F  F7  1  0.72976900  0.38225100  0.97945400  1
  F  F8  1  0.27066800  0.36999600  0.19003600  1
  F  F9  1  0.27314300  0.38125500  0.52159600  1
  F  F10  1  0.27888900  0.38238200  0.86172500  1
  F  F11  1  0.23367000  0.87439300  0.19808800  1
  F  F12  1  0.24058900  0.88996500  0.52169500  1
  F  F13  1  0.20953100  0.11364000  0.35496200  1
  F  F14  1  0.23925800  0.10252100  0.01744400  1
  F  F15  1  0.21439900  0.87679800  0.84997300  1
  F  F16  1  0.25833500  0.12219300  0.68999500  1
loop_
_geom_bond_atom_site_label_1
_geom_bond_atom_site_label_2
_geom_bond_distance
_geom_bond_site_symmetry_2
Mn0 O5 1.986156 1_655
Mn1 O3 1.991824 1_555
Mn1 O1 2.015342 1_555
Mn2 O4 1.972514 1_555
Mn2 O1 2.002228 1_465
Mn3 O0 1.926407 1_555
Mn3 O2 1.993407 1_565
Mn3 O6 2.032251 1_655
Mn4 O0 2.054583 1_445
Mn5 O2 2.039456 1_555
Mn6 O0 1.946125 1_555
Mn6 O6 1.968423 1_555
Mn7 O4 2.040982 1_556
Mn8 O3 1.910409 1_555
Mn8 O5 1.919106 1_555
Mn9 O4 1.971189 1_555
Mn9 O1 1.975748 1_555
Mn10 O5 1.904742 1_555
Mn10 O3 1.940354 1_555
Mn11 O2 1.935287 1_555
Mn11 O6 2.004081 1_555
F0 Mn0 2.079067 1_555
F0 Mn8 2.121674 1_555
F0 Mn1 2.148990 1_565
F1 Mn2 2.071804 1_656
F1 Mn7 2.119808 1_555
F1 Mn5 2.202698 1_565
F2 Mn10 2.003113 1_555
F2 Mn4 2.179649 1_655
F2 Mn0 2.198043 1_545
F3 Mn8 2.024801 1_555
F3 Mn2 2.176032 1_655
F3 Mn9 2.310908 1_555
F4 Mn6 2.064205 1_555
F4 Mn0 2.129335 1_555
F4 Mn10 2.339549 1_555
F5 Mn4 2.028290 1_655
F5 Mn11 2.073848 1_555
F5 Mn6 2.134501 1_555
F6 Mn11 2.156122 1_555
F6 Mn7 2.184255 1_555
F6 Mn3 2.218413 1_555
F7 Mn9 2.023381 1_556
F7 Mn5 2.058228 1_555
F7 Mn7 2.160378 1_555
F8 Mn9 1.996870 1_555
F8 Mn1 2.117457 1_455
F8 Mn8 2.266013 1_555
F9 Mn10 2.043435 1_555
F9 Mn4 2.146697 1_555
F9 Mn6 2.510645 1_555
F10 Mn11 2.066401 1_555
F10 Mn5 2.097051 1_455
F10 Mn7 2.232425 1_555
F11 Mn8 2.010533 1_555
F11 Mn2 2.122856 1_555
F11 Mn1 2.214832 1_465
F12 Mn4 2.065520 1_565
F12 Mn6 2.083693 1_555
F12 Mn0 2.137756 1_455
F13 Mn1 2.116010 1_455
F13 Mn10 2.200119 1_555
F13 Mn0 2.218469 1_445
F14 Mn9 2.183768 1_555
F14 Mn5 2.192373 1_454
F14 Mn2 2.192568 1_545
F15 Mn3 2.032411 1_455
F15 Mn7 2.068127 1_555
F15 Mn5 2.137444 1_465
F16 Mn11 2.066492 1_555
F16 Mn4 2.121572 1_555
F16 Mn3 2.300074 1_445
