# generated using pymatgen
data_Li4Co4(OF3)3
_symmetry_space_group_name_H-M   'P 1'
_cell_length_a   5.07652800
_cell_length_b   5.50547779
_cell_length_c   8.92870166
_cell_angle_alpha   72.82886696
_cell_angle_beta   75.55685804
_cell_angle_gamma   63.59919950
_symmetry_Int_Tables_number   1
_chemical_formula_structural   Li4Co4(OF3)3
_chemical_formula_sum   'Li4 Co4 O3 F9'
_cell_volume   211.51161709
_cell_formula_units_Z   1
loop_
 _symmetry_equiv_pos_site_id
 _symmetry_equiv_pos_as_xyz
  1  'x, y, z'
loop_
 _atom_site_type_symbol
 _atom_site_label
 _atom_site_symmetry_multiplicity
 _atom_site_fract_x
 _atom_site_fract_y
 _atom_site_fract_z
 _atom_site_occupancy
  Li  Li0  1  0.56673500  0.75316100  0.15072100  1
  Li  Li1  1  0.79854900  0.99131000  0.40212500  1
  Li  Li2  1  0.05083700  0.25146900  0.64975800  1
  Li  Li3  1  0.29274700  0.49972500  0.91099100  1
  Co  Co0  1  0.47146000  0.50711300  0.49910800  1
  Co  Co1  1  0.01254000  0.03245500  0.00294500  1
  Co  Co2  1  0.24397500  0.26560900  0.25296000  1
  Co  Co3  1  0.69683300  0.78692800  0.75733200  1
  O  O0  1  0.31572700  0.95088100  0.81309900  1
  O  O1  1  0.19875200  0.19602300  0.08252800  1
  O  O2  1  0.30738900  0.30721400  0.42671700  1
  F  F0  1  0.22348300  0.88465700  0.37065000  1
  F  F1  1  0.79727500  0.44682500  0.30399800  1
  F  F2  1  0.69995200  0.68849000  0.55504700  1
  F  F3  1  0.72958100  0.38354700  0.86008800  1
  F  F4  1  0.28974300  0.61915400  0.11590500  1
  F  F5  1  0.83314200  0.79849900  0.94832900  1
  F  F6  1  0.15929100  0.55658500  0.70243200  1
  F  F7  1  0.69459100  0.03261000  0.19926900  1
  F  F8  1  0.77173900  0.12384600  0.61121900  1
loop_
_geom_bond_atom_site_label_1
_geom_bond_atom_site_label_2
_geom_bond_distance
_geom_bond_site_symmetry_2
Li0 O1 2.333555 1_565
Li1 O2 2.320768 1_565
Li2 O0 2.061103 1_545
Li2 O2 2.111188 1_555
Li3 O1 2.049885 1_556
Li3 O0 2.423206 1_555
Co0 O2 1.956131 1_555
Co0 F2 2.050761 1_555
Co0 F0 2.050931 1_555
Co0 F1 2.072822 1_555
Co0 F6 2.086693 1_555
Co0 F8 2.105160 1_555
Co1 O1 1.918174 1_555
Co1 O0 1.994308 1_544
Co1 F7 2.065488 1_455
Co1 F5 2.088504 1_444
Co1 F3 2.101337 1_454
Co1 F4 2.163437 1_545
Co2 O2 1.757145 1_555
Co2 O1 1.764048 1_555
Co2 F1 2.021488 1_455
Co2 F4 2.047934 1_555
Co2 F7 2.077199 1_555
Co2 F0 2.086144 1_545
Co3 O0 1.742859 1_555
Co3 F5 2.020677 1_555
Co3 F2 2.027848 1_555
Co3 F8 2.058682 1_565
Co3 F3 2.084722 1_555
Co3 F6 2.122605 1_655
F0 Li1 1.935410 1_455
F0 Li0 2.329631 1_555
F1 Li0 1.941104 1_555
F1 Li1 2.397482 1_545
F2 Li1 1.987809 1_555
F2 Li2 2.327164 1_655
F3 Li3 1.985173 1_555
F3 Li2 2.222422 1_655
F4 Li0 1.973390 1_555
F4 Li3 2.113653 1_554
F5 Li0 1.992908 1_556
F5 Li3 2.187100 1_655
F6 Li3 2.030067 1_555
F6 Li2 2.182703 1_555
F7 Li1 1.933327 1_545
F7 Li0 2.097217 1_545
F8 Li2 1.972516 1_655
F8 Li1 2.150741 1_545
