# generated using pymatgen
data_CeOF
_symmetry_space_group_name_H-M   'P 1'
_cell_length_a   4.03066245
_cell_length_b   4.03071615
_cell_length_c   5.74429219
_cell_angle_alpha   89.98299339
_cell_angle_beta   90.01616294
_cell_angle_gamma   89.98541421
_symmetry_Int_Tables_number   1
_chemical_formula_structural   CeOF
_chemical_formula_sum   'Ce2 O2 F2'
_cell_volume   93.32438082
_cell_formula_units_Z   2
loop_
 _symmetry_equiv_pos_site_id
 _symmetry_equiv_pos_as_xyz
  1  'x, y, z'
loop_
 _atom_site_type_symbol
 _atom_site_label
 _atom_site_symmetry_multiplicity
 _atom_site_fract_x
 _atom_site_fract_y
 _atom_site_fract_z
 _atom_site_occupancy
  Ce  Ce0  1  -0.00010927  0.50011208  0.71531595  1
  Ce  Ce1  1  0.49970984  0.00028878  0.28459081  1
  O  O0  1  0.99911444  0.00093515  0.49999621  1
  O  O1  1  0.49906476  0.50088532  0.49998473  1
  F  F0  1  0.00092783  0.99870596  0.00005751  1
  F  F1  1  0.50129240  0.49907370  0.00005480  1
loop_
_geom_bond_atom_site_label_1
_geom_bond_atom_site_label_2
_geom_bond_distance
_geom_bond_site_symmetry_2
Ce0 O1 2.362107 1_555
Ce0 O0 2.362121 1_455
Ce0 O0 2.367149 1_465
Ce0 O1 2.367186 1_455
Ce0 F1 2.591516 1_456
Ce0 F0 2.591551 1_556
Ce0 F1 2.599571 1_556
Ce0 F0 2.599597 1_546
Ce1 O1 2.362497 1_545
Ce1 O0 2.362528 1_555
Ce1 O0 2.367212 1_455
Ce1 O1 2.367220 1_555
Ce1 F0 2.590637 1_545
Ce1 F1 2.590658 1_555
Ce1 F0 2.598976 1_645
Ce1 F1 2.599016 1_545
