# generated using pymatgen
data_Na3Ni2P2(CO7)2
_symmetry_space_group_name_H-M   'P 1'
_cell_length_a   8.37573800
_cell_length_b   8.37611589
_cell_length_c   10.15417231
_cell_angle_alpha   106.82058260
_cell_angle_beta   108.02779335
_cell_angle_gamma   103.54593132
_symmetry_Int_Tables_number   1
_chemical_formula_structural   Na3Ni2P2(CO7)2
_chemical_formula_sum   'Na6 Ni4 P4 C4 O28'
_cell_volume   606.01168406
_cell_formula_units_Z   2
loop_
 _symmetry_equiv_pos_site_id
 _symmetry_equiv_pos_as_xyz
  1  'x, y, z'
loop_
 _atom_site_type_symbol
 _atom_site_label
 _atom_site_symmetry_multiplicity
 _atom_site_fract_x
 _atom_site_fract_y
 _atom_site_fract_z
 _atom_site_occupancy
  Na  Na0  1  0.47829900  0.51734400  0.73961000  1
  Na  Na1  1  0.52170100  0.48265600  0.26039000  1
  Na  Na2  1  0.00305700  0.00522700  0.75203700  1
  Na  Na3  1  0.75423400  0.24029700  0.74603500  1
  Na  Na4  1  0.99694300  0.99477300  0.24796300  1
  Na  Na5  1  0.24576600  0.75970300  0.25396500  1
  Ni  Ni0  1  0.81696200  0.56079600  0.65404200  1
  Ni  Ni1  1  0.18303800  0.43920400  0.34595800  1
  Ni  Ni2  1  0.31351800  0.05901000  0.65518500  1
  Ni  Ni3  1  0.68648200  0.94099000  0.34481500  1
  P  P0  1  0.94967400  0.70156900  0.42700100  1
  P  P1  1  0.44510800  0.19442800  0.42348800  1
  P  P2  1  0.05032600  0.29843100  0.57299900  1
  P  P3  1  0.55489200  0.80557200  0.57651200  1
  C  C0  1  0.98082000  0.72824000  0.92570500  1
  C  C1  1  0.01918000  0.27176000  0.07429500  1
  C  C2  1  0.48101900  0.23345400  0.92528500  1
  C  C3  1  0.51898100  0.76654600  0.07471500  1
  O  O0  1  0.43175500  0.67688000  0.93735200  1
  O  O1  1  0.66293600  0.72534300  0.67440800  1
  O  O2  1  0.59399100  0.34314400  0.57215300  1
  O  O3  1  0.18011700  0.42204800  0.53305300  1
  O  O4  1  0.81988300  0.57795200  0.46694700  1
  O  O5  1  0.40600900  0.65685600  0.42784700  1
  O  O6  1  0.03675100  0.60242200  0.33457300  1
  O  O7  1  0.33706400  0.27465700  0.32559200  1
  O  O8  1  0.51839300  0.07894400  0.32702300  1
  O  O9  1  0.47559900  0.72446900  0.17721900  1
  O  O10  1  0.97369000  0.22822900  0.17368700  1
  O  O11  1  0.16000900  0.41729800  0.13543800  1
  O  O12  1  0.65991000  0.90892300  0.13081500  1
  O  O13  1  0.56824500  0.32312000  0.06264800  1
  O  O14  1  0.93778300  0.18385000  0.93519500  1
  O  O15  1  0.83999100  0.58270200  0.86456200  1
  O  O16  1  0.34009000  0.09107700  0.86918500  1
  O  O17  1  0.52440100  0.27553100  0.82278100  1
  O  O18  1  0.02631000  0.77177100  0.82631300  1
  O  O19  1  0.96324900  0.39757800  0.66542700  1
  O  O20  1  0.16039400  0.22053500  0.67432100  1
  O  O21  1  0.48160700  0.92105600  0.67297700  1
  O  O22  1  0.09403100  0.85292500  0.57480000  1
  O  O23  1  0.68686000  0.93337200  0.53811000  1
  O  O24  1  0.31314000  0.06662800  0.46189000  1
  O  O25  1  0.90596900  0.14707500  0.42520000  1
  O  O26  1  0.83960600  0.77946500  0.32567900  1
  O  O27  1  0.06221700  0.81615000  0.06480500  1
loop_
_geom_bond_atom_site_label_1
_geom_bond_atom_site_label_2
_geom_bond_distance
_geom_bond_site_symmetry_2
Na0 O0 2.268258 1_555
Na0 O1 2.429902 1_555
Na0 O17 2.473726 1_555
Na0 O3 2.475621 1_555
Na0 O2 2.491100 1_555
Na0 O15 2.743906 1_555
Na0 O20 2.926200 1_555
Na1 O13 2.268258 1_555
Na1 O7 2.429902 1_555
Na1 O9 2.473726 1_555
Na1 O4 2.475621 1_555
Na1 O5 2.491100 1_555
Na1 O11 2.743906 1_555
Na1 O26 2.926200 1_555
Na2 O18 2.317674 1_545
Na2 O14 2.323455 1_455
Na2 O22 2.328588 1_545
Na2 O20 2.442501 1_555
Na2 O16 2.525166 1_555
Na2 O23 2.651540 1_445
Na3 O14 2.305369 1_555
Na3 O17 2.337019 1_555
Na3 O2 2.369826 1_555
Na3 O19 2.429176 1_555
Na3 O15 2.586924 1_555
Na3 O23 2.612828 1_545
Na3 O21 2.803190 1_545
Na4 O10 2.317674 1_565
Na4 O27 2.323455 1_655
Na4 O25 2.328588 1_565
Na4 O26 2.442501 1_555
Na4 O12 2.525166 1_555
Na4 O24 2.651540 1_665
Na5 O27 2.305369 1_555
Na5 O9 2.337019 1_555
Na5 O5 2.369826 1_555
Na5 O6 2.429176 1_555
Na5 O11 2.586924 1_555
Na5 O24 2.612828 1_565
Na5 O8 2.803190 1_565
Ni0 O4 1.953354 1_555
Ni0 O2 2.017257 1_555
Ni0 O18 2.029348 1_655
Ni0 O15 2.035105 1_555
Ni0 O19 2.042591 1_555
Ni0 O1 2.107083 1_555
Ni1 O3 1.953354 1_555
Ni1 O5 2.017257 1_555
Ni1 O10 2.029348 1_455
Ni1 O11 2.035105 1_555
Ni1 O6 2.042591 1_555
Ni1 O7 2.107083 1_555
Ni2 O22 1.948020 1_545
Ni2 O24 1.981213 1_555
Ni2 O21 2.018769 1_545
Ni2 O17 2.039048 1_555
Ni2 O16 2.044123 1_555
Ni2 O20 2.080399 1_555
Ni3 O25 1.948020 1_565
Ni3 O23 1.981213 1_555
Ni3 O8 2.018769 1_565
Ni3 O9 2.039048 1_555
Ni3 O12 2.044123 1_555
Ni3 O26 2.080399 1_555
C0 O27 1.252551 1_656
C0 O18 1.297150 1_655
C0 O15 1.303057 1_555
C1 O14 1.252551 1_454
C1 O10 1.297150 1_455
C1 O11 1.303057 1_555
C2 O13 1.244694 1_556
C2 O16 1.292761 1_555
C2 O17 1.313774 1_555
C3 O0 1.244694 1_554
C3 O12 1.292761 1_555
C3 O9 1.313774 1_555
O1 P3 1.540573 1_555
O2 P1 1.550610 1_555
O3 P2 1.551490 1_555
O4 P0 1.551490 1_555
O5 P3 1.550610 1_555
O6 P0 1.535827 1_455
O7 P1 1.540573 1_555
O8 P1 1.540726 1_555
O19 P2 1.535827 1_655
O20 P2 1.554778 1_555
O21 P3 1.540726 1_555
O22 P0 1.542440 1_455
O23 P3 1.572828 1_555
O24 P1 1.572828 1_555
O25 P2 1.542440 1_655
O26 P0 1.554778 1_555
