# generated using pymatgen
data_Ba2La4Mn5SnO18
_symmetry_space_group_name_H-M   'P 1'
_cell_length_a   5.62074500
_cell_length_b   5.68698039
_cell_length_c   12.65070146
_cell_angle_alpha   102.75066660
_cell_angle_beta   102.37154508
_cell_angle_gamma   89.94750974
_symmetry_Int_Tables_number   1
_chemical_formula_structural   Ba2La4Mn5SnO18
_chemical_formula_sum   'Ba2 La4 Mn5 Sn1 O18'
_cell_volume   384.79313630
_cell_formula_units_Z   1
loop_
 _symmetry_equiv_pos_site_id
 _symmetry_equiv_pos_as_xyz
  1  'x, y, z'
loop_
 _atom_site_type_symbol
 _atom_site_label
 _atom_site_symmetry_multiplicity
 _atom_site_fract_x
 _atom_site_fract_y
 _atom_site_fract_z
 _atom_site_occupancy
  Ba  Ba0  1  0.58421400  0.08906100  0.17306100  1
  Ba  Ba1  1  0.91614000  0.41674400  0.82760100  1
  La  La0  1  0.74981900  0.24891300  0.50033600  1
  La  La1  1  0.08695800  0.58993100  0.17990800  1
  La  La2  1  0.41227900  0.91380600  0.81903200  1
  La  La3  1  0.24920000  0.74229200  0.50017000  1
  Mn  Mn0  1  0.33234600  0.32964400  0.66283000  1
  Mn  Mn1  1  0.66849400  0.66971200  0.33703300  1
  Mn  Mn2  1  0.16917400  0.17103800  0.34008100  1
  Mn  Mn3  1  0.50059100  0.50354400  0.00071100  1
  Mn  Mn4  1  0.82947700  0.82764400  0.65965300  1
  Sn  Sn0  1  0.99878100  0.00104800  0.99997000  1
  O  O0  1  0.59732500  0.57595100  0.67118400  1
  O  O1  1  0.95257500  0.90591400  0.35852000  1
  O  O2  1  0.12310300  0.62442300  0.67677100  1
  O  O3  1  0.08183200  0.01578500  0.17037100  1
  O  O4  1  0.25073000  0.30819000  0.50234000  1
  O  O5  1  0.23078400  0.71850400  0.98989900  1
  O  O6  1  0.28266700  0.24131700  0.01062800  1
  O  O7  1  0.45153600  0.95386400  0.36437200  1
  O  O8  1  0.41463200  0.34018500  0.82390800  1
  O  O9  1  0.58999800  0.62033300  0.17652700  1
  O  O10  1  0.54712100  0.04378000  0.64110900  1
  O  O11  1  0.69322800  0.77174600  0.97354900  1
  O  O12  1  0.79663800  0.30998200  0.02604100  1
  O  O13  1  0.75108900  0.68499600  0.50052400  1
  O  O14  1  0.91115600  0.94600300  0.82641300  1
  O  O15  1  0.90523300  0.40384500  0.32878000  1
  O  O16  1  0.04565200  0.08476000  0.63515800  1
  O  O17  1  0.37723000  0.44704500  0.32352000  1
loop_
_geom_bond_atom_site_label_1
_geom_bond_atom_site_label_2
_geom_bond_distance
_geom_bond_site_symmetry_2
Ba0 O6 2.671212 1_555
Ba0 O9 2.675720 1_545
Ba0 O15 2.695791 1_555
Ba0 O3 2.833782 1_655
Ba0 O3 2.846605 1_555
Ba0 O17 2.890535 1_555
Ba0 O12 2.906735 1_555
Ba0 O7 2.932676 1_545
Ba0 O11 2.941508 1_544
Ba0 O9 3.012064 1_555
Ba0 O5 3.104216 1_544
Ba0 O1 3.141568 1_545
Ba1 O14 2.673957 1_545
Ba1 O5 2.680034 1_655
Ba1 O0 2.686070 1_555
Ba1 O8 2.841565 1_555
Ba1 O8 2.843809 1_655
Ba1 O2 2.887463 1_655
Ba1 O11 2.897579 1_555
Ba1 O12 2.918568 1_556
Ba1 O16 2.957930 1_655
Ba1 O14 3.013313 1_555
Ba1 O6 3.093964 1_656
Ba1 O10 3.173225 1_555
La0 O16 2.455643 1_655
La0 O7 2.465843 1_545
La0 O13 2.479487 1_555
La0 O10 2.760327 1_555
La0 O1 2.765807 1_545
La0 O0 2.807429 1_555
La0 O15 2.812029 1_555
La0 O4 2.829959 1_655
La0 O4 2.829963 1_555
La1 O17 2.449911 1_555
La1 O3 2.451117 1_565
La1 O12 2.502436 1_455
La1 O9 2.790224 1_455
La1 O1 2.800330 1_455
La1 O9 2.842927 1_555
La2 O8 2.411921 1_565
La2 O2 2.456265 1_555
La2 O11 2.517832 1_555
La2 O14 2.790376 1_555
La2 O14 2.842563 1_455
La2 O16 3.089212 1_565
La3 O4 2.474920 1_555
La3 O10 2.509835 1_565
La3 O1 2.511919 1_455
La3 O2 2.698783 1_555
La3 O17 2.713259 1_555
La3 O16 2.717227 1_565
La3 O7 2.728471 1_555
La3 O13 2.820019 1_455
La3 O13 2.838613 1_555
La3 O0 2.913792 1_555
La3 O15 2.917539 1_455
Mn0 O4 1.959375 1_555
Mn0 O8 1.977930 1_555
Mn0 O0 2.015572 1_555
Mn0 O10 2.029063 1_555
Mn0 O2 2.044359 1_555
Mn0 O16 2.050836 1_555
Mn1 O9 1.939369 1_555
Mn1 O13 2.002529 1_555
Mn1 O15 2.013399 1_555
Mn1 O1 2.021051 1_555
Mn1 O17 2.025150 1_555
Mn1 O7 2.036780 1_555
Mn2 O4 1.980595 1_555
Mn2 O15 1.990806 1_455
Mn2 O1 2.022429 1_445
Mn2 O7 2.023268 1_545
Mn2 O17 2.031935 1_555
Mn2 O3 2.083834 1_555
Mn3 O5 1.947948 1_554
Mn3 O6 1.972766 1_555
Mn3 O12 2.001795 1_555
Mn3 O11 2.002666 1_554
Mn3 O9 2.123745 1_555
Mn3 O8 2.172507 1_554
Mn4 O13 1.950510 1_555
Mn4 O0 1.987446 1_555
Mn4 O10 2.012157 1_565
Mn4 O2 2.014997 1_655
Mn4 O14 2.018198 1_555
Mn4 O16 2.018683 1_665
O3 Sn0 2.088317 1_454
O5 Sn0 2.067750 1_465
O6 Sn0 2.064419 1_454
O11 Sn0 2.080274 1_565
O12 Sn0 2.094649 1_554
O14 Sn0 2.096383 1_565
