# generated using pymatgen
data_H7SIO10
_symmetry_space_group_name_H-M   'P 1'
_cell_length_a   5.79662500
_cell_length_b   6.02867268
_cell_length_c   12.39203800
_cell_angle_alpha   86.83824836
_cell_angle_beta   86.33139815
_cell_angle_gamma   73.65553272
_symmetry_Int_Tables_number   1
_chemical_formula_structural   H7SIO10
_chemical_formula_sum   'H14 S2 I2 O20'
_cell_volume   414.38707589
_cell_formula_units_Z   2
loop_
 _symmetry_equiv_pos_site_id
 _symmetry_equiv_pos_as_xyz
  1  'x, y, z'
loop_
 _atom_site_type_symbol
 _atom_site_label
 _atom_site_symmetry_multiplicity
 _atom_site_fract_x
 _atom_site_fract_y
 _atom_site_fract_z
 _atom_site_occupancy
  H  H0  1  0.05201200  0.24780800  0.14133600  1
  H  H1  1  0.03963100  0.30292800  0.36672600  1
  H  H2  1  0.13752700  0.18443700  0.64444000  1
  H  H3  1  0.26887900  0.68340000  0.10047200  1
  H  H4  1  0.34878900  0.05451300  0.89180300  1
  H  H5  1  0.50527300  0.31766200  0.35099400  1
  H  H6  1  0.42256700  0.78588800  0.45118700  1
  H  H7  1  0.57743300  0.21411200  0.54881300  1
  H  H8  1  0.49472700  0.68233800  0.64900600  1
  H  H9  1  0.65121100  0.94548700  0.10819700  1
  H  H10  1  0.73112100  0.31660000  0.89952800  1
  H  H11  1  0.86247300  0.81556300  0.35556000  1
  H  H12  1  0.96036900  0.69707200  0.63327400  1
  H  H13  1  0.94798800  0.75219200  0.85866400  1
  S  S0  1  0.36072800  0.43355400  0.74393400  1
  S  S1  1  0.63927200  0.56644600  0.25606600  1
  I  I0  1  0.00000000  0.00000000  0.00000000  1
  I  I1  1  0.00000000  0.00000000  0.50000000  1
  O  O0  1  0.16777000  0.13508800  0.09344800  1
  O  O1  1  0.13138900  0.23349400  0.43290800  1
  O  O2  1  0.00657300  0.87804600  0.36184800  1
  O  O3  1  0.10556000  0.70396200  0.07316000  1
  O  O4  1  0.11738300  0.59662700  0.74601600  1
  O  O5  1  0.38408600  0.26353800  0.65815200  1
  O  O6  1  0.45116600  0.42385800  0.28781300  1
  O  O7  1  0.32360500  0.81085500  0.52201600  1
  O  O8  1  0.43649200  0.32455400  0.84817400  1
  O  O9  1  0.28687000  0.91732700  0.90868500  1
  O  O10  1  0.71313000  0.08267300  0.09131500  1
  O  O11  1  0.56350800  0.67544600  0.15182600  1
  O  O12  1  0.67639500  0.18914500  0.47798400  1
  O  O13  1  0.54883400  0.57614200  0.71218700  1
  O  O14  1  0.61591400  0.73646200  0.34184800  1
  O  O15  1  0.88261700  0.40337300  0.25398400  1
  O  O16  1  0.89444000  0.29603800  0.92684000  1
  O  O17  1  0.99342700  0.12195400  0.63815200  1
  O  O18  1  0.86861100  0.76650600  0.56709200  1
  O  O19  1  0.83223000  0.86491200  0.90655200  1
loop_
_geom_bond_atom_site_label_1
_geom_bond_atom_site_label_2
_geom_bond_distance
_geom_bond_site_symmetry_2
H0 O0 1.000544 1_555
H1 O1 1.011623 1_555
H2 O17 1.017025 1_455
H2 O5 1.650010 1_555
H3 O3 0.998239 1_555
H4 O9 0.997486 1_545
H5 O6 0.992152 1_555
H6 O7 1.011758 1_555
H6 O14 1.686114 1_555
H7 O12 1.011758 1_555
H7 O5 1.686114 1_555
H8 O13 0.992152 1_555
H9 O10 0.997486 1_565
H10 O16 0.998239 1_555
H11 O2 1.017025 1_655
H11 O14 1.650010 1_555
H12 O18 1.011623 1_555
H13 O19 1.000544 1_555
I0 O19 1.908901 1_444
I0 O0 1.908901 1_555
I0 O10 1.910234 1_455
I0 O9 1.910234 1_544
I0 O16 1.912962 1_454
I0 O3 1.912962 1_545
I1 O2 1.894103 1_545
I1 O17 1.894103 1_455
I1 O18 1.909466 1_445
I1 O1 1.909466 1_555
I1 O7 1.928911 1_545
I1 O12 1.928911 1_455
O4 S0 1.474637 1_555
O5 S0 1.490825 1_555
O6 S1 1.586814 1_555
O8 S0 1.452526 1_555
O11 S1 1.452526 1_555
O13 S0 1.586814 1_555
O14 S1 1.490825 1_555
O15 S1 1.474637 1_555
