# generated using pymatgen
data_LiFeSiO4
_symmetry_space_group_name_H-M   'P 1'
_cell_length_a   5.53597000
_cell_length_b   5.53596137
_cell_length_c   22.96052300
_cell_angle_alpha   90.00000000
_cell_angle_beta   90.00000000
_cell_angle_gamma   60.00003764
_symmetry_Int_Tables_number   1
_chemical_formula_structural   LiFeSiO4
_chemical_formula_sum   'Li6 Fe6 Si6 O24'
_cell_volume   609.39565266
_cell_formula_units_Z   6
loop_
 _symmetry_equiv_pos_site_id
 _symmetry_equiv_pos_as_xyz
  1  'x, y, z'
loop_
 _atom_site_type_symbol
 _atom_site_label
 _atom_site_symmetry_multiplicity
 _atom_site_fract_x
 _atom_site_fract_y
 _atom_site_fract_z
 _atom_site_occupancy
  Li  Li0  1  0.00000000  0.00000000  0.00000000  1
  Li  Li1  1  0.00000000  0.00000000  0.50000000  1
  Li  Li2  1  0.00000000  0.00000000  0.16666600  1
  Li  Li3  1  0.00000000  0.00000000  0.66666600  1
  Li  Li4  1  0.00000000  0.00000000  0.33333300  1
  Li  Li5  1  0.00000000  0.00000000  0.83333300  1
  Fe  Fe0  1  0.50000000  0.50000000  0.66667000  1
  Fe  Fe1  1  0.00000000  0.50000000  0.33333100  1
  Fe  Fe2  1  0.50000000  0.00000000  0.99999900  1
  Fe  Fe3  1  0.50000000  0.50000000  0.16667000  1
  Fe  Fe4  1  0.00000000  0.50000000  0.83333100  1
  Fe  Fe5  1  0.50000000  0.00000000  0.49999900  1
  Si  Si0  1  0.50000000  0.50000000  0.41666600  1
  Si  Si1  1  0.50000000  0.50000000  0.91666600  1
  Si  Si2  1  0.00000000  0.50000000  0.08333400  1
  Si  Si3  1  0.00000000  0.50000000  0.58333400  1
  Si  Si4  1  0.50000000  0.00000000  0.25000000  1
  Si  Si5  1  0.50000000  0.00000000  0.75000000  1
  O  O0  1  0.39617700  0.82686000  0.20850700  1
  O  O1  1  0.39617700  0.82686000  0.70850700  1
  O  O2  1  0.39617600  0.77696600  0.45816000  1
  O  O3  1  0.39617600  0.77696600  0.95816000  1
  O  O4  1  0.82685900  0.39617600  0.12482500  1
  O  O5  1  0.82685900  0.39617600  0.62482500  1
  O  O6  1  0.77696400  0.39617500  0.37517500  1
  O  O7  1  0.77696400  0.39617500  0.87517500  1
  O  O8  1  0.82686000  0.77696500  0.04184000  1
  O  O9  1  0.82686000  0.77696500  0.54184000  1
  O  O10  1  0.77696500  0.82686000  0.29149300  1
  O  O11  1  0.77696500  0.82686000  0.79149300  1
  O  O12  1  0.22303500  0.17314000  0.29149300  1
  O  O13  1  0.22303500  0.17314000  0.79149300  1
  O  O14  1  0.17314000  0.22303500  0.04184000  1
  O  O15  1  0.17314000  0.22303500  0.54184000  1
  O  O16  1  0.22303600  0.60382500  0.37517500  1
  O  O17  1  0.22303600  0.60382500  0.87517500  1
  O  O18  1  0.17314100  0.60382400  0.12482500  1
  O  O19  1  0.17314100  0.60382400  0.62482500  1
  O  O20  1  0.60382400  0.22303400  0.45816000  1
  O  O21  1  0.60382400  0.22303400  0.95816000  1
  O  O22  1  0.60382300  0.17314000  0.20850700  1
  O  O23  1  0.60382300  0.17314000  0.70850700  1
loop_
_geom_bond_atom_site_label_1
_geom_bond_atom_site_label_2
_geom_bond_distance
_geom_bond_site_symmetry_2
Li0 O14 2.132976 1_555
Li0 O8 2.132976 1_445
Li0 O21 2.132982 1_454
Li0 O3 2.132982 1_544
Li1 O15 2.132976 1_555
Li1 O9 2.132976 1_445
Li1 O20 2.132982 1_455
Li1 O2 2.132982 1_545
Li2 O18 2.132990 1_545
Li2 O4 2.132990 1_455
Li2 O22 2.132998 1_455
Li2 O0 2.132998 1_545
Li3 O5 2.132990 1_455
Li3 O19 2.132990 1_545
Li3 O1 2.132998 1_545
Li3 O23 2.132998 1_455
Li4 O12 2.132976 1_555
Li4 O10 2.132976 1_445
Li4 O16 2.132997 1_545
Li4 O6 2.132997 1_455
Li5 O13 2.132976 1_555
Li5 O11 2.132976 1_445
Li5 O17 2.132997 1_545
Li5 O7 2.132997 1_455
Fe0 O23 1.867435 1_555
Fe0 O1 1.867435 1_555
Fe0 O19 1.867527 1_555
Fe0 O5 1.867527 1_555
Fe1 O12 1.867446 1_555
Fe1 O10 1.867446 1_455
Fe1 O16 1.867522 1_555
Fe1 O6 1.867522 1_455
Fe2 O21 1.867449 1_555
Fe2 O3 1.867449 1_545
Fe2 O14 1.867483 1_556
Fe2 O8 1.867483 1_546
Fe3 O22 1.867435 1_555
Fe3 O0 1.867435 1_555
Fe3 O18 1.867527 1_555
Fe3 O4 1.867527 1_555
Fe4 O13 1.867446 1_555
Fe4 O11 1.867446 1_455
Fe4 O17 1.867522 1_555
Fe4 O7 1.867522 1_455
Fe5 O20 1.867449 1_555
Fe5 O2 1.867449 1_545
Fe5 O15 1.867483 1_555
Fe5 O9 1.867483 1_545
O0 Si4 1.645482 1_565
O1 Si5 1.645482 1_565
O2 Si0 1.645507 1_555
O3 Si1 1.645507 1_555
O4 Si2 1.645464 1_655
O5 Si3 1.645464 1_655
O6 Si0 1.645460 1_555
O7 Si1 1.645460 1_555
O8 Si2 1.645502 1_655
O9 Si3 1.645502 1_655
O10 Si4 1.645491 1_565
O11 Si5 1.645491 1_565
O12 Si4 1.645491 1_555
O13 Si5 1.645491 1_555
O14 Si2 1.645502 1_555
O15 Si3 1.645502 1_555
O16 Si0 1.645460 1_555
O17 Si1 1.645460 1_555
O18 Si2 1.645464 1_555
O19 Si3 1.645464 1_555
O20 Si0 1.645507 1_555
O21 Si1 1.645507 1_555
O22 Si4 1.645482 1_555
O23 Si5 1.645482 1_555
