# generated using pymatgen
data_Li4Cr3FeO8
_symmetry_space_group_name_H-M   'P 1'
_cell_length_a   5.11306773
_cell_length_b   5.16579037
_cell_length_c   5.94027334
_cell_angle_alpha   89.99998955
_cell_angle_beta   90.00001330
_cell_angle_gamma   70.61957645
_symmetry_Int_Tables_number   1
_chemical_formula_structural   Li4Cr3FeO8
_chemical_formula_sum   'Li4 Cr3 Fe1 O8'
_cell_volume   148.01004968
_cell_formula_units_Z   1
loop_
 _symmetry_equiv_pos_site_id
 _symmetry_equiv_pos_as_xyz
  1  'x, y, z'
loop_
 _atom_site_type_symbol
 _atom_site_label
 _atom_site_symmetry_multiplicity
 _atom_site_fract_x
 _atom_site_fract_y
 _atom_site_fract_z
 _atom_site_occupancy
  Li  Li0  1  0.00000200  0.00000300  0.99999900  1
  Li  Li1  1  0.00000300  0.00000200  0.49999900  1
  Li  Li2  1  0.50000500  0.00000100  0.24925500  1
  Li  Li3  1  0.50000400  0.00000000  0.75074100  1
  Cr  Cr0  1  0.49999400  0.49999200  0.49999700  1
  Cr  Cr1  1  0.99999500  0.50000400  0.25043000  1
  Cr  Cr2  1  0.99999700  0.50000200  0.74957800  1
  Fe  Fe0  1  0.50000300  0.50000700  0.99999700  1
  O  O0  1  0.23922900  0.27228000  0.00000200  1
  O  O1  1  0.76077600  0.72772400  0.00000200  1
  O  O2  1  0.24149100  0.27409800  0.50000200  1
  O  O3  1  0.75850200  0.72588700  0.50000200  1
  O  O4  1  0.25656100  0.72800600  0.25165700  1
  O  O5  1  0.74343800  0.27199500  0.25165600  1
  O  O6  1  0.25656300  0.72800400  0.74834100  1
  O  O7  1  0.74343700  0.27199600  0.74834300  1
loop_
_geom_bond_atom_site_label_1
_geom_bond_atom_site_label_2
_geom_bond_distance
_geom_bond_site_symmetry_2
Li0 O0 2.148560 1_556
Li0 O1 2.148565 1_446
Li0 O7 2.169458 1_455
Li0 O5 2.169458 1_456
Li0 O4 2.169463 1_546
Li0 O6 2.169472 1_545
Li1 O4 2.155933 1_545
Li1 O6 2.155941 1_545
Li1 O5 2.155944 1_455
Li1 O7 2.155953 1_455
Li1 O2 2.165581 1_555
Li1 O3 2.165716 1_445
Li2 O5 2.164335 1_555
Li2 O4 2.164384 1_545
Li2 O1 2.168809 1_545
Li2 O0 2.168823 1_555
Li2 O2 2.174514 1_555
Li2 O3 2.174519 1_545
Li3 O7 2.164343 1_555
Li3 O6 2.164376 1_545
Li3 O1 2.168841 1_546
Li3 O0 2.168857 1_556
Li3 O2 2.174481 1_555
Li3 O3 2.174487 1_545
Cr0 O2 2.032817 1_555
Cr0 O3 2.032843 1_555
Cr0 O5 2.034661 1_555
Cr0 O4 2.034665 1_555
Cr0 O6 2.034675 1_555
Cr0 O7 2.034678 1_555
Cr1 O3 2.031719 1_555
Cr1 O2 2.031769 1_655
Cr1 O5 2.033131 1_555
Cr1 O4 2.033141 1_655
Cr1 O1 2.034193 1_555
Cr1 O0 2.034233 1_655
Cr2 O3 2.031743 1_555
Cr2 O2 2.031779 1_655
Cr2 O7 2.033131 1_555
Cr2 O6 2.033141 1_655
Cr2 O1 2.034184 1_556
Cr2 O0 2.034206 1_656
Fe0 O6 2.048974 1_555
Fe0 O7 2.048980 1_555
Fe0 O4 2.049000 1_556
Fe0 O5 2.049005 1_556
Fe0 O1 2.050013 1_556
Fe0 O0 2.050058 1_556
