# generated using pymatgen
data_Li2Ni2SnO6
_symmetry_space_group_name_H-M   'P 1'
_cell_length_a   6.63261700
_cell_length_b   6.74387137
_cell_length_c   8.50347568
_cell_angle_alpha   71.75234870
_cell_angle_beta   71.42563921
_cell_angle_gamma   83.71714687
_symmetry_Int_Tables_number   1
_chemical_formula_structural   Li2Ni2SnO6
_chemical_formula_sum   'Li6 Ni6 Sn3 O18'
_cell_volume   342.39307738
_cell_formula_units_Z   3
loop_
 _symmetry_equiv_pos_site_id
 _symmetry_equiv_pos_as_xyz
  1  'x, y, z'
loop_
 _atom_site_type_symbol
 _atom_site_label
 _atom_site_symmetry_multiplicity
 _atom_site_fract_x
 _atom_site_fract_y
 _atom_site_fract_z
 _atom_site_occupancy
  Li  Li0  1  0.16233500  0.51092700  0.32563700  1
  Li  Li1  1  0.83766500  0.48907300  0.67436300  1
  Li  Li2  1  0.81522700  0.15037900  0.00371000  1
  Li  Li3  1  0.50434700  0.12602400  0.33917400  1
  Li  Li4  1  0.49565300  0.87397600  0.66082600  1
  Li  Li5  1  0.18477300  0.84962100  0.99629000  1
  Ni  Ni0  1  0.82967700  0.84354200  0.82373400  1
  Ni  Ni1  1  0.50893000  0.16248700  0.83681000  1
  Ni  Ni2  1  0.17032300  0.15645800  0.17626600  1
  Ni  Ni3  1  0.84111300  0.16387900  0.49483000  1
  Ni  Ni4  1  0.49107000  0.83751300  0.16319000  1
  Ni  Ni5  1  0.15888700  0.83612100  0.50517000  1
  Sn  Sn0  1  0.50000000  0.50000000  0.50000000  1
  Sn  Sn1  1  0.17291400  0.49450500  0.83937300  1
  Sn  Sn2  1  0.82708600  0.50549500  0.16062700  1
  O  O0  1  0.80268400  0.83177900  0.05769400  1
  O  O1  1  0.45868800  0.82284700  0.43862700  1
  O  O2  1  0.14682800  0.81770900  0.75056700  1
  O  O3  1  0.82860400  0.49203700  0.41008100  1
  O  O4  1  0.50121600  0.46894700  0.75013000  1
  O  O5  1  0.80445900  0.16169600  0.74101300  1
  O  O6  1  0.49878400  0.53105300  0.24987000  1
  O  O7  1  0.17139600  0.50796300  0.58991900  1
  O  O8  1  0.54131200  0.17715300  0.56137300  1
  O  O9  1  0.15358300  0.51161200  0.08240500  1
  O  O10  1  0.48181000  0.12696000  0.10301200  1
  O  O11  1  0.14259300  0.15460500  0.40281800  1
  O  O12  1  0.84641700  0.48838800  0.91759500  1
  O  O13  1  0.19731600  0.16822100  0.94230600  1
  O  O14  1  0.85317200  0.18229100  0.24943300  1
  O  O15  1  0.51819000  0.87304000  0.89698800  1
  O  O16  1  0.19554100  0.83830400  0.25898700  1
  O  O17  1  0.85740700  0.84539500  0.59718200  1
loop_
_geom_bond_atom_site_label_1
_geom_bond_atom_site_label_2
_geom_bond_distance
_geom_bond_site_symmetry_2
Li0 O9 2.086091 1_555
Li0 O3 2.103168 1_455
Li0 O16 2.118335 1_555
Li0 O6 2.123410 1_555
Li0 O7 2.260992 1_555
Li0 O11 2.291006 1_555
Li1 O12 2.086091 1_555
Li1 O7 2.103168 1_655
Li1 O5 2.118335 1_555
Li1 O4 2.123410 1_555
Li1 O3 2.260992 1_555
Li1 O17 2.291006 1_555
Li2 O0 2.056996 1_545
Li2 O10 2.105154 1_555
Li2 O12 2.176340 1_554
Li2 O5 2.234868 1_554
Li2 O14 2.259237 1_555
Li2 O13 2.427742 1_654
Li3 O1 1.968950 1_545
Li3 O10 2.058722 1_555
Li3 O8 2.114404 1_555
Li3 O14 2.228275 1_555
Li3 O11 2.285584 1_555
Li3 O6 2.595327 1_555
Li4 O8 1.968950 1_565
Li4 O15 2.058722 1_555
Li4 O1 2.114404 1_555
Li4 O2 2.228275 1_555
Li4 O17 2.285584 1_555
Li4 O4 2.595327 1_555
Li5 O13 2.056996 1_565
Li5 O15 2.105154 1_555
Li5 O9 2.176340 1_556
Li5 O16 2.234868 1_556
Li5 O2 2.259237 1_555
Li5 O0 2.427742 1_456
Ni0 O17 1.872166 1_555
Ni0 O0 1.916692 1_556
Ni0 O15 1.965612 1_555
Ni0 O2 1.999057 1_655
Ni0 O5 2.043910 1_565
Ni0 O12 2.277501 1_555
Ni1 O15 1.855841 1_545
Ni1 O5 1.867866 1_555
Ni1 O4 1.965745 1_555
Ni1 O13 1.975100 1_555
Ni1 O10 2.150401 1_556
Ni1 O8 2.254059 1_555
Ni2 O11 1.872166 1_555
Ni2 O13 1.916692 1_554
Ni2 O10 1.965612 1_555
Ni2 O14 1.999057 1_455
Ni2 O16 2.043910 1_545
Ni2 O9 2.277501 1_555
Ni3 O8 1.886304 1_555
Ni3 O11 1.902908 1_655
Ni3 O5 2.024586 1_555
Ni3 O14 2.027271 1_555
Ni3 O17 2.054443 1_545
Ni3 O3 2.103086 1_555
Ni4 O10 1.855841 1_565
Ni4 O16 1.867866 1_555
Ni4 O6 1.965745 1_555
Ni4 O0 1.975100 1_555
Ni4 O15 2.150401 1_554
Ni4 O1 2.254059 1_555
Ni5 O1 1.886304 1_555
Ni5 O17 1.902908 1_455
Ni5 O16 2.024586 1_555
Ni5 O2 2.027271 1_555
Ni5 O11 2.054443 1_565
Ni5 O7 2.103086 1_555
O0 Sn2 2.107203 1_555
O1 Sn0 2.082487 1_555
O2 Sn1 2.078692 1_555
O3 Sn0 2.067896 1_555
O3 Sn2 2.097803 1_555
O4 Sn1 2.072233 1_555
O4 Sn0 2.073536 1_555
O6 Sn2 2.072233 1_555
O6 Sn0 2.073536 1_555
O7 Sn0 2.067896 1_555
O7 Sn1 2.097803 1_555
O8 Sn0 2.082487 1_555
O9 Sn2 2.053868 1_455
O9 Sn1 2.068314 1_554
O12 Sn1 2.053868 1_655
O12 Sn2 2.068314 1_556
O13 Sn1 2.107203 1_555
O14 Sn2 2.078692 1_555
