# generated using pymatgen
data_Na(NiO2)2
_symmetry_space_group_name_H-M   'P 1'
_cell_length_a   4.87145300
_cell_length_b   5.77113800
_cell_length_c   12.61878487
_cell_angle_alpha   63.17484079
_cell_angle_beta   90.00000000
_cell_angle_gamma   90.00000000
_symmetry_Int_Tables_number   1
_chemical_formula_structural   Na(NiO2)2
_chemical_formula_sum   'Na4 Ni8 O16'
_cell_volume   316.58556655
_cell_formula_units_Z   4
loop_
 _symmetry_equiv_pos_site_id
 _symmetry_equiv_pos_as_xyz
  1  'x, y, z'
loop_
 _atom_site_type_symbol
 _atom_site_label
 _atom_site_symmetry_multiplicity
 _atom_site_fract_x
 _atom_site_fract_y
 _atom_site_fract_z
 _atom_site_occupancy
  Na  Na0  1  0.51422800  0.00023900  0.24988100  1
  Na  Na1  1  0.85763300  0.49966500  0.75035400  1
  Na  Na2  1  0.14236700  0.49966500  0.25035400  1
  Na  Na3  1  0.48577200  0.00023900  0.74988100  1
  Ni  Ni0  1  0.50068100  0.74948800  0.00345900  1
  Ni  Ni1  1  0.49737100  0.25067700  0.99649900  1
  Ni  Ni2  1  0.50262900  0.25067700  0.49649900  1
  Ni  Ni3  1  0.49931900  0.74948800  0.50345900  1
  Ni  Ni4  1  0.99912700  0.50031700  0.99993900  1
  Ni  Ni5  1  0.99914100  0.99976500  0.99993500  1
  Ni  Ni6  1  0.00087300  0.50031700  0.49993900  1
  Ni  Ni7  1  0.00085900  0.99976500  0.49993500  1
  O  O0  1  0.66982000  0.39854400  0.58888400  1
  O  O1  1  0.67739300  0.09048200  0.90697600  1
  O  O2  1  0.67447000  0.92484400  0.59043100  1
  O  O3  1  0.67441800  0.59097300  0.90869700  1
  O  O4  1  0.83293400  0.67245700  0.08793700  1
  O  O5  1  0.83176700  0.32948200  0.41156000  1
  O  O6  1  0.82101200  0.15081400  0.08613100  1
  O  O7  1  0.81791900  0.85256300  0.41352800  1
  O  O8  1  0.17898800  0.15081400  0.58613100  1
  O  O9  1  0.18208100  0.85256300  0.91352800  1
  O  O10  1  0.16706600  0.67245700  0.58793700  1
  O  O11  1  0.16823300  0.32948200  0.91156000  1
  O  O12  1  0.32558200  0.59097300  0.40869700  1
  O  O13  1  0.32260700  0.09048200  0.40697600  1
  O  O14  1  0.32553000  0.92484400  0.09043100  1
  O  O15  1  0.33018000  0.39854400  0.08888400  1
loop_
_geom_bond_atom_site_label_1
_geom_bond_atom_site_label_2
_geom_bond_distance
_geom_bond_site_symmetry_2
Na0 O7 2.364517 1_545
Na0 O6 2.374387 1_555
Na0 O14 2.423402 1_545
Na0 O15 2.449548 1_555
Na0 O13 2.450328 1_555
Na0 O12 2.483422 1_545
Na1 O11 2.364082 1_655
Na1 O10 2.371186 1_655
Na1 O3 2.452946 1_555
Na1 O1 2.457886 1_555
Na1 O0 2.530312 1_555
Na1 O2 2.533851 1_555
Na2 O5 2.364082 1_455
Na2 O4 2.371186 1_455
Na2 O12 2.452946 1_555
Na2 O13 2.457886 1_555
Na2 O15 2.530312 1_555
Na2 O14 2.533851 1_555
Na3 O9 2.364517 1_545
Na3 O8 2.374387 1_555
Na3 O2 2.423402 1_545
Na3 O0 2.449548 1_555
Na3 O1 2.450328 1_555
Na3 O3 2.483422 1_545
Ni0 O9 1.855061 1_554
Ni0 O4 1.877768 1_555
Ni0 O1 1.983342 1_564
Ni0 O14 1.989734 1_555
Ni0 O3 1.992583 1_554
Ni0 O15 1.995856 1_555
Ni1 O11 1.867224 1_555
Ni1 O6 1.873171 1_556
Ni1 O14 1.905274 1_546
Ni1 O15 1.910108 1_556
Ni1 O1 1.960242 1_555
Ni1 O3 1.965826 1_555
Ni2 O5 1.867224 1_555
Ni2 O8 1.873171 1_555
Ni2 O2 1.905274 1_545
Ni2 O0 1.910108 1_555
Ni2 O13 1.960242 1_555
Ni2 O12 1.965826 1_555
Ni3 O7 1.855061 1_555
Ni3 O10 1.877768 1_555
Ni3 O13 1.983342 1_565
Ni3 O2 1.989734 1_555
Ni3 O12 1.992583 1_555
Ni3 O0 1.995856 1_555
Ni4 O3 1.886213 1_555
Ni4 O15 1.900148 1_656
Ni4 O4 1.967503 1_556
Ni4 O11 1.971489 1_655
Ni4 O6 2.006052 1_556
Ni4 O9 2.028602 1_655
Ni5 O9 1.881692 1_655
Ni5 O6 1.884599 1_566
Ni5 O1 1.884807 1_565
Ni5 O4 1.887758 1_556
Ni5 O14 1.890352 1_656
Ni5 O11 1.904668 1_665
Ni6 O12 1.886213 1_555
Ni6 O0 1.900148 1_455
Ni6 O10 1.967503 1_555
Ni6 O5 1.971489 1_455
Ni6 O8 2.006052 1_555
Ni6 O7 2.028602 1_455
Ni7 O7 1.881692 1_455
Ni7 O8 1.884599 1_565
Ni7 O13 1.884807 1_565
Ni7 O10 1.887758 1_555
Ni7 O2 1.890352 1_455
Ni7 O5 1.904668 1_465
