# generated using pymatgen
data_Li3Mn4SnO8
_symmetry_space_group_name_H-M   'P 1'
_cell_length_a   6.15804908
_cell_length_b   6.15600879
_cell_length_c   6.26501021
_cell_angle_alpha   119.80343574
_cell_angle_beta   119.82571726
_cell_angle_gamma   61.40149960
_symmetry_Int_Tables_number   1
_chemical_formula_structural   Li3Mn4SnO8
_chemical_formula_sum   'Li3 Mn4 Sn1 O8'
_cell_volume   170.12835104
_cell_formula_units_Z   1
loop_
 _symmetry_equiv_pos_site_id
 _symmetry_equiv_pos_as_xyz
  1  'x, y, z'
loop_
 _atom_site_type_symbol
 _atom_site_label
 _atom_site_symmetry_multiplicity
 _atom_site_fract_x
 _atom_site_fract_y
 _atom_site_fract_z
 _atom_site_occupancy
  Li  Li0  1  0.00024800  0.00013600  0.50026900  1
  Li  Li1  1  0.00004200  0.50026500  0.00028500  1
  Li  Li2  1  0.50016300  0.00015400  0.00019100  1
  Mn  Mn0  1  0.99965700  0.49981500  0.49981200  1
  Mn  Mn1  1  0.50014600  0.99943000  0.49984900  1
  Mn  Mn2  1  0.49993900  0.49960500  0.49968500  1
  Mn  Mn3  1  0.00011600  0.99994100  0.99958100  1
  Sn  Sn0  1  0.49988900  0.50009500  0.99988400  1
  O  O0  1  0.25753500  0.25824300  0.74616400  1
  O  O1  1  0.74237500  0.74185100  0.25379600  1
  O  O2  1  0.75041900  0.74903000  0.73426000  1
  O  O3  1  0.24960900  0.25093400  0.26616700  1
  O  O4  1  0.25340800  0.73259700  0.23247700  1
  O  O5  1  0.73236800  0.25322700  0.23226500  1
  O  O6  1  0.26745700  0.74702200  0.76759800  1
  O  O7  1  0.74663100  0.26765500  0.76771700  1
loop_
_geom_bond_atom_site_label_1
_geom_bond_atom_site_label_2
_geom_bond_distance
_geom_bond_site_symmetry_2
Li0 O0 2.226446 1_555
Li0 O1 2.229724 1_445
Li0 O6 2.310574 1_545
Li0 O5 2.313581 1_455
Li0 O4 2.314003 1_545
Li0 O7 2.314431 1_455
Li1 O4 2.099164 1_555
Li1 O7 2.100515 1_454
Li1 O1 2.269741 1_455
Li1 O0 2.271642 1_554
Li1 O2 2.284932 1_454
Li1 O3 2.286761 1_555
Li2 O5 2.097311 1_555
Li2 O6 2.099663 1_544
Li2 O1 2.271809 1_545
Li2 O0 2.272682 1_554
Li2 O2 2.292062 1_544
Li2 O3 2.293593 1_555
Mn0 O3 2.147893 1_655
Mn0 O2 2.148262 1_555
Mn0 O0 2.167516 1_655
Mn0 O1 2.167857 1_555
Mn0 O5 2.222933 1_555
Mn0 O6 2.227706 1_655
Mn1 O2 2.152363 1_555
Mn1 O3 2.154152 1_565
Mn1 O1 2.169980 1_555
Mn1 O0 2.173112 1_565
Mn1 O4 2.221539 1_555
Mn1 O7 2.226586 1_565
Mn2 O3 2.156302 1_555
Mn2 O2 2.160089 1_555
Mn2 O7 2.221660 1_555
Mn2 O5 2.221960 1_555
Mn2 O4 2.222305 1_555
Mn2 O6 2.224459 1_555
Mn3 O3 2.166151 1_566
Mn3 O2 2.166162 1_455
Mn3 O6 2.218906 1_555
Mn3 O7 2.219062 1_465
Mn3 O4 2.221734 1_556
Mn3 O5 2.223754 1_466
O0 Sn0 2.094175 1_555
O1 Sn0 2.094387 1_554
O4 Sn0 2.126720 1_554
O5 Sn0 2.126475 1_554
O6 Sn0 2.126324 1_555
O7 Sn0 2.126018 1_555
