# generated using pymatgen
data_Li4V3Fe3(TeO8)2
_symmetry_space_group_name_H-M   'P 1'
_cell_length_a   6.02220936
_cell_length_b   5.94584329
_cell_length_c   10.23177824
_cell_angle_alpha   90.16827874
_cell_angle_beta   89.48689886
_cell_angle_gamma   118.88339881
_symmetry_Int_Tables_number   1
_chemical_formula_structural   Li4V3Fe3(TeO8)2
_chemical_formula_sum   'Li4 V3 Fe3 Te2 O16'
_cell_volume   320.78234660
_cell_formula_units_Z   1
loop_
 _symmetry_equiv_pos_site_id
 _symmetry_equiv_pos_as_xyz
  1  'x, y, z'
loop_
 _atom_site_type_symbol
 _atom_site_label
 _atom_site_symmetry_multiplicity
 _atom_site_fract_x
 _atom_site_fract_y
 _atom_site_fract_z
 _atom_site_occupancy
  Li  Li0  1  0.33146900  0.67578200  0.90114100  1
  Li  Li1  1  0.99740000  0.99335000  0.99474500  1
  Li  Li2  1  0.99152500  0.99861300  0.48470900  1
  Li  Li3  1  0.67344000  0.33012400  0.40675500  1
  V  V0  1  0.64251800  0.79952000  0.22701600  1
  V  V1  1  0.81256700  0.65950300  0.72027800  1
  V  V2  1  0.82714400  0.17271800  0.71511000  1
  Fe  Fe0  1  0.18048200  0.84001100  0.21930700  1
  Fe  Fe1  1  0.16718700  0.34196600  0.21495100  1
  Fe  Fe2  1  0.33748600  0.16367400  0.71167600  1
  Te  Te0  1  0.30694000  0.65665400  0.49370200  1
  Te  Te1  1  0.66293400  0.32114300  0.00817200  1
  O  O0  1  0.14295400  0.82927800  0.59615000  1
  O  O1  1  0.04298800  0.52663800  0.35674800  1
  O  O2  1  0.34872000  0.68758400  0.10789500  1
  O  O3  1  0.98171100  0.98433900  0.30310300  1
  O  O4  1  0.00533900  0.99884400  0.80993900  1
  O  O5  1  0.15051000  0.31659800  0.59434200  1
  O  O6  1  0.49109000  0.97257000  0.33263000  1
  O  O7  1  0.51723900  0.52763000  0.33377400  1
  O  O8  1  0.32809200  0.16050900  0.09624300  1
  O  O9  1  0.71632300  0.87335100  0.61180800  1
  O  O10  1  0.52408400  0.51093600  0.81339400  1
  O  O11  1  0.51911800  0.02884800  0.82301500  1
  O  O12  1  0.66947400  0.33734700  0.60868500  1
  O  O13  1  0.83406700  0.66374800  0.10686200  1
  O  O14  1  0.97760200  0.48096400  0.81573600  1
  O  O15  1  0.81960000  0.14805700  0.09995500  1
loop_
_geom_bond_atom_site_label_1
_geom_bond_atom_site_label_2
_geom_bond_distance
_geom_bond_site_symmetry_2
Li0 O11 2.006209 1_565
Li0 O10 2.046168 1_555
Li0 O14 2.071107 1_455
Li0 O2 2.118234 1_556
Li1 O4 1.891049 1_655
Li1 O15 2.019040 1_566
Li1 O8 2.037450 1_666
Li1 O13 2.062743 1_556
Li2 O3 1.860006 1_555
Li2 O9 1.940935 1_555
Li2 O5 2.001924 1_665
Li2 O0 2.014417 1_655
Li3 O7 1.976474 1_555
Li3 O1 2.012685 1_655
Li3 O6 2.012690 1_545
Li3 O12 2.066587 1_555
Fe0 O3 1.968275 1_455
Fe0 O2 2.001919 1_555
Fe0 O6 2.018365 1_555
Fe0 O8 2.089184 1_565
Fe0 O1 2.153844 1_555
Fe0 O13 2.167474 1_455
Fe1 O3 2.069158 1_445
Fe1 O2 2.106996 1_555
Fe1 O8 2.135292 1_555
Fe1 O1 2.152820 1_555
Fe1 O15 2.190898 1_455
Fe1 O7 2.220500 1_555
Fe2 O11 2.002913 1_555
Fe2 O4 2.012046 1_545
Fe2 O12 2.036708 1_555
Fe2 O10 2.091898 1_555
Fe2 O0 2.117459 1_545
Fe2 O5 2.134396 1_555
O0 Te0 2.020370 1_555
O0 V1 2.147730 1_455
O1 Te0 1.983524 1_555
O2 V0 1.988770 1_555
O3 V0 1.959892 1_555
O4 V1 2.001420 1_455
O4 V2 2.063526 1_465
O5 Te0 2.047123 1_555
O5 V2 2.098743 1_455
O6 V0 1.985027 1_555
O6 Te0 2.333949 1_555
O7 V0 1.786944 1_555
O7 Te0 2.400876 1_555
O8 Te1 1.975449 1_555
O9 V2 1.893384 1_565
O9 V1 1.978933 1_555
O9 Te0 2.484767 1_555
O10 V1 1.788573 1_555
O10 Te1 2.626607 1_556
O11 V2 1.956433 1_555
O11 Te1 2.432190 1_556
O12 V2 1.992028 1_555
O12 V1 2.031142 1_555
O13 Te1 2.051795 1_555
O13 V0 2.088580 1_555
O14 V2 1.908260 1_555
O14 V1 2.027656 1_555
O14 Te1 2.564248 1_556
O15 Te1 1.946986 1_555
O15 V0 2.231153 1_545
