# generated using pymatgen
data_Mg3Ti9O20
_symmetry_space_group_name_H-M   'P 1'
_cell_length_a   10.68762354
_cell_length_b   10.68763927
_cell_length_c   5.21515454
_cell_angle_alpha   82.70320343
_cell_angle_beta   82.69890197
_cell_angle_gamma   138.73610925
_symmetry_Int_Tables_number   1
_chemical_formula_structural   Mg3Ti9O20
_chemical_formula_sum   'Mg3 Ti9 O20'
_cell_volume   366.45704033
_cell_formula_units_Z   1
loop_
 _symmetry_equiv_pos_site_id
 _symmetry_equiv_pos_as_xyz
  1  'x, y, z'
loop_
 _atom_site_type_symbol
 _atom_site_label
 _atom_site_symmetry_multiplicity
 _atom_site_fract_x
 _atom_site_fract_y
 _atom_site_fract_z
 _atom_site_occupancy
  Mg  Mg0  1  0.22317143  0.72464941  0.60857192  1
  Mg  Mg1  1  0.72467117  0.22312185  0.60857622  1
  Mg  Mg2  1  0.27985005  0.27988959  0.38834841  1
  Ti  Ti0  1  0.96549757  0.64671722  0.27454345  1
  Ti  Ti1  1  0.53401456  0.34712398  0.73275729  1
  Ti  Ti2  1  0.34712112  0.53402249  0.73273701  1
  Ti  Ti3  1  0.85204633  0.03925674  0.72809683  1
  Ti  Ti4  1  0.46705827  0.15158090  0.26843532  1
  Ti  Ti5  1  0.64672456  0.96547901  0.27459012  1
  Ti  Ti6  1  0.15156263  0.46702948  0.26849868  1
  Ti  Ti7  1  0.77855059  0.77856989  0.39014987  1
  Ti  Ti8  1  0.03924808  0.85204946  0.72810664  1
  O  O0  1  0.37489668  0.68819687  0.37406014  1
  O  O1  1  0.01532249  0.51600397  0.44047578  1
  O  O2  1  0.49585809  0.49588441  0.54890436  1
  O  O3  1  0.31040716  0.12896131  0.62675348  1
  O  O4  1  0.12890515  0.31038347  0.62679329  1
  O  O5  1  0.81062736  0.62786478  0.62271438  1
  O  O6  1  0.57974371  0.21539600  0.90721911  1
  O  O7  1  0.71848101  0.07949974  0.91025733  1
  O  O8  1  0.21541152  0.57973958  0.90720002  1
  O  O9  1  0.07949432  0.71845869  0.91030499  1
  O  O10  1  0.28481029  0.42153863  0.09144858  1
  O  O11  1  0.78521648  0.91640078  0.09824958  1
  O  O12  1  0.91637704  0.78522516  0.09826804  1
  O  O13  1  0.42153789  0.28482548  0.09141812  1
  O  O14  1  0.68818660  0.37486230  0.37408393  1
  O  O15  1  0.18754468  0.87596059  0.37798902  1
  O  O16  1  0.87595941  0.18751082  0.37799729  1
  O  O17  1  0.51603579  0.01529876  0.44046673  1
  O  O18  1  0.98083355  0.98087404  0.55360579  1
  O  O19  1  0.62787040  0.81066162  0.62273829  1
loop_
_geom_bond_atom_site_label_1
_geom_bond_atom_site_label_2
_geom_bond_distance
_geom_bond_site_symmetry_2
Mg0 O8 1.998083 1_555
Mg0 O9 2.011260 1_555
Mg0 O17 2.051522 1_565
Mg0 O1 2.054329 1_555
Mg0 O15 2.180448 1_555
Mg0 O0 2.200863 1_555
Mg1 O6 1.998403 1_555
Mg1 O7 2.010791 1_555
Mg1 O1 2.051591 1_655
Mg1 O17 2.054254 1_555
Mg1 O16 2.180023 1_555
Mg1 O14 2.201302 1_555
Mg2 O10 1.988770 1_555
Mg2 O13 1.989225 1_555
Mg2 O2 2.080917 1_555
Mg2 O18 2.101254 1_445
Mg2 O4 2.153742 1_555
Mg2 O3 2.154115 1_555
O0 Ti6 1.941707 1_555
O0 Ti5 1.942879 1_555
O0 Ti2 2.154710 1_555
O1 Ti0 1.978003 1_455
O1 Ti6 2.032647 1_555
O2 Ti7 1.986876 1_555
O2 Ti2 2.073224 1_555
O2 Ti1 2.073714 1_555
O3 Ti1 1.933811 1_555
O3 Ti8 1.938060 1_545
O3 Ti4 2.198874 1_555
O4 Ti2 1.933925 1_555
O4 Ti3 1.937771 1_455
O4 Ti6 2.198613 1_555
O5 Ti1 1.966734 1_555
O5 Ti8 1.971741 1_655
O5 Ti7 2.149984 1_555
O5 Ti0 2.172344 1_555
O6 Ti4 1.823852 1_556
O6 Ti1 1.967439 1_555
O7 Ti5 1.822046 1_546
O7 Ti3 1.951244 1_555
O8 Ti6 1.824255 1_556
O8 Ti2 1.967100 1_555
O9 Ti0 1.821544 1_456
O9 Ti8 1.951652 1_555
O10 Ti2 1.815732 1_554
O10 Ti6 1.984371 1_555
O11 Ti3 1.885861 1_564
O11 Ti7 1.933262 1_555
O11 Ti5 2.062877 1_555
O12 Ti8 1.885916 1_654
O12 Ti7 1.933155 1_555
O12 Ti0 2.063343 1_555
O13 Ti1 1.815467 1_554
O13 Ti4 1.984608 1_555
O14 Ti4 1.941643 1_555
O14 Ti0 1.943039 1_555
O14 Ti1 2.154811 1_555
O15 Ti4 1.958880 1_565
O15 Ti0 1.961067 1_455
O15 Ti8 2.109103 1_555
O16 Ti6 1.958869 1_655
O16 Ti5 1.960867 1_545
O16 Ti3 2.108857 1_555
O17 Ti5 1.977557 1_545
O17 Ti4 2.033233 1_555
O18 Ti7 1.996188 1_555
O18 Ti3 2.056464 1_565
O18 Ti8 2.057180 1_655
O19 Ti2 1.966877 1_555
O19 Ti3 1.971507 1_565
O19 Ti7 2.149876 1_555
O19 Ti5 2.172008 1_555
