# generated using pymatgen
data_LiAgF3
_symmetry_space_group_name_H-M   'P 1'
_cell_length_a   5.94080808
_cell_length_b   5.94080808
_cell_length_c   5.94080795
_cell_angle_alpha   54.79419600
_cell_angle_beta   54.79419600
_cell_angle_gamma   54.79420784
_symmetry_Int_Tables_number   1
_chemical_formula_structural   LiAgF3
_chemical_formula_sum   'Li2 Ag2 F6'
_cell_volume   130.28655600
_cell_formula_units_Z   2
loop_
 _symmetry_equiv_pos_site_id
 _symmetry_equiv_pos_as_xyz
  1  'x, y, z'
loop_
 _atom_site_type_symbol
 _atom_site_label
 _atom_site_symmetry_multiplicity
 _atom_site_fract_x
 _atom_site_fract_y
 _atom_site_fract_z
 _atom_site_occupancy
  Li  Li0  1  0.80040900  0.80040900  0.80040900  1
  Li  Li1  1  0.30040900  0.30040900  0.30040900  1
  Ag  Ag0  1  0.51299300  0.51299300  0.51299300  1
  Ag  Ag1  1  0.01299300  0.01299300  0.01299300  1
  F  F0  1  0.22375100  0.59496400  0.93735300  1
  F  F1  1  0.09496400  0.72375100  0.43735300  1
  F  F2  1  0.43735300  0.09496400  0.72375100  1
  F  F3  1  0.93735300  0.22375100  0.59496400  1
  F  F4  1  0.59496400  0.93735300  0.22375100  1
  F  F5  1  0.72375100  0.43735300  0.09496400  1
loop_
_geom_bond_atom_site_label_1
_geom_bond_atom_site_label_2
_geom_bond_distance
_geom_bond_site_symmetry_2
Ag0 F2 2.233779 1_555
Ag0 F5 2.233779 1_555
Ag0 F1 2.233779 1_555
Ag0 F4 2.236351 1_555
Ag0 F0 2.236351 1_555
Ag0 F3 2.236351 1_555
Ag1 F4 2.233779 1_445
Ag1 F3 2.233779 1_454
Ag1 F0 2.233779 1_544
Ag1 F2 2.236351 1_554
Ag1 F1 2.236351 1_545
Ag1 F5 2.236351 1_455
F0 Li1 1.945091 1_556
F0 Li0 2.480263 1_455
F1 Li0 1.945091 1_455
F1 Li1 2.480263 1_555
F2 Li0 1.945091 1_545
F2 Li1 2.480262 1_555
F3 Li1 1.945091 1_655
F3 Li0 2.480262 1_545
F4 Li1 1.945091 1_565
F4 Li0 2.480262 1_554
F5 Li0 1.945091 1_554
F5 Li1 2.480262 1_555
