# generated using pymatgen
data_Li2W(OF2)2
_symmetry_space_group_name_H-M   'P 1'
_cell_length_a   4.75965800
_cell_length_b   5.10075500
_cell_length_c   17.41320300
_cell_angle_alpha   90.00000000
_cell_angle_beta   90.00000000
_cell_angle_gamma   90.00000000
_symmetry_Int_Tables_number   1
_chemical_formula_structural   Li2W(OF2)2
_chemical_formula_sum   'Li8 W4 O8 F16'
_cell_volume   422.75511899
_cell_formula_units_Z   4
loop_
 _symmetry_equiv_pos_site_id
 _symmetry_equiv_pos_as_xyz
  1  'x, y, z'
loop_
 _atom_site_type_symbol
 _atom_site_label
 _atom_site_symmetry_multiplicity
 _atom_site_fract_x
 _atom_site_fract_y
 _atom_site_fract_z
 _atom_site_occupancy
  Li  Li0  1  0.00000000  0.75000000  0.23229500  1
  Li  Li1  1  0.00000000  0.25000000  0.44974100  1
  Li  Li2  1  0.00000000  0.75000000  0.55025900  1
  Li  Li3  1  0.00000000  0.25000000  0.76770500  1
  Li  Li4  1  0.50000000  0.25000000  0.26770500  1
  Li  Li5  1  0.50000000  0.25000000  0.94974100  1
  Li  Li6  1  0.50000000  0.75000000  0.05025900  1
  Li  Li7  1  0.50000000  0.75000000  0.73229500  1
  W  W0  1  0.00000000  0.25000000  0.10748200  1
  W  W1  1  0.00000000  0.75000000  0.89251800  1
  W  W2  1  0.50000000  0.75000000  0.39251800  1
  W  W3  1  0.50000000  0.25000000  0.60748200  1
  O  O0  1  0.24689000  0.10283600  0.04399600  1
  O  O1  1  0.24689000  0.60283600  0.95600400  1
  O  O2  1  0.25311000  0.60283600  0.45600400  1
  O  O3  1  0.25311000  0.10283600  0.54399600  1
  O  O4  1  0.74689000  0.39716400  0.54399600  1
  O  O5  1  0.74689000  0.89716400  0.45600400  1
  O  O6  1  0.75311000  0.39716400  0.04399600  1
  O  O7  1  0.75311000  0.89716400  0.95600400  1
  F  F0  1  0.21199500  0.09327400  0.20132500  1
  F  F1  1  0.21199500  0.59327400  0.79867500  1
  F  F2  1  0.22618000  0.06435500  0.87326100  1
  F  F3  1  0.22618000  0.56435500  0.12673900  1
  F  F4  1  0.27382000  0.56435500  0.62673900  1
  F  F5  1  0.27382000  0.06435500  0.37326100  1
  F  F6  1  0.28800500  0.09327400  0.70132500  1
  F  F7  1  0.28800500  0.59327400  0.29867500  1
  F  F8  1  0.71199500  0.90672600  0.29867500  1
  F  F9  1  0.71199500  0.40672600  0.70132500  1
  F  F10  1  0.72618000  0.43564500  0.37326100  1
  F  F11  1  0.72618000  0.93564500  0.62673900  1
  F  F12  1  0.77382000  0.93564500  0.12673900  1
  F  F13  1  0.77382000  0.43564500  0.87326100  1
  F  F14  1  0.78800500  0.90672600  0.79867500  1
  F  F15  1  0.78800500  0.40672600  0.20132500  1
loop_
_geom_bond_atom_site_label_1
_geom_bond_atom_site_label_2
_geom_bond_distance
_geom_bond_site_symmetry_2
Li1 O2 2.168471 1_555
Li1 O5 2.168471 1_445
Li1 O4 2.169935 1_455
Li1 O3 2.169935 1_555
Li2 O3 2.168471 1_565
Li2 O4 2.168471 1_455
Li2 O5 2.169935 1_455
Li2 O2 2.169935 1_555
Li5 O7 2.168471 1_545
Li5 O1 2.168471 1_555
Li5 O6 2.169935 1_556
Li5 O0 2.169935 1_556
Li6 O0 2.168471 1_565
Li6 O6 2.168471 1_555
Li6 O7 2.169935 1_554
Li6 O1 2.169935 1_554
O0 W0 1.779460 1_555
O1 W1 1.779460 1_555
O2 W2 1.779460 1_555
O3 W3 1.779460 1_555
O4 W3 1.779460 1_555
O5 W2 1.779460 1_555
O6 W0 1.779460 1_655
O7 W1 1.779460 1_655
F0 Li4 1.963227 1_555
F0 W0 2.080267 1_555
F0 Li0 2.091604 1_545
F1 Li7 1.963227 1_555
F1 W1 2.080267 1_555
F1 Li3 2.091604 1_555
F2 W1 1.960211 1_545
F2 Li5 2.090174 1_555
F2 Li3 2.331117 1_555
F3 W0 1.960211 1_555
F3 Li6 2.090174 1_555
F3 Li0 2.331117 1_555
F4 W3 1.960211 1_555
F4 Li2 2.090174 1_555
F4 Li7 2.331117 1_555
F5 W2 1.960211 1_545
F5 Li1 2.090174 1_555
F5 Li4 2.331117 1_555
F6 Li3 1.963227 1_555
F6 W3 2.080267 1_555
F6 Li7 2.091604 1_545
F7 Li0 1.963227 1_555
F7 W2 2.080267 1_555
F7 Li4 2.091604 1_555
F8 Li0 1.963227 1_655
F8 W2 2.080267 1_555
F8 Li4 2.091604 1_565
F9 Li3 1.963227 1_655
F9 W3 2.080267 1_555
F9 Li7 2.091604 1_555
F10 W2 1.960211 1_555
F10 Li1 2.090174 1_655
F10 Li4 2.331117 1_555
F11 W3 1.960211 1_565
F11 Li2 2.090174 1_655
F11 Li7 2.331117 1_555
F12 W0 1.960211 1_665
F12 Li6 2.090174 1_555
F12 Li0 2.331117 1_655
F13 W1 1.960211 1_655
F13 Li5 2.090174 1_555
F13 Li3 2.331117 1_655
F14 Li7 1.963227 1_555
F14 W1 2.080267 1_655
F14 Li3 2.091604 1_665
F15 Li4 1.963227 1_555
F15 W0 2.080267 1_655
F15 Li0 2.091604 1_655
