# generated using pymatgen
data_Li9V3P8O29
_symmetry_space_group_name_H-M   'P 1'
_cell_length_a   9.88179412
_cell_length_b   9.91833625
_cell_length_c   13.75962776
_cell_angle_alpha   90.06791061
_cell_angle_beta   90.12144483
_cell_angle_gamma   60.13905555
_symmetry_Int_Tables_number   1
_chemical_formula_structural   Li9V3P8O29
_chemical_formula_sum   'Li18 V6 P16 O58'
_cell_volume   1169.54733056
_cell_formula_units_Z   2
loop_
 _symmetry_equiv_pos_site_id
 _symmetry_equiv_pos_as_xyz
  1  'x, y, z'
loop_
 _atom_site_type_symbol
 _atom_site_label
 _atom_site_symmetry_multiplicity
 _atom_site_fract_x
 _atom_site_fract_y
 _atom_site_fract_z
 _atom_site_occupancy
  Li  Li0  1  0.89928567  0.76977877  0.06812051  1
  Li  Li1  1  0.90720147  0.32577491  0.56221208  1
  Li  Li2  1  0.65465103  0.68350538  0.37375389  1
  Li  Li3  1  0.66695792  0.66411732  0.88336490  1
  Li  Li4  1  0.76288399  0.33817096  0.06425753  1
  Li  Li5  1  0.33509764  0.90324115  0.07365833  1
  Li  Li6  1  0.66479803  0.23606255  0.43400130  1
  Li  Li7  1  0.32631598  0.76853237  0.56080891  1
  Li  Li8  1  0.66945796  0.09808687  0.94031149  1
  Li  Li9  1  0.23353759  0.66860257  0.93959234  1
  Li  Li10  1  0.33210041  0.33619851  0.61808703  1
  Li  Li11  1  0.33484652  0.31026737  0.12341628  1
  Li  Li12  1  0.43289905  0.00089546  0.24886716  1
  Li  Li13  1  0.10465193  0.66417475  0.43125209  1
  Li  Li14  1  0.23873665  0.09900265  0.42343777  1
  Li  Li15  1  0.09608419  0.23375511  0.94008176  1
  Li  Li16  1  0.99819354  0.00604965  0.01155253  1
  Li  Li17  1  0.01512265  0.00847460  0.48570817  1
  V  V0  1  0.74294590  0.88679761  0.55044350  1
  V  V1  1  0.56455676  0.43473157  0.24996767  1
  V  V2  1  0.43213540  0.56500081  0.74905493  1
  V  V3  1  0.56075001  0.00448042  0.75629341  1
  V  V4  1  0.00069267  0.56346843  0.24903022  1
  V  V5  1  0.00085477  0.43268244  0.75165619  1
  P  P0  1  0.90907911  0.77265579  0.84596968  1
  P  P1  1  0.77575245  0.90783277  0.34188415  1
  P  P2  1  0.90997156  0.31600484  0.34375700  1
  P  P3  1  0.66644132  0.66169470  0.12428507  1
  P  P4  1  0.66888573  0.66640558  0.62475045  1
  P  P5  1  0.77214889  0.31576088  0.84331368  1
  P  P6  1  0.68350638  0.22619177  0.65439828  1
  P  P7  1  0.31364021  0.91085663  0.84593738  1
  P  P8  1  0.68115580  0.09219902  0.15439718  1
  P  P9  1  0.31665778  0.77459811  0.34538921  1
  P  P10  1  0.22661727  0.68483251  0.15661648  1
  P  P11  1  0.33146984  0.33874591  0.37672206  1
  P  P12  1  0.33130601  0.33606134  0.87829486  1
  P  P13  1  0.08620584  0.68348779  0.65698411  1
  P  P14  1  0.22683423  0.08819921  0.65486218  1
  P  P15  1  0.08944855  0.22503906  0.15462439  1
  O  O0  1  0.98967178  0.77116365  0.56797491  1
  O  O1  1  0.92879433  0.75062541  0.34101640  1
  O  O2  1  0.78306326  0.00139491  0.06706540  1
  O  O3  1  0.74946055  0.92159798  0.84694516  1
  O  O4  1  0.88837062  0.62954677  0.83272547  1
  O  O5  1  0.81272852  0.66793859  0.16398243  1
  O  O6  1  0.89284061  0.47760295  0.33812898  1
  O  O7  1  0.98878223  0.23581217  0.06645464  1
  O  O8  1  0.92168009  0.32603946  0.84351300  1
  O  O9  1  0.67382717  0.80781114  0.67445172  1
  O  O10  1  0.63332126  0.88963423  0.34274188  1
  O  O11  1  0.81097641  0.51202370  0.65938205  1
  O  O12  1  0.68543212  0.63162898  0.01544491  1
  O  O13  1  0.68064731  0.69427979  0.51606520  1
  O  O14  1  0.67145046  0.50950329  0.17182416  1
  O  O15  1  0.47831461  0.89107779  0.83754501  1
  O  O16  1  0.51672996  0.80269910  0.15593538  1
  O  O17  1  0.74593261  0.33192094  0.34522463  1
  O  O18  1  0.78524042  0.21102496  0.74938030  1
  O  O19  1  0.77069688  0.23307288  0.56565635  1
  O  O20  1  0.76532217  0.23013943  0.93260704  1
  O  O21  1  0.62940945  0.47987039  0.82916371  1
  O  O22  1  0.51502443  0.67001634  0.65207294  1
  O  O23  1  0.67434480  0.25243789  0.15862385  1
  O  O24  1  0.47965136  0.62386863  0.33340622  1
  O  O25  1  0.33399273  0.91587284  0.34871223  1
  O  O26  1  0.78367172  0.00072511  0.24909470  1
  O  O27  1  0.78338103  0.00202653  0.43078671  1
  O  O28  1  0.22503583  0.99773696  0.56603798  1
  O  O29  1  0.67250864  0.07569722  0.65242925  1
  O  O30  1  0.51856848  0.36626025  0.66773617  1
  O  O31  1  0.32714040  0.74972057  0.84354814  1
  O  O32  1  0.48437745  0.33518868  0.32925717  1
  O  O33  1  0.37549574  0.52215344  0.16721153  1
  O  O34  1  0.22918844  0.77495930  0.06757937  1
  O  O35  1  0.22776454  0.76507145  0.43412052  1
  O  O36  1  0.21341877  0.78504192  0.25125276  1
  O  O37  1  0.24543138  0.67486483  0.65421482  1
  O  O38  1  0.48482271  0.19109006  0.83965000  1
  O  O39  1  0.52136588  0.11013335  0.15838326  1
  O  O40  1  0.32376527  0.48716573  0.83707588  1
  O  O41  1  0.33035306  0.33947384  0.98758093  1
  O  O42  1  0.34829949  0.35264628  0.48569772  1
  O  O43  1  0.18911134  0.49098354  0.33738682  1
  O  O44  1  0.37358251  0.10502325  0.66395546  1
  O  O45  1  0.32580655  0.19594409  0.34490610  1
  O  O46  1  0.08146299  0.66815704  0.15381899  1
  O  O47  1  0.99773418  0.78603497  0.75067054  1
  O  O48  1  0.00364699  0.76699132  0.93431392  1
  O  O49  1  0.10838747  0.51947117  0.66690561  1
  O  O50  1  0.18872227  0.32459756  0.83831907  1
  O  O51  1  0.10574118  0.37192163  0.16698975  1
  O  O52  1  0.24641788  0.08113083  0.15284582  1
  O  O53  1  0.22151022  0.00343443  0.93361244  1
  O  O54  1  0.21575997  0.99934729  0.74971150  1
  O  O55  1  0.08021886  0.24996872  0.65586103  1
  O  O56  1  0.00189924  0.22027276  0.43240826  1
  O  O57  1  0.99552571  0.21574345  0.24947661  1
loop_
_geom_bond_atom_site_label_1
_geom_bond_atom_site_label_2
_geom_bond_distance
_geom_bond_site_symmetry_2
Li0 O46 1.958106 1_655
Li0 O2 1.992316 1_565
Li0 O5 2.088056 1_555
Li0 O48 2.105609 1_654
Li1 O55 1.965136 1_655
Li1 O19 1.975501 1_555
Li1 O56 2.046510 1_655
Li1 O11 2.086773 1_555
Li2 O13 1.984055 1_555
Li2 O10 1.994714 1_555
Li2 O24 2.159243 1_555
Li2 O6 2.273082 1_555
Li3 O12 1.838859 1_556
Li3 O4 2.156167 1_555
Li3 O21 2.168906 1_555
Li3 O15 2.181636 1_555
Li4 O7 1.938484 1_555
Li4 O23 1.980605 1_555
Li4 O14 2.089376 1_555
Li4 O20 2.097605 1_554
Li5 O52 1.878293 1_565
Li5 O16 1.925961 1_555
Li5 O34 2.011602 1_555
Li5 O53 2.201206 1_564
Li6 O17 1.950606 1_555
Li6 O27 2.013615 1_555
Li6 O19 2.082977 1_555
Li6 O32 2.114100 1_555
Li7 O37 1.974938 1_555
Li7 O28 1.977153 1_555
Li7 O35 2.003556 1_555
Li7 O22 2.046369 1_555
Li8 O20 1.964771 1_555
Li8 O3 1.990102 1_545
Li8 O2 2.036030 1_556
Li8 O38 2.101090 1_555
Li9 O48 1.977434 1_555
Li9 O31 1.999518 1_555
Li9 O34 2.041251 1_556
Li9 O40 2.103492 1_555
Li10 O42 1.843505 1_555
Li10 O30 2.119480 1_555
Li10 O49 2.155088 1_555
Li10 O44 2.211341 1_555
Li11 O41 1.888739 1_554
Li11 O39 1.980945 1_555
Li11 O51 2.117841 1_555
Li11 O33 2.403668 1_555
Li12 O52 2.075229 1_555
Li12 O25 2.093553 1_545
Li12 O39 2.106944 1_555
Li12 O16 2.136013 1_545
Li12 O45 2.137733 1_555
Li12 O10 2.150552 1_545
Li13 O35 1.922265 1_555
Li13 O1 1.950975 1_455
Li13 O43 1.971568 1_555
Li13 O0 2.181707 1_455
Li14 O25 1.881350 1_545
Li14 O45 1.913793 1_555
Li14 O56 2.033972 1_555
Li14 O28 2.240150 1_545
Li15 O53 1.985732 1_555
Li15 O8 1.998976 1_455
Li15 O7 2.033346 1_456
Li15 O50 2.107177 1_555
Li16 O2 2.282458 1_555
Li16 O7 2.357480 1_555
Li16 O34 2.417647 1_645
Li16 O53 2.444089 1_654
Li16 O20 2.513442 1_554
Li16 O48 2.573199 1_644
Li17 O56 2.167421 1_555
Li17 O28 2.303567 1_545
Li17 O35 2.387083 1_545
Li17 O27 2.440853 1_455
Li17 O19 2.579539 1_455
O0 P13 1.528948 1_655
O0 V0 2.128743 1_555
O1 P1 1.539601 1_555
O1 V4 2.058519 1_655
O2 P8 1.539034 1_555
O3 P0 1.533018 1_555
O3 V3 2.043317 1_565
O4 P0 1.542161 1_555
O4 V5 2.032537 1_655
O5 P3 1.574044 1_555
O5 V4 1.992548 1_655
O6 P2 1.527621 1_555
O6 V4 2.067851 1_655
O7 P15 1.536923 1_655
O8 P5 1.530947 1_555
O8 V5 2.039562 1_655
O9 P4 1.582047 1_555
O9 V3 2.037483 1_565
O9 V0 2.129009 1_555
O10 P1 1.505577 1_555
O11 P4 1.549565 1_555
O11 V5 2.067334 1_655
O12 P3 1.520314 1_555
O13 P4 1.536256 1_555
O13 V0 2.327221 1_555
O14 P3 1.623782 1_555
O14 V1 1.899643 1_555
O15 P7 1.543603 1_555
O15 V3 2.024308 1_565
O16 P3 1.508376 1_555
O17 P2 1.548638 1_555
O17 V1 2.035535 1_555
O18 P6 1.607987 1_555
O18 P5 1.621753 1_555
O19 P6 1.516971 1_555
O20 P5 1.514981 1_555
O21 P5 1.546031 1_555
O21 V2 2.020443 1_555
O22 P4 1.549994 1_555
O22 V2 2.096189 1_555
O23 P8 1.557908 1_555
O23 V1 2.018127 1_555
O24 P9 1.568173 1_555
O24 V1 1.993190 1_555
O25 P9 1.494543 1_555
O26 P1 1.600026 1_545
O26 P8 1.621474 1_555
O27 P1 1.562661 1_545
O27 V0 2.153732 1_545
O28 P14 1.520617 1_565
O29 P6 1.549836 1_555
O29 V3 2.132341 1_555
O29 V0 2.159458 1_545
O30 P6 1.538208 1_555
O30 V2 2.046781 1_555
O31 P7 1.536459 1_555
O31 V2 2.056891 1_555
O32 P11 1.631549 1_555
O32 V1 1.891553 1_555
O33 P10 1.557212 1_555
O33 V1 1.979661 1_555
O34 P10 1.525115 1_555
O35 P9 1.535790 1_555
O36 P10 1.602828 1_555
O36 P9 1.618256 1_555
O37 P13 1.533201 1_555
O37 V2 2.070131 1_555
O38 P12 1.575144 1_555
O38 V3 1.979871 1_555
O39 P8 1.499526 1_555
O40 P12 1.569702 1_555
O40 V2 2.010122 1_555
O41 P12 1.504020 1_555
O42 P11 1.521954 1_555
O43 P11 1.560563 1_555
O43 V4 2.030065 1_555
O44 P14 1.544842 1_555
O44 V3 2.045956 1_555
O45 P11 1.509371 1_555
O46 P10 1.523905 1_555
O46 V4 2.065044 1_555
O47 P13 1.605233 1_655
O47 P0 1.620375 1_555
O48 P0 1.515637 1_455
O49 P13 1.535705 1_555
O49 V5 2.036784 1_555
O50 P12 1.567423 1_555
O50 V5 2.007357 1_555
O51 P15 1.552445 1_555
O51 V4 1.999312 1_555
O52 P15 1.496431 1_555
O53 P7 1.515554 1_545
O54 P14 1.609730 1_565
O54 P7 1.615828 1_555
O55 P14 1.535853 1_555
O55 V5 2.054274 1_555
O56 P2 1.534222 1_455
O57 P2 1.597165 1_555
O57 P15 1.632151 1_655
