# generated using pymatgen
data_Li3VCrP2(O4F)2
_symmetry_space_group_name_H-M   'P 1'
_cell_length_a   5.29307248
_cell_length_b   5.38311224
_cell_length_c   7.55442207
_cell_angle_alpha   73.58120006
_cell_angle_beta   70.80020760
_cell_angle_gamma   96.93675342
_symmetry_Int_Tables_number   1
_chemical_formula_structural   Li3VCrP2(O4F)2
_chemical_formula_sum   'Li3 V1 Cr1 P2 O8 F2'
_cell_volume   189.48270696
_cell_formula_units_Z   1
loop_
 _symmetry_equiv_pos_site_id
 _symmetry_equiv_pos_as_xyz
  1  'x, y, z'
loop_
 _atom_site_type_symbol
 _atom_site_label
 _atom_site_symmetry_multiplicity
 _atom_site_fract_x
 _atom_site_fract_y
 _atom_site_fract_z
 _atom_site_occupancy
  Li  Li0  1  0.25757200  0.58895400  0.86531000  1
  Li  Li1  1  0.50663700  0.96394900  0.50962800  1
  Li  Li2  1  0.72593400  0.39904000  0.14866600  1
  V  V0  1  0.00009800  0.00036100  0.99922700  1
  Cr  Cr0  1  0.00603000  0.00351500  0.50052100  1
  P  P0  1  0.33429700  0.64350500  0.23938700  1
  P  P1  1  0.66731100  0.35989900  0.75817800  1
  O  O0  1  0.13034100  0.67172600  0.12681600  1
  O  O1  1  0.27785700  0.79075300  0.38984900  1
  O  O2  1  0.32497700  0.34600000  0.33628400  1
  O  O3  1  0.63645100  0.75428500  0.07854200  1
  O  O4  1  0.36416400  0.24857700  0.91756800  1
  O  O5  1  0.67694100  0.65853100  0.65945700  1
  O  O6  1  0.72698400  0.21096000  0.60910300  1
  O  O7  1  0.86794100  0.33213600  0.87382000  1
  F  F0  1  0.16732400  0.90652700  0.75178300  1
  F  F1  1  0.83648000  0.08770100  0.24914100  1
loop_
_geom_bond_atom_site_label_1
_geom_bond_atom_site_label_2
_geom_bond_distance
_geom_bond_site_symmetry_2
Li0 O4 1.954158 1_555
Li0 O0 2.061507 1_556
Li0 O5 2.164578 1_555
Li0 O7 2.311388 1_455
Li1 O1 2.019733 1_555
Li1 O6 2.111828 1_565
Li1 O5 2.184913 1_555
Li2 O3 1.993257 1_555
Li2 O2 2.059351 1_555
Li2 O7 2.113613 1_554
Li2 O0 2.373945 1_655
Cr0 O6 2.054455 1_455
Cr0 O1 2.056472 1_545
Cr0 O2 2.089459 1_555
Cr0 O5 2.122994 1_445
Cr0 F0 2.284225 1_545
Cr0 F1 2.312955 1_455
O0 P0 1.575476 1_555
O0 V0 2.074032 1_564
O1 P0 1.533855 1_555
O2 P0 1.548392 1_555
O3 P0 1.572172 1_555
O3 V0 1.998873 1_664
O4 P1 1.572480 1_555
O4 V0 2.002387 1_555
O5 P1 1.555802 1_555
O6 P1 1.532478 1_555
O7 P1 1.577334 1_555
O7 V0 2.087516 1_655
F0 Li0 1.877257 1_555
F0 Li1 2.013195 1_555
F0 V0 2.021483 1_565
F1 Li2 1.880754 1_555
F1 V0 2.014992 1_654
F1 Li1 2.020532 1_545
