# generated using pymatgen
data_LiMnF3
_symmetry_space_group_name_H-M   'P 1'
_cell_length_a   5.37667100
_cell_length_b   7.32303100
_cell_length_c   11.20508300
_cell_angle_alpha   90.00000000
_cell_angle_beta   90.00000000
_cell_angle_gamma   90.00000000
_symmetry_Int_Tables_number   1
_chemical_formula_structural   LiMnF3
_chemical_formula_sum   'Li8 Mn8 F24'
_cell_volume   441.18365383
_cell_formula_units_Z   8
loop_
 _symmetry_equiv_pos_site_id
 _symmetry_equiv_pos_as_xyz
  1  'x, y, z'
loop_
 _atom_site_type_symbol
 _atom_site_label
 _atom_site_symmetry_multiplicity
 _atom_site_fract_x
 _atom_site_fract_y
 _atom_site_fract_z
 _atom_site_occupancy
  Li  Li0  1  0.13591300  0.50718300  0.11732600  1
  Li  Li1  1  0.13591300  0.99281700  0.11732600  1
  Li  Li2  1  0.63591300  0.00718300  0.38267400  1
  Li  Li3  1  0.63591300  0.49281700  0.38267400  1
  Li  Li4  1  0.36408700  0.50718300  0.61732600  1
  Li  Li5  1  0.36408700  0.99281700  0.61732600  1
  Li  Li6  1  0.86408700  0.00718300  0.88267400  1
  Li  Li7  1  0.86408700  0.49281700  0.88267400  1
  Mn  Mn0  1  0.67198300  0.75000000  0.17349200  1
  Mn  Mn1  1  0.64709700  0.25000000  0.10026600  1
  Mn  Mn2  1  0.14709700  0.75000000  0.39973400  1
  Mn  Mn3  1  0.17198300  0.25000000  0.32650800  1
  Mn  Mn4  1  0.82801700  0.75000000  0.67349200  1
  Mn  Mn5  1  0.85290300  0.25000000  0.60026600  1
  Mn  Mn6  1  0.35290300  0.75000000  0.89973400  1
  Mn  Mn7  1  0.32801700  0.25000000  0.82650800  1
  F  F0  1  0.77052300  0.54413700  0.04966800  1
  F  F1  1  0.77052300  0.95586300  0.04966800  1
  F  F2  1  0.30234100  0.75000000  0.09038900  1
  F  F3  1  0.02090000  0.25000000  0.15215800  1
  F  F4  1  0.44706700  0.42748600  0.22013400  1
  F  F5  1  0.44706700  0.07251400  0.22013400  1
  F  F6  1  0.94706700  0.92748600  0.27986600  1
  F  F7  1  0.94706700  0.57251400  0.27986600  1
  F  F8  1  0.52090000  0.75000000  0.34784200  1
  F  F9  1  0.80234100  0.25000000  0.40961100  1
  F  F10  1  0.27052300  0.04413700  0.45033200  1
  F  F11  1  0.27052300  0.45586300  0.45033200  1
  F  F12  1  0.72947700  0.54413700  0.54966800  1
  F  F13  1  0.72947700  0.95586300  0.54966800  1
  F  F14  1  0.19765900  0.75000000  0.59038900  1
  F  F15  1  0.47910000  0.25000000  0.65215800  1
  F  F16  1  0.05293300  0.07251400  0.72013400  1
  F  F17  1  0.05293300  0.42748600  0.72013400  1
  F  F18  1  0.55293300  0.57251400  0.77986600  1
  F  F19  1  0.55293300  0.92748600  0.77986600  1
  F  F20  1  0.97910000  0.75000000  0.84784200  1
  F  F21  1  0.69765900  0.25000000  0.90961100  1
  F  F22  1  0.22947700  0.04413700  0.95033200  1
  F  F23  1  0.22947700  0.45586300  0.95033200  1
loop_
_geom_bond_atom_site_label_1
_geom_bond_atom_site_label_2
_geom_bond_distance
_geom_bond_site_symmetry_2
F0 Li7 1.973736 1_554
F0 Mn0 2.116229 1_555
F0 Li0 2.123099 1_655
F0 Mn1 2.324099 1_555
F1 Li6 1.973736 1_564
F1 Mn0 2.116229 1_555
F1 Li1 2.123099 1_655
F1 Mn1 2.324099 1_565
F2 Li1 2.013370 1_555
F2 Li0 2.013370 1_555
F2 Mn6 2.153533 1_554
F2 Mn0 2.194771 1_555
F3 Li0 2.020340 1_555
F3 Li1 2.020340 1_545
F3 Mn1 2.092235 1_455
F3 Mn3 2.115762 1_555
F4 Li0 2.113408 1_555
F4 Li3 2.139366 1_555
F4 Mn1 2.156387 1_555
F4 Mn3 2.301642 1_555
F5 Li1 2.113408 1_545
F5 Li2 2.139366 1_555
F5 Mn1 2.156387 1_555
F5 Mn3 2.301642 1_555
F6 Li2 2.113408 1_565
F6 Li1 2.139366 1_655
F6 Mn2 2.156387 1_655
F6 Mn0 2.301642 1_555
F7 Li3 2.113408 1_555
F7 Li0 2.139366 1_655
F7 Mn2 2.156387 1_655
F7 Mn0 2.301642 1_555
F8 Li2 2.020340 1_565
F8 Li3 2.020340 1_555
F8 Mn2 2.092235 1_555
F8 Mn0 2.115762 1_555
F9 Li3 2.013370 1_555
F9 Li2 2.013370 1_555
F9 Mn5 2.153533 1_555
F9 Mn3 2.194771 1_655
F10 Li5 1.973736 1_545
F10 Mn3 2.116229 1_555
F10 Li2 2.123099 1_555
F10 Mn2 2.324099 1_545
F11 Li4 1.973736 1_555
F11 Mn3 2.116229 1_555
F11 Li3 2.123099 1_555
F11 Mn2 2.324099 1_555
F12 Li3 1.973736 1_555
F12 Mn4 2.116229 1_555
F12 Li4 2.123099 1_555
F12 Mn5 2.324099 1_555
F13 Li2 1.973736 1_565
F13 Mn4 2.116229 1_555
F13 Li5 2.123099 1_555
F13 Mn5 2.324099 1_565
F14 Li5 2.013370 1_555
F14 Li4 2.013370 1_555
F14 Mn2 2.153533 1_555
F14 Mn4 2.194771 1_455
F15 Li4 2.020340 1_555
F15 Li5 2.020340 1_545
F15 Mn5 2.092235 1_555
F15 Mn7 2.115762 1_555
F16 Li5 2.113408 1_545
F16 Li6 2.139366 1_455
F16 Mn5 2.156387 1_455
F16 Mn7 2.301642 1_555
F17 Li4 2.113408 1_555
F17 Li7 2.139366 1_455
F17 Mn5 2.156387 1_455
F17 Mn7 2.301642 1_555
F18 Li7 2.113408 1_555
F18 Li4 2.139366 1_555
F18 Mn6 2.156387 1_555
F18 Mn4 2.301642 1_555
F19 Li6 2.113408 1_565
F19 Li5 2.139366 1_555
F19 Mn6 2.156387 1_555
F19 Mn4 2.301642 1_555
F20 Li6 2.020340 1_565
F20 Li7 2.020340 1_555
F20 Mn6 2.092235 1_655
F20 Mn4 2.115762 1_555
F21 Li7 2.013370 1_555
F21 Li6 2.013370 1_555
F21 Mn1 2.153533 1_556
F21 Mn7 2.194771 1_555
F22 Li1 1.973736 1_546
F22 Mn7 2.116229 1_555
F22 Li6 2.123099 1_455
F22 Mn6 2.324099 1_545
F23 Li0 1.973736 1_556
F23 Mn7 2.116229 1_555
F23 Li7 2.123099 1_455
F23 Mn6 2.324099 1_555
