# generated using pymatgen
data_LiMn2(SO4)3
_symmetry_space_group_name_H-M   'P 1'
_cell_length_a   8.80867100
_cell_length_b   8.47222700
_cell_length_c   14.89623951
_cell_angle_alpha   56.97922434
_cell_angle_beta   90.00000000
_cell_angle_gamma   90.00000000
_symmetry_Int_Tables_number   1
_chemical_formula_structural   LiMn2(SO4)3
_chemical_formula_sum   'Li4 Mn8 S12 O48'
_cell_volume   932.12405266
_cell_formula_units_Z   4
loop_
 _symmetry_equiv_pos_site_id
 _symmetry_equiv_pos_as_xyz
  1  'x, y, z'
loop_
 _atom_site_type_symbol
 _atom_site_label
 _atom_site_symmetry_multiplicity
 _atom_site_fract_x
 _atom_site_fract_y
 _atom_site_fract_z
 _atom_site_occupancy
  Li  Li0  1  0.78527800  0.98392100  0.32141800  1
  Li  Li1  1  0.28527800  0.01607900  0.17858200  1
  Li  Li2  1  0.71472200  0.98392100  0.82141800  1
  Li  Li3  1  0.21472200  0.01607900  0.67858200  1
  Mn  Mn0  1  0.53741300  0.36573200  0.88540900  1
  Mn  Mn1  1  0.95980700  0.14438600  0.10795400  1
  Mn  Mn2  1  0.03741300  0.63426800  0.61459100  1
  Mn  Mn3  1  0.45980700  0.85561400  0.39204600  1
  Mn  Mn4  1  0.54019300  0.14438600  0.60795400  1
  Mn  Mn5  1  0.96258700  0.36573200  0.38540900  1
  Mn  Mn6  1  0.04019300  0.85561400  0.89204600  1
  Mn  Mn7  1  0.46258700  0.63426800  0.11459100  1
  S  S0  1  0.25420000  0.45484800  0.00557000  1
  S  S1  1  0.37910800  0.74769200  0.64927400  1
  S  S2  1  0.10769700  0.03984900  0.35215600  1
  S  S3  1  0.60769700  0.96015100  0.14784400  1
  S  S4  1  0.87910800  0.25230800  0.85072600  1
  S  S5  1  0.75420000  0.54515200  0.49443000  1
  S  S6  1  0.24580000  0.45484800  0.50557000  1
  S  S7  1  0.12089200  0.74769200  0.14927400  1
  S  S8  1  0.39230300  0.03984900  0.85215600  1
  S  S9  1  0.89230300  0.96015100  0.64784400  1
  S  S10  1  0.62089200  0.25230800  0.35072600  1
  S  S11  1  0.74580000  0.54515200  0.99443000  1
  O  O0  1  0.86336900  0.40546900  0.05720800  1
  O  O1  1  0.87993600  0.80785500  0.62640300  1
  O  O2  1  0.59303900  0.10657100  0.32451500  1
  O  O3  1  0.68678600  0.52632700  0.90619600  1
  O  O4  1  0.37747700  0.48042300  0.93070900  1
  O  O5  1  0.20923300  0.71183700  0.67067200  1
  O  O6  1  0.40870100  0.83008800  0.53539300  1
  O  O7  1  0.98927300  0.09180500  0.26882600  1
  O  O8  1  0.19191400  0.25977900  0.06043500  1
  O  O9  1  0.25695100  0.02239200  0.31061100  1
  O  O10  1  0.06521100  0.85947400  0.44910000  1
  O  O11  1  0.46940800  0.57910400  0.71710700  1
  O  O12  1  0.96940800  0.42089600  0.78289300  1
  O  O13  1  0.56521100  0.14052600  0.05090000  1
  O  O14  1  0.75695100  0.97760800  0.18938900  1
  O  O15  1  0.69191400  0.74022100  0.43956500  1
  O  O16  1  0.90870100  0.16991200  0.96460700  1
  O  O17  1  0.48927300  0.90819500  0.23117400  1
  O  O18  1  0.70923300  0.28816300  0.82932800  1
  O  O19  1  0.87747700  0.51957700  0.56929100  1
  O  O20  1  0.18678600  0.47367300  0.59380400  1
  O  O21  1  0.37993600  0.19214500  0.87359700  1
  O  O22  1  0.09303900  0.89342900  0.17548500  1
  O  O23  1  0.36336900  0.59453100  0.44279200  1
  O  O24  1  0.63663100  0.40546900  0.55720800  1
  O  O25  1  0.90696100  0.10657100  0.82451500  1
  O  O26  1  0.62006400  0.80785500  0.12640300  1
  O  O27  1  0.81321400  0.52632700  0.40619600  1
  O  O28  1  0.12252300  0.48042300  0.43070900  1
  O  O29  1  0.29076700  0.71183700  0.17067200  1
  O  O30  1  0.51072700  0.09180500  0.76882600  1
  O  O31  1  0.09129900  0.83008800  0.03539300  1
  O  O32  1  0.30808600  0.25977900  0.56043500  1
  O  O33  1  0.24304900  0.02239200  0.81061100  1
  O  O34  1  0.43478900  0.85947400  0.94910000  1
  O  O35  1  0.03059200  0.57910400  0.21710700  1
  O  O36  1  0.53059200  0.42089600  0.28289300  1
  O  O37  1  0.93478900  0.14052600  0.55090000  1
  O  O38  1  0.74304900  0.97760800  0.68938900  1
  O  O39  1  0.80808600  0.74022100  0.93956500  1
  O  O40  1  0.01072700  0.90819500  0.73117400  1
  O  O41  1  0.59129900  0.16991200  0.46460700  1
  O  O42  1  0.79076700  0.28816300  0.32932800  1
  O  O43  1  0.62252300  0.51957700  0.06929100  1
  O  O44  1  0.31321400  0.47367300  0.09380400  1
  O  O45  1  0.40696100  0.89342900  0.67548500  1
  O  O46  1  0.12006400  0.19214500  0.37359700  1
  O  O47  1  0.13663100  0.59453100  0.94279200  1
loop_
_geom_bond_atom_site_label_1
_geom_bond_atom_site_label_2
_geom_bond_distance
_geom_bond_site_symmetry_2
Li0 O7 1.974257 1_565
Li0 O2 2.000411 1_565
Li0 O14 2.011919 1_555
Li0 O15 2.018993 1_555
Li1 O17 1.974257 1_545
Li1 O22 2.000411 1_545
Li1 O9 2.011919 1_555
Li1 O8 2.018993 1_555
Li2 O30 1.974257 1_565
Li2 O25 2.000411 1_565
Li2 O38 2.011919 1_555
Li2 O39 2.018993 1_555
Li3 O40 1.974257 1_545
Li3 O45 2.000411 1_545
Li3 O33 2.011919 1_555
Li3 O32 2.018993 1_555
Mn0 O18 2.004702 1_555
Mn0 O4 2.024586 1_555
Mn0 O3 2.034098 1_555
Mn0 O21 2.097636 1_555
Mn0 O13 2.156669 1_556
Mn0 O11 2.229943 1_555
Mn1 O16 2.075034 1_554
Mn1 O0 2.088883 1_555
Mn1 O22 2.139807 1_645
Mn1 O14 2.189276 1_545
Mn1 O7 2.201136 1_555
Mn1 O8 2.209707 1_655
Mn2 O5 2.004702 1_555
Mn2 O19 2.024586 1_455
Mn2 O20 2.034098 1_555
Mn2 O1 2.097636 1_455
Mn2 O10 2.156669 1_555
Mn2 O12 2.229943 1_455
Mn3 O6 2.075034 1_555
Mn3 O23 2.088883 1_555
Mn3 O2 2.139807 1_565
Mn3 O9 2.189276 1_565
Mn3 O17 2.201136 1_555
Mn3 O15 2.209707 1_555
Mn4 O41 2.075034 1_555
Mn4 O24 2.088883 1_555
Mn4 O45 2.139807 1_545
Mn4 O38 2.189276 1_545
Mn4 O30 2.201136 1_555
Mn4 O32 2.209707 1_555
Mn5 O42 2.004702 1_555
Mn5 O28 2.024586 1_655
Mn5 O27 2.034098 1_555
Mn5 O46 2.097636 1_655
Mn5 O37 2.156669 1_555
Mn5 O35 2.229943 1_655
Mn6 O31 2.075034 1_556
Mn6 O47 2.088883 1_555
Mn6 O25 2.139807 1_465
Mn6 O33 2.189276 1_565
Mn6 O40 2.201136 1_555
Mn6 O39 2.209707 1_455
Mn7 O29 2.004702 1_555
Mn7 O43 2.024586 1_555
Mn7 O44 2.034098 1_555
Mn7 O26 2.097636 1_555
Mn7 O34 2.156669 1_554
Mn7 O36 2.229943 1_555
O0 S11 1.463343 1_554
O1 S9 1.492603 1_555
O2 S10 1.504191 1_555
O3 S11 1.500554 1_555
O4 S0 1.485379 1_556
O5 S1 1.525608 1_555
O6 S1 1.463684 1_555
O7 S2 1.492401 1_655
O8 S0 1.492710 1_555
O9 S2 1.494369 1_555
O10 S2 1.468199 1_565
O11 S1 1.456306 1_555
O12 S4 1.456306 1_555
O13 S3 1.468199 1_545
O14 S3 1.494369 1_555
O15 S5 1.492710 1_555
O16 S4 1.463684 1_555
O17 S3 1.492401 1_555
O18 S4 1.525608 1_555
O19 S5 1.485379 1_555
O20 S6 1.500554 1_555
O21 S8 1.492603 1_555
O22 S7 1.504191 1_555
O23 S6 1.463343 1_555
O24 S5 1.463343 1_555
O25 S4 1.504191 1_555
O26 S3 1.492603 1_555
O27 S5 1.500554 1_555
O28 S6 1.485379 1_555
O29 S7 1.525608 1_555
O30 S8 1.492401 1_555
O31 S7 1.463684 1_555
O32 S6 1.492710 1_555
O33 S8 1.494369 1_555
O34 S8 1.468199 1_565
O35 S7 1.456306 1_555
O36 S10 1.456306 1_555
O37 S9 1.468199 1_545
O38 S9 1.494369 1_555
O39 S11 1.492710 1_555
O40 S9 1.492401 1_455
O41 S10 1.463684 1_555
O42 S10 1.525608 1_555
O43 S11 1.485379 1_554
O44 S0 1.500554 1_555
O45 S1 1.504191 1_555
O46 S2 1.492603 1_555
O47 S0 1.463343 1_556
