# generated using pymatgen
data_Li6V3P8O29
_symmetry_space_group_name_H-M   'P 1'
_cell_length_a   9.78729400
_cell_length_b   9.80118579
_cell_length_c   13.95027364
_cell_angle_alpha   89.77835510
_cell_angle_beta   90.53861466
_cell_angle_gamma   119.91493801
_symmetry_Int_Tables_number   1
_chemical_formula_structural   Li6V3P8O29
_chemical_formula_sum   'Li12 V6 P16 O58'
_cell_volume   1159.86339840
_cell_formula_units_Z   2
loop_
 _symmetry_equiv_pos_site_id
 _symmetry_equiv_pos_as_xyz
  1  'x, y, z'
loop_
 _atom_site_type_symbol
 _atom_site_label
 _atom_site_symmetry_multiplicity
 _atom_site_fract_x
 _atom_site_fract_y
 _atom_site_fract_z
 _atom_site_occupancy
  Li  Li0  1  0.23753600  0.90179400  0.44565600  1
  Li  Li1  1  0.09444700  0.33268100  0.44173500  1
  Li  Li2  1  0.32072000  0.66394900  0.11064000  1
  Li  Li3  1  0.23245600  0.32824600  0.93543800  1
  Li  Li4  1  0.67209800  0.90724200  0.93546200  1
  Li  Li5  1  0.33675500  0.23532900  0.56433900  1
  Li  Li6  1  0.66817400  0.76046100  0.44106800  1
  Li  Li7  1  0.33003400  0.09619400  0.05762500  1
  Li  Li8  1  0.76643900  0.66547300  0.05281800  1
  Li  Li9  1  0.76565200  0.10042600  0.56287300  1
  Li  Li10  1  0.00061200  0.99765200  0.98896500  1
  Li  Li11  1  0.98565200  0.94916200  0.51307500  1
  V  V0  1  0.43607800  0.43682400  0.74828200  1
  V  V1  1  0.56562000  0.56245600  0.25222400  1
  V  V2  1  0.43666500  0.99903800  0.24943900  1
  V  V3  1  0.56540400  0.00251600  0.75145800  1
  V  V4  1  0.00022800  0.56426200  0.75168400  1
  V  V5  1  0.99619900  0.43784100  0.24754000  1
  P  P0  1  0.08451800  0.78040200  0.15551000  1
  P  P1  1  0.22276300  0.91270600  0.66150300  1
  P  P2  1  0.08451400  0.31263600  0.65571200  1
  P  P3  1  0.33342800  0.66468600  0.87040300  1
  P  P4  1  0.33475700  0.66675300  0.37002700  1
  P  P5  1  0.22320100  0.31614700  0.15862100  1
  P  P6  1  0.31272800  0.22560800  0.34385500  1
  P  P7  1  0.68497900  0.90658600  0.15536900  1
  P  P8  1  0.31396500  0.09119000  0.84435300  1
  P  P9  1  0.68577800  0.77716000  0.65638700  1
  P  P10  1  0.77724800  0.68921900  0.83996700  1
  P  P11  1  0.66872800  0.33290300  0.63090600  1
  P  P12  1  0.66278400  0.33268800  0.12935700  1
  P  P13  1  0.92093200  0.69590500  0.34546500  1
  P  P14  1  0.77560800  0.08579800  0.34087300  1
  P  P15  1  0.91781200  0.22153100  0.84159100  1
  O  O0  1  0.01092200  0.79881300  0.42915000  1
  O  O1  1  0.08573700  0.74638300  0.66211700  1
  O  O2  1  0.22412200  0.01665000  0.93445100  1
  O  O3  1  0.25462400  0.92244200  0.15543200  1
  O  O4  1  0.09965800  0.62935300  0.16664400  1
  O  O5  1  0.18985900  0.66848200  0.82461500  1
  O  O6  1  0.08873400  0.46869800  0.66760700  1
  O  O7  1  0.00671500  0.19788700  0.92263800  1
  O  O8  1  0.08182500  0.34173200  0.15954800  1
  O  O9  1  0.32788800  0.81372300  0.32701200  1
  O  O10  1  0.38269800  0.91749500  0.67382600  1
  O  O11  1  0.18935800  0.51557900  0.32735900  1
  O  O12  1  0.33121900  0.65859100  0.97854600  1
  O  O13  1  0.33724300  0.67151600  0.47684400  1
  O  O14  1  0.32524700  0.51059200  0.83166600  1
  O  O15  1  0.51894500  0.89047400  0.16998600  1
  O  O16  1  0.48758300  0.81134000  0.83467900  1
  O  O17  1  0.25360600  0.33521900  0.65862400  1
  O  O18  1  0.20598600  0.20636300  0.25006400  1
  O  O19  1  0.22774100  0.22894000  0.43295000  1
  O  O20  1  0.23126900  0.23281500  0.06966000  1
  O  O21  1  0.37398700  0.48019000  0.17294600  1
  O  O22  1  0.48951300  0.67521500  0.33022800  1
  O  O23  1  0.34227000  0.26204600  0.83817800  1
  O  O24  1  0.53017000  0.62084300  0.66781700  1
  O  O25  1  0.65769100  0.91933500  0.65976900  1
  O  O26  1  0.20427200  0.00395200  0.75200500  1
  O  O27  1  0.22255000  0.00136000  0.57121800  1
  O  O28  1  0.77323600  0.99639300  0.43007600  1
  O  O29  1  0.33748900  0.08266600  0.34336900  1
  O  O30  1  0.46990900  0.38104400  0.33076100  1
  O  O31  1  0.66342100  0.73882000  0.15988300  1
  O  O32  1  0.51347400  0.32419200  0.66921600  1
  O  O33  1  0.61998000  0.53436000  0.82745500  1
  O  O34  1  0.77699900  0.77866300  0.92901100  1
  O  O35  1  0.77473700  0.78843700  0.56651800  1
  O  O36  1  0.79501900  0.79931900  0.74833100  1
  O  O37  1  0.74998800  0.66489700  0.34316700  1
  O  O38  1  0.51285800  0.18211100  0.17089000  1
  O  O39  1  0.46876000  0.09093300  0.83282900  1
  O  O40  1  0.66627800  0.48332700  0.17182600  1
  O  O41  1  0.65612700  0.33407600  0.02304500  1
  O  O42  1  0.66773900  0.32765600  0.52387600  1
  O  O43  1  0.81203100  0.47799500  0.67947100  1
  O  O44  1  0.62054300  0.08900200  0.32812400  1
  O  O45  1  0.67704200  0.18612100  0.67126900  1
  O  O46  1  0.91635900  0.66231500  0.83897100  1
  O  O47  1  0.00362500  0.79866200  0.25054000  1
  O  O48  1  0.99017000  0.78436300  0.07168900  1
  O  O49  1  0.92573900  0.54201600  0.33518500  1
  O  O50  1  0.81020100  0.33499900  0.17638700  1
  O  O51  1  0.92178400  0.37846000  0.83634600  1
  O  O52  1  0.74443600  0.08147300  0.83994100  1
  O  O53  1  0.76405600  0.98572000  0.06420000  1
  O  O54  1  0.79372500  0.99857600  0.24721400  1
  O  O55  1  0.91882400  0.25319600  0.34086000  1
  O  O56  1  0.00082500  0.22365900  0.56487700  1
  O  O57  1  0.99142700  0.19756000  0.74313600  1
loop_
_geom_bond_atom_site_label_1
_geom_bond_atom_site_label_2
_geom_bond_distance
_geom_bond_site_symmetry_2
Li0 O0 1.936579 1_555
Li0 O27 2.050081 1_565
Li0 O29 2.100648 1_565
Li0 O9 2.250878 1_555
Li1 O56 1.992802 1_555
Li1 O19 2.019372 1_555
Li1 O55 2.041841 1_455
Li1 O11 2.228689 1_555
Li2 O12 1.848980 1_554
Li2 O4 2.168986 1_555
Li2 O15 2.250864 1_555
Li2 O21 2.277498 1_555
Li3 O7 1.929891 1_555
Li3 O23 2.036383 1_555
Li3 O20 2.087347 1_556
Li3 O14 2.121404 1_555
Li4 O53 1.979101 1_556
Li4 O34 1.985833 1_555
Li4 O52 1.996820 1_565
Li4 O16 2.095444 1_555
Li5 O27 1.990209 1_555
Li5 O17 2.043428 1_555
Li5 O32 2.085758 1_555
Li5 O19 2.097464 1_555
Li6 O35 1.977328 1_555
Li6 O28 2.014115 1_555
Li6 O37 2.040164 1_555
Li6 O22 2.156045 1_555
Li7 O2 1.950829 1_554
Li7 O20 2.012827 1_555
Li7 O3 2.013413 1_545
Li7 O38 2.204940 1_555
Li8 O48 1.915338 1_555
Li8 O34 2.024506 1_554
Li8 O31 2.126920 1_555
Li8 O40 2.272979 1_555
Li9 O56 1.995902 1_655
Li9 O25 2.057091 1_545
Li9 O45 2.122549 1_555
Li9 O28 2.137718 1_545
Li10 O7 2.140407 1_565
Li10 O2 2.241053 1_565
Li10 O34 2.321701 1_455
Li10 O48 2.341537 1_456
Li10 O53 2.500050 1_456
Li10 O20 2.541346 1_566
Li11 O0 1.996420 1_655
Li11 O35 2.018669 1_555
Li11 O27 2.253931 1_665
O0 P13 1.503214 1_455
O1 P1 1.508505 1_555
O1 V4 1.990031 1_555
O2 P8 1.503210 1_555
O3 P0 1.548592 1_555
O3 V2 2.021733 1_555
O4 P0 1.566665 1_555
O4 V5 1.982802 1_455
O5 P3 1.555291 1_555
O5 V4 1.898619 1_555
O6 P2 1.519117 1_555
O6 V4 1.959645 1_555
O7 P15 1.506562 1_455
O8 P5 1.524497 1_555
O8 V5 1.977908 1_455
O9 P4 1.590200 1_555
O9 V2 1.918651 1_555
O10 P1 1.550399 1_555
O10 V3 1.883932 1_565
O11 P4 1.569264 1_555
O11 V5 1.981081 1_455
O12 P3 1.509507 1_555
O13 P4 1.490628 1_555
O14 P3 1.569820 1_555
O14 V0 1.965959 1_555
O15 P7 1.567559 1_555
O15 V2 1.972267 1_555
O16 P3 1.560864 1_555
O16 V3 2.003795 1_565
O17 P2 1.556583 1_555
O17 V0 1.984763 1_555
O18 P6 1.618210 1_555
O18 P5 1.620519 1_555
O19 P6 1.511486 1_555
O20 P5 1.512445 1_555
O21 P5 1.559874 1_555
O21 V1 1.962274 1_555
O22 P4 1.580959 1_555
O22 V1 1.950905 1_555
O23 P8 1.557253 1_555
O23 V0 1.945875 1_555
O24 P9 1.538679 1_555
O24 V0 1.925663 1_555
O25 P9 1.549974 1_555
O25 V3 1.969989 1_565
O26 P1 1.612762 1_545
O26 P8 1.615636 1_555
O27 P1 1.527956 1_545
O28 P14 1.512865 1_565
O29 P6 1.536338 1_555
O29 V2 2.038828 1_545
O30 P6 1.544797 1_555
O30 V1 1.892685 1_555
O31 P7 1.551008 1_555
O31 V1 1.979707 1_555
O32 P11 1.577135 1_555
O32 V0 1.966787 1_555
O33 P10 1.539538 1_555
O33 V0 1.904726 1_555
O34 P10 1.523870 1_555
O35 P9 1.505158 1_555
O36 P9 1.606312 1_555
O36 P10 1.623331 1_555
O37 P13 1.544178 1_555
O37 V1 2.008347 1_555
O38 P12 1.586287 1_555
O38 V2 1.908398 1_545
O39 P8 1.526282 1_555
O39 V3 1.944124 1_555
O40 P12 1.577364 1_555
O40 V1 1.902517 1_555
O41 P12 1.484208 1_555
O42 P11 1.493956 1_555
O43 P11 1.564809 1_555
O43 V4 1.881700 1_655
O44 P14 1.542190 1_555
O44 V2 1.899673 1_545
O45 P11 1.582083 1_555
O45 V3 1.931277 1_555
O46 P10 1.510611 1_555
O46 V4 1.973527 1_655
O47 P0 1.605995 1_555
O47 P13 1.618566 1_455
O48 P0 1.495535 1_655
O49 P13 1.539582 1_555
O49 V5 1.934123 1_555
O50 P12 1.569200 1_555
O50 V5 1.859771 1_555
O51 P15 1.520569 1_555
O51 V4 1.976497 1_655
O52 P15 1.562201 1_555
O52 V3 1.951173 1_555
O53 P7 1.493406 1_555
O54 P7 1.616629 1_555
O54 P14 1.622829 1_565
O55 P14 1.537141 1_555
O55 V5 2.043714 1_555
O56 P2 1.521092 1_555
O57 P2 1.604641 1_655
O57 P15 1.628091 1_555
