# generated using pymatgen
data_Sm2TeO6
_symmetry_space_group_name_H-M   'P 1'
_cell_length_a   5.37466622
_cell_length_b   9.23495126
_cell_length_c   10.09795052
_cell_angle_alpha   90.00000000
_cell_angle_beta   90.00000000
_cell_angle_gamma   90.00000000
_symmetry_Int_Tables_number   1
_chemical_formula_structural   Sm2TeO6
_chemical_formula_sum   'Sm8 Te4 O24'
_cell_volume   501.20955837
_cell_formula_units_Z   4
loop_
 _symmetry_equiv_pos_site_id
 _symmetry_equiv_pos_as_xyz
  1  'x, y, z'
loop_
 _atom_site_type_symbol
 _atom_site_label
 _atom_site_symmetry_multiplicity
 _atom_site_fract_x
 _atom_site_fract_y
 _atom_site_fract_z
 _atom_site_occupancy
  Sm  Sm0  1  0.02465771  0.39586821  0.03986441  1
  Sm  Sm1  1  0.03463786  0.28274193  0.63653581  1
  Sm  Sm2  1  0.46536214  0.71725807  0.13653581  1
  Sm  Sm3  1  0.47534229  0.60413179  0.53986441  1
  Sm  Sm4  1  0.52465771  0.10413179  0.96013559  1
  Sm  Sm5  1  0.53463786  0.21725807  0.36346419  1
  Sm  Sm6  1  0.96536214  0.78274193  0.86346419  1
  Sm  Sm7  1  0.97534229  0.89586821  0.46013559  1
  Te  Te0  1  0.04138172  0.00457718  0.14476716  1
  Te  Te1  1  0.45861828  0.99542282  0.64476716  1
  Te  Te2  1  0.54138172  0.49542282  0.85523284  1
  Te  Te3  1  0.95861828  0.50457718  0.35523284  1
  O  O0  1  0.07358583  0.65068836  0.47558398  1
  O  O1  1  0.16690366  0.55281152  0.20998598  1
  O  O2  1  0.18222324  0.86216681  0.25861723  1
  O  O3  1  0.18937334  0.86111271  0.67740209  1
  O  O4  1  0.22310802  0.38764704  0.43317294  1
  O  O5  1  0.24721971  0.91442595  0.00791360  1
  O  O6  1  0.25278029  0.08557405  0.50791360  1
  O  O7  1  0.27689198  0.61235296  0.93317294  1
  O  O8  1  0.31062666  0.13888729  0.17740209  1
  O  O9  1  0.31777676  0.13783319  0.75861723  1
  O  O10  1  0.33309634  0.44718848  0.70998598  1
  O  O11  1  0.42641417  0.34931164  0.97558398  1
  O  O12  1  0.57358583  0.84931164  0.52441602  1
  O  O13  1  0.66690366  0.94718848  0.79001402  1
  O  O14  1  0.68222324  0.63783319  0.74138277  1
  O  O15  1  0.68937334  0.63888729  0.32259791  1
  O  O16  1  0.72310802  0.11235296  0.56682706  1
  O  O17  1  0.74721971  0.58557405  0.99208640  1
  O  O18  1  0.75278029  0.41442595  0.49208640  1
  O  O19  1  0.77689198  0.88764704  0.06682706  1
  O  O20  1  0.81062666  0.36111271  0.82259791  1
  O  O21  1  0.81777676  0.36216681  0.24138277  1
  O  O22  1  0.83309634  0.05281152  0.29001402  1
  O  O23  1  0.92641417  0.15068836  0.02441602  1
loop_
_geom_bond_atom_site_label_1
_geom_bond_atom_site_label_2
_geom_bond_distance
_geom_bond_site_symmetry_2
O0 Te3 1.918192 1_455
O0 Sm3 2.295385 1_555
O0 Sm7 2.330205 1_455
O1 Te3 1.898108 1_455
O1 Sm2 2.330153 1_555
O1 Sm0 2.374081 1_555
O2 Te0 1.903770 1_565
O2 Sm7 2.339686 1_455
O2 Sm2 2.371999 1_555
O3 Te1 1.934209 1_555
O3 Sm6 2.345945 1_455
O3 Sm7 2.497942 1_455
O4 Te3 1.950968 1_455
O4 Sm5 2.403127 1_555
O4 Sm1 2.486306 1_555
O4 Sm3 2.644896 1_555
O5 Te0 1.956223 1_565
O5 Sm4 2.350637 1_564
O5 Sm6 2.429284 1_454
O5 Sm2 2.525272 1_555
O6 Te1 1.956223 1_545
O6 Sm7 2.350637 1_445
O6 Sm5 2.429284 1_555
O6 Sm1 2.525272 1_555
O7 Te2 1.950968 1_555
O7 Sm6 2.403127 1_455
O7 Sm2 2.486306 1_556
O7 Sm0 2.644896 1_556
O8 Te0 1.934209 1_555
O8 Sm5 2.345945 1_555
O8 Sm4 2.497942 1_554
O9 Te1 1.903770 1_545
O9 Sm4 2.339686 1_555
O9 Sm1 2.371999 1_555
O10 Te2 1.898108 1_555
O10 Sm1 2.330153 1_555
O10 Sm3 2.374081 1_555
O11 Te2 1.918192 1_555
O11 Sm0 2.295385 1_556
O11 Sm4 2.330205 1_555
O12 Te1 1.918192 1_555
O12 Sm7 2.295385 1_555
O12 Sm3 2.330205 1_555
O13 Te1 1.898108 1_555
O13 Sm6 2.330153 1_555
O13 Sm4 2.374081 1_565
O14 Te2 1.903770 1_555
O14 Sm3 2.339686 1_555
O14 Sm6 2.371999 1_555
O15 Te3 1.934209 1_555
O15 Sm2 2.345945 1_555
O15 Sm3 2.497942 1_555
O16 Te1 1.950968 1_545
O16 Sm1 2.403127 1_655
O16 Sm5 2.486306 1_555
O16 Sm7 2.644896 1_545
O17 Te2 1.956223 1_555
O17 Sm0 2.350637 1_656
O17 Sm2 2.429284 1_556
O17 Sm6 2.525272 1_555
O18 Te3 1.956223 1_555
O18 Sm3 2.350637 1_555
O18 Sm1 2.429284 1_655
O18 Sm5 2.525272 1_555
O19 Te0 1.950968 1_665
O19 Sm2 2.403127 1_555
O19 Sm6 2.486306 1_554
O19 Sm4 2.644896 1_564
O20 Te2 1.934209 1_555
O20 Sm1 2.345945 1_655
O20 Sm0 2.497942 1_656
O21 Te3 1.903770 1_555
O21 Sm0 2.339686 1_655
O21 Sm5 2.371999 1_555
O22 Te0 1.898108 1_655
O22 Sm5 2.330153 1_555
O22 Sm7 2.374081 1_545
O23 Te0 1.918192 1_655
O23 Sm4 2.295385 1_554
O23 Sm0 2.330205 1_655
