# generated using pymatgen
data_Cr2Fe3P6WO24
_symmetry_space_group_name_H-M   'P 1'
_cell_length_a   8.69219318
_cell_length_b   8.69219318
_cell_length_c   8.69219336
_cell_angle_alpha   59.94901327
_cell_angle_beta   59.94901327
_cell_angle_gamma   59.94901664
_symmetry_Int_Tables_number   1
_chemical_formula_structural   Cr2Fe3P6WO24
_chemical_formula_sum   'Cr2 Fe3 P6 W1 O24'
_cell_volume   463.84260474
_cell_formula_units_Z   1
loop_
 _symmetry_equiv_pos_site_id
 _symmetry_equiv_pos_as_xyz
  1  'x, y, z'
loop_
 _atom_site_type_symbol
 _atom_site_label
 _atom_site_symmetry_multiplicity
 _atom_site_fract_x
 _atom_site_fract_y
 _atom_site_fract_z
 _atom_site_occupancy
  Cr  Cr0  1  0.99558500  0.99558500  0.99558500  1
  Cr  Cr1  1  0.49962000  0.49962000  0.49962000  1
  Fe  Fe0  1  0.64563200  0.64563200  0.64563200  1
  Fe  Fe1  1  0.85417900  0.85417900  0.85417900  1
  Fe  Fe2  1  0.35433800  0.35433800  0.35433800  1
  P  P0  1  0.25242700  0.54692100  0.95421300  1
  P  P1  1  0.95421300  0.25242700  0.54692100  1
  P  P2  1  0.54692100  0.95421300  0.25242700  1
  P  P3  1  0.46310800  0.04425500  0.74471600  1
  P  P4  1  0.04425500  0.74471600  0.46310800  1
  P  P5  1  0.74471600  0.46310800  0.04425500  1
  W  W0  1  0.14353300  0.14353300  0.14353300  1
  O  O0  1  0.11371700  0.31120500  0.50267000  1
  O  O1  1  0.50267000  0.11371700  0.31120500  1
  O  O2  1  0.31120500  0.50267000  0.11371700  1
  O  O3  1  0.08626200  0.73520100  0.94023600  1
  O  O4  1  0.19012900  0.38480500  0.99519000  1
  O  O5  1  0.41426700  0.55477400  0.76196500  1
  O  O6  1  0.94023600  0.08626200  0.73520100  1
  O  O7  1  0.76196500  0.41426700  0.55477400  1
  O  O8  1  0.61587300  0.00630400  0.80912600  1
  O  O9  1  0.55477400  0.76196500  0.41426700  1
  O  O10  1  0.26519900  0.06400000  0.91347900  1
  O  O11  1  0.00630400  0.80912600  0.61587300  1
  O  O12  1  0.99519000  0.19012900  0.38480500  1
  O  O13  1  0.73520100  0.94023600  0.08626200  1
  O  O14  1  0.44025900  0.23941400  0.58630100  1
  O  O15  1  0.38480500  0.99519000  0.19012900  1
  O  O16  1  0.23941400  0.58630100  0.44025900  1
  O  O17  1  0.06400000  0.91347900  0.26519900  1
  O  O18  1  0.58630100  0.44025900  0.23941400  1
  O  O19  1  0.80912600  0.61587300  0.00630400  1
  O  O20  1  0.91347900  0.26519900  0.06400000  1
  O  O21  1  0.69402300  0.49163300  0.88541900  1
  O  O22  1  0.49163300  0.88541900  0.69402300  1
  O  O23  1  0.88541900  0.69402300  0.49163300  1
loop_
_geom_bond_atom_site_label_1
_geom_bond_atom_site_label_2
_geom_bond_distance
_geom_bond_site_symmetry_2
Cr0 O13 2.213457 1_556
Cr0 O3 2.213457 1_655
Cr0 O6 2.213457 1_565
Cr0 O10 2.377133 1_665
Cr0 O20 2.377133 1_566
Cr0 O17 2.377133 1_656
Cr1 O14 2.241024 1_555
Cr1 O16 2.241024 1_555
Cr1 O18 2.241024 1_555
Cr1 O9 2.241548 1_555
Cr1 O7 2.241548 1_555
Cr1 O5 2.241548 1_555
Fe0 O23 1.957753 1_555
Fe0 O21 1.957753 1_555
Fe0 O22 1.957753 1_555
Fe0 O5 2.108267 1_555
Fe0 O9 2.108267 1_555
Fe0 O7 2.108267 1_555
Fe1 O19 1.934713 1_556
Fe1 O11 1.934713 1_655
Fe1 O8 1.934713 1_565
Fe1 O6 2.084627 1_565
Fe1 O13 2.084627 1_556
Fe1 O3 2.084627 1_655
Fe2 O0 1.943660 1_555
Fe2 O2 1.943660 1_555
Fe2 O1 1.943660 1_555
Fe2 O18 2.089188 1_555
Fe2 O14 2.089188 1_555
Fe2 O16 2.089188 1_555
O0 P1 1.519773 1_455
O1 P2 1.519773 1_545
O2 P0 1.519773 1_554
O3 P0 1.545456 1_555
O4 P0 1.572947 1_555
O4 W0 1.960656 1_556
O5 P0 1.550348 1_555
O6 P1 1.545456 1_555
O7 P1 1.550348 1_555
O8 P3 1.518676 1_555
O9 P2 1.550348 1_555
O10 P3 1.603026 1_555
O10 W0 2.032074 1_556
O11 P4 1.518676 1_555
O12 P1 1.572947 1_555
O12 W0 1.960656 1_655
O13 P2 1.545456 1_555
O14 P3 1.552471 1_555
O15 P2 1.572947 1_555
O15 W0 1.960656 1_565
O16 P4 1.552471 1_555
O17 P4 1.603026 1_555
O17 W0 2.032074 1_565
O18 P5 1.552471 1_555
O19 P5 1.518676 1_555
O20 P5 1.603026 1_555
O20 W0 2.032074 1_655
O21 P5 1.522762 1_556
O22 P3 1.522762 1_565
O23 P4 1.522762 1_655
