# generated using pymatgen
data_LiTaWO6
_symmetry_space_group_name_H-M   'P 1'
_cell_length_a   7.37454610
_cell_length_b   7.37454610
_cell_length_c   7.37454610
_cell_angle_alpha   120.30183629
_cell_angle_beta   119.59897130
_cell_angle_gamma   90.08700080
_symmetry_Int_Tables_number   1
_chemical_formula_structural   LiTaWO6
_chemical_formula_sum   'Li2 Ta2 W2 O12'
_cell_volume   283.78889874
_cell_formula_units_Z   2
loop_
 _symmetry_equiv_pos_site_id
 _symmetry_equiv_pos_as_xyz
  1  'x, y, z'
loop_
 _atom_site_type_symbol
 _atom_site_label
 _atom_site_symmetry_multiplicity
 _atom_site_fract_x
 _atom_site_fract_y
 _atom_site_fract_z
 _atom_site_occupancy
  Li  Li0  1  0.50000000  0.50000000  0.00000000  1
  Li  Li1  1  0.00000000  0.50000000  0.50000000  1
  Ta  Ta0  1  0.50000000  0.50000000  0.50000000  1
  Ta  Ta1  1  0.50000000  0.00000000  0.00000000  1
  W  W0  1  0.50000000  0.00000000  0.50000000  1
  W  W1  1  0.00000000  0.00000000  0.00000000  1
  O  O0  1  0.18331500  0.30987300  0.24944900  1
  O  O1  1  0.18331500  0.93386700  0.87344200  1
  O  O2  1  0.43957500  0.69012700  0.37344200  1
  O  O3  1  0.43957500  0.06613300  0.74944900  1
  O  O4  1  0.19331300  0.94331300  0.25000000  1
  O  O5  1  0.57430000  0.32430000  0.25000000  1
  O  O6  1  0.80668700  0.05668700  0.75000000  1
  O  O7  1  0.42570000  0.67570000  0.75000000  1
  O  O8  1  0.56042500  0.30987300  0.62655800  1
  O  O9  1  0.81668500  0.06613300  0.12655800  1
  O  O10  1  0.81668500  0.69012700  0.75055100  1
  O  O11  1  0.56042500  0.93386700  0.25055100  1
loop_
_geom_bond_atom_site_label_1
_geom_bond_atom_site_label_2
_geom_bond_distance
_geom_bond_site_symmetry_2
Li0 O5 2.606320 1_555
Li0 O7 2.606320 1_554
Li0 O3 2.658277 1_554
Li0 O11 2.658277 1_555
Li0 O8 2.658277 1_554
Li0 O2 2.658277 1_555
Li1 O5 2.606320 1_455
Li1 O7 2.606320 1_555
Li1 O0 2.658272 1_555
Li1 O10 2.658272 1_455
Li1 O1 2.658277 1_555
Li1 O9 2.658277 1_455
O0 W1 1.930159 1_555
O0 Ta0 1.986728 1_555
O1 W1 1.930159 1_566
O1 Ta1 1.986728 1_566
O2 W0 1.930159 1_565
O2 Ta0 1.986728 1_555
O3 W0 1.930166 1_555
O3 Ta1 1.986721 1_556
O4 W1 1.946605 1_565
O4 W0 1.946605 1_565
O5 Ta1 1.991876 1_555
O5 Ta0 1.991876 1_555
O6 W1 1.946605 1_656
O6 W0 1.946605 1_555
O7 Ta1 1.991876 1_566
O7 Ta0 1.991876 1_555
O8 W0 1.930159 1_555
O8 Ta0 1.986728 1_555
O9 W1 1.930159 1_655
O9 Ta1 1.986728 1_555
O10 W1 1.930159 1_666
O10 Ta0 1.986728 1_555
O11 W0 1.930166 1_565
O11 Ta1 1.986721 1_565
