# generated using pymatgen
data_Li3MnFeCo(PO4)3
_symmetry_space_group_name_H-M   'P 1'
_cell_length_a   6.09222900
_cell_length_b   10.46145000
_cell_length_c   14.27934102
_cell_angle_alpha   89.94740020
_cell_angle_beta   90.00000000
_cell_angle_gamma   90.00000000
_symmetry_Int_Tables_number   1
_chemical_formula_structural   Li3MnFeCo(PO4)3
_chemical_formula_sum   'Li12 Mn4 Fe4 Co4 P12 O48'
_cell_volume   910.07269794
_cell_formula_units_Z   4
loop_
 _symmetry_equiv_pos_site_id
 _symmetry_equiv_pos_as_xyz
  1  'x, y, z'
loop_
 _atom_site_type_symbol
 _atom_site_label
 _atom_site_symmetry_multiplicity
 _atom_site_fract_x
 _atom_site_fract_y
 _atom_site_fract_z
 _atom_site_occupancy
  Li  Li0  1  0.75060100  0.99819000  0.66700100  1
  Li  Li1  1  0.24954900  0.99906600  0.99955200  1
  Li  Li2  1  0.75045100  0.99906600  0.99955200  1
  Li  Li3  1  0.24976700  0.99916000  0.33347800  1
  Li  Li4  1  0.75023300  0.99916000  0.33347800  1
  Li  Li5  1  0.24939900  0.99819000  0.66700100  1
  Li  Li6  1  0.24977200  0.50204200  0.50048800  1
  Li  Li7  1  0.75022800  0.50204200  0.50048800  1
  Li  Li8  1  0.24963700  0.50056000  0.16662200  1
  Li  Li9  1  0.75036300  0.50056000  0.16662200  1
  Li  Li10  1  0.24918600  0.50142500  0.83343800  1
  Li  Li11  1  0.75081400  0.50142500  0.83343800  1
  Mn  Mn0  1  0.50000000  0.21782000  0.49344200  1
  Mn  Mn1  1  0.50000000  0.21802600  0.82623300  1
  Mn  Mn2  1  0.00000000  0.28064800  0.32628900  1
  Mn  Mn3  1  0.50000000  0.71959700  0.00744400  1
  Fe  Fe0  1  0.50000000  0.21965200  0.15976100  1
  Fe  Fe1  1  0.00000000  0.28161200  0.65907100  1
  Fe  Fe2  1  0.00000000  0.28120100  0.99267900  1
  Fe  Fe3  1  0.50000000  0.72021700  0.34078800  1
  Co  Co0  1  0.50000000  0.72074500  0.67318800  1
  Co  Co1  1  0.00000000  0.77906000  0.83867000  1
  Co  Co2  1  0.00000000  0.77848300  0.50736000  1
  Co  Co3  1  0.00000000  0.77984300  0.17301200  1
  P  P0  1  0.00000000  0.09309700  0.80489300  1
  P  P1  1  0.00000000  0.09332400  0.13862500  1
  P  P2  1  0.00000000  0.09119800  0.47294200  1
  P  P3  1  0.50000000  0.40753100  0.30460400  1
  P  P4  1  0.50000000  0.40850900  0.64012300  1
  P  P5  1  0.50000000  0.40576600  0.97345200  1
  P  P6  1  0.00000000  0.59680900  0.36129900  1
  P  P7  1  0.00000000  0.59477300  0.02847600  1
  P  P8  1  0.00000000  0.59630200  0.69395700  1
  P  P9  1  0.50000000  0.90450500  0.85951500  1
  P  P10  1  0.50000000  0.90541100  0.19448900  1
  P  P11  1  0.50000000  0.90304700  0.52775500  1
  O  O0  1  0.50000000  0.04234500  0.23610100  1
  O  O1  1  0.50000000  0.03960500  0.56978800  1
  O  O2  1  0.50000000  0.04089600  0.90229600  1
  O  O3  1  0.00000000  0.09653800  0.58022700  1
  O  O4  1  0.00000000  0.09776000  0.91238700  1
  O  O5  1  0.00000000  0.09505000  0.24603400  1
  O  O6  1  0.20214000  0.16424600  0.09471700  1
  O  O7  1  0.79786000  0.16424600  0.09471700  1
  O  O8  1  0.20146600  0.16140600  0.42778300  1
  O  O9  1  0.79853400  0.16140600  0.42778300  1
  O  O10  1  0.20093400  0.16349500  0.75936300  1
  O  O11  1  0.79906600  0.16349500  0.75936300  1
  O  O12  1  0.70256000  0.33721400  0.59655200  1
  O  O13  1  0.29744000  0.33721400  0.59655200  1
  O  O14  1  0.70018100  0.33663400  0.25948100  1
  O  O15  1  0.29981900  0.33663400  0.25948100  1
  O  O16  1  0.70297500  0.33505400  0.93002700  1
  O  O17  1  0.29702500  0.33505400  0.93002700  1
  O  O18  1  0.50000000  0.40404100  0.41203600  1
  O  O19  1  0.50000000  0.40400800  0.08068800  1
  O  O20  1  0.50000000  0.40597100  0.74741000  1
  O  O21  1  0.00000000  0.45979000  0.40319500  1
  O  O22  1  0.00000000  0.45673200  0.06839300  1
  O  O23  1  0.00000000  0.45910300  0.73507000  1
  O  O24  1  0.50000000  0.54543000  0.26463400  1
  O  O25  1  0.50000000  0.54194400  0.93068300  1
  O  O26  1  0.50000000  0.54540500  0.59796000  1
  O  O27  1  0.00000000  0.59782500  0.25359800  1
  O  O28  1  0.00000000  0.59886800  0.92071500  1
  O  O29  1  0.00000000  0.59854700  0.58637000  1
  O  O30  1  0.20084000  0.66469800  0.07410300  1
  O  O31  1  0.20207900  0.66738200  0.40543500  1
  O  O32  1  0.20287200  0.66753500  0.73860700  1
  O  O33  1  0.79712800  0.66753500  0.73860700  1
  O  O34  1  0.79916000  0.66469800  0.07410300  1
  O  O35  1  0.79792100  0.66738200  0.40543500  1
  O  O36  1  0.70431400  0.83463600  0.90306600  1
  O  O37  1  0.29568600  0.83463600  0.90306600  1
  O  O38  1  0.70294500  0.83458500  0.23834000  1
  O  O39  1  0.70297200  0.83201600  0.57194600  1
  O  O40  1  0.29705500  0.83458500  0.23834000  1
  O  O41  1  0.29702800  0.83201600  0.57194600  1
  O  O42  1  0.50000000  0.90317800  0.75203900  1
  O  O43  1  0.50000000  0.90228800  0.42048000  1
  O  O44  1  0.50000000  0.90519300  0.08687900  1
  O  O45  1  0.00000000  0.95497900  0.76521100  1
  O  O46  1  0.00000000  0.95522300  0.09698200  1
  O  O47  1  0.00000000  0.95341300  0.43276000  1
loop_
_geom_bond_atom_site_label_1
_geom_bond_atom_site_label_2
_geom_bond_distance
_geom_bond_site_symmetry_2
Li0 O1 2.108176 1_565
Li0 O45 2.116223 1_655
Li0 O42 2.188860 1_555
Li0 O11 2.195760 1_565
Li0 O3 2.213615 1_665
Li0 O39 2.225525 1_555
Li1 O2 2.108813 1_565
Li1 O46 2.110942 1_556
Li1 O44 2.201179 1_556
Li1 O6 2.218194 1_566
Li1 O4 2.219049 1_565
Li1 O37 2.222740 1_555
Li2 O2 2.108813 1_565
Li2 O46 2.110942 1_656
Li2 O44 2.201179 1_556
Li2 O7 2.218194 1_566
Li2 O4 2.219049 1_665
Li2 O36 2.222740 1_555
Li3 O0 2.111969 1_565
Li3 O47 2.133775 1_555
Li3 O8 2.187482 1_565
Li3 O5 2.208732 1_565
Li3 O43 2.211816 1_555
Li3 O40 2.212930 1_555
Li4 O0 2.111969 1_565
Li4 O47 2.133775 1_655
Li4 O9 2.187482 1_565
Li4 O5 2.208732 1_665
Li4 O43 2.211816 1_555
Li4 O38 2.212930 1_555
Li5 O1 2.108176 1_565
Li5 O45 2.116223 1_555
Li5 O42 2.188860 1_555
Li5 O10 2.195760 1_565
Li5 O3 2.213615 1_565
Li5 O41 2.225525 1_555
Li6 O21 2.107624 1_555
Li6 O26 2.113786 1_555
Li6 O29 2.200207 1_555
Li6 O31 2.216802 1_555
Li6 O13 2.221483 1_555
Li6 O18 2.229950 1_555
Li7 O21 2.107624 1_655
Li7 O26 2.113786 1_555
Li7 O29 2.200207 1_655
Li7 O35 2.216802 1_555
Li7 O12 2.221483 1_555
Li7 O18 2.229950 1_555
Li8 O22 2.119385 1_555
Li8 O24 2.122904 1_555
Li8 O30 2.185875 1_555
Li8 O15 2.188234 1_555
Li8 O19 2.203338 1_555
Li8 O27 2.212042 1_555
Li9 O22 2.119385 1_655
Li9 O24 2.122904 1_555
Li9 O34 2.185875 1_555
Li9 O14 2.188234 1_555
Li9 O19 2.203338 1_555
Li9 O27 2.212042 1_655
Li10 O25 2.108030 1_555
Li10 O23 2.115367 1_555
Li10 O20 2.200747 1_555
Li10 O28 2.213432 1_555
Li10 O32 2.220073 1_555
Li10 O17 2.238767 1_555
Li11 O25 2.108030 1_555
Li11 O23 2.115367 1_655
Li11 O20 2.200747 1_555
Li11 O28 2.213432 1_655
Li11 O33 2.220073 1_555
Li11 O16 2.238767 1_555
Mn0 O9 2.129826 1_555
Mn0 O8 2.129826 1_555
Mn0 O1 2.158861 1_555
Mn0 O18 2.267670 1_555
Mn0 O12 2.292186 1_555
Mn0 O13 2.292186 1_555
Mn1 O10 2.134901 1_555
Mn1 O11 2.134901 1_555
Mn1 O2 2.147027 1_555
Mn1 O20 2.264648 1_555
Mn1 O16 2.286472 1_555
Mn1 O17 2.286472 1_555
Mn2 O14 2.142060 1_455
Mn2 O15 2.142060 1_555
Mn2 O21 2.173004 1_555
Mn2 O5 2.255500 1_555
Mn2 O8 2.271481 1_555
Mn2 O9 2.271481 1_455
Mn3 O34 2.134607 1_555
Mn3 O30 2.134607 1_555
Mn3 O25 2.158523 1_554
Mn3 O44 2.249546 1_555
Mn3 O36 2.283822 1_554
Mn3 O37 2.283822 1_554
Fe0 O6 2.119548 1_555
Fe0 O7 2.119548 1_555
Fe0 O0 2.150624 1_555
Fe0 O19 2.233945 1_555
Fe0 O15 2.239594 1_555
Fe0 O14 2.239594 1_555
Fe1 O13 2.101897 1_555
Fe1 O12 2.101897 1_455
Fe1 O23 2.151546 1_555
Fe1 O3 2.240573 1_555
Fe1 O11 2.252348 1_455
Fe1 O10 2.252348 1_555
Fe2 O16 2.095539 1_455
Fe2 O17 2.095539 1_555
Fe2 O22 2.131795 1_556
Fe2 O4 2.236365 1_555
Fe2 O6 2.265663 1_556
Fe2 O7 2.265663 1_456
Fe3 O35 2.109728 1_555
Fe3 O31 2.109728 1_555
Fe3 O24 2.128299 1_555
Fe3 O43 2.219660 1_555
Fe3 O40 2.257652 1_555
Fe3 O38 2.257652 1_555
Co0 O33 2.111457 1_555
Co0 O32 2.111457 1_555
Co0 O26 2.126554 1_555
Co0 O42 2.216780 1_555
Co0 O41 2.229564 1_555
Co0 O39 2.229564 1_555
Co1 O37 2.104649 1_555
Co1 O36 2.104649 1_455
Co1 O45 2.117474 1_555
Co1 O28 2.218549 1_555
Co1 O32 2.221126 1_555
Co1 O33 2.221126 1_455
Co2 O39 2.107045 1_455
Co2 O41 2.107045 1_555
Co2 O47 2.116632 1_555
Co2 O29 2.193709 1_555
Co2 O31 2.233357 1_555
Co2 O35 2.233357 1_455
Co3 O38 2.115242 1_455
Co3 O40 2.115242 1_555
Co3 O46 2.131016 1_555
Co3 O27 2.223959 1_555
Co3 O30 2.223960 1_555
Co3 O34 2.223960 1_455
O0 P10 1.551375 1_545
O1 P11 1.550065 1_545
O2 P9 1.552635 1_545
O3 P2 1.533029 1_555
O4 P0 1.535763 1_555
O5 P1 1.533853 1_555
O6 P1 1.568210 1_555
O7 P1 1.568210 1_655
O8 P2 1.568713 1_555
O9 P2 1.568713 1_655
O10 P0 1.569296 1_555
O11 P0 1.569296 1_655
O12 P4 1.570698 1_555
O13 P4 1.570698 1_555
O14 P3 1.566343 1_555
O15 P3 1.566343 1_555
O16 P5 1.568974 1_555
O17 P5 1.568974 1_555
O18 P3 1.534459 1_555
O19 P5 1.531353 1_554
O20 P4 1.532193 1_555
O21 P6 1.552743 1_555
O22 P7 1.552039 1_555
O23 P8 1.550222 1_555
O24 P3 1.550935 1_555
O25 P5 1.549488 1_555
O26 P4 1.553026 1_555
O27 P6 1.537926 1_555
O28 P7 1.539313 1_556
O29 P8 1.536429 1_555
O30 P7 1.567668 1_555
O31 P6 1.568045 1_555
O32 P8 1.578052 1_555
O33 P8 1.578052 1_655
O34 P7 1.567668 1_655
O35 P6 1.568045 1_655
O36 P9 1.571466 1_555
O37 P9 1.571466 1_555
O38 P10 1.571267 1_555
O39 P11 1.574345 1_555
O40 P10 1.571267 1_555
O41 P11 1.574345 1_555
O42 P9 1.534762 1_555
O43 P11 1.531844 1_555
O44 P10 1.536604 1_555
O45 P0 1.552532 1_565
O46 P1 1.562828 1_565
O47 P2 1.551920 1_565
