# generated using pymatgen
data_V2O3F
_symmetry_space_group_name_H-M   'P 1'
_cell_length_a   5.46993433
_cell_length_b   5.46993663
_cell_length_c   5.46993586
_cell_angle_alpha   70.05777965
_cell_angle_beta   104.49270933
_cell_angle_gamma   65.87860047
_symmetry_Int_Tables_number   1
_chemical_formula_structural   V2O3F
_chemical_formula_sum   'V4 O6 F2'
_cell_volume   125.09824781
_cell_formula_units_Z   2
loop_
 _symmetry_equiv_pos_site_id
 _symmetry_equiv_pos_as_xyz
  1  'x, y, z'
loop_
 _atom_site_type_symbol
 _atom_site_label
 _atom_site_symmetry_multiplicity
 _atom_site_fract_x
 _atom_site_fract_y
 _atom_site_fract_z
 _atom_site_occupancy
  V  V0  1  0.79116824  0.75000105  0.54116928  1
  V  V1  1  0.20883423  0.24999882  0.45883406  1
  V  V2  1  -0.00000313  0.00000221  -0.00000092  1
  V  V3  1  0.50000070  0.49999791  -0.00000139  1
  O  O0  1  0.05849084  0.75000220  0.80849204  1
  O  O1  1  -0.00000399  0.30403536  0.69596943  1
  O  O2  1  0.50000497  0.80402977  0.69596599  1
  O  O3  1  0.50000497  0.19596202  0.30403473  1
  O  O4  1  -0.00000399  0.69597343  0.30403137  1
  O  O5  1  0.94152283  0.24999833  0.19152116  1
  F  F0  1  0.54507654  0.24999960  0.79507614  1
  F  F1  1  0.45490882  0.75000030  0.20490912  1
loop_
_geom_bond_atom_site_label_1
_geom_bond_atom_site_label_2
_geom_bond_distance
_geom_bond_site_symmetry_2
O0 V0 1.790565 1_455
O0 V2 1.963926 1_566
O0 V3 1.963937 1_556
O1 V2 1.909123 1_556
O1 V0 1.949833 1_455
O1 V1 1.949867 1_555
O2 V3 1.909145 1_556
O2 V0 1.949809 1_555
O2 V1 1.949848 1_565
O3 V3 1.909141 1_555
O3 V0 1.949812 1_545
O3 V1 1.949853 1_555
O4 V2 1.909123 1_565
O4 V0 1.949833 1_455
O4 V1 1.949871 1_555
O5 V1 1.790493 1_655
O5 V2 1.963974 1_655
O5 V3 1.963990 1_555
F0 V2 2.023750 1_656
F0 V3 2.023754 1_556
F0 V1 2.252196 1_555
F1 V2 2.023711 1_565
F1 V3 2.023717 1_555
F1 V0 2.252314 1_555
