# generated using pymatgen
data_Li3(CrS2)4
_symmetry_space_group_name_H-M   'P 1'
_cell_length_a   7.63488534
_cell_length_b   7.63488534
_cell_length_c   7.63488558
_cell_angle_alpha   54.31367687
_cell_angle_beta   54.31367687
_cell_angle_gamma   54.31367951
_symmetry_Int_Tables_number   1
_chemical_formula_structural   Li3(CrS2)4
_chemical_formula_sum   'Li3 Cr4 S8'
_cell_volume   272.94842672
_cell_formula_units_Z   1
loop_
 _symmetry_equiv_pos_site_id
 _symmetry_equiv_pos_as_xyz
  1  'x, y, z'
loop_
 _atom_site_type_symbol
 _atom_site_label
 _atom_site_symmetry_multiplicity
 _atom_site_fract_x
 _atom_site_fract_y
 _atom_site_fract_z
 _atom_site_occupancy
  Li  Li0  1  0.13782200  0.64244200  0.64244200  1
  Li  Li1  1  0.64244200  0.13782200  0.64244200  1
  Li  Li2  1  0.64244200  0.64244200  0.13782200  1
  Cr  Cr0  1  0.99861500  0.99861500  0.99861500  1
  Cr  Cr1  1  0.48779500  0.00460900  0.48779500  1
  Cr  Cr2  1  0.00460900  0.48779500  0.48779500  1
  Cr  Cr3  1  0.48779500  0.48779500  0.00460900  1
  S  S0  1  0.73147300  0.73147300  0.73147300  1
  S  S1  1  0.23381700  0.23381700  0.72942700  1
  S  S2  1  0.76461400  0.26344800  0.76461400  1
  S  S3  1  0.26344800  0.76461400  0.76461400  1
  S  S4  1  0.23381700  0.72942700  0.23381700  1
  S  S5  1  0.72942700  0.23381700  0.23381700  1
  S  S6  1  0.76461400  0.76461400  0.26344800  1
  S  S7  1  0.25909400  0.25909400  0.25909400  1
loop_
_geom_bond_atom_site_label_1
_geom_bond_atom_site_label_2
_geom_bond_distance
_geom_bond_site_symmetry_2
Li0 S3 2.400571 1_555
Li0 S0 2.483437 1_455
Li0 S1 2.488831 1_555
Li0 S4 2.488831 1_555
Li1 S2 2.400571 1_555
Li1 S0 2.483437 1_545
Li1 S1 2.488831 1_555
Li1 S5 2.488831 1_555
Li2 S6 2.400571 1_555
Li2 S0 2.483437 1_554
Li2 S4 2.488831 1_555
Li2 S5 2.488831 1_555
Cr0 S6 2.401419 1_556
Cr0 S3 2.401419 1_655
Cr0 S2 2.401419 1_565
Cr0 S1 2.413258 1_665
Cr0 S4 2.413258 1_656
Cr0 S5 2.413258 1_566
Cr1 S7 2.348126 1_555
Cr1 S3 2.382890 1_545
Cr1 S6 2.382890 1_545
Cr1 S5 2.420710 1_555
Cr1 S1 2.420710 1_555
Cr1 S0 2.501336 1_545
Cr2 S7 2.348126 1_555
Cr2 S2 2.382890 1_455
Cr2 S6 2.382890 1_455
Cr2 S4 2.420710 1_555
Cr2 S1 2.420710 1_555
Cr2 S0 2.501336 1_455
Cr3 S7 2.348126 1_555
Cr3 S2 2.382890 1_554
Cr3 S3 2.382890 1_554
Cr3 S4 2.420710 1_555
Cr3 S5 2.420710 1_555
Cr3 S0 2.501336 1_554
