# generated using pymatgen
data_LiMn3(BO3)3
_symmetry_space_group_name_H-M   'P 1'
_cell_length_a   5.75930800
_cell_length_b   8.12849569
_cell_length_c   9.19497326
_cell_angle_alpha   109.99838272
_cell_angle_beta   105.19312661
_cell_angle_gamma   100.65121503
_symmetry_Int_Tables_number   1
_chemical_formula_structural   LiMn3(BO3)3
_chemical_formula_sum   'Li2 Mn6 B6 O18'
_cell_volume   372.05736127
_cell_formula_units_Z   2
loop_
 _symmetry_equiv_pos_site_id
 _symmetry_equiv_pos_as_xyz
  1  'x, y, z'
loop_
 _atom_site_type_symbol
 _atom_site_label
 _atom_site_symmetry_multiplicity
 _atom_site_fract_x
 _atom_site_fract_y
 _atom_site_fract_z
 _atom_site_occupancy
  Li  Li0  1  0.83387400  0.15337600  0.26828800  1
  Li  Li1  1  0.16612600  0.84662400  0.73171200  1
  Mn  Mn0  1  0.25523500  0.50295000  0.62895400  1
  Mn  Mn1  1  0.43876600  0.17734500  0.67854700  1
  Mn  Mn2  1  0.74476500  0.49705000  0.37104600  1
  Mn  Mn3  1  0.56123400  0.82265500  0.32145300  1
  Mn  Mn4  1  0.89398500  0.15399900  0.94570000  1
  Mn  Mn5  1  0.10601500  0.84600100  0.05430000  1
  B  B0  1  0.09923400  0.85286500  0.39661500  1
  B  B1  1  0.56579200  0.82816500  0.96890700  1
  B  B2  1  0.43420800  0.17183500  0.03109300  1
  B  B3  1  0.90076600  0.14713500  0.60338500  1
  B  B4  1  0.79931100  0.53734600  0.72678400  1
  B  B5  1  0.20068900  0.46265400  0.27321600  1
  O  O0  1  0.45975500  0.76400700  0.80381600  1
  O  O1  1  0.08068900  0.40937500  0.36953800  1
  O  O2  1  0.81810200  0.94928900  0.05527900  1
  O  O3  1  0.20421000  0.92772900  0.56543000  1
  O  O4  1  0.85447000  0.73282400  0.31532900  1
  O  O5  1  0.56653400  0.19602500  0.92849800  1
  O  O6  1  0.91931100  0.59062500  0.63046200  1
  O  O7  1  0.14553000  0.26717600  0.68467100  1
  O  O8  1  0.54024500  0.23599300  0.19618400  1
  O  O9  1  0.79579000  0.07227100  0.43457000  1
  O  O10  1  0.18189800  0.05071100  0.94472100  1
  O  O11  1  0.43346600  0.80397500  0.07150200  1
  O  O12  1  0.75913300  0.11040300  0.69698500  1
  O  O13  1  0.42984800  0.60507000  0.35615700  1
  O  O14  1  0.10980900  0.38694300  0.10613700  1
  O  O15  1  0.57015200  0.39493000  0.64384300  1
  O  O16  1  0.24086700  0.88959700  0.30301500  1
  O  O17  1  0.89019100  0.61305700  0.89386300  1
loop_
_geom_bond_atom_site_label_1
_geom_bond_atom_site_label_2
_geom_bond_distance
_geom_bond_site_symmetry_2
Li0 O9 1.905839 1_555
Li0 O8 1.971557 1_555
Li0 O1 2.026151 1_655
Li0 O2 2.055499 1_545
Li1 O3 1.905839 1_555
Li1 O0 1.971557 1_555
Li1 O6 2.026151 1_455
Li1 O10 2.055499 1_565
Mn0 O0 2.055530 1_555
Mn0 O1 2.120942 1_555
Mn0 O15 2.149413 1_555
Mn0 O7 2.174446 1_555
Mn0 O6 2.183596 1_455
Mn1 O15 1.954574 1_555
Mn1 O3 1.957142 1_545
Mn1 O7 1.966239 1_555
Mn1 O12 1.999867 1_555
Mn1 O5 2.163388 1_555
Mn2 O8 2.055530 1_555
Mn2 O6 2.120942 1_555
Mn2 O13 2.149413 1_555
Mn2 O4 2.174446 1_555
Mn2 O1 2.183596 1_655
Mn3 O13 1.954574 1_555
Mn3 O9 1.957142 1_565
Mn3 O4 1.966239 1_555
Mn3 O16 1.999867 1_555
Mn3 O11 2.163388 1_555
Mn4 O14 1.888082 1_656
Mn4 O5 1.953729 1_555
Mn4 O10 1.992940 1_655
Mn4 O12 2.090882 1_555
Mn4 O2 2.254728 1_546
Mn5 O17 1.888082 1_454
Mn5 O11 1.953729 1_555
Mn5 O2 1.992940 1_455
Mn5 O16 2.090882 1_555
Mn5 O10 2.254728 1_564
B0 O3 1.367965 1_555
B0 O4 1.392250 1_455
B0 O16 1.396048 1_555
B1 O0 1.343187 1_555
B1 O11 1.399179 1_556
B1 O2 1.429365 1_556
B2 O8 1.343187 1_555
B2 O5 1.399179 1_554
B2 O10 1.429365 1_554
B3 O9 1.367965 1_555
B3 O7 1.392250 1_655
B3 O12 1.396048 1_555
B4 O17 1.351166 1_555
B4 O6 1.386424 1_555
B4 O15 1.402633 1_555
B5 O14 1.351166 1_555
B5 O1 1.386424 1_555
B5 O13 1.402633 1_555
