# generated using pymatgen
data_LiFe2OF5
_symmetry_space_group_name_H-M   'P 1'
_cell_length_a   5.22232465
_cell_length_b   5.22232465
_cell_length_c   13.72668600
_cell_angle_alpha   90.00000000
_cell_angle_beta   90.00000000
_cell_angle_gamma   120.00000822
_symmetry_Int_Tables_number   1
_chemical_formula_structural   LiFe2OF5
_chemical_formula_sum   'Li3 Fe6 O3 F15'
_cell_volume   324.20822460
_cell_formula_units_Z   3
loop_
 _symmetry_equiv_pos_site_id
 _symmetry_equiv_pos_as_xyz
  1  'x, y, z'
loop_
 _atom_site_type_symbol
 _atom_site_label
 _atom_site_symmetry_multiplicity
 _atom_site_fract_x
 _atom_site_fract_y
 _atom_site_fract_z
 _atom_site_occupancy
  Li  Li0  1  0.31067300  0.64310000  0.00471000  1
  Li  Li1  1  0.35690000  0.66757300  0.33804300  1
  Li  Li2  1  0.33242700  0.68932700  0.67137600  1
  Fe  Fe0  1  0.64954800  0.31330000  0.82883000  1
  Fe  Fe1  1  0.68670000  0.33624800  0.16216400  1
  Fe  Fe2  1  0.66375200  0.35045200  0.49549700  1
  Fe  Fe3  1  0.00239200  0.01906000  0.16210200  1
  Fe  Fe4  1  0.98094000  0.98333300  0.49543600  1
  Fe  Fe5  1  0.01666700  0.99760800  0.82876900  1
  O  O0  1  0.33236000  0.01680500  0.75980500  1
  O  O1  1  0.68444500  0.66764000  0.42647200  1
  O  O2  1  0.98319500  0.31555500  0.09313800  1
  F  F0  1  0.34516100  0.31042800  0.24359300  1
  F  F1  1  0.33357700  0.31896000  0.91240800  1
  F  F2  1  0.31941500  0.30062000  0.57551900  1
  F  F3  1  0.33259300  0.01379800  0.42384100  1
  F  F4  1  0.33367100  0.01650300  0.08938500  1
  F  F5  1  0.69938000  0.01879500  0.90885200  1
  F  F6  1  0.68957200  0.03473300  0.57692600  1
  F  F7  1  0.68104000  0.01461800  0.24574200  1
  F  F8  1  0.68120500  0.66740700  0.09050700  1
  F  F9  1  0.68283200  0.66632900  0.75605100  1
  F  F10  1  0.98620200  0.31879500  0.75717400  1
  F  F11  1  0.98349700  0.31716800  0.42271800  1
  F  F12  1  0.96526700  0.65483900  0.91026000  1
  F  F13  1  0.98120500  0.68058500  0.24218500  1
  F  F14  1  0.98538200  0.66642300  0.57907500  1
loop_
_geom_bond_atom_site_label_1
_geom_bond_atom_site_label_2
_geom_bond_distance
_geom_bond_site_symmetry_2
Li0 O2 2.097317 1_455
Li1 O1 2.097325 1_555
Li2 O0 2.097325 1_565
Fe0 O0 1.863935 1_555
Fe1 O2 1.863942 1_555
Fe2 O1 1.863935 1_555
Fe3 O2 1.859824 1_455
Fe4 O1 1.859826 1_555
Fe5 O0 1.859828 1_565
F0 Fe3 2.011740 1_555
F0 Fe1 2.051431 1_555
F0 Li1 2.246996 1_555
F1 Fe0 2.022046 1_555
F1 Fe5 2.023877 1_545
F1 Li0 2.165069 1_556
F2 Fe2 2.009971 1_555
F2 Fe4 2.037047 1_445
F2 Li2 2.391384 1_555
F3 Fe2 2.002202 1_555
F3 Fe4 2.017794 1_445
F3 Li1 2.214020 1_545
F4 Fe3 2.003165 1_555
F4 Fe1 2.026515 1_555
F4 Li0 2.221216 1_545
F5 Fe0 2.009971 1_555
F5 Fe5 2.037045 1_645
F5 Li0 2.391391 1_546
F6 Fe4 2.011730 1_545
F6 Fe2 2.051431 1_555
F6 Li2 2.246996 1_545
F7 Fe1 2.022041 1_555
F7 Fe3 2.023885 1_655
F7 Li1 2.165063 1_545
F8 Fe1 2.002209 1_555
F8 Fe3 2.017792 1_665
F8 Li0 2.214013 1_555
F9 Fe5 2.003170 1_655
F9 Fe0 2.026515 1_555
F9 Li2 2.221216 1_555
F10 Fe0 2.002202 1_555
F10 Fe5 2.017790 1_645
F10 Li2 2.214020 1_655
F11 Fe4 2.003168 1_545
F11 Fe2 2.026515 1_555
F11 Li1 2.221216 1_655
F12 Fe5 2.011742 1_655
F12 Fe0 2.051438 1_555
F12 Li0 2.246996 1_656
F13 Fe1 2.009963 1_555
F13 Fe3 2.037049 1_665
F13 Li1 2.391391 1_655
F14 Fe2 2.022043 1_555
F14 Fe4 2.023878 1_555
F14 Li2 2.165065 1_655
