# generated using pymatgen
data_Li3Fe5O12
_symmetry_space_group_name_H-M   'P 1'
_cell_length_a   5.02715300
_cell_length_b   5.07229020
_cell_length_c   18.52707508
_cell_angle_alpha   93.65448032
_cell_angle_beta   92.61053331
_cell_angle_gamma   113.99046347
_symmetry_Int_Tables_number   1
_chemical_formula_structural   Li3Fe5O12
_chemical_formula_sum   'Li6 Fe10 O24'
_cell_volume   429.41112933
_cell_formula_units_Z   2
loop_
 _symmetry_equiv_pos_site_id
 _symmetry_equiv_pos_as_xyz
  1  'x, y, z'
loop_
 _atom_site_type_symbol
 _atom_site_label
 _atom_site_symmetry_multiplicity
 _atom_site_fract_x
 _atom_site_fract_y
 _atom_site_fract_z
 _atom_site_occupancy
  Li  Li0  1  0.67939500  0.19453500  0.10656200  1
  Li  Li1  1  0.69159900  0.18206600  0.60620200  1
  Li  Li2  1  0.82997900  0.61945000  0.74238500  1
  Li  Li3  1  0.14569800  0.35038800  0.24860600  1
  Li  Li4  1  0.06684000  0.92684200  0.12464900  1
  Li  Li5  1  0.07973700  0.93768600  0.62402500  1
  Fe  Fe0  1  0.92854800  0.05866200  0.37792600  1
  Fe  Fe1  1  0.01829600  0.53438500  0.00406400  1
  Fe  Fe2  1  0.93710800  0.07269800  0.87726200  1
  Fe  Fe3  1  0.01768600  0.52334200  0.50484700  1
  Fe  Fe4  1  0.48633700  0.99977100  0.24663200  1
  Fe  Fe5  1  0.48430400  0.99551200  0.74740200  1
  Fe  Fe6  1  0.57691900  0.42911600  0.37814800  1
  Fe  Fe7  1  0.57159900  0.42899300  0.87773400  1
  Fe  Fe8  1  0.43185400  0.58316200  0.12418300  1
  Fe  Fe9  1  0.42485700  0.56962500  0.62470000  1
  O  O0  1  0.81152700  0.29037600  0.30770600  1
  O  O1  1  0.70357800  0.20192700  0.44432600  1
  O  O2  1  0.91116400  0.73898100  0.43257100  1
  O  O3  1  0.80264400  0.30525100  0.80836900  1
  O  O4  1  0.73023300  0.56514600  0.07148800  1
  O  O5  1  0.70762000  0.20623100  0.94465400  1
  O  O6  1  0.90487900  0.74442000  0.93297400  1
  O  O7  1  0.73759700  0.55832300  0.56886600  1
  O  O8  1  0.72405600  0.92848600  0.17928600  1
  O  O9  1  0.42068800  0.27546300  0.18114700  1
  O  O10  1  0.59603400  0.74826200  0.32417300  1
  O  O11  1  0.72342000  0.90073000  0.68037800  1
  O  O12  1  0.47394400  0.29183600  0.68148400  1
  O  O13  1  0.25934100  0.10797800  0.31660300  1
  O  O14  1  0.62266200  0.75678100  0.81998800  1
  O  O15  1  0.26045100  0.09308400  0.82007500  1
  O  O16  1  0.33308900  0.82121600  0.05834900  1
  O  O17  1  0.23551600  0.38406000  0.43090900  1
  O  O18  1  0.09177800  0.29464100  0.07070600  1
  O  O19  1  0.19564400  0.68265200  0.19534500  1
  O  O20  1  0.33770700  0.81260600  0.55855300  1
  O  O21  1  0.24503200  0.40221600  0.92929400  1
  O  O22  1  0.09177000  0.28179800  0.57242200  1
  O  O23  1  0.18999400  0.69239100  0.69610400  1
loop_
_geom_bond_atom_site_label_1
_geom_bond_atom_site_label_2
_geom_bond_distance
_geom_bond_site_symmetry_2
Li0 O4 1.949764 1_555
Li0 O8 2.034082 1_545
Li0 O9 2.072431 1_555
Li0 O18 2.075907 1_655
Li0 O16 2.091989 1_545
Li1 O12 1.997002 1_555
Li1 O7 1.999567 1_555
Li1 O22 2.005522 1_655
Li1 O11 2.089539 1_545
Li1 O20 2.095534 1_545
Li2 O23 1.945500 1_655
Li2 O3 2.034418 1_555
Li2 O14 2.058582 1_555
Li2 O12 2.096780 1_555
Li2 O11 2.101587 1_555
Li3 O19 1.941030 1_555
Li3 O0 1.976855 1_455
Li3 O13 2.031850 1_555
Li3 O9 2.035095 1_555
Li3 O8 2.536742 1_445
Li3 O10 2.606543 1_555
Li4 O8 2.040532 1_455
Li4 O16 2.058250 1_555
Li4 O4 2.071887 1_455
Li4 O9 2.103198 1_565
Li4 O19 2.109667 1_555
Li4 O18 2.133972 1_565
Li5 O22 2.023952 1_565
Li5 O11 2.063025 1_455
Li5 O20 2.066393 1_555
Li5 O23 2.084174 1_555
Li5 O7 2.145529 1_455
Li5 O12 2.226359 1_565
Fe0 O17 1.911404 1_655
Fe0 O2 1.940110 1_545
Fe0 O10 1.942483 1_545
Fe0 O13 1.997209 1_655
Fe0 O1 2.000399 1_555
Fe0 O0 2.026679 1_555
Fe1 O16 1.851709 1_555
Fe1 O18 1.911759 1_555
Fe1 O6 1.949157 1_454
Fe1 O5 1.979202 1_454
Fe1 O4 2.001386 1_455
Fe1 O21 2.077128 1_554
Fe2 O21 1.916742 1_655
Fe2 O14 1.939896 1_545
Fe2 O15 1.951833 1_655
Fe2 O6 1.969576 1_545
Fe2 O5 2.001870 1_555
Fe2 O3 2.058937 1_555
Fe3 O20 1.865382 1_555
Fe3 O22 1.931659 1_555
Fe3 O7 1.936323 1_455
Fe3 O2 1.968222 1_455
Fe3 O1 1.980129 1_455
Fe3 O17 2.053572 1_555
Fe4 O19 1.842008 1_555
Fe4 O8 1.882920 1_555
Fe4 O0 1.945504 1_565
Fe4 O13 1.958918 1_565
Fe4 O9 2.022737 1_565
Fe4 O10 2.174621 1_555
Fe5 O23 1.814409 1_555
Fe5 O11 1.935945 1_555
Fe5 O15 1.957076 1_565
Fe5 O3 1.967193 1_565
Fe5 O12 2.011269 1_565
Fe5 O14 2.136791 1_555
Fe6 O10 1.928308 1_555
Fe6 O2 1.951021 1_555
Fe6 O17 1.953390 1_555
Fe6 O1 1.985531 1_555
Fe6 O13 1.996259 1_555
Fe6 O0 2.070638 1_555
Fe7 O21 1.898480 1_555
Fe7 O6 1.967135 1_555
Fe7 O14 1.969665 1_555
Fe7 O15 1.984806 1_555
Fe7 O5 2.002775 1_555
Fe7 O3 2.005132 1_555
Fe8 O4 1.856061 1_555
Fe8 O18 1.916372 1_555
Fe8 O9 1.922761 1_555
Fe8 O8 1.952241 1_555
Fe8 O16 1.952515 1_555
Fe8 O19 1.986973 1_555
Fe9 O22 1.886137 1_555
Fe9 O12 1.897657 1_555
Fe9 O11 1.930227 1_555
Fe9 O7 1.938819 1_555
Fe9 O20 1.948210 1_555
Fe9 O23 2.041325 1_555
