# generated using pymatgen
data_In2Pt2O7
_symmetry_space_group_name_H-M   'P 1'
_cell_length_a   7.07894606
_cell_length_b   7.07894606
_cell_length_c   7.07894606
_cell_angle_alpha   60.00000000
_cell_angle_beta   60.00000000
_cell_angle_gamma   60.00000000
_symmetry_Int_Tables_number   1
_chemical_formula_structural   In2Pt2O7
_chemical_formula_sum   'In4 Pt4 O14'
_cell_volume   250.83654535
_cell_formula_units_Z   2
loop_
 _symmetry_equiv_pos_site_id
 _symmetry_equiv_pos_as_xyz
  1  'x, y, z'
loop_
 _atom_site_type_symbol
 _atom_site_label
 _atom_site_symmetry_multiplicity
 _atom_site_fract_x
 _atom_site_fract_y
 _atom_site_fract_z
 _atom_site_occupancy
  In  In0  1  0.12500000  0.12500000  0.12500000  1
  In  In1  1  0.62500000  0.12500000  0.12500000  1
  In  In2  1  0.12500000  0.62500000  0.12500000  1
  In  In3  1  0.12500000  0.12500000  0.62500000  1
  Pt  Pt0  1  0.62500000  0.62500000  0.12500000  1
  Pt  Pt1  1  0.62500000  0.12500000  0.62500000  1
  Pt  Pt2  1  0.12500000  0.62500000  0.62500000  1
  Pt  Pt3  1  0.62500000  0.62500000  0.62500000  1
  O  O0  1  0.25000000  0.25000000  0.25000000  1
  O  O1  1  0.71792197  0.28207803  0.28207803  1
  O  O2  1  0.71792197  0.28207803  0.71792197  1
  O  O3  1  0.28207803  0.71792197  0.28207803  1
  O  O4  1  0.71792197  0.71792197  0.28207803  1
  O  O5  1  0.28207803  0.28207803  0.71792197  1
  O  O6  1  0.96792197  0.53207803  0.53207803  1
  O  O7  1  0.28207803  0.71792197  0.71792197  1
  O  O8  1  0.96792197  0.96792197  0.53207803  1
  O  O9  1  0.53207803  0.96792197  0.53207803  1
  O  O10  1  0.53207803  0.53207803  0.96792197  1
  O  O11  1  0.96792197  0.53207803  0.96792197  1
  O  O12  1  0.53207803  0.96792197  0.96792197  1
  O  O13  1  -0.00000000  -0.00000000  -0.00000000  1
loop_
_geom_bond_atom_site_label_1
_geom_bond_atom_site_label_2
_geom_bond_distance
_geom_bond_site_symmetry_2
In0 O0 2.167476 1_555
In0 O13 2.167476 1_555
In0 O5 2.367450 1_554
In0 O8 2.367450 1_445
In0 O12 2.367450 1_544
In0 O1 2.367450 1_455
In0 O3 2.367450 1_545
In0 O11 2.367450 1_454
In1 O0 2.167476 1_555
In1 O13 2.167476 1_655
In1 O4 2.367450 1_545
In1 O12 2.367450 1_544
In1 O1 2.367450 1_555
In1 O10 2.367450 1_554
In1 O2 2.367450 1_554
In1 O9 2.367450 1_545
In2 O0 2.167476 1_555
In2 O13 2.167476 1_565
In2 O6 2.367450 1_455
In2 O3 2.367450 1_555
In2 O7 2.367450 1_554
In2 O11 2.367450 1_454
In2 O10 2.367450 1_554
In2 O4 2.367450 1_455
In3 O0 2.167476 1_555
In3 O13 2.167476 1_556
In3 O5 2.367450 1_555
In3 O7 2.367450 1_545
In3 O8 2.367450 1_445
In3 O6 2.367450 1_455
In3 O2 2.367450 1_455
In3 O9 2.367450 1_545
O1 Pt0 1.999335 1_555
O1 Pt1 1.999335 1_555
O2 Pt1 1.999335 1_555
O2 Pt3 1.999335 1_555
O3 Pt2 1.999335 1_555
O3 Pt0 1.999335 1_555
O4 Pt0 1.999335 1_555
O4 Pt3 1.999335 1_555
O5 Pt1 1.999335 1_555
O5 Pt2 1.999335 1_555
O6 Pt2 1.999335 1_655
O6 Pt3 1.999335 1_555
O7 Pt2 1.999335 1_555
O7 Pt3 1.999335 1_555
O8 Pt2 1.999335 1_655
O8 Pt1 1.999335 1_565
O9 Pt1 1.999335 1_565
O9 Pt3 1.999335 1_555
O10 Pt3 1.999335 1_555
O10 Pt0 1.999335 1_556
O11 Pt2 1.999335 1_655
O11 Pt0 1.999335 1_556
O12 Pt1 1.999335 1_565
O12 Pt0 1.999335 1_556
