# generated using pymatgen
data_Li4Nb3V2Fe3O16
_symmetry_space_group_name_H-M   'P 1'
_cell_length_a   6.10550900
_cell_length_b   6.13749184
_cell_length_c   9.82262957
_cell_angle_alpha   90.21872185
_cell_angle_beta   91.07907097
_cell_angle_gamma   119.75735778
_symmetry_Int_Tables_number   1
_chemical_formula_structural   Li4Nb3V2Fe3O16
_chemical_formula_sum   'Li4 Nb3 V2 Fe3 O16'
_cell_volume   319.44853207
_cell_formula_units_Z   1
loop_
 _symmetry_equiv_pos_site_id
 _symmetry_equiv_pos_as_xyz
  1  'x, y, z'
loop_
 _atom_site_type_symbol
 _atom_site_label
 _atom_site_symmetry_multiplicity
 _atom_site_fract_x
 _atom_site_fract_y
 _atom_site_fract_z
 _atom_site_occupancy
  Li  Li0  1  0.66131800  0.32878800  0.90410200  1
  Li  Li1  1  0.98308600  0.98968300  0.00165400  1
  Li  Li2  1  0.96761200  0.98447600  0.48767500  1
  Li  Li3  1  0.32539400  0.66042400  0.38336100  1
  Nb  Nb0  1  0.34121300  0.17106900  0.21350800  1
  Nb  Nb1  1  0.17891900  0.34142200  0.71329700  1
  Nb  Nb2  1  0.17705000  0.83671600  0.71338500  1
  V  V0  1  0.68980700  0.34379000  0.47552200  1
  V  V1  1  0.34670100  0.68161300  0.99812200  1
  Fe  Fe0  1  0.83162800  0.16942400  0.21268100  1
  Fe  Fe1  1  0.82321300  0.65702800  0.21311000  1
  Fe  Fe2  1  0.66401100  0.83387000  0.71510200  1
  O  O0  1  0.85334500  0.17952900  0.60188200  1
  O  O1  1  0.95536000  0.46921700  0.34256600  1
  O  O2  1  0.65114600  0.31269700  0.10100400  1
  O  O3  1  0.00788800  0.01300100  0.30765700  1
  O  O4  1  0.02372300  0.01495800  0.81617100  1
  O  O5  1  0.86001100  0.68245900  0.60070000  1
  O  O6  1  0.51541400  0.03475200  0.33854000  1
  O  O7  1  0.49944600  0.45744700  0.35344600  1
  O  O8  1  0.66971500  0.84063200  0.09627000  1
  O  O9  1  0.32870700  0.16427800  0.60456000  1
  O  O10  1  0.46844400  0.51110500  0.84141900  1
  O  O11  1  0.47029900  0.96347100  0.84031400  1
  O  O12  1  0.31009200  0.65361400  0.59924800  1
  O  O13  1  0.17341200  0.33181900  0.10201700  1
  O  O14  1  0.04159500  0.52291800  0.83401300  1
  O  O15  1  0.18145200  0.84950000  0.09651400  1
loop_
_geom_bond_atom_site_label_1
_geom_bond_atom_site_label_2
_geom_bond_distance
_geom_bond_site_symmetry_2
Li0 O2 1.937583 1_556
Li0 O11 2.036159 1_545
Li0 O10 2.074581 1_555
Li0 O14 2.145858 1_655
Li1 O4 1.840117 1_664
Li1 O8 1.922842 1_555
Li1 O15 2.018230 1_655
Li1 O13 2.061660 1_665
Li2 O3 1.787130 1_665
Li2 O5 1.983544 1_555
Li2 O0 2.006641 1_565
Li2 O9 2.208270 1_665
Li3 O1 1.993095 1_455
Li3 O7 2.022538 1_555
Li3 O6 2.049183 1_565
Li3 O12 2.124050 1_555
Nb0 O2 2.002723 1_555
Nb0 O3 2.013952 1_555
Nb0 O7 2.039122 1_555
Nb0 O6 2.044866 1_555
Nb0 O13 2.047358 1_555
Nb0 O15 2.048602 1_545
Nb1 O10 1.967722 1_555
Nb1 O0 2.021250 1_455
Nb1 O12 2.023523 1_555
Nb1 O4 2.024976 1_555
Nb1 O9 2.043071 1_555
Nb1 O14 2.074673 1_555
Nb2 O11 1.972610 1_555
Nb2 O5 1.990102 1_455
Nb2 O12 2.027425 1_555
Nb2 O4 2.033764 1_565
Nb2 O9 2.060970 1_565
Nb2 O14 2.066488 1_555
Fe0 O3 1.986133 1_655
Fe0 O2 2.028426 1_555
Fe0 O1 2.037128 1_555
Fe0 O8 2.077618 1_545
Fe0 O6 2.110114 1_555
Fe0 O13 2.135111 1_655
Fe1 O3 2.099245 1_665
Fe1 O8 2.117308 1_555
Fe1 O1 2.119518 1_555
Fe1 O2 2.125373 1_555
Fe1 O7 2.240564 1_555
Fe1 O15 2.242987 1_655
Fe2 O11 2.127288 1_555
Fe2 O4 2.128542 1_665
Fe2 O10 2.148498 1_555
Fe2 O5 2.169088 1_555
Fe2 O0 2.169292 1_565
Fe2 O12 2.170943 1_555
O0 V0 2.125085 1_555
O1 V0 1.943036 1_555
O5 V0 2.168052 1_555
O6 V0 2.112705 1_555
O7 V0 2.008477 1_555
O8 V1 1.944724 1_554
O9 V0 2.320736 1_555
O10 V1 2.195412 1_555
O11 V1 2.175657 1_555
O13 V1 2.138347 1_554
O14 V1 2.256353 1_555
O15 V1 2.018620 1_554
