# generated using pymatgen
data_MgH20C4Br2(N4O3)2
_symmetry_space_group_name_H-M   'P 1'
_cell_length_a   11.84871600
_cell_length_b   9.89966400
_cell_length_c   10.79176593
_cell_angle_alpha   69.68091252
_cell_angle_beta   90.00000000
_cell_angle_gamma   90.00000000
_symmetry_Int_Tables_number   1
_chemical_formula_structural   MgH20C4Br2(N4O3)2
_chemical_formula_sum   'Mg2 H40 C8 Br4 N16 O12'
_cell_volume   1187.08584779
_cell_formula_units_Z   2
loop_
 _symmetry_equiv_pos_site_id
 _symmetry_equiv_pos_as_xyz
  1  'x, y, z'
loop_
 _atom_site_type_symbol
 _atom_site_label
 _atom_site_symmetry_multiplicity
 _atom_site_fract_x
 _atom_site_fract_y
 _atom_site_fract_z
 _atom_site_occupancy
  Mg  Mg0  1  0.50000000  0.50000000  0.50000000  1
  Mg  Mg1  1  0.00000000  0.00000000  0.50000000  1
  H  H0  1  0.70976000  0.10994300  0.06567400  1
  H  H1  1  0.20976000  0.39005700  0.93432600  1
  H  H2  1  0.29024000  0.89005700  0.93432600  1
  H  H3  1  0.79024000  0.60994300  0.06567400  1
  H  H4  1  0.78527000  0.92761600  0.57671900  1
  H  H5  1  0.28527000  0.57238400  0.42328100  1
  H  H6  1  0.21473000  0.07238400  0.42328100  1
  H  H7  1  0.71473000  0.42761600  0.57671900  1
  H  H8  1  0.68350100  0.91698200  0.92406300  1
  H  H9  1  0.18350100  0.58301800  0.07593700  1
  H  H10  1  0.31649900  0.08301800  0.07593700  1
  H  H11  1  0.81649900  0.41698200  0.92406300  1
  H  H12  1  0.56710300  0.55961500  0.07710400  1
  H  H13  1  0.06710300  0.94038500  0.92289600  1
  H  H14  1  0.43289700  0.44038500  0.92289600  1
  H  H15  1  0.93289700  0.05961500  0.07710400  1
  H  H16  1  0.41436600  0.86547400  0.00046300  1
  H  H17  1  0.91436600  0.63452600  0.99953700  1
  H  H18  1  0.58563400  0.13452600  0.99953700  1
  H  H19  1  0.08563400  0.36547400  0.00046300  1
  H  H20  1  0.39337300  0.56742900  0.97975400  1
  H  H21  1  0.89337300  0.93257100  0.02024600  1
  H  H22  1  0.60662700  0.43257100  0.02024600  1
  H  H23  1  0.10662700  0.06742900  0.97975400  1
  H  H24  1  0.87305300  0.44148000  0.45281000  1
  H  H25  1  0.37305300  0.05852000  0.54719000  1
  H  H26  1  0.12694700  0.55852000  0.54719000  1
  H  H27  1  0.62694700  0.94148000  0.45281000  1
  H  H28  1  0.59687100  0.88043300  0.50395600  1
  H  H29  1  0.09687100  0.61956700  0.49604400  1
  H  H30  1  0.40312900  0.11956700  0.49604400  1
  H  H31  1  0.90312900  0.38043300  0.50395600  1
  H  H32  1  0.75923700  0.47858300  0.73376000  1
  H  H33  1  0.25923700  0.02141700  0.26624000  1
  H  H34  1  0.24076300  0.52141700  0.26624000  1
  H  H35  1  0.74076300  0.97858300  0.73376000  1
  H  H36  1  0.64652700  0.28508900  0.64054900  1
  H  H37  1  0.14652700  0.21491100  0.35945100  1
  H  H38  1  0.35347300  0.71491100  0.35945100  1
  H  H39  1  0.85347300  0.78508900  0.64054900  1
  C  C0  1  0.61160000  0.73150800  0.29091500  1
  C  C1  1  0.11160000  0.76849200  0.70908500  1
  C  C2  1  0.38840000  0.26849200  0.70908500  1
  C  C3  1  0.88840000  0.23150800  0.29091500  1
  C  C4  1  0.47307600  0.67721100  0.70943100  1
  C  C5  1  0.97307600  0.82278900  0.29056900  1
  C  C6  1  0.52692400  0.32278900  0.29056900  1
  C  C7  1  0.02692400  0.17721100  0.70943100  1
  Br  Br0  1  0.21240700  0.43742700  0.16050700  1
  Br  Br1  1  0.71240700  0.06257300  0.83949300  1
  Br  Br2  1  0.78759300  0.56257300  0.83949300  1
  Br  Br3  1  0.28759300  0.93742700  0.16050700  1
  N  N0  1  0.59028700  0.85505700  0.19374700  1
  N  N1  1  0.09028700  0.64494300  0.80625300  1
  N  N2  1  0.40971300  0.14494300  0.80625300  1
  N  N3  1  0.90971300  0.35505700  0.19374700  1
  N  N4  1  0.64797100  0.72074200  0.17789800  1
  N  N5  1  0.14797100  0.77925800  0.82210200  1
  N  N6  1  0.35202900  0.27925800  0.82210200  1
  N  N7  1  0.85202900  0.22074200  0.17789800  1
  N  N8  1  0.46120400  0.52675200  0.94602200  1
  N  N9  1  0.96120400  0.97324800  0.05397800  1
  N  N10  1  0.53879600  0.47324800  0.05397800  1
  N  N11  1  0.03879600  0.02675200  0.94602200  1
  N  N12  1  0.16856900  0.33534800  0.02132900  1
  N  N13  1  0.66856900  0.16465200  0.97867100  1
  N  N14  1  0.83143100  0.66465200  0.97867100  1
  N  N15  1  0.33143100  0.83534800  0.02132900  1
  O  O0  1  0.60019200  0.66473000  0.41318700  1
  O  O1  1  0.10019200  0.83527000  0.58681300  1
  O  O2  1  0.39980800  0.33527000  0.58681300  1
  O  O3  1  0.89980800  0.16473000  0.41318700  1
  O  O4  1  0.48327000  0.58588500  0.66504200  1
  O  O5  1  0.98327000  0.91411500  0.33495800  1
  O  O6  1  0.51673000  0.41411500  0.33495800  1
  O  O7  1  0.01673000  0.08588500  0.66504200  1
  O  O8  1  0.64420400  0.37879600  0.56986700  1
  O  O9  1  0.14420400  0.12120400  0.43013300  1
  O  O10  1  0.35579600  0.62120400  0.43013300  1
  O  O11  1  0.85579600  0.87879600  0.56986700  1
loop_
_geom_bond_atom_site_label_1
_geom_bond_atom_site_label_2
_geom_bond_distance
_geom_bond_site_symmetry_2
Mg0 O2 1.971139 1_555
Mg0 O0 1.971139 1_555
Mg0 O10 2.073481 1_555
Mg0 O8 2.073481 1_555
Mg0 O4 2.232979 1_555
Mg0 O6 2.232979 1_555
Mg1 O1 1.971139 1_545
Mg1 O3 1.971139 1_455
Mg1 O9 2.073481 1_555
Mg1 O11 2.073481 1_445
Mg1 O7 2.232979 1_555
Mg1 O5 2.232979 1_445
H0 N13 1.029531 1_554
H1 N12 1.029531 1_556
H2 N15 1.029531 1_556
H3 N14 1.029531 1_554
H4 O11 0.980901 1_555
H5 O10 0.980901 1_555
H6 O9 0.980901 1_555
H7 O8 0.980901 1_555
H12 N10 1.026648 1_555
H13 N11 1.026648 1_565
H14 N8 1.026648 1_555
H15 N9 1.026648 1_545
H16 N15 1.028911 1_555
H17 N14 1.028911 1_555
H18 N13 1.028911 1_555
H19 N12 1.028911 1_555
H20 N8 1.020995 1_555
H21 N9 1.020995 1_555
H22 N10 1.020995 1_555
H23 N11 1.020995 1_555
H24 H31 0.751809 1_555
H25 H30 0.751809 1_555
H26 H29 0.751809 1_555
H27 H28 0.751809 1_555
H36 O8 0.975567 1_555
H37 O9 0.975567 1_555
H38 O10 0.975567 1_555
H39 O11 0.975567 1_555
C0 O0 1.261206 1_555
C0 N0 1.329885 1_555
C0 N4 1.332257 1_555
C1 O1 1.261206 1_555
C1 N1 1.329885 1_555
C1 N5 1.332257 1_555
C2 O2 1.261206 1_555
C2 N2 1.329885 1_555
C2 N6 1.332257 1_555
C3 O3 1.261206 1_555
C3 N3 1.329885 1_555
C3 N7 1.332257 1_555
C4 O4 1.167149 1_555
C5 O5 1.167149 1_555
C6 O6 1.167149 1_555
C7 O7 1.167149 1_555
Br0 H9 1.453978 1_555
Br0 H34 1.662865 1_555
Br1 H8 1.453978 1_545
Br1 H35 1.662865 1_545
Br2 H11 1.453978 1_555
Br2 H32 1.662865 1_555
Br3 H10 1.453978 1_565
Br3 H33 1.662865 1_565
