# generated using pymatgen
data_LiCrPO4
_symmetry_space_group_name_H-M   'P 1'
_cell_length_a   4.94110800
_cell_length_b   7.54898900
_cell_length_c   18.36662987
_cell_angle_alpha   87.04564503
_cell_angle_beta   90.00000000
_cell_angle_gamma   90.00000000
_symmetry_Int_Tables_number   1
_chemical_formula_structural   LiCrPO4
_chemical_formula_sum   'Li8 Cr8 P8 O32'
_cell_volume   684.17155422
_cell_formula_units_Z   8
loop_
 _symmetry_equiv_pos_site_id
 _symmetry_equiv_pos_as_xyz
  1  'x, y, z'
loop_
 _atom_site_type_symbol
 _atom_site_label
 _atom_site_symmetry_multiplicity
 _atom_site_fract_x
 _atom_site_fract_y
 _atom_site_fract_z
 _atom_site_occupancy
  Li  Li0  1  0.75856500  0.01944100  0.59402500  1
  Li  Li1  1  0.74143500  0.01944100  0.09402500  1
  Li  Li2  1  0.33819700  0.49942800  0.82729300  1
  Li  Li3  1  0.16180300  0.49942800  0.32729300  1
  Li  Li4  1  0.83819700  0.50057200  0.67270700  1
  Li  Li5  1  0.66180300  0.50057200  0.17270700  1
  Li  Li6  1  0.25856500  0.98055900  0.90597500  1
  Li  Li7  1  0.24143500  0.98055900  0.40597500  1
  Cr  Cr0  1  0.77998300  0.18217100  0.77490100  1
  Cr  Cr1  1  0.72001700  0.18217100  0.27490100  1
  Cr  Cr2  1  0.23729100  0.36163600  0.51083700  1
  Cr  Cr3  1  0.26270900  0.36163600  0.01083700  1
  Cr  Cr4  1  0.73729100  0.63836400  0.98916300  1
  Cr  Cr5  1  0.76270900  0.63836400  0.48916300  1
  Cr  Cr6  1  0.27998300  0.81782900  0.72509900  1
  Cr  Cr7  1  0.22001700  0.81782900  0.22509900  1
  P  P0  1  0.34568900  0.24228700  0.67899400  1
  P  P1  1  0.15431100  0.24228700  0.17899400  1
  P  P2  1  0.70467600  0.24333000  0.93594700  1
  P  P3  1  0.79532400  0.24333000  0.43594700  1
  P  P4  1  0.20467600  0.75667000  0.56405300  1
  P  P5  1  0.29532400  0.75667000  0.06405300  1
  P  P6  1  0.84568900  0.75771300  0.82100600  1
  P  P7  1  0.65431100  0.75771300  0.32100600  1
  O  O0  1  0.45920300  0.05638800  0.70482200  1
  O  O1  1  0.04079700  0.05638800  0.20482200  1
  O  O2  1  0.61945500  0.16475700  0.01033100  1
  O  O3  1  0.57997300  0.14253300  0.87248500  1
  O  O4  1  0.43779300  0.27149700  0.59946200  1
  O  O5  1  0.03620000  0.26111400  0.68869200  1
  O  O6  1  0.88054500  0.16475700  0.51033100  1
  O  O7  1  0.92002700  0.14253300  0.37248500  1
  O  O8  1  0.06220700  0.27149700  0.09946200  1
  O  O9  1  0.46380000  0.26111400  0.18869200  1
  O  O10  1  0.01665100  0.25923700  0.92740000  1
  O  O11  1  0.48334900  0.25923700  0.42740000  1
  O  O12  1  0.49941600  0.37587900  0.72844800  1
  O  O13  1  0.00058400  0.37587900  0.22844800  1
  O  O14  1  0.55972400  0.43534400  0.92963600  1
  O  O15  1  0.94027600  0.43534400  0.42963600  1
  O  O16  1  0.05972400  0.56465600  0.57036400  1
  O  O17  1  0.44027600  0.56465600  0.07036400  1
  O  O18  1  0.99941600  0.62412100  0.77155200  1
  O  O19  1  0.50058400  0.62412100  0.27155200  1
  O  O20  1  0.51665100  0.74076300  0.57260000  1
  O  O21  1  0.98334900  0.74076300  0.07260000  1
  O  O22  1  0.53620000  0.73888600  0.81130800  1
  O  O23  1  0.93779300  0.72850300  0.90053800  1
  O  O24  1  0.07997300  0.85746700  0.62751500  1
  O  O25  1  0.11945500  0.83524300  0.48966900  1
  O  O26  1  0.96380000  0.73888600  0.31130800  1
  O  O27  1  0.56220700  0.72850300  0.40053800  1
  O  O28  1  0.42002700  0.85746700  0.12751500  1
  O  O29  1  0.38054500  0.83524300  0.98966900  1
  O  O30  1  0.95920300  0.94361200  0.79517800  1
  O  O31  1  0.54079700  0.94361200  0.29517800  1
loop_
_geom_bond_atom_site_label_1
_geom_bond_atom_site_label_2
_geom_bond_distance
_geom_bond_site_symmetry_2
Li0 O6 1.937974 1_555
Li0 O24 2.077982 1_645
Li0 O20 2.468742 1_545
Li0 O4 2.482380 1_555
Li0 O0 2.542708 1_555
Li1 O2 1.937974 1_555
Li1 O28 2.077982 1_545
Li1 O21 2.468742 1_545
Li1 O8 2.482380 1_655
Li1 O1 2.542708 1_655
Li2 O22 2.063085 1_555
Li2 O18 2.153359 1_455
Li2 O14 2.207188 1_555
Li2 O12 2.230435 1_555
Li3 O26 2.063085 1_455
Li3 O19 2.153359 1_555
Li3 O15 2.207188 1_455
Li3 O13 2.230435 1_555
Li4 O5 2.063085 1_655
Li4 O12 2.153359 1_555
Li4 O16 2.207188 1_655
Li4 O18 2.230435 1_555
Li5 O9 2.063085 1_555
Li5 O13 2.153359 1_655
Li5 O17 2.207188 1_555
Li5 O19 2.230435 1_555
Li6 O29 1.937974 1_555
Li6 O3 2.077982 1_565
Li6 O10 2.468742 1_565
Li6 O23 2.482380 1_455
Li6 O30 2.542708 1_455
Li7 O25 1.937974 1_555
Li7 O7 2.077982 1_465
Li7 O11 2.468742 1_565
Li7 O27 2.482380 1_555
Li7 O31 2.542708 1_555
Cr0 O30 2.024085 1_545
Cr0 O3 2.055051 1_555
Cr0 O5 2.089900 1_655
Cr0 O12 2.158588 1_555
Cr0 O0 2.279586 1_555
Cr1 O31 2.024085 1_545
Cr1 O7 2.055051 1_555
Cr1 O9 2.089900 1_555
Cr1 O13 2.158588 1_655
Cr1 O1 2.279586 1_655
Cr2 O4 1.994965 1_555
Cr2 O16 2.118181 1_555
Cr2 O11 2.132192 1_555
Cr2 O15 2.145252 1_455
Cr2 O6 2.305991 1_455
Cr3 O8 1.994965 1_555
Cr3 O17 2.118181 1_555
Cr3 O10 2.132192 1_554
Cr3 O14 2.145252 1_554
Cr3 O2 2.305991 1_555
Cr4 O23 1.994965 1_555
Cr4 O14 2.118181 1_555
Cr4 O21 2.132192 1_556
Cr4 O17 2.145252 1_556
Cr4 O29 2.305991 1_555
Cr5 O27 1.994965 1_555
Cr5 O15 2.118181 1_555
Cr5 O20 2.132192 1_555
Cr5 O16 2.145252 1_655
Cr5 O25 2.305991 1_655
Cr6 O0 2.024085 1_565
Cr6 O24 2.055051 1_555
Cr6 O22 2.089900 1_555
Cr6 O18 2.158588 1_455
Cr6 O30 2.279586 1_455
Cr7 O1 2.024085 1_565
Cr7 O28 2.055051 1_555
Cr7 O26 2.089900 1_455
Cr7 O19 2.158588 1_555
Cr7 O31 2.279586 1_555
O0 P0 1.562175 1_555
O1 P1 1.562175 1_555
O2 P2 1.520547 1_554
O3 P2 1.551988 1_555
O4 P0 1.535018 1_555
O5 P0 1.546947 1_555
O6 P3 1.520547 1_555
O7 P3 1.551988 1_555
O8 P1 1.535018 1_555
O9 P1 1.546947 1_555
O10 P2 1.553495 1_455
O11 P3 1.553495 1_555
O12 P0 1.585384 1_555
O13 P1 1.585384 1_555
O14 P2 1.615604 1_555
O15 P3 1.615604 1_555
O16 P4 1.615604 1_555
O17 P5 1.615604 1_555
O18 P6 1.585384 1_555
O19 P7 1.585384 1_555
O20 P4 1.553495 1_555
O21 P5 1.553495 1_655
O22 P6 1.546947 1_555
O23 P6 1.535018 1_555
O24 P4 1.551988 1_555
O25 P4 1.520547 1_555
O26 P7 1.546947 1_555
O27 P7 1.535018 1_555
O28 P5 1.551988 1_555
O29 P5 1.520547 1_556
O30 P6 1.562175 1_555
O31 P7 1.562175 1_555
