# generated using pymatgen
data_Li5Cr2Cu3O10
_symmetry_space_group_name_H-M   'P 1'
_cell_length_a   5.05218613
_cell_length_b   10.71126008
_cell_length_c   7.62333027
_cell_angle_alpha   110.37154552
_cell_angle_beta   102.62495300
_cell_angle_gamma   78.65769116
_symmetry_Int_Tables_number   1
_chemical_formula_structural   Li5Cr2Cu3O10
_chemical_formula_sum   'Li10 Cr4 Cu6 O20'
_cell_volume   374.09270346
_cell_formula_units_Z   2
loop_
 _symmetry_equiv_pos_site_id
 _symmetry_equiv_pos_as_xyz
  1  'x, y, z'
loop_
 _atom_site_type_symbol
 _atom_site_label
 _atom_site_symmetry_multiplicity
 _atom_site_fract_x
 _atom_site_fract_y
 _atom_site_fract_z
 _atom_site_occupancy
  Li  Li0  1  0.25030500  0.24976200  0.50008600  1
  Li  Li1  1  0.74975500  0.75022400  0.49988300  1
  Li  Li2  1  0.75422100  0.44853300  0.38986900  1
  Li  Li3  1  0.25485400  0.94806300  0.39003100  1
  Li  Li4  1  0.74516800  0.05194100  0.60980100  1
  Li  Li5  1  0.24579400  0.55151400  0.61017200  1
  Li  Li6  1  0.25411600  0.14872400  0.79641700  1
  Li  Li7  1  0.75385800  0.64827800  0.79659300  1
  Li  Li8  1  0.24621700  0.35174300  0.20344500  1
  Li  Li9  1  0.74577800  0.85128000  0.20354900  1
  Cr  Cr0  1  0.77207600  0.33678200  0.69332900  1
  Cr  Cr1  1  0.27149100  0.83640500  0.69363500  1
  Cr  Cr2  1  0.72862300  0.16360200  0.30634400  1
  Cr  Cr3  1  0.22782700  0.66314800  0.30662800  1
  Cu  Cu0  1  0.24975700  0.74993400  0.00006200  1
  Cu  Cu1  1  0.75369200  0.94664200  0.90234700  1
  Cu  Cu2  1  0.74563100  0.55412500  0.09818500  1
  Cu  Cu3  1  0.75021400  0.25005800  0.99994000  1
  Cu  Cu4  1  0.25437700  0.44584700  0.90190600  1
  Cu  Cu5  1  0.24629700  0.05338700  0.09762700  1
  O  O0  1  0.04949800  0.01052500  0.83788700  1
  O  O1  1  0.54938100  0.51010600  0.83666200  1
  O  O2  1  0.45040300  0.48983000  0.16335300  1
  O  O3  1  0.95017700  0.98946200  0.16198500  1
  O  O4  1  0.01579000  0.33400700  0.93480700  1
  O  O5  1  0.51512400  0.83546800  0.93557600  1
  O  O6  1  0.48492800  0.16468400  0.06444400  1
  O  O7  1  0.98428900  0.66590600  0.06512700  1
  O  O8  1  0.96426100  0.16931900  0.55134800  1
  O  O9  1  0.46467000  0.66981500  0.55195100  1
  O  O10  1  0.53544200  0.33017400  0.44807200  1
  O  O11  1  0.03577600  0.83067500  0.44863200  1
  O  O12  1  0.95029300  0.26103500  0.24380200  1
  O  O13  1  0.45090900  0.76034200  0.24346000  1
  O  O14  1  0.54896700  0.23968400  0.75648400  1
  O  O15  1  0.04982600  0.73895300  0.75623300  1
  O  O16  1  0.00973200  0.44156700  0.66677300  1
  O  O17  1  0.51169200  0.94125900  0.66743900  1
  O  O18  1  0.48836300  0.05877700  0.33265300  1
  O  O19  1  0.99042900  0.55841900  0.33346100  1
loop_
_geom_bond_atom_site_label_1
_geom_bond_atom_site_label_2
_geom_bond_distance
_geom_bond_site_symmetry_2
Li0 O10 1.987421 1_555
Li0 O8 1.988640 1_455
Li0 O14 2.214157 1_555
Li0 O12 2.219645 1_455
Li0 O18 2.268472 1_555
Li0 O16 2.277760 1_555
Li1 O9 1.987385 1_555
Li1 O11 1.988553 1_655
Li1 O13 2.214841 1_555
Li1 O15 2.220160 1_655
Li1 O17 2.269148 1_555
Li1 O19 2.277277 1_555
Li2 O19 2.030666 1_555
Li2 O10 2.045246 1_555
Li2 O12 2.096978 1_555
Li2 O2 2.153987 1_555
Li2 O16 2.237985 1_655
Li2 O9 2.583009 1_555
Li3 O18 2.031361 1_565
Li3 O11 2.039667 1_555
Li3 O13 2.099725 1_555
Li3 O3 2.164893 1_455
Li3 O17 2.243184 1_555
Li3 O8 2.583773 1_465
Li4 O17 2.032054 1_545
Li4 O8 2.039012 1_555
Li4 O14 2.100438 1_555
Li4 O0 2.164307 1_655
Li4 O18 2.241568 1_555
Li4 O11 2.583562 1_645
Li5 O16 2.031415 1_555
Li5 O9 2.045171 1_555
Li5 O15 2.096324 1_555
Li5 O1 2.153675 1_555
Li5 O19 2.236335 1_455
Li5 O10 2.583685 1_555
Li6 O14 2.058291 1_555
Li6 O6 2.087489 1_556
Li6 O0 2.104865 1_555
Li6 O8 2.155779 1_455
Li6 O4 2.158504 1_555
Li6 O17 2.345011 1_545
Li7 O15 2.062586 1_655
Li7 O7 2.087401 1_556
Li7 O1 2.098802 1_555
Li7 O9 2.154496 1_555
Li7 O5 2.173909 1_555
Li7 O16 2.336834 1_655
Li8 O12 2.062622 1_455
Li8 O4 2.087886 1_554
Li8 O2 2.097139 1_555
Li8 O10 2.154592 1_555
Li8 O6 2.172990 1_555
Li8 O19 2.336697 1_455
Li9 O13 2.058132 1_555
Li9 O5 2.087097 1_554
Li9 O3 2.104338 1_555
Li9 O11 2.156228 1_655
Li9 O7 2.159651 1_555
Li9 O18 2.345077 1_565
Cr0 O16 1.880660 1_655
Cr0 O14 1.905518 1_555
Cr0 O8 1.937635 1_555
Cr0 O10 1.973324 1_555
Cr0 O4 1.984594 1_655
Cr0 O1 2.051811 1_555
Cr1 O17 1.890013 1_555
Cr1 O15 1.900446 1_555
Cr1 O9 1.933176 1_555
Cr1 O11 1.971558 1_555
Cr1 O5 1.983076 1_555
Cr1 O0 2.057678 1_565
Cr2 O18 1.890401 1_555
Cr2 O12 1.900068 1_555
Cr2 O10 1.933175 1_555
Cr2 O8 1.971433 1_555
Cr2 O6 1.983279 1_555
Cr2 O3 2.057013 1_545
Cr3 O19 1.880150 1_455
Cr3 O13 1.906244 1_555
Cr3 O11 1.937831 1_555
Cr3 O9 1.974047 1_555
Cr3 O7 1.984326 1_455
Cr3 O2 2.051330 1_555
Cu0 O15 1.887587 1_554
Cu0 O13 1.887949 1_555
Cu0 O7 1.982762 1_455
Cu0 O5 1.990803 1_554
Cu1 O17 1.924524 1_555
Cu1 O3 1.949766 1_556
Cu1 O5 1.960347 1_555
Cu1 O0 1.974965 1_665
Cu1 O15 2.474300 1_655
Cu1 O6 2.510405 1_566
Cu2 O19 1.934922 1_555
Cu2 O1 1.960981 1_554
Cu2 O7 1.965107 1_555
Cu2 O2 1.977866 1_555
Cu2 O13 2.458995 1_555
Cu2 O4 2.531003 1_654
Cu3 O12 1.888056 1_556
Cu3 O14 1.888548 1_555
Cu3 O4 1.982927 1_655
Cu3 O6 1.989382 1_556
Cu4 O16 1.933757 1_555
Cu4 O2 1.960136 1_556
Cu4 O4 1.964756 1_555
Cu4 O1 1.976959 1_555
Cu4 O14 2.458587 1_555
Cu4 O7 2.530081 1_456
Cu5 O18 1.925360 1_555
Cu5 O0 1.950927 1_554
Cu5 O6 1.961442 1_555
Cu5 O3 1.976207 1_445
Cu5 O12 2.473806 1_455
Cu5 O5 2.509593 1_544
