# generated using pymatgen
data_Na2Sn2O3
_symmetry_space_group_name_H-M   'P 1'
_cell_length_a   6.80735285
_cell_length_b   6.80735285
_cell_length_c   6.80735285
_cell_angle_alpha   109.47122063
_cell_angle_beta   109.47122063
_cell_angle_gamma   109.47122063
_symmetry_Int_Tables_number   1
_chemical_formula_structural   Na2Sn2O3
_chemical_formula_sum   'Na4 Sn4 O6'
_cell_volume   242.83590234
_cell_formula_units_Z   2
loop_
 _symmetry_equiv_pos_site_id
 _symmetry_equiv_pos_as_xyz
  1  'x, y, z'
loop_
 _atom_site_type_symbol
 _atom_site_label
 _atom_site_symmetry_multiplicity
 _atom_site_fract_x
 _atom_site_fract_y
 _atom_site_fract_z
 _atom_site_occupancy
  Na  Na0  1  0.50000000  0.00000000  0.45015900  1
  Na  Na1  1  0.04984100  0.04984100  0.04984100  1
  Na  Na2  1  0.45015900  0.50000000  0.00000000  1
  Na  Na3  1  0.00000000  0.45015900  0.50000000  1
  Sn  Sn0  1  0.97108900  0.50000000  0.00000000  1
  Sn  Sn1  1  0.50000000  0.00000000  0.97108900  1
  Sn  Sn2  1  0.52891100  0.52891100  0.52891100  1
  Sn  Sn3  1  0.00000000  0.97108900  0.50000000  1
  O  O0  1  0.54744300  0.29744300  0.25000000  1
  O  O1  1  0.95255700  0.20255700  0.75000000  1
  O  O2  1  0.75000000  0.95255700  0.20255700  1
  O  O3  1  0.29744300  0.25000000  0.54744300  1
  O  O4  1  0.25000000  0.54744300  0.29744300  1
  O  O5  1  0.20255700  0.75000000  0.95255700  1
loop_
_geom_bond_atom_site_label_1
_geom_bond_atom_site_label_2
_geom_bond_distance
_geom_bond_site_symmetry_2
Na0 O1 2.580301 1_555
Na0 O3 2.580301 1_555
Na0 O4 2.580301 1_545
Na0 O0 2.785201 1_555
Na0 O2 2.785201 1_545
Na0 O5 2.785201 1_544
Na1 O5 2.580301 1_544
Na1 O2 2.580301 1_445
Na1 O1 2.580301 1_454
Na1 O0 2.785201 1_555
Na1 O3 2.785201 1_555
Na1 O4 2.785201 1_555
Na2 O3 2.580301 1_554
Na2 O0 2.580301 1_555
Na2 O2 2.580301 1_555
Na2 O5 2.785201 1_554
Na2 O4 2.785201 1_555
Na2 O1 2.785201 1_454
Na3 O5 2.580301 1_555
Na3 O0 2.580301 1_455
Na3 O4 2.580301 1_555
Na3 O3 2.785201 1_555
Na3 O1 2.785201 1_455
Na3 O2 2.785201 1_445
O0 Sn2 2.097929 1_555
O0 Sn1 2.097929 1_554
O1 Sn3 2.097929 1_645
O1 Sn0 2.097929 1_556
O2 Sn1 2.097929 1_564
O2 Sn3 2.097929 1_655
O3 Sn2 2.097929 1_555
O3 Sn3 2.097929 1_545
O4 Sn0 2.097929 1_455
O4 Sn2 2.097929 1_555
O5 Sn0 2.097929 1_456
O5 Sn1 2.097929 1_565
