# generated using pymatgen
data_Li4V2Fe3Ni3O16
_symmetry_space_group_name_H-M   'P 1'
_cell_length_a   5.85884663
_cell_length_b   5.85884663
_cell_length_c   9.49299896
_cell_angle_alpha   87.84873206
_cell_angle_beta   87.84873206
_cell_angle_gamma   59.96756428
_symmetry_Int_Tables_number   1
_chemical_formula_structural   Li4V2Fe3Ni3O16
_chemical_formula_sum   'Li4 V2 Fe3 Ni3 O16'
_cell_volume   281.84352336
_cell_formula_units_Z   1
loop_
 _symmetry_equiv_pos_site_id
 _symmetry_equiv_pos_as_xyz
  1  'x, y, z'
loop_
 _atom_site_type_symbol
 _atom_site_label
 _atom_site_symmetry_multiplicity
 _atom_site_fract_x
 _atom_site_fract_y
 _atom_site_fract_z
 _atom_site_occupancy
  Li  Li0  1  0.67076900  0.67076900  0.89804600  1
  Li  Li1  1  0.99660000  0.99660000  0.99008800  1
  Li  Li2  1  0.00273000  0.00273000  0.49375400  1
  Li  Li3  1  0.33366600  0.33366600  0.40424500  1
  V  V0  1  0.67496900  0.67496900  0.49260100  1
  V  V1  1  0.35007500  0.35007500  0.98969400  1
  Fe  Fe0  1  0.83448500  0.34433000  0.21655000  1
  Fe  Fe1  1  0.34433000  0.83448500  0.21655000  1
  Fe  Fe2  1  0.17012300  0.17012300  0.71891000  1
  Ni  Ni0  1  0.82894600  0.82894600  0.21446500  1
  Ni  Ni1  1  0.65650700  0.17410600  0.71290400  1
  Ni  Ni2  1  0.17410600  0.65650700  0.71290400  1
  O  O0  1  0.82176700  0.33877800  0.59528500  1
  O  O1  1  0.51565100  0.51565100  0.34047200  1
  O  O2  1  0.66722900  0.66722900  0.10450200  1
  O  O3  1  0.99859000  0.99859000  0.30349200  1
  O  O4  1  0.98878200  0.98878200  0.79976600  1
  O  O5  1  0.33877800  0.82176700  0.59528500  1
  O  O6  1  0.95708500  0.50935800  0.35674100  1
  O  O7  1  0.50935800  0.95708500  0.35674100  1
  O  O8  1  0.16995900  0.16995900  0.08781300  1
  O  O9  1  0.82019600  0.82019600  0.58481800  1
  O  O10  1  0.48553000  0.04234500  0.84047100  1
  O  O11  1  0.04234500  0.48553000  0.84047100  1
  O  O12  1  0.34081900  0.34081900  0.61038500  1
  O  O13  1  0.65037200  0.17567600  0.08881900  1
  O  O14  1  0.48211600  0.48211600  0.85318900  1
  O  O15  1  0.17567600  0.65037200  0.08881900  1
loop_
_geom_bond_atom_site_label_1
_geom_bond_atom_site_label_2
_geom_bond_distance
_geom_bond_site_symmetry_2
Li0 O11 1.950934 1_655
Li0 O10 1.950934 1_565
Li0 O2 1.958658 1_556
Li0 O14 1.979442 1_555
Li1 O4 1.811900 1_555
Li1 O13 1.973516 1_566
Li1 O15 1.973516 1_656
Li1 O8 2.024343 1_666
Li2 O3 1.808465 1_445
Li2 O0 1.976288 1_455
Li2 O5 1.976288 1_545
Li2 O9 2.010152 1_445
Li3 O1 1.918642 1_555
Li3 O12 1.961375 1_555
Li3 O7 1.974171 1_545
Li3 O6 1.974171 1_455
Fe0 O3 1.921817 1_545
Fe0 O2 1.934462 1_555
Fe0 O1 1.981832 1_555
Fe0 O6 2.021252 1_555
Fe0 O8 2.074569 1_655
Fe0 O13 2.205741 1_555
Fe1 O3 1.921817 1_455
Fe1 O2 1.934462 1_555
Fe1 O1 1.981832 1_555
Fe1 O7 2.021252 1_555
Fe1 O8 2.074569 1_565
Fe1 O15 2.205741 1_555
Fe2 O4 1.963214 1_445
Fe2 O12 1.976901 1_555
Fe2 O10 2.004345 1_555
Fe2 O11 2.004345 1_555
Fe2 O0 2.143188 1_455
Fe2 O5 2.143188 1_545
Ni0 O3 1.950632 1_555
Ni0 O2 1.982977 1_555
Ni0 O6 2.091155 1_555
Ni0 O7 2.091155 1_555
Ni0 O15 2.104365 1_655
Ni0 O13 2.104365 1_565
Ni1 O12 1.891433 1_555
Ni1 O4 1.893718 1_545
Ni1 O10 1.917994 1_555
Ni1 O0 1.971803 1_555
Ni1 O14 2.075238 1_555
Ni1 O9 2.192910 1_545
Ni2 O12 1.891433 1_555
Ni2 O4 1.893718 1_455
Ni2 O11 1.917994 1_555
Ni2 O5 1.971803 1_555
Ni2 O14 2.075238 1_555
Ni2 O9 2.192910 1_455
O0 V0 1.947476 1_555
O1 V0 2.214199 1_555
O5 V0 1.947476 1_555
O6 V0 1.914523 1_555
O7 V0 1.914523 1_555
O8 V1 2.015413 1_554
O9 V0 1.746656 1_555
O10 V1 2.135933 1_555
O11 V1 2.135933 1_555
O13 V1 1.810415 1_554
O14 V1 1.823370 1_555
O15 V1 1.810415 1_554
