# generated using pymatgen
data_Li6CuS4
_symmetry_space_group_name_H-M   'P 1'
_cell_length_a   7.99097400
_cell_length_b   7.99097400
_cell_length_c   5.67824400
_cell_angle_alpha   90.00000000
_cell_angle_beta   90.00000000
_cell_angle_gamma   90.00000000
_symmetry_Int_Tables_number   1
_chemical_formula_structural   Li6CuS4
_chemical_formula_sum   'Li12 Cu2 S8'
_cell_volume   362.58804931
_cell_formula_units_Z   2
loop_
 _symmetry_equiv_pos_site_id
 _symmetry_equiv_pos_as_xyz
  1  'x, y, z'
loop_
 _atom_site_type_symbol
 _atom_site_label
 _atom_site_symmetry_multiplicity
 _atom_site_fract_x
 _atom_site_fract_y
 _atom_site_fract_z
 _atom_site_occupancy
  Li  Li0  1  0.27664800  0.27664800  0.50000000  1
  Li  Li1  1  0.72335200  0.27664800  0.50000000  1
  Li  Li2  1  0.00000000  0.50000000  0.45371300  1
  Li  Li3  1  0.00000000  0.50000000  0.95371300  1
  Li  Li4  1  0.27664800  0.72335200  0.50000000  1
  Li  Li5  1  0.72335200  0.72335200  0.50000000  1
  Li  Li6  1  0.77664800  0.77664800  0.00000000  1
  Li  Li7  1  0.22335200  0.77664800  0.00000000  1
  Li  Li8  1  0.50000000  0.00000000  0.04628700  1
  Li  Li9  1  0.50000000  0.00000000  0.54628700  1
  Li  Li10  1  0.77664800  0.22335200  0.00000000  1
  Li  Li11  1  0.22335200  0.22335200  0.00000000  1
  Cu  Cu0  1  0.50000000  0.50000000  0.00000000  1
  Cu  Cu1  1  0.00000000  0.00000000  0.50000000  1
  S  S0  1  0.00000000  0.25521500  0.70345400  1
  S  S1  1  0.75521500  0.50000000  0.20345400  1
  S  S2  1  0.24478500  0.50000000  0.20345400  1
  S  S3  1  0.00000000  0.74478500  0.70345400  1
  S  S4  1  0.50000000  0.75521500  0.79654600  1
  S  S5  1  0.74478500  0.00000000  0.29654600  1
  S  S6  1  0.25521500  0.00000000  0.29654600  1
  S  S7  1  0.50000000  0.24478500  0.79654600  1
loop_
_geom_bond_atom_site_label_1
_geom_bond_atom_site_label_2
_geom_bond_distance
_geom_bond_site_symmetry_2
Li0 S7 2.466927 1_555
Li0 S2 2.466927 1_555
Li0 S0 2.500220 1_555
Li0 S6 2.500220 1_555
Li1 S1 2.466927 1_555
Li1 S7 2.466927 1_555
Li1 S0 2.500220 1_655
Li1 S5 2.500220 1_555
Li2 S3 2.416028 1_555
Li2 S0 2.416028 1_555
Li2 S2 2.417756 1_555
Li2 S1 2.417756 1_455
Li3 S2 2.416028 1_556
Li3 S1 2.416028 1_456
Li3 S3 2.417756 1_555
Li3 S0 2.417756 1_555
Li4 S4 2.466927 1_555
Li4 S2 2.466927 1_555
Li4 S3 2.500220 1_555
Li4 S6 2.500220 1_565
Li5 S4 2.466927 1_555
Li5 S1 2.466927 1_555
Li5 S3 2.500220 1_655
Li5 S5 2.500220 1_565
Li6 S5 2.466927 1_565
Li6 S3 2.466927 1_654
Li6 S1 2.500220 1_555
Li6 S4 2.500220 1_554
Li7 S6 2.466927 1_565
Li7 S3 2.466927 1_554
Li7 S2 2.500220 1_555
Li7 S4 2.500220 1_554
Li8 S7 2.416028 1_554
Li8 S4 2.416028 1_544
Li8 S5 2.417756 1_555
Li8 S6 2.417756 1_555
Li9 S5 2.416028 1_555
Li9 S6 2.416028 1_555
Li9 S7 2.417756 1_555
Li9 S4 2.417756 1_545
Li10 S5 2.466927 1_555
Li10 S0 2.466927 1_654
Li10 S1 2.500220 1_555
Li10 S7 2.500220 1_554
Li11 S6 2.466927 1_555
Li11 S0 2.466927 1_554
Li11 S2 2.500220 1_555
Li11 S7 2.500220 1_554
Cu0 S1 2.343896 1_555
Cu0 S7 2.343896 1_554
Cu0 S2 2.343896 1_555
Cu0 S4 2.343896 1_554
Cu1 S0 2.343896 1_555
Cu1 S6 2.343896 1_555
Cu1 S3 2.343896 1_545
Cu1 S5 2.343896 1_455
