# generated using pymatgen
data_V9PO25
_symmetry_space_group_name_H-M   'P 1'
_cell_length_a   10.86291824
_cell_length_b   10.86291824
_cell_length_c   10.86291824
_cell_angle_alpha   91.60134651
_cell_angle_beta   91.60134651
_cell_angle_gamma   160.75360094
_symmetry_Int_Tables_number   1
_chemical_formula_structural   V9PO25
_chemical_formula_sum   'V9 P1 O25'
_cell_volume   416.59435331
_cell_formula_units_Z   1
loop_
 _symmetry_equiv_pos_site_id
 _symmetry_equiv_pos_as_xyz
  1  'x, y, z'
loop_
 _atom_site_type_symbol
 _atom_site_label
 _atom_site_symmetry_multiplicity
 _atom_site_fract_x
 _atom_site_fract_y
 _atom_site_fract_z
 _atom_site_occupancy
  V  V0  1  0.00000000  0.00000000  0.00000000  1
  V  V1  1  0.11474600  0.78805600  0.89936700  1
  V  V2  1  0.89861700  0.68044300  0.55171800  1
  V  V3  1  0.65310100  0.10138300  0.78182600  1
  V  V4  1  0.21194400  0.11131100  0.32669000  1
  V  V5  1  0.78462100  0.88525400  0.67331000  1
  V  V6  1  0.31955700  0.87127400  0.21817400  1
  V  V7  1  0.12872600  0.34689900  0.44828200  1
  V  V8  1  0.88868900  0.21537900  0.10063300  1
  P  P0  1  0.75000000  0.25000000  0.50000000  1
  O  O0  1  0.50000000  0.50000000  0.00000000  1
  O  O1  1  0.05517800  0.88615900  0.93974900  1
  O  O2  1  0.81202000  0.77177600  0.60293400  1
  O  O3  1  0.61381500  0.25758800  0.85798700  1
  O  O4  1  0.98754900  0.72588900  0.69885200  1
  O  O5  1  0.79091400  0.18798000  0.95975700  1
  O  O6  1  0.16262200  0.65388300  0.80332400  1
  O  O7  1  0.34611700  0.14944100  0.50873900  1
  O  O8  1  0.74241200  0.60039900  0.35622800  1
  O  O9  1  0.57038000  0.09232700  0.61990700  1
  O  O10  1  0.11384100  0.05359000  0.16901900  1
  O  O11  1  0.90767300  0.52758000  0.47805300  1
  O  O12  1  0.71130400  0.01245100  0.73834100  1
  O  O13  1  0.27411100  0.97296300  0.26165900  1
  O  O14  1  0.04952700  0.42962000  0.52194700  1
  O  O15  1  0.88457100  0.94482200  0.83098100  1
  O  O16  1  0.47242000  0.95047300  0.38009300  1
  O  O17  1  0.24417100  0.38618500  0.64377200  1
  O  O18  1  0.64070200  0.83737800  0.49126100  1
  O  O19  1  0.85055900  0.35929800  0.19667600  1
  O  O20  1  0.22822400  0.83115800  0.04024300  1
  O  O21  1  0.02703700  0.28869600  0.30114800  1
  O  O22  1  0.39960100  0.75582900  0.14201300  1
  O  O23  1  0.16884200  0.20908600  0.39706600  1
  O  O24  1  0.94641000  0.11542900  0.06025100  1
loop_
_geom_bond_atom_site_label_1
_geom_bond_atom_site_label_2
_geom_bond_distance
_geom_bond_site_symmetry_2
O0 V0 1.815932 1_665
O0 V0 1.815932 1_555
O1 V1 1.743174 1_555
O1 V0 1.921782 1_566
O2 V5 1.686833 1_555
O2 V2 1.984811 1_555
O3 V1 1.878455 1_655
O3 V1 1.913177 1_545
O3 V3 2.248220 1_555
O4 V2 1.643362 1_555
O4 V1 2.257734 1_655
O5 V8 1.686823 1_556
O5 V3 1.984821 1_555
O6 V3 1.816772 1_565
O6 V3 1.958361 1_455
O6 V1 2.204525 1_555
O7 V2 1.816772 1_445
O7 V2 1.958361 1_555
O7 V4 2.204525 1_555
O8 V4 1.878455 1_555
O8 V4 1.913181 1_665
O8 V2 2.248210 1_555
O9 P0 1.547176 1_555
O9 V3 1.909449 1_555
O10 V4 1.743174 1_555
O10 V0 1.921782 1_555
O11 P0 1.547176 1_555
O11 V2 1.909449 1_555
O12 V3 1.643369 1_555
O12 V5 2.257727 1_545
O13 V6 1.643369 1_555
O13 V4 2.257737 1_565
O14 P0 1.547176 1_455
O14 V7 1.909459 1_555
O15 V5 1.743174 1_555
O15 V0 1.921782 1_666
O16 P0 1.547176 1_565
O16 V6 1.909445 1_555
O17 V5 1.878460 1_445
O17 V5 1.913182 1_555
O17 V7 2.248202 1_555
O18 V7 1.816769 1_555
O18 V7 1.958362 1_665
O18 V5 2.204525 1_555
O19 V6 1.816768 1_655
O19 V6 1.958360 1_545
O19 V8 2.204525 1_555
O20 V1 1.686823 1_554
O20 V6 1.984824 1_555
O21 V7 1.643362 1_555
O21 V8 2.257737 1_455
O22 V8 1.878455 1_565
O22 V8 1.913181 1_455
O22 V6 2.248200 1_555
O23 V4 1.686833 1_555
O23 V7 1.984800 1_555
O24 V8 1.743174 1_555
O24 V0 1.921782 1_655
