# generated using pymatgen
data_Mg3WO6
_symmetry_space_group_name_H-M   'P 1'
_cell_length_a   5.35952400
_cell_length_b   5.16965000
_cell_length_c   9.25799152
_cell_angle_alpha   56.29493403
_cell_angle_beta   90.00000000
_cell_angle_gamma   90.00000000
_symmetry_Int_Tables_number   1
_chemical_formula_structural   Mg3WO6
_chemical_formula_sum   'Mg6 W2 O12'
_cell_volume   213.39188815
_cell_formula_units_Z   2
loop_
 _symmetry_equiv_pos_site_id
 _symmetry_equiv_pos_as_xyz
  1  'x, y, z'
loop_
 _atom_site_type_symbol
 _atom_site_label
 _atom_site_symmetry_multiplicity
 _atom_site_fract_x
 _atom_site_fract_y
 _atom_site_fract_z
 _atom_site_occupancy
  Mg  Mg0  1  0.50000000  0.50000000  0.50000000  1
  Mg  Mg1  1  0.94865300  0.72843400  0.26208800  1
  Mg  Mg2  1  0.44865300  0.27156600  0.23791200  1
  Mg  Mg3  1  0.00000000  0.50000000  0.00000000  1
  Mg  Mg4  1  0.55134700  0.72843400  0.76208800  1
  Mg  Mg5  1  0.05134700  0.27156600  0.73791200  1
  W  W0  1  0.50000000  0.00000000  0.00000000  1
  W  W1  1  0.00000000  0.00000000  0.50000000  1
  O  O0  1  0.42455700  0.10421100  0.76442500  1
  O  O1  1  0.19763500  0.74732300  0.08350300  1
  O  O2  1  0.17799700  0.37028600  0.44316400  1
  O  O3  1  0.67799700  0.62971400  0.05683600  1
  O  O4  1  0.69763500  0.25267700  0.41649700  1
  O  O5  1  0.92455700  0.89578900  0.73557500  1
  O  O6  1  0.07544300  0.10421100  0.26442500  1
  O  O7  1  0.30236500  0.74732300  0.58350300  1
  O  O8  1  0.32200300  0.37028600  0.94316400  1
  O  O9  1  0.82200300  0.62971400  0.55683600  1
  O  O10  1  0.80236500  0.25267700  0.91649700  1
  O  O11  1  0.57544300  0.89578900  0.23557500  1
loop_
_geom_bond_atom_site_label_1
_geom_bond_atom_site_label_2
_geom_bond_distance
_geom_bond_site_symmetry_2
Mg0 O9 2.023975 1_555
Mg0 O2 2.023975 1_555
Mg0 O4 2.109821 1_555
Mg0 O7 2.109821 1_555
Mg0 O0 2.187194 1_555
Mg0 O11 2.187194 1_555
Mg1 O6 2.069472 1_665
Mg1 O2 2.074722 1_655
Mg1 O1 2.084364 1_655
Mg1 O11 2.138688 1_555
Mg1 O4 2.449594 1_555
Mg1 O9 2.573291 1_555
Mg1 O3 2.655521 1_555
Mg2 O11 2.069472 1_545
Mg2 O3 2.074722 1_555
Mg2 O4 2.084364 1_555
Mg2 O6 2.138688 1_555
Mg2 O1 2.449594 1_555
Mg2 O8 2.573291 1_554
Mg2 O2 2.655521 1_555
Mg3 O8 2.023975 1_554
Mg3 O3 2.023975 1_455
Mg3 O1 2.109821 1_555
Mg3 O10 2.109821 1_454
Mg3 O6 2.187194 1_555
Mg3 O5 2.187194 1_454
Mg4 O0 2.069472 1_565
Mg4 O8 2.074722 1_555
Mg4 O7 2.084364 1_555
Mg4 O5 2.138688 1_555
Mg4 O10 2.449594 1_555
Mg4 O3 2.573291 1_556
Mg4 O9 2.655521 1_555
Mg5 O5 2.069472 1_445
Mg5 O9 2.074722 1_455
Mg5 O10 2.084364 1_455
Mg5 O0 2.138688 1_555
Mg5 O7 2.449594 1_555
Mg5 O2 2.573291 1_555
Mg5 O8 2.655521 1_555
O0 W0 1.976428 1_556
O1 W0 1.951747 1_565
O2 W1 1.932204 1_555
O3 W0 1.932204 1_565
O4 W1 1.951747 1_655
O5 W1 1.976428 1_665
O6 W1 1.976428 1_555
O7 W1 1.951747 1_565
O8 W0 1.932204 1_556
O9 W1 1.932204 1_665
O10 W0 1.951747 1_556
O11 W0 1.976428 1_565
