# generated using pymatgen
data_Li3Co2Si3O10
_symmetry_space_group_name_H-M   'P 1'
_cell_length_a   5.39373575
_cell_length_b   5.36072782
_cell_length_c   16.94661353
_cell_angle_alpha   84.92354503
_cell_angle_beta   84.05463481
_cell_angle_gamma   60.25787544
_symmetry_Int_Tables_number   1
_chemical_formula_structural   Li3Co2Si3O10
_chemical_formula_sum   'Li6 Co4 Si6 O20'
_cell_volume   422.77200007
_cell_formula_units_Z   2
loop_
 _symmetry_equiv_pos_site_id
 _symmetry_equiv_pos_as_xyz
  1  'x, y, z'
loop_
 _atom_site_type_symbol
 _atom_site_label
 _atom_site_symmetry_multiplicity
 _atom_site_fract_x
 _atom_site_fract_y
 _atom_site_fract_z
 _atom_site_occupancy
  Li  Li0  1  0.67472800  0.82667500  0.94606600  1
  Li  Li1  1  0.56244800  0.82221000  0.26475800  1
  Li  Li2  1  0.82290100  0.64552800  0.44497900  1
  Li  Li3  1  0.17719100  0.35312600  0.55513000  1
  Li  Li4  1  0.43739900  0.17777700  0.73535100  1
  Li  Li5  1  0.32551000  0.17436200  0.05407300  1
  Co  Co0  1  0.17629000  0.00921000  0.41192200  1
  Co  Co1  1  0.99473100  0.81612700  0.08574300  1
  Co  Co2  1  0.00482800  0.18416000  0.91433600  1
  Co  Co3  1  0.82362400  0.99018200  0.58809600  1
  Si  Si0  1  0.13657000  0.86817900  0.75058600  1
  Si  Si1  1  0.47325600  0.67728200  0.59787600  1
  Si  Si2  1  0.66834800  0.47895200  0.09960400  1
  Si  Si3  1  0.33145000  0.52111700  0.90031900  1
  Si  Si4  1  0.52663500  0.32228000  0.40220500  1
  Si  Si5  1  0.86328900  0.13101300  0.24925000  1
  O  O0  1  0.85848800  0.93761200  0.70473700  1
  O  O1  1  0.88815100  0.88127200  0.19676600  1
  O  O2  1  0.77585400  0.65716000  0.56165300  1
  O  O3  1  0.65924200  0.77987600  0.06501800  1
  O  O4  1  0.39903100  0.83004800  0.68383200  1
  O  O5  1  0.20717400  0.90384400  0.54291500  1
  O  O6  1  0.06093700  0.80027000  0.94552800  1
  O  O7  1  0.52083400  0.63237800  0.39199800  1
  O  O8  1  0.63476500  0.51084000  0.91096500  1
  O  O9  1  0.73364500  0.44314300  0.19583100  1
  O  O10  1  0.26643500  0.55715600  0.80431100  1
  O  O11  1  0.36611900  0.48953600  0.08873000  1
  O  O12  1  0.47900400  0.36728400  0.60787700  1
  O  O13  1  0.93942800  0.20021400  0.05431200  1
  O  O14  1  0.79258400  0.09629900  0.45712200  1
  O  O15  1  0.60087100  0.16981400  0.31610100  1
  O  O16  1  0.34078300  0.22098700  0.93486400  1
  O  O17  1  0.22435900  0.34223200  0.43832600  1
  O  O18  1  0.11181000  0.11908700  0.80344100  1
  O  O19  1  0.14126400  0.06278800  0.29538100  1
loop_
_geom_bond_atom_site_label_1
_geom_bond_atom_site_label_2
_geom_bond_distance
_geom_bond_site_symmetry_2
Li0 O8 1.958009 1_555
Li0 O16 1.992659 1_565
Li0 O3 2.007464 1_556
Li0 O6 2.015737 1_655
Li1 O19 2.015119 1_565
Li1 O1 2.140575 1_555
Li1 O9 2.163621 1_555
Li1 O15 2.231536 1_565
Li1 O7 2.339568 1_555
Li2 O17 1.957988 1_655
Li2 O2 1.969745 1_555
Li2 O7 1.973276 1_555
Li2 O14 2.365869 1_565
Li3 O2 1.958643 1_455
Li3 O17 1.971720 1_555
Li3 O12 1.972534 1_555
Li3 O5 2.358942 1_545
Li4 O0 2.014459 1_545
Li4 O18 2.139780 1_555
Li4 O10 2.165361 1_555
Li4 O4 2.233400 1_545
Li4 O12 2.342325 1_555
Li5 O11 1.953710 1_555
Li5 O3 1.992369 1_545
Li5 O16 2.011720 1_554
Li5 O13 2.016860 1_455
Co0 O14 1.965751 1_455
Co0 O7 1.978454 1_545
Co0 O19 1.985392 1_555
Co0 O17 2.019696 1_555
Co0 O5 2.244113 1_545
Co1 O11 1.898959 1_655
Co1 O1 1.919729 1_555
Co1 O13 1.959990 1_565
Co1 O3 1.981967 1_555
Co1 O6 2.368707 1_654
Co2 O8 1.895231 1_455
Co2 O18 1.917825 1_555
Co2 O6 1.956723 1_545
Co2 O16 1.985249 1_555
Co2 O13 2.364625 1_456
Co3 O5 1.965912 1_655
Co3 O12 1.979054 1_565
Co3 O0 1.986919 1_555
Co3 O2 2.018953 1_555
Co3 O14 2.244359 1_565
O0 Si0 1.621195 1_655
O1 Si5 1.615339 1_565
O2 Si1 1.637620 1_555
O3 Si2 1.645689 1_555
O4 Si1 1.648576 1_555
O4 Si0 1.657595 1_555
O5 Si1 1.658191 1_555
O6 Si3 1.661380 1_555
O7 Si4 1.641017 1_555
O8 Si3 1.637694 1_555
O9 Si5 1.676424 1_555
O9 Si2 1.678286 1_555
O10 Si3 1.674159 1_555
O10 Si0 1.674575 1_555
O11 Si2 1.631918 1_555
O12 Si1 1.640561 1_555
O13 Si2 1.662067 1_555
O14 Si4 1.656564 1_555
O15 Si4 1.650104 1_555
O15 Si5 1.657566 1_555
O16 Si3 1.641011 1_555
O17 Si4 1.635895 1_555
O18 Si0 1.624653 1_545
O19 Si5 1.625125 1_455
