# generated using pymatgen
data_Li5Mn8(BO3)8
_symmetry_space_group_name_H-M   'P 1'
_cell_length_a   5.31812900
_cell_length_b   9.23108626
_cell_length_c   11.41704791
_cell_angle_alpha   112.95094392
_cell_angle_beta   102.74213196
_cell_angle_gamma   89.06266485
_symmetry_Int_Tables_number   1
_chemical_formula_structural   Li5Mn8(BO3)8
_chemical_formula_sum   'Li5 Mn8 B8 O24'
_cell_volume   501.89177511
_cell_formula_units_Z   1
loop_
 _symmetry_equiv_pos_site_id
 _symmetry_equiv_pos_as_xyz
  1  'x, y, z'
loop_
 _atom_site_type_symbol
 _atom_site_label
 _atom_site_symmetry_multiplicity
 _atom_site_fract_x
 _atom_site_fract_y
 _atom_site_fract_z
 _atom_site_occupancy
  Li  Li0  1  0.97065700  0.96535400  0.10208200  1
  Li  Li1  1  0.72371500  0.74902000  0.33894500  1
  Li  Li2  1  0.51038600  0.48299200  0.82869200  1
  Li  Li3  1  0.21576100  0.25511100  0.33966500  1
  Li  Li4  1  0.01520800  0.98094700  0.82884100  1
  Mn  Mn0  1  0.98784300  0.64034600  0.12320100  1
  Mn  Mn1  1  0.75155500  0.43943900  0.37388800  1
  Mn  Mn2  1  0.72040800  0.06991300  0.61962600  1
  Mn  Mn3  1  0.47685000  0.15676400  0.11846300  1
  Mn  Mn4  1  0.53192400  0.84398000  0.86944200  1
  Mn  Mn5  1  0.24290700  0.93735600  0.37324700  1
  Mn  Mn6  1  0.22665800  0.56866100  0.61994100  1
  Mn  Mn7  1  0.02604500  0.33989500  0.86976100  1
  B  B0  1  0.96135400  0.30514600  0.11931500  1
  B  B1  1  0.74698500  0.11130800  0.37064700  1
  B  B2  1  0.75110900  0.39306000  0.62925500  1
  B  B3  1  0.48330300  0.82672300  0.13198300  1
  B  B4  1  0.51859900  0.18098000  0.86477600  1
  B  B5  1  0.26465500  0.60963800  0.37884100  1
  B  B6  1  0.24204200  0.89259400  0.62583000  1
  B  B7  1  0.03081300  0.68141900  0.87243200  1
  O  O0  1  0.99317700  0.10412700  0.35542500  1
  O  O1  1  0.99897000  0.91899700  0.64240900  1
  O  O2  1  0.74655300  0.34328800  0.17170800  1
  O  O3  1  0.87418700  0.46467200  0.56821300  1
  O  O4  1  0.89696600  0.28663400  0.67440100  1
  O  O5  1  0.63935100  0.72024600  0.15641700  1
  O  O6  1  0.56317800  0.92255400  0.07471400  1
  O  O7  1  0.93065300  0.82458500  0.89184800  1
  O  O8  1  0.92327500  0.57327000  0.90961000  1
  O  O9  1  0.65114000  0.01698000  0.42687700  1
  O  O10  1  0.57450800  0.20687400  0.32835800  1
  O  O11  1  0.74951800  0.14107600  0.81802600  1
  O  O12  1  0.51549300  0.61348600  0.37538000  1
  O  O13  1  0.50893100  0.42076400  0.64438600  1
  O  O14  1  0.24190900  0.84641400  0.16615600  1
  O  O15  1  0.36302300  0.97535400  0.57165100  1
  O  O16  1  0.38597700  0.78368000  0.66547100  1
  O  O17  1  0.09721100  0.18115200  0.12934900  1
  O  O18  1  0.03499700  0.39861300  0.05936100  1
  O  O19  1  0.40368100  0.31229200  0.86476900  1
  O  O20  1  0.42110500  0.07946900  0.91108300  1
  O  O21  1  0.16348600  0.50325800  0.42397400  1
  O  O22  1  0.09136700  0.70345500  0.33585500  1
  O  O23  1  0.25056600  0.64226400  0.81840800  1
loop_
_geom_bond_atom_site_label_1
_geom_bond_atom_site_label_2
_geom_bond_distance
_geom_bond_site_symmetry_2
Li0 O14 1.982587 1_655
Li0 O17 1.996483 1_665
Li0 O6 2.140741 1_555
Li0 O7 2.201444 1_554
Li1 O12 1.902366 1_555
Li1 O5 1.942778 1_555
Li1 O22 1.998249 1_655
Li1 O9 2.340591 1_565
Li2 O19 1.900841 1_555
Li2 O13 1.951436 1_555
Li2 O23 2.020217 1_555
Li2 O8 2.221280 1_555
Li3 O0 1.928636 1_455
Li3 O10 1.972537 1_555
Li3 O21 2.151417 1_555
Li3 O17 2.167273 1_555
Li4 O7 1.943385 1_455
Li4 O1 1.958636 1_455
Li4 O11 2.047866 1_465
Li4 O20 2.207381 1_565
Mn0 O5 2.042011 1_555
Mn0 O18 2.089839 1_655
Mn0 O14 2.179187 1_655
Mn0 O22 2.203378 1_655
Mn0 O8 2.215393 1_554
Mn1 O12 2.019836 1_555
Mn1 O3 2.089382 1_555
Mn1 O2 2.119577 1_555
Mn1 O21 2.167976 1_655
Mn1 O10 2.178422 1_555
Mn2 O15 1.973949 1_545
Mn2 O9 2.006712 1_555
Mn2 O4 2.025273 1_555
Mn2 O1 2.061109 1_545
Mn2 O11 2.067496 1_555
Mn3 O17 2.053379 1_555
Mn3 O2 2.066721 1_555
Mn3 O6 2.088313 1_545
Mn3 O20 2.140704 1_554
Mn3 O10 2.195607 1_555
Mn4 O7 2.092365 1_555
Mn4 O16 2.131010 1_555
Mn4 O6 2.133680 1_556
Mn4 O20 2.138817 1_565
Mn4 O23 2.214971 1_555
Mn5 O0 2.057529 1_465
Mn5 O15 2.100367 1_555
Mn5 O22 2.163333 1_555
Mn5 O14 2.177533 1_555
Mn5 O9 2.177930 1_565
Mn6 O3 1.977966 1_455
Mn6 O16 1.995955 1_555
Mn6 O21 2.026023 1_555
Mn6 O13 2.059267 1_555
Mn6 O23 2.070557 1_555
Mn7 O18 2.005542 1_556
Mn7 O19 2.030747 1_555
Mn7 O4 2.041615 1_455
Mn7 O8 2.110335 1_455
Mn7 O11 2.177072 1_455
B0 O17 1.372566 1_655
B0 O2 1.382294 1_555
B0 O18 1.398660 1_655
B1 O0 1.355494 1_555
B1 O10 1.401088 1_555
B1 O9 1.423020 1_555
B2 O13 1.344223 1_555
B2 O3 1.387732 1_555
B2 O4 1.423425 1_555
B3 O5 1.348200 1_555
B3 O6 1.405851 1_555
B3 O14 1.411140 1_555
B4 O19 1.348567 1_555
B4 O20 1.396279 1_555
B4 O11 1.431681 1_555
B5 O12 1.344711 1_555
B5 O22 1.394993 1_555
B5 O21 1.433018 1_555
B6 O1 1.352007 1_455
B6 O15 1.392983 1_555
B6 O16 1.406574 1_555
B7 O7 1.371138 1_455
B7 O8 1.400054 1_455
B7 O23 1.416747 1_555
