# generated using pymatgen
data_V3CrCo2(PO4)6
_symmetry_space_group_name_H-M   'P 1'
_cell_length_a   8.50726384
_cell_length_b   8.50726384
_cell_length_c   8.50726429
_cell_angle_alpha   60.76600928
_cell_angle_beta   60.76600928
_cell_angle_gamma   60.76600885
_symmetry_Int_Tables_number   1
_chemical_formula_structural   V3CrCo2(PO4)6
_chemical_formula_sum   'V3 Cr1 Co2 P6 O24'
_cell_volume   442.88995168
_cell_formula_units_Z   1
loop_
 _symmetry_equiv_pos_site_id
 _symmetry_equiv_pos_as_xyz
  1  'x, y, z'
loop_
 _atom_site_type_symbol
 _atom_site_label
 _atom_site_symmetry_multiplicity
 _atom_site_fract_x
 _atom_site_fract_y
 _atom_site_fract_z
 _atom_site_occupancy
  V  V0  1  0.35727100  0.35727100  0.35727100  1
  V  V1  1  0.14220300  0.14220300  0.14220300  1
  V  V2  1  0.64264200  0.64264200  0.64264200  1
  Cr  Cr0  1  0.85862000  0.85862000  0.85862000  1
  Co  Co0  1  0.99959600  0.99959600  0.99959600  1
  Co  Co1  1  0.49942100  0.49942100  0.49942100  1
  P  P0  1  0.45842400  0.75025400  0.04249900  1
  P  P1  1  0.75025400  0.04249900  0.45842400  1
  P  P2  1  0.04249900  0.45842400  0.75025400  1
  P  P3  1  0.95698900  0.54365000  0.24975900  1
  P  P4  1  0.24975900  0.95698900  0.54365000  1
  P  P5  1  0.54365000  0.24975900  0.95698900  1
  O  O0  1  0.68824900  0.88065700  0.49571200  1
  O  O1  1  0.88065700  0.49571200  0.68824900  1
  O  O2  1  0.49571200  0.68824900  0.88065700  1
  O  O3  1  0.26033700  0.91236200  0.05871100  1
  O  O4  1  0.61595500  0.80954600  0.00900800  1
  O  O5  1  0.43794300  0.58571000  0.23899400  1
  O  O6  1  0.91236200  0.05871100  0.26033700  1
  O  O7  1  0.58571000  0.23899400  0.43794300  1
  O  O8  1  0.99545900  0.38210100  0.18847800  1
  O  O9  1  0.23899400  0.43794300  0.58571000  1
  O  O10  1  0.94366600  0.73897300  0.08893700  1
  O  O11  1  0.18847800  0.99545900  0.38210100  1
  O  O12  1  0.80954600  0.00900800  0.61595500  1
  O  O13  1  0.05871100  0.26033700  0.91236200  1
  O  O14  1  0.76093400  0.55854200  0.41421800  1
  O  O15  1  0.00900800  0.61595500  0.80954600  1
  O  O16  1  0.41421800  0.76093400  0.55854200  1
  O  O17  1  0.08893700  0.94366600  0.73897300  1
  O  O18  1  0.55854200  0.41421800  0.76093400  1
  O  O19  1  0.38210100  0.18847800  0.99545900  1
  O  O20  1  0.73897300  0.08893700  0.94366600  1
  O  O21  1  0.50147600  0.31554000  0.11718800  1
  O  O22  1  0.11718800  0.50147600  0.31554000  1
  O  O23  1  0.31554000  0.11718800  0.50147600  1
loop_
_geom_bond_atom_site_label_1
_geom_bond_atom_site_label_2
_geom_bond_distance
_geom_bond_site_symmetry_2
Cr0 O15 1.952758 1_655
Cr0 O4 1.952758 1_556
Cr0 O12 1.952758 1_565
Cr0 O17 2.028786 1_655
Cr0 O20 2.028786 1_565
Cr0 O10 2.028786 1_556
Co0 O10 2.179726 1_556
Co0 O20 2.179726 1_565
Co0 O17 2.179726 1_655
Co0 O13 2.200274 1_665
Co0 O3 2.200274 1_656
Co0 O6 2.200274 1_566
Co1 O9 2.211148 1_555
Co1 O7 2.211148 1_555
Co1 O5 2.211148 1_555
Co1 O14 2.211258 1_555
Co1 O16 2.211258 1_555
Co1 O18 2.211258 1_555
O0 P1 1.547219 1_565
O0 V2 1.906434 1_555
O1 P2 1.547219 1_655
O1 V2 1.906434 1_555
O2 P0 1.547219 1_556
O2 V2 1.906434 1_555
O3 P0 1.565094 1_555
O3 V1 2.019331 1_565
O4 P0 1.509496 1_555
O5 P0 1.566002 1_555
O5 V0 1.994608 1_555
O6 P1 1.565094 1_555
O6 V1 2.019331 1_655
O7 P1 1.566002 1_555
O7 V0 1.994608 1_555
O8 P3 1.536736 1_555
O8 V1 1.922179 1_655
O9 P2 1.566002 1_555
O9 V0 1.994608 1_555
O10 P3 1.546855 1_555
O11 P4 1.536736 1_555
O11 V1 1.922180 1_565
O12 P1 1.509496 1_555
O13 P2 1.565094 1_555
O13 V1 2.019331 1_556
O14 P3 1.562953 1_555
O14 V2 2.011343 1_555
O15 P2 1.509496 1_555
O16 P4 1.562953 1_555
O16 V2 2.011343 1_555
O17 P4 1.546855 1_555
O18 P5 1.562953 1_555
O18 V2 2.011343 1_555
O19 P5 1.536736 1_555
O19 V1 1.922179 1_556
O20 P5 1.546855 1_555
O21 P5 1.539642 1_554
O21 V0 1.907375 1_555
O22 P3 1.539642 1_455
O22 V0 1.907375 1_555
O23 P4 1.539642 1_545
O23 V0 1.907375 1_555
