# generated using pymatgen
data_Mn12O5F19
_symmetry_space_group_name_H-M   'P 1'
_cell_length_a   4.80994800
_cell_length_b   5.81230472
_cell_length_c   16.10923852
_cell_angle_alpha   90.40941509
_cell_angle_beta   89.99396072
_cell_angle_gamma   92.27090455
_symmetry_Int_Tables_number   1
_chemical_formula_structural   Mn12O5F19
_chemical_formula_sum   'Mn12 O5 F19'
_cell_volume   449.99891270
_cell_formula_units_Z   1
loop_
 _symmetry_equiv_pos_site_id
 _symmetry_equiv_pos_as_xyz
  1  'x, y, z'
loop_
 _atom_site_type_symbol
 _atom_site_label
 _atom_site_symmetry_multiplicity
 _atom_site_fract_x
 _atom_site_fract_y
 _atom_site_fract_z
 _atom_site_occupancy
  Mn  Mn0  1  0.01486800  0.85414400  0.58141700  1
  Mn  Mn1  1  0.99122200  0.14921500  0.75119500  1
  Mn  Mn2  1  0.01054800  0.82743000  0.90564900  1
  Mn  Mn3  1  0.99449200  0.84569800  0.25173000  1
  Mn  Mn4  1  0.01381500  0.16881500  0.42453900  1
  Mn  Mn5  1  0.01560000  0.15841900  0.09036300  1
  Mn  Mn6  1  0.52101300  0.66395300  0.40570100  1
  Mn  Mn7  1  0.48541900  0.67222200  0.08314500  1
  Mn  Mn8  1  0.50452700  0.67218700  0.76064300  1
  Mn  Mn9  1  0.50519400  0.35134200  0.91587800  1
  Mn  Mn10  1  0.48217700  0.33796800  0.58228800  1
  Mn  Mn11  1  0.49864300  0.33962400  0.24757100  1
  O  O0  1  0.22151700  0.10157200  0.53435500  1
  O  O1  1  0.22438500  0.10549600  0.20203500  1
  O  O2  1  0.29037600  0.62327700  0.86186800  1
  O  O3  1  0.72238900  0.61124700  0.29528400  1
  O  O4  1  0.78929600  0.87531300  0.80620700  1
  F  F0  1  0.23820100  0.88806600  0.69011900  1
  F  F1  1  0.20988400  0.87682700  0.36124400  1
  F  F2  1  0.22058700  0.88733800  0.01824700  1
  F  F3  1  0.24396200  0.11950400  0.85629600  1
  F  F4  1  0.27301100  0.40358000  0.69847400  1
  F  F5  1  0.26269000  0.60876700  0.52158700  1
  F  F6  1  0.27649900  0.38177800  0.35487100  1
  F  F7  1  0.24242100  0.60576800  0.19103400  1
  F  F8  1  0.26715300  0.38803200  0.02569800  1
  F  F9  1  0.74733300  0.61005800  0.97852800  1
  F  F10  1  0.73829900  0.38472200  0.80570700  1
  F  F11  1  0.73136700  0.62542500  0.64039900  1
  F  F12  1  0.71885100  0.39220200  0.47341000  1
  F  F13  1  0.70461300  0.37593200  0.13805300  1
  F  F14  1  0.76694600  0.88152100  0.47851000  1
  F  F15  1  0.76325200  0.11454000  0.63994800  1
  F  F16  1  0.77938500  0.10554800  0.97162100  1
  F  F17  1  0.77357500  0.88466000  0.14331700  1
  F  F18  1  0.75648600  0.10780400  0.31306800  1
loop_
_geom_bond_atom_site_label_1
_geom_bond_atom_site_label_2
_geom_bond_distance
_geom_bond_site_symmetry_2
Mn0 O0 1.879652 1_565
Mn1 O4 2.039755 1_545
Mn2 O4 1.951000 1_455
Mn2 O2 1.957409 1_555
Mn3 O3 1.983511 1_555
Mn3 O1 2.007125 1_665
Mn4 O0 2.078838 1_555
Mn5 O1 2.090962 1_555
Mn6 O3 2.052147 1_555
Mn8 O4 1.915323 1_555
Mn8 O2 1.945235 1_555
Mn9 O2 2.114735 1_555
Mn10 O0 1.975998 1_555
Mn11 O1 1.993442 1_555
Mn11 O3 2.022288 1_555
F0 Mn0 2.058610 1_555
F0 Mn8 2.157351 1_555
F0 Mn1 2.191926 1_465
F1 Mn3 2.049246 1_455
F1 Mn6 2.107834 1_555
F1 Mn4 2.216121 1_565
F2 Mn2 2.096546 1_554
F2 Mn7 2.103354 1_555
F2 Mn5 2.213825 1_565
F3 Mn9 2.040456 1_555
F3 Mn1 2.096543 1_455
F3 Mn2 2.154656 1_545
F4 Mn8 2.126168 1_555
F4 Mn1 2.145481 1_455
F4 Mn10 2.163464 1_555
F5 Mn0 2.121022 1_555
F5 Mn10 2.168410 1_555
F5 Mn6 2.260155 1_555
F6 Mn11 2.050321 1_555
F6 Mn4 2.069723 1_555
F6 Mn6 2.138160 1_555
F7 Mn3 2.105936 1_455
F7 Mn7 2.123527 1_555
F7 Mn11 2.216468 1_555
F8 Mn5 2.054722 1_555
F8 Mn9 2.121256 1_554
F8 Mn7 2.127902 1_555
F9 Mn2 2.114616 1_655
F9 Mn9 2.115663 1_555
F9 Mn7 2.141212 1_556
F10 Mn1 2.058983 1_555
F10 Mn9 2.105197 1_555
F10 Mn8 2.179318 1_555
F11 Mn0 2.098487 1_655
F11 Mn10 2.218932 1_555
F11 Mn8 2.243212 1_555
F12 Mn4 2.109420 1_655
F12 Mn10 2.109657 1_555
F12 Mn6 2.175778 1_555
F13 Mn11 2.031502 1_555
F13 Mn5 2.135836 1_655
F13 Mn7 2.241771 1_555
F14 Mn0 2.052980 1_655
F14 Mn6 2.057836 1_555
F14 Mn4 2.194916 1_665
F15 Mn1 2.105317 1_555
F15 Mn10 2.129236 1_555
F15 Mn0 2.183800 1_645
F16 Mn9 2.180504 1_555
F16 Mn5 2.238013 1_656
F16 Mn2 2.257536 1_645
F17 Mn7 2.057377 1_555
F17 Mn3 2.062912 1_555
F17 Mn5 2.118278 1_665
F18 Mn11 2.149397 1_555
F18 Mn3 2.173533 1_545
F18 Mn4 2.199754 1_655
