# generated using pymatgen
data_LiNbO3
_symmetry_space_group_name_H-M   'P 1'
_cell_length_a   5.30247700
_cell_length_b   5.56891000
_cell_length_c   15.14908200
_cell_angle_alpha   90.00000000
_cell_angle_beta   90.00000000
_cell_angle_gamma   90.00000000
_symmetry_Int_Tables_number   1
_chemical_formula_structural   LiNbO3
_chemical_formula_sum   'Li8 Nb8 O24'
_cell_volume   447.33750279
_cell_formula_units_Z   8
loop_
 _symmetry_equiv_pos_site_id
 _symmetry_equiv_pos_as_xyz
  1  'x, y, z'
loop_
 _atom_site_type_symbol
 _atom_site_label
 _atom_site_symmetry_multiplicity
 _atom_site_fract_x
 _atom_site_fract_y
 _atom_site_fract_z
 _atom_site_occupancy
  Li  Li0  1  0.74932200  0.21734600  0.75000000  1
  Li  Li1  1  0.74535600  0.25000000  0.00000000  1
  Li  Li2  1  0.74535600  0.25000000  0.50000000  1
  Li  Li3  1  0.74932200  0.28265400  0.25000000  1
  Li  Li4  1  0.25067800  0.71734600  0.75000000  1
  Li  Li5  1  0.25464400  0.75000000  0.00000000  1
  Li  Li6  1  0.25464400  0.75000000  0.50000000  1
  Li  Li7  1  0.25067800  0.78265400  0.25000000  1
  Nb  Nb0  1  0.24298400  0.23506600  0.62502100  1
  Nb  Nb1  1  0.24298400  0.23506600  0.87497900  1
  Nb  Nb2  1  0.24298400  0.26493400  0.37497900  1
  Nb  Nb3  1  0.24298400  0.26493400  0.12502100  1
  Nb  Nb4  1  0.75701600  0.73506600  0.62502100  1
  Nb  Nb5  1  0.75701600  0.73506600  0.87497900  1
  Nb  Nb6  1  0.75701600  0.76493400  0.37497900  1
  Nb  Nb7  1  0.75701600  0.76493400  0.12502100  1
  O  O0  1  0.56599700  0.04100100  0.15536800  1
  O  O1  1  0.56599700  0.04100100  0.34463200  1
  O  O2  1  0.93595200  0.07794800  0.59497300  1
  O  O3  1  0.93595200  0.07794800  0.90502700  1
  O  O4  1  0.13531200  0.19201100  0.25000000  1
  O  O5  1  0.37029400  0.25000000  0.00000000  1
  O  O6  1  0.37029400  0.25000000  0.50000000  1
  O  O7  1  0.13531200  0.30798900  0.75000000  1
  O  O8  1  0.93595200  0.42205200  0.09497300  1
  O  O9  1  0.93595200  0.42205200  0.40502700  1
  O  O10  1  0.56599700  0.45899900  0.65536800  1
  O  O11  1  0.56599700  0.45899900  0.84463200  1
  O  O12  1  0.43400300  0.54100100  0.15536800  1
  O  O13  1  0.43400300  0.54100100  0.34463200  1
  O  O14  1  0.06404800  0.57794800  0.59497300  1
  O  O15  1  0.06404800  0.57794800  0.90502700  1
  O  O16  1  0.86468800  0.69201100  0.25000000  1
  O  O17  1  0.62970600  0.75000000  0.00000000  1
  O  O18  1  0.62970600  0.75000000  0.50000000  1
  O  O19  1  0.86468800  0.80798900  0.75000000  1
  O  O20  1  0.06404800  0.92205200  0.40502700  1
  O  O21  1  0.06404800  0.92205200  0.09497300  1
  O  O22  1  0.43400300  0.95899900  0.65536800  1
  O  O23  1  0.43400300  0.95899900  0.84463200  1
loop_
_geom_bond_atom_site_label_1
_geom_bond_atom_site_label_2
_geom_bond_distance
_geom_bond_site_symmetry_2
Li0 O7 2.108032 1_655
Li0 O11 2.193430 1_555
Li0 O10 2.193430 1_555
Li0 O19 2.360321 1_545
Li1 O5 1.988758 1_555
Li1 O8 2.002354 1_555
Li1 O3 2.002354 1_554
Li2 O6 1.988758 1_555
Li2 O2 2.002354 1_555
Li2 O9 2.002354 1_555
Li3 O4 2.108032 1_655
Li3 O0 2.193430 1_555
Li3 O1 2.193430 1_555
Li3 O16 2.360321 1_555
Li4 O19 2.108032 1_455
Li4 O23 2.193430 1_555
Li4 O22 2.193430 1_555
Li4 O7 2.360321 1_555
Li5 O17 1.988758 1_555
Li5 O21 2.002354 1_555
Li5 O15 2.002354 1_554
Li6 O18 1.988758 1_555
Li6 O14 2.002354 1_555
Li6 O20 2.002354 1_555
Li7 O16 2.108032 1_455
Li7 O12 2.193430 1_555
Li7 O13 2.193430 1_555
Li7 O4 2.360321 1_565
Nb0 O22 1.897588 1_545
Nb0 O2 1.903489 1_455
Nb0 O6 2.012382 1_555
Nb0 O7 2.018794 1_555
Nb0 O10 2.167970 1_555
Nb0 O14 2.180263 1_555
Nb1 O23 1.897588 1_545
Nb1 O3 1.903489 1_455
Nb1 O5 2.012382 1_556
Nb1 O7 2.018794 1_555
Nb1 O11 2.167970 1_555
Nb1 O15 2.180263 1_555
Nb2 O13 1.897588 1_555
Nb2 O9 1.903489 1_455
Nb2 O6 2.012382 1_555
Nb2 O4 2.018794 1_555
Nb2 O1 2.167970 1_555
Nb2 O20 2.180263 1_545
Nb3 O12 1.897588 1_555
Nb3 O8 1.903489 1_455
Nb3 O5 2.012382 1_555
Nb3 O4 2.018794 1_555
Nb3 O0 2.167970 1_555
Nb3 O21 2.180263 1_545
Nb4 O10 1.897588 1_555
Nb4 O14 1.903489 1_655
Nb4 O18 2.012382 1_555
Nb4 O19 2.018794 1_555
Nb4 O22 2.167970 1_555
Nb4 O2 2.180263 1_565
Nb5 O11 1.897588 1_555
Nb5 O15 1.903489 1_655
Nb5 O17 2.012382 1_556
Nb5 O19 2.018794 1_555
Nb5 O23 2.167970 1_555
Nb5 O3 2.180263 1_565
Nb6 O1 1.897588 1_565
Nb6 O20 1.903489 1_655
Nb6 O18 2.012382 1_555
Nb6 O16 2.018794 1_555
Nb6 O13 2.167970 1_555
Nb6 O9 2.180263 1_555
Nb7 O0 1.897588 1_565
Nb7 O21 1.903489 1_655
Nb7 O17 2.012382 1_555
Nb7 O16 2.018794 1_555
Nb7 O12 2.167970 1_555
Nb7 O8 2.180263 1_555
