# generated using pymatgen
data_Hg4HN3O10
_symmetry_space_group_name_H-M   'P 1'
_cell_length_a   11.41154788
_cell_length_b   11.41154788
_cell_length_c   11.62633500
_cell_angle_alpha   90.00000000
_cell_angle_beta   90.00000000
_cell_angle_gamma   129.74958515
_symmetry_Int_Tables_number   1
_chemical_formula_structural   Hg4HN3O10
_chemical_formula_sum   'Hg16 H4 N12 O40'
_cell_volume   1164.04981573
_cell_formula_units_Z   4
loop_
 _symmetry_equiv_pos_site_id
 _symmetry_equiv_pos_as_xyz
  1  'x, y, z'
loop_
 _atom_site_type_symbol
 _atom_site_label
 _atom_site_symmetry_multiplicity
 _atom_site_fract_x
 _atom_site_fract_y
 _atom_site_fract_z
 _atom_site_occupancy
  Hg  Hg0  1  0.46516200  0.52699800  0.59613600  1
  Hg  Hg1  1  0.52699800  0.46516200  0.40386400  1
  Hg  Hg2  1  0.96516200  0.02699800  0.90386400  1
  Hg  Hg3  1  0.02699800  0.96516200  0.09613600  1
  Hg  Hg4  1  0.46291800  0.55713500  0.92561800  1
  Hg  Hg5  1  0.55713500  0.46291800  0.07438200  1
  Hg  Hg6  1  0.96291800  0.05713500  0.57438200  1
  Hg  Hg7  1  0.05713500  0.96291800  0.42561800  1
  Hg  Hg8  1  0.30907700  0.71191600  0.70776000  1
  Hg  Hg9  1  0.71191600  0.30907700  0.29224000  1
  Hg  Hg10  1  0.80907700  0.21191600  0.79224000  1
  Hg  Hg11  1  0.21191600  0.80907700  0.20776000  1
  Hg  Hg12  1  0.10998400  0.74736300  0.75152500  1
  Hg  Hg13  1  0.74736300  0.10998400  0.24847500  1
  Hg  Hg14  1  0.60998400  0.24736300  0.74847500  1
  Hg  Hg15  1  0.24736300  0.60998400  0.25152500  1
  H  H0  1  0.76229700  0.94976800  0.74752400  1
  H  H1  1  0.94976800  0.76229700  0.25247600  1
  H  H2  1  0.26229700  0.44976800  0.75247600  1
  H  H3  1  0.44976800  0.26229700  0.24752400  1
  N  N0  1  0.81299700  0.69349300  0.72059600  1
  N  N1  1  0.69349300  0.81299700  0.27940400  1
  N  N2  1  0.31299700  0.19349300  0.77940400  1
  N  N3  1  0.19349300  0.31299700  0.22059600  1
  N  N4  1  0.58368200  0.92799600  0.53897200  1
  N  N5  1  0.92799600  0.58368200  0.46102800  1
  N  N6  1  0.08368200  0.42799600  0.96102800  1
  N  N7  1  0.42799600  0.08368200  0.03897200  1
  N  N8  1  0.11593700  0.40609100  0.50430900  1
  N  N9  1  0.40609100  0.11593700  0.49569100  1
  N  N10  1  0.61593700  0.90609100  0.99569100  1
  N  N11  1  0.90609100  0.61593700  0.00430900  1
  O  O0  1  0.36641800  0.54822200  0.74905200  1
  O  O1  1  0.54822200  0.36641800  0.25094800  1
  O  O2  1  0.86641800  0.04822200  0.75094800  1
  O  O3  1  0.04822200  0.86641800  0.24905200  1
  O  O4  1  0.21575700  0.21177300  0.76553300  1
  O  O5  1  0.21177300  0.21575700  0.23446700  1
  O  O6  1  0.71575700  0.71177300  0.73446700  1
  O  O7  1  0.71177300  0.71575700  0.26553300  1
  O  O8  1  0.95162500  0.80489000  0.75613600  1
  O  O9  1  0.80489000  0.95162500  0.24386400  1
  O  O10  1  0.45162500  0.30489000  0.74386400  1
  O  O11  1  0.30489000  0.45162500  0.25613600  1
  O  O12  1  0.78288400  0.57872600  0.67489600  1
  O  O13  1  0.57872600  0.78288400  0.32510400  1
  O  O14  1  0.28288400  0.07872600  0.82510400  1
  O  O15  1  0.07872600  0.28288400  0.17489600  1
  O  O16  1  0.47497800  0.90899100  0.49283700  1
  O  O17  1  0.90899100  0.47497800  0.50716300  1
  O  O18  1  0.97497800  0.40899100  0.00716300  1
  O  O19  1  0.40899100  0.97497800  0.99283700  1
  O  O20  1  0.56109100  0.84683500  0.62954100  1
  O  O21  1  0.84683500  0.56109100  0.37045900  1
  O  O22  1  0.06109100  0.34683500  0.87045900  1
  O  O23  1  0.34683500  0.06109100  0.12954100  1
  O  O24  1  0.71923100  0.02437500  0.50277200  1
  O  O25  1  0.02437500  0.71923100  0.49722800  1
  O  O26  1  0.21923100  0.52437500  0.99722800  1
  O  O27  1  0.52437500  0.21923100  0.00277200  1
  O  O28  1  0.04630000  0.33443000  0.41428100  1
  O  O29  1  0.33443000  0.04630000  0.58571900  1
  O  O30  1  0.54630000  0.83443000  0.08571900  1
  O  O31  1  0.83443000  0.54630000  0.91428100  1
  O  O32  1  0.08280700  0.33524100  0.60073000  1
  O  O33  1  0.33524100  0.08280700  0.39927000  1
  O  O34  1  0.58280700  0.83524100  0.89927000  1
  O  O35  1  0.83524100  0.58280700  0.10073000  1
  O  O36  1  0.22292300  0.54968600  0.50229700  1
  O  O37  1  0.54968600  0.22292300  0.49770300  1
  O  O38  1  0.72292300  0.04968600  0.99770300  1
  O  O39  1  0.04968600  0.72292300  0.00229700  1
loop_
_geom_bond_atom_site_label_1
_geom_bond_atom_site_label_2
_geom_bond_distance
_geom_bond_site_symmetry_2
Hg0 O0 2.199584 1_555
Hg1 O1 2.199584 1_555
Hg2 O2 2.199584 1_555
Hg3 O3 2.199584 1_555
Hg4 O0 2.300832 1_555
Hg4 O34 2.546518 1_555
Hg4 Hg5 2.604175 1_556
Hg4 O26 2.690077 1_555
Hg5 O1 2.300832 1_555
Hg5 O35 2.546518 1_555
Hg5 O27 2.690077 1_555
Hg6 O2 2.300832 1_555
Hg6 O32 2.546518 1_655
Hg6 Hg7 2.604175 1_645
Hg6 O24 2.690077 1_555
Hg7 O3 2.300832 1_555
Hg7 O33 2.546518 1_565
Hg7 O25 2.690077 1_555
Hg8 O0 2.389826 1_555
Hg8 O20 2.409473 1_555
Hg9 O1 2.389826 1_555
Hg9 O21 2.409473 1_555
Hg10 O2 2.389826 1_555
Hg10 O22 2.409473 1_655
Hg11 O3 2.389826 1_555
Hg11 O23 2.409473 1_565
Hg12 O8 2.284003 1_455
Hg13 O9 2.284003 1_545
Hg14 O10 2.284003 1_555
Hg15 O11 2.284003 1_555
H0 O2 0.984091 1_565
H1 O3 0.984091 1_655
H2 O0 0.984091 1_555
H3 O1 0.984091 1_555
N0 O12 1.240996 1_555
N0 O6 1.263683 1_555
N0 O8 1.310535 1_555
N1 O13 1.240996 1_555
N1 O7 1.263683 1_555
N1 O9 1.310535 1_555
N2 O14 1.240996 1_555
N2 O4 1.263683 1_555
N2 O10 1.310535 1_555
N3 O15 1.240996 1_555
N3 O5 1.263683 1_555
N3 O11 1.310535 1_555
N4 O16 1.236721 1_555
N4 O24 1.266397 1_565
N4 O20 1.314414 1_555
N5 O17 1.236721 1_555
N5 O25 1.266397 1_655
N5 O21 1.314414 1_555
N6 O18 1.236721 1_456
N6 O26 1.266397 1_555
N6 O22 1.314414 1_555
N7 O19 1.236721 1_544
N7 O27 1.266397 1_555
N7 O23 1.314414 1_555
N8 O28 1.250893 1_555
N8 O36 1.271911 1_555
N8 O32 1.289341 1_555
N9 O29 1.250893 1_555
N9 O37 1.271911 1_555
N9 O33 1.289341 1_555
N10 O30 1.250893 1_556
N10 O38 1.271911 1_565
N10 O34 1.289341 1_555
N11 O31 1.250893 1_554
N11 O39 1.271911 1_655
N11 O35 1.289341 1_555
