# generated using pymatgen
data_Ti3MnFe2(PO4)6
_symmetry_space_group_name_H-M   'P 1'
_cell_length_a   8.57079413
_cell_length_b   8.57079413
_cell_length_c   8.57079320
_cell_angle_alpha   61.18992963
_cell_angle_beta   61.18992963
_cell_angle_gamma   61.18993207
_symmetry_Int_Tables_number   1
_chemical_formula_structural   Ti3MnFe2(PO4)6
_chemical_formula_sum   'Ti3 Mn1 Fe2 P6 O24'
_cell_volume   457.10989942
_cell_formula_units_Z   1
loop_
 _symmetry_equiv_pos_site_id
 _symmetry_equiv_pos_as_xyz
  1  'x, y, z'
loop_
 _atom_site_type_symbol
 _atom_site_label
 _atom_site_symmetry_multiplicity
 _atom_site_fract_x
 _atom_site_fract_y
 _atom_site_fract_z
 _atom_site_occupancy
  Ti  Ti0  1  0.85701800  0.85701800  0.85701800  1
  Ti  Ti1  1  0.64521900  0.64521900  0.64521900  1
  Ti  Ti2  1  0.35402300  0.35402300  0.35402300  1
  Mn  Mn0  1  0.14315800  0.14315800  0.14315800  1
  Fe  Fe0  1  0.00289900  0.00289900  0.00289900  1
  Fe  Fe1  1  0.50136200  0.50136200  0.50136200  1
  P  P0  1  0.95190400  0.24779500  0.54750800  1
  P  P1  1  0.54750800  0.95190400  0.24779500  1
  P  P2  1  0.74507300  0.46007400  0.04391200  1
  P  P3  1  0.46007400  0.04391200  0.74507300  1
  P  P4  1  0.04391200  0.74507300  0.46007400  1
  P  P5  1  0.24779500  0.54750800  0.95190400  1
  O  O0  1  0.88734100  0.66613900  0.52077100  1
  O  O1  1  0.66613900  0.52077100  0.88734100  1
  O  O2  1  0.94182200  0.09006600  0.74472200  1
  O  O3  1  0.52077100  0.88734100  0.66613900  1
  O  O4  1  0.97832900  0.18392600  0.39986200  1
  O  O5  1  0.75871700  0.41161300  0.57175200  1
  O  O6  1  0.74472200  0.94182200  0.09006600  1
  O  O7  1  0.57175200  0.75871700  0.41161300  1
  O  O8  1  0.81410400  0.62108700  0.99688800  1
  O  O9  1  0.41161300  0.57175200  0.75871700  1
  O  O10  1  0.89663700  0.26796100  0.04715700  1
  O  O11  1  0.62108700  0.99688800  0.81410400  1
  O  O12  1  0.39986200  0.97832900  0.18392600  1
  O  O13  1  0.09006600  0.74472200  0.94182200  1
  O  O14  1  0.58574000  0.44882700  0.23909800  1
  O  O15  1  0.18392600  0.39986200  0.97832900  1
  O  O16  1  0.44882700  0.23909800  0.58574000  1
  O  O17  1  0.26796100  0.04715700  0.89663700  1
  O  O18  1  0.23909800  0.58574000  0.44882700  1
  O  O19  1  0.99688800  0.81410400  0.62108700  1
  O  O20  1  0.49546100  0.12012000  0.31191300  1
  O  O21  1  0.04715700  0.89663700  0.26796100  1
  O  O22  1  0.31191300  0.49546100  0.12012000  1
  O  O23  1  0.12012000  0.31191300  0.49546100  1
loop_
_geom_bond_atom_site_label_1
_geom_bond_atom_site_label_2
_geom_bond_distance
_geom_bond_site_symmetry_2
Mn0 O4 2.056212 1_455
Mn0 O15 2.056212 1_554
Mn0 O12 2.056212 1_545
Mn0 O17 2.221366 1_554
Mn0 O10 2.221366 1_455
Mn0 O21 2.221366 1_545
Fe0 O21 2.153560 1_545
Fe0 O17 2.153560 1_554
Fe0 O10 2.153560 1_455
Fe0 O2 2.207882 1_454
Fe0 O13 2.207882 1_544
Fe0 O6 2.207882 1_445
Fe1 O14 2.207549 1_555
Fe1 O18 2.207549 1_555
Fe1 O16 2.207549 1_555
Fe1 O9 2.240743 1_555
Fe1 O5 2.240743 1_555
Fe1 O7 2.240743 1_555
O0 P4 1.546632 1_655
O0 Ti1 1.875406 1_555
O1 P2 1.546632 1_556
O1 Ti1 1.875406 1_555
O2 P0 1.568923 1_555
O2 Ti0 2.077597 1_545
O3 P3 1.546632 1_565
O3 Ti1 1.875406 1_555
O4 P0 1.491382 1_555
O5 P0 1.570040 1_555
O5 Ti1 2.024617 1_555
O6 P1 1.568923 1_555
O6 Ti0 2.077596 1_554
O7 P1 1.570040 1_555
O7 Ti1 2.024617 1_555
O8 P2 1.561397 1_556
O8 Ti0 1.901795 1_555
O9 P5 1.570040 1_555
O9 Ti1 2.024617 1_555
O10 P2 1.525961 1_555
O11 P3 1.561397 1_565
O11 Ti0 1.901795 1_555
O12 P1 1.491383 1_555
O13 P5 1.568923 1_555
O13 Ti0 2.077597 1_455
O14 P2 1.562806 1_555
O14 Ti2 2.114982 1_555
O15 P5 1.491383 1_555
O16 P3 1.562806 1_555
O16 Ti2 2.114982 1_555
O17 P3 1.525961 1_555
O18 P4 1.562806 1_555
O18 Ti2 2.114982 1_555
O19 P4 1.561397 1_655
O19 Ti0 1.901795 1_555
O20 P1 1.577056 1_545
O20 Ti2 1.884712 1_555
O21 P4 1.525961 1_555
O22 P5 1.577056 1_554
O22 Ti2 1.884711 1_555
O23 P0 1.577056 1_455
O23 Ti2 1.884712 1_555
