# generated using pymatgen
data_Rb4SnO3
_symmetry_space_group_name_H-M   'P 1'
_cell_length_a   6.86648400
_cell_length_b   11.88394800
_cell_length_c   20.14633800
_cell_angle_alpha   90.00000000
_cell_angle_beta   90.00000000
_cell_angle_gamma   90.00000000
_symmetry_Int_Tables_number   1
_chemical_formula_structural   Rb4SnO3
_chemical_formula_sum   'Rb32 Sn8 O24'
_cell_volume   1643.96009416
_cell_formula_units_Z   8
loop_
 _symmetry_equiv_pos_site_id
 _symmetry_equiv_pos_as_xyz
  1  'x, y, z'
loop_
 _atom_site_type_symbol
 _atom_site_label
 _atom_site_symmetry_multiplicity
 _atom_site_fract_x
 _atom_site_fract_y
 _atom_site_fract_z
 _atom_site_occupancy
  Rb  Rb0  1  0.03263100  0.11123700  0.20438400  1
  Rb  Rb1  1  0.03263100  0.38876300  0.70438400  1
  Rb  Rb2  1  0.12256500  0.82444900  0.15914900  1
  Rb  Rb3  1  0.12256500  0.67555100  0.65914900  1
  Rb  Rb4  1  0.22259000  0.18873200  0.44350200  1
  Rb  Rb5  1  0.22259000  0.31126800  0.94350200  1
  Rb  Rb6  1  0.23885800  0.05664000  0.03814100  1
  Rb  Rb7  1  0.23885800  0.44336000  0.53814100  1
  Rb  Rb8  1  0.26114200  0.55664000  0.03814100  1
  Rb  Rb9  1  0.26114200  0.94336000  0.53814100  1
  Rb  Rb10  1  0.27741000  0.68873200  0.44350200  1
  Rb  Rb11  1  0.27741000  0.81126800  0.94350200  1
  Rb  Rb12  1  0.37743500  0.32444900  0.15914900  1
  Rb  Rb13  1  0.37743500  0.17555100  0.65914900  1
  Rb  Rb14  1  0.46736900  0.61123700  0.20438400  1
  Rb  Rb15  1  0.46736900  0.88876300  0.70438400  1
  Rb  Rb16  1  0.53263100  0.11123700  0.29561600  1
  Rb  Rb17  1  0.53263100  0.38876300  0.79561600  1
  Rb  Rb18  1  0.62256500  0.82444900  0.34085100  1
  Rb  Rb19  1  0.62256500  0.67555100  0.84085100  1
  Rb  Rb20  1  0.72259000  0.18873200  0.05649800  1
  Rb  Rb21  1  0.72259000  0.31126800  0.55649800  1
  Rb  Rb22  1  0.73885800  0.05664000  0.46185900  1
  Rb  Rb23  1  0.73885800  0.44336000  0.96185900  1
  Rb  Rb24  1  0.76114200  0.55664000  0.46185900  1
  Rb  Rb25  1  0.76114200  0.94336000  0.96185900  1
  Rb  Rb26  1  0.77741000  0.68873200  0.05649800  1
  Rb  Rb27  1  0.77741000  0.81126800  0.55649800  1
  Rb  Rb28  1  0.87743500  0.32444900  0.34085100  1
  Rb  Rb29  1  0.87743500  0.17555100  0.84085100  1
  Rb  Rb30  1  0.96736900  0.61123700  0.29561600  1
  Rb  Rb31  1  0.96736900  0.88876300  0.79561600  1
  Sn  Sn0  1  0.10573100  0.93102900  0.35262000  1
  Sn  Sn1  1  0.10573100  0.56897100  0.85262000  1
  Sn  Sn2  1  0.39426900  0.06897100  0.85262000  1
  Sn  Sn3  1  0.39426900  0.43102900  0.35262000  1
  Sn  Sn4  1  0.60573100  0.93102900  0.14738000  1
  Sn  Sn5  1  0.60573100  0.56897100  0.64738000  1
  Sn  Sn6  1  0.89426900  0.43102900  0.14738000  1
  Sn  Sn7  1  0.89426900  0.06897100  0.64738000  1
  O  O0  1  0.03753900  0.58623200  0.15586900  1
  O  O1  1  0.03753900  0.91376800  0.65586900  1
  O  O2  1  0.04507400  0.35173000  0.07042100  1
  O  O3  1  0.04507400  0.14827000  0.57042100  1
  O  O4  1  0.13703400  0.47675800  0.40055800  1
  O  O5  1  0.13703400  0.02324200  0.90055800  1
  O  O6  1  0.36296600  0.97675800  0.40055800  1
  O  O7  1  0.36296600  0.52324200  0.90055800  1
  O  O8  1  0.45492600  0.85173000  0.07042100  1
  O  O9  1  0.45492600  0.64827000  0.57042100  1
  O  O10  1  0.46246100  0.08623200  0.15586900  1
  O  O11  1  0.46246100  0.41376800  0.65586900  1
  O  O12  1  0.53753900  0.58623200  0.34413100  1
  O  O13  1  0.53753900  0.91376800  0.84413100  1
  O  O14  1  0.54507400  0.14827000  0.92957900  1
  O  O15  1  0.54507400  0.35173000  0.42957900  1
  O  O16  1  0.63703400  0.47675800  0.09944200  1
  O  O17  1  0.63703400  0.02324200  0.59944200  1
  O  O18  1  0.86296600  0.52324200  0.59944200  1
  O  O19  1  0.86296600  0.97675800  0.09944200  1
  O  O20  1  0.95492600  0.64827000  0.92957900  1
  O  O21  1  0.95492600  0.85173000  0.42957900  1
  O  O22  1  0.96246100  0.08623200  0.34413100  1
  O  O23  1  0.96246100  0.41376800  0.84413100  1
loop_
_geom_bond_atom_site_label_1
_geom_bond_atom_site_label_2
_geom_bond_distance
_geom_bond_site_symmetry_2
O0 Sn6 2.097364 1_455
O0 Rb8 2.847174 1_555
O0 Rb30 2.871738 1_455
O0 Rb2 2.891289 1_555
O0 Rb26 2.946530 1_455
O0 Rb14 3.123219 1_555
O1 Sn7 2.097364 1_465
O1 Rb9 2.847174 1_555
O1 Rb31 2.871738 1_455
O1 Rb3 2.891289 1_555
O1 Rb27 2.946530 1_455
O1 Rb15 3.123219 1_555
O2 Sn6 2.089072 1_455
O2 Rb5 2.873146 1_554
O2 Rb12 2.916957 1_555
O2 Rb8 2.924718 1_555
O2 Rb20 2.955358 1_455
O2 Rb23 3.223403 1_454
O3 Sn7 2.089072 1_455
O3 Rb4 2.873146 1_555
O3 Rb13 2.916957 1_555
O3 Rb9 2.924718 1_545
O3 Rb21 2.955358 1_455
O3 Rb22 3.223403 1_455
O4 Sn3 2.085154 1_555
O4 Rb28 2.810792 1_455
O4 Rb10 2.832560 1_555
O4 Rb7 2.886037 1_555
O4 Rb30 2.895015 1_455
O4 Rb24 3.014673 1_455
O5 Sn2 2.085154 1_555
O5 Rb29 2.810792 1_455
O5 Rb11 2.832560 1_545
O5 Rb6 2.886037 1_556
O5 Rb31 2.895015 1_445
O5 Rb25 3.014673 1_445
O6 Sn0 2.085154 1_555
O6 Rb18 2.810792 1_555
O6 Rb4 2.832560 1_565
O6 Rb9 2.886037 1_555
O6 Rb16 2.895015 1_565
O6 Rb22 3.014673 1_565
O7 Sn1 2.085154 1_555
O7 Rb19 2.810792 1_555
O7 Rb5 2.832560 1_555
O7 Rb8 2.886037 1_556
O7 Rb17 2.895015 1_555
O7 Rb23 3.014673 1_555
O8 Sn4 2.089072 1_555
O8 Rb11 2.873146 1_554
O8 Rb2 2.916957 1_555
O8 Rb6 2.924718 1_565
O8 Rb26 2.955358 1_555
O8 Rb25 3.223403 1_554
O9 Sn5 2.089072 1_555
O9 Rb10 2.873146 1_555
O9 Rb3 2.916957 1_555
O9 Rb7 2.924718 1_555
O9 Rb27 2.955358 1_555
O9 Rb24 3.223403 1_555
O10 Sn4 2.097364 1_545
O10 Rb6 2.847174 1_555
O10 Rb16 2.871738 1_555
O10 Rb12 2.891289 1_555
O10 Rb20 2.946530 1_555
O10 Rb0 3.123219 1_555
O11 Sn5 2.097364 1_555
O11 Rb7 2.847174 1_555
O11 Rb17 2.871738 1_555
O11 Rb13 2.891289 1_555
O11 Rb21 2.946530 1_555
O11 Rb1 3.123219 1_555
O12 Sn3 2.097364 1_555
O12 Rb24 2.847174 1_555
O12 Rb14 2.871738 1_555
O12 Rb18 2.891289 1_555
O12 Rb10 2.946530 1_555
O12 Rb30 3.123219 1_555
O13 Sn2 2.097364 1_565
O13 Rb25 2.847174 1_555
O13 Rb15 2.871738 1_555
O13 Rb19 2.891289 1_555
O13 Rb11 2.946530 1_555
O13 Rb31 3.123219 1_555
O14 Sn2 2.089072 1_555
O14 Rb20 2.873146 1_556
O14 Rb29 2.916957 1_555
O14 Rb25 2.924718 1_545
O14 Rb5 2.955358 1_555
O14 Rb6 3.223403 1_556
O15 Sn3 2.089072 1_555
O15 Rb21 2.873146 1_555
O15 Rb28 2.916957 1_555
O15 Rb24 2.924718 1_555
O15 Rb4 2.955358 1_555
O15 Rb7 3.223403 1_555
O16 Sn6 2.085154 1_555
O16 Rb12 2.810792 1_555
O16 Rb26 2.832560 1_555
O16 Rb23 2.886037 1_554
O16 Rb14 2.895015 1_555
O16 Rb8 3.014673 1_555
O17 Sn7 2.085154 1_555
O17 Rb13 2.810792 1_555
O17 Rb27 2.832560 1_545
O17 Rb22 2.886037 1_555
O17 Rb15 2.895015 1_545
O17 Rb9 3.014673 1_545
O18 Sn5 2.085154 1_555
O18 Rb3 2.810792 1_655
O18 Rb21 2.832560 1_555
O18 Rb24 2.886037 1_555
O18 Rb1 2.895015 1_655
O18 Rb7 3.014673 1_655
O19 Sn4 2.085154 1_555
O19 Rb2 2.810792 1_655
O19 Rb20 2.832560 1_565
O19 Rb25 2.886037 1_554
O19 Rb0 2.895015 1_665
O19 Rb6 3.014673 1_665
O20 Sn1 2.089072 1_655
O20 Rb26 2.873146 1_556
O20 Rb19 2.916957 1_555
O20 Rb23 2.924718 1_555
O20 Rb11 2.955358 1_655
O20 Rb8 3.223403 1_656
O21 Sn0 2.089072 1_655
O21 Rb27 2.873146 1_555
O21 Rb18 2.916957 1_555
O21 Rb22 2.924718 1_565
O21 Rb10 2.955358 1_655
O21 Rb9 3.223403 1_655
O22 Sn0 2.097364 1_645
O22 Rb22 2.847174 1_555
O22 Rb0 2.871738 1_655
O22 Rb28 2.891289 1_555
O22 Rb4 2.946530 1_655
O22 Rb16 3.123219 1_555
O23 Sn1 2.097364 1_655
O23 Rb23 2.847174 1_555
O23 Rb1 2.871738 1_655
O23 Rb29 2.891289 1_555
O23 Rb5 2.946530 1_655
O23 Rb17 3.123219 1_555
