# generated using pymatgen
data_Fe3Co3(TeO8)2
_symmetry_space_group_name_H-M   'P 1'
_cell_length_a   5.69550871
_cell_length_b   5.69550871
_cell_length_c   9.21541709
_cell_angle_alpha   89.83298322
_cell_angle_beta   89.83298322
_cell_angle_gamma   59.78486227
_symmetry_Int_Tables_number   1
_chemical_formula_structural   Fe3Co3(TeO8)2
_chemical_formula_sum   'Fe3 Co3 Te2 O16'
_cell_volume   258.32273623
_cell_formula_units_Z   1
loop_
 _symmetry_equiv_pos_site_id
 _symmetry_equiv_pos_as_xyz
  1  'x, y, z'
loop_
 _atom_site_type_symbol
 _atom_site_label
 _atom_site_symmetry_multiplicity
 _atom_site_fract_x
 _atom_site_fract_y
 _atom_site_fract_z
 _atom_site_occupancy
  Fe  Fe0  1  0.17029000  0.17029000  0.21835800  1
  Fe  Fe1  1  0.82966300  0.34085000  0.71825100  1
  Fe  Fe2  1  0.34085000  0.82966300  0.71825100  1
  Co  Co0  1  0.65880500  0.17015200  0.21431700  1
  Co  Co1  1  0.17015200  0.65880500  0.21431700  1
  Co  Co2  1  0.82990400  0.82990400  0.71428800  1
  Te  Te0  1  0.33507300  0.33507300  0.49261000  1
  Te  Te1  1  0.66984300  0.66984300  0.99673400  1
  O  O0  1  0.67950700  0.16163300  0.59865700  1
  O  O1  1  0.48348400  0.48348400  0.33026100  1
  O  O2  1  0.33012900  0.33012900  0.11145800  1
  O  O3  1  0.00176400  0.00176400  0.30666000  1
  O  O4  1  0.99812300  0.99812300  0.80832000  1
  O  O5  1  0.16163300  0.67950700  0.59865700  1
  O  O6  1  0.48521400  0.02820000  0.33270300  1
  O  O7  1  0.02820000  0.48521400  0.33270300  1
  O  O8  1  0.84448000  0.84448000  0.09509000  1
  O  O9  1  0.15973300  0.15973300  0.59993900  1
  O  O10  1  0.96760900  0.51217900  0.83215500  1
  O  O11  1  0.51217900  0.96760900  0.83215500  1
  O  O12  1  0.66516000  0.66516000  0.61367100  1
  O  O13  1  0.84003200  0.32310400  0.09839900  1
  O  O14  1  0.51638100  0.51638100  0.83921000  1
  O  O15  1  0.32310400  0.84003200  0.09839900  1
loop_
_geom_bond_atom_site_label_1
_geom_bond_atom_site_label_2
_geom_bond_distance
_geom_bond_site_symmetry_2
Fe0 O3 1.850118 1_555
Fe0 O2 1.857874 1_555
Fe0 O7 1.878173 1_555
Fe0 O6 1.878173 1_555
Fe0 O15 1.968871 1_545
Fe0 O13 1.968871 1_455
Fe1 O10 1.858418 1_555
Fe1 O12 1.863195 1_555
Fe1 O4 1.878825 1_545
Fe1 O14 1.903999 1_555
Fe1 O9 1.956963 1_655
Fe1 O0 1.969416 1_555
Fe2 O11 1.858418 1_555
Fe2 O12 1.863195 1_555
Fe2 O4 1.878825 1_455
Fe2 O14 1.903999 1_555
Fe2 O9 1.956963 1_565
Fe2 O5 1.969416 1_555
Co0 O2 1.876583 1_555
Co0 O1 1.880106 1_555
Co0 O3 1.891785 1_655
Co0 O6 1.901183 1_555
Co0 O8 1.948560 1_545
Co0 O13 1.964322 1_555
Co1 O2 1.876583 1_555
Co1 O1 1.880106 1_555
Co1 O3 1.891785 1_565
Co1 O7 1.901183 1_555
Co1 O8 1.948560 1_455
Co1 O15 1.964322 1_555
Co2 O12 1.875324 1_555
Co2 O4 1.876264 1_555
Co2 O10 1.906470 1_555
Co2 O11 1.906470 1_555
Co2 O0 1.950278 1_565
Co2 O5 1.950278 1_655
O0 Te0 1.958147 1_555
O1 Te0 2.090868 1_555
O5 Te0 1.958147 1_555
O6 Te0 2.112093 1_555
O7 Te0 2.112093 1_555
O8 Te1 1.951013 1_554
O9 Te0 1.991269 1_555
O10 Te1 2.107831 1_555
O11 Te1 2.107831 1_555
O13 Te1 1.945557 1_554
O14 Te1 2.102119 1_555
O15 Te1 1.945557 1_554
