# generated using pymatgen
data_LaTa3O9
_symmetry_space_group_name_H-M   'P 1'
_cell_length_a   8.78212478
_cell_length_b   8.78212478
_cell_length_c   9.69314935
_cell_angle_alpha   57.02979353
_cell_angle_beta   57.02979353
_cell_angle_gamma   36.82842331
_symmetry_Int_Tables_number   1
_chemical_formula_structural   LaTa3O9
_chemical_formula_sum   'La2 Ta6 O18'
_cell_volume   367.08143107
_cell_formula_units_Z   2
loop_
 _symmetry_equiv_pos_site_id
 _symmetry_equiv_pos_as_xyz
  1  'x, y, z'
loop_
 _atom_site_type_symbol
 _atom_site_label
 _atom_site_symmetry_multiplicity
 _atom_site_fract_x
 _atom_site_fract_y
 _atom_site_fract_z
 _atom_site_occupancy
  La  La0  1  0.33195838  0.33195838  0.00084323  1
  La  La1  1  0.66804162  0.66804162  0.99915677  1
  Ta  Ta0  1  0.58446439  0.58446439  0.74792027  1
  Ta  Ta1  1  0.74756024  0.74756024  0.26543094  1
  Ta  Ta2  1  0.92376348  0.92376348  0.74034071  1
  Ta  Ta3  1  0.07623652  0.07623652  0.25965929  1
  Ta  Ta4  1  0.25243976  0.25243976  0.73456906  1
  Ta  Ta5  1  0.41553561  0.41553561  0.25207973  1
  O  O0  1  0.57566762  0.09403871  0.23363367  1
  O  O1  1  0.66492315  0.66492315  0.50344631  1
  O  O2  1  0.50000000  0.50000000  0.00000000  1
  O  O3  1  0.42415770  0.92378707  0.22826784  1
  O  O4  1  0.09403871  0.57566762  0.23363367  1
  O  O5  1  0.25037838  0.73081921  0.76752082  1
  O  O6  1  0.26918079  0.74962162  0.23247918  1
  O  O7  1  0.92378707  0.42415770  0.22826784  1
  O  O8  1  0.73081921  0.25037838  0.76752082  1
  O  O9  1  -0.00000000  -0.00000000  0.50000000  1
  O  O10  1  0.07621293  0.57584230  0.77173216  1
  O  O11  1  0.17507760  0.17507760  0.99998018  1
  O  O12  1  0.82492240  0.82492240  0.00001982  1
  O  O13  1  0.74962162  0.26918079  0.23247918  1
  O  O14  1  0.90596129  0.42433238  0.76636633  1
  O  O15  1  0.57584230  0.07621293  0.77173216  1
  O  O16  1  0.42433238  0.90596129  0.76636633  1
  O  O17  1  0.33507685  0.33507685  0.49655369  1
loop_
_geom_bond_atom_site_label_1
_geom_bond_atom_site_label_2
_geom_bond_distance
_geom_bond_site_symmetry_2
La0 O11 2.619213 1_554
La0 O0 2.646515 1_555
La0 O4 2.646515 1_555
La0 O5 2.649855 1_554
La0 O8 2.649855 1_554
La0 O7 2.657114 1_455
La0 O3 2.657114 1_545
La0 O15 2.667331 1_554
La0 O10 2.667331 1_554
La0 O12 2.776818 1_545
La0 O12 2.776818 1_455
La0 O2 2.795720 1_555
La1 O12 2.619213 1_556
La1 O14 2.646515 1_555
La1 O16 2.646515 1_555
La1 O13 2.649855 1_556
La1 O6 2.649855 1_556
La1 O15 2.657114 1_565
La1 O10 2.657114 1_655
La1 O3 2.667331 1_556
La1 O7 2.667331 1_556
La1 O11 2.776818 1_655
La1 O11 2.776818 1_565
La1 O2 2.795720 1_556
O0 Ta1 1.940316 1_545
O0 Ta5 1.975041 1_555
O1 Ta1 1.890656 1_555
O1 Ta0 1.941259 1_555
O2 Ta0 2.001573 1_554
O2 Ta5 2.001573 1_555
O3 Ta1 2.015324 1_555
O3 Ta3 2.025767 1_565
O4 Ta1 1.940316 1_455
O4 Ta5 1.975041 1_555
O5 Ta2 1.929772 1_455
O5 Ta0 1.979512 1_555
O6 Ta3 1.929772 1_565
O6 Ta5 1.979512 1_555
O7 Ta1 2.015324 1_555
O7 Ta3 2.025767 1_655
O8 Ta2 1.929772 1_545
O8 Ta0 1.979512 1_555
O9 Ta2 1.909486 1_445
O9 Ta3 1.909486 1_555
O10 Ta4 2.015324 1_555
O10 Ta2 2.025767 1_455
O11 Ta3 2.071916 1_556
O11 Ta4 2.115643 1_555
O12 Ta2 2.071916 1_554
O12 Ta1 2.115643 1_555
O13 Ta3 1.929772 1_655
O13 Ta5 1.979512 1_555
O14 Ta4 1.940316 1_655
O14 Ta0 1.975041 1_555
O15 Ta4 2.015324 1_555
O15 Ta2 2.025767 1_545
O16 Ta4 1.940316 1_565
O16 Ta0 1.975041 1_555
O17 Ta4 1.890656 1_555
O17 Ta5 1.941259 1_555
