# generated using pymatgen
data_LiNiPO4
_symmetry_space_group_name_H-M   'P 1'
_cell_length_a   4.94453100
_cell_length_b   8.14134500
_cell_length_c   17.97535100
_cell_angle_alpha   90.00000000
_cell_angle_beta   90.00000000
_cell_angle_gamma   90.00000000
_symmetry_Int_Tables_number   1
_chemical_formula_structural   LiNiPO4
_chemical_formula_sum   'Li8 Ni8 P8 O32'
_cell_volume   723.60014045
_cell_formula_units_Z   8
loop_
 _symmetry_equiv_pos_site_id
 _symmetry_equiv_pos_as_xyz
  1  'x, y, z'
loop_
 _atom_site_type_symbol
 _atom_site_label
 _atom_site_symmetry_multiplicity
 _atom_site_fract_x
 _atom_site_fract_y
 _atom_site_fract_z
 _atom_site_occupancy
  Li  Li0  1  0.47200700  0.62727400  0.26074500  1
  Li  Li1  1  0.56751000  0.58563200  0.05624400  1
  Li  Li2  1  0.06751000  0.91436800  0.55624400  1
  Li  Li3  1  0.97200700  0.87272600  0.76074500  1
  Li  Li4  1  0.47200700  0.12727400  0.23925500  1
  Li  Li5  1  0.56751000  0.08563200  0.44375600  1
  Li  Li6  1  0.06751000  0.41436800  0.94375600  1
  Li  Li7  1  0.97200700  0.37272600  0.73925500  1
  Ni  Ni0  1  0.96806500  0.51108800  0.43180100  1
  Ni  Ni1  1  0.47347500  0.65082300  0.84642200  1
  Ni  Ni2  1  0.97347500  0.84917700  0.34642200  1
  Ni  Ni3  1  0.46806500  0.98891200  0.93180100  1
  Ni  Ni4  1  0.96806500  0.01108800  0.06819900  1
  Ni  Ni5  1  0.47347500  0.15082300  0.65357800  1
  Ni  Ni6  1  0.97347500  0.34917700  0.15357800  1
  Ni  Ni7  1  0.46806500  0.48891200  0.56819900  1
  P  P0  1  0.93777000  0.70003500  0.18223100  1
  P  P1  1  0.43681100  0.73456800  0.43116800  1
  P  P2  1  0.93681100  0.76543200  0.93116800  1
  P  P3  1  0.43777000  0.79996500  0.68223100  1
  P  P4  1  0.93777000  0.20003500  0.31776900  1
  P  P5  1  0.43681100  0.23456800  0.06883200  1
  P  P6  1  0.93681100  0.26543200  0.56883200  1
  P  P7  1  0.43777000  0.29996500  0.81776900  1
  O  O0  1  0.77510900  0.55314400  0.14655500  1
  O  O1  1  0.32667900  0.58009500  0.47384500  1
  O  O2  1  0.84116400  0.60721400  0.96813300  1
  O  O3  1  0.36029900  0.64299800  0.63968900  1
  O  O4  1  0.23771500  0.65734000  0.17998100  1
  O  O5  1  0.75353600  0.72293500  0.42847000  1
  O  O6  1  0.82786400  0.71935200  0.26303700  1
  O  O7  1  0.81316300  0.78260000  0.85191400  1
  O  O8  1  0.31316300  0.71740000  0.35191400  1
  O  O9  1  0.32786400  0.78064800  0.76303700  1
  O  O10  1  0.25353600  0.77706500  0.92847000  1
  O  O11  1  0.73771500  0.84266000  0.67998100  1
  O  O12  1  0.86029900  0.85700200  0.13968900  1
  O  O13  1  0.34116400  0.89278600  0.46813300  1
  O  O14  1  0.82667900  0.91990500  0.97384500  1
  O  O15  1  0.27510900  0.94685600  0.64655500  1
  O  O16  1  0.77510900  0.05314400  0.35344500  1
  O  O17  1  0.32667900  0.08009500  0.02615500  1
  O  O18  1  0.84116400  0.10721400  0.53186700  1
  O  O19  1  0.36029900  0.14299800  0.86031100  1
  O  O20  1  0.23771500  0.15734000  0.32001900  1
  O  O21  1  0.75353600  0.22293500  0.07153000  1
  O  O22  1  0.82786400  0.21935200  0.23696300  1
  O  O23  1  0.81316300  0.28260000  0.64808600  1
  O  O24  1  0.31316300  0.21740000  0.14808600  1
  O  O25  1  0.32786400  0.28064800  0.73696300  1
  O  O26  1  0.25353600  0.27706500  0.57153000  1
  O  O27  1  0.73771500  0.34266000  0.82001900  1
  O  O28  1  0.86029900  0.35700200  0.36031100  1
  O  O29  1  0.34116400  0.39278600  0.03186700  1
  O  O30  1  0.82667900  0.41990500  0.52615500  1
  O  O31  1  0.27510900  0.44685600  0.85344500  1
loop_
_geom_bond_atom_site_label_1
_geom_bond_atom_site_label_2
_geom_bond_distance
_geom_bond_site_symmetry_2
Li0 O4 1.873384 1_555
Li0 O6 1.913023 1_555
Li0 O8 1.959821 1_555
Li1 O0 1.938802 1_555
Li1 O29 1.977256 1_555
Li1 O2 2.090510 1_554
Li2 O15 1.938802 1_555
Li2 O18 1.977256 1_465
Li2 O13 2.090510 1_555
Li3 O11 1.873384 1_555
Li3 O9 1.913023 1_655
Li3 O7 1.959821 1_555
Li4 O20 1.873384 1_555
Li4 O22 1.913023 1_555
Li4 O24 1.959821 1_555
Li5 O16 1.938802 1_555
Li5 O13 1.977256 1_545
Li5 O18 2.090510 1_555
Li6 O31 1.938802 1_555
Li6 O2 1.977256 1_455
Li6 O29 2.090510 1_556
Li7 O27 1.873384 1_555
Li7 O25 1.913023 1_655
Li7 O23 1.959821 1_555
Ni0 O28 1.873231 1_555
Ni0 O30 1.978985 1_555
Ni0 O1 2.007724 1_655
Ni0 O5 2.025691 1_555
Ni1 O31 1.932728 1_555
Ni1 O9 1.970314 1_555
Ni1 O7 1.995441 1_555
Ni1 O10 2.100984 1_555
Ni2 O16 1.932728 1_565
Ni2 O6 1.970314 1_555
Ni2 O8 1.995441 1_655
Ni2 O5 2.100984 1_555
Ni3 O19 1.873231 1_565
Ni3 O17 1.978985 1_566
Ni3 O14 2.007724 1_555
Ni3 O10 2.025691 1_555
Ni4 O12 1.873231 1_545
Ni4 O14 1.978985 1_544
Ni4 O17 2.007724 1_655
Ni4 O21 2.025691 1_555
Ni5 O15 1.932728 1_545
Ni5 O25 1.970314 1_555
Ni5 O23 1.995441 1_555
Ni5 O26 2.100984 1_555
Ni6 O0 1.932728 1_555
Ni6 O22 1.970314 1_555
Ni6 O24 1.995441 1_655
Ni6 O21 2.100984 1_555
Ni7 O3 1.873231 1_555
Ni7 O1 1.978985 1_555
Ni7 O30 2.007724 1_555
Ni7 O26 2.025691 1_555
O0 P0 1.577427 1_555
O1 P1 1.570552 1_555
O2 P2 1.524595 1_555
O3 P3 1.537724 1_555
O4 P0 1.523813 1_455
O5 P1 1.569667 1_555
O6 P0 1.558800 1_555
O7 P2 1.556554 1_555
O8 P1 1.556554 1_555
O9 P3 1.558800 1_555
O10 P2 1.569667 1_455
O11 P3 1.523813 1_555
O12 P0 1.537724 1_555
O13 P1 1.524595 1_555
O14 P2 1.570552 1_555
O15 P3 1.577427 1_555
O16 P4 1.577427 1_555
O17 P5 1.570552 1_555
O18 P6 1.524595 1_555
O19 P7 1.537724 1_555
O20 P4 1.523813 1_455
O21 P5 1.569667 1_555
O22 P4 1.558800 1_555
O23 P6 1.556554 1_555
O24 P5 1.556554 1_555
O25 P7 1.558800 1_555
O26 P6 1.569667 1_455
O27 P7 1.523813 1_555
O28 P4 1.537724 1_555
O29 P5 1.524595 1_555
O30 P6 1.570552 1_555
O31 P7 1.577427 1_555
