# generated using pymatgen
data_LiNiPO4
_symmetry_space_group_name_H-M   'P 1'
_cell_length_a   5.06015300
_cell_length_b   13.29775000
_cell_length_c   17.57513737
_cell_angle_alpha   89.73123093
_cell_angle_beta   90.00000000
_cell_angle_gamma   90.00000000
_symmetry_Int_Tables_number   1
_chemical_formula_structural   LiNiPO4
_chemical_formula_sum   'Li16 Ni16 P16 O64'
_cell_volume   1182.59424778
_cell_formula_units_Z   16
loop_
 _symmetry_equiv_pos_site_id
 _symmetry_equiv_pos_as_xyz
  1  'x, y, z'
loop_
 _atom_site_type_symbol
 _atom_site_label
 _atom_site_symmetry_multiplicity
 _atom_site_fract_x
 _atom_site_fract_y
 _atom_site_fract_z
 _atom_site_occupancy
  Li  Li0  1  0.76622300  0.13023000  0.06135100  1
  Li  Li1  1  0.22829700  0.16204600  0.28161800  1
  Li  Li2  1  0.82368000  0.26047800  0.36710400  1
  Li  Li3  1  0.74814000  0.26175000  0.87509700  1
  Li  Li4  1  0.24814000  0.23825000  0.62490300  1
  Li  Li5  1  0.32368000  0.23952200  0.13289600  1
  Li  Li6  1  0.72829700  0.33795400  0.21838200  1
  Li  Li7  1  0.26622300  0.36977000  0.43864900  1
  Li  Li8  1  0.73377700  0.63023000  0.56135100  1
  Li  Li9  1  0.27170300  0.66204600  0.78161800  1
  Li  Li10  1  0.67632000  0.76047800  0.86710400  1
  Li  Li11  1  0.75186000  0.76175000  0.37509700  1
  Li  Li12  1  0.25186000  0.73825000  0.12490300  1
  Li  Li13  1  0.17632000  0.73952200  0.63289600  1
  Li  Li14  1  0.77170300  0.83795400  0.71838200  1
  Li  Li15  1  0.23377700  0.86977000  0.93864900  1
  Ni  Ni0  1  0.75145200  0.00359100  0.87446100  1
  Ni  Ni1  1  0.23907200  0.00870300  0.62293100  1
  Ni  Ni2  1  0.25645000  0.10850800  0.80860300  1
  Ni  Ni3  1  0.70058200  0.10961500  0.54407900  1
  Ni  Ni4  1  0.20058200  0.39038500  0.95592100  1
  Ni  Ni5  1  0.75645000  0.39149200  0.69139700  1
  Ni  Ni6  1  0.73907200  0.49129700  0.87706900  1
  Ni  Ni7  1  0.25145200  0.49640900  0.62553900  1
  Ni  Ni8  1  0.74854800  0.50359100  0.37446100  1
  Ni  Ni9  1  0.26092800  0.50870300  0.12293100  1
  Ni  Ni10  1  0.24355000  0.60850800  0.30860300  1
  Ni  Ni11  1  0.79941800  0.60961500  0.04407900  1
  Ni  Ni12  1  0.29941800  0.89038500  0.45592100  1
  Ni  Ni13  1  0.74355000  0.89149200  0.19139700  1
  Ni  Ni14  1  0.76092800  0.99129700  0.37706900  1
  Ni  Ni15  1  0.24854800  0.99640900  0.12553900  1
  P  P0  1  0.76444600  0.11572500  0.21727400  1
  P  P1  1  0.22249400  0.12348500  0.46093600  1
  P  P2  1  0.30554300  0.13325200  0.96293200  1
  P  P3  1  0.73955600  0.13408800  0.70853900  1
  P  P4  1  0.23955600  0.36591200  0.79146100  1
  P  P5  1  0.80554300  0.36674800  0.53706800  1
  P  P6  1  0.72249400  0.37651500  0.03906400  1
  P  P7  1  0.26444600  0.38427500  0.28272600  1
  P  P8  1  0.73555400  0.61572500  0.71727400  1
  P  P9  1  0.27750600  0.62348500  0.96093600  1
  P  P10  1  0.19445700  0.63325200  0.46293200  1
  P  P11  1  0.76044400  0.63408800  0.20853900  1
  P  P12  1  0.26044400  0.86591200  0.29146100  1
  P  P13  1  0.69445700  0.86674800  0.03706800  1
  P  P14  1  0.77750600  0.87651500  0.53906400  1
  P  P15  1  0.23555400  0.88427500  0.78272600  1
  O  O0  1  0.60179200  0.02855300  0.18268200  1
  O  O1  1  0.40292000  0.04317200  0.42374500  1
  O  O2  1  0.09466000  0.06507800  0.92497100  1
  O  O3  1  0.93495700  0.08283100  0.45736500  1
  O  O4  1  0.38938200  0.09188800  0.04203000  1
  O  O5  1  0.85771700  0.09821300  0.30032200  1
  O  O6  1  0.86935200  0.08737800  0.78071900  1
  O  O7  1  0.44833800  0.09711400  0.70014300  1
  O  O8  1  0.90931000  0.09961400  0.63969200  1
  O  O9  1  0.01863800  0.12823500  0.16709600  1
  O  O10  1  0.30166900  0.12901900  0.54769000  1
  O  O11  1  0.55077700  0.13332000  0.90688800  1
  O  O12  1  0.57293300  0.20561800  0.21712400  1
  O  O13  1  0.24201800  0.22528000  0.42309500  1
  O  O14  1  0.20719300  0.24068200  0.97146300  1
  O  O15  1  0.73307900  0.24750500  0.71098900  1
  O  O16  1  0.23307900  0.25249500  0.78901100  1
  O  O17  1  0.70719300  0.25931800  0.52853700  1
  O  O18  1  0.74201800  0.27472000  0.07690500  1
  O  O19  1  0.07293300  0.29438200  0.28287600  1
  O  O20  1  0.05077700  0.36668000  0.59311200  1
  O  O21  1  0.80166900  0.37098100  0.95231000  1
  O  O22  1  0.51863800  0.37176500  0.33290400  1
  O  O23  1  0.40931000  0.40038600  0.86030800  1
  O  O24  1  0.94833800  0.40288600  0.79985700  1
  O  O25  1  0.35771700  0.40178700  0.19967800  1
  O  O26  1  0.36935200  0.41262200  0.71928100  1
  O  O27  1  0.88938200  0.40811200  0.45797000  1
  O  O28  1  0.43495700  0.41716900  0.04263500  1
  O  O29  1  0.59466000  0.43492200  0.57502900  1
  O  O30  1  0.90292000  0.45682800  0.07625500  1
  O  O31  1  0.10179200  0.47144700  0.31731800  1
  O  O32  1  0.89820800  0.52855300  0.68268200  1
  O  O33  1  0.09708000  0.54317200  0.92374500  1
  O  O34  1  0.40534000  0.56507800  0.42497100  1
  O  O35  1  0.56504300  0.58283100  0.95736500  1
  O  O36  1  0.11061800  0.59188800  0.54203000  1
  O  O37  1  0.63064800  0.58737800  0.28071900  1
  O  O38  1  0.64228300  0.59821300  0.80032200  1
  O  O39  1  0.05166200  0.59711400  0.20014300  1
  O  O40  1  0.59069000  0.59961400  0.13969200  1
  O  O41  1  0.48136200  0.62823500  0.66709600  1
  O  O42  1  0.19833100  0.62901900  0.04769000  1
  O  O43  1  0.94922300  0.63332000  0.40688800  1
  O  O44  1  0.92706700  0.70561800  0.71712400  1
  O  O45  1  0.25798200  0.72528000  0.92309500  1
  O  O46  1  0.29280700  0.74068200  0.47146300  1
  O  O47  1  0.76692100  0.74750500  0.21098900  1
  O  O48  1  0.26692100  0.75249500  0.28901100  1
  O  O49  1  0.79280700  0.75931800  0.02853700  1
  O  O50  1  0.75798200  0.77472000  0.57690500  1
  O  O51  1  0.42706700  0.79438200  0.78287600  1
  O  O52  1  0.44922300  0.86668000  0.09311200  1
  O  O53  1  0.69833100  0.87098100  0.45231000  1
  O  O54  1  0.98136200  0.87176500  0.83290400  1
  O  O55  1  0.09069000  0.90038600  0.36030800  1
  O  O56  1  0.55166200  0.90288600  0.29985700  1
  O  O57  1  0.13064800  0.91262200  0.21928100  1
  O  O58  1  0.14228300  0.90178700  0.69967800  1
  O  O59  1  0.61061800  0.90811200  0.95797000  1
  O  O60  1  0.06504300  0.91716900  0.54263500  1
  O  O61  1  0.90534000  0.93492200  0.07502900  1
  O  O62  1  0.59708000  0.95682800  0.57625500  1
  O  O63  1  0.39820800  0.97144700  0.81731800  1
loop_
_geom_bond_atom_site_label_1
_geom_bond_atom_site_label_2
_geom_bond_distance
_geom_bond_site_symmetry_2
Li0 O18 1.945868 1_555
Li0 O4 2.003261 1_555
Li0 O9 2.255125 1_655
Li1 O19 1.927616 1_555
Li1 O5 2.083820 1_455
Li1 O12 2.157679 1_555
Li1 O9 2.321052 1_555
Li2 O19 1.994773 1_655
Li2 O22 2.219351 1_555
Li2 O13 2.379954 1_655
Li2 O5 2.467170 1_555
Li2 O27 2.558213 1_555
Li3 O21 2.010776 1_555
Li3 O11 2.053604 1_555
Li3 O24 2.504778 1_555
Li3 O23 2.530088 1_555
Li4 O10 2.010776 1_555
Li4 O20 2.053604 1_555
Li4 O7 2.504778 1_555
Li4 O8 2.530088 1_455
Li5 O12 1.994773 1_555
Li5 O9 2.219351 1_555
Li5 O18 2.379954 1_555
Li5 O25 2.467170 1_555
Li5 O4 2.558213 1_555
Li6 O12 1.927616 1_555
Li6 O25 2.083820 1_555
Li6 O19 2.157679 1_655
Li6 O22 2.321052 1_555
Li7 O13 1.945868 1_555
Li7 O27 2.003261 1_455
Li7 O22 2.255125 1_555
Li8 O50 1.945868 1_555
Li8 O36 2.003261 1_655
Li8 O41 2.255125 1_555
Li9 O51 1.927616 1_555
Li9 O38 2.083820 1_555
Li9 O44 2.157679 1_455
Li9 O41 2.321052 1_555
Li10 O51 1.994773 1_555
Li10 O54 2.219351 1_555
Li10 O45 2.379954 1_555
Li10 O38 2.467170 1_555
Li10 O59 2.558213 1_555
Li11 O53 2.010776 1_555
Li11 O43 2.053604 1_555
Li11 O56 2.504778 1_555
Li11 O55 2.530088 1_655
Li12 O42 2.010776 1_555
Li12 O52 2.053604 1_555
Li12 O39 2.504778 1_555
Li12 O40 2.530088 1_555
Li13 O44 1.994773 1_455
Li13 O41 2.219351 1_555
Li13 O50 2.379954 1_455
Li13 O58 2.467170 1_555
Li13 O36 2.558213 1_555
Li14 O44 1.927616 1_555
Li14 O58 2.083820 1_655
Li14 O51 2.157679 1_555
Li14 O54 2.321052 1_555
Li15 O45 1.945868 1_555
Li15 O59 2.003261 1_555
Li15 O54 2.255125 1_455
Ni0 O59 2.063127 1_545
Ni0 O6 2.072304 1_555
Ni0 O11 2.083539 1_555
Ni0 O63 2.095326 1_545
Ni0 O2 2.116475 1_655
Ni0 O54 2.229770 1_545
Ni1 O58 2.015589 1_545
Ni1 O60 2.065111 1_545
Ni1 O8 2.082298 1_455
Ni1 O7 2.088049 1_555
Ni1 O10 2.094977 1_555
Ni1 O62 2.106162 1_545
Ni2 O16 1.947422 1_555
Ni2 O63 1.963992 1_545
Ni2 O6 2.038923 1_455
Ni2 O7 2.145244 1_555
Ni2 O2 2.274965 1_555
Ni2 O11 2.305679 1_555
Ni3 O3 1.964965 1_555
Ni3 O8 1.988699 1_555
Ni3 O17 2.008375 1_555
Ni3 O10 2.036013 1_555
Ni3 O62 2.170532 1_545
Ni4 O28 1.964965 1_556
Ni4 O23 1.988699 1_555
Ni4 O14 2.008375 1_555
Ni4 O21 2.036013 1_455
Ni4 O33 2.170532 1_555
Ni5 O15 1.947422 1_555
Ni5 O32 1.963992 1_555
Ni5 O26 2.038923 1_555
Ni5 O24 2.145244 1_555
Ni5 O29 2.274965 1_555
Ni5 O20 2.305679 1_655
Ni6 O38 2.015589 1_555
Ni6 O35 2.065111 1_555
Ni6 O23 2.082298 1_555
Ni6 O24 2.088049 1_555
Ni6 O21 2.094977 1_555
Ni6 O33 2.106162 1_655
Ni7 O36 2.063127 1_555
Ni7 O26 2.072304 1_555
Ni7 O20 2.083539 1_555
Ni7 O32 2.095326 1_455
Ni7 O29 2.116475 1_555
Ni7 O41 2.229770 1_555
Ni8 O27 2.063127 1_555
Ni8 O37 2.072304 1_555
Ni8 O43 2.083539 1_555
Ni8 O31 2.095326 1_655
Ni8 O34 2.116475 1_555
Ni8 O22 2.229770 1_555
Ni9 O25 2.015589 1_555
Ni9 O28 2.065111 1_555
Ni9 O40 2.082298 1_555
Ni9 O39 2.088049 1_555
Ni9 O42 2.094977 1_555
Ni9 O30 2.106162 1_455
Ni10 O48 1.947422 1_555
Ni10 O31 1.963992 1_555
Ni10 O37 2.038923 1_555
Ni10 O39 2.145244 1_555
Ni10 O34 2.274965 1_555
Ni10 O43 2.305679 1_455
Ni11 O35 1.964965 1_554
Ni11 O40 1.988699 1_555
Ni11 O49 2.008375 1_555
Ni11 O42 2.036013 1_655
Ni11 O30 2.170532 1_555
Ni12 O60 1.964965 1_555
Ni12 O55 1.988699 1_555
Ni12 O46 2.008375 1_555
Ni12 O53 2.036013 1_555
Ni12 O1 2.170532 1_565
Ni13 O47 1.947422 1_555
Ni13 O0 1.963992 1_565
Ni13 O57 2.038923 1_655
Ni13 O56 2.145244 1_555
Ni13 O61 2.274965 1_555
Ni13 O52 2.305679 1_555
Ni14 O5 2.015589 1_565
Ni14 O3 2.065111 1_565
Ni14 O55 2.082298 1_655
Ni14 O56 2.088049 1_555
Ni14 O53 2.094977 1_555
Ni14 O1 2.106162 1_565
Ni15 O4 2.063127 1_565
Ni15 O57 2.072304 1_555
Ni15 O52 2.083539 1_555
Ni15 O0 2.095326 1_565
Ni15 O61 2.116475 1_455
Ni15 O9 2.229770 1_565
O0 P0 1.548344 1_555
O1 P1 1.551746 1_555
O2 P2 1.552851 1_555
O3 P1 1.553539 1_655
O4 P2 1.551740 1_554
O5 P0 1.550537 1_555
O6 P3 1.555335 1_555
O7 P3 1.560678 1_555
O8 P3 1.554766 1_555
O9 P0 1.567947 1_455
O10 P1 1.578521 1_555
O11 P2 1.584319 1_555
O12 P0 1.538838 1_555
O13 P1 1.508633 1_555
O14 P2 1.520853 1_555
O15 P3 1.509363 1_555
O16 P4 1.509363 1_555
O17 P5 1.520853 1_555
O18 P6 1.508633 1_555
O19 P7 1.538838 1_555
O20 P5 1.584319 1_455
O21 P6 1.578521 1_556
O22 P7 1.567947 1_555
O23 P4 1.554766 1_555
O24 P4 1.560678 1_655
O25 P7 1.550537 1_555
O26 P4 1.555335 1_555
O27 P5 1.551740 1_555
O28 P6 1.553539 1_555
O29 P5 1.552851 1_555
O30 P6 1.551746 1_555
O31 P7 1.548344 1_555
O32 P8 1.548344 1_555
O33 P9 1.551746 1_555
O34 P10 1.552851 1_555
O35 P9 1.553539 1_555
O36 P10 1.551740 1_555
O37 P11 1.555335 1_555
O38 P8 1.550537 1_555
O39 P11 1.560678 1_455
O40 P11 1.554766 1_555
O41 P8 1.567947 1_555
O42 P9 1.578521 1_554
O43 P10 1.584319 1_655
O44 P8 1.538838 1_555
O45 P9 1.508633 1_555
O46 P10 1.520853 1_555
O47 P11 1.509363 1_555
O48 P12 1.509363 1_555
O49 P13 1.520853 1_555
O50 P14 1.508633 1_555
O51 P15 1.538838 1_555
O52 P13 1.584319 1_555
O53 P14 1.578521 1_555
O54 P15 1.567947 1_655
O55 P12 1.554766 1_555
O56 P12 1.560678 1_555
O57 P12 1.555335 1_555
O58 P15 1.550537 1_555
O59 P13 1.551740 1_556
O60 P14 1.553539 1_455
O61 P13 1.552851 1_555
O62 P14 1.551746 1_555
O63 P15 1.548344 1_555
