# generated using pymatgen
data_Li2FeCo3O8
_symmetry_space_group_name_H-M   'P 1'
_cell_length_a   8.07495700
_cell_length_b   8.07495700
_cell_length_c   8.07495700
_cell_angle_alpha   90.00000000
_cell_angle_beta   90.00000000
_cell_angle_gamma   90.00000000
_symmetry_Int_Tables_number   1
_chemical_formula_structural   Li2FeCo3O8
_chemical_formula_sum   'Li8 Fe4 Co12 O32'
_cell_volume   526.52701039
_cell_formula_units_Z   4
loop_
 _symmetry_equiv_pos_site_id
 _symmetry_equiv_pos_as_xyz
  1  'x, y, z'
loop_
 _atom_site_type_symbol
 _atom_site_label
 _atom_site_symmetry_multiplicity
 _atom_site_fract_x
 _atom_site_fract_y
 _atom_site_fract_z
 _atom_site_occupancy
  Li  Li0  1  0.74904700  0.25095300  0.75095300  1
  Li  Li1  1  0.50095300  0.49904700  0.99904700  1
  Li  Li2  1  0.99904700  0.50095300  0.49904700  1
  Li  Li3  1  0.75095300  0.74904700  0.25095300  1
  Li  Li4  1  0.25095300  0.75095300  0.74904700  1
  Li  Li5  1  0.49904700  0.99904700  0.50095300  1
  Li  Li6  1  0.00095300  0.00095300  0.00095300  1
  Li  Li7  1  0.24904700  0.24904700  0.24904700  1
  Fe  Fe0  1  0.87500000  0.37500000  0.12500000  1
  Fe  Fe1  1  0.62500000  0.62500000  0.62500000  1
  Fe  Fe2  1  0.12500000  0.87500000  0.37500000  1
  Fe  Fe3  1  0.37500000  0.12500000  0.87500000  1
  Co  Co0  1  0.62404000  0.37404000  0.37500000  1
  Co  Co1  1  0.37404000  0.37500000  0.62404000  1
  Co  Co2  1  0.12500000  0.37596000  0.87404000  1
  Co  Co3  1  0.37500000  0.62404000  0.37404000  1
  Co  Co4  1  0.12596000  0.62500000  0.12404000  1
  Co  Co5  1  0.87596000  0.62596000  0.87500000  1
  Co  Co6  1  0.37596000  0.87404000  0.12500000  1
  Co  Co7  1  0.62596000  0.87500000  0.87596000  1
  Co  Co8  1  0.87500000  0.87596000  0.62596000  1
  Co  Co9  1  0.62500000  0.12404000  0.12596000  1
  Co  Co10  1  0.87404000  0.12500000  0.37596000  1
  Co  Co11  1  0.12404000  0.12596000  0.62500000  1
  O  O0  1  0.64031600  0.36149800  0.13811600  1
  O  O1  1  0.86149800  0.36188400  0.35968400  1
  O  O2  1  0.13848500  0.36151500  0.63848500  1
  O  O3  1  0.61149800  0.39031600  0.61188400  1
  O  O4  1  0.36188400  0.35968400  0.86149800  1
  O  O5  1  0.38848500  0.38848500  0.38848500  1
  O  O6  1  0.10968400  0.38811600  0.11149800  1
  O  O7  1  0.88811600  0.38850200  0.89031600  1
  O  O8  1  0.61188400  0.61149800  0.39031600  1
  O  O9  1  0.39031600  0.61188400  0.61149800  1
  O  O10  1  0.11151500  0.61151500  0.88848500  1
  O  O11  1  0.13811600  0.64031600  0.36149800  1
  O  O12  1  0.88850200  0.60968400  0.11188400  1
  O  O13  1  0.36151500  0.63848500  0.13848500  1
  O  O14  1  0.63850200  0.63811600  0.85968400  1
  O  O15  1  0.85968400  0.63850200  0.63811600  1
  O  O16  1  0.35968400  0.86149800  0.36188400  1
  O  O17  1  0.13850200  0.86188400  0.14031600  1
  O  O18  1  0.86151500  0.86151500  0.86151500  1
  O  O19  1  0.38850200  0.89031600  0.88811600  1
  O  O20  1  0.63811600  0.85968400  0.63850200  1
  O  O21  1  0.61151500  0.88848500  0.11151500  1
  O  O22  1  0.89031600  0.88811600  0.38850200  1
  O  O23  1  0.11188400  0.88850200  0.60968400  1
  O  O24  1  0.38811600  0.11149800  0.10968400  1
  O  O25  1  0.60968400  0.11188400  0.88850200  1
  O  O26  1  0.88848500  0.11151500  0.61151500  1
  O  O27  1  0.86188400  0.14031600  0.13850200  1
  O  O28  1  0.11149800  0.10968400  0.38811600  1
  O  O29  1  0.63848500  0.13848500  0.36151500  1
  O  O30  1  0.36149800  0.13811600  0.64031600  1
  O  O31  1  0.14031600  0.13850200  0.86188400  1
loop_
_geom_bond_atom_site_label_1
_geom_bond_atom_site_label_2
_geom_bond_distance
_geom_bond_site_symmetry_2
Li0 O7 1.939368 1_555
Li0 O3 1.939368 1_555
Li0 O25 1.939368 1_555
Li0 O26 1.950213 1_555
Li1 O4 1.939368 1_555
Li1 O0 1.939368 1_556
Li1 O14 1.939368 1_555
Li1 O13 1.950213 1_556
Li2 O1 1.939368 1_555
Li2 O11 1.939368 1_655
Li2 O15 1.939368 1_555
Li2 O2 1.950213 1_655
Li3 O22 1.939368 1_555
Li3 O12 1.939368 1_555
Li3 O8 1.939368 1_555
Li3 O21 1.950213 1_555
Li4 O19 1.939368 1_555
Li4 O9 1.939368 1_555
Li4 O23 1.939368 1_555
Li4 O10 1.950213 1_555
Li5 O16 1.939368 1_555
Li5 O30 1.939368 1_565
Li5 O20 1.939368 1_555
Li5 O29 1.950213 1_565
Li6 O31 1.939368 1_554
Li6 O17 1.939368 1_545
Li6 O27 1.939368 1_455
Li6 O18 1.950213 1_444
Li7 O24 1.939368 1_555
Li7 O28 1.939368 1_555
Li7 O6 1.939368 1_555
Li7 O5 1.950213 1_555
Fe0 O6 1.901149 1_655
Fe0 O7 1.901149 1_554
Fe0 O0 1.901149 1_555
Fe0 O1 1.901149 1_555
Fe0 O27 1.901149 1_555
Fe0 O12 1.901149 1_555
Fe1 O3 1.901149 1_555
Fe1 O8 1.901149 1_555
Fe1 O14 1.901149 1_555
Fe1 O15 1.901149 1_555
Fe1 O9 1.901149 1_555
Fe1 O20 1.901149 1_555
Fe2 O28 1.901149 1_565
Fe2 O22 1.901149 1_455
Fe2 O16 1.901149 1_555
Fe2 O23 1.901149 1_555
Fe2 O17 1.901149 1_555
Fe2 O11 1.901149 1_555
Fe3 O24 1.901149 1_556
Fe3 O19 1.901149 1_545
Fe3 O25 1.901149 1_555
Fe3 O4 1.901149 1_555
Fe3 O30 1.901149 1_555
Fe3 O31 1.901149 1_555
Co0 O29 1.908778 1_555
Co0 O5 1.908778 1_555
Co0 O3 1.920011 1_555
Co0 O0 1.920011 1_555
Co0 O8 1.923953 1_555
Co0 O1 1.923953 1_555
Co1 O2 1.908778 1_555
Co1 O5 1.908778 1_555
Co1 O9 1.920011 1_555
Co1 O30 1.920011 1_555
Co1 O4 1.923953 1_555
Co1 O3 1.923953 1_555
Co2 O10 1.908778 1_555
Co2 O2 1.908778 1_555
Co2 O4 1.920011 1_555
Co2 O7 1.920011 1_455
Co2 O31 1.923953 1_555
Co2 O6 1.923953 1_556
Co3 O13 1.908778 1_555
Co3 O5 1.908778 1_555
Co3 O8 1.920011 1_555
Co3 O11 1.920011 1_555
Co3 O9 1.923953 1_555
Co3 O16 1.923953 1_555
Co4 O13 1.908778 1_555
Co4 O10 1.908778 1_554
Co4 O17 1.920011 1_555
Co4 O6 1.920011 1_555
Co4 O11 1.923953 1_555
Co4 O12 1.923953 1_455
Co5 O10 1.908778 1_655
Co5 O18 1.908778 1_555
Co5 O15 1.920011 1_555
Co5 O12 1.920011 1_556
Co5 O14 1.923953 1_555
Co5 O7 1.923953 1_555
Co6 O21 1.908778 1_555
Co6 O13 1.908778 1_555
Co6 O16 1.920011 1_555
Co6 O19 1.920011 1_554
Co6 O17 1.923953 1_555
Co6 O24 1.923953 1_565
Co7 O21 1.908778 1_556
Co7 O18 1.908778 1_555
Co7 O14 1.920011 1_555
Co7 O25 1.920011 1_565
Co7 O20 1.923953 1_555
Co7 O19 1.923953 1_555
Co8 O26 1.908778 1_565
Co8 O18 1.908778 1_555
Co8 O20 1.920011 1_555
Co8 O23 1.920011 1_655
Co8 O15 1.923953 1_555
Co8 O22 1.923953 1_555
Co9 O29 1.908778 1_555
Co9 O21 1.908778 1_545
Co9 O27 1.920011 1_555
Co9 O24 1.920011 1_555
Co9 O0 1.923953 1_555
Co9 O25 1.923953 1_554
Co10 O26 1.908778 1_555
Co10 O29 1.908778 1_555
Co10 O1 1.920011 1_555
Co10 O22 1.920011 1_545
Co10 O27 1.923953 1_555
Co10 O28 1.923953 1_655
Co11 O2 1.908778 1_555
Co11 O26 1.908778 1_455
Co11 O31 1.920011 1_555
Co11 O28 1.920011 1_555
Co11 O30 1.923953 1_555
Co11 O23 1.923953 1_545
