# generated using pymatgen
data_Na3FeBSO7
_symmetry_space_group_name_H-M   'P 1'
_cell_length_a   8.71296597
_cell_length_b   8.71360112
_cell_length_c   10.39945090
_cell_angle_alpha   107.39366405
_cell_angle_beta   107.41160474
_cell_angle_gamma   105.18224085
_symmetry_Int_Tables_number   1
_chemical_formula_structural   Na3FeBSO7
_chemical_formula_sum   'Na12 Fe4 B4 S4 O28'
_cell_volume   663.24047797
_cell_formula_units_Z   4
loop_
 _symmetry_equiv_pos_site_id
 _symmetry_equiv_pos_as_xyz
  1  'x, y, z'
loop_
 _atom_site_type_symbol
 _atom_site_label
 _atom_site_symmetry_multiplicity
 _atom_site_fract_x
 _atom_site_fract_y
 _atom_site_fract_z
 _atom_site_occupancy
  Na  Na0  1  0.53166200  0.28016900  0.06435400  1
  Na  Na1  1  0.02924900  0.78019300  0.06468800  1
  Na  Na2  1  0.96824200  0.21933600  0.93563900  1
  Na  Na3  1  0.47128100  0.72064000  0.93627900  1
  Na  Na4  1  0.73222100  0.74137700  0.23544500  1
  Na  Na5  1  0.23464500  0.24323700  0.23468500  1
  Na  Na6  1  0.49190800  0.98138200  0.23498100  1
  Na  Na7  1  0.99249100  0.48467100  0.23508900  1
  Na  Na8  1  0.00808500  0.51783400  0.76461300  1
  Na  Na9  1  0.50823300  0.01708200  0.76448000  1
  Na  Na10  1  0.76872900  0.75963800  0.76575200  1
  Na  Na11  1  0.26782100  0.25809500  0.76404500  1
  Fe  Fe0  1  0.42335600  0.67366300  0.33620800  1
  Fe  Fe1  1  0.07620400  0.82648800  0.66382700  1
  Fe  Fe2  1  0.92916000  0.17853900  0.33877200  1
  Fe  Fe3  1  0.57600000  0.32588600  0.66272300  1
  B  B0  1  0.77446300  0.02463200  0.06613100  1
  B  B1  1  0.27307200  0.52281300  0.06177300  1
  B  B2  1  0.72607600  0.47624200  0.93677600  1
  B  B3  1  0.22722900  0.97687900  0.93782800  1
  S  S0  1  0.69284900  0.44276700  0.41981000  1
  S  S1  1  0.19180600  0.94212800  0.41913900  1
  S  S2  1  0.80567800  0.05497800  0.57980900  1
  S  S3  1  0.30753300  0.55842000  0.57976400  1
  O  O0  1  0.31491700  0.06443800  0.08720300  1
  O  O1  1  0.81234600  0.56249300  0.08635100  1
  O  O2  1  0.18571700  0.43537300  0.91241600  1
  O  O3  1  0.68881300  0.93924100  0.91596300  1
  O  O4  1  0.92712500  0.17774900  0.13775600  1
  O  O5  1  0.42544700  0.67443800  0.13310400  1
  O  O6  1  0.57423700  0.32379000  0.86473700  1
  O  O7  1  0.07538400  0.82471300  0.86700300  1
  O  O8  1  0.71747300  0.96687400  0.16275400  1
  O  O9  1  0.21659200  0.46728500  0.16033500  1
  O  O10  1  0.78276200  0.53345200  0.83921700  1
  O  O11  1  0.28274200  0.03287200  0.83907700  1
  O  O12  1  0.56810200  0.31927600  0.45181600  1
  O  O13  1  0.06760300  0.81807600  0.45108700  1
  O  O14  1  0.92973800  0.17682000  0.54637700  1
  O  O15  1  0.43202700  0.68401500  0.54942100  1
  O  O16  1  0.66564500  0.91533500  0.43737800  1
  O  O17  1  0.16906400  0.41996100  0.43556200  1
  O  O18  1  0.83311400  0.58146000  0.56265500  1
  O  O19  1  0.33084200  0.08205100  0.56191800  1
  O  O20  1  0.59657700  0.52024300  0.33086600  1
  O  O21  1  0.09396600  0.01694400  0.32823000  1
  O  O22  1  0.76721000  0.34412000  0.32918100  1
  O  O23  1  0.26863500  0.84511500  0.32999600  1
  O  O24  1  0.73033900  0.15363900  0.66932800  1
  O  O25  1  0.22983000  0.65356700  0.66903300  1
  O  O26  1  0.90206700  0.97876000  0.67016600  1
  O  O27  1  0.40369400  0.48081100  0.66846100  1
loop_
_geom_bond_atom_site_label_1
_geom_bond_atom_site_label_2
_geom_bond_distance
_geom_bond_site_symmetry_2
Na0 O6 2.334572 1_554
Na0 O0 2.415096 1_555
Na0 O11 2.515702 1_554
Na0 O22 2.684798 1_555
Na0 O20 2.711707 1_555
Na0 O1 2.874482 1_555
Na1 O7 2.329838 1_554
Na1 O1 2.419367 1_455
Na1 O10 2.507300 1_454
Na1 O21 2.677806 1_565
Na1 O23 2.699558 1_555
Na1 O0 2.908617 1_565
Na2 O4 2.348553 1_556
Na2 O2 2.422769 1_655
Na2 O9 2.513421 1_656
Na2 O24 2.699891 1_555
Na2 O26 2.702387 1_545
Na2 O3 2.866538 1_545
Na3 O5 2.325704 1_556
Na3 O3 2.419613 1_555
Na3 O8 2.509278 1_556
Na3 O27 2.713870 1_555
Na3 O25 2.716089 1_555
Na3 O2 2.907446 1_555
Na4 O1 2.256964 1_555
Na4 O8 2.326139 1_555
Na4 O5 2.393145 1_555
Na4 O16 2.516059 1_555
Na4 O20 2.597423 1_555
Na4 O13 2.859018 1_655
Na5 O0 2.247868 1_555
Na5 O9 2.329046 1_555
Na5 O4 2.399964 1_455
Na5 O17 2.512717 1_555
Na5 O21 2.632759 1_555
Na5 O12 2.854832 1_555
Na6 O0 2.257182 1_565
Na6 O8 2.323694 1_555
Na6 O5 2.395554 1_555
Na6 O16 2.515282 1_555
Na6 O23 2.610105 1_555
Na6 O12 2.881879 1_565
Na7 O1 2.246697 1_555
Na7 O9 2.330848 1_655
Na7 O4 2.395842 1_555
Na7 O17 2.503780 1_655
Na7 O22 2.630024 1_555
Na7 O13 2.852499 1_655
Na8 O2 2.256841 1_555
Na8 O10 2.337328 1_455
Na8 O7 2.393902 1_555
Na8 O18 2.503045 1_455
Na8 O25 2.602875 1_555
Na8 O14 2.902548 1_455
Na9 O3 2.265333 1_545
Na9 O11 2.338953 1_555
Na9 O6 2.393829 1_555
Na9 O19 2.523808 1_555
Na9 O24 2.604596 1_555
Na9 O15 2.843752 1_545
Na10 O3 2.265909 1_555
Na10 O10 2.335300 1_555
Na10 O7 2.394771 1_655
Na10 O18 2.528024 1_555
Na10 O26 2.578262 1_555
Na10 O15 2.872837 1_555
Na11 O2 2.256790 1_555
Na11 O11 2.337870 1_555
Na11 O6 2.391653 1_555
Na11 O19 2.505432 1_555
Na11 O27 2.609593 1_555
Na11 O14 2.874202 1_455
Fe0 O9 2.046780 1_555
Fe0 O5 2.119701 1_555
Fe0 O15 2.169528 1_555
Fe0 O16 2.239573 1_555
Fe0 O23 2.261390 1_555
Fe0 O20 2.265106 1_555
Fe1 O11 2.043672 1_565
Fe1 O7 2.119724 1_555
Fe1 O13 2.169460 1_555
Fe1 O18 2.259708 1_455
Fe1 O25 2.264233 1_555
Fe1 O26 2.264707 1_455
Fe2 O8 2.081698 1_545
Fe2 O4 2.083151 1_555
Fe2 O14 2.162014 1_555
Fe2 O17 2.231472 1_655
Fe2 O21 2.262213 1_655
Fe2 O22 2.269562 1_555
Fe3 O10 2.053108 1_555
Fe3 O6 2.110967 1_555
Fe3 O12 2.156562 1_555
Fe3 O19 2.264296 1_555
Fe3 O24 2.264788 1_555
Fe3 O27 2.268660 1_555
B0 O3 1.366135 1_544
B0 O8 1.406978 1_545
B0 O4 1.409800 1_555
B1 O2 1.361454 1_554
B1 O5 1.401556 1_555
B1 O9 1.414408 1_555
B2 O1 1.361927 1_556
B2 O6 1.402673 1_555
B2 O10 1.412476 1_555
B3 O0 1.361888 1_566
B3 O7 1.401801 1_555
B3 O11 1.414166 1_565
O12 S0 1.506021 1_555
O13 S1 1.505693 1_555
O14 S2 1.503650 1_555
O15 S3 1.504455 1_555
O16 S2 1.492137 1_565
O17 S3 1.494370 1_555
O18 S0 1.492447 1_555
O19 S1 1.492078 1_545
O20 S0 1.490146 1_555
O21 S1 1.490887 1_545
O22 S0 1.489876 1_555
O23 S1 1.490420 1_555
O24 S2 1.489780 1_555
O25 S3 1.489139 1_555
O26 S2 1.490747 1_565
O27 S3 1.489069 1_555
