# generated using pymatgen
data_V3S
_symmetry_space_group_name_H-M   'P 1'
_cell_length_a   4.53016911
_cell_length_b   7.02894877
_cell_length_c   7.02894849
_cell_angle_alpha   84.03878056
_cell_angle_beta   71.20024713
_cell_angle_gamma   71.20025806
_symmetry_Int_Tables_number   1
_chemical_formula_structural   V3S
_chemical_formula_sum   'V12 S4'
_cell_volume   200.57400927
_cell_formula_units_Z   4
loop_
 _symmetry_equiv_pos_site_id
 _symmetry_equiv_pos_as_xyz
  1  'x, y, z'
loop_
 _atom_site_type_symbol
 _atom_site_label
 _atom_site_symmetry_multiplicity
 _atom_site_fract_x
 _atom_site_fract_y
 _atom_site_fract_z
 _atom_site_occupancy
  V  V0  1  0.45911337  0.00000950  0.59982393  1
  V  V1  1  0.94105207  0.59975910  0.00000440  1
  V  V2  1  0.54088663  0.40017607  0.99999050  1
  V  V3  1  0.05894793  -0.00000440  0.40024090  1
  V  V4  1  0.35747505  0.64254704  0.64253436  1
  V  V5  1  -0.00000000  0.64255846  0.35744154  1
  V  V6  1  0.00000000  0.35748703  0.64251297  1
  V  V7  1  0.64252495  0.35746564  0.35745296  1
  V  V8  1  0.67070286  0.00002285  0.18253928  1
  V  V9  1  0.14683853  0.18246991  0.99998942  1
  V  V10  1  0.32929714  0.81746072  0.99997715  1
  V  V11  1  0.85316147  0.00001058  0.81753009  1
  S  S0  1  0.21163928  0.28834965  0.28836030  1
  S  S1  1  0.50000000  0.28837494  0.71162506  1
  S  S2  1  0.50000000  0.71167420  0.28832580  1
  S  S3  1  0.78835972  0.71163970  0.71165035  1
loop_
_geom_bond_atom_site_label_1
_geom_bond_atom_site_label_2
_geom_bond_distance
_geom_bond_site_symmetry_2
S0 V3 2.329564 1_555
S0 V2 2.329624 1_554
S0 V7 2.356547 1_555
S0 V7 2.356614 1_455
S0 V8 2.363274 1_555
S0 V9 2.363514 1_554
S0 V6 2.401003 1_555
S0 V5 2.401298 1_555
S1 V2 2.329558 1_555
S1 V0 2.329559 1_555
S1 V6 2.356600 1_655
S1 V6 2.356601 1_555
S1 V9 2.363516 1_555
S1 V11 2.363517 1_555
S1 V7 2.401067 1_555
S1 V4 2.401068 1_555
S2 V1 2.329455 1_555
S2 V3 2.329455 1_565
S2 V5 2.356610 1_555
S2 V5 2.356610 1_655
S2 V8 2.363329 1_565
S2 V10 2.363329 1_554
S2 V4 2.401352 1_555
S2 V7 2.401352 1_555
S3 V1 2.329567 1_556
S3 V0 2.329622 1_565
S3 V4 2.356543 1_555
S3 V4 2.356619 1_655
S3 V10 2.363272 1_555
S3 V11 2.363516 1_565
S3 V6 2.401003 1_655
S3 V5 2.401298 1_655
