# generated using pymatgen
data_Li8BiO6
_symmetry_space_group_name_H-M   'P 1'
_cell_length_a   6.29567395
_cell_length_b   6.29567395
_cell_length_c   6.29567412
_cell_angle_alpha   53.34135915
_cell_angle_beta   53.34135915
_cell_angle_gamma   53.34135224
_symmetry_Int_Tables_number   1
_chemical_formula_structural   Li8BiO6
_chemical_formula_sum   'Li8 Bi1 O6'
_cell_volume   148.93931643
_cell_formula_units_Z   1
loop_
 _symmetry_equiv_pos_site_id
 _symmetry_equiv_pos_as_xyz
  1  'x, y, z'
loop_
 _atom_site_type_symbol
 _atom_site_label
 _atom_site_symmetry_multiplicity
 _atom_site_fract_x
 _atom_site_fract_y
 _atom_site_fract_z
 _atom_site_occupancy
  Li  Li0  1  0.77280500  0.10361100  0.48922700  1
  Li  Li1  1  0.89638900  0.51077300  0.22719500  1
  Li  Li2  1  0.51077300  0.22719500  0.89638900  1
  Li  Li3  1  0.34895900  0.34895900  0.34895900  1
  Li  Li4  1  0.65104100  0.65104100  0.65104100  1
  Li  Li5  1  0.48922700  0.77280500  0.10361100  1
  Li  Li6  1  0.10361100  0.48922700  0.77280500  1
  Li  Li7  1  0.22719500  0.89638900  0.51077300  1
  Bi  Bi0  1  0.00000000  0.00000000  0.00000000  1
  O  O0  1  0.90090800  0.24253200  0.60109700  1
  O  O1  1  0.75746800  0.39890300  0.09909200  1
  O  O2  1  0.39890300  0.09909200  0.75746800  1
  O  O3  1  0.60109700  0.90090800  0.24253200  1
  O  O4  1  0.24253200  0.60109700  0.90090800  1
  O  O5  1  0.09909200  0.75746800  0.39890300  1
loop_
_geom_bond_atom_site_label_1
_geom_bond_atom_site_label_2
_geom_bond_distance
_geom_bond_site_symmetry_2
Li0 O2 1.915624 1_555
Li0 O5 2.007866 1_645
Li0 O1 2.028447 1_555
Li0 O0 2.041435 1_555
Li1 O0 1.915624 1_555
Li1 O4 2.007866 1_654
Li1 O3 2.028447 1_555
Li1 O1 2.041435 1_555
Li2 O4 1.915624 1_555
Li2 O3 2.007866 1_546
Li2 O0 2.028447 1_555
Li2 O2 2.041435 1_555
Li3 O5 2.175281 1_555
Li3 O1 2.175281 1_555
Li3 O2 2.175281 1_555
Li3 O3 2.562346 1_545
Li3 O4 2.562346 1_554
Li3 O0 2.562346 1_455
Li4 O0 2.175281 1_555
Li4 O4 2.175281 1_555
Li4 O3 2.175281 1_555
Li4 O2 2.562346 1_565
Li4 O1 2.562346 1_556
Li4 O5 2.562346 1_655
Li5 O1 1.915624 1_555
Li5 O2 2.007866 1_564
Li5 O5 2.028447 1_555
Li5 O3 2.041435 1_555
Li6 O5 1.915624 1_555
Li6 O1 2.007866 1_456
Li6 O2 2.028447 1_555
Li6 O4 2.041435 1_555
Li7 O3 1.915624 1_555
Li7 O0 2.007866 1_465
Li7 O4 2.028447 1_555
Li7 O5 2.041435 1_555
Bi0 O1 2.276412 1_455
Bi0 O4 2.276412 1_544
Bi0 O5 2.276412 1_545
Bi0 O0 2.276412 1_454
Bi0 O2 2.276412 1_554
Bi0 O3 2.276412 1_445
