# generated using pymatgen
data_Li2V2(Si2O5)3
_symmetry_space_group_name_H-M   'P 1'
_cell_length_a   11.48096791
_cell_length_b   11.48096791
_cell_length_c   10.34981600
_cell_angle_alpha   90.00000000
_cell_angle_beta   90.00000000
_cell_angle_gamma   100.69352330
_symmetry_Int_Tables_number   1
_chemical_formula_structural   Li2V2(Si2O5)3
_chemical_formula_sum   'Li8 V8 Si24 O60'
_cell_volume   1340.54477485
_cell_formula_units_Z   4
loop_
 _symmetry_equiv_pos_site_id
 _symmetry_equiv_pos_as_xyz
  1  'x, y, z'
loop_
 _atom_site_type_symbol
 _atom_site_label
 _atom_site_symmetry_multiplicity
 _atom_site_fract_x
 _atom_site_fract_y
 _atom_site_fract_z
 _atom_site_occupancy
  Li  Li0  1  0.50346500  0.99653500  0.25000000  1
  Li  Li1  1  0.99653500  0.50346500  0.75000000  1
  Li  Li2  1  0.60467500  0.39532500  0.74443700  1
  Li  Li3  1  0.10467500  0.89532500  0.75556300  1
  Li  Li4  1  0.39532500  0.60467500  0.25556300  1
  Li  Li5  1  0.89532500  0.10467500  0.24443700  1
  Li  Li6  1  0.00346500  0.49653500  0.25000000  1
  Li  Li7  1  0.49653500  0.00346500  0.75000000  1
  V  V0  1  0.24133600  0.24133600  0.00000000  1
  V  V1  1  0.15932500  0.34067500  0.25000000  1
  V  V2  1  0.34067500  0.15932500  0.75000000  1
  V  V3  1  0.25866400  0.25866400  0.50000000  1
  V  V4  1  0.74133600  0.74133600  0.50000000  1
  V  V5  1  0.84067500  0.65932500  0.75000000  1
  V  V6  1  0.65932500  0.84067500  0.25000000  1
  V  V7  1  0.75866400  0.75866400  0.00000000  1
  Si  Si0  1  0.18323500  0.03378400  0.19421300  1
  Si  Si1  1  0.03378400  0.18323500  0.80578700  1
  Si  Si2  1  0.19931500  0.58155000  0.45918600  1
  Si  Si3  1  0.08155000  0.69931500  0.95918600  1
  Si  Si4  1  0.58155000  0.19931500  0.54081400  1
  Si  Si5  1  0.69931500  0.08155000  0.04081400  1
  Si  Si6  1  0.31676500  0.46621600  0.69421300  1
  Si  Si7  1  0.46621600  0.31676500  0.30578700  1
  Si  Si8  1  0.52523200  0.25944500  0.01265200  1
  Si  Si9  1  0.02523200  0.75944500  0.48734800  1
  Si  Si10  1  0.25944500  0.52523200  0.98734800  1
  Si  Si11  1  0.75944500  0.02523200  0.51265200  1
  Si  Si12  1  0.74055500  0.47476800  0.01265200  1
  Si  Si13  1  0.24055500  0.97476800  0.48734800  1
  Si  Si14  1  0.47476800  0.74055500  0.98734800  1
  Si  Si15  1  0.97476800  0.24055500  0.51265200  1
  Si  Si16  1  0.68323500  0.53378400  0.30578700  1
  Si  Si17  1  0.53378400  0.68323500  0.69421300  1
  Si  Si18  1  0.41845000  0.80068500  0.45918600  1
  Si  Si19  1  0.30068500  0.91845000  0.95918600  1
  Si  Si20  1  0.80068500  0.41845000  0.54081400  1
  Si  Si21  1  0.91845000  0.30068500  0.04081400  1
  Si  Si22  1  0.96621600  0.81676500  0.19421300  1
  Si  Si23  1  0.81676500  0.96621600  0.80578700  1
  O  O0  1  0.01043900  0.24445600  0.66673000  1
  O  O1  1  0.24445600  0.01043900  0.33327000  1
  O  O2  1  0.16215100  0.16675600  0.16995900  1
  O  O3  1  0.16675600  0.16215100  0.83004100  1
  O  O4  1  0.24995700  0.08970100  0.57708100  1
  O  O5  1  0.08970100  0.24995700  0.42291900  1
  O  O6  1  0.25004300  0.41029900  0.07708100  1
  O  O7  1  0.41029900  0.25004300  0.92291900  1
  O  O8  1  0.33784900  0.33324400  0.66995900  1
  O  O9  1  0.33324400  0.33784900  0.33004100  1
  O  O10  1  0.15688000  0.51365700  0.32805400  1
  O  O11  1  0.01365700  0.65688000  0.82805400  1
  O  O12  1  0.51365700  0.15688000  0.67194600  1
  O  O13  1  0.65688000  0.01365700  0.17194600  1
  O  O14  1  0.22625200  0.49742800  0.58067100  1
  O  O15  1  0.99742800  0.72625200  0.08067100  1
  O  O16  1  0.72625200  0.99742800  0.91932900  1
  O  O17  1  0.49742800  0.22625200  0.41932900  1
  O  O18  1  0.65179900  0.09777100  0.48488600  1
  O  O19  1  0.09777100  0.65179900  0.51511400  1
  O  O20  1  0.15179900  0.59777100  0.01511400  1
  O  O21  1  0.59777100  0.15179900  0.98488600  1
  O  O22  1  0.48956100  0.25554400  0.16673000  1
  O  O23  1  0.25554400  0.48956100  0.83327000  1
  O  O24  1  0.94593800  0.05406200  0.81461300  1
  O  O25  1  0.61597000  0.38403000  0.97148000  1
  O  O26  1  0.32540400  0.67459600  0.42468300  1
  O  O27  1  0.05406200  0.94593800  0.18538700  1
  O  O28  1  0.17459600  0.82540400  0.92468300  1
  O  O29  1  0.11597000  0.88403000  0.52852000  1
  O  O30  1  0.38403000  0.61597000  0.02852000  1
  O  O31  1  0.44593800  0.55406200  0.68538700  1
  O  O32  1  0.55406200  0.44593800  0.31461300  1
  O  O33  1  0.88403000  0.11597000  0.47148000  1
  O  O34  1  0.67459600  0.32540400  0.57531700  1
  O  O35  1  0.82540400  0.17459600  0.07531700  1
  O  O36  1  0.74445600  0.51043900  0.16673000  1
  O  O37  1  0.51043900  0.74445600  0.83327000  1
  O  O38  1  0.84820100  0.40222900  0.98488600  1
  O  O39  1  0.40222900  0.84820100  0.01511400  1
  O  O40  1  0.34820100  0.90222900  0.51511400  1
  O  O41  1  0.90222900  0.34820100  0.48488600  1
  O  O42  1  0.00257200  0.27374800  0.91932900  1
  O  O43  1  0.50257200  0.77374800  0.58067100  1
  O  O44  1  0.27374800  0.00257200  0.08067100  1
  O  O45  1  0.77374800  0.50257200  0.41932900  1
  O  O46  1  0.34312000  0.98634300  0.82805400  1
  O  O47  1  0.48634300  0.84312000  0.32805400  1
  O  O48  1  0.84312000  0.48634300  0.67194600  1
  O  O49  1  0.98634300  0.34312000  0.17194600  1
  O  O50  1  0.66215100  0.66675600  0.33004100  1
  O  O51  1  0.66675600  0.66215100  0.66995900  1
  O  O52  1  0.74995700  0.58970100  0.92291900  1
  O  O53  1  0.58970100  0.74995700  0.07708100  1
  O  O54  1  0.91029900  0.75004300  0.57708100  1
  O  O55  1  0.75004300  0.91029900  0.42291900  1
  O  O56  1  0.83324400  0.83784900  0.16995900  1
  O  O57  1  0.83784900  0.83324400  0.83004100  1
  O  O58  1  0.75554400  0.98956100  0.66673000  1
  O  O59  1  0.98956100  0.75554400  0.33327000  1
loop_
_geom_bond_atom_site_label_1
_geom_bond_atom_site_label_2
_geom_bond_distance
_geom_bond_site_symmetry_2
Li0 O13 1.914452 1_565
Li0 O47 1.914452 1_555
Li1 O11 1.914452 1_655
Li1 O48 1.914452 1_555
Li2 O34 2.142841 1_555
Li2 O25 2.358322 1_555
Li3 O28 2.142841 1_555
Li3 O29 2.358322 1_555
Li4 O26 2.142841 1_555
Li4 O30 2.358322 1_555
Li5 O35 2.142841 1_555
Li5 O33 2.358322 1_555
Li6 O10 1.914452 1_555
Li6 O49 1.914452 1_455
Li7 O12 1.914452 1_555
Li7 O46 1.914452 1_545
O0 Si15 1.644968 1_455
O0 Si1 1.645333 1_555
O1 Si13 1.644968 1_545
O1 Si0 1.645333 1_555
O2 Si0 1.609162 1_555
O2 V0 2.089262 1_555
O2 V1 2.167580 1_555
O3 Si1 1.609162 1_555
O3 V0 2.089262 1_556
O3 V2 2.167580 1_555
O4 Si13 1.600782 1_545
O4 V3 2.082672 1_555
O4 V2 2.148891 1_555
O5 Si15 1.600782 1_455
O5 V3 2.082672 1_555
O5 V1 2.148891 1_555
O6 Si10 1.600782 1_554
O6 V0 2.082672 1_555
O6 V1 2.148891 1_555
O7 Si8 1.600782 1_556
O7 V0 2.082672 1_556
O7 V2 2.148891 1_555
O8 Si6 1.609162 1_555
O8 V3 2.089262 1_555
O8 V2 2.167580 1_555
O9 Si7 1.609162 1_555
O9 V3 2.089262 1_555
O9 V1 2.167580 1_555
O10 Si2 1.595613 1_555
O10 V1 2.149020 1_555
O11 Si3 1.595613 1_555
O11 V5 2.149020 1_455
O12 Si4 1.595613 1_555
O12 V2 2.149020 1_555
O13 Si5 1.595613 1_555
O13 V6 2.149020 1_545
O14 Si2 1.649298 1_555
O14 Si6 1.651498 1_555
O15 Si3 1.649298 1_654
O15 Si22 1.651498 1_555
O16 Si5 1.649298 1_566
O16 Si23 1.651498 1_555
O17 Si4 1.649298 1_555
O17 Si7 1.651498 1_555
O18 Si11 1.638762 1_555
O18 Si4 1.641229 1_555
O19 Si9 1.638762 1_555
O19 Si2 1.641229 1_555
O20 Si10 1.638762 1_554
O20 Si3 1.641229 1_554
O21 Si8 1.638762 1_556
O21 Si5 1.641229 1_556
O22 Si8 1.644968 1_555
O22 Si7 1.645333 1_555
O23 Si10 1.644968 1_555
O23 Si6 1.645333 1_555
O24 Si23 1.633963 1_545
O24 Si1 1.633963 1_655
O25 Si12 1.661257 1_556
O25 Si8 1.661257 1_556
O26 Si18 1.670452 1_555
O26 Si2 1.670452 1_555
O27 Si22 1.633963 1_455
O27 Si0 1.633963 1_565
O28 Si19 1.670452 1_555
O28 Si3 1.670452 1_555
O29 Si9 1.661257 1_555
O29 Si13 1.661257 1_555
O30 Si14 1.661257 1_554
O30 Si10 1.661257 1_554
O31 Si17 1.633963 1_555
O31 Si6 1.633963 1_555
O32 Si7 1.633963 1_555
O32 Si16 1.633963 1_555
O33 Si15 1.661257 1_555
O33 Si11 1.661257 1_555
O34 Si20 1.670452 1_555
O34 Si4 1.670452 1_555
O35 Si21 1.670452 1_555
O35 Si5 1.670452 1_555
O36 Si12 1.644968 1_555
O36 Si16 1.645333 1_555
O37 Si14 1.644968 1_555
O37 Si17 1.645333 1_555
O38 Si12 1.638762 1_556
O38 Si21 1.641229 1_556
O39 Si14 1.638762 1_554
O39 Si19 1.641229 1_554
O40 Si13 1.638762 1_555
O40 Si18 1.641229 1_555
O41 Si15 1.638762 1_555
O41 Si20 1.641229 1_555
O42 Si21 1.649298 1_456
O42 Si1 1.651498 1_555
O43 Si18 1.649298 1_555
O43 Si17 1.651498 1_555
O44 Si19 1.649298 1_544
O44 Si0 1.651498 1_555
O45 Si20 1.649298 1_555
O45 Si16 1.651498 1_555
O46 Si19 1.595613 1_555
O46 V2 2.149020 1_565
O47 Si18 1.595613 1_555
O47 V6 2.149020 1_555
O48 Si20 1.595613 1_555
O48 V5 2.149020 1_555
O49 Si21 1.595613 1_555
O49 V1 2.149020 1_655
O50 Si16 1.609162 1_555
O50 V4 2.089262 1_555
O50 V6 2.167580 1_555
O51 Si17 1.609162 1_555
O51 V4 2.089262 1_555
O51 V5 2.167580 1_555
O52 Si12 1.600782 1_556
O52 V7 2.082672 1_556
O52 V5 2.148891 1_555
O53 Si14 1.600782 1_554
O53 V7 2.082672 1_555
O53 V6 2.148891 1_555
O54 Si9 1.600782 1_655
O54 V4 2.082672 1_555
O54 V5 2.148891 1_555
O55 Si11 1.600782 1_565
O55 V4 2.082672 1_555
O55 V6 2.148891 1_555
O56 Si22 1.609162 1_555
O56 V7 2.089262 1_555
O56 V6 2.167580 1_555
O57 Si23 1.609162 1_555
O57 V7 2.089262 1_556
O57 V5 2.167580 1_555
O58 Si11 1.644968 1_565
O58 Si23 1.645333 1_555
O59 Si9 1.644968 1_655
O59 Si22 1.645333 1_555
