# generated using pymatgen
data_Li2Fe3SbO8
_symmetry_space_group_name_H-M   'P 1'
_cell_length_a   6.00636776
_cell_length_b   6.00636776
_cell_length_c   9.77889800
_cell_angle_alpha   90.00000000
_cell_angle_beta   90.00000000
_cell_angle_gamma   119.99999740
_symmetry_Int_Tables_number   1
_chemical_formula_structural   Li2Fe3SbO8
_chemical_formula_sum   'Li4 Fe6 Sb2 O16'
_cell_volume   305.52334446
_cell_formula_units_Z   2
loop_
 _symmetry_equiv_pos_site_id
 _symmetry_equiv_pos_as_xyz
  1  'x, y, z'
loop_
 _atom_site_type_symbol
 _atom_site_label
 _atom_site_symmetry_multiplicity
 _atom_site_fract_x
 _atom_site_fract_y
 _atom_site_fract_z
 _atom_site_occupancy
  Li  Li0  1  0.33333300  0.66666700  0.90284400  1
  Li  Li1  1  0.00000000  0.00000000  0.98860200  1
  Li  Li2  1  0.00000000  0.00000000  0.48860200  1
  Li  Li3  1  0.66666700  0.33333300  0.40284400  1
  Fe  Fe0  1  0.17025700  0.82974300  0.21324500  1
  Fe  Fe1  1  0.17025700  0.34051500  0.21324500  1
  Fe  Fe2  1  0.65948500  0.82974300  0.21324500  1
  Fe  Fe3  1  0.34051500  0.17025700  0.71324500  1
  Fe  Fe4  1  0.82974300  0.65948500  0.71324500  1
  Fe  Fe5  1  0.82974300  0.17025700  0.71324500  1
  Sb  Sb0  1  0.33333300  0.66666700  0.48624100  1
  Sb  Sb1  1  0.66666700  0.33333300  0.98624100  1
  O  O0  1  0.16773900  0.83226100  0.59528200  1
  O  O1  1  0.03667900  0.51834000  0.34707700  1
  O  O2  1  0.33333300  0.66666700  0.10699900  1
  O  O3  1  0.00000000  0.00000000  0.30240200  1
  O  O4  1  0.00000000  0.00000000  0.80240200  1
  O  O5  1  0.16773900  0.33547800  0.59528200  1
  O  O6  1  0.48166000  0.96332100  0.34707700  1
  O  O7  1  0.48166000  0.51834000  0.34707700  1
  O  O8  1  0.33547800  0.16773900  0.09528200  1
  O  O9  1  0.66452200  0.83226100  0.59528200  1
  O  O10  1  0.51834000  0.48166000  0.84707700  1
  O  O11  1  0.51834000  0.03667900  0.84707700  1
  O  O12  1  0.66666700  0.33333300  0.60699900  1
  O  O13  1  0.83226100  0.66452200  0.09528200  1
  O  O14  1  0.96332100  0.48166000  0.84707700  1
  O  O15  1  0.83226100  0.16773900  0.09528200  1
loop_
_geom_bond_atom_site_label_1
_geom_bond_atom_site_label_2
_geom_bond_distance
_geom_bond_site_symmetry_2
Li0 O2 1.996411 1_556
Li0 O11 2.000446 1_565
Li0 O14 2.000446 1_455
Li0 O10 2.000456 1_555
Li1 O4 1.820831 1_555
Li1 O15 2.033095 1_456
Li1 O8 2.033095 1_556
Li1 O13 2.033095 1_446
Li2 O3 1.820831 1_555
Li2 O0 2.033095 1_545
Li2 O5 2.033095 1_555
Li2 O9 2.033095 1_445
Li3 O12 1.996411 1_555
Li3 O1 2.000446 1_655
Li3 O6 2.000446 1_545
Li3 O7 2.000456 1_555
Fe0 O3 1.974190 1_565
Fe0 O2 1.989393 1_555
Fe0 O1 2.086679 1_555
Fe0 O6 2.086679 1_555
Fe0 O13 2.102916 1_455
Fe0 O8 2.102916 1_565
Fe1 O3 1.974195 1_555
Fe1 O2 1.989393 1_555
Fe1 O1 2.086679 1_555
Fe1 O7 2.086679 1_555
Fe1 O15 2.102916 1_455
Fe1 O8 2.102920 1_555
Fe2 O3 1.974195 1_665
Fe2 O2 1.989393 1_555
Fe2 O6 2.086679 1_555
Fe2 O7 2.086679 1_555
Fe2 O15 2.102916 1_565
Fe2 O13 2.102920 1_555
Fe3 O4 1.974195 1_555
Fe3 O12 1.989393 1_555
Fe3 O11 2.086679 1_555
Fe3 O10 2.086679 1_555
Fe3 O0 2.102916 1_545
Fe3 O5 2.102920 1_555
Fe4 O4 1.974195 1_665
Fe4 O12 1.989393 1_555
Fe4 O14 2.086679 1_555
Fe4 O10 2.086679 1_555
Fe4 O0 2.102916 1_655
Fe4 O9 2.102920 1_555
Fe5 O4 1.974190 1_655
Fe5 O12 1.989393 1_555
Fe5 O11 2.086679 1_555
Fe5 O14 2.086679 1_555
Fe5 O9 2.102916 1_545
Fe5 O5 2.102916 1_655
O0 Sb0 2.026029 1_555
O1 Sb0 2.057453 1_555
O5 Sb0 2.026034 1_555
O6 Sb0 2.057453 1_555
O7 Sb0 2.057453 1_555
O8 Sb1 2.026034 1_554
O9 Sb0 2.026034 1_555
O10 Sb1 2.057453 1_555
O11 Sb1 2.057453 1_555
O13 Sb1 2.026034 1_554
O14 Sb1 2.057453 1_555
O15 Sb1 2.026029 1_554
