# generated using pymatgen
data_Li4VNi3O8
_symmetry_space_group_name_H-M   'P 1'
_cell_length_a   10.18398351
_cell_length_b   10.18661794
_cell_length_c   14.40678611
_cell_angle_alpha   19.46017880
_cell_angle_beta   19.45136222
_cell_angle_gamma   33.51697622
_symmetry_Int_Tables_number   1
_chemical_formula_structural   Li4VNi3O8
_chemical_formula_sum   'Li4 V1 Ni3 O8'
_cell_volume   143.71138177
_cell_formula_units_Z   1
loop_
 _symmetry_equiv_pos_site_id
 _symmetry_equiv_pos_as_xyz
  1  'x, y, z'
loop_
 _atom_site_type_symbol
 _atom_site_label
 _atom_site_symmetry_multiplicity
 _atom_site_fract_x
 _atom_site_fract_y
 _atom_site_fract_z
 _atom_site_occupancy
  Li  Li0  1  0.99349200  0.00335700  0.50019300  1
  Li  Li1  1  0.99971200  0.49412700  0.50220700  1
  Li  Li2  1  0.49859900  0.99310400  0.50547200  1
  Li  Li3  1  0.49751500  0.49835900  0.50338400  1
  V  V0  1  0.00524900  0.00440100  0.99326300  1
  Ni  Ni0  1  0.00122600  0.49617100  0.00123200  1
  Ni  Ni1  1  0.50615700  0.00039500  0.99497300  1
  Ni  Ni2  1  0.50236100  0.49936900  0.99765500  1
  O  O0  1  0.00736500  0.99859200  0.25635800  1
  O  O1  1  0.00224800  0.53175300  0.23284500  1
  O  O2  1  0.53917900  0.99761900  0.23142500  1
  O  O3  1  0.00098800  0.99917700  0.73814000  1
  O  O4  1  0.46808800  0.46172900  0.30224900  1
  O  O5  1  0.00345400  0.46492100  0.76384600  1
  O  O6  1  0.46490500  0.99672300  0.76858500  1
  O  O7  1  0.53912400  0.53554000  0.69315700  1
loop_
_geom_bond_atom_site_label_1
_geom_bond_atom_site_label_2
_geom_bond_distance
_geom_bond_site_symmetry_2
Li0 O6 2.189534 1_545
Li0 O1 2.207492 1_655
Li0 O7 2.231523 1_654
Li0 O4 2.235186 1_546
Li0 O5 2.243565 1_645
Li0 O2 2.277005 1_645
Li1 O7 2.074154 1_555
Li1 O6 2.082969 1_654
Li1 O2 2.093122 1_546
Li1 O4 2.101047 1_655
Li1 O3 2.152005 1_645
Li1 O0 2.186991 1_655
Li2 O1 2.073249 1_556
Li2 O7 2.082645 1_555
Li2 O4 2.084009 1_565
Li2 O5 2.112570 1_664
Li2 O3 2.180523 1_555
Li2 O0 2.183104 1_655
Li3 O2 2.069620 1_555
Li3 O5 2.086805 1_555
Li3 O1 2.088562 1_655
Li3 O6 2.107132 1_545
Li3 O0 2.150743 1_546
Li3 O3 2.193842 1_654
Ni0 O0 1.994529 1_545
Ni0 O3 1.998528 1_554
Ni0 O4 2.076584 1_455
Ni0 O7 2.079307 1_554
Ni0 O6 2.081627 1_445
Ni0 O2 2.087038 1_554
Ni1 O3 1.975969 1_645
Ni1 O0 1.983824 1_546
Ni1 O1 2.072045 1_655
Ni1 O7 2.082426 1_555
Ni1 O5 2.083943 1_546
Ni1 O4 2.088191 1_546
Ni2 O0 1.995250 1_655
Ni2 O3 1.998570 1_546
Ni2 O1 2.071567 1_556
Ni2 O6 2.080094 1_555
Ni2 O2 2.081384 1_546
Ni2 O5 2.082670 1_655
O1 V0 1.950397 1_564
O2 V0 1.921873 1_664
O4 V0 1.921694 1_555
O5 V0 1.914085 1_555
O6 V0 1.920550 1_565
O7 V0 1.933929 1_664
