# generated using pymatgen
data_Li3VO3F2
_symmetry_space_group_name_H-M   'P 1'
_cell_length_a   5.02994300
_cell_length_b   5.17370190
_cell_length_c   7.72491695
_cell_angle_alpha   71.18922846
_cell_angle_beta   71.17258094
_cell_angle_gamma   78.35320581
_symmetry_Int_Tables_number   1
_chemical_formula_structural   Li3VO3F2
_chemical_formula_sum   'Li6 V2 O6 F4'
_cell_volume   179.03331169
_cell_formula_units_Z   2
loop_
 _symmetry_equiv_pos_site_id
 _symmetry_equiv_pos_as_xyz
  1  'x, y, z'
loop_
 _atom_site_type_symbol
 _atom_site_label
 _atom_site_symmetry_multiplicity
 _atom_site_fract_x
 _atom_site_fract_y
 _atom_site_fract_z
 _atom_site_occupancy
  Li  Li0  1  0.48350300  0.42906400  0.70342500  1
  Li  Li1  1  0.54531500  0.98683400  0.51062600  1
  Li  Li2  1  0.54024400  0.78943900  0.90056200  1
  Li  Li3  1  0.99273100  0.28841100  0.39848700  1
  Li  Li4  1  0.47079500  0.21662000  0.10010100  1
  Li  Li5  1  0.49534800  0.58883100  0.30494800  1
  V  V0  1  0.98655300  0.83860200  0.19177700  1
  V  V1  1  0.02392700  0.13180400  0.77391700  1
  O  O0  1  0.19382600  0.12097800  0.95791400  1
  O  O1  1  0.76692800  0.67596300  0.41314600  1
  O  O2  1  0.78103100  0.06475900  0.67858300  1
  O  O3  1  0.24395700  0.57223900  0.15465600  1
  O  O4  1  0.24043200  0.32526100  0.57656700  1
  O  O5  1  0.76688200  0.86361700  0.04876400  1
  F  F0  1  0.73146900  0.42374100  0.85530700  1
  F  F1  1  0.22807800  0.96752000  0.31685200  1
  F  F2  1  0.28179800  0.79082000  0.73963400  1
  F  F3  1  0.72476700  0.22425700  0.26979000  1
loop_
_geom_bond_atom_site_label_1
_geom_bond_atom_site_label_2
_geom_bond_distance
_geom_bond_site_symmetry_2
Li0 O4 2.030128 1_555
Li0 O2 2.176693 1_555
Li0 O1 2.348849 1_555
Li0 O0 2.365709 1_555
Li1 O1 1.977828 1_555
Li1 O4 2.159584 1_565
Li1 O2 2.185148 1_565
Li2 O5 2.014906 1_556
Li2 O2 2.053582 1_565
Li2 O3 2.168465 1_556
Li2 O0 2.227042 1_565
Li3 O1 2.113547 1_555
Li3 O2 2.133136 1_555
Li3 O3 2.174910 1_655
Li3 O4 2.202813 1_655
Li4 O3 2.051011 1_555
Li4 O5 2.167590 1_545
Li4 O0 2.237992 1_554
Li5 O1 1.999101 1_555
Li5 O3 2.002455 1_555
Li5 O5 2.242323 1_555
Li5 O4 2.242870 1_555
O0 V1 1.862000 1_555
O0 V0 2.045052 1_446
O1 V0 1.755210 1_555
O2 V1 1.752694 1_655
O3 V0 1.718276 1_455
O4 V1 1.701872 1_555
O5 V0 1.759564 1_555
O5 V1 2.271001 1_664
F0 Li0 1.960303 1_555
F0 V1 1.989706 1_655
F0 Li2 2.025298 1_555
F0 Li4 2.025729 1_556
F1 Li4 1.969581 1_565
F1 Li3 1.988744 1_465
F1 V0 2.086775 1_455
F1 Li5 2.151104 1_555
F2 Li1 1.946081 1_555
F2 Li0 1.999573 1_555
F2 V1 2.005109 1_565
F2 Li2 2.066154 1_555
F3 Li1 1.916996 1_545
F3 Li3 2.042924 1_555
F3 Li5 2.052412 1_555
F3 Li4 2.118102 1_555
F3 V0 2.297956 1_545
