# generated using pymatgen
data_Na3SnPCO7
_symmetry_space_group_name_H-M   'P 1'
_cell_length_a   7.17056800
_cell_length_b   5.29637600
_cell_length_c   9.43083449
_cell_angle_alpha   87.93904631
_cell_angle_beta   90.00000000
_cell_angle_gamma   90.00000000
_symmetry_Int_Tables_number   1
_chemical_formula_structural   Na3SnPCO7
_chemical_formula_sum   'Na6 Sn2 P2 C2 O14'
_cell_volume   357.93277651
_cell_formula_units_Z   2
loop_
 _symmetry_equiv_pos_site_id
 _symmetry_equiv_pos_as_xyz
  1  'x, y, z'
loop_
 _atom_site_type_symbol
 _atom_site_label
 _atom_site_symmetry_multiplicity
 _atom_site_fract_x
 _atom_site_fract_y
 _atom_site_fract_z
 _atom_site_occupancy
  Na  Na0  1  0.25000000  0.77770500  0.91716000  1
  Na  Na1  1  0.00430800  0.24018100  0.75025000  1
  Na  Na2  1  0.49569200  0.24018100  0.75025000  1
  Na  Na3  1  0.50430800  0.75981900  0.24975000  1
  Na  Na4  1  0.99569200  0.75981900  0.24975000  1
  Na  Na5  1  0.75000000  0.22229500  0.08284000  1
  Sn  Sn0  1  0.75000000  0.76417400  0.62889400  1
  Sn  Sn1  1  0.25000000  0.23582600  0.37110600  1
  P  P0  1  0.25000000  0.72333700  0.60501300  1
  P  P1  1  0.75000000  0.27666300  0.39498700  1
  C  C0  1  0.75000000  0.73254100  0.94552900  1
  C  C1  1  0.25000000  0.26745900  0.05447100  1
  O  O0  1  0.25000000  0.25723200  0.91830100  1
  O  O1  1  0.75000000  0.94462800  0.86802200  1
  O  O2  1  0.75000000  0.51523200  0.88423700  1
  O  O3  1  0.07715000  0.82989300  0.68413300  1
  O  O4  1  0.42285000  0.82989300  0.68413300  1
  O  O5  1  0.25000000  0.43167700  0.61677000  1
  O  O6  1  0.75000000  0.19094100  0.55742900  1
  O  O7  1  0.25000000  0.80905900  0.44257100  1
  O  O8  1  0.75000000  0.56832300  0.38323000  1
  O  O9  1  0.57715000  0.17010700  0.31586700  1
  O  O10  1  0.92285000  0.17010700  0.31586700  1
  O  O11  1  0.25000000  0.48476800  0.11576300  1
  O  O12  1  0.25000000  0.05537200  0.13197800  1
  O  O13  1  0.75000000  0.74276800  0.08169900  1
loop_
_geom_bond_atom_site_label_1
_geom_bond_atom_site_label_2
_geom_bond_distance
_geom_bond_site_symmetry_2
Na0 O11 2.388777 1_556
Na0 O3 2.529530 1_555
Na0 O4 2.529530 1_555
Na0 O0 2.540165 1_565
Na0 O12 2.545852 1_566
Na0 O0 2.756255 1_555
Na1 O3 2.341191 1_545
Na1 O5 2.371762 1_555
Na1 O0 2.373605 1_555
Na1 O6 2.595034 1_455
Na1 O1 2.623776 1_445
Na1 O2 2.678912 1_455
Na2 O4 2.341191 1_545
Na2 O5 2.371762 1_555
Na2 O0 2.373605 1_555
Na2 O6 2.595034 1_555
Na2 O1 2.623776 1_545
Na2 O2 2.678912 1_555
Na3 O9 2.341191 1_565
Na3 O8 2.371762 1_555
Na3 O13 2.373605 1_555
Na3 O7 2.595034 1_555
Na3 O12 2.623776 1_565
Na3 O11 2.678912 1_555
Na4 O10 2.341191 1_565
Na4 O8 2.371762 1_555
Na4 O13 2.373605 1_555
Na4 O7 2.595034 1_655
Na4 O12 2.623776 1_665
Na4 O11 2.678912 1_655
Na5 O2 2.388777 1_554
Na5 O9 2.529530 1_555
Na5 O10 2.529530 1_555
Na5 O13 2.540165 1_545
Na5 O1 2.545852 1_544
Na5 O13 2.756255 1_555
C0 O13 1.287283 1_556
C0 O2 1.306393 1_555
C0 O1 1.317963 1_555
C1 O0 1.287283 1_554
C1 O11 1.306393 1_555
C1 O12 1.317963 1_555
O1 Sn0 2.480788 1_555
O2 Sn0 2.703513 1_555
O3 P0 1.562610 1_555
O3 Sn0 2.430762 1_455
O4 P0 1.562610 1_555
O4 Sn0 2.430762 1_555
O5 P0 1.544733 1_555
O5 Sn1 2.572253 1_555
O6 P1 1.582092 1_555
O6 Sn0 2.335318 1_545
O7 P0 1.582092 1_555
O7 Sn1 2.335318 1_565
O8 P1 1.544733 1_555
O8 Sn0 2.572253 1_555
O9 P1 1.562610 1_555
O9 Sn1 2.430762 1_555
O10 P1 1.562610 1_555
O10 Sn1 2.430762 1_655
O11 Sn1 2.703513 1_555
O12 Sn1 2.480788 1_555
