# generated using pymatgen
data_Li4Cu3SbO8
_symmetry_space_group_name_H-M   'P 1'
_cell_length_a   5.97928208
_cell_length_b   5.97928208
_cell_length_c   5.97928184
_cell_angle_alpha   60.56453809
_cell_angle_beta   60.56453809
_cell_angle_gamma   60.56453285
_symmetry_Int_Tables_number   1
_chemical_formula_structural   Li4Cu3SbO8
_chemical_formula_sum   'Li4 Cu3 Sb1 O8'
_cell_volume   153.08607231
_cell_formula_units_Z   1
loop_
 _symmetry_equiv_pos_site_id
 _symmetry_equiv_pos_as_xyz
  1  'x, y, z'
loop_
 _atom_site_type_symbol
 _atom_site_label
 _atom_site_symmetry_multiplicity
 _atom_site_fract_x
 _atom_site_fract_y
 _atom_site_fract_z
 _atom_site_occupancy
  Li  Li0  1  0.50000000  0.50000000  0.50000000  1
  Li  Li1  1  0.50000000  0.00000000  0.00000000  1
  Li  Li2  1  0.00000000  0.00000000  0.50000000  1
  Li  Li3  1  0.00000000  0.50000000  0.00000000  1
  Cu  Cu0  1  0.00000000  0.50000000  0.50000000  1
  Cu  Cu1  1  0.50000000  0.50000000  0.00000000  1
  Cu  Cu2  1  0.50000000  0.00000000  0.50000000  1
  Sb  Sb0  1  0.00000000  0.00000000  0.00000000  1
  O  O0  1  0.73300800  0.73300800  0.73300800  1
  O  O1  1  0.76857600  0.23679800  0.23679800  1
  O  O2  1  0.23679800  0.23679800  0.76857600  1
  O  O3  1  0.26699200  0.26699200  0.26699200  1
  O  O4  1  0.23679800  0.76857600  0.23679800  1
  O  O5  1  0.23142400  0.76320200  0.76320200  1
  O  O6  1  0.76320200  0.76320200  0.23142400  1
  O  O7  1  0.76320200  0.23142400  0.76320200  1
loop_
_geom_bond_atom_site_label_1
_geom_bond_atom_site_label_2
_geom_bond_distance
_geom_bond_site_symmetry_2
Li0 O5 2.235751 1_555
Li0 O7 2.235751 1_555
Li0 O1 2.235751 1_555
Li0 O4 2.235751 1_555
Li0 O6 2.235752 1_555
Li0 O2 2.235752 1_555
Li1 O6 2.102570 1_545
Li1 O2 2.102570 1_554
Li1 O7 2.102571 1_554
Li1 O4 2.102571 1_545
Li1 O0 2.273966 1_544
Li1 O3 2.273966 1_555
Li2 O7 2.102570 1_455
Li2 O5 2.102570 1_545
Li2 O4 2.102570 1_545
Li2 O1 2.102570 1_455
Li2 O3 2.273966 1_555
Li2 O0 2.273966 1_445
Li3 O6 2.102570 1_455
Li3 O2 2.102570 1_554
Li3 O5 2.102571 1_554
Li3 O1 2.102571 1_455
Li3 O3 2.273966 1_555
Li3 O0 2.273966 1_454
Cu0 O0 1.991564 1_455
Cu0 O3 1.991564 1_555
Cu0 O2 2.149654 1_555
Cu0 O6 2.149654 1_455
Cu0 O4 2.149654 1_555
Cu0 O7 2.149654 1_455
Cu1 O0 1.991564 1_554
Cu1 O3 1.991564 1_555
Cu1 O1 2.149654 1_555
Cu1 O4 2.149654 1_555
Cu1 O7 2.149654 1_554
Cu1 O5 2.149654 1_554
Cu2 O0 1.991564 1_545
Cu2 O3 1.991564 1_555
Cu2 O2 2.149654 1_555
Cu2 O6 2.149654 1_545
Cu2 O1 2.149654 1_555
Cu2 O5 2.149654 1_545
O1 Sb0 2.010778 1_655
O2 Sb0 2.010778 1_556
O4 Sb0 2.010778 1_565
O5 Sb0 2.010778 1_566
O6 Sb0 2.010778 1_665
O7 Sb0 2.010778 1_656
