# generated using pymatgen
data_LiMnF4
_symmetry_space_group_name_H-M   'P 1'
_cell_length_a   5.29789100
_cell_length_b   6.97704200
_cell_length_c   8.82994500
_cell_angle_alpha   90.00000000
_cell_angle_beta   90.00000000
_cell_angle_gamma   90.00000000
_symmetry_Int_Tables_number   1
_chemical_formula_structural   LiMnF4
_chemical_formula_sum   'Li4 Mn4 F16'
_cell_volume   326.38662580
_cell_formula_units_Z   4
loop_
 _symmetry_equiv_pos_site_id
 _symmetry_equiv_pos_as_xyz
  1  'x, y, z'
loop_
 _atom_site_type_symbol
 _atom_site_label
 _atom_site_symmetry_multiplicity
 _atom_site_fract_x
 _atom_site_fract_y
 _atom_site_fract_z
 _atom_site_occupancy
  Li  Li0  1  0.18590200  0.75000000  0.25000000  1
  Li  Li1  1  0.31409800  0.75000000  0.75000000  1
  Li  Li2  1  0.68590200  0.25000000  0.25000000  1
  Li  Li3  1  0.81409800  0.25000000  0.75000000  1
  Mn  Mn0  1  0.25000000  0.13019700  0.00000000  1
  Mn  Mn1  1  0.25000000  0.36980300  0.50000000  1
  Mn  Mn2  1  0.75000000  0.86980300  0.00000000  1
  Mn  Mn3  1  0.75000000  0.63019700  0.50000000  1
  F  F0  1  0.06672400  0.31240200  0.89884600  1
  F  F1  1  0.06672400  0.18759800  0.60115400  1
  F  F2  1  0.10339100  0.93265700  0.87141700  1
  F  F3  1  0.10339100  0.56734300  0.62858300  1
  F  F4  1  0.39660900  0.93265700  0.12858300  1
  F  F5  1  0.39660900  0.56734300  0.37141700  1
  F  F6  1  0.43327600  0.18759800  0.39884600  1
  F  F7  1  0.43327600  0.31240200  0.10115400  1
  F  F8  1  0.56672400  0.81240200  0.60115400  1
  F  F9  1  0.56672400  0.68759800  0.89884600  1
  F  F10  1  0.60339100  0.06734300  0.87141700  1
  F  F11  1  0.60339100  0.43265700  0.62858300  1
  F  F12  1  0.89660900  0.06734300  0.12858300  1
  F  F13  1  0.89660900  0.43265700  0.37141700  1
  F  F14  1  0.93327600  0.81240200  0.39884600  1
  F  F15  1  0.93327600  0.68759800  0.10115400  1
loop_
_geom_bond_atom_site_label_1
_geom_bond_atom_site_label_2
_geom_bond_distance
_geom_bond_site_symmetry_2
F0 Mn0 1.832117 1_556
F0 Li3 1.925674 1_455
F1 Mn1 1.832117 1_555
F1 Li3 1.925674 1_455
F2 Mn0 1.947290 1_566
F2 Li1 2.004907 1_555
F2 Mn2 2.233078 1_456
F3 Mn1 1.947290 1_555
F3 Li1 2.004907 1_555
F3 Mn3 2.233078 1_455
F4 Mn0 1.947290 1_565
F4 Li0 2.004907 1_555
F4 Mn2 2.233078 1_555
F5 Mn1 1.947290 1_555
F5 Li0 2.004907 1_555
F5 Mn3 2.233078 1_555
F6 Mn1 1.832117 1_555
F6 Li2 1.925674 1_555
F7 Mn0 1.832117 1_555
F7 Li2 1.925674 1_555
F8 Mn3 1.832117 1_555
F8 Li1 1.925674 1_555
F9 Mn2 1.832117 1_556
F9 Li1 1.925674 1_555
F10 Mn2 1.947290 1_546
F10 Li3 2.004907 1_555
F10 Mn0 2.233078 1_556
F11 Mn3 1.947290 1_555
F11 Li3 2.004907 1_555
F11 Mn1 2.233078 1_555
F12 Mn2 1.947290 1_545
F12 Li2 2.004907 1_555
F12 Mn0 2.233078 1_655
F13 Mn3 1.947290 1_555
F13 Li2 2.004907 1_555
F13 Mn1 2.233078 1_655
F14 Mn3 1.832117 1_555
F14 Li0 1.925674 1_655
F15 Mn2 1.832117 1_555
F15 Li0 1.925674 1_655
