# generated using pymatgen
data_NaCeO2
_symmetry_space_group_name_H-M   'P 1'
_cell_length_a   5.98024453
_cell_length_b   5.98024453
_cell_length_c   5.98024459
_cell_angle_alpha   34.79778269
_cell_angle_beta   34.79778269
_cell_angle_gamma   34.79778987
_symmetry_Int_Tables_number   1
_chemical_formula_structural   NaCeO2
_chemical_formula_sum   'Na1 Ce1 O2'
_cell_volume   62.17111857
_cell_formula_units_Z   1
loop_
 _symmetry_equiv_pos_site_id
 _symmetry_equiv_pos_as_xyz
  1  'x, y, z'
loop_
 _atom_site_type_symbol
 _atom_site_label
 _atom_site_symmetry_multiplicity
 _atom_site_fract_x
 _atom_site_fract_y
 _atom_site_fract_z
 _atom_site_occupancy
  Na  Na0  1  0.00000000  0.00000000  0.00000000  1
  Ce  Ce0  1  0.50000000  0.50000000  0.50000000  1
  O  O0  1  0.76038100  0.76038100  0.76038100  1
  O  O1  1  0.23961900  0.23961900  0.23961900  1
loop_
_geom_bond_atom_site_label_1
_geom_bond_atom_site_label_2
_geom_bond_distance
_geom_bond_site_symmetry_2
Na0 O1 2.598740 1_554
Na0 O0 2.598740 1_445
Na0 O0 2.598740 1_544
Na0 O0 2.598740 1_454
Na0 O1 2.598740 1_545
Na0 O1 2.598740 1_455
Ce0 O0 2.402593 1_554
Ce0 O1 2.402593 1_556
Ce0 O0 2.402594 1_455
Ce0 O1 2.402594 1_655
Ce0 O1 2.402594 1_565
Ce0 O0 2.402594 1_545
