# generated using pymatgen
data_V6O5F8
_symmetry_space_group_name_H-M   'P 1'
_cell_length_a   5.10341400
_cell_length_b   4.97214200
_cell_length_c   31.02273788
_cell_angle_alpha   88.11773693
_cell_angle_beta   90.00000000
_cell_angle_gamma   90.00000000
_symmetry_Int_Tables_number   1
_chemical_formula_structural   V6O5F8
_chemical_formula_sum   'V24 O20 F32'
_cell_volume   786.77409590
_cell_formula_units_Z   4
loop_
 _symmetry_equiv_pos_site_id
 _symmetry_equiv_pos_as_xyz
  1  'x, y, z'
loop_
 _atom_site_type_symbol
 _atom_site_label
 _atom_site_symmetry_multiplicity
 _atom_site_fract_x
 _atom_site_fract_y
 _atom_site_fract_z
 _atom_site_occupancy
  V  V0  1  0.25491300  0.70586100  0.99935300  1
  V  V1  1  0.24508700  0.70586100  0.49935300  1
  V  V2  1  0.71352700  0.70931700  0.74343800  1
  V  V3  1  0.78647300  0.70931700  0.24343800  1
  V  V4  1  0.20544500  0.72893100  0.33831000  1
  V  V5  1  0.26828400  0.69253100  0.66083600  1
  V  V6  1  0.23171600  0.69253100  0.16083600  1
  V  V7  1  0.29455500  0.72893100  0.83831000  1
  V  V8  1  0.70879400  0.70858600  0.91860200  1
  V  V9  1  0.79120600  0.70858600  0.41860200  1
  V  V10  1  0.70655400  0.69660300  0.58156100  1
  V  V11  1  0.79344600  0.69660300  0.08156100  1
  V  V12  1  0.20655400  0.30339700  0.91843900  1
  V  V13  1  0.29120600  0.29141400  0.08139800  1
  V  V14  1  0.20879400  0.29141400  0.58139800  1
  V  V15  1  0.29344600  0.30339700  0.41843900  1
  V  V16  1  0.76828400  0.30746900  0.83916400  1
  V  V17  1  0.70544500  0.27106900  0.16169000  1
  V  V18  1  0.73171600  0.30746900  0.33916400  1
  V  V19  1  0.79455500  0.27106900  0.66169000  1
  V  V20  1  0.28647300  0.29068300  0.25656200  1
  V  V21  1  0.21352700  0.29068300  0.75656200  1
  V  V22  1  0.75491300  0.29413900  0.50064700  1
  V  V23  1  0.74508700  0.29413900  0.00064700  1
  O  O0  1  0.00025300  0.51459500  0.70885800  1
  O  O1  1  0.49974700  0.51459500  0.20885800  1
  O  O2  1  0.50357200  0.52717500  0.12294900  1
  O  O3  1  0.50161600  0.55012400  0.37376400  1
  O  O4  1  0.99642800  0.52717500  0.62294900  1
  O  O5  1  0.99838400  0.55012400  0.87376400  1
  O  O6  1  0.52824900  0.51987800  0.45839300  1
  O  O7  1  0.52965200  0.52048800  0.04103300  1
  O  O8  1  0.97175100  0.51987800  0.95839300  1
  O  O9  1  0.97034800  0.52048800  0.54103300  1
  O  O10  1  0.02965200  0.47951200  0.45896700  1
  O  O11  1  0.47034800  0.47951200  0.95896700  1
  O  O12  1  0.47175100  0.48012200  0.54160700  1
  O  O13  1  0.02824900  0.48012200  0.04160700  1
  O  O14  1  0.00161600  0.44987600  0.12623600  1
  O  O15  1  0.49838400  0.44987600  0.62623600  1
  O  O16  1  0.00357200  0.47282500  0.37705100  1
  O  O17  1  0.49642800  0.47282500  0.87705100  1
  O  O18  1  0.50025300  0.48540500  0.79114200  1
  O  O19  1  0.99974700  0.48540500  0.29114200  1
  F  F0  1  0.61430200  0.96662300  0.96512200  1
  F  F1  1  0.61333700  0.97203600  0.53540500  1
  F  F2  1  0.88569800  0.96662300  0.46512200  1
  F  F3  1  0.88666300  0.97203600  0.03540500  1
  F  F4  1  0.37027500  0.94571700  0.89309700  1
  F  F5  1  0.37719700  0.92959300  0.60758300  1
  F  F6  1  0.12972500  0.94571700  0.39309700  1
  F  F7  1  0.12280300  0.92959300  0.10758300  1
  F  F8  1  0.61825300  0.95164500  0.82389300  1
  F  F9  1  0.62094900  0.88972000  0.68242900  1
  F  F10  1  0.87905100  0.88972000  0.18242900  1
  F  F11  1  0.88174700  0.95164500  0.32389300  1
  F  F12  1  0.37326100  0.93230200  0.75027500  1
  F  F13  1  0.12673900  0.93230200  0.25027500  1
  F  F14  1  0.50605500  0.58146400  0.29086500  1
  F  F15  1  0.99394500  0.58146400  0.79086500  1
  F  F16  1  0.49394500  0.41853600  0.70913500  1
  F  F17  1  0.00605500  0.41853600  0.20913500  1
  F  F18  1  0.62673900  0.06769800  0.24972500  1
  F  F19  1  0.87326100  0.06769800  0.74972500  1
  F  F20  1  0.12094900  0.11028000  0.81757100  1
  F  F21  1  0.38174700  0.04835500  0.17610700  1
  F  F22  1  0.11825300  0.04835500  0.67610700  1
  F  F23  1  0.37905100  0.11028000  0.31757100  1
  F  F24  1  0.62280300  0.07040700  0.39241700  1
  F  F25  1  0.87719700  0.07040700  0.89241700  1
  F  F26  1  0.62972500  0.05428300  0.10690300  1
  F  F27  1  0.87027500  0.05428300  0.60690300  1
  F  F28  1  0.11430200  0.03337700  0.53487800  1
  F  F29  1  0.11333700  0.02796400  0.96459500  1
  F  F30  1  0.38666300  0.02796400  0.46459500  1
  F  F31  1  0.38569800  0.03337700  0.03487800  1
loop_
_geom_bond_atom_site_label_1
_geom_bond_atom_site_label_2
_geom_bond_distance
_geom_bond_site_symmetry_2
O0 V2 2.073073 1_455
O0 V21 2.122746 1_555
O0 V5 2.187842 1_555
O0 V19 2.196755 1_455
O1 V3 2.073073 1_555
O1 V20 2.122746 1_555
O1 V6 2.187842 1_555
O1 V17 2.196755 1_555
O2 V17 2.006700 1_555
O2 V6 2.011412 1_555
O2 V13 2.075956 1_555
O2 V11 2.115576 1_555
O3 V18 2.017891 1_555
O3 V4 2.054385 1_555
O3 V15 2.107779 1_555
O3 V9 2.193588 1_555
O4 V19 2.006700 1_555
O4 V5 2.011412 1_655
O4 V14 2.075956 1_655
O4 V10 2.115576 1_555
O5 V16 2.017891 1_555
O5 V7 2.054385 1_655
O5 V12 2.107779 1_655
O5 V8 2.193588 1_555
O6 V9 2.031994 1_555
O6 V15 2.053888 1_555
O6 V22 2.054149 1_555
O6 V1 2.152969 1_555
O7 V23 2.034148 1_555
O7 V11 2.057252 1_555
O7 V13 2.062160 1_555
O7 V0 2.099778 1_554
O8 V8 2.031994 1_555
O8 V12 2.053888 1_655
O8 V23 2.054149 1_556
O8 V0 2.152969 1_655
O9 V22 2.034148 1_555
O9 V10 2.057252 1_555
O9 V14 2.062160 1_655
O9 V1 2.099778 1_655
O10 V1 2.034148 1_555
O10 V15 2.057252 1_555
O10 V9 2.062160 1_455
O10 V22 2.099778 1_455
O11 V0 2.034148 1_555
O11 V12 2.057252 1_555
O11 V8 2.062160 1_555
O11 V23 2.099778 1_556
O12 V14 2.031994 1_555
O12 V10 2.053888 1_555
O12 V1 2.054149 1_555
O12 V22 2.152969 1_555
O13 V13 2.031994 1_555
O13 V11 2.053888 1_455
O13 V0 2.054149 1_554
O13 V23 2.152969 1_455
O14 V6 2.017891 1_555
O14 V17 2.054385 1_455
O14 V11 2.107779 1_455
O14 V13 2.193588 1_555
O15 V5 2.017891 1_555
O15 V19 2.054385 1_555
O15 V10 2.107779 1_555
O15 V14 2.193588 1_555
O16 V4 2.006700 1_555
O16 V18 2.011412 1_455
O16 V9 2.075956 1_455
O16 V15 2.115576 1_555
O17 V7 2.006700 1_555
O17 V16 2.011412 1_555
O17 V8 2.075956 1_555
O17 V12 2.115576 1_555
O18 V21 2.073073 1_555
O18 V2 2.122746 1_555
O18 V16 2.187842 1_555
O18 V7 2.196755 1_555
O19 V20 2.073073 1_655
O19 V3 2.122746 1_555
O19 V18 2.187842 1_555
O19 V4 2.196755 1_655
F0 V8 2.020649 1_555
F0 V23 2.104719 1_566
F0 V0 2.466224 1_555
F1 V10 2.005817 1_555
F1 V22 2.033773 1_565
F1 V1 2.575182 1_555
F2 V9 2.020649 1_555
F2 V22 2.104719 1_565
F2 V1 2.466224 1_655
F3 V11 2.005817 1_555
F3 V23 2.033773 1_565
F3 V0 2.575182 1_654
F4 V7 2.078536 1_555
F4 V12 2.137961 1_565
F4 V8 2.222507 1_555
F5 V5 2.073561 1_555
F5 V14 2.130491 1_565
F5 V10 2.209161 1_555
F6 V4 2.078536 1_555
F6 V15 2.137961 1_565
F6 V9 2.222507 1_455
F7 V6 2.073561 1_555
F7 V13 2.130491 1_565
F7 V11 2.209161 1_455
F8 V16 1.998961 1_565
F8 V7 2.030455 1_555
F9 V2 2.120960 1_555
F9 V5 2.166201 1_555
F9 V19 2.171185 1_565
F10 V3 2.120960 1_555
F10 V6 2.166201 1_655
F10 V17 2.171185 1_565
F11 V18 1.998961 1_565
F11 V4 2.030455 1_655
F12 V21 1.975006 1_565
F12 V2 2.074892 1_555
F13 V20 1.975006 1_565
F13 V3 2.074892 1_455
F14 V3 2.134353 1_555
F14 V20 2.140017 1_555
F14 V4 2.264621 1_555
F14 V18 2.300709 1_555
F15 V2 2.134353 1_555
F15 V21 2.140017 1_655
F15 V7 2.264621 1_655
F15 V16 2.300709 1_555
F16 V21 2.134353 1_555
F16 V2 2.140017 1_555
F16 V19 2.264621 1_555
F16 V5 2.300709 1_555
F17 V20 2.134353 1_555
F17 V3 2.140017 1_455
F17 V17 2.264621 1_455
F17 V6 2.300709 1_555
F18 V3 1.975006 1_545
F18 V20 2.074892 1_555
F19 V2 1.975006 1_545
F19 V21 2.074892 1_655
F20 V21 2.120960 1_555
F20 V16 2.166201 1_455
F20 V7 2.171185 1_545
F21 V6 1.998961 1_545
F21 V17 2.030455 1_555
F22 V5 1.998961 1_545
F22 V19 2.030455 1_455
F23 V20 2.120960 1_555
F23 V18 2.166201 1_555
F23 V4 2.171185 1_545
F24 V18 2.073561 1_555
F24 V9 2.130491 1_545
F24 V15 2.209161 1_555
F25 V16 2.073561 1_555
F25 V8 2.130491 1_545
F25 V12 2.209161 1_655
F26 V17 2.078536 1_555
F26 V11 2.137961 1_545
F26 V13 2.222507 1_555
F27 V19 2.078536 1_555
F27 V10 2.137961 1_545
F27 V14 2.222507 1_655
F28 V14 2.020649 1_555
F28 V1 2.104719 1_545
F28 V22 2.466224 1_455
F29 V12 2.005817 1_555
F29 V0 2.033773 1_545
F29 V23 2.575182 1_456
F30 V15 2.005817 1_555
F30 V1 2.033773 1_545
F30 V22 2.575182 1_555
F31 V13 2.020649 1_555
F31 V0 2.104719 1_544
F31 V23 2.466224 1_555
