# generated using pymatgen
data_Li3Fe2(PO4)3
_symmetry_space_group_name_H-M   'P 1'
_cell_length_a   8.60310041
_cell_length_b   8.60310041
_cell_length_c   8.54441972
_cell_angle_alpha   61.71496472
_cell_angle_beta   61.71496472
_cell_angle_gamma   61.72075628
_symmetry_Int_Tables_number   1
_chemical_formula_structural   Li3Fe2(PO4)3
_chemical_formula_sum   'Li6 Fe4 P6 O24'
_cell_volume   464.38275117
_cell_formula_units_Z   2
loop_
 _symmetry_equiv_pos_site_id
 _symmetry_equiv_pos_as_xyz
  1  'x, y, z'
loop_
 _atom_site_type_symbol
 _atom_site_label
 _atom_site_symmetry_multiplicity
 _atom_site_fract_x
 _atom_site_fract_y
 _atom_site_fract_z
 _atom_site_occupancy
  Li  Li0  1  0.49442800  0.00371900  0.22610000  1
  Li  Li1  1  0.35033600  0.64966400  0.50000000  1
  Li  Li2  1  0.99628100  0.50557200  0.77390000  1
  Li  Li3  1  0.65251000  0.34749000  0.00000000  1
  Li  Li4  1  0.24852600  0.15514100  0.59482100  1
  Li  Li5  1  0.84485900  0.75147400  0.40517900  1
  Fe  Fe0  1  0.35380200  0.86326900  0.10247200  1
  Fe  Fe1  1  0.13673100  0.64619800  0.89752800  1
  Fe  Fe2  1  0.85220000  0.35119800  0.60234500  1
  Fe  Fe3  1  0.64880200  0.14780000  0.39765500  1
  P  P0  1  0.74835200  0.55127500  0.19971300  1
  P  P1  1  0.44872500  0.25164800  0.80028700  1
  P  P2  1  0.04869900  0.95130100  0.50000000  1
  P  P3  1  0.95546000  0.04454000  0.00000000  1
  P  P4  1  0.53937600  0.74894800  0.70314400  1
  P  P5  1  0.25105200  0.46062400  0.29685600  1
  O  O0  1  0.20499300  0.50683200  0.12393900  1
  O  O1  1  0.99169900  0.88289600  0.94407100  1
  O  O2  1  0.57888100  0.73235300  0.20375100  1
  O  O3  1  0.38144800  0.69914000  0.71891700  1
  O  O4  1  0.90531200  0.57089700  0.00955600  1
  O  O5  1  0.69148400  0.38793000  0.23468200  1
  O  O6  1  0.42910300  0.09468800  0.99044400  1
  O  O7  1  0.26764700  0.42111900  0.79624900  1
  O  O8  1  0.06869200  0.75865300  0.65595600  1
  O  O9  1  0.11710400  0.00830100  0.05592900  1
  O  O10  1  0.76272700  0.06593300  0.16005100  1
  O  O11  1  0.49316800  0.79500700  0.87606100  1
  O  O12  1  0.48831700  0.18776200  0.63884200  1
  O  O13  1  0.24134700  0.93130800  0.34404400  1
  O  O14  1  0.88866000  0.98712600  0.43894700  1
  O  O15  1  0.93406700  0.23727300  0.83994900  1
  O  O16  1  0.73199600  0.58936100  0.68557300  1
  O  O17  1  0.56759900  0.91206500  0.51393700  1
  O  O18  1  0.30086000  0.61855200  0.28108300  1
  O  O19  1  0.08793500  0.43240100  0.48606300  1
  O  O20  1  0.61207000  0.30851600  0.76531800  1
  O  O21  1  0.41063900  0.26800400  0.31442700  1
  O  O22  1  0.01287400  0.11134000  0.56105300  1
  O  O23  1  0.81223800  0.51168300  0.36115800  1
loop_
_geom_bond_atom_site_label_1
_geom_bond_atom_site_label_2
_geom_bond_distance
_geom_bond_site_symmetry_2
Li0 O6 2.035911 1_554
Li0 O2 2.167589 1_545
Li0 O13 2.180592 1_545
Li0 O10 2.362750 1_555
Li0 O21 2.411730 1_555
Li0 O17 2.495138 1_545
Li1 O8 2.120679 1_555
Li1 O13 2.120679 1_555
Li1 O18 2.255803 1_555
Li1 O3 2.255803 1_555
Li1 O7 2.383560 1_555
Li1 O2 2.383560 1_555
Li2 O4 2.035911 1_556
Li2 O7 2.167589 1_655
Li2 O8 2.180592 1_655
Li2 O15 2.362750 1_555
Li2 O16 2.411730 1_555
Li2 O19 2.495138 1_655
Li3 O15 2.133044 1_554
Li3 O10 2.133044 1_555
Li3 O20 2.379762 1_554
Li3 O5 2.379762 1_555
Li3 O16 2.514835 1_554
Li3 O21 2.514835 1_555
Li4 O19 2.110781 1_555
Li4 O21 2.130640 1_555
Li4 O22 2.390945 1_555
Li4 O12 2.420738 1_555
Li4 O15 2.534990 1_455
Li4 O17 2.553119 1_545
Li5 O17 2.110781 1_555
Li5 O16 2.130640 1_555
Li5 O14 2.390945 1_555
Li5 O23 2.420738 1_555
Li5 O10 2.534990 1_565
Li5 O19 2.553119 1_655
Fe0 O11 1.932930 1_554
Fe0 O9 1.936843 1_565
Fe0 O6 2.031752 1_564
Fe0 O18 2.042973 1_555
Fe0 O13 2.062769 1_555
Fe0 O2 2.089215 1_555
Fe1 O0 1.932930 1_556
Fe1 O1 1.936843 1_455
Fe1 O4 2.031752 1_456
Fe1 O3 2.042973 1_555
Fe1 O8 2.062769 1_555
Fe1 O7 2.089215 1_555
Fe2 O23 1.948465 1_555
Fe2 O22 1.954065 1_655
Fe2 O20 1.962032 1_555
Fe2 O19 2.088830 1_655
Fe2 O15 2.096091 1_555
Fe2 O16 2.109388 1_555
Fe3 O12 1.948465 1_555
Fe3 O14 1.954065 1_545
Fe3 O5 1.962032 1_555
Fe3 O17 2.088830 1_545
Fe3 O10 2.096091 1_555
Fe3 O21 2.109388 1_555
O0 P5 1.531968 1_555
O1 P3 1.528807 1_566
O2 P0 1.550762 1_555
O3 P4 1.539854 1_555
O4 P0 1.539022 1_555
O5 P0 1.555123 1_555
O6 P1 1.539022 1_555
O7 P1 1.550762 1_555
O8 P2 1.551192 1_555
O9 P3 1.528807 1_455
O10 P3 1.566445 1_555
O11 P4 1.531968 1_555
O12 P1 1.554619 1_555
O13 P2 1.551192 1_555
O14 P2 1.545645 1_655
O15 P3 1.566445 1_556
O16 P4 1.567600 1_555
O17 P4 1.562887 1_555
O18 P5 1.539854 1_555
O19 P5 1.562887 1_555
O20 P1 1.555123 1_555
O21 P5 1.567600 1_555
O22 P2 1.545645 1_545
O23 P0 1.554619 1_555
