# generated using pymatgen
data_LiCoPO4
_symmetry_space_group_name_H-M   'P 1'
_cell_length_a   5.49907325
_cell_length_b   6.25941608
_cell_length_c   9.21474296
_cell_angle_alpha   103.87493173
_cell_angle_beta   83.67965766
_cell_angle_gamma   103.55396832
_symmetry_Int_Tables_number   1
_chemical_formula_structural   LiCoPO4
_chemical_formula_sum   'Li4 Co4 P4 O16'
_cell_volume   298.86150628
_cell_formula_units_Z   4
loop_
 _symmetry_equiv_pos_site_id
 _symmetry_equiv_pos_as_xyz
  1  'x, y, z'
loop_
 _atom_site_type_symbol
 _atom_site_label
 _atom_site_symmetry_multiplicity
 _atom_site_fract_x
 _atom_site_fract_y
 _atom_site_fract_z
 _atom_site_occupancy
  Li  Li0  1  0.64896700  0.01186200  0.24205900  1
  Li  Li1  1  0.35107500  0.98811300  0.75793000  1
  Li  Li2  1  0.20471700  0.15277000  0.41619100  1
  Li  Li3  1  0.79529000  0.84721500  0.58379000  1
  Co  Co0  1  0.84873900  0.54604800  0.28723800  1
  Co  Co1  1  0.15126000  0.45395300  0.71276500  1
  Co  Co2  1  0.27698100  0.33456000  0.08598300  1
  Co  Co3  1  0.72301300  0.66545100  0.91400200  1
  P  P0  1  0.19518000  0.80234000  0.04908200  1
  P  P1  1  0.80478600  0.19767300  0.95092600  1
  P  P2  1  0.32100600  0.67783200  0.42352200  1
  P  P3  1  0.67901700  0.32216000  0.57648000  1
  O  O0  1  0.38690600  0.66288700  0.06467600  1
  O  O1  1  0.61307800  0.33712800  0.93531900  1
  O  O2  1  0.92692000  0.71149400  0.11480900  1
  O  O3  1  0.07304200  0.28850600  0.88519800  1
  O  O4  1  0.84826400  0.22329600  0.11959100  1
  O  O5  1  0.15170300  0.77672100  0.88041300  1
  O  O6  1  0.30330400  0.04516500  0.13216000  1
  O  O7  1  0.69663800  0.95485500  0.86785100  1
  O  O8  1  0.13005200  0.81930700  0.40726600  1
  O  O9  1  0.86995000  0.18067300  0.59274500  1
  O  O10  1  0.59363600  0.77273500  0.36747000  1
  O  O11  1  0.40638600  0.22727800  0.63253300  1
  O  O12  1  0.21585300  0.43640100  0.32811500  1
  O  O13  1  0.78418900  0.56359300  0.67188400  1
  O  O14  1  0.66642800  0.32047400  0.40875800  1
  O  O15  1  0.33362100  0.67950900  0.59124200  1
loop_
_geom_bond_atom_site_label_1
_geom_bond_atom_site_label_2
_geom_bond_distance
_geom_bond_site_symmetry_2
Li0 O4 1.997578 1_555
Li0 O10 2.051137 1_545
Li0 O14 2.150062 1_555
Li0 O6 2.322270 1_555
Li1 O5 1.997630 1_555
Li1 O11 2.051251 1_565
Li1 O15 2.149978 1_555
Li1 O7 2.321784 1_555
Li2 O8 2.013828 1_545
Li2 O12 2.107964 1_555
Li2 O11 2.284729 1_555
Li2 O9 2.328360 1_455
Li2 O14 2.509978 1_555
Li2 O6 2.571179 1_555
Li3 O9 2.013747 1_565
Li3 O13 2.108050 1_555
Li3 O10 2.284528 1_555
Li3 O8 2.328179 1_655
Li3 O15 2.509773 1_555
Li3 O7 2.571509 1_555
Co0 O14 2.024906 1_555
Co0 O2 2.052301 1_555
Co0 O10 2.174719 1_555
Co0 O8 2.184298 1_655
Co0 O4 2.229228 1_555
Co0 O12 2.372609 1_655
Co1 O15 2.024919 1_555
Co1 O3 2.052338 1_555
Co1 O11 2.174761 1_555
Co1 O9 2.184325 1_455
Co1 O5 2.229330 1_555
Co1 O13 2.372376 1_455
Co2 O6 1.997368 1_555
Co2 O0 2.052469 1_555
Co2 O12 2.179610 1_555
Co2 O1 2.185284 1_554
Co2 O3 2.193968 1_554
Co2 O4 2.304792 1_455
Co3 O7 1.997406 1_555
Co3 O1 2.052476 1_555
Co3 O13 2.179527 1_555
Co3 O0 2.185378 1_556
Co3 O2 2.194056 1_556
Co3 O5 2.304639 1_655
O0 P0 1.555331 1_555
O1 P1 1.555295 1_555
O2 P0 1.562565 1_655
O3 P1 1.562531 1_455
O4 P1 1.562923 1_554
O5 P0 1.562962 1_556
O6 P0 1.538950 1_545
O7 P1 1.538935 1_565
O8 P2 1.563138 1_555
O9 P3 1.563125 1_555
O10 P2 1.557729 1_555
O11 P3 1.557705 1_555
O12 P2 1.567222 1_555
O13 P3 1.567242 1_555
O14 P3 1.552067 1_555
O15 P2 1.552084 1_555
