# generated using pymatgen
data_Li3SbS3
_symmetry_space_group_name_H-M   'P 1'
_cell_length_a   8.29570200
_cell_length_b   8.29570200
_cell_length_c   8.29570200
_cell_angle_alpha   90.00000000
_cell_angle_beta   90.00000000
_cell_angle_gamma   90.00000000
_symmetry_Int_Tables_number   1
_chemical_formula_structural   Li3SbS3
_chemical_formula_sum   'Li12 Sb4 S12'
_cell_volume   570.89919223
_cell_formula_units_Z   4
loop_
 _symmetry_equiv_pos_site_id
 _symmetry_equiv_pos_as_xyz
  1  'x, y, z'
loop_
 _atom_site_type_symbol
 _atom_site_label
 _atom_site_symmetry_multiplicity
 _atom_site_fract_x
 _atom_site_fract_y
 _atom_site_fract_z
 _atom_site_occupancy
  Li  Li0  1  0.01908600  0.01908600  0.01908600  1
  Li  Li1  1  0.20962700  0.29037300  0.70962700  1
  Li  Li2  1  0.21502500  0.71502500  0.78497500  1
  Li  Li3  1  0.28497500  0.28497500  0.28497500  1
  Li  Li4  1  0.29037300  0.70962700  0.20962700  1
  Li  Li5  1  0.48091400  0.98091400  0.51908600  1
  Li  Li6  1  0.51908600  0.48091400  0.98091400  1
  Li  Li7  1  0.70962700  0.20962700  0.29037300  1
  Li  Li8  1  0.71502500  0.78497500  0.21502500  1
  Li  Li9  1  0.78497500  0.21502500  0.71502500  1
  Li  Li10  1  0.79037300  0.79037300  0.79037300  1
  Li  Li11  1  0.98091400  0.51908600  0.48091400  1
  Sb  Sb0  1  0.03919200  0.96080800  0.46080800  1
  Sb  Sb1  1  0.46080800  0.03919200  0.96080800  1
  Sb  Sb2  1  0.53919200  0.53919200  0.53919200  1
  Sb  Sb3  1  0.96080800  0.46080800  0.03919200  1
  S  S0  1  0.99849200  0.24542000  0.38331900  1
  S  S1  1  0.11668100  0.00150800  0.74542000  1
  S  S2  1  0.24542000  0.38331900  0.99849200  1
  S  S3  1  0.25458000  0.61668100  0.49849200  1
  S  S4  1  0.38331900  0.99849200  0.24542000  1
  S  S5  1  0.50150800  0.75458000  0.88331900  1
  S  S6  1  0.49849200  0.25458000  0.61668100  1
  S  S7  1  0.61668100  0.49849200  0.25458000  1
  S  S8  1  0.74542000  0.11668100  0.00150800  1
  S  S9  1  0.75458000  0.88331900  0.50150800  1
  S  S10  1  0.88331900  0.50150800  0.75458000  1
  S  S11  1  0.00150800  0.74542000  0.11668100  1
loop_
_geom_bond_atom_site_label_1
_geom_bond_atom_site_label_2
_geom_bond_distance
_geom_bond_site_symmetry_2
Li0 S11 2.414703 1_545
Li0 S1 2.414703 1_554
Li0 S8 2.414703 1_455
Li1 S6 2.534783 1_555
Li1 S1 2.534783 1_555
Li1 S2 2.534783 1_555
Li2 S5 2.534044 1_555
Li2 S3 2.534044 1_555
Li2 S1 2.534044 1_565
Li3 S4 2.534044 1_545
Li3 S0 2.534044 1_455
Li3 S2 2.534044 1_554
Li4 S3 2.534783 1_555
Li4 S11 2.534783 1_555
Li4 S4 2.534783 1_555
Li5 S9 2.414703 1_555
Li5 S4 2.414703 1_555
Li5 S6 2.414703 1_565
Li6 S5 2.414703 1_555
Li6 S2 2.414703 1_555
Li6 S7 2.414703 1_556
Li7 S7 2.534783 1_555
Li7 S8 2.534783 1_555
Li7 S0 2.534783 1_555
Li8 S9 2.534044 1_555
Li8 S7 2.534044 1_555
Li8 S11 2.534044 1_655
Li9 S10 2.534044 1_555
Li9 S6 2.534044 1_555
Li9 S8 2.534044 1_556
Li10 S5 2.534783 1_555
Li10 S9 2.534783 1_555
Li10 S10 2.534783 1_555
Li11 S10 2.414703 1_555
Li11 S0 2.414703 1_555
Li11 S3 2.414703 1_655
S0 Sb0 2.470184 1_645
S1 Sb0 2.470184 1_545
S2 Sb3 2.470184 1_456
S3 Sb2 2.470184 1_555
S4 Sb1 2.470184 1_564
S5 Sb1 2.470184 1_565
S6 Sb2 2.470184 1_555
S7 Sb2 2.470184 1_555
S8 Sb1 2.470184 1_554
S9 Sb0 2.470184 1_655
S10 Sb3 2.470184 1_556
S11 Sb3 2.470184 1_455
