# generated using pymatgen
data_Y4Cu2O7
_symmetry_space_group_name_H-M   'P 1'
_cell_length_a   6.38584052
_cell_length_b   6.38584052
_cell_length_c   8.34083363
_cell_angle_alpha   71.37698924
_cell_angle_beta   71.37698924
_cell_angle_gamma   33.48798041
_symmetry_Int_Tables_number   1
_chemical_formula_structural   Y4Cu2O7
_chemical_formula_sum   'Y4 Cu2 O7'
_cell_volume   176.92835473
_cell_formula_units_Z   1
loop_
 _symmetry_equiv_pos_site_id
 _symmetry_equiv_pos_as_xyz
  1  'x, y, z'
loop_
 _atom_site_type_symbol
 _atom_site_label
 _atom_site_symmetry_multiplicity
 _atom_site_fract_x
 _atom_site_fract_y
 _atom_site_fract_z
 _atom_site_occupancy
  Y  Y0  1  0.64414000  0.64414000  0.16318200  1
  Y  Y1  1  0.33747500  0.33747500  0.32103300  1
  Y  Y2  1  0.66252500  0.66252500  0.67896700  1
  Y  Y3  1  0.35586000  0.35586000  0.83681800  1
  Cu  Cu0  1  0.00000000  0.00000000  0.00000000  1
  Cu  Cu1  1  0.00000000  0.00000000  0.50000000  1
  O  O0  1  0.25161500  0.25161500  0.12040600  1
  O  O1  1  0.50000000  0.50000000  0.00000000  1
  O  O2  1  0.01146000  0.01146000  0.71245600  1
  O  O3  1  0.72258600  0.72258600  0.38598700  1
  O  O4  1  0.27741400  0.27741400  0.61401300  1
  O  O5  1  0.98854000  0.98854000  0.28754400  1
  O  O6  1  0.74838500  0.74838500  0.87959400  1
loop_
_geom_bond_atom_site_label_1
_geom_bond_atom_site_label_2
_geom_bond_distance
_geom_bond_site_symmetry_2
Cu0 O1 1.839734 1_455
Cu0 O1 1.839734 1_545
Cu0 O5 2.355326 1_445
Cu0 O2 2.355326 1_554
Cu1 O2 1.823593 1_555
Cu1 O5 1.823593 1_445
O0 Y0 2.219658 1_545
O0 Y0 2.219658 1_455
O0 Y1 2.252757 1_555
O0 Y3 2.282336 1_554
O1 Y0 2.561343 1_555
O1 Y3 2.561343 1_554
O1 Y2 2.751567 1_554
O1 Y1 2.751567 1_555
O2 Y2 2.555758 1_545
O2 Y2 2.555758 1_455
O2 Y3 2.601057 1_455
O2 Y3 2.601057 1_545
O3 Y1 2.268206 1_565
O3 Y1 2.268206 1_655
O3 Y2 2.305216 1_555
O3 Y0 2.358641 1_555
O4 Y2 2.268206 1_455
O4 Y2 2.268206 1_545
O4 Y1 2.305216 1_555
O4 Y3 2.358641 1_555
O5 Y1 2.555758 1_565
O5 Y1 2.555758 1_655
O5 Y0 2.601057 1_655
O5 Y0 2.601057 1_565
O6 Y3 2.219658 1_565
O6 Y3 2.219658 1_655
O6 Y2 2.252757 1_555
O6 Y0 2.282336 1_556
