# generated using pymatgen
data_Mn3TeO8
_symmetry_space_group_name_H-M   'P 1'
_cell_length_a   5.99090309
_cell_length_b   5.99090309
_cell_length_c   9.31289600
_cell_angle_alpha   90.00000000
_cell_angle_beta   90.00000000
_cell_angle_gamma   119.99998990
_symmetry_Int_Tables_number   1
_chemical_formula_structural   Mn3TeO8
_chemical_formula_sum   'Mn6 Te2 O16'
_cell_volume   289.46763787
_cell_formula_units_Z   2
loop_
 _symmetry_equiv_pos_site_id
 _symmetry_equiv_pos_as_xyz
  1  'x, y, z'
loop_
 _atom_site_type_symbol
 _atom_site_label
 _atom_site_symmetry_multiplicity
 _atom_site_fract_x
 _atom_site_fract_y
 _atom_site_fract_z
 _atom_site_occupancy
  Mn  Mn0  1  0.16828900  0.83171100  0.20855800  1
  Mn  Mn1  1  0.16828900  0.33657700  0.20855800  1
  Mn  Mn2  1  0.66342300  0.83171100  0.20855800  1
  Mn  Mn3  1  0.33657700  0.16828900  0.70855800  1
  Mn  Mn4  1  0.83171100  0.66342300  0.70855800  1
  Mn  Mn5  1  0.83171100  0.16828900  0.70855800  1
  Te  Te0  1  0.33333300  0.66666700  0.48483200  1
  Te  Te1  1  0.66666700  0.33333300  0.98483200  1
  O  O0  1  0.17479000  0.82521000  0.59670300  1
  O  O1  1  0.04058100  0.52029000  0.34809800  1
  O  O2  1  0.33333300  0.66666700  0.11487400  1
  O  O3  1  0.00000000  0.00000000  0.29734500  1
  O  O4  1  0.00000000  0.00000000  0.79734500  1
  O  O5  1  0.17479000  0.34958000  0.59670300  1
  O  O6  1  0.47971000  0.95941900  0.34809800  1
  O  O7  1  0.47971000  0.52029000  0.34809800  1
  O  O8  1  0.34958000  0.17479000  0.09670300  1
  O  O9  1  0.65042000  0.82521000  0.59670300  1
  O  O10  1  0.52029000  0.47971000  0.84809800  1
  O  O11  1  0.52029000  0.04058100  0.84809800  1
  O  O12  1  0.66666700  0.33333300  0.61487400  1
  O  O13  1  0.82521000  0.65042000  0.09670300  1
  O  O14  1  0.95941900  0.47971000  0.84809800  1
  O  O15  1  0.82521000  0.17479000  0.09670300  1
loop_
_geom_bond_atom_site_label_1
_geom_bond_atom_site_label_2
_geom_bond_distance
_geom_bond_site_symmetry_2
Mn0 O2 1.922019 1_555
Mn0 O3 1.932129 1_565
Mn0 O8 2.063225 1_565
Mn0 O13 2.063225 1_455
Mn0 O1 2.080266 1_555
Mn0 O6 2.080266 1_555
Mn1 O2 1.922028 1_555
Mn1 O3 1.932125 1_555
Mn1 O8 2.063220 1_555
Mn1 O15 2.063225 1_455
Mn1 O1 2.080266 1_555
Mn1 O7 2.080266 1_555
Mn2 O2 1.922028 1_555
Mn2 O3 1.932125 1_665
Mn2 O13 2.063220 1_555
Mn2 O15 2.063225 1_565
Mn2 O6 2.080266 1_555
Mn2 O7 2.080266 1_555
Mn3 O12 1.922028 1_555
Mn3 O4 1.932125 1_555
Mn3 O5 2.063220 1_555
Mn3 O0 2.063225 1_545
Mn3 O11 2.080266 1_555
Mn3 O10 2.080266 1_555
Mn4 O12 1.922028 1_555
Mn4 O4 1.932125 1_665
Mn4 O9 2.063220 1_555
Mn4 O0 2.063225 1_655
Mn4 O14 2.080266 1_555
Mn4 O10 2.080266 1_555
Mn5 O12 1.922019 1_555
Mn5 O4 1.932129 1_655
Mn5 O5 2.063225 1_655
Mn5 O9 2.063225 1_545
Mn5 O11 2.080266 1_555
Mn5 O14 2.080266 1_555
O0 Te0 1.947277 1_555
O1 Te0 1.982047 1_555
O5 Te0 1.947281 1_555
O6 Te0 1.982047 1_555
O7 Te0 1.982055 1_555
O8 Te1 1.947281 1_554
O9 Te0 1.947281 1_555
O10 Te1 1.982055 1_555
O11 Te1 1.982047 1_555
O13 Te1 1.947281 1_554
O14 Te1 1.982047 1_555
O15 Te1 1.947277 1_554
