# generated using pymatgen
data_Th4Ta18O53
_symmetry_space_group_name_H-M   'P 1'
_cell_length_a   6.41393915
_cell_length_b   6.41393915
_cell_length_c   28.11237400
_cell_angle_alpha   90.00000000
_cell_angle_beta   90.00000000
_cell_angle_gamma   119.99999126
_symmetry_Int_Tables_number   1
_chemical_formula_structural   Th4Ta18O53
_chemical_formula_sum   'Th4 Ta18 O53'
_cell_volume   1001.56205606
_cell_formula_units_Z   1
loop_
 _symmetry_equiv_pos_site_id
 _symmetry_equiv_pos_as_xyz
  1  'x, y, z'
loop_
 _atom_site_type_symbol
 _atom_site_label
 _atom_site_symmetry_multiplicity
 _atom_site_fract_x
 _atom_site_fract_y
 _atom_site_fract_z
 _atom_site_occupancy
  Th  Th0  1  0.66666700  0.33333300  0.99317400  1
  Th  Th1  1  0.66666700  0.33333300  0.50145900  1
  Th  Th2  1  0.00000000  0.00000000  0.99894800  1
  Th  Th3  1  0.00000000  0.00000000  0.50146500  1
  Ta  Ta0  1  0.29829400  0.32033900  0.11410900  1
  Ta  Ta1  1  0.33340800  0.31732400  0.38798600  1
  Ta  Ta2  1  0.33425300  0.31077200  0.25191300  1
  Ta  Ta3  1  0.33336600  0.02087400  0.74875700  1
  Ta  Ta4  1  0.33338000  0.01574700  0.61309600  1
  Ta  Ta5  1  0.33106600  0.01517400  0.88534300  1
  Ta  Ta6  1  0.67966100  0.97795500  0.11410900  1
  Ta  Ta7  1  0.68267600  0.01608300  0.38798600  1
  Ta  Ta8  1  0.68922800  0.02348100  0.25191300  1
  Ta  Ta9  1  0.97912600  0.31249200  0.74875700  1
  Ta  Ta10  1  0.98482600  0.31589200  0.88534300  1
  Ta  Ta11  1  0.98425300  0.31763200  0.61309600  1
  Ta  Ta12  1  0.68410800  0.66893400  0.88534300  1
  Ta  Ta13  1  0.68236800  0.66662000  0.61309600  1
  Ta  Ta14  1  0.68750800  0.66663400  0.74875700  1
  Ta  Ta15  1  0.97651900  0.66574700  0.25191300  1
  Ta  Ta16  1  0.02204500  0.70170600  0.11410900  1
  Ta  Ta17  1  0.98391700  0.66659200  0.38798600  1
  O  O0  1  0.33334600  0.42540100  0.74996500  1
  O  O1  1  0.33430000  0.42424400  0.88840400  1
  O  O2  1  0.33338400  0.42552600  0.61185400  1
  O  O3  1  0.34209400  0.27735600  0.17741400  1
  O  O4  1  0.33305400  0.27671100  0.31906200  1
  O  O5  1  0.35579000  0.27832000  0.04660500  1
  O  O6  1  0.33343700  0.28601700  0.45853600  1
  O  O7  1  0.33345500  0.04653100  0.54084800  1
  O  O8  1  0.32297900  0.03821000  0.96066900  1
  O  O9  1  0.33358500  0.05679800  0.82003700  1
  O  O10  1  0.33338500  0.05739300  0.68013000  1
  O  O11  1  0.35399000  0.93630300  0.11196800  1
  O  O12  1  0.33344200  0.90728000  0.38790400  1
  O  O13  1  0.33329100  0.90938700  0.24920300  1
  O  O14  1  0.66666700  0.33333300  0.24824700  1
  O  O15  1  0.66666700  0.33333300  0.60467400  1
  O  O16  1  0.66666700  0.33333300  0.89830800  1
  O  O17  1  0.66666700  0.33333300  0.75066100  1
  O  O18  1  0.66666700  0.33333300  0.39348000  1
  O  O19  1  0.57459900  0.90794600  0.74996500  1
  O  O20  1  0.57447400  0.90785800  0.61185400  1
  O  O21  1  0.57575600  0.91005600  0.88840400  1
  O  O22  1  0.72264400  0.06473900  0.17741400  1
  O  O23  1  0.72328900  0.05634300  0.31906200  1
  O  O24  1  0.71398300  0.04742000  0.45853600  1
  O  O25  1  0.72168000  0.07747000  0.04660500  1
  O  O26  1  0.57609600  0.66670900  0.24920300  1
  O  O27  1  0.57383800  0.66655800  0.38790400  1
  O  O28  1  0.58231300  0.64601000  0.11196800  1
  O  O29  1  0.95346900  0.28692500  0.54084800  1
  O  O30  1  0.96179000  0.28477000  0.96066900  1
  O  O31  1  0.94260700  0.27599200  0.68013000  1
  O  O32  1  0.94320200  0.27678700  0.82003700  1
  O  O33  1  0.06369700  0.41768700  0.11196800  1
  O  O34  1  0.09272000  0.42616200  0.38790400  1
  O  O35  1  0.09061300  0.42390400  0.24920300  1
  O  O36  1  0.72400800  0.66661500  0.68013000  1
  O  O37  1  0.72321300  0.66641500  0.82003700  1
  O  O38  1  0.71307500  0.66654500  0.54084800  1
  O  O39  1  0.71523000  0.67702100  0.96066900  1
  O  O40  1  0.00000000  0.00000000  0.60467400  1
  O  O41  1  0.00000000  0.00000000  0.75065500  1
  O  O42  1  0.00000000  0.00000000  0.89608100  1
  O  O43  1  0.00000000  0.00000000  0.24671800  1
  O  O44  1  0.00000000  0.00000000  0.10446800  1
  O  O45  1  0.00000000  0.00000000  0.39347000  1
  O  O46  1  0.92253000  0.64421000  0.04660500  1
  O  O47  1  0.95258000  0.66656300  0.45853600  1
  O  O48  1  0.93526100  0.65790600  0.17741400  1
  O  O49  1  0.94365700  0.66694600  0.31906200  1
  O  O50  1  0.08994400  0.66570000  0.88840400  1
  O  O51  1  0.09214200  0.66661600  0.61185400  1
  O  O52  1  0.09205400  0.66665400  0.74996500  1
loop_
_geom_bond_atom_site_label_1
_geom_bond_atom_site_label_2
_geom_bond_distance
_geom_bond_site_symmetry_2
O0 Ta14 2.010098 1_555
O0 Ta9 2.010478 1_455
O1 Ta10 1.989211 1_455
O1 Ta12 1.995800 1_555
O2 Ta13 1.985297 1_555
O2 Ta11 1.986190 1_455
O3 Ta0 1.843785 1_555
O3 Ta2 2.108440 1_555
O4 Ta2 1.899891 1_555
O4 Ta1 1.954899 1_555
O5 Ta0 1.977188 1_555
O5 Th0 2.377600 1_554
O5 Th2 2.472958 1_554
O6 Ta1 1.993476 1_555
O6 Th1 2.338297 1_555
O6 Th3 2.339294 1_555
O7 Ta4 2.040614 1_555
O7 Th1 2.290461 1_555
O7 Th3 2.291471 1_555
O8 Ta5 2.125178 1_555
O8 Th2 2.236467 1_555
O8 Th0 2.259368 1_555
O9 Ta5 1.854124 1_555
O9 Ta3 2.016974 1_555
O10 Ta4 1.903319 1_555
O10 Ta3 1.943427 1_555
O11 Ta16 1.896597 1_555
O11 Ta6 1.969818 1_555
O12 Ta7 1.985266 1_565
O12 Ta17 1.986998 1_455
O13 Ta8 2.020538 1_565
O13 Ta15 2.026885 1_455
O14 Ta8 2.066105 1_555
O14 Ta15 2.066109 1_555
O14 Ta2 2.066112 1_555
O15 Ta11 2.102524 1_555
O15 Ta13 2.102524 1_555
O15 Ta4 2.102525 1_555
O16 Ta10 2.130234 1_555
O16 Ta5 2.130238 1_555
O16 Ta12 2.130241 1_555
O16 Th0 2.666908 1_555
O17 Ta9 2.074853 1_555
O17 Ta3 2.074857 1_555
O17 Ta14 2.074859 1_555
O18 Ta7 2.093761 1_555
O18 Ta1 2.093761 1_555
O18 Ta17 2.093762 1_555
O19 Ta3 2.010093 1_565
O19 Ta14 2.010483 1_555
O20 Ta4 1.985292 1_565
O20 Ta13 1.986196 1_555
O21 Ta12 1.989211 1_555
O21 Ta5 1.995800 1_565
O22 Ta6 1.843787 1_545
O22 Ta8 2.108441 1_555
O23 Ta8 1.899891 1_555
O23 Ta7 1.954899 1_555
O24 Ta7 1.993477 1_555
O24 Th1 2.338292 1_555
O24 Th3 2.339294 1_655
O25 Ta6 1.977188 1_545
O25 Th0 2.377595 1_554
O25 Th2 2.472958 1_654
O26 Ta2 2.020538 1_555
O26 Ta8 2.026885 1_565
O27 Ta1 1.985265 1_555
O27 Ta7 1.986996 1_565
O28 Ta6 1.896597 1_555
O28 Ta0 1.969818 1_555
O29 Ta11 2.040614 1_555
O29 Th1 2.290454 1_555
O29 Th3 2.291476 1_655
O30 Ta10 2.125178 1_555
O30 Th2 2.236472 1_655
O30 Th0 2.259361 1_555
O31 Ta11 1.903319 1_555
O31 Ta9 1.943427 1_555
O32 Ta10 1.854124 1_555
O32 Ta9 2.016974 1_555
O33 Ta0 1.896596 1_555
O33 Ta16 1.969818 1_555
O34 Ta17 1.985260 1_455
O34 Ta1 1.987002 1_555
O35 Ta15 2.020537 1_455
O35 Ta2 2.026885 1_555
O36 Ta13 1.903319 1_555
O36 Ta14 1.943427 1_555
O37 Ta12 1.854124 1_555
O37 Ta14 2.016974 1_555
O38 Ta13 2.040613 1_555
O38 Th1 2.290465 1_555
O38 Th3 2.291473 1_665
O39 Ta12 2.125178 1_555
O39 Th2 2.236469 1_665
O39 Th0 2.259373 1_555
O40 Ta11 2.102974 1_455
O40 Ta13 2.102978 1_445
O40 Ta4 2.102981 1_555
O41 Ta9 2.075176 1_455
O41 Ta3 2.075176 1_555
O41 Ta14 2.075176 1_445
O42 Ta10 2.098314 1_455
O42 Ta5 2.098314 1_555
O42 Ta12 2.098314 1_445
O43 Ta8 2.077822 1_455
O43 Ta15 2.077822 1_445
O43 Ta2 2.077822 1_555
O44 Ta16 2.006105 1_545
O44 Ta6 2.006106 1_445
O44 Ta0 2.006106 1_555
O45 Ta7 2.094467 1_455
O45 Ta1 2.094471 1_555
O45 Ta17 2.094474 1_445
O46 Ta16 1.977188 1_655
O46 Th0 2.377598 1_554
O46 Th2 2.472958 1_664
O47 Ta17 1.993477 1_555
O47 Th1 2.338295 1_555
O47 Th3 2.339294 1_665
O48 Ta16 1.843787 1_655
O48 Ta15 2.108441 1_555
O49 Ta15 1.899891 1_555
O49 Ta17 1.954900 1_555
O50 Ta5 1.989211 1_565
O50 Ta10 1.995800 1_455
O51 Ta11 1.985298 1_455
O51 Ta4 1.986191 1_565
O52 Ta9 2.010099 1_455
O52 Ta3 2.010479 1_565
