# generated using pymatgen
data_FeNi(PO4)2
_symmetry_space_group_name_H-M   'P 1'
_cell_length_a   8.43349231
_cell_length_b   8.43349231
_cell_length_c   8.43349200
_cell_angle_alpha   61.73696889
_cell_angle_beta   61.73696889
_cell_angle_gamma   61.73696703
_symmetry_Int_Tables_number   1
_chemical_formula_structural   FeNi(PO4)2
_chemical_formula_sum   'Fe3 Ni3 P6 O24'
_cell_volume   440.64784711
_cell_formula_units_Z   3
loop_
 _symmetry_equiv_pos_site_id
 _symmetry_equiv_pos_as_xyz
  1  'x, y, z'
loop_
 _atom_site_type_symbol
 _atom_site_label
 _atom_site_symmetry_multiplicity
 _atom_site_fract_x
 _atom_site_fract_y
 _atom_site_fract_z
 _atom_site_occupancy
  Fe  Fe0  1  0.99852400  0.99852400  0.99852400  1
  Fe  Fe1  1  0.14521200  0.14521200  0.14521200  1
  Fe  Fe2  1  0.49963200  0.49963200  0.49963200  1
  Ni  Ni0  1  0.64184800  0.64184800  0.64184800  1
  Ni  Ni1  1  0.85683700  0.85683700  0.85683700  1
  Ni  Ni2  1  0.35728800  0.35728800  0.35728800  1
  P  P0  1  0.95121600  0.25111200  0.54814200  1
  P  P1  1  0.54814200  0.95121600  0.25111200  1
  P  P2  1  0.25111200  0.54814200  0.95121600  1
  P  P3  1  0.74935800  0.45181800  0.04887500  1
  P  P4  1  0.45181800  0.04887500  0.74935800  1
  P  P5  1  0.04887500  0.74935800  0.45181800  1
  O  O0  1  0.50342200  0.09837700  0.33535400  1
  O  O1  1  0.33535400  0.50342200  0.09837700  1
  O  O2  1  0.09837700  0.33535400  0.50342200  1
  O  O3  1  0.94189300  0.09692900  0.74924400  1
  O  O4  1  0.00297700  0.17115400  0.39461900  1
  O  O5  1  0.74753900  0.39913100  0.56093000  1
  O  O6  1  0.74924400  0.94189300  0.09692900  1
  O  O7  1  0.56093000  0.74753900  0.39913100  1
  O  O8  1  0.82664200  0.60339100  0.00311800  1
  O  O9  1  0.39913100  0.56093000  0.74753900  1
  O  O10  1  0.90484600  0.24835700  0.06150100  1
  O  O11  1  0.60339100  0.00311800  0.82664200  1
  O  O12  1  0.39461900  0.00297700  0.17115400  1
  O  O13  1  0.09692900  0.74924400  0.94189300  1
  O  O14  1  0.59957900  0.43541800  0.25274700  1
  O  O15  1  0.17115400  0.39461900  0.00297700  1
  O  O16  1  0.43541800  0.25274700  0.59957900  1
  O  O17  1  0.24835700  0.06150100  0.90484600  1
  O  O18  1  0.25274700  0.59957900  0.43541800  1
  O  O19  1  0.00311800  0.82664200  0.60339100  1
  O  O20  1  0.06150100  0.90484600  0.24835700  1
  O  O21  1  0.89894500  0.67062900  0.49338300  1
  O  O22  1  0.67062900  0.49338300  0.89894500  1
  O  O23  1  0.49338300  0.89894500  0.67062900  1
loop_
_geom_bond_atom_site_label_1
_geom_bond_atom_site_label_2
_geom_bond_distance
_geom_bond_site_symmetry_2
Fe0 O3 2.063908 1_565
Fe0 O13 2.063908 1_655
Fe0 O6 2.063908 1_556
Fe0 O20 2.105118 1_656
Fe0 O10 2.105118 1_566
Fe0 O17 2.105118 1_665
Fe1 O4 1.925811 1_555
Fe1 O12 1.925811 1_555
Fe1 O15 1.925811 1_555
Fe1 O17 2.113785 1_554
Fe1 O10 2.113785 1_455
Fe1 O20 2.113785 1_545
Fe2 O9 2.070547 1_555
Fe2 O5 2.070547 1_555
Fe2 O7 2.070547 1_555
Fe2 O14 2.076630 1_555
Fe2 O18 2.076630 1_555
Fe2 O16 2.076630 1_555
Ni0 O22 1.991833 1_555
Ni0 O23 1.991833 1_555
Ni0 O21 1.991833 1_555
Ni0 O7 2.114034 1_555
Ni0 O5 2.114034 1_555
Ni0 O9 2.114034 1_555
Ni1 O19 1.968789 1_655
Ni1 O11 1.968789 1_565
Ni1 O8 1.968789 1_556
Ni1 O6 2.111134 1_556
Ni1 O13 2.111134 1_655
Ni1 O3 2.111134 1_565
Ni2 O1 1.984684 1_555
Ni2 O0 1.984684 1_555
Ni2 O2 1.984684 1_555
Ni2 O16 2.098950 1_555
Ni2 O18 2.098950 1_555
Ni2 O14 2.098950 1_555
O0 P1 1.524883 1_545
O1 P2 1.524883 1_554
O2 P0 1.524883 1_455
O3 P0 1.566966 1_555
O4 P0 1.527880 1_455
O5 P0 1.562633 1_555
O6 P1 1.566966 1_555
O7 P1 1.562633 1_555
O8 P3 1.513746 1_555
O9 P2 1.562633 1_555
O10 P3 1.582227 1_555
O11 P4 1.513746 1_555
O12 P1 1.527880 1_545
O13 P2 1.566966 1_555
O14 P3 1.566628 1_555
O15 P2 1.527880 1_554
O16 P4 1.566628 1_555
O17 P4 1.582227 1_555
O18 P5 1.566628 1_555
O19 P5 1.513746 1_555
O20 P5 1.582227 1_555
O21 P5 1.522304 1_655
O22 P3 1.522304 1_556
O23 P4 1.522304 1_565
