# generated using pymatgen
data_Sr(IO3)2
_symmetry_space_group_name_H-M   'P 1'
_cell_length_a   11.56935840
_cell_length_b   7.47759299
_cell_length_c   9.00679211
_cell_angle_alpha   52.17814941
_cell_angle_beta   90.00000000
_cell_angle_gamma   90.00000000
_symmetry_Int_Tables_number   1
_chemical_formula_structural   Sr(IO3)2
_chemical_formula_sum   'Sr4 I8 O24'
_cell_volume   615.49568633
_cell_formula_units_Z   4
loop_
 _symmetry_equiv_pos_site_id
 _symmetry_equiv_pos_as_xyz
  1  'x, y, z'
loop_
 _atom_site_type_symbol
 _atom_site_label
 _atom_site_symmetry_multiplicity
 _atom_site_fract_x
 _atom_site_fract_y
 _atom_site_fract_z
 _atom_site_occupancy
  Sr  Sr0  1  0.90519461  0.24135621  0.99251211  1
  Sr  Sr1  1  0.40519461  0.75864379  0.50748789  1
  Sr  Sr2  1  0.59480539  0.24135621  0.49251211  1
  Sr  Sr3  1  0.09480539  0.75864379  0.00748789  1
  I  I0  1  0.21700096  0.30198434  0.95504225  1
  I  I1  1  0.71700096  0.69801566  0.54495775  1
  I  I2  1  0.07516206  0.74739118  0.47020762  1
  I  I3  1  0.57516206  0.25260882  0.02979238  1
  I  I4  1  0.42483794  0.74739118  0.97020762  1
  I  I5  1  0.92483794  0.25260882  0.52979238  1
  I  I6  1  0.28299904  0.30198434  0.45504225  1
  I  I7  1  0.78299904  0.69801566  0.04495775  1
  O  O0  1  0.11076408  0.10688639  0.98361477  1
  O  O1  1  0.90747892  0.38713348  0.64267358  1
  O  O2  1  0.60978959  0.49557868  0.58681728  1
  O  O3  1  0.25770720  0.43824079  0.71342510  1
  O  O4  1  0.75770720  0.56175921  0.78657490  1
  O  O5  1  0.70128525  0.07206649  0.12240138  1
  O  O6  1  0.46124225  0.04864170  0.16287069  1
  O  O7  1  0.10978959  0.50442132  0.91318272  1
  O  O8  1  0.96124225  0.95135830  0.33712931  1
  O  O9  1  0.20128525  0.92793351  0.37759862  1
  O  O10  1  0.40747892  0.61286652  0.85732642  1
  O  O11  1  0.61076408  0.89311361  0.51638523  1
  O  O12  1  0.38923592  0.10688639  0.48361477  1
  O  O13  1  0.59252108  0.38713348  0.14267358  1
  O  O14  1  0.79871475  0.07206649  0.62240138  1
  O  O15  1  0.03875775  0.04864170  0.66287069  1
  O  O16  1  0.89021041  0.49557868  0.08681728  1
  O  O17  1  0.53875775  0.95135830  0.83712931  1
  O  O18  1  0.29871475  0.92793351  0.87759862  1
  O  O19  1  0.24229280  0.43824079  0.21342510  1
  O  O20  1  0.74229280  0.56175921  0.28657490  1
  O  O21  1  0.39021041  0.50442132  0.41318272  1
  O  O22  1  0.09252108  0.61286652  0.35732642  1
  O  O23  1  0.88923592  0.89311361  0.01638523  1
loop_
_geom_bond_atom_site_label_1
_geom_bond_atom_site_label_2
_geom_bond_distance
_geom_bond_site_symmetry_2
I0 O0 1.801316 1_555
I0 O7 1.808905 1_555
I0 O3 1.810090 1_555
I1 O11 1.801316 1_555
I1 O2 1.808905 1_555
I1 O4 1.810090 1_555
I2 O8 1.804967 1_455
I2 O9 1.807327 1_555
I2 O22 1.827611 1_555
I3 O6 1.804967 1_555
I3 O5 1.807327 1_555
I3 O13 1.827611 1_555
I4 O17 1.804967 1_555
I4 O18 1.807327 1_555
I4 O10 1.827611 1_555
I5 O15 1.804967 1_655
I5 O14 1.807327 1_555
I5 O1 1.827611 1_555
I6 O12 1.801316 1_555
I6 O21 1.808905 1_555
I6 O19 1.810090 1_555
I7 O23 1.801316 1_555
I7 O16 1.808905 1_555
I7 O20 1.810090 1_555
O0 Sr3 2.484861 1_546
O0 Sr0 2.602429 1_455
O1 Sr0 2.627712 1_555
O2 Sr2 2.519018 1_555
O2 Sr1 2.873864 1_555
O3 Sr1 2.577206 1_555
O4 Sr0 2.577206 1_555
O5 Sr0 2.592334 1_554
O6 Sr1 2.549953 1_545
O7 Sr3 2.519018 1_556
O7 Sr0 2.873864 1_455
O8 Sr0 2.549953 1_564
O9 Sr1 2.592334 1_555
O10 Sr1 2.627712 1_555
O11 Sr2 2.484861 1_565
O11 Sr1 2.602429 1_555
O12 Sr1 2.484861 1_545
O12 Sr2 2.602429 1_555
O13 Sr2 2.627712 1_555
O14 Sr2 2.592334 1_555
O15 Sr3 2.549953 1_546
O16 Sr0 2.519018 1_554
O16 Sr3 2.873864 1_655
O17 Sr2 2.549953 1_565
O18 Sr3 2.592334 1_556
O19 Sr3 2.577206 1_555
O20 Sr2 2.577206 1_555
O21 Sr1 2.519018 1_555
O21 Sr2 2.873864 1_555
O22 Sr3 2.627712 1_555
O23 Sr0 2.484861 1_564
O23 Sr3 2.602429 1_655
