# generated using pymatgen
data_LiSiBiO4
_symmetry_space_group_name_H-M   'P 1'
_cell_length_a   4.92482100
_cell_length_b   6.82524400
_cell_length_c   10.79132000
_cell_angle_alpha   90.00000000
_cell_angle_beta   90.00000000
_cell_angle_gamma   90.00000000
_symmetry_Int_Tables_number   1
_chemical_formula_structural   LiSiBiO4
_chemical_formula_sum   'Li4 Si4 Bi4 O16'
_cell_volume   362.72977205
_cell_formula_units_Z   4
loop_
 _symmetry_equiv_pos_site_id
 _symmetry_equiv_pos_as_xyz
  1  'x, y, z'
loop_
 _atom_site_type_symbol
 _atom_site_label
 _atom_site_symmetry_multiplicity
 _atom_site_fract_x
 _atom_site_fract_y
 _atom_site_fract_z
 _atom_site_occupancy
  Li  Li0  1  0.00000000  0.00000000  0.00000000  1
  Li  Li1  1  0.00000000  0.50000000  0.00000000  1
  Li  Li2  1  0.50000000  0.50000000  0.50000000  1
  Li  Li3  1  0.50000000  0.00000000  0.50000000  1
  Si  Si0  1  0.89575600  0.75000000  0.58042900  1
  Si  Si1  1  0.60424400  0.75000000  0.08042900  1
  Si  Si2  1  0.39575600  0.25000000  0.91957100  1
  Si  Si3  1  0.10424400  0.25000000  0.41957100  1
  Bi  Bi0  1  0.94991400  0.25000000  0.72170900  1
  Bi  Bi1  1  0.55008600  0.25000000  0.22170900  1
  Bi  Bi2  1  0.44991400  0.75000000  0.77829100  1
  Bi  Bi3  1  0.05008600  0.75000000  0.27829100  1
  O  O0  1  0.75398500  0.75000000  0.44194800  1
  O  O1  1  0.75577100  0.93721500  0.65834300  1
  O  O2  1  0.75577100  0.56278500  0.65834300  1
  O  O3  1  0.72484100  0.25000000  0.92347400  1
  O  O4  1  0.77515900  0.25000000  0.42347400  1
  O  O5  1  0.74422900  0.56278500  0.15834300  1
  O  O6  1  0.74422900  0.93721500  0.15834300  1
  O  O7  1  0.74601500  0.75000000  0.94194800  1
  O  O8  1  0.25398500  0.25000000  0.05805200  1
  O  O9  1  0.25577100  0.43721500  0.84165700  1
  O  O10  1  0.25577100  0.06278500  0.84165700  1
  O  O11  1  0.22484100  0.75000000  0.57652600  1
  O  O12  1  0.27515900  0.75000000  0.07652600  1
  O  O13  1  0.24422900  0.06278500  0.34165700  1
  O  O14  1  0.24422900  0.43721500  0.34165700  1
  O  O15  1  0.24601500  0.25000000  0.55805200  1
loop_
_geom_bond_atom_site_label_1
_geom_bond_atom_site_label_2
_geom_bond_distance
_geom_bond_site_symmetry_2
Li0 O6 2.165652 1_445
Li0 O10 2.165652 1_554
Li0 O8 2.206473 1_555
Li0 O7 2.206473 1_444
Li0 O12 2.330191 1_545
Li0 O3 2.330191 1_454
Li1 O5 2.165652 1_455
Li1 O9 2.165652 1_554
Li1 O8 2.206473 1_555
Li1 O7 2.206473 1_454
Li1 O12 2.330191 1_555
Li1 O3 2.330191 1_454
Li2 O2 2.165652 1_555
Li2 O14 2.165652 1_555
Li2 O0 2.206473 1_555
Li2 O15 2.206473 1_555
Li2 O4 2.330191 1_555
Li2 O11 2.330191 1_555
Li3 O13 2.165652 1_555
Li3 O1 2.165652 1_545
Li3 O0 2.206473 1_545
Li3 O15 2.206473 1_555
Li3 O4 2.330191 1_555
Li3 O11 2.330191 1_545
Bi0 O15 2.290305 1_655
Bi0 O9 2.361592 1_655
Bi0 O10 2.361592 1_655
Bi0 O2 2.437061 1_555
Bi0 O1 2.437061 1_545
Bi0 O3 2.443221 1_555
Bi1 O8 2.290305 1_555
Bi1 O14 2.361592 1_555
Bi1 O13 2.361592 1_555
Bi1 O5 2.437061 1_555
Bi1 O6 2.437061 1_545
Bi1 O4 2.443221 1_555
Bi2 O7 2.290305 1_555
Bi2 O1 2.361592 1_555
Bi2 O2 2.361592 1_555
Bi2 O10 2.437061 1_565
Bi2 O9 2.437061 1_555
Bi2 O11 2.443221 1_555
Bi3 O0 2.290305 1_455
Bi3 O6 2.361592 1_455
Bi3 O5 2.361592 1_455
Bi3 O13 2.437061 1_565
Bi3 O14 2.437061 1_555
Bi3 O12 2.443221 1_555
O0 Si0 1.649451 1_555
O1 Si0 1.677782 1_555
O2 Si0 1.677782 1_555
O3 Si2 1.621232 1_555
O4 Si3 1.621232 1_655
O5 Si1 1.677782 1_555
O6 Si1 1.677782 1_555
O7 Si1 1.649451 1_556
O8 Si2 1.649451 1_554
O9 Si2 1.677782 1_555
O10 Si2 1.677782 1_555
O11 Si0 1.621232 1_455
O12 Si1 1.621232 1_555
O13 Si3 1.677782 1_555
O14 Si3 1.677782 1_555
O15 Si3 1.649451 1_555
