# generated using pymatgen
data_Li4Mn3Cu2Sn3O16
_symmetry_space_group_name_H-M   'P 1'
_cell_length_a   6.08433247
_cell_length_b   6.10424729
_cell_length_c   9.81937428
_cell_angle_alpha   89.99063356
_cell_angle_beta   87.51752301
_cell_angle_gamma   120.10967292
_symmetry_Int_Tables_number   1
_chemical_formula_structural   Li4Mn3Cu2Sn3O16
_chemical_formula_sum   'Li4 Mn3 Cu2 Sn3 O16'
_cell_volume   315.08762002
_cell_formula_units_Z   1
loop_
 _symmetry_equiv_pos_site_id
 _symmetry_equiv_pos_as_xyz
  1  'x, y, z'
loop_
 _atom_site_type_symbol
 _atom_site_label
 _atom_site_symmetry_multiplicity
 _atom_site_fract_x
 _atom_site_fract_y
 _atom_site_fract_z
 _atom_site_occupancy
  Li  Li0  1  0.34084300  0.67043500  0.88446700  1
  Li  Li1  1  0.98120500  0.99061100  0.99446300  1
  Li  Li2  1  0.99146100  0.99576500  0.50134300  1
  Li  Li3  1  0.66565100  0.33283600  0.39312900  1
  Mn  Mn0  1  0.66589800  0.83293500  0.21670000  1
  Mn  Mn1  1  0.83237100  0.66375200  0.71533300  1
  Mn  Mn2  1  0.83229600  0.16857400  0.71532800  1
  Cu  Cu0  1  0.33186400  0.66596400  0.49316800  1
  Cu  Cu1  1  0.67226700  0.33614400  0.98534300  1
  Sn  Sn0  1  0.16989900  0.83061000  0.21438600  1
  Sn  Sn1  1  0.16987100  0.33928100  0.21438400  1
  Sn  Sn2  1  0.34187800  0.17098600  0.71326800  1
  O  O0  1  0.15450900  0.83518700  0.60159400  1
  O  O1  1  0.01706100  0.50849800  0.33414100  1
  O  O2  1  0.36627000  0.68316200  0.10052300  1
  O  O3  1  0.97618900  0.98806000  0.31872200  1
  O  O4  1  0.97685700  0.98841100  0.81146100  1
  O  O5  1  0.15448800  0.31938800  0.60158800  1
  O  O6  1  0.48570500  0.95944900  0.33860400  1
  O  O7  1  0.48568300  0.52626300  0.33861400  1
  O  O8  1  0.32691400  0.16349900  0.09274500  1
  O  O9  1  0.69121100  0.84563700  0.61482300  1
  O  O10  1  0.52425500  0.49353100  0.82969500  1
  O  O11  1  0.52417500  0.03067400  0.82965000  1
  O  O12  1  0.69901100  0.34955900  0.60673600  1
  O  O13  1  0.83515300  0.68823400  0.10623500  1
  O  O14  1  0.95186200  0.47591600  0.83521100  1
  O  O15  1  0.83515200  0.14694000  0.10618800  1
loop_
_geom_bond_atom_site_label_1
_geom_bond_atom_site_label_2
_geom_bond_distance
_geom_bond_site_symmetry_2
Li0 O11 1.963701 1_565
Li0 O10 1.964165 1_555
Li0 O14 2.127181 1_455
Li0 O2 2.132442 1_556
Li1 O4 1.798258 1_555
Li1 O13 1.915816 1_556
Li1 O15 1.915872 1_566
Li1 O8 2.102009 1_666
Li2 O3 1.799049 1_555
Li2 O9 1.887435 1_555
Li2 O0 1.993465 1_655
Li2 O5 1.993627 1_665
Li3 O1 1.910240 1_655
Li3 O7 2.056061 1_555
Li3 O6 2.056160 1_545
Li3 O12 2.113583 1_555
Mn0 O13 1.957918 1_555
Mn0 O15 1.958094 1_565
Mn0 O3 1.958312 1_555
Mn0 O7 1.991457 1_555
Mn0 O6 1.991824 1_555
Mn0 O2 1.992228 1_555
Mn1 O10 1.928214 1_555
Mn1 O4 1.978849 1_555
Mn1 O0 1.983971 1_655
Mn1 O9 1.993543 1_555
Mn1 O12 1.997032 1_555
Mn1 O14 2.034437 1_555
Mn2 O11 1.928045 1_555
Mn2 O4 1.978953 1_545
Mn2 O5 1.984209 1_655
Mn2 O9 1.993251 1_545
Mn2 O12 1.997146 1_555
Mn2 O14 2.034762 1_555
Cu0 O5 2.093517 1_555
Cu0 O0 2.093851 1_555
Cu0 O6 2.140726 1_555
Cu0 O7 2.141122 1_555
Cu0 O9 2.287133 1_555
Cu0 O1 2.333109 1_555
Cu1 O14 2.030084 1_555
Cu1 O8 2.055232 1_556
Cu1 O15 2.230241 1_556
Cu1 O13 2.230758 1_556
Cu1 O10 2.248713 1_555
Cu1 O11 2.249591 1_555
O0 Sn2 2.113826 1_565
O1 Sn1 2.045354 1_555
O1 Sn0 2.045405 1_555
O2 Sn1 2.109768 1_555
O2 Sn0 2.109795 1_555
O3 Sn1 2.096350 1_665
O3 Sn0 2.096353 1_655
O4 Sn2 2.105934 1_665
O5 Sn2 2.113619 1_555
O6 Sn0 2.117902 1_555
O7 Sn1 2.118033 1_555
O8 Sn0 2.102658 1_545
O8 Sn1 2.102666 1_555
O10 Sn2 2.081699 1_555
O11 Sn2 2.081448 1_555
O12 Sn2 2.104836 1_555
O13 Sn0 2.107843 1_655
O15 Sn1 2.107974 1_655
