# generated using pymatgen
data_Rb4Li(SO4)4
_symmetry_space_group_name_H-M   'P 1'
_cell_length_a   7.85280500
_cell_length_b   7.85280500
_cell_length_c   30.34509300
_cell_angle_alpha   90.00000000
_cell_angle_beta   90.00000000
_cell_angle_gamma   90.00000000
_symmetry_Int_Tables_number   1
_chemical_formula_structural   Rb4Li(SO4)4
_chemical_formula_sum   'Rb16 Li4 S16 O64'
_cell_volume   1871.27708453
_cell_formula_units_Z   4
loop_
 _symmetry_equiv_pos_site_id
 _symmetry_equiv_pos_as_xyz
  1  'x, y, z'
loop_
 _atom_site_type_symbol
 _atom_site_label
 _atom_site_symmetry_multiplicity
 _atom_site_fract_x
 _atom_site_fract_y
 _atom_site_fract_z
 _atom_site_occupancy
  Rb  Rb0  1  0.88350500  0.93881700  0.46473500  1
  Rb  Rb1  1  0.11649500  0.06118300  0.96473500  1
  Rb  Rb2  1  0.93881700  0.11649500  0.21473500  1
  Rb  Rb3  1  0.06118300  0.88350500  0.71473500  1
  Rb  Rb4  1  0.38896600  0.63136900  0.45441400  1
  Rb  Rb5  1  0.61103400  0.36863100  0.95441400  1
  Rb  Rb6  1  0.63136900  0.61103400  0.20441400  1
  Rb  Rb7  1  0.36863100  0.38896600  0.70441400  1
  Rb  Rb8  1  0.98013700  0.46700700  0.83431400  1
  Rb  Rb9  1  0.01986300  0.53299300  0.33431400  1
  Rb  Rb10  1  0.46700700  0.01986300  0.58431400  1
  Rb  Rb11  1  0.53299300  0.98013700  0.08431400  1
  Rb  Rb12  1  0.47845200  0.77586000  0.82617600  1
  Rb  Rb13  1  0.52154800  0.22414000  0.32617600  1
  Rb  Rb14  1  0.77586000  0.52154800  0.57617600  1
  Rb  Rb15  1  0.22414000  0.47845200  0.07617600  1
  Li  Li0  1  0.87128400  0.71867200  0.02002400  1
  Li  Li1  1  0.12871600  0.28132800  0.52002400  1
  Li  Li2  1  0.71867200  0.12871600  0.77002400  1
  Li  Li3  1  0.28132800  0.87128400  0.27002400  1
  S  S0  1  0.12764900  0.54072100  0.95290100  1
  S  S1  1  0.87235100  0.45927900  0.45290100  1
  S  S2  1  0.54072100  0.87235100  0.70290100  1
  S  S3  1  0.45927900  0.12764900  0.20290100  1
  S  S4  1  0.11994000  0.59460300  0.20677100  1
  S  S5  1  0.88006000  0.40539700  0.70677100  1
  S  S6  1  0.59460300  0.88006000  0.95677100  1
  S  S7  1  0.40539700  0.11994000  0.45677100  1
  S  S8  1  0.99352800  0.96105400  0.83574200  1
  S  S9  1  0.00647200  0.03894600  0.33574200  1
  S  S10  1  0.96105400  0.00647200  0.58574200  1
  S  S11  1  0.03894600  0.99352800  0.08574200  1
  S  S12  1  0.70021700  0.45776700  0.08460800  1
  S  S13  1  0.29978300  0.54223300  0.58460800  1
  S  S14  1  0.45776700  0.29978300  0.83460800  1
  S  S15  1  0.54223300  0.70021700  0.33460800  1
  O  O0  1  0.25218900  0.42801300  0.97507900  1
  O  O1  1  0.74781100  0.57198700  0.47507900  1
  O  O2  1  0.42801300  0.74781100  0.72507900  1
  O  O3  1  0.57198700  0.25218900  0.22507900  1
  O  O4  1  0.20465900  0.61674200  0.91210300  1
  O  O5  1  0.79534100  0.38325800  0.41210300  1
  O  O6  1  0.61674200  0.79534100  0.66210300  1
  O  O7  1  0.38325800  0.20465900  0.16210300  1
  O  O8  1  0.07631300  0.67883600  0.98384700  1
  O  O9  1  0.92368700  0.32116400  0.48384700  1
  O  O10  1  0.67883600  0.92368700  0.73384700  1
  O  O11  1  0.32116400  0.07631300  0.23384700  1
  O  O12  1  0.97738400  0.44076900  0.93805500  1
  O  O13  1  0.02261600  0.55923100  0.43805500  1
  O  O14  1  0.44076900  0.02261600  0.68805500  1
  O  O15  1  0.55923100  0.97738400  0.18805500  1
  O  O16  1  0.25447200  0.65480600  0.23743200  1
  O  O17  1  0.74552800  0.34519400  0.73743200  1
  O  O18  1  0.65480600  0.74552800  0.98743200  1
  O  O19  1  0.34519400  0.25447200  0.48743200  1
  O  O20  1  0.02111200  0.74006400  0.18829900  1
  O  O21  1  0.97888800  0.25993600  0.68829900  1
  O  O22  1  0.74006400  0.97888800  0.93829900  1
  O  O23  1  0.25993600  0.02111200  0.43829900  1
  O  O24  1  0.99778600  0.48336900  0.23095300  1
  O  O25  1  0.00221400  0.51663100  0.73095300  1
  O  O26  1  0.48336900  0.00221400  0.98095300  1
  O  O27  1  0.51663100  0.99778600  0.48095300  1
  O  O28  1  0.19896700  0.50272200  0.16953300  1
  O  O29  1  0.80103300  0.49727800  0.66953300  1
  O  O30  1  0.50272200  0.80103300  0.91953300  1
  O  O31  1  0.49727800  0.19896700  0.41953300  1
  O  O32  1  0.11147200  0.83667300  0.81502900  1
  O  O33  1  0.88852800  0.16332700  0.31502900  1
  O  O34  1  0.83667300  0.88852800  0.56502900  1
  O  O35  1  0.16332700  0.11147200  0.06502900  1
  O  O36  1  0.84674400  0.86451700  0.85445600  1
  O  O37  1  0.15325600  0.13548300  0.35445600  1
  O  O38  1  0.86451700  0.15325600  0.60445600  1
  O  O39  1  0.13548300  0.84674400  0.10445600  1
  O  O40  1  0.07780600  0.05348500  0.87231000  1
  O  O41  1  0.92219400  0.94651500  0.37231000  1
  O  O42  1  0.05348500  0.92219400  0.62231000  1
  O  O43  1  0.94651500  0.07780600  0.12231000  1
  O  O44  1  0.93452000  0.08592400  0.80199700  1
  O  O45  1  0.06548000  0.91407600  0.30199700  1
  O  O46  1  0.08592400  0.06548000  0.55199700  1
  O  O47  1  0.91407600  0.93452000  0.05199700  1
  O  O48  1  0.59814200  0.60816600  0.09917400  1
  O  O49  1  0.40185800  0.39183400  0.59917400  1
  O  O50  1  0.60816600  0.40185800  0.84917400  1
  O  O51  1  0.39183400  0.59814200  0.34917400  1
  O  O52  1  0.84510900  0.51117200  0.05603000  1
  O  O53  1  0.15489100  0.48882800  0.55603000  1
  O  O54  1  0.51117200  0.15489100  0.80603000  1
  O  O55  1  0.48882800  0.84510900  0.30603000  1
  O  O56  1  0.76722000  0.37794900  0.12596400  1
  O  O57  1  0.23278000  0.62205100  0.62596400  1
  O  O58  1  0.37794900  0.23278000  0.87596400  1
  O  O59  1  0.62205100  0.76722000  0.37596400  1
  O  O60  1  0.59109900  0.33702100  0.06017400  1
  O  O61  1  0.40890100  0.66297900  0.56017400  1
  O  O62  1  0.33702100  0.40890100  0.81017400  1
  O  O63  1  0.66297900  0.59109900  0.31017400  1
loop_
_geom_bond_atom_site_label_1
_geom_bond_atom_site_label_2
_geom_bond_distance
_geom_bond_site_symmetry_2
Li0 O52 1.972604 1_555
Li0 O8 1.973647 1_654
Li0 O18 1.977998 1_554
Li0 O47 1.981747 1_555
Li1 O53 1.972604 1_555
Li1 O9 1.973647 1_455
Li1 O19 1.977998 1_555
Li1 O46 1.981747 1_555
Li2 O54 1.972604 1_555
Li2 O10 1.973647 1_545
Li2 O17 1.977998 1_555
Li2 O44 1.981747 1_555
Li3 O55 1.972604 1_555
Li3 O11 1.973647 1_565
Li3 O16 1.977998 1_555
Li3 O45 1.981747 1_555
O0 S0 1.480789 1_555
O0 Rb5 2.924289 1_555
O0 Rb1 3.087409 1_555
O0 Rb15 3.101094 1_556
O1 S1 1.480789 1_555
O1 Rb4 2.924289 1_555
O1 Rb0 3.087409 1_555
O1 Rb14 3.101094 1_555
O2 S2 1.480789 1_555
O2 Rb7 2.924289 1_555
O2 Rb3 3.087409 1_555
O2 Rb12 3.101094 1_555
O3 S3 1.480789 1_555
O3 Rb6 2.924289 1_555
O3 Rb2 3.087409 1_555
O3 Rb13 3.101094 1_555
O4 S0 1.501596 1_555
O4 Rb8 3.172262 1_455
O5 S1 1.501596 1_555
O5 Rb9 3.172262 1_655
O6 S2 1.501596 1_555
O6 Rb10 3.172262 1_565
O7 S3 1.501596 1_555
O7 Rb11 3.172262 1_545
O8 S0 1.490196 1_555
O8 Rb1 3.074232 1_565
O9 S1 1.490196 1_555
O9 Rb0 3.074232 1_545
O10 S2 1.490196 1_555
O10 Rb3 3.074232 1_655
O11 S3 1.490196 1_555
O11 Rb2 3.074232 1_455
O12 S0 1.487088 1_655
O12 Rb5 2.973843 1_555
O12 Rb8 3.154840 1_555
O12 Rb1 3.276291 1_655
O13 S1 1.487088 1_455
O13 Rb4 2.973843 1_555
O13 Rb9 3.154840 1_555
O13 Rb0 3.276291 1_455
O14 S2 1.487088 1_545
O14 Rb7 2.973843 1_555
O14 Rb10 3.154840 1_555
O14 Rb3 3.276291 1_545
O15 S3 1.487088 1_565
O15 Rb6 2.973843 1_555
O15 Rb11 3.154840 1_555
O15 Rb2 3.276291 1_565
O16 S4 1.485013 1_555
O16 Rb6 3.143540 1_555
O17 S5 1.485013 1_555
O17 Rb7 3.143540 1_555
O18 S6 1.485013 1_555
O18 Rb5 3.143540 1_555
O19 S7 1.485013 1_555
O19 Rb4 3.143540 1_555
O20 S4 1.490400 1_555
O20 Rb2 3.130388 1_465
O20 Rb6 3.260817 1_455
O21 S5 1.490400 1_555
O21 Rb3 3.130388 1_645
O21 Rb7 3.260817 1_655
O22 S6 1.490400 1_555
O22 Rb1 3.130388 1_665
O22 Rb5 3.260817 1_565
O23 S7 1.490400 1_555
O23 Rb0 3.130388 1_445
O23 Rb4 3.260817 1_545
O24 S4 1.490515 1_655
O24 Rb2 2.959179 1_555
O24 Rb6 3.151675 1_555
O24 Rb9 3.165366 1_655
O25 S5 1.490515 1_455
O25 Rb3 2.959179 1_555
O25 Rb7 3.151675 1_555
O25 Rb8 3.165366 1_455
O26 S6 1.490515 1_545
O26 Rb1 2.959179 1_555
O26 Rb5 3.151675 1_555
O26 Rb11 3.165366 1_546
O27 S7 1.490515 1_565
O27 Rb0 2.959179 1_555
O27 Rb4 3.151675 1_555
O27 Rb10 3.165366 1_565
O28 S4 1.477362 1_555
O28 Rb15 2.846204 1_555
O29 S5 1.477362 1_555
O29 Rb14 2.846204 1_555
O30 S6 1.477362 1_555
O30 Rb12 2.846204 1_555
O31 S7 1.477362 1_555
O31 Rb13 2.846204 1_555
O32 S8 1.485567 1_455
O32 Rb12 2.940642 1_555
O32 Rb3 3.090902 1_555
O32 Rb8 3.135771 1_455
O33 S9 1.485567 1_655
O33 Rb13 2.940642 1_555
O33 Rb2 3.090902 1_555
O33 Rb9 3.135771 1_655
O34 S10 1.485567 1_565
O34 Rb14 2.940642 1_555
O34 Rb0 3.090902 1_555
O34 Rb10 3.135771 1_565
O35 S11 1.485567 1_545
O35 Rb15 2.940642 1_555
O35 Rb1 3.090902 1_554
O35 Rb11 3.135771 1_545
O36 S8 1.491918 1_555
O36 Rb12 3.096051 1_555
O36 Rb8 3.348887 1_555
O37 S9 1.491918 1_555
O37 Rb13 3.096051 1_555
O37 Rb9 3.348887 1_555
O38 S10 1.491918 1_555
O38 Rb14 3.096051 1_555
O38 Rb10 3.348887 1_555
O39 S11 1.491918 1_555
O39 Rb15 3.096051 1_555
O39 Rb11 3.348887 1_555
O40 S8 1.481957 1_445
O40 Rb1 2.821701 1_555
O41 S9 1.481957 1_665
O41 Rb0 2.821701 1_555
O42 S10 1.481957 1_465
O42 Rb3 2.821701 1_555
O43 S11 1.481957 1_645
O43 Rb2 2.821701 1_555
O44 S8 1.491584 1_545
O44 Rb8 3.169464 1_555
O44 Rb3 3.244658 1_645
O45 S9 1.491584 1_565
O45 Rb9 3.169464 1_555
O45 Rb2 3.244658 1_465
O46 S10 1.491584 1_455
O46 Rb10 3.169464 1_555
O46 Rb0 3.244658 1_445
O47 S11 1.491584 1_655
O47 Rb11 3.169464 1_555
O47 Rb1 3.244658 1_664
O48 S12 1.494249 1_555
O48 Rb11 2.999568 1_555
O48 Rb15 3.185966 1_555
O48 Rb6 3.204238 1_555
O49 S13 1.494249 1_555
O49 Rb10 2.999568 1_555
O49 Rb14 3.185966 1_555
O49 Rb7 3.204238 1_555
O50 S14 1.494249 1_555
O50 Rb8 2.999568 1_555
O50 Rb12 3.185966 1_555
O50 Rb5 3.204238 1_555
O51 S15 1.494249 1_555
O51 Rb9 2.999568 1_555
O51 Rb13 3.185966 1_555
O51 Rb4 3.204238 1_555
O52 S12 1.490814 1_555
O52 Rb15 3.049433 1_655
O53 S13 1.490814 1_555
O53 Rb14 3.049433 1_455
O54 S14 1.490814 1_555
O54 Rb12 3.049433 1_545
O55 S15 1.490814 1_555
O55 Rb13 3.049433 1_565
O56 S12 1.498206 1_555
O56 Rb6 3.186765 1_555
O57 S13 1.498206 1_555
O57 Rb7 3.186765 1_555
O58 S14 1.498206 1_555
O58 Rb5 3.186765 1_555
O59 S15 1.498206 1_555
O59 Rb4 3.186765 1_555
O60 S12 1.477522 1_555
O60 Rb11 2.932412 1_545
O60 Rb15 3.126218 1_555
O60 Rb5 3.222687 1_554
O61 S13 1.477522 1_555
O61 Rb10 2.932412 1_565
O61 Rb14 3.126218 1_555
O61 Rb4 3.222687 1_555
O62 S14 1.477522 1_555
O62 Rb8 2.932412 1_455
O62 Rb12 3.126218 1_555
O62 Rb7 3.222687 1_555
O63 S15 1.477522 1_555
O63 Rb9 2.932412 1_655
O63 Rb13 3.126218 1_555
O63 Rb6 3.222687 1_555
