# generated using pymatgen
data_K(WO3)4
_symmetry_space_group_name_H-M   'P 1'
_cell_length_a   7.51551756
_cell_length_b   7.51551756
_cell_length_c   15.45914900
_cell_angle_alpha   90.00000000
_cell_angle_beta   90.00000000
_cell_angle_gamma   119.99999611
_symmetry_Int_Tables_number   1
_chemical_formula_structural   K(WO3)4
_chemical_formula_sum   'K3 W12 O36'
_cell_volume   756.19537926
_cell_formula_units_Z   3
loop_
 _symmetry_equiv_pos_site_id
 _symmetry_equiv_pos_as_xyz
  1  'x, y, z'
loop_
 _atom_site_type_symbol
 _atom_site_label
 _atom_site_symmetry_multiplicity
 _atom_site_fract_x
 _atom_site_fract_y
 _atom_site_fract_z
 _atom_site_occupancy
  K  K0  1  0.00000000  0.00000000  0.25052000  1
  K  K1  1  0.00000000  0.00000000  0.52730200  1
  K  K2  1  0.00000000  0.00000000  0.80462200  1
  W  W0  1  0.99990400  0.49995200  0.37636400  1
  W  W1  1  0.99980000  0.49990000  0.87673400  1
  W  W2  1  0.00007900  0.50004000  0.12556500  1
  W  W3  1  0.99988400  0.49994200  0.62675200  1
  W  W4  1  0.50010000  0.49990000  0.87673400  1
  W  W5  1  0.50004800  0.49995200  0.37636400  1
  W  W6  1  0.50005800  0.49994200  0.62675200  1
  W  W7  1  0.49996000  0.50004000  0.12556500  1
  W  W8  1  0.50005800  0.00011600  0.62675200  1
  W  W9  1  0.49996000  0.99992100  0.12556500  1
  W  W10  1  0.50010000  0.00020000  0.87673400  1
  W  W11  1  0.50004800  0.00009600  0.37636400  1
  O  O0  1  0.98607600  0.49303800  0.00147100  1
  O  O1  1  0.98506300  0.49253100  0.50067400  1
  O  O2  1  0.21227300  0.78772700  0.12342500  1
  O  O3  1  0.21062700  0.78937300  0.62097600  1
  O  O4  1  0.21141100  0.78858900  0.87900200  1
  O  O5  1  0.21066700  0.78933300  0.38113900  1
  O  O6  1  0.21141100  0.42282100  0.87900200  1
  O  O7  1  0.21066700  0.42133500  0.38113900  1
  O  O8  1  0.21062700  0.42125400  0.62097600  1
  O  O9  1  0.21227300  0.42454500  0.12342500  1
  O  O10  1  0.50696200  0.01392400  0.00147100  1
  O  O11  1  0.50746900  0.01493700  0.50067400  1
  O  O12  1  0.57717900  0.78858900  0.87900200  1
  O  O13  1  0.57866500  0.78933300  0.38113900  1
  O  O14  1  0.57545500  0.78772700  0.12342500  1
  O  O15  1  0.57874600  0.78937300  0.62097600  1
  O  O16  1  0.50746900  0.49253100  0.50067400  1
  O  O17  1  0.50696200  0.49303800  0.00147100  1
  O  O18  1  0.49267100  0.50732900  0.25208300  1
  O  O19  1  0.49299300  0.50700700  0.75041900  1
  O  O20  1  0.42134100  0.21067100  0.37207400  1
  O  O21  1  0.42264200  0.21132100  0.87091400  1
  O  O22  1  0.42407700  0.21203900  0.13178400  1
  O  O23  1  0.42111700  0.21055800  0.62969300  1
  O  O24  1  0.49267100  0.98534100  0.25208300  1
  O  O25  1  0.49299300  0.98598600  0.75041900  1
  O  O26  1  0.78932900  0.57865900  0.37207400  1
  O  O27  1  0.78867900  0.57735800  0.87091400  1
  O  O28  1  0.78796100  0.57592300  0.13178400  1
  O  O29  1  0.78944200  0.57888300  0.62969300  1
  O  O30  1  0.78796100  0.21203900  0.13178400  1
  O  O31  1  0.78944200  0.21055800  0.62969300  1
  O  O32  1  0.78932900  0.21067100  0.37207400  1
  O  O33  1  0.78867900  0.21132100  0.87091400  1
  O  O34  1  0.01465900  0.50732900  0.25208300  1
  O  O35  1  0.01401400  0.50700700  0.75041900  1
loop_
_geom_bond_atom_site_label_1
_geom_bond_atom_site_label_2
_geom_bond_distance
_geom_bond_site_symmetry_2
K0 O22 3.314778 1_555
K0 O28 3.314778 1_445
K0 O30 3.314784 1_455
K0 O26 3.324394 1_445
K0 O20 3.324394 1_555
K0 O32 3.324399 1_455
K0 O9 3.390527 1_555
K0 O14 3.390527 1_445
K0 O2 3.390532 1_545
K0 O5 3.405532 1_545
K0 O7 3.405538 1_555
K0 O13 3.405538 1_445
K1 O3 3.100717 1_545
K1 O15 3.100717 1_445
K1 O8 3.100717 1_555
K1 O31 3.165117 1_455
K1 O29 3.165123 1_445
K1 O23 3.165123 1_555
K2 O33 2.935517 1_455
K2 O27 2.935518 1_445
K2 O21 2.935518 1_555
K2 O6 2.982546 1_555
K2 O12 2.982546 1_445
K2 O4 2.982552 1_545
O0 W2 1.920551 1_655
O0 W1 1.930396 1_554
O1 W0 1.924153 1_555
O1 W3 1.951444 1_555
O2 W2 1.941915 1_555
O2 W9 1.941915 1_555
O3 W3 1.950107 1_455
O3 W8 1.950107 1_565
O4 W1 1.946106 1_455
O4 W10 1.946106 1_565
O5 W0 1.949231 1_455
O5 W11 1.949231 1_565
O6 W4 1.946104 1_555
O6 W1 1.946112 1_455
O7 W0 1.949226 1_455
O7 W5 1.949233 1_555
O8 W3 1.950107 1_455
O8 W6 1.950107 1_555
O9 W7 1.941911 1_555
O9 W2 1.941925 1_555
O10 W9 1.920551 1_545
O10 W10 1.930396 1_554
O11 W11 1.924153 1_555
O11 W8 1.951444 1_555
O12 W4 1.946104 1_555
O12 W10 1.946112 1_565
O13 W11 1.949226 1_565
O13 W5 1.949233 1_555
O14 W7 1.941911 1_555
O14 W9 1.941925 1_555
O15 W8 1.950107 1_565
O15 W6 1.950107 1_555
O16 W5 1.924153 1_555
O16 W6 1.951445 1_555
O17 W7 1.920552 1_555
O17 W4 1.930396 1_554
O18 W5 1.923677 1_555
O18 W7 1.958161 1_555
O19 W6 1.913997 1_555
O19 W4 1.954913 1_555
O20 W5 1.948067 1_555
O20 W11 1.948074 1_555
O21 W10 1.946333 1_555
O21 W4 1.946333 1_555
O22 W9 1.945519 1_545
O22 W7 1.945519 1_555
O23 W8 1.947761 1_555
O23 W6 1.947768 1_555
O24 W11 1.923677 1_565
O24 W9 1.958161 1_555
O25 W8 1.913997 1_565
O25 W10 1.954913 1_565
O26 W5 1.948067 1_555
O26 W0 1.948074 1_555
O27 W1 1.946333 1_555
O27 W4 1.946333 1_555
O28 W2 1.945519 1_655
O28 W7 1.945519 1_555
O29 W3 1.947761 1_555
O29 W6 1.947768 1_555
O30 W2 1.945519 1_655
O30 W9 1.945519 1_545
O31 W8 1.947766 1_555
O31 W3 1.947766 1_555
O32 W11 1.948069 1_555
O32 W0 1.948069 1_555
O33 W10 1.946333 1_555
O33 W1 1.946333 1_555
O34 W0 1.923677 1_455
O34 W2 1.958161 1_555
O35 W3 1.913997 1_455
O35 W1 1.954913 1_455
