# generated using pymatgen
data_Li4V3P8O29
_symmetry_space_group_name_H-M   'P 1'
_cell_length_a   9.73979000
_cell_length_b   9.77609119
_cell_length_c   14.34067465
_cell_angle_alpha   89.69340705
_cell_angle_beta   89.50631449
_cell_angle_gamma   60.37268883
_symmetry_Int_Tables_number   1
_chemical_formula_structural   Li4V3P8O29
_chemical_formula_sum   'Li8 V6 P16 O58'
_cell_volume   1186.90878216
_cell_formula_units_Z   2
loop_
 _symmetry_equiv_pos_site_id
 _symmetry_equiv_pos_as_xyz
  1  'x, y, z'
loop_
 _atom_site_type_symbol
 _atom_site_label
 _atom_site_symmetry_multiplicity
 _atom_site_fract_x
 _atom_site_fract_y
 _atom_site_fract_z
 _atom_site_occupancy
  Li  Li0  1  0.23178600  0.09158500  0.55071600  1
  Li  Li1  1  0.09538500  0.66882000  0.55407700  1
  Li  Li2  1  0.23717500  0.66142400  0.06100800  1
  Li  Li3  1  0.66845300  0.09616400  0.06358300  1
  Li  Li4  1  0.67471700  0.23132000  0.55738100  1
  Li  Li5  1  0.32195000  0.91212100  0.94443400  1
  Li  Li6  1  0.96414100  0.06004300  0.00556100  1
  Li  Li7  1  0.00353900  0.99619800  0.48149100  1
  V  V0  1  0.43778400  0.56336600  0.25424500  1
  V  V1  1  0.56627200  0.43582000  0.74989700  1
  V  V2  1  0.43545300  0.00237800  0.74593400  1
  V  V3  1  0.56535900  0.99888200  0.24864000  1
  V  V4  1  0.00041900  0.43440800  0.24638300  1
  V  V5  1  0.99919500  0.56043300  0.75477600  1
  P  P0  1  0.08284600  0.21910200  0.84363600  1
  P  P1  1  0.21823600  0.08865300  0.33763400  1
  P  P2  1  0.08464600  0.68906800  0.34236600  1
  P  P3  1  0.33428700  0.33836200  0.13150600  1
  P  P4  1  0.33094300  0.33790000  0.63322000  1
  P  P5  1  0.22810700  0.68438200  0.84122800  1
  P  P6  1  0.30827900  0.77628800  0.65973700  1
  P  P7  1  0.68626600  0.08872600  0.84419200  1
  P  P8  1  0.31203400  0.90946700  0.15910600  1
  P  P9  1  0.68743900  0.22334000  0.34360600  1
  P  P10  1  0.77993900  0.30665500  0.16443400  1
  P  P11  1  0.67228000  0.66398100  0.36485500  1
  P  P12  1  0.66153000  0.66853300  0.86567800  1
  P  P13  1  0.91836300  0.30438400  0.66014800  1
  P  P14  1  0.78386500  0.91282700  0.66533100  1
  P  P15  1  0.91836900  0.77930800  0.16115600  1
  O  O0  1  0.00769000  0.20663900  0.57847900  1
  O  O1  1  0.07956400  0.25974100  0.32495200  1
  O  O2  1  0.22763800  0.98014300  0.06996200  1
  O  O3  1  0.25727700  0.08444400  0.83395200  1
  O  O4  1  0.07759800  0.38130300  0.82986400  1
  O  O5  1  0.18931100  0.33631800  0.17976400  1
  O  O6  1  0.08027000  0.53516300  0.32961600  1
  O  O7  1  0.01469300  0.78975400  0.08298100  1
  O  O8  1  0.08635200  0.65500500  0.83322900  1
  O  O9  1  0.32408000  0.18925900  0.66846000  1
  O  O10  1  0.37659900  0.08423000  0.32864300  1
  O  O11  1  0.18562800  0.48566300  0.67959100  1
  O  O12  1  0.32162100  0.35788400  0.02835000  1
  O  O13  1  0.32528200  0.35108000  0.52946300  1
  O  O14  1  0.33237700  0.48694000  0.17614700  1
  O  O15  1  0.53195500  0.08731500  0.82954400  1
  O  O16  1  0.48691900  0.18748800  0.16381300  1
  O  O17  1  0.25833000  0.65510400  0.32853000  1
  O  O18  1  0.21190100  0.79982300  0.75753300  1
  O  O19  1  0.20580000  0.78286700  0.58129300  1
  O  O20  1  0.23207200  0.76015600  0.93110700  1
  O  O21  1  0.38336100  0.52636100  0.82366400  1
  O  O22  1  0.48526700  0.33002000  0.67234500  1
  O  O23  1  0.34781500  0.73556200  0.16480700  1
  O  O24  1  0.53159400  0.38138200  0.32917700  1
  O  O25  1  0.65214100  0.08800200  0.32733400  1
  O  O26  1  0.20247600  0.99425700  0.24900800  1
  O  O27  1  0.19325600  0.02186300  0.42642200  1
  O  O28  1  0.79612800  0.00541500  0.58586500  1
  O  O29  1  0.34063000  0.91632300  0.65750500  1
  O  O30  1  0.46379400  0.61772000  0.67211000  1
  O  O31  1  0.65820800  0.25852100  0.82344000  1
  O  O32  1  0.52485500  0.65896400  0.31901100  1
  O  O33  1  0.61794800  0.45755000  0.17270500  1
  O  O34  1  0.79344300  0.19997400  0.08650500  1
  O  O35  1  0.76698300  0.20788900  0.43451500  1
  O  O36  1  0.80458000  0.21125600  0.26112000  1
  O  O37  1  0.74326500  0.34262300  0.65983200  1
  O  O38  1  0.51200200  0.81480000  0.82811700  1
  O  O39  1  0.46588000  0.91620200  0.17174200  1
  O  O40  1  0.66407600  0.52110600  0.81678400  1
  O  O41  1  0.66802400  0.65668800  0.96861500  1
  O  O42  1  0.67062600  0.65115600  0.46743100  1
  O  O43  1  0.81643300  0.51895400  0.31610100  1
  O  O44  1  0.62126600  0.91831600  0.67371200  1
  O  O45  1  0.66987500  0.81013100  0.32238700  1
  O  O46  1  0.91457900  0.34696800  0.16254600  1
  O  O47  1  0.99329900  0.20434300  0.75376300  1
  O  O48  1  0.00703200  0.20117300  0.92893900  1
  O  O49  1  0.92393900  0.45966000  0.67435600  1
  O  O50  1  0.81170500  0.66621200  0.81900900  1
  O  O51  1  0.92382100  0.61885600  0.17139500  1
  O  O52  1  0.74559100  0.91600400  0.15858900  1
  O  O53  1  0.76414700  0.03366000  0.93653100  1
  O  O54  1  0.80650500  0.98192900  0.76271900  1
  O  O55  1  0.91946100  0.73866000  0.66411800  1
  O  O56  1  0.02227000  0.77270400  0.43308600  1
  O  O57  1  0.98660400  0.80472200  0.25904800  1
loop_
_geom_bond_atom_site_label_1
_geom_bond_atom_site_label_2
_geom_bond_distance
_geom_bond_site_symmetry_2
Li0 O0 1.936524 1_555
Li0 O27 2.014948 1_555
Li0 O29 2.146810 1_545
Li0 O9 2.337316 1_555
Li1 O19 1.936314 1_555
Li1 O56 1.958685 1_555
Li1 O55 2.168099 1_455
Li1 O11 2.378071 1_555
Li2 O7 1.916612 1_555
Li2 O20 2.083100 1_554
Li2 O23 2.171112 1_555
Li2 O14 2.219962 1_555
Li3 O34 1.962645 1_555
Li3 O53 1.995335 1_554
Li3 O52 2.050956 1_545
Li3 O16 2.097259 1_555
Li4 O35 1.933425 1_555
Li4 O28 1.964467 1_555
Li4 O37 2.130869 1_555
Li4 O22 2.293066 1_555
Li5 O2 1.976595 1_556
Li5 O20 2.074045 1_555
Li5 O3 2.164379 1_565
Li5 O38 2.310108 1_555
Li6 O34 1.928205 1_555
Li6 O48 1.957345 1_654
Li6 O53 2.318083 1_554
Li6 O2 2.469945 1_645
Li7 O27 2.128877 1_565
Li7 O56 2.215596 1_555
Li7 O35 2.311412 1_465
Li7 O28 2.469583 1_465
Li7 O19 2.496650 1_555
Li7 O0 2.506479 1_565
O0 P13 1.488008 1_455
O1 P1 1.556352 1_555
O1 V4 1.863454 1_555
O2 P8 1.494811 1_555
O3 P0 1.557315 1_555
O3 V2 1.960875 1_555
O4 P0 1.572489 1_555
O4 V5 1.865784 1_455
O5 P3 1.576100 1_555
O5 V4 1.858018 1_555
O6 P2 1.538025 1_555
O6 V4 1.945710 1_555
O7 P15 1.490907 1_455
O8 P5 1.548223 1_555
O8 V5 1.909122 1_455
O9 P4 1.568132 1_555
O9 V2 1.946403 1_555
O10 P1 1.525861 1_555
O10 V3 1.962070 1_545
O11 P4 1.582632 1_555
O11 V5 1.912174 1_455
O12 P3 1.488924 1_555
O13 P4 1.491966 1_555
O14 P3 1.582087 1_555
O14 V0 1.911476 1_555
O15 P7 1.526160 1_555
O15 V2 1.952510 1_555
O16 P3 1.561016 1_555
O16 V3 2.015551 1_545
O17 P2 1.565521 1_555
O17 V0 1.849982 1_555
O18 P5 1.597433 1_555
O18 P6 1.633469 1_555
O19 P6 1.490296 1_555
O20 P5 1.500309 1_555
O21 P5 1.557073 1_555
O21 V1 1.869440 1_555
O22 P4 1.574671 1_555
O22 V1 1.939951 1_555
O23 P8 1.559396 1_555
O23 V0 1.945394 1_555
O24 P9 1.554740 1_555
O24 V0 1.882546 1_555
O25 P9 1.541947 1_555
O25 V3 1.871396 1_545
O26 P8 1.612800 1_555
O26 P1 1.626796 1_565
O27 P1 1.499869 1_555
O28 P14 1.491893 1_545
O29 P6 1.549291 1_555
O29 V2 1.992152 1_565
O30 P6 1.552082 1_555
O30 V1 1.909433 1_555
O31 P7 1.570423 1_555
O31 V1 1.838636 1_555
O32 P11 1.607061 1_555
O32 V0 1.806034 1_555
O33 P10 1.541741 1_555
O33 V0 1.923406 1_555
O34 P10 1.492727 1_555
O35 P9 1.490724 1_555
O36 P9 1.599973 1_555
O36 P10 1.618792 1_555
O37 P13 1.554991 1_555
O37 V1 1.972661 1_555
O38 P12 1.549877 1_555
O38 V2 1.986922 1_565
O39 P8 1.544283 1_555
O39 V3 1.900124 1_555
O40 P12 1.595201 1_555
O40 V1 1.825442 1_555
O41 P12 1.479552 1_555
O42 P11 1.476300 1_555
O43 P11 1.579810 1_555
O43 V4 1.845949 1_655
O44 P14 1.561453 1_555
O44 V2 1.878743 1_565
O45 P11 1.539707 1_555
O45 V3 1.923575 1_555
O46 P10 1.544663 1_555
O46 V4 1.900036 1_655
O47 P0 1.608846 1_655
O47 P13 1.608910 1_555
O48 P0 1.477345 1_555
O49 P13 1.560056 1_555
O49 V5 1.891702 1_555
O50 P12 1.593211 1_555
O50 V5 1.834857 1_555
O51 P15 1.549252 1_555
O51 V4 1.904596 1_655
O52 P15 1.547955 1_555
O52 V3 1.992878 1_555
O53 P7 1.491525 1_555
O54 P7 1.614689 1_565
O54 P14 1.618083 1_555
O55 P14 1.555701 1_555
O55 V5 1.996121 1_555
O56 P2 1.495598 1_555
O57 P2 1.598615 1_655
O57 P15 1.630103 1_555
