# generated using pymatgen
data_LiV(Si2O5)3
_symmetry_space_group_name_H-M   'P 1'
_cell_length_a   11.17175297
_cell_length_b   11.17175297
_cell_length_c   9.99957900
_cell_angle_alpha   90.00000000
_cell_angle_beta   90.00000000
_cell_angle_gamma   100.04447921
_symmetry_Int_Tables_number   1
_chemical_formula_structural   LiV(Si2O5)3
_chemical_formula_sum   'Li4 V4 Si24 O60'
_cell_volume   1228.89913896
_cell_formula_units_Z   4
loop_
 _symmetry_equiv_pos_site_id
 _symmetry_equiv_pos_as_xyz
  1  'x, y, z'
loop_
 _atom_site_type_symbol
 _atom_site_label
 _atom_site_symmetry_multiplicity
 _atom_site_fract_x
 _atom_site_fract_y
 _atom_site_fract_z
 _atom_site_occupancy
  Li  Li0  1  0.24832900  0.24832900  0.00000000  1
  Li  Li1  1  0.25167100  0.25167100  0.50000000  1
  Li  Li2  1  0.74832900  0.74832900  0.50000000  1
  Li  Li3  1  0.75167100  0.75167100  0.00000000  1
  V  V0  1  0.34342300  0.15657700  0.25000000  1
  V  V1  1  0.15657700  0.34342300  0.75000000  1
  V  V2  1  0.84342300  0.65657700  0.25000000  1
  V  V3  1  0.65657700  0.84342300  0.75000000  1
  Si  Si0  1  0.75939000  0.02435300  0.49067700  1
  Si  Si1  1  0.70787200  0.07631100  0.95552400  1
  Si  Si2  1  0.17538900  0.04586300  0.80315900  1
  Si  Si3  1  0.97564700  0.24061000  0.49067700  1
  Si  Si4  1  0.57631100  0.20787200  0.45552400  1
  Si  Si5  1  0.92368900  0.29212800  0.95552400  1
  Si  Si6  1  0.52435300  0.25939000  0.99067700  1
  Si  Si7  1  0.04586200  0.17538900  0.19684100  1
  Si  Si8  1  0.45413700  0.32461100  0.69684100  1
  Si  Si9  1  0.79212800  0.42368900  0.45552400  1
  Si  Si10  1  0.74061000  0.47564700  0.99067700  1
  Si  Si11  1  0.32461100  0.45413800  0.30315900  1
  Si  Si12  1  0.67538900  0.54586200  0.69684100  1
  Si  Si13  1  0.25939000  0.52435300  0.00932300  1
  Si  Si14  1  0.20787200  0.57631100  0.54447600  1
  Si  Si15  1  0.54586200  0.67538900  0.30315900  1
  Si  Si16  1  0.95413700  0.82461100  0.80315900  1
  Si  Si17  1  0.47564700  0.74061000  0.00932300  1
  Si  Si18  1  0.07631100  0.70787200  0.04447600  1
  Si  Si19  1  0.42368900  0.79212800  0.54447600  1
  Si  Si20  1  0.02435300  0.75939000  0.50932300  1
  Si  Si21  1  0.82461100  0.95413700  0.19684100  1
  Si  Si22  1  0.29212800  0.92368900  0.04447600  1
  Si  Si23  1  0.24061000  0.97564700  0.50932300  1
  O  O0  1  0.65954300  0.99173900  0.82614600  1
  O  O1  1  0.95685100  0.04314900  0.19107000  1
  O  O2  1  0.89038600  0.10961400  0.52201000  1
  O  O3  1  0.26357800  0.00902900  0.92120500  1
  O  O4  1  0.24096200  0.03135800  0.66019700  1
  O  O5  1  0.65074500  0.10311600  0.50442900  1
  O  O6  1  0.82987300  0.17012700  0.91086900  1
  O  O7  1  0.49173900  0.15954300  0.32614600  1
  O  O8  1  0.26150500  0.09202400  0.40863800  1
  O  O9  1  0.60311600  0.15074500  0.00442900  1
  O  O10  1  0.18647000  0.16445100  0.16864300  1
  O  O11  1  0.49097100  0.23642200  0.57879500  1
  O  O12  1  0.16445100  0.18647000  0.83135700  1
  O  O13  1  0.46864200  0.25903800  0.83980300  1
  O  O14  1  0.40797600  0.23849500  0.09136200  1
  O  O15  1  0.89688400  0.34925500  0.50442900  1
  O  O16  1  0.00826100  0.34045700  0.82614600  1
  O  O17  1  0.67012700  0.32987300  0.41086900  1
  O  O18  1  0.09202400  0.26150500  0.59136200  1
  O  O19  1  0.84925500  0.39688400  0.00442900  1
  O  O20  1  0.03135800  0.24096200  0.33980300  1
  O  O21  1  0.33554900  0.31353000  0.33135700  1
  O  O22  1  0.00902900  0.26357800  0.07879500  1
  O  O23  1  0.31353000  0.33554900  0.66864300  1
  O  O24  1  0.60961400  0.39038600  0.02201000  1
  O  O25  1  0.54314900  0.45685100  0.69107000  1
  O  O26  1  0.84045700  0.50826100  0.32614600  1
  O  O27  1  0.23849500  0.40797600  0.90863800  1
  O  O28  1  0.76357800  0.50902900  0.57879500  1
  O  O29  1  0.74096200  0.53135800  0.83980300  1
  O  O30  1  0.25903800  0.46864200  0.16019700  1
  O  O31  1  0.23642200  0.49097100  0.42120500  1
  O  O32  1  0.76150500  0.59202400  0.09136200  1
  O  O33  1  0.15954300  0.49173900  0.67385400  1
  O  O34  1  0.45685100  0.54314900  0.30893000  1
  O  O35  1  0.39038600  0.60961400  0.97799000  1
  O  O36  1  0.68647000  0.66445100  0.33135700  1
  O  O37  1  0.99097100  0.73642200  0.92120500  1
  O  O38  1  0.66445100  0.68647000  0.66864300  1
  O  O39  1  0.96864200  0.75903800  0.66019700  1
  O  O40  1  0.15074500  0.60311600  0.99557100  1
  O  O41  1  0.90797600  0.73849500  0.40863800  1
  O  O42  1  0.32987300  0.67012700  0.58913100  1
  O  O43  1  0.99173900  0.65954300  0.17385400  1
  O  O44  1  0.10311600  0.65074500  0.49557100  1
  O  O45  1  0.59202400  0.76150500  0.90863800  1
  O  O46  1  0.53135800  0.74096200  0.16019700  1
  O  O47  1  0.83554900  0.81353000  0.16864300  1
  O  O48  1  0.50902900  0.76357800  0.42120500  1
  O  O49  1  0.81353000  0.83554900  0.83135700  1
  O  O50  1  0.39688400  0.84925500  0.99557100  1
  O  O51  1  0.73849500  0.90797600  0.59136200  1
  O  O52  1  0.50826100  0.84045700  0.67385400  1
  O  O53  1  0.17012700  0.82987300  0.08913100  1
  O  O54  1  0.34925500  0.89688400  0.49557100  1
  O  O55  1  0.75903800  0.96864200  0.33980300  1
  O  O56  1  0.73642200  0.99097100  0.07879500  1
  O  O57  1  0.10961400  0.89038600  0.47799000  1
  O  O58  1  0.04314900  0.95685100  0.80893000  1
  O  O59  1  0.34045700  0.00826100  0.17385400  1
loop_
_geom_bond_atom_site_label_1
_geom_bond_atom_site_label_2
_geom_bond_distance
_geom_bond_site_symmetry_2
Li0 O12 1.993386 1_554
Li0 O10 1.993386 1_555
Li0 O14 2.023871 1_555
Li0 O27 2.023871 1_554
Li1 O23 1.993386 1_555
Li1 O21 1.993386 1_555
Li1 O18 2.023871 1_555
Li1 O8 2.023871 1_555
Li2 O36 1.993386 1_555
Li2 O38 1.993386 1_555
Li2 O51 2.023871 1_555
Li2 O41 2.023871 1_555
Li3 O47 1.993386 1_555
Li3 O49 1.993386 1_554
Li3 O32 2.023871 1_555
Li3 O45 2.023871 1_554
O0 Si1 1.637063 1_565
O0 V3 1.818571 1_555
O1 Si7 1.631654 1_655
O1 Si21 1.631659 1_545
O2 Si0 1.631227 1_555
O2 Si3 1.631227 1_555
O3 Si22 1.623643 1_546
O3 Si2 1.635479 1_555
O4 Si2 1.627256 1_555
O4 Si23 1.631758 1_545
O5 Si0 1.624475 1_555
O5 Si4 1.624724 1_555
O6 Si5 1.630109 1_555
O6 Si1 1.630109 1_555
O7 Si4 1.637063 1_555
O7 V0 1.818571 1_555
O8 Si23 1.628692 1_545
O8 V0 1.908870 1_555
O9 Si6 1.624475 1_554
O9 Si1 1.624724 1_554
O10 Si7 1.621397 1_555
O10 V0 1.948829 1_555
O11 Si4 1.623643 1_555
O11 Si8 1.635479 1_555
O12 Si2 1.621386 1_555
O12 V1 1.948829 1_555
O13 Si8 1.627256 1_555
O13 Si6 1.631758 1_555
O14 Si6 1.628692 1_554
O14 V0 1.908870 1_555
O15 Si3 1.624475 1_555
O15 Si9 1.624724 1_555
O16 Si5 1.637063 1_455
O16 V1 1.818571 1_555
O17 Si4 1.630109 1_555
O17 Si9 1.630109 1_555
O18 Si3 1.628692 1_455
O18 V1 1.908870 1_555
O19 Si10 1.624475 1_554
O19 Si5 1.624724 1_554
O20 Si7 1.627254 1_555
O20 Si3 1.631758 1_455
O21 Si11 1.621397 1_555
O21 V0 1.948829 1_555
O22 Si5 1.623643 1_454
O22 Si7 1.635475 1_555
O23 Si8 1.621386 1_555
O23 V1 1.948829 1_555
O24 Si6 1.631227 1_554
O24 Si10 1.631227 1_554
O25 Si12 1.631654 1_555
O25 Si8 1.631659 1_555
O26 Si9 1.637063 1_555
O26 V2 1.818571 1_555
O27 Si13 1.628692 1_556
O27 V1 1.908870 1_555
O28 Si9 1.623643 1_555
O28 Si12 1.635475 1_555
O29 Si12 1.627254 1_555
O29 Si10 1.631758 1_555
O30 Si11 1.627254 1_555
O30 Si13 1.631758 1_555
O31 Si14 1.623643 1_555
O31 Si11 1.635475 1_555
O32 Si10 1.628692 1_554
O32 V2 1.908870 1_555
O33 Si14 1.637063 1_555
O33 V1 1.818571 1_555
O34 Si11 1.631654 1_555
O34 Si15 1.631654 1_555
O35 Si13 1.631227 1_556
O35 Si17 1.631227 1_556
O36 Si15 1.621397 1_555
O36 V2 1.948829 1_555
O37 Si18 1.623643 1_656
O37 Si16 1.635479 1_555
O38 Si12 1.621397 1_555
O38 V3 1.948829 1_555
O39 Si16 1.627256 1_555
O39 Si20 1.631758 1_655
O40 Si13 1.624475 1_556
O40 Si18 1.624724 1_556
O41 Si20 1.628692 1_655
O41 V2 1.908870 1_555
O42 Si14 1.630109 1_555
O42 Si19 1.630109 1_555
O43 Si18 1.637063 1_655
O43 V2 1.818571 1_555
O44 Si20 1.624475 1_555
O44 Si14 1.624724 1_555
O45 Si17 1.628692 1_556
O45 V3 1.908870 1_555
O46 Si15 1.627254 1_555
O46 Si17 1.631758 1_555
O47 Si21 1.621386 1_555
O47 V2 1.948829 1_555
O48 Si19 1.623643 1_555
O48 Si15 1.635475 1_555
O49 Si16 1.621386 1_555
O49 V3 1.948829 1_555
O50 Si17 1.624475 1_556
O50 Si22 1.624724 1_556
O51 Si0 1.628692 1_565
O51 V3 1.908870 1_555
O52 Si19 1.637063 1_555
O52 V3 1.818571 1_555
O53 Si22 1.630109 1_555
O53 Si18 1.630109 1_555
O54 Si23 1.624475 1_555
O54 Si19 1.624724 1_555
O55 Si21 1.627256 1_555
O55 Si0 1.631758 1_565
O56 Si1 1.623643 1_564
O56 Si21 1.635479 1_555
O57 Si20 1.631227 1_555
O57 Si23 1.631227 1_555
O58 Si2 1.631659 1_565
O58 Si16 1.631659 1_455
O59 Si22 1.637063 1_545
O59 V0 1.818571 1_555
