# generated using pymatgen
data_Li4V3P8O29
_symmetry_space_group_name_H-M   'P 1'
_cell_length_a   9.78690990
_cell_length_b   9.78690990
_cell_length_c   14.07521796
_cell_angle_alpha   89.88035974
_cell_angle_beta   89.88035974
_cell_angle_gamma   60.10848771
_symmetry_Int_Tables_number   1
_chemical_formula_structural   Li4V3P8O29
_chemical_formula_sum   'Li8 V6 P16 O58'
_cell_volume   1168.82477300
_cell_formula_units_Z   2
loop_
 _symmetry_equiv_pos_site_id
 _symmetry_equiv_pos_as_xyz
  1  'x, y, z'
loop_
 _atom_site_type_symbol
 _atom_site_label
 _atom_site_symmetry_multiplicity
 _atom_site_fract_x
 _atom_site_fract_y
 _atom_site_fract_z
 _atom_site_occupancy
  Li  Li0  1  0.09169900  0.68009400  0.56072800  1
  Li  Li1  1  0.32068500  0.77651500  0.44196300  1
  Li  Li2  1  0.68009400  0.09169900  0.06072800  1
  Li  Li3  1  0.31400500  0.91135100  0.94273300  1
  Li  Li4  1  0.77651400  0.32068500  0.94196300  1
  Li  Li5  1  0.91135100  0.31400500  0.44273300  1
  Li  Li6  1  0.76931500  0.91425300  0.44025400  1
  Li  Li7  1  0.91425300  0.76931500  0.94025400  1
  V  V0  1  0.99977500  0.56675200  0.75248500  1
  V  V1  1  0.43040100  0.00122300  0.74708700  1
  V  V2  1  0.43164000  0.56695900  0.24694300  1
  V  V3  1  0.56695900  0.43164000  0.74694300  1
  V  V4  1  0.56675200  0.99977500  0.25248500  1
  V  V5  1  0.00122300  0.43040100  0.24708700  1
  P  P0  1  0.08707600  0.22957000  0.84050500  1
  P  P1  1  0.22957000  0.08707600  0.34050500  1
  P  P2  1  0.08779400  0.68052500  0.34050700  1
  P  P3  1  0.33266500  0.33453500  0.62857800  1
  P  P4  1  0.33453500  0.33266500  0.12857800  1
  P  P5  1  0.23249800  0.68205000  0.84238200  1
  P  P6  1  0.31787000  0.76863500  0.65864500  1
  P  P7  1  0.68052500  0.08779400  0.84050700  1
  P  P8  1  0.31973200  0.91338100  0.15801800  1
  P  P9  1  0.68205000  0.23249800  0.34238200  1
  P  P10  1  0.76863500  0.31787000  0.15864500  1
  P  P11  1  0.66360500  0.66850800  0.87119700  1
  P  P12  1  0.66850800  0.66360500  0.37119700  1
  P  P13  1  0.91338100  0.31973200  0.65801800  1
  P  P14  1  0.76918200  0.91237200  0.65726500  1
  P  P15  1  0.91237200  0.76918200  0.15726500  1
  O  O0  1  0.98770500  0.24855600  0.56590700  1
  O  O1  1  0.08077500  0.25607100  0.33792700  1
  O  O2  1  0.20600300  0.00839900  0.24491800  1
  O  O3  1  0.24855600  0.98770500  0.06590700  1
  O  O4  1  0.10021800  0.37852700  0.82461900  1
  O  O5  1  0.25607100  0.08077500  0.83792700  1
  O  O6  1  0.18467600  0.33567900  0.17506800  1
  O  O7  1  0.09666600  0.52042100  0.32304400  1
  O  O8  1  0.99587600  0.75412900  0.06645000  1
  O  O9  1  0.08554300  0.66118700  0.84146200  1
  O  O10  1  0.33567900  0.18467600  0.67506800  1
  O  O11  1  0.18550200  0.48597400  0.66720500  1
  O  O12  1  0.37852700  0.10021800  0.32461900  1
  O  O13  1  0.34070800  0.32960700  0.52347100  1
  O  O14  1  0.32960700  0.34070800  0.02347100  1
  O  O15  1  0.52042100  0.09666600  0.82304400  1
  O  O16  1  0.33367700  0.48259400  0.17556700  1
  O  O17  1  0.48597400  0.18550200  0.16720500  1
  O  O18  1  0.25494400  0.66165200  0.34016100  1
  O  O19  1  0.20596000  0.78690500  0.74609700  1
  O  O20  1  0.24334000  0.76617100  0.92661900  1
  O  O21  1  0.24514500  0.75591600  0.56798700  1
  O  O22  1  0.38302100  0.52203300  0.82199400  1
  O  O23  1  0.48259400  0.33367700  0.67556700  1
  O  O24  1  0.66118700  0.08554300  0.34146200  1
  O  O25  1  0.34225100  0.74426700  0.17052000  1
  O  O26  1  0.52203300  0.38302100  0.32199400  1
  O  O27  1  0.23254700  0.99520500  0.42525600  1
  O  O28  1  0.75412900  0.99587600  0.56645000  1
  O  O29  1  0.47944600  0.61689200  0.67620300  1
  O  O30  1  0.66165200  0.25494400  0.84016100  1
  O  O31  1  0.78928700  0.00116600  0.74908600  1
  O  O32  1  0.34119800  0.91327800  0.66425000  1
  O  O33  1  0.51656000  0.66742200  0.32893300  1
  O  O34  1  0.61689200  0.47944600  0.17620300  1
  O  O35  1  0.75591600  0.24514500  0.06798700  1
  O  O36  1  0.76617100  0.24334000  0.42661900  1
  O  O37  1  0.78690500  0.20596000  0.24609700  1
  O  O38  1  0.74426700  0.34225100  0.67052000  1
  O  O39  1  0.51184400  0.81826800  0.82846200  1
  O  O40  1  0.48076200  0.90234200  0.17825400  1
  O  O41  1  0.66742200  0.51656000  0.82893300  1
  O  O42  1  0.66846600  0.65677100  0.47727200  1
  O  O43  1  0.65677100  0.66846600  0.97727200  1
  O  O44  1  0.61781200  0.90211300  0.67957000  1
  O  O45  1  0.81826800  0.51184400  0.32846200  1
  O  O46  1  0.67550700  0.81089600  0.33323500  1
  O  O47  1  0.91327800  0.34119800  0.16425000  1
  O  O48  1  0.00839900  0.20600300  0.74491800  1
  O  O49  1  0.99520500  0.23254700  0.92525600  1
  O  O50  1  0.90234200  0.48076200  0.67825400  1
  O  O51  1  0.81089600  0.67550700  0.83323500  1
  O  O52  1  0.74696000  0.91689400  0.16092300  1
  O  O53  1  0.90211300  0.61781200  0.17957000  1
  O  O54  1  0.75766900  0.00021100  0.93043500  1
  O  O55  1  0.91689400  0.74696000  0.66092300  1
  O  O56  1  0.00021100  0.75766900  0.43043500  1
  O  O57  1  0.00116600  0.78928700  0.24908600  1
loop_
_geom_bond_atom_site_label_1
_geom_bond_atom_site_label_2
_geom_bond_distance
_geom_bond_site_symmetry_2
Li0 O21 1.981941 1_555
Li0 O56 2.016136 1_555
Li0 O55 2.054709 1_455
Li0 O11 2.225688 1_555
Li1 O27 1.881180 1_555
Li1 O21 1.968557 1_555
Li1 O18 2.112424 1_555
Li1 O33 2.302221 1_555
Li2 O35 1.981941 1_555
Li2 O54 2.016136 1_554
Li2 O52 2.054709 1_545
Li2 O17 2.225688 1_555
Li3 O3 1.870324 1_556
Li3 O20 1.878837 1_555
Li3 O5 2.074423 1_565
Li3 O39 2.323968 1_555
Li4 O49 1.881189 1_555
Li4 O35 1.968554 1_556
Li4 O30 2.112417 1_555
Li4 O41 2.302221 1_555
Li5 O0 1.870324 1_555
Li5 O36 1.878837 1_555
Li5 O1 2.074423 1_655
Li5 O45 2.323968 1_555
Li6 O28 1.923988 1_555
Li6 O56 2.005494 1_655
Li6 O24 2.022852 1_565
Li6 O46 2.252306 1_555
Li7 O8 1.923988 1_556
Li7 O54 2.005494 1_565
Li7 O9 2.022852 1_655
Li7 O51 2.252306 1_555
O0 P13 1.479870 1_555
O1 P1 1.567422 1_555
O1 V5 1.955242 1_555
O2 P8 1.602225 1_545
O2 P1 1.624459 1_555
O3 P8 1.479870 1_555
O4 P0 1.541821 1_555
O4 V0 1.892641 1_455
O5 P0 1.567422 1_555
O5 V1 1.955242 1_555
O6 P4 1.591567 1_555
O6 V5 1.856851 1_555
O7 P2 1.545676 1_555
O7 V5 1.902649 1_555
O8 P15 1.483211 1_555
O9 P5 1.550216 1_555
O9 V0 1.977297 1_455
O10 P3 1.591567 1_555
O10 V1 1.856851 1_555
O11 P3 1.561761 1_555
O11 V0 1.983020 1_455
O12 P1 1.541821 1_555
O12 V4 1.892641 1_545
O13 P3 1.480941 1_555
O14 P4 1.480941 1_555
O15 P7 1.545676 1_555
O15 V1 1.902649 1_555
O16 P4 1.606964 1_555
O16 V2 1.845736 1_555
O17 P4 1.561761 1_555
O17 V4 1.983020 1_545
O18 P2 1.552112 1_555
O18 V2 1.992262 1_555
O19 P6 1.595861 1_555
O19 P5 1.639273 1_555
O20 P5 1.478684 1_555
O21 P6 1.497701 1_555
O22 P5 1.551042 1_555
O22 V3 1.883565 1_555
O23 P3 1.606964 1_555
O23 V3 1.845736 1_555
O24 P9 1.550216 1_555
O24 V4 1.977297 1_545
O25 P8 1.566613 1_555
O25 V2 1.848426 1_555
O26 P9 1.551042 1_555
O26 V2 1.883565 1_555
O27 P1 1.483856 1_565
O28 P14 1.483211 1_555
O29 P6 1.557744 1_555
O29 V3 1.860202 1_555
O30 P7 1.552112 1_555
O30 V3 1.992262 1_555
O31 P7 1.614608 1_555
O31 P14 1.624929 1_545
O32 P6 1.544335 1_555
O32 V1 1.902582 1_565
O33 P12 1.585867 1_555
O33 V2 1.952553 1_555
O34 P10 1.557744 1_555
O34 V2 1.860202 1_555
O35 P10 1.497701 1_555
O36 P9 1.478684 1_555
O37 P10 1.595861 1_555
O37 P9 1.639273 1_555
O38 P13 1.566613 1_555
O38 V3 1.848426 1_555
O39 P11 1.595722 1_555
O39 V1 1.930295 1_565
O40 P8 1.551957 1_555
O40 V4 1.875336 1_555
O41 P11 1.585867 1_555
O41 V3 1.952553 1_555
O42 P12 1.494395 1_555
O43 P11 1.494395 1_555
O44 P14 1.565089 1_555
O44 V1 1.852419 1_565
O45 P12 1.595722 1_555
O45 V5 1.930295 1_655
O46 P12 1.569469 1_555
O46 V4 1.969008 1_555
O47 P10 1.544335 1_555
O47 V5 1.902582 1_655
O48 P13 1.602225 1_455
O48 P0 1.624459 1_555
O49 P0 1.483856 1_655
O50 P13 1.551957 1_555
O50 V0 1.875336 1_555
O51 P11 1.569469 1_555
O51 V0 1.969008 1_555
O52 P15 1.542924 1_555
O52 V4 1.999595 1_555
O53 P15 1.565089 1_555
O53 V5 1.852419 1_655
O54 P7 1.503769 1_555
O55 P14 1.542924 1_555
O55 V0 1.999595 1_555
O56 P2 1.503769 1_555
O57 P2 1.614608 1_555
O57 P15 1.624929 1_455
