# generated using pymatgen
data_Na3SiH5O6
_symmetry_space_group_name_H-M   'P 1'
_cell_length_a   10.16856500
_cell_length_b   10.58946800
_cell_length_c   11.42177500
_cell_angle_alpha   90.00000000
_cell_angle_beta   90.00000000
_cell_angle_gamma   90.00000000
_symmetry_Int_Tables_number   1
_chemical_formula_structural   Na3SiH5O6
_chemical_formula_sum   'Na24 Si8 H40 O48'
_cell_volume   1229.89323321
_cell_formula_units_Z   8
loop_
 _symmetry_equiv_pos_site_id
 _symmetry_equiv_pos_as_xyz
  1  'x, y, z'
loop_
 _atom_site_type_symbol
 _atom_site_label
 _atom_site_symmetry_multiplicity
 _atom_site_fract_x
 _atom_site_fract_y
 _atom_site_fract_z
 _atom_site_occupancy
  Na  Na0  1  0.74514500  0.60720500  0.07016500  1
  Na  Na1  1  0.75485500  0.10720500  0.92983500  1
  Na  Na2  1  0.24514500  0.39279500  0.42983500  1
  Na  Na3  1  0.25485500  0.89279500  0.57016500  1
  Na  Na4  1  0.25485500  0.39279500  0.92983500  1
  Na  Na5  1  0.24514500  0.89279500  0.07016500  1
  Na  Na6  1  0.75485500  0.60720500  0.57016500  1
  Na  Na7  1  0.74514500  0.10720500  0.42983500  1
  Na  Na8  1  0.04513200  0.61284700  0.92084300  1
  Na  Na9  1  0.45486800  0.11284700  0.07915700  1
  Na  Na10  1  0.54513200  0.38715300  0.57915700  1
  Na  Na11  1  0.95486800  0.88715300  0.42084300  1
  Na  Na12  1  0.95486800  0.38715300  0.07915700  1
  Na  Na13  1  0.54513200  0.88715300  0.92084300  1
  Na  Na14  1  0.45486800  0.61284700  0.42084300  1
  Na  Na15  1  0.04513200  0.11284700  0.57915700  1
  Na  Na16  1  0.95107000  0.04708700  0.15687400  1
  Na  Na17  1  0.54893000  0.54708700  0.84312600  1
  Na  Na18  1  0.45107000  0.95291300  0.34312600  1
  Na  Na19  1  0.04893000  0.45291300  0.65687400  1
  Na  Na20  1  0.04893000  0.95291300  0.84312600  1
  Na  Na21  1  0.45107000  0.45291300  0.15687400  1
  Na  Na22  1  0.54893000  0.04708700  0.65687400  1
  Na  Na23  1  0.95107000  0.54708700  0.34312600  1
  Si  Si0  1  0.01595700  0.74766300  0.14695400  1
  Si  Si1  1  0.48404300  0.24766300  0.85304600  1
  Si  Si2  1  0.51595700  0.25233700  0.35304600  1
  Si  Si3  1  0.98404300  0.75233700  0.64695400  1
  Si  Si4  1  0.98404300  0.25233700  0.85304600  1
  Si  Si5  1  0.51595700  0.75233700  0.14695400  1
  Si  Si6  1  0.48404300  0.74766300  0.64695400  1
  Si  Si7  1  0.01595700  0.24766300  0.35304600  1
  H  H0  1  0.81173300  0.80187500  0.21891500  1
  H  H1  1  0.68826700  0.30187500  0.78108500  1
  H  H2  1  0.31173300  0.19812500  0.28108500  1
  H  H3  1  0.18826700  0.69812500  0.71891500  1
  H  H4  1  0.18826700  0.19812500  0.78108500  1
  H  H5  1  0.31173300  0.69812500  0.21891500  1
  H  H6  1  0.68826700  0.80187500  0.71891500  1
  H  H7  1  0.81173300  0.30187500  0.28108500  1
  H  H8  1  0.18971700  0.36628600  0.19102300  1
  H  H9  1  0.31028300  0.86628600  0.80897800  1
  H  H10  1  0.68971700  0.63371400  0.30897800  1
  H  H11  1  0.81028300  0.13371400  0.69102200  1
  H  H12  1  0.81028300  0.63371400  0.80897800  1
  H  H13  1  0.68971700  0.13371400  0.19102300  1
  H  H14  1  0.31028300  0.36628600  0.69102200  1
  H  H15  1  0.18971700  0.86628600  0.30897800  1
  H  H16  1  0.18933200  0.51384000  0.15412200  1
  H  H17  1  0.31066800  0.01384000  0.84587800  1
  H  H18  1  0.68933200  0.48616000  0.34587800  1
  H  H19  1  0.81066800  0.98616000  0.65412200  1
  H  H20  1  0.81066800  0.48616000  0.84587800  1
  H  H21  1  0.68933200  0.98616000  0.15412200  1
  H  H22  1  0.31066800  0.51384000  0.65412200  1
  H  H23  1  0.18933200  0.01384000  0.34587800  1
  H  H24  1  0.82083300  0.83427900  0.84380300  1
  H  H25  1  0.67916700  0.33427900  0.15619700  1
  H  H26  1  0.32083300  0.16572100  0.65619700  1
  H  H27  1  0.17916700  0.66572100  0.34380300  1
  H  H28  1  0.17916700  0.16572100  0.15619700  1
  H  H29  1  0.32083300  0.66572100  0.84380300  1
  H  H30  1  0.67916700  0.83427900  0.34380300  1
  H  H31  1  0.82083300  0.33427900  0.65619700  1
  H  H32  1  0.88791200  0.86076700  0.96682800  1
  H  H33  1  0.61208800  0.36076700  0.03317200  1
  H  H34  1  0.38791200  0.13923300  0.53317200  1
  H  H35  1  0.11208800  0.63923300  0.46682800  1
  H  H36  1  0.11208800  0.13923300  0.03317200  1
  H  H37  1  0.38791200  0.63923300  0.96682800  1
  H  H38  1  0.61208800  0.86076700  0.46682800  1
  H  H39  1  0.88791200  0.36076700  0.53317200  1
  O  O0  1  0.96542300  0.60262000  0.13431400  1
  O  O1  1  0.53457700  0.10262000  0.86568600  1
  O  O2  1  0.46542300  0.39738000  0.36568600  1
  O  O3  1  0.03457700  0.89738000  0.63431400  1
  O  O4  1  0.03457700  0.39738000  0.86568600  1
  O  O5  1  0.46542300  0.89738000  0.13431400  1
  O  O6  1  0.53457700  0.60262000  0.63431400  1
  O  O7  1  0.96542300  0.10262000  0.36568600  1
  O  O8  1  0.02875100  0.82120000  0.02145600  1
  O  O9  1  0.47124900  0.32120000  0.97854400  1
  O  O10  1  0.52875100  0.17880000  0.47854400  1
  O  O11  1  0.97124900  0.67880000  0.52145600  1
  O  O12  1  0.97124900  0.17880000  0.97854400  1
  O  O13  1  0.52875100  0.67880000  0.02145600  1
  O  O14  1  0.47124900  0.82120000  0.52145600  1
  O  O15  1  0.02875100  0.32120000  0.47854400  1
  O  O16  1  0.15475500  0.75998800  0.22252000  1
  O  O17  1  0.34524500  0.25998800  0.77748000  1
  O  O18  1  0.65475500  0.24001200  0.27748000  1
  O  O19  1  0.84524500  0.74001200  0.72252000  1
  O  O20  1  0.84524500  0.24001200  0.77748000  1
  O  O21  1  0.65475500  0.74001200  0.22252000  1
  O  O22  1  0.34524500  0.75998800  0.72252000  1
  O  O23  1  0.15475500  0.25998800  0.27748000  1
  O  O24  1  0.90452000  0.83188400  0.22852400  1
  O  O25  1  0.59548000  0.33188400  0.77147600  1
  O  O26  1  0.40452000  0.16811600  0.27147600  1
  O  O27  1  0.09548000  0.66811600  0.72852400  1
  O  O28  1  0.09548000  0.16811600  0.77147600  1
  O  O29  1  0.40452000  0.66811600  0.22852400  1
  O  O30  1  0.59548000  0.83188400  0.72852400  1
  O  O31  1  0.90452000  0.33188400  0.27147600  1
  O  O32  1  0.21867800  0.43060400  0.12829500  1
  O  O33  1  0.28132200  0.93060400  0.87170500  1
  O  O34  1  0.71867800  0.56939600  0.37170500  1
  O  O35  1  0.78132200  0.06939600  0.62829500  1
  O  O36  1  0.78132200  0.56939600  0.87170500  1
  O  O37  1  0.71867800  0.06939600  0.12829500  1
  O  O38  1  0.28132200  0.43060400  0.62829500  1
  O  O39  1  0.21867800  0.93060400  0.37170500  1
  O  O40  1  0.81288600  0.89103900  0.91399800  1
  O  O41  1  0.68711400  0.39103900  0.08600200  1
  O  O42  1  0.31288600  0.10896100  0.58600200  1
  O  O43  1  0.18711400  0.60896100  0.41399800  1
  O  O44  1  0.18711400  0.10896100  0.08600200  1
  O  O45  1  0.31288600  0.60896100  0.91399800  1
  O  O46  1  0.68711400  0.89103900  0.41399800  1
  O  O47  1  0.81288600  0.39103900  0.58600200  1
loop_
_geom_bond_atom_site_label_1
_geom_bond_atom_site_label_2
_geom_bond_distance
_geom_bond_site_symmetry_2
Na0 O36 2.331063 1_554
Na0 O0 2.357202 1_555
Na0 O41 2.370829 1_555
Na0 O13 2.392937 1_555
Na0 O21 2.418847 1_555
Na1 O37 2.331063 1_556
Na1 O1 2.357202 1_555
Na1 O40 2.370829 1_545
Na1 O12 2.392937 1_555
Na1 O20 2.418847 1_555
Na2 O38 2.331063 1_555
Na2 O2 2.357202 1_555
Na2 O43 2.370829 1_555
Na2 O15 2.392937 1_555
Na2 O23 2.418847 1_555
Na3 O39 2.331063 1_555
Na3 O3 2.357202 1_555
Na3 O42 2.370829 1_565
Na3 O14 2.392937 1_555
Na3 O22 2.418847 1_555
Na4 O32 2.331063 1_556
Na4 O4 2.357202 1_555
Na4 O45 2.370829 1_555
Na4 O9 2.392937 1_555
Na4 O17 2.418847 1_555
Na5 O33 2.331063 1_554
Na5 O5 2.357202 1_555
Na5 O44 2.370829 1_565
Na5 O8 2.392937 1_555
Na5 O16 2.418847 1_555
Na6 O34 2.331063 1_555
Na6 O6 2.357202 1_555
Na6 O47 2.370829 1_555
Na6 O11 2.392937 1_555
Na6 O19 2.418847 1_555
Na7 O35 2.331063 1_555
Na7 O7 2.357202 1_555
Na7 O46 2.370829 1_545
Na7 O10 2.392937 1_555
Na7 O18 2.418847 1_555
Na8 O27 2.330195 1_555
Na8 O4 2.369489 1_555
Na8 O8 2.493256 1_556
Na8 O0 2.571690 1_456
Na8 O45 2.724107 1_555
Na9 O26 2.330195 1_555
Na9 O5 2.369489 1_545
Na9 O9 2.493256 1_554
Na9 O1 2.571690 1_554
Na9 O44 2.724107 1_555
Na10 O25 2.330195 1_555
Na10 O6 2.369489 1_555
Na10 O10 2.493256 1_555
Na10 O2 2.571690 1_555
Na10 O47 2.724107 1_555
Na11 O24 2.330195 1_555
Na11 O7 2.369489 1_565
Na11 O11 2.493256 1_555
Na11 O3 2.571690 1_655
Na11 O46 2.724107 1_555
Na12 O31 2.330195 1_555
Na12 O0 2.369489 1_555
Na12 O12 2.493256 1_554
Na12 O4 2.571690 1_654
Na12 O41 2.724107 1_555
Na13 O30 2.330195 1_555
Na13 O1 2.369489 1_565
Na13 O13 2.493256 1_556
Na13 O5 2.571690 1_556
Na13 O40 2.724107 1_555
Na14 O29 2.330195 1_555
Na14 O2 2.369489 1_555
Na14 O14 2.493256 1_555
Na14 O6 2.571690 1_555
Na14 O43 2.724107 1_555
Na15 O28 2.330195 1_555
Na15 O3 2.369489 1_545
Na15 O15 2.493256 1_555
Na15 O7 2.571690 1_455
Na15 O42 2.724107 1_555
Na16 O37 2.397201 1_555
Na16 O7 2.460765 1_555
Na16 O24 2.467206 1_545
Na16 O12 2.477141 1_554
Na17 O36 2.397201 1_555
Na17 O6 2.460765 1_555
Na17 O25 2.467206 1_555
Na17 O13 2.477141 1_556
Na18 O39 2.397201 1_555
Na18 O5 2.460765 1_555
Na18 O26 2.467206 1_565
Na18 O14 2.477141 1_555
Na19 O38 2.397201 1_555
Na19 O4 2.460765 1_555
Na19 O27 2.467206 1_555
Na19 O15 2.477141 1_555
Na20 O33 2.397201 1_555
Na20 O3 2.460765 1_555
Na20 O28 2.467206 1_565
Na20 O8 2.477141 1_556
Na21 O32 2.397201 1_555
Na21 O2 2.460765 1_555
Na21 O29 2.467206 1_555
Na21 O9 2.477141 1_554
Na22 O35 2.397201 1_555
Na22 O1 2.460765 1_555
Na22 O30 2.467206 1_545
Na22 O10 2.477141 1_555
Na23 O34 2.397201 1_555
Na23 O0 2.460765 1_555
Na23 O31 2.467206 1_555
Na23 O11 2.477141 1_555
H0 O24 1.001619 1_555
H1 O25 1.001619 1_555
H2 O26 1.001619 1_555
H3 O27 1.001619 1_555
H4 O28 1.001619 1_555
H5 O29 1.001619 1_555
H6 O30 1.001619 1_555
H7 O31 1.001619 1_555
H8 O32 1.031473 1_555
H8 O23 1.539024 1_555
H9 O33 1.031465 1_555
H9 O22 1.539031 1_555
H10 O34 1.031465 1_555
H10 O21 1.539031 1_555
H11 O35 1.031465 1_555
H11 O20 1.539031 1_555
H12 O36 1.031465 1_555
H12 O19 1.539031 1_555
H13 O37 1.031473 1_555
H13 O18 1.539024 1_555
H14 O38 1.031465 1_555
H14 O17 1.539031 1_555
H15 O39 1.031465 1_555
H15 O16 1.539031 1_555
H16 O32 0.976205 1_555
H17 O33 0.976205 1_545
H18 O34 0.976205 1_555
H19 O35 0.976205 1_565
H20 O36 0.976205 1_555
H21 O37 0.976205 1_565
H22 O38 0.976205 1_555
H23 O39 0.976205 1_545
H24 O40 1.005289 1_555
H25 O41 1.005289 1_555
H26 O42 1.005289 1_555
H27 O43 1.005289 1_555
H28 O44 1.005289 1_555
H29 O45 1.005289 1_555
H30 O46 1.005289 1_555
H31 O47 1.005289 1_555
H32 O40 1.024156 1_555
H32 O8 1.617364 1_656
H32 Na20 2.372602 1_655
H33 O41 1.024156 1_555
H33 O9 1.617364 1_554
H33 Na21 2.372602 1_555
H34 O42 1.024156 1_555
H34 O10 1.617364 1_555
H34 Na22 2.372602 1_555
H35 O43 1.024156 1_555
H35 O11 1.617364 1_455
H35 Na23 2.372602 1_455
H36 O44 1.024156 1_555
H36 O12 1.617364 1_454
H36 Na16 2.372602 1_455
H37 O45 1.024156 1_555
H37 O13 1.617364 1_556
H37 Na17 2.372602 1_555
H38 O46 1.024156 1_555
H38 O14 1.617364 1_555
H38 Na18 2.372602 1_555
H39 O47 1.024156 1_555
H39 O15 1.617364 1_655
H39 Na19 2.372602 1_655
O0 Si0 1.626029 1_655
O1 Si1 1.626029 1_555
O2 Si2 1.626029 1_555
O3 Si3 1.626029 1_455
O4 Si4 1.626029 1_455
O5 Si5 1.626029 1_555
O6 Si6 1.626029 1_555
O7 Si7 1.626029 1_655
O8 Si0 1.636457 1_555
O9 Si1 1.636457 1_555
O10 Si2 1.636457 1_555
O11 Si3 1.636457 1_555
O12 Si4 1.636457 1_555
O13 Si5 1.636457 1_555
O14 Si6 1.636457 1_555
O15 Si7 1.636457 1_555
O16 Si0 1.659505 1_555
O17 Si1 1.659505 1_555
O18 Si2 1.659505 1_555
O19 Si3 1.659505 1_555
O20 Si4 1.659505 1_555
O21 Si5 1.659505 1_555
O22 Si6 1.659505 1_555
O23 Si7 1.659505 1_555
O24 Si0 1.716817 1_655
O25 Si1 1.716817 1_555
O26 Si2 1.716817 1_555
O27 Si3 1.716817 1_455
O28 Si4 1.716817 1_455
O29 Si5 1.716817 1_555
O30 Si6 1.716817 1_555
O31 Si7 1.716817 1_655
