# generated using pymatgen
data_Sb3(WO3)20
_symmetry_space_group_name_H-M   'P 1'
_cell_length_a   12.85763297
_cell_length_b   12.85763297
_cell_length_c   10.79973526
_cell_angle_alpha   65.70007852
_cell_angle_beta   65.70007852
_cell_angle_gamma   107.98098072
_symmetry_Int_Tables_number   1
_chemical_formula_structural   Sb3(WO3)20
_chemical_formula_sum   'Sb3 W20 O60'
_cell_volume   1212.84237781
_cell_formula_units_Z   1
loop_
 _symmetry_equiv_pos_site_id
 _symmetry_equiv_pos_as_xyz
  1  'x, y, z'
loop_
 _atom_site_type_symbol
 _atom_site_label
 _atom_site_symmetry_multiplicity
 _atom_site_fract_x
 _atom_site_fract_y
 _atom_site_fract_z
 _atom_site_occupancy
  Sb  Sb0  1  0.58752697  0.58752697  0.25000000  1
  Sb  Sb1  1  0.42432009  0.42432009  0.72705090  1
  Sb  Sb2  1  0.90137099  0.90137099  0.77294910  1
  W  W0  1  0.40807760  0.08684965  0.25000000  1
  W  W1  1  0.08684965  0.40807760  0.25000000  1
  W  W2  1  0.13390184  0.13390184  0.75043857  1
  W  W3  1  0.36600666  0.36600666  0.25000000  1
  W  W4  1  0.66306623  0.33799182  0.25000000  1
  W  W5  1  0.84357745  0.15495443  0.25000000  1
  W  W6  1  0.41172149  0.09212052  0.75044858  1
  W  W7  1  0.33799182  0.66306623  0.25000000  1
  W  W8  1  0.09212052  0.41172149  0.75044858  1
  W  W9  1  0.15495443  0.84357745  0.25000000  1
  W  W10  1  0.66049906  0.34012041  0.74998833  1
  W  W11  1  0.16048739  0.84010874  0.75001167  1
  W  W12  1  0.84010874  0.16048739  0.75001167  1
  W  W13  1  0.34012041  0.66049906  0.74998833  1
  W  W14  1  0.59316890  0.90711588  0.25000000  1
  W  W15  1  0.90711588  0.59316890  0.25000000  1
  W  W16  1  0.87463547  0.87463547  0.25000000  1
  W  W17  1  0.63434141  0.63434141  0.74956143  1
  W  W18  1  0.91217006  0.59256910  0.74955142  1
  W  W19  1  0.59256910  0.91217006  0.74955142  1
  O  O0  1  0.00190478  0.00190478  0.99811271  1
  O  O1  1  0.21601341  0.53236362  0.00003300  1
  O  O2  1  0.03110400  0.71567180  0.99996044  1
  O  O3  1  0.53236362  0.21601341  0.00003300  1
  O  O4  1  0.71567180  0.03110400  0.99996044  1
  O  O5  1  0.21822711  0.35349921  0.25000000  1
  O  O6  1  0.35349921  0.21822711  0.25000000  1
  O  O7  1  0.55111611  0.20180800  0.25000000  1
  O  O8  1  0.49972678  0.49972678  0.00032082  1
  O  O9  1  0.25004761  0.25004761  0.49967918  1
  O  O10  1  0.20180800  0.55111611  0.25000000  1
  O  O11  1  0.05162160  0.69783971  0.25000000  1
  O  O12  1  0.69783971  0.05162160  0.25000000  1
  O  O13  1  0.28293281  0.14961249  0.74845436  1
  O  O14  1  0.14961249  0.28293281  0.74845436  1
  O  O15  1  0.03087156  0.89749953  0.25000000  1
  O  O16  1  0.41521611  0.53783243  0.25000000  1
  O  O17  1  0.89749953  0.03087156  0.25000000  1
  O  O18  1  0.53783243  0.41521611  0.25000000  1
  O  O19  1  0.53555503  0.21894509  0.49952648  1
  O  O20  1  0.03407990  0.71861078  0.50040963  1
  O  O21  1  0.28448953  0.96901941  0.99959037  1
  O  O22  1  0.78508151  0.46847057  0.00047352  1
  O  O23  1  0.46847057  0.78508151  0.00047352  1
  O  O24  1  0.21894509  0.53555503  0.49952648  1
  O  O25  1  0.96901941  0.28448953  0.99959037  1
  O  O26  1  0.71861078  0.03407990  0.50040963  1
  O  O27  1  0.52561073  0.02561073  0.75000000  1
  O  O28  1  0.77710661  0.27566139  0.25000000  1
  O  O29  1  0.27566139  0.77710661  0.25000000  1
  O  O30  1  0.02561073  0.52561073  0.75000000  1
  O  O31  1  0.75639724  0.49296695  0.25000000  1
  O  O32  1  0.49296695  0.75639724  0.25000000  1
  O  O33  1  0.26198035  0.98874499  0.25000000  1
  O  O34  1  0.00760716  0.74527074  0.75048225  1
  O  O35  1  0.50809040  0.24575299  0.74951775  1
  O  O36  1  0.24575299  0.50809040  0.74951775  1
  O  O37  1  0.74527074  0.00760716  0.75048225  1
  O  O38  1  0.98874499  0.26198035  0.25000000  1
  O  O39  1  0.72240013  0.22240013  0.75000000  1
  O  O40  1  0.47608856  0.97461741  0.25000000  1
  O  O41  1  0.22240013  0.72240013  0.75000000  1
  O  O42  1  0.97461741  0.47608856  0.25000000  1
  O  O43  1  0.78106545  0.46563225  0.50003956  1
  O  O44  1  0.96604642  0.28239662  0.49996700  1
  O  O45  1  0.28239662  0.96604642  0.49996700  1
  O  O46  1  0.46563225  0.78106545  0.50003956  1
  O  O47  1  0.96109861  0.08278856  0.75262115  1
  O  O48  1  0.08278856  0.96109861  0.75262115  1
  O  O49  1  0.58540971  0.46371975  0.74737885  1
  O  O50  1  0.46371975  0.58540971  0.74737885  1
  O  O51  1  0.85057603  0.71794600  0.25000000  1
  O  O52  1  0.71794600  0.85057603  0.25000000  1
  O  O53  1  0.94849733  0.29814729  0.75016934  1
  O  O54  1  0.79831564  0.44866667  0.74983066  1
  O  O55  1  0.44866667  0.79831564  0.74983066  1
  O  O56  1  0.29814729  0.94849733  0.75016934  1
  O  O57  1  0.75001749  0.75001749  0.50188729  1
  O  O58  1  0.78138817  0.64806685  0.75154564  1
  O  O59  1  0.64806685  0.78138817  0.75154564  1
loop_
_geom_bond_atom_site_label_1
_geom_bond_atom_site_label_2
_geom_bond_distance
_geom_bond_site_symmetry_2
O0 W2 1.914316 1_555
O0 W16 1.942936 1_446
O1 W1 1.928868 1_555
O1 W13 1.929147 1_554
O2 W11 1.928789 1_555
O2 W15 1.928829 1_456
O3 W0 1.928868 1_555
O3 W10 1.929147 1_554
O4 W12 1.928789 1_555
O4 W14 1.928829 1_546
O5 W3 1.856762 1_555
O5 W1 2.019338 1_555
O6 W3 1.856762 1_555
O6 W0 2.019338 1_555
O7 W4 1.892566 1_555
O7 W0 1.972010 1_555
O8 W3 1.930476 1_555
O8 W17 1.939166 1_554
O9 W3 1.930476 1_555
O9 W2 1.939165 1_555
O10 W7 1.892566 1_555
O10 W1 1.972010 1_555
O11 W15 1.928617 1_455
O11 W9 1.933755 1_555
O12 W14 1.928617 1_545
O12 W5 1.933755 1_555
O13 W2 1.853832 1_555
O13 W6 2.015181 1_555
O14 W2 1.853832 1_555
O14 W8 2.015181 1_555
O15 W9 1.925860 1_555
O15 W16 1.938350 1_455
O16 W3 2.101948 1_555
O16 Sb0 2.107782 1_555
O16 W7 2.136769 1_555
O17 W5 1.925860 1_555
O17 W16 1.938350 1_545
O18 W3 2.101948 1_555
O18 Sb0 2.107782 1_555
O18 W4 2.136769 1_555
O19 W4 1.926767 1_555
O19 W6 1.935639 1_555
O20 W18 1.922158 1_455
O20 W9 1.932213 1_555
O21 W6 1.922158 1_565
O21 W9 1.932213 1_556
O22 W4 1.926766 1_555
O22 W18 1.935639 1_554
O23 W7 1.926766 1_555
O23 W19 1.935639 1_554
O24 W7 1.926767 1_555
O24 W8 1.935639 1_555
O25 W8 1.922158 1_655
O25 W5 1.932213 1_556
O26 W19 1.922158 1_545
O26 W5 1.932213 1_555
O27 W6 1.909539 1_555
O27 W19 1.909540 1_545
O28 W4 1.875580 1_555
O28 W5 1.989499 1_555
O29 W7 1.875580 1_555
O29 W9 1.989499 1_555
O30 W8 1.909539 1_555
O30 W18 1.909540 1_455
O31 W15 1.968198 1_555
O31 W4 1.983490 1_555
O32 W14 1.968198 1_555
O32 W7 1.983490 1_555
O33 W0 1.912281 1_565
O33 W9 1.947232 1_555
O34 W11 1.964087 1_555
O34 W18 1.974752 1_455
O35 W10 1.964077 1_555
O35 W6 1.974756 1_555
O36 W13 1.964077 1_555
O36 W8 1.974756 1_555
O37 W12 1.964087 1_555
O37 W19 1.974752 1_545
O38 W1 1.912281 1_655
O38 W5 1.947232 1_555
O39 W10 1.915243 1_555
O39 W12 1.915243 1_555
O40 W0 1.904242 1_565
O40 W14 1.956037 1_555
O41 W13 1.915243 1_555
O41 W11 1.915243 1_555
O42 W1 1.904242 1_655
O42 W15 1.956037 1_555
O43 W10 1.928789 1_555
O43 W15 1.928829 1_555
O44 W1 1.928868 1_655
O44 W12 1.929147 1_555
O45 W0 1.928868 1_565
O45 W11 1.929147 1_555
O46 W13 1.928789 1_555
O46 W14 1.928829 1_555
O47 W12 2.095542 1_555
O47 W2 2.100396 1_655
O47 Sb2 2.100662 1_545
O48 W11 2.095542 1_555
O48 W2 2.100396 1_565
O48 Sb2 2.100662 1_455
O49 W10 2.095542 1_555
O49 W17 2.100408 1_555
O49 Sb1 2.100662 1_555
O50 W13 2.095542 1_555
O50 W17 2.100408 1_555
O50 Sb1 2.100662 1_555
O51 W16 1.941585 1_555
O51 W15 1.955112 1_555
O52 W16 1.941585 1_555
O52 W14 1.955112 1_555
O53 W12 1.885871 1_555
O53 W8 1.971265 1_655
O54 W10 1.885862 1_555
O54 W18 1.971271 1_555
O55 W13 1.885862 1_555
O55 W19 1.971271 1_555
O56 W11 1.885871 1_555
O56 W6 1.971265 1_565
O57 W17 1.914317 1_555
O57 W16 1.942936 1_555
O58 W17 1.853835 1_555
O58 W18 2.015169 1_555
O59 W17 1.853835 1_555
O59 W19 2.015169 1_555
