# generated using pymatgen
data_Mo3O8
_symmetry_space_group_name_H-M   'P 1'
_cell_length_a   6.03007464
_cell_length_b   6.03007464
_cell_length_c   6.01066692
_cell_angle_alpha   61.89963507
_cell_angle_beta   61.89963507
_cell_angle_gamma   61.41609210
_symmetry_Int_Tables_number   1
_chemical_formula_structural   Mo3O8
_chemical_formula_sum   'Mo3 O8'
_cell_volume   160.55785973
_cell_formula_units_Z   1
loop_
 _symmetry_equiv_pos_site_id
 _symmetry_equiv_pos_as_xyz
  1  'x, y, z'
loop_
 _atom_site_type_symbol
 _atom_site_label
 _atom_site_symmetry_multiplicity
 _atom_site_fract_x
 _atom_site_fract_y
 _atom_site_fract_z
 _atom_site_occupancy
  Mo  Mo0  1  0.50000000  0.00000000  0.50000000  1
  Mo  Mo1  1  0.00000000  0.00000000  0.00000000  1
  Mo  Mo2  1  0.00000000  0.50000000  0.50000000  1
  O  O0  1  0.19792600  0.75989700  0.24429600  1
  O  O1  1  0.24646900  0.24646900  0.30721600  1
  O  O2  1  0.75353100  0.75353100  0.69278400  1
  O  O3  1  0.80207400  0.24010300  0.75570400  1
  O  O4  1  0.75989700  0.19792600  0.24429600  1
  O  O5  1  0.24010300  0.80207400  0.75570400  1
  O  O6  1  0.23599900  0.23599900  0.75296800  1
  O  O7  1  0.76400100  0.76400100  0.24703200  1
loop_
_geom_bond_atom_site_label_1
_geom_bond_atom_site_label_2
_geom_bond_distance
_geom_bond_site_symmetry_2
Mo0 O2 1.939365 1_545
Mo0 O1 1.939365 1_555
Mo0 O5 2.008855 1_545
Mo0 O4 2.008855 1_555
Mo0 O7 2.112283 1_545
Mo0 O6 2.112283 1_555
Mo1 O4 1.916122 1_455
Mo1 O0 1.916122 1_545
Mo1 O3 1.916122 1_454
Mo1 O5 1.916122 1_544
Mo1 O7 2.052279 1_445
Mo1 O6 2.052279 1_554
Mo2 O2 1.939365 1_455
Mo2 O1 1.939365 1_555
Mo2 O3 2.008855 1_455
Mo2 O0 2.008855 1_555
Mo2 O6 2.112283 1_555
Mo2 O7 2.112283 1_455
