# generated using pymatgen
data_LiCrPO4F
_symmetry_space_group_name_H-M   'P 1'
_cell_length_a   7.26442989
_cell_length_b   7.26442989
_cell_length_c   9.56105395
_cell_angle_alpha   64.22553080
_cell_angle_beta   64.22553080
_cell_angle_gamma   51.73081504
_symmetry_Int_Tables_number   1
_chemical_formula_structural   LiCrPO4F
_chemical_formula_sum   'Li4 Cr4 P4 O16 F4'
_cell_volume   346.80808808
_cell_formula_units_Z   4
loop_
 _symmetry_equiv_pos_site_id
 _symmetry_equiv_pos_as_xyz
  1  'x, y, z'
loop_
 _atom_site_type_symbol
 _atom_site_label
 _atom_site_symmetry_multiplicity
 _atom_site_fract_x
 _atom_site_fract_y
 _atom_site_fract_z
 _atom_site_occupancy
  Li  Li0  1  0.11704500  0.89880200  0.70359000  1
  Li  Li1  1  0.33844600  0.82162900  0.38459000  1
  Li  Li2  1  0.89880200  0.11704500  0.20359000  1
  Li  Li3  1  0.82162900  0.33844600  0.88459000  1
  Cr  Cr0  1  0.88780400  0.56122700  0.35847400  1
  Cr  Cr1  1  0.16221200  0.42685600  0.01080000  1
  Cr  Cr2  1  0.56122700  0.88780400  0.85847400  1
  Cr  Cr3  1  0.42685600  0.16221200  0.51080000  1
  P  P0  1  0.70079800  0.93842600  0.06480800  1
  P  P1  1  0.58744900  0.36332000  0.68202400  1
  P  P2  1  0.36332000  0.58744900  0.18202400  1
  P  P3  1  0.93842600  0.70079800  0.56480800  1
  O  O0  1  0.79565600  0.07278500  0.06204700  1
  O  O1  1  0.18202700  0.54874100  0.16283100  1
  O  O2  1  0.65225500  0.78293800  0.23111300  1
  O  O3  1  0.81441600  0.21426300  0.74112800  1
  O  O4  1  0.60834900  0.53551200  0.51655600  1
  O  O5  1  0.35497500  0.51946800  0.79805600  1
  O  O6  1  0.86252000  0.76599300  0.94406100  1
  O  O7  1  0.45739900  0.09316300  0.01095400  1
  O  O8  1  0.07278500  0.79565600  0.56204700  1
  O  O9  1  0.54874100  0.18202700  0.66283100  1
  O  O10  1  0.21426300  0.81441600  0.24112800  1
  O  O11  1  0.53551200  0.60834900  0.01655600  1
  O  O12  1  0.51946800  0.35497500  0.29805600  1
  O  O13  1  0.76599300  0.86252000  0.44406100  1
  O  O14  1  0.78293800  0.65225500  0.73111300  1
  O  O15  1  0.09316300  0.45739900  0.51095400  1
  F  F0  1  0.28823800  0.06043500  0.45494400  1
  F  F1  1  0.99121600  0.32427100  0.24150700  1
  F  F2  1  0.06043500  0.28823800  0.95494400  1
  F  F3  1  0.32427100  0.99121600  0.74150700  1
loop_
_geom_bond_atom_site_label_1
_geom_bond_atom_site_label_2
_geom_bond_distance
_geom_bond_site_symmetry_2
Li0 O3 2.000491 1_465
Li0 O8 2.013686 1_555
Li0 O5 2.165650 1_555
Li0 O6 2.493847 1_455
Li1 O10 1.973613 1_555
Li1 O8 1.990926 1_555
Li1 O2 2.021112 1_555
Li1 O4 2.139868 1_555
Li2 O10 2.000491 1_645
Li2 O0 2.013686 1_555
Li2 O12 2.165650 1_555
Li2 O13 2.493847 1_545
Li3 O3 1.973613 1_555
Li3 O0 1.990926 1_556
Li3 O14 2.021112 1_555
Li3 O11 2.139868 1_556
Cr0 O2 1.922872 1_555
Cr0 O4 1.999090 1_555
Cr0 F1 2.029714 1_555
Cr0 O15 2.112134 1_655
Cr0 O1 2.122729 1_655
Cr0 O13 2.184469 1_555
Cr1 F2 1.891864 1_554
Cr1 O7 2.008770 1_555
Cr1 O5 2.012638 1_554
Cr1 F1 2.073208 1_455
Cr1 O1 2.092057 1_555
Cr1 O6 2.100826 1_454
Cr2 O14 1.922872 1_555
Cr2 O11 1.999090 1_556
Cr2 F3 2.029714 1_555
Cr2 O7 2.112134 1_566
Cr2 O9 2.122729 1_565
Cr2 O6 2.184469 1_555
Cr3 F0 1.891864 1_555
Cr3 O15 2.008770 1_555
Cr3 O12 2.012638 1_555
Cr3 F3 2.073208 1_545
Cr3 O9 2.092057 1_555
Cr3 O13 2.100826 1_545
O0 P0 1.491008 1_545
O1 P2 1.600308 1_555
O2 P0 1.540230 1_555
O3 P1 1.508955 1_555
O4 P1 1.547893 1_555
O5 P1 1.568943 1_555
O6 P0 1.592887 1_556
O7 P0 1.575265 1_545
O8 P3 1.491008 1_455
O9 P1 1.600308 1_555
O10 P2 1.508955 1_555
O11 P2 1.547893 1_555
O12 P2 1.568943 1_555
O13 P3 1.592887 1_555
O14 P3 1.540230 1_555
O15 P3 1.575265 1_455
F0 Li1 1.900705 1_545
F0 Li0 2.320997 1_545
F1 Li2 2.187785 1_555
F2 Li3 1.900705 1_455
F2 Li2 2.320997 1_456
F3 Li0 2.187785 1_555
