# generated using pymatgen
data_Fe5(OF4)2
_symmetry_space_group_name_H-M   'P 1'
_cell_length_a   4.76895600
_cell_length_b   8.05529400
_cell_length_c   10.74860469
_cell_angle_alpha   63.45683767
_cell_angle_beta   90.00000000
_cell_angle_gamma   90.00000000
_symmetry_Int_Tables_number   1
_chemical_formula_structural   Fe5(OF4)2
_chemical_formula_sum   'Fe10 O4 F16'
_cell_volume   369.38964204
_cell_formula_units_Z   2
loop_
 _symmetry_equiv_pos_site_id
 _symmetry_equiv_pos_as_xyz
  1  'x, y, z'
loop_
 _atom_site_type_symbol
 _atom_site_label
 _atom_site_symmetry_multiplicity
 _atom_site_fract_x
 _atom_site_fract_y
 _atom_site_fract_z
 _atom_site_occupancy
  Fe  Fe0  1  0.47886900  0.80327200  0.78721600  1
  Fe  Fe1  1  0.52673200  0.37634400  0.40643500  1
  Fe  Fe2  1  0.50000000  0.00000000  0.00000000  1
  Fe  Fe3  1  0.47326800  0.62365600  0.59356500  1
  Fe  Fe4  1  0.52113100  0.19672800  0.21278400  1
  Fe  Fe5  1  0.97326800  0.37634400  0.90643500  1
  Fe  Fe6  1  0.02673200  0.62365600  0.09356500  1
  Fe  Fe7  1  0.02113100  0.80327200  0.28721600  1
  Fe  Fe8  1  0.00000000  0.00000000  0.50000000  1
  Fe  Fe9  1  0.97886900  0.19672800  0.71278400  1
  O  O0  1  0.20963100  0.82211500  0.10819200  1
  O  O1  1  0.29036900  0.82211500  0.60819200  1
  O  O2  1  0.70963100  0.17788500  0.39180800  1
  O  O3  1  0.79036900  0.17788500  0.89180800  1
  F  F0  1  0.19656100  0.42019400  0.72854500  1
  F  F1  1  0.19264100  0.02153500  0.31685700  1
  F  F2  1  0.19344300  0.60546600  0.92344400  1
  F  F3  1  0.19416700  0.22114200  0.52556200  1
  F  F4  1  0.30735900  0.02153500  0.81685700  1
  F  F5  1  0.30583300  0.22114200  0.02556200  1
  F  F6  1  0.30655700  0.60546600  0.42344400  1
  F  F7  1  0.30343900  0.42019400  0.22854500  1
  F  F8  1  0.69416700  0.77885800  0.97443800  1
  F  F9  1  0.69264100  0.97846500  0.18314300  1
  F  F10  1  0.69344300  0.39453400  0.57655600  1
  F  F11  1  0.69656100  0.57980600  0.77145500  1
  F  F12  1  0.80655700  0.39453400  0.07655600  1
  F  F13  1  0.80343900  0.57980600  0.27145500  1
  F  F14  1  0.80735900  0.97846500  0.68314300  1
  F  F15  1  0.80583300  0.77885800  0.47443800  1
loop_
_geom_bond_atom_site_label_1
_geom_bond_atom_site_label_2
_geom_bond_distance
_geom_bond_site_symmetry_2
Fe0 O1 2.067094 1_555
Fe1 O2 1.888337 1_555
Fe2 O3 1.958027 1_554
Fe2 O0 1.958027 1_545
Fe3 O1 1.888337 1_555
Fe4 O2 2.067094 1_555
Fe5 O3 1.888337 1_555
Fe6 O0 1.888337 1_555
Fe7 O0 2.067094 1_555
Fe8 O2 1.958027 1_455
Fe8 O1 1.958027 1_545
Fe9 O3 2.067094 1_555
F0 Fe5 2.076321 1_455
F0 Fe3 2.099347 1_555
F0 Fe9 2.149264 1_455
F1 Fe4 2.070291 1_555
F1 Fe7 2.088614 1_545
F1 Fe8 2.108083 1_555
F2 Fe6 2.058315 1_556
F2 Fe0 2.109630 1_555
F2 Fe5 2.200889 1_455
F3 Fe1 2.070552 1_555
F3 Fe8 2.131574 1_555
F3 Fe9 2.188340 1_455
F4 Fe9 2.070291 1_455
F4 Fe0 2.088614 1_545
F4 Fe2 2.108083 1_556
F5 Fe5 2.070552 1_454
F5 Fe2 2.131574 1_555
F5 Fe4 2.188340 1_555
F6 Fe3 2.058315 1_555
F6 Fe7 2.109630 1_555
F6 Fe1 2.200889 1_555
F7 Fe1 2.076321 1_555
F7 Fe6 2.099347 1_555
F7 Fe4 2.149264 1_555
F8 Fe6 2.070552 1_656
F8 Fe2 2.131574 1_566
F8 Fe0 2.188340 1_555
F9 Fe7 2.070291 1_655
F9 Fe4 2.088614 1_565
F9 Fe2 2.108083 1_565
F10 Fe1 2.058315 1_555
F10 Fe9 2.109630 1_555
F10 Fe3 2.200889 1_555
F11 Fe3 2.076321 1_555
F11 Fe5 2.099347 1_555
F11 Fe0 2.149264 1_555
F12 Fe5 2.058315 1_554
F12 Fe4 2.109630 1_555
F12 Fe6 2.200889 1_655
F13 Fe6 2.076321 1_655
F13 Fe1 2.099347 1_555
F13 Fe7 2.149264 1_655
F14 Fe0 2.070291 1_555
F14 Fe9 2.088614 1_565
F14 Fe8 2.108083 1_665
F15 Fe3 2.070552 1_555
F15 Fe8 2.131574 1_665
F15 Fe7 2.188340 1_655
