# generated using pymatgen
data_Mn(IO3)2
_symmetry_space_group_name_H-M   'P 1'
_cell_length_a   5.46038600
_cell_length_b   6.83179000
_cell_length_c   14.96534600
_cell_angle_alpha   90.00000000
_cell_angle_beta   90.00000000
_cell_angle_gamma   90.00000000
_symmetry_Int_Tables_number   1
_chemical_formula_structural   Mn(IO3)2
_chemical_formula_sum   'Mn4 I8 O24'
_cell_volume   558.27041695
_cell_formula_units_Z   4
loop_
 _symmetry_equiv_pos_site_id
 _symmetry_equiv_pos_as_xyz
  1  'x, y, z'
loop_
 _atom_site_type_symbol
 _atom_site_label
 _atom_site_symmetry_multiplicity
 _atom_site_fract_x
 _atom_site_fract_y
 _atom_site_fract_z
 _atom_site_occupancy
  Mn  Mn0  1  0.75000000  0.14507900  0.00000000  1
  Mn  Mn1  1  0.25000000  0.85492100  0.00000000  1
  Mn  Mn2  1  0.25000000  0.35492100  0.50000000  1
  Mn  Mn3  1  0.75000000  0.64507900  0.50000000  1
  I  I0  1  0.24823200  0.28719700  0.15162400  1
  I  I1  1  0.74823200  0.71280300  0.15162400  1
  I  I2  1  0.74823200  0.21280300  0.34837600  1
  I  I3  1  0.24823200  0.78719700  0.34837600  1
  I  I4  1  0.75176800  0.21280300  0.65162400  1
  I  I5  1  0.25176800  0.78719700  0.65162400  1
  I  I6  1  0.25176800  0.28719700  0.84837600  1
  I  I7  1  0.75176800  0.71280300  0.84837600  1
  O  O0  1  0.41084400  0.10723200  0.07888100  1
  O  O1  1  0.91084400  0.89276800  0.07888100  1
  O  O2  1  0.97126400  0.33699200  0.08362600  1
  O  O3  1  0.47126400  0.66300800  0.08362600  1
  O  O4  1  0.62741400  0.37363300  0.26243900  1
  O  O5  1  0.12741400  0.62636700  0.26243900  1
  O  O6  1  0.12741400  0.12636700  0.23756100  1
  O  O7  1  0.62741400  0.87363300  0.23756100  1
  O  O8  1  0.47126400  0.16300800  0.41637400  1
  O  O9  1  0.97126400  0.83699200  0.41637400  1
  O  O10  1  0.91084400  0.39276800  0.42111900  1
  O  O11  1  0.41084400  0.60723200  0.42111900  1
  O  O12  1  0.58915600  0.39276800  0.57888100  1
  O  O13  1  0.08915600  0.60723200  0.57888100  1
  O  O14  1  0.02873600  0.16300800  0.58362600  1
  O  O15  1  0.52873600  0.83699200  0.58362600  1
  O  O16  1  0.37258600  0.12636700  0.76243900  1
  O  O17  1  0.87258600  0.87363300  0.76243900  1
  O  O18  1  0.87258600  0.37363300  0.73756100  1
  O  O19  1  0.37258600  0.62636700  0.73756100  1
  O  O20  1  0.52873600  0.33699200  0.91637400  1
  O  O21  1  0.02873600  0.66300800  0.91637400  1
  O  O22  1  0.08915600  0.10723200  0.92111900  1
  O  O23  1  0.58915600  0.89276800  0.92111900  1
loop_
_geom_bond_atom_site_label_1
_geom_bond_atom_site_label_2
_geom_bond_distance
_geom_bond_site_symmetry_2
Mn0 O20 2.178292 1_554
Mn0 O2 2.178292 1_555
Mn0 O22 2.211336 1_654
Mn0 O0 2.211336 1_555
Mn0 O23 2.266310 1_544
Mn0 O1 2.266310 1_545
Mn1 O21 2.178292 1_554
Mn1 O3 2.178292 1_555
Mn1 O23 2.211336 1_554
Mn1 O1 2.211336 1_455
Mn1 O22 2.266310 1_564
Mn1 O0 2.266310 1_565
Mn2 O14 2.178292 1_555
Mn2 O8 2.178292 1_555
Mn2 O10 2.211336 1_455
Mn2 O12 2.211336 1_555
Mn2 O11 2.266310 1_555
Mn2 O13 2.266310 1_555
Mn3 O9 2.178292 1_555
Mn3 O15 2.178292 1_555
Mn3 O11 2.211336 1_555
Mn3 O13 2.211336 1_655
Mn3 O12 2.266310 1_555
Mn3 O10 2.266310 1_555
I0 O6 1.815622 1_555
I0 O2 1.854313 1_455
I0 O0 1.866853 1_555
I1 O7 1.815622 1_555
I1 O3 1.854313 1_555
I1 O1 1.866853 1_555
I2 O4 1.815622 1_555
I2 O8 1.854313 1_555
I2 O10 1.866853 1_555
I3 O5 1.815622 1_555
I3 O9 1.854313 1_455
I3 O11 1.866853 1_555
I4 O18 1.815622 1_555
I4 O14 1.854313 1_655
I4 O12 1.866853 1_555
I5 O19 1.815622 1_555
I5 O15 1.854313 1_555
I5 O13 1.866853 1_555
I6 O16 1.815622 1_555
I6 O20 1.854313 1_555
I6 O22 1.866853 1_555
I7 O17 1.815622 1_555
I7 O21 1.854313 1_655
I7 O23 1.866853 1_555
