# generated using pymatgen
data_Li3V3(BO5)2
_symmetry_space_group_name_H-M   'P 1'
_cell_length_a   9.42226400
_cell_length_b   3.01177000
_cell_length_c   12.00100617
_cell_angle_alpha   89.85548813
_cell_angle_beta   90.00000000
_cell_angle_gamma   90.00000000
_symmetry_Int_Tables_number   1
_chemical_formula_structural   Li3V3(BO5)2
_chemical_formula_sum   'Li6 V6 B4 O20'
_cell_volume   340.55977417
_cell_formula_units_Z   2
loop_
 _symmetry_equiv_pos_site_id
 _symmetry_equiv_pos_as_xyz
  1  'x, y, z'
loop_
 _atom_site_type_symbol
 _atom_site_label
 _atom_site_symmetry_multiplicity
 _atom_site_fract_x
 _atom_site_fract_y
 _atom_site_fract_z
 _atom_site_occupancy
  Li  Li0  1  0.00000000  0.00000000  0.00000000  1
  Li  Li1  1  0.00672500  0.00167200  0.27722100  1
  Li  Li2  1  0.49327500  0.00167200  0.77722100  1
  Li  Li3  1  0.50000000  0.00000000  0.50000000  1
  Li  Li4  1  0.50672500  0.99832800  0.22277900  1
  Li  Li5  1  0.99327500  0.99832800  0.72277900  1
  V  V0  1  0.00000000  0.50000000  0.50000000  1
  V  V1  1  0.76601800  0.47550500  0.11457400  1
  V  V2  1  0.73398200  0.47550500  0.61457400  1
  V  V3  1  0.50000000  0.50000000  0.00000000  1
  V  V4  1  0.26601800  0.52449500  0.38542600  1
  V  V5  1  0.23398200  0.52449500  0.88542600  1
  B  B0  1  0.76436600  0.50430900  0.86176500  1
  B  B1  1  0.73563400  0.50430900  0.36176500  1
  B  B2  1  0.26436600  0.49569100  0.63823500  1
  B  B3  1  0.23563400  0.49569100  0.13823500  1
  O  O0  1  0.87774100  0.00611100  0.14576400  1
  O  O1  1  0.87871200  0.99307800  0.56901600  1
  O  O2  1  0.88320800  0.50423200  0.36282800  1
  O  O3  1  0.83515100  0.49774300  0.75987400  1
  O  O4  1  0.84410600  0.51153200  0.95918500  1
  O  O5  1  0.65589400  0.51153200  0.45918500  1
  O  O6  1  0.66484900  0.49774300  0.25987400  1
  O  O7  1  0.61679200  0.50423200  0.86282800  1
  O  O8  1  0.62128800  0.99307800  0.06901600  1
  O  O9  1  0.62225900  0.00611100  0.64576400  1
  O  O10  1  0.37774100  0.99388900  0.35423600  1
  O  O11  1  0.37871200  0.00692200  0.93098400  1
  O  O12  1  0.38320800  0.49576800  0.13717200  1
  O  O13  1  0.33515100  0.50225700  0.74012600  1
  O  O14  1  0.34410600  0.48846800  0.54081500  1
  O  O15  1  0.15589400  0.48846800  0.04081500  1
  O  O16  1  0.16484900  0.50225700  0.24012600  1
  O  O17  1  0.11679200  0.49576800  0.63717200  1
  O  O18  1  0.12128800  0.00692200  0.43098400  1
  O  O19  1  0.12225900  0.99388900  0.85423600  1
loop_
_geom_bond_atom_site_label_1
_geom_bond_atom_site_label_2
_geom_bond_distance
_geom_bond_site_symmetry_2
Li0 O0 2.094662 1_455
Li0 O19 2.094662 1_544
Li0 O4 2.136690 1_444
Li0 O15 2.136690 1_555
Li0 O4 2.183394 1_454
Li0 O15 2.183394 1_545
Li1 O0 1.991470 1_455
Li1 O18 2.137935 1_555
Li1 O2 2.155622 1_445
Li1 O16 2.164187 1_545
Li1 O16 2.165077 1_555
Li1 O2 2.169967 1_455
Li2 O9 1.991470 1_555
Li2 O11 2.137935 1_555
Li2 O7 2.155622 1_545
Li2 O13 2.164187 1_545
Li2 O13 2.165077 1_555
Li2 O7 2.169967 1_555
Li3 O10 2.094662 1_545
Li3 O9 2.094662 1_555
Li3 O5 2.136690 1_545
Li3 O14 2.136690 1_555
Li3 O5 2.183394 1_555
Li3 O14 2.183394 1_545
Li4 O10 1.991470 1_555
Li4 O8 2.137935 1_555
Li4 O12 2.155622 1_565
Li4 O6 2.164187 1_565
Li4 O6 2.165077 1_555
Li4 O12 2.169967 1_555
Li5 O19 1.991470 1_655
Li5 O1 2.137935 1_555
Li5 O17 2.155622 1_665
Li5 O3 2.164187 1_565
Li5 O3 2.165077 1_555
Li5 O17 2.169967 1_655
B0 O4 1.389958 1_555
B0 O7 1.390540 1_555
B0 O3 1.393043 1_555
B1 O5 1.389958 1_555
B1 O2 1.390540 1_555
B1 O6 1.393043 1_555
B2 O14 1.389958 1_555
B2 O17 1.390540 1_555
B2 O13 1.393043 1_555
B3 O15 1.389958 1_555
B3 O12 1.390540 1_555
B3 O16 1.393043 1_555
O0 V1 1.801152 1_555
O0 V1 1.950660 1_545
O1 V0 2.050260 1_655
O1 V2 2.067283 1_565
O1 V0 2.077633 1_665
O1 V2 2.141064 1_555
O2 V0 1.980156 1_655
O3 V2 1.988566 1_555
O4 V1 2.007405 1_556
O5 V2 2.007405 1_555
O6 V1 1.988566 1_555
O7 V3 1.980156 1_556
O8 V3 2.050260 1_555
O8 V1 2.067283 1_565
O8 V3 2.077633 1_565
O8 V1 2.141064 1_555
O9 V2 1.801152 1_555
O9 V2 1.950660 1_545
O10 V4 1.801152 1_555
O10 V4 1.950660 1_565
O11 V3 2.050260 1_556
O11 V5 2.067283 1_545
O11 V3 2.077633 1_546
O11 V5 2.141064 1_555
O12 V3 1.980156 1_555
O13 V5 1.988566 1_555
O14 V4 2.007405 1_555
O15 V5 2.007405 1_554
O16 V4 1.988566 1_555
O17 V0 1.980156 1_555
O18 V0 2.050260 1_555
O18 V4 2.067283 1_545
O18 V0 2.077633 1_545
O18 V4 2.141064 1_555
O19 V5 1.801152 1_555
O19 V5 1.950660 1_565
