# generated using pymatgen
data_Cr3Sb3(TeO8)2
_symmetry_space_group_name_H-M   'P 1'
_cell_length_a   6.15395205
_cell_length_b   6.15395205
_cell_length_c   9.96441456
_cell_angle_alpha   89.98345055
_cell_angle_beta   89.98345055
_cell_angle_gamma   60.39251042
_symmetry_Int_Tables_number   1
_chemical_formula_structural   Cr3Sb3(TeO8)2
_chemical_formula_sum   'Cr3 Sb3 Te2 O16'
_cell_volume   328.09134821
_cell_formula_units_Z   1
loop_
 _symmetry_equiv_pos_site_id
 _symmetry_equiv_pos_as_xyz
  1  'x, y, z'
loop_
 _atom_site_type_symbol
 _atom_site_label
 _atom_site_symmetry_multiplicity
 _atom_site_fract_x
 _atom_site_fract_y
 _atom_site_fract_z
 _atom_site_occupancy
  Cr  Cr0  1  0.83206400  0.33677900  0.21148800  1
  Cr  Cr1  1  0.33677900  0.83206400  0.21148800  1
  Cr  Cr2  1  0.16923000  0.16923000  0.71091100  1
  Sb  Sb0  1  0.83488700  0.83488700  0.21276400  1
  Sb  Sb1  1  0.16956700  0.66892500  0.71401400  1
  Sb  Sb2  1  0.66892500  0.16956700  0.71401400  1
  Te  Te0  1  0.65482800  0.65482800  0.47262100  1
  Te  Te1  1  0.32131400  0.32131400  0.00090900  1
  O  O0  1  0.84204400  0.30933100  0.60606700  1
  O  O1  1  0.52113300  0.52113300  0.33127700  1
  O  O2  1  0.66976700  0.66976700  0.11352100  1
  O  O3  1  0.00116000  0.00116000  0.30580700  1
  O  O4  1  0.00281300  0.00281300  0.81693100  1
  O  O5  1  0.30933100  0.84204400  0.60606700  1
  O  O6  1  0.95607100  0.52233600  0.33392400  1
  O  O7  1  0.52233600  0.95607100  0.33392400  1
  O  O8  1  0.16313800  0.16313800  0.10497700  1
  O  O9  1  0.84347100  0.84347100  0.61140700  1
  O  O10  1  0.48226200  0.04265500  0.82694100  1
  O  O11  1  0.04265500  0.48226200  0.82694100  1
  O  O12  1  0.33595900  0.33595900  0.60713600  1
  O  O13  1  0.67358400  0.15835200  0.10900100  1
  O  O14  1  0.48863000  0.48863000  0.82463400  1
  O  O15  1  0.15835200  0.67358400  0.10900100  1
loop_
_geom_bond_atom_site_label_1
_geom_bond_atom_site_label_2
_geom_bond_distance
_geom_bond_site_symmetry_2
Cr0 O3 2.026747 1_655
Cr0 O2 2.031436 1_555
Cr0 O1 2.056114 1_555
Cr0 O6 2.058433 1_555
Cr0 O13 2.063762 1_555
Cr0 O8 2.065785 1_655
Cr1 O3 2.026747 1_565
Cr1 O2 2.031436 1_555
Cr1 O1 2.056114 1_555
Cr1 O7 2.058433 1_555
Cr1 O15 2.063762 1_555
Cr1 O8 2.065785 1_565
Cr2 O10 2.042671 1_555
Cr2 O11 2.042671 1_555
Cr2 O5 2.043098 1_545
Cr2 O0 2.043098 1_455
Cr2 O12 2.052759 1_555
Cr2 O4 2.061261 1_555
O0 Sb2 1.983932 1_555
O0 Te0 2.279230 1_555
O1 Te0 2.001918 1_555
O2 Sb0 2.016043 1_555
O3 Sb0 1.997307 1_445
O4 Sb2 2.060045 1_455
O4 Sb1 2.060045 1_545
O5 Sb1 1.983932 1_555
O5 Te0 2.279230 1_555
O6 Sb0 2.072458 1_555
O6 Te0 2.125355 1_555
O7 Sb0 2.072458 1_555
O7 Te0 2.125355 1_555
O8 Te1 1.976223 1_555
O9 Sb1 2.024079 1_655
O9 Sb2 2.024079 1_565
O9 Te0 2.437492 1_555
O10 Sb2 2.020137 1_555
O10 Te1 2.291102 1_556
O11 Sb1 2.020137 1_555
O11 Te1 2.291102 1_556
O12 Sb1 2.075747 1_555
O12 Sb2 2.075747 1_555
O13 Sb0 2.015877 1_545
O13 Te1 2.172077 1_555
O14 Sb2 2.036971 1_555
O14 Sb1 2.036971 1_555
O14 Te1 2.500217 1_556
O15 Sb0 2.015877 1_455
O15 Te1 2.172077 1_555
