# generated using pymatgen
data_Li9Nb3P8O29
_symmetry_space_group_name_H-M   'P 1'
_cell_length_a   10.07478274
_cell_length_b   10.07478274
_cell_length_c   13.98011500
_cell_angle_alpha   90.00000000
_cell_angle_beta   90.00000000
_cell_angle_gamma   120.00000484
_symmetry_Int_Tables_number   1
_chemical_formula_structural   Li9Nb3P8O29
_chemical_formula_sum   'Li18 Nb6 P16 O58'
_cell_volume   1228.88921586
_cell_formula_units_Z   2
loop_
 _symmetry_equiv_pos_site_id
 _symmetry_equiv_pos_as_xyz
  1  'x, y, z'
loop_
 _atom_site_type_symbol
 _atom_site_label
 _atom_site_symmetry_multiplicity
 _atom_site_fract_x
 _atom_site_fract_y
 _atom_site_fract_z
 _atom_site_occupancy
  Li  Li0  1  0.00000000  0.00000000  0.00000000  1
  Li  Li1  1  0.00000000  0.00000000  0.50000000  1
  Li  Li2  1  0.32983800  0.23007600  0.06410000  1
  Li  Li3  1  0.32983800  0.09976300  0.56410000  1
  Li  Li4  1  0.76992400  0.67016200  0.56410000  1
  Li  Li5  1  0.66666700  0.33333300  0.88234500  1
  Li  Li6  1  0.66666700  0.33333300  0.38234500  1
  Li  Li7  1  0.90023700  0.67016200  0.06410000  1
  Li  Li8  1  0.76992400  0.09976300  0.06410000  1
  Li  Li9  1  0.09976300  0.76992400  0.43590000  1
  Li  Li10  1  0.90023700  0.23007600  0.56410000  1
  Li  Li11  1  0.23007600  0.90023700  0.93590000  1
  Li  Li12  1  0.09976300  0.32983800  0.93590000  1
  Li  Li13  1  0.33333300  0.66666700  0.11765500  1
  Li  Li14  1  0.33333300  0.66666700  0.61765500  1
  Li  Li15  1  0.23007600  0.32983800  0.43590000  1
  Li  Li16  1  0.67016200  0.90023700  0.43590000  1
  Li  Li17  1  0.67016200  0.76992400  0.93590000  1
  Nb  Nb0  1  0.43400100  0.43400100  0.25000000  1
  Nb  Nb1  1  0.56599900  0.56599900  0.75000000  1
  Nb  Nb2  1  0.43400100  0.00000000  0.75000000  1
  Nb  Nb3  1  0.56599900  0.00000000  0.25000000  1
  Nb  Nb4  1  0.00000000  0.56599900  0.25000000  1
  Nb  Nb5  1  0.00000000  0.43400100  0.75000000  1
  P  P0  1  0.31230700  0.22526000  0.84611100  1
  P  P1  1  0.31230700  0.08704700  0.34611100  1
  P  P2  1  0.77474000  0.68769300  0.34611100  1
  P  P3  1  0.66666700  0.33333300  0.61875800  1
  P  P4  1  0.66666700  0.33333300  0.11875800  1
  P  P5  1  0.91295300  0.68769300  0.84611100  1
  P  P6  1  0.08704700  0.77474000  0.65388900  1
  P  P7  1  0.77474000  0.08704700  0.84611100  1
  P  P8  1  0.22526000  0.91295300  0.15388900  1
  P  P9  1  0.91295300  0.22526000  0.34611100  1
  P  P10  1  0.08704700  0.31230700  0.15388900  1
  P  P11  1  0.33333300  0.66666700  0.38124200  1
  P  P12  1  0.33333300  0.66666700  0.88124200  1
  P  P13  1  0.22526000  0.31230700  0.65388900  1
  P  P14  1  0.68769300  0.91295300  0.65388900  1
  P  P15  1  0.68769300  0.77474000  0.15388900  1
  O  O0  1  0.21936400  0.21936400  0.75000000  1
  O  O1  1  0.23029700  0.22179900  0.56777900  1
  O  O2  1  0.31735200  0.24177800  0.34795500  1
  O  O3  1  0.21936400  0.00000000  0.25000000  1
  O  O4  1  0.23029700  0.00849800  0.06777900  1
  O  O5  1  0.31735200  0.07557300  0.84795500  1
  O  O6  1  0.47683900  0.36228700  0.83861800  1
  O  O7  1  0.51434000  0.32037300  0.15755500  1
  O  O8  1  0.63771300  0.52316100  0.33861800  1
  O  O9  1  0.77820100  0.76970300  0.06777900  1
  O  O10  1  0.78063600  0.78063600  0.25000000  1
  O  O11  1  0.75822200  0.68264800  0.84795500  1
  O  O12  1  0.51434000  0.19396800  0.65755500  1
  O  O13  1  0.47683900  0.11455200  0.33861800  1
  O  O14  1  0.67962700  0.48566000  0.65755500  1
  O  O15  1  0.66666700  0.33333300  0.51111700  1
  O  O16  1  0.66666700  0.33333300  0.01111700  1
  O  O17  1  0.80603200  0.48566000  0.15755500  1
  O  O18  1  0.63771300  0.11455200  0.83861800  1
  O  O19  1  0.67962700  0.19396800  0.15755500  1
  O  O20  1  0.92442700  0.68264800  0.34795500  1
  O  O21  1  0.00000000  0.78063600  0.75000000  1
  O  O22  1  0.99150200  0.76970300  0.56777900  1
  O  O23  1  0.00849800  0.77820100  0.93222100  1
  O  O24  1  0.88544800  0.52316100  0.83861800  1
  O  O25  1  0.80603200  0.32037300  0.65755500  1
  O  O26  1  0.07557300  0.75822200  0.15204500  1
  O  O27  1  0.88544800  0.36228700  0.33861800  1
  O  O28  1  0.75822200  0.07557300  0.34795500  1
  O  O29  1  0.22179900  0.99150200  0.43222100  1
  O  O30  1  0.77820100  0.00849800  0.56777900  1
  O  O31  1  0.78063600  0.00000000  0.75000000  1
  O  O32  1  0.24177800  0.92442700  0.65204500  1
  O  O33  1  0.11455200  0.63771300  0.66138200  1
  O  O34  1  0.92442700  0.24177800  0.84795500  1
  O  O35  1  0.19396800  0.67962700  0.34244500  1
  O  O36  1  0.11455200  0.47683900  0.16138200  1
  O  O37  1  0.99150200  0.22179900  0.06777900  1
  O  O38  1  0.00849800  0.23029700  0.43222100  1
  O  O39  1  0.00000000  0.21936400  0.25000000  1
  O  O40  1  0.07557300  0.31735200  0.65204500  1
  O  O41  1  0.32037300  0.80603200  0.84244500  1
  O  O42  1  0.36228700  0.88544800  0.16138200  1
  O  O43  1  0.19396800  0.51434000  0.84244500  1
  O  O44  1  0.33333300  0.66666700  0.48888300  1
  O  O45  1  0.33333300  0.66666700  0.98888300  1
  O  O46  1  0.32037300  0.51434000  0.34244500  1
  O  O47  1  0.52316100  0.88544800  0.66138200  1
  O  O48  1  0.48566000  0.80603200  0.34244500  1
  O  O49  1  0.24177800  0.31735200  0.15204500  1
  O  O50  1  0.22179900  0.23029700  0.93222100  1
  O  O51  1  0.36228700  0.47683900  0.66138200  1
  O  O52  1  0.48566000  0.67962700  0.84244500  1
  O  O53  1  0.52316100  0.63771300  0.16138200  1
  O  O54  1  0.68264800  0.92442700  0.15204500  1
  O  O55  1  0.76970300  0.99150200  0.93222100  1
  O  O56  1  0.68264800  0.75822200  0.65204500  1
  O  O57  1  0.76970300  0.77820100  0.43222100  1
loop_
_geom_bond_atom_site_label_1
_geom_bond_atom_site_label_2
_geom_bond_distance
_geom_bond_site_symmetry_2
Li0 O9 2.467761 1_445
Li0 O50 2.467761 1_554
Li0 O55 2.467761 1_444
Li0 O4 2.467761 1_555
Li0 O23 2.467761 1_544
Li0 O37 2.467761 1_455
Li1 O57 2.467761 1_445
Li1 O1 2.467761 1_555
Li1 O38 2.467761 1_555
Li1 O22 2.467761 1_445
Li1 O29 2.467761 1_545
Li1 O30 2.467761 1_455
Li2 O4 1.937273 1_555
Li2 O49 1.962640 1_555
Li2 O7 2.073346 1_555
Li2 O50 2.141580 1_554
Li3 O1 1.937264 1_555
Li3 O32 1.962640 1_545
Li3 O12 2.073346 1_555
Li3 O29 2.141582 1_545
Li4 O22 1.937273 1_555
Li4 O56 1.962640 1_555
Li4 O14 2.073346 1_555
Li4 O57 2.141580 1_555
Li5 O16 1.800247 1_556
Li5 O18 2.161988 1_555
Li5 O24 2.161992 1_555
Li5 O6 2.161998 1_555
Li6 O15 1.800247 1_555
Li6 O27 2.161988 1_555
Li6 O13 2.161992 1_555
Li6 O8 2.161998 1_555
Li7 O9 1.937264 1_555
Li7 O26 1.962640 1_655
Li7 O17 2.073346 1_555
Li7 O23 2.141582 1_654
Li8 O37 1.937273 1_555
Li8 O54 1.962640 1_545
Li8 O19 2.073346 1_555
Li8 O55 2.141585 1_544
Li9 O29 1.937273 1_555
Li9 O20 1.962640 1_455
Li9 O35 2.073346 1_555
Li9 O22 2.141585 1_455
Li10 O30 1.937273 1_555
Li10 O40 1.962640 1_655
Li10 O25 2.073346 1_555
Li10 O38 2.141585 1_655
Li11 O23 1.937273 1_555
Li11 O5 1.962640 1_565
Li11 O41 2.073346 1_555
Li11 O4 2.141585 1_566
Li12 O50 1.937264 1_555
Li12 O34 1.962640 1_455
Li12 O43 2.073346 1_555
Li12 O37 2.141582 1_456
Li13 O45 1.800247 1_554
Li13 O42 2.161988 1_555
Li13 O36 2.161992 1_555
Li13 O53 2.161998 1_555
Li14 O44 1.800247 1_555
Li14 O33 2.161988 1_555
Li14 O47 2.161992 1_555
Li14 O51 2.161998 1_555
Li15 O38 1.937273 1_555
Li15 O2 1.962640 1_555
Li15 O46 2.073346 1_555
Li15 O1 2.141580 1_555
Li16 O57 1.937264 1_555
Li16 O28 1.962640 1_565
Li16 O48 2.073346 1_555
Li16 O30 2.141582 1_565
Li17 O55 1.937273 1_555
Li17 O11 1.962640 1_555
Li17 O52 2.073346 1_555
Li17 O9 2.141580 1_556
Nb0 O7 2.136000 1_555
Nb0 O46 2.136000 1_555
Nb0 O8 2.170329 1_555
Nb0 O53 2.170329 1_555
Nb0 O49 2.175077 1_555
Nb0 O2 2.175077 1_555
Nb1 O52 2.136000 1_555
Nb1 O14 2.136000 1_555
Nb1 O51 2.170329 1_555
Nb1 O6 2.170329 1_555
Nb1 O11 2.175077 1_555
Nb1 O56 2.175077 1_555
Nb2 O41 2.136007 1_545
Nb2 O12 2.136008 1_555
Nb2 O18 2.170329 1_555
Nb2 O47 2.170329 1_545
Nb2 O5 2.175070 1_555
Nb2 O32 2.175078 1_545
Nb3 O19 2.136007 1_555
Nb3 O48 2.136008 1_545
Nb3 O42 2.170329 1_545
Nb3 O13 2.170329 1_555
Nb3 O54 2.175070 1_545
Nb3 O28 2.175078 1_555
Nb4 O35 2.136007 1_555
Nb4 O17 2.136008 1_455
Nb4 O27 2.170329 1_455
Nb4 O36 2.170329 1_555
Nb4 O20 2.175070 1_455
Nb4 O26 2.175078 1_555
Nb5 O25 2.136007 1_455
Nb5 O43 2.136008 1_555
Nb5 O33 2.170329 1_555
Nb5 O24 2.170329 1_455
Nb5 O40 2.175070 1_555
Nb5 O34 2.175078 1_455
O0 P13 1.621756 1_555
O0 P0 1.621756 1_555
O1 P13 1.526276 1_555
O2 P1 1.534316 1_555
O3 P1 1.621756 1_555
O3 P8 1.621756 1_545
O4 P8 1.526276 1_545
O5 P0 1.534326 1_555
O6 P0 1.541473 1_555
O7 P4 1.570362 1_555
O8 P2 1.541473 1_555
O9 P15 1.526276 1_555
O10 P2 1.621756 1_555
O10 P15 1.621756 1_555
O11 P5 1.534316 1_555
O12 P3 1.570354 1_555
O13 P1 1.541473 1_555
O14 P3 1.570362 1_555
O15 P3 1.504834 1_555
O16 P4 1.504834 1_555
O17 P4 1.570354 1_555
O18 P7 1.541473 1_555
O19 P4 1.570343 1_555
O20 P2 1.534326 1_555
O21 P5 1.621756 1_455
O21 P6 1.621756 1_555
O22 P6 1.526276 1_655
O23 P5 1.526276 1_455
O24 P5 1.541473 1_555
O25 P3 1.570343 1_555
O26 P8 1.534320 1_555
O27 P9 1.541473 1_555
O28 P9 1.534320 1_555
O29 P1 1.526276 1_565
O30 P14 1.526276 1_545
O31 P14 1.621756 1_545
O31 P7 1.621756 1_555
O32 P6 1.534320 1_555
O33 P6 1.541473 1_555
O34 P7 1.534320 1_555
O35 P11 1.570343 1_555
O36 P10 1.541473 1_555
O37 P10 1.526276 1_655
O38 P9 1.526276 1_455
O39 P10 1.621756 1_555
O39 P9 1.621756 1_455
O40 P13 1.534326 1_555
O41 P12 1.570343 1_555
O42 P8 1.541473 1_555
O43 P12 1.570354 1_555
O44 P11 1.504834 1_555
O45 P12 1.504834 1_555
O46 P11 1.570362 1_555
O47 P14 1.541473 1_555
O48 P11 1.570354 1_555
O49 P10 1.534316 1_555
O50 P0 1.526276 1_555
O51 P13 1.541473 1_555
O52 P12 1.570362 1_555
O53 P15 1.541473 1_555
O54 P15 1.534326 1_555
O55 P7 1.526276 1_565
O56 P14 1.534316 1_555
O57 P2 1.526276 1_555
