# generated using pymatgen
data_Li3Cr(BO3)2
_symmetry_space_group_name_H-M   'P 1'
_cell_length_a   5.81941264
_cell_length_b   9.02199000
_cell_length_c   9.24589763
_cell_angle_alpha   70.26021274
_cell_angle_beta   80.15504662
_cell_angle_gamma   82.68348479
_symmetry_Int_Tables_number   1
_chemical_formula_structural   Li3Cr(BO3)2
_chemical_formula_sum   'Li12 Cr4 B8 O24'
_cell_volume   448.91038686
_cell_formula_units_Z   4
loop_
 _symmetry_equiv_pos_site_id
 _symmetry_equiv_pos_as_xyz
  1  'x, y, z'
loop_
 _atom_site_type_symbol
 _atom_site_label
 _atom_site_symmetry_multiplicity
 _atom_site_fract_x
 _atom_site_fract_y
 _atom_site_fract_z
 _atom_site_occupancy
  Li  Li0  1  0.83857300  0.33144900  0.53471300  1
  Li  Li1  1  0.83849000  0.83147100  0.03468700  1
  Li  Li2  1  0.16146400  0.66854000  0.46529600  1
  Li  Li3  1  0.16149000  0.16854900  0.96527700  1
  Li  Li4  1  0.01669800  0.95848700  0.27533700  1
  Li  Li5  1  0.01660300  0.45843100  0.77533900  1
  Li  Li6  1  0.98333700  0.04156100  0.72464500  1
  Li  Li7  1  0.98344300  0.54157900  0.22464400  1
  Li  Li8  1  0.75801600  0.08011200  0.46711300  1
  Li  Li9  1  0.75799900  0.58013300  0.96711000  1
  Li  Li10  1  0.24199700  0.91991500  0.53287000  1
  Li  Li11  1  0.24199100  0.41986300  0.03288800  1
  Cr  Cr0  1  0.53655900  0.54982700  0.65266600  1
  Cr  Cr1  1  0.46361300  0.45027300  0.34732400  1
  Cr  Cr2  1  0.53664300  0.04960300  0.15272400  1
  Cr  Cr3  1  0.46332300  0.95034800  0.84728700  1
  B  B0  1  0.18962900  0.20063900  0.36575000  1
  B  B1  1  0.18962600  0.70067100  0.86575100  1
  B  B2  1  0.81037500  0.79936000  0.63424600  1
  B  B3  1  0.81036000  0.29932500  0.13425200  1
  B  B4  1  0.36746700  0.27561300  0.62056700  1
  B  B5  1  0.36745800  0.77556600  0.12062000  1
  B  B6  1  0.63247600  0.72437100  0.37942900  1
  B  B7  1  0.63253500  0.22442700  0.87941100  1
  O  O0  1  0.77598500  0.14060400  0.22127300  1
  O  O1  1  0.77600300  0.64065700  0.72122300  1
  O  O2  1  0.22400500  0.85936800  0.77875600  1
  O  O3  1  0.22402400  0.35935800  0.27879300  1
  O  O4  1  0.53844100  0.24757100  0.50697600  1
  O  O5  1  0.53836500  0.74758000  0.00698700  1
  O  O6  1  0.46157900  0.75241900  0.49303000  1
  O  O7  1  0.46158000  0.25238500  0.99303000  1
  O  O8  1  0.28125400  0.43876700  0.58124600  1
  O  O9  1  0.28125200  0.93875200  0.08125900  1
  O  O10  1  0.71876000  0.56122700  0.41875100  1
  O  O11  1  0.71874600  0.06122700  0.91875600  1
  O  O12  1  0.28809500  0.07539000  0.31359800  1
  O  O13  1  0.28806800  0.57542100  0.81360400  1
  O  O14  1  0.71180400  0.92458700  0.68637900  1
  O  O15  1  0.71185500  0.42458200  0.18635600  1
  O  O16  1  0.04500400  0.16195900  0.50409300  1
  O  O17  1  0.04495800  0.66199900  0.00408800  1
  O  O18  1  0.95506400  0.83805900  0.49592900  1
  O  O19  1  0.95496900  0.33801000  0.99589300  1
  O  O20  1  0.70853500  0.83547400  0.24323300  1
  O  O21  1  0.70877900  0.33563400  0.74324500  1
  O  O22  1  0.29137200  0.16445700  0.75674100  1
  O  O23  1  0.29133700  0.66439600  0.25681600  1
loop_
_geom_bond_atom_site_label_1
_geom_bond_atom_site_label_2
_geom_bond_distance
_geom_bond_site_symmetry_2
Li0 O16 1.889392 1_655
Li0 O21 1.957876 1_555
Li0 O4 2.076037 1_555
Li0 O10 2.078301 1_555
Li1 O17 1.889314 1_655
Li1 O20 1.957701 1_555
Li1 O5 2.075927 1_555
Li1 O11 2.077959 1_564
Li2 O18 1.889542 1_455
Li2 O23 1.957418 1_555
Li2 O6 2.075941 1_555
Li2 O8 2.078200 1_555
Li3 O19 1.889442 1_455
Li3 O22 1.957767 1_555
Li3 O7 2.075678 1_555
Li3 O9 2.078391 1_546
Li4 O18 1.954783 1_455
Li4 O0 2.002550 1_465
Li4 O12 2.144600 1_565
Li4 O9 2.196170 1_555
Li4 O20 2.333950 1_455
Li5 O19 1.954479 1_455
Li5 O1 2.002811 1_455
Li5 O13 2.145448 1_555
Li5 O8 2.196410 1_555
Li5 O21 2.331032 1_455
Li6 O16 1.954431 1_655
Li6 O2 2.002867 1_645
Li6 O14 2.145687 1_545
Li6 O11 2.196343 1_555
Li6 O22 2.332635 1_655
Li7 O17 1.954440 1_655
Li7 O3 2.002740 1_655
Li7 O15 2.146177 1_555
Li7 O10 2.196568 1_555
Li7 O23 2.331792 1_655
Li8 O4 1.942822 1_555
Li8 O16 2.032570 1_655
Li8 O14 2.034519 1_545
Li8 O0 2.137910 1_555
Li8 O18 2.286598 1_545
Li9 O5 1.942964 1_556
Li9 O17 2.032500 1_656
Li9 O15 2.034450 1_556
Li9 O1 2.138282 1_555
Li9 O19 2.286992 1_555
Li10 O6 1.943024 1_555
Li10 O18 2.032170 1_455
Li10 O12 2.034361 1_565
Li10 O2 2.138260 1_555
Li10 O16 2.286445 1_565
Li11 O7 1.942979 1_554
Li11 O19 2.032835 1_454
Li11 O13 2.034714 1_554
Li11 O3 2.138482 1_555
Li11 O17 2.287219 1_555
Cr0 O13 1.941611 1_555
Cr0 O6 1.975971 1_555
Cr0 O1 1.989649 1_555
Cr0 O21 2.034869 1_555
Cr0 O8 2.192945 1_555
Cr0 O10 2.214872 1_555
Cr1 O15 1.941180 1_555
Cr1 O4 1.976477 1_555
Cr1 O3 1.990658 1_555
Cr1 O23 2.034426 1_555
Cr1 O10 2.191641 1_555
Cr1 O8 2.215009 1_555
Cr2 O12 1.941901 1_555
Cr2 O7 1.977441 1_554
Cr2 O0 1.990066 1_555
Cr2 O20 2.033481 1_545
Cr2 O9 2.192361 1_545
Cr2 O11 2.214673 1_554
Cr3 O14 1.941814 1_555
Cr3 O5 1.977357 1_556
Cr3 O2 1.989742 1_555
Cr3 O22 2.033557 1_565
Cr3 O11 2.192692 1_565
Cr3 O9 2.214702 1_556
B0 O16 1.367985 1_555
B0 O12 1.395134 1_555
B0 O3 1.406151 1_555
B1 O17 1.368065 1_556
B1 O13 1.395082 1_555
B1 O2 1.406039 1_555
B2 O18 1.367991 1_555
B2 O14 1.395016 1_555
B2 O1 1.406044 1_555
B3 O19 1.368050 1_554
B3 O15 1.395010 1_555
B3 O0 1.406267 1_555
B4 O22 1.362553 1_555
B4 O4 1.383844 1_555
B4 O8 1.436447 1_555
B5 O23 1.362778 1_555
B5 O5 1.383719 1_555
B5 O9 1.436682 1_555
B6 O20 1.362402 1_555
B6 O6 1.383674 1_555
B6 O10 1.436474 1_555
B7 O21 1.362948 1_555
B7 O7 1.383699 1_555
B7 O11 1.436808 1_555
