# generated using pymatgen
data_Na2Li2CoO4
_symmetry_space_group_name_H-M   'P 1'
_cell_length_a   8.39200700
_cell_length_b   6.49693400
_cell_length_c   10.26099663
_cell_angle_alpha   51.14915150
_cell_angle_beta   90.00000000
_cell_angle_gamma   90.00000000
_symmetry_Int_Tables_number   1
_chemical_formula_structural   Na2Li2CoO4
_chemical_formula_sum   'Na8 Li8 Co4 O16'
_cell_volume   435.69191319
_cell_formula_units_Z   4
loop_
 _symmetry_equiv_pos_site_id
 _symmetry_equiv_pos_as_xyz
  1  'x, y, z'
loop_
 _atom_site_type_symbol
 _atom_site_label
 _atom_site_symmetry_multiplicity
 _atom_site_fract_x
 _atom_site_fract_y
 _atom_site_fract_z
 _atom_site_occupancy
  Na  Na0  1  0.97804500  0.24284200  0.50153800  1
  Na  Na1  1  0.02195500  0.75715800  0.49846200  1
  Na  Na2  1  0.73881200  0.26396000  0.24862000  1
  Na  Na3  1  0.76118800  0.26396000  0.74862000  1
  Na  Na4  1  0.52195500  0.24284200  0.00153800  1
  Na  Na5  1  0.47804500  0.75715800  0.99846200  1
  Na  Na6  1  0.23881200  0.73604000  0.25138000  1
  Na  Na7  1  0.26118800  0.73604000  0.75138000  1
  Li  Li0  1  0.91005200  0.69006800  0.78905900  1
  Li  Li1  1  0.86320800  0.76130600  0.99280200  1
  Li  Li2  1  0.63679200  0.76130600  0.49280200  1
  Li  Li3  1  0.58994800  0.69006800  0.28905900  1
  Li  Li4  1  0.41005200  0.30993200  0.71094100  1
  Li  Li5  1  0.36320800  0.23869400  0.50719800  1
  Li  Li6  1  0.13679200  0.23869400  0.00719800  1
  Li  Li7  1  0.08994800  0.30993200  0.21094100  1
  Co  Co0  1  0.87254600  0.79428000  0.22301600  1
  Co  Co1  1  0.62745400  0.79428000  0.72301600  1
  Co  Co2  1  0.37254600  0.20572000  0.27698400  1
  Co  Co3  1  0.12745400  0.20572000  0.77698400  1
  O  O0  1  0.97112400  0.55823700  0.20983300  1
  O  O1  1  0.00635100  0.02634200  0.20583900  1
  O  O2  1  0.78351600  0.60018800  0.42977900  1
  O  O3  1  0.78217100  0.92274700  0.56649900  1
  O  O4  1  0.71782900  0.92274700  0.06649900  1
  O  O5  1  0.71648400  0.60018800  0.92977900  1
  O  O6  1  0.49364900  0.02634200  0.70583900  1
  O  O7  1  0.52887600  0.55823700  0.70983300  1
  O  O8  1  0.47112400  0.44176300  0.29016700  1
  O  O9  1  0.50635100  0.97365800  0.29416100  1
  O  O10  1  0.28351600  0.39981200  0.07022100  1
  O  O11  1  0.28217100  0.07725300  0.93350100  1
  O  O12  1  0.21782900  0.07725300  0.43350100  1
  O  O13  1  0.21648400  0.39981200  0.57022100  1
  O  O14  1  0.99364900  0.97365800  0.79416100  1
  O  O15  1  0.02887600  0.44176300  0.79016700  1
loop_
_geom_bond_atom_site_label_1
_geom_bond_atom_site_label_2
_geom_bond_distance
_geom_bond_site_symmetry_2
Na0 O0 2.338058 1_555
Na0 O14 2.345903 1_545
Na0 O3 2.394173 1_545
Na0 O13 2.538180 1_655
Na0 O2 2.540190 1_555
Na0 O12 2.576096 1_655
Na1 O15 2.338058 1_555
Na1 O1 2.345903 1_565
Na1 O12 2.394173 1_565
Na1 O2 2.538180 1_455
Na1 O13 2.540190 1_555
Na1 O3 2.576096 1_455
Na2 O9 2.544715 1_545
Na2 O5 2.558180 1_554
Na2 O3 2.571799 1_545
Na2 O0 2.580680 1_555
Na2 O8 2.679647 1_555
Na2 O1 2.909824 1_655
Na3 O14 2.544715 1_545
Na3 O2 2.558180 1_555
Na3 O4 2.571799 1_546
Na3 O7 2.580680 1_555
Na3 O15 2.679647 1_655
Na3 O6 2.909824 1_555
Na4 O7 2.338058 1_554
Na4 O9 2.345903 1_545
Na4 O4 2.394173 1_545
Na4 O10 2.538180 1_555
Na4 O5 2.540190 1_554
Na4 O11 2.576096 1_554
Na5 O8 2.338058 1_556
Na5 O6 2.345903 1_565
Na5 O11 2.394173 1_565
Na5 O5 2.538180 1_555
Na5 O10 2.540190 1_556
Na5 O4 2.576096 1_556
Na6 O1 2.544715 1_565
Na6 O13 2.558180 1_555
Na6 O11 2.571799 1_564
Na6 O8 2.580680 1_555
Na6 O0 2.679647 1_455
Na6 O9 2.909824 1_555
Na7 O6 2.544715 1_565
Na7 O10 2.558180 1_556
Na7 O12 2.571799 1_565
Na7 O15 2.580680 1_555
Na7 O7 2.679647 1_555
Na7 O14 2.909824 1_455
Li0 O15 1.890490 1_655
Li0 O5 2.001708 1_555
Li0 O14 2.002648 1_555
Li0 O3 2.078706 1_555
Li1 O14 1.930853 1_555
Li1 O0 1.958068 1_556
Li1 O5 1.969597 1_555
Li1 O4 2.038510 1_556
Li2 O9 1.930853 1_555
Li2 O7 1.958068 1_555
Li2 O2 1.969597 1_555
Li2 O3 2.038510 1_555
Li3 O8 1.890490 1_555
Li3 O2 2.001708 1_555
Li3 O9 2.002648 1_555
Li3 O4 2.078706 1_555
Li4 O7 1.890490 1_555
Li4 O13 2.001708 1_555
Li4 O6 2.002648 1_555
Li4 O11 2.078706 1_555
Li5 O6 1.930853 1_555
Li5 O8 1.958068 1_555
Li5 O13 1.969597 1_555
Li5 O12 2.038510 1_555
Li6 O1 1.930853 1_555
Li6 O15 1.958068 1_554
Li6 O10 1.969597 1_555
Li6 O11 2.038510 1_554
Li7 O0 1.890490 1_455
Li7 O10 2.001708 1_555
Li7 O1 2.002648 1_555
Li7 O12 2.078706 1_555
Co0 O1 1.797692 1_665
Co0 O4 1.811082 1_555
Co0 O2 1.814679 1_555
Co0 O0 1.820638 1_555
Co1 O6 1.797692 1_565
Co1 O3 1.811082 1_555
Co1 O5 1.814679 1_555
Co1 O7 1.820638 1_555
Co2 O9 1.797692 1_545
Co2 O12 1.811082 1_555
Co2 O10 1.814679 1_555
Co2 O8 1.820638 1_555
Co3 O14 1.797692 1_445
Co3 O11 1.811082 1_555
Co3 O13 1.814679 1_555
Co3 O15 1.820638 1_555
