# generated using pymatgen
data_Mn3OF5
_symmetry_space_group_name_H-M   'P 1'
_cell_length_a   4.85542000
_cell_length_b   5.90200100
_cell_length_c   8.11395981
_cell_angle_alpha   87.85643373
_cell_angle_beta   90.00000000
_cell_angle_gamma   90.00000000
_symmetry_Int_Tables_number   1
_chemical_formula_structural   Mn3OF5
_chemical_formula_sum   'Mn6 O2 F10'
_cell_volume   232.35655367
_cell_formula_units_Z   2
loop_
 _symmetry_equiv_pos_site_id
 _symmetry_equiv_pos_as_xyz
  1  'x, y, z'
loop_
 _atom_site_type_symbol
 _atom_site_label
 _atom_site_symmetry_multiplicity
 _atom_site_fract_x
 _atom_site_fract_y
 _atom_site_fract_z
 _atom_site_occupancy
  Mn  Mn0  1  0.47491100  0.40798300  0.33066900  1
  Mn  Mn1  1  0.51632100  0.74709500  0.98672600  1
  Mn  Mn2  1  0.51688400  0.06792100  0.67194600  1
  Mn  Mn3  1  0.01688400  0.93207900  0.32805400  1
  Mn  Mn4  1  0.97491100  0.59201700  0.66933100  1
  Mn  Mn5  1  0.01632100  0.25290500  0.01327400  1
  O  O0  1  0.19229800  0.22377500  0.22102500  1
  O  O1  1  0.69229800  0.77622500  0.77897500  1
  F  F0  1  0.20543300  0.55124700  0.90042400  1
  F  F1  1  0.18824900  0.87661800  0.56516500  1
  F  F2  1  0.31749300  0.71680500  0.21427500  1
  F  F3  1  0.29687400  0.04973800  0.90399700  1
  F  F4  1  0.29153800  0.37983900  0.57123600  1
  F  F5  1  0.68824900  0.12338200  0.43483500  1
  F  F6  1  0.70543300  0.44875300  0.09957600  1
  F  F7  1  0.81749300  0.28319500  0.78572500  1
  F  F8  1  0.79687400  0.95026200  0.09600300  1
  F  F9  1  0.79153800  0.62016100  0.42876400  1
loop_
_geom_bond_atom_site_label_1
_geom_bond_atom_site_label_2
_geom_bond_distance
_geom_bond_site_symmetry_2
Mn0 O0 1.982112 1_555
Mn1 O1 1.891951 1_555
Mn2 O1 2.081251 1_545
Mn3 O0 2.081251 1_565
Mn4 O1 1.982112 1_555
Mn5 O0 1.891951 1_555
F0 Mn1 2.040970 1_555
F0 Mn5 2.159031 1_556
F0 Mn4 2.189260 1_455
F1 Mn3 2.110395 1_555
F1 Mn4 2.121928 1_455
F1 Mn2 2.155178 1_565
F2 Mn1 2.085225 1_554
F2 Mn0 2.160896 1_555
F2 Mn3 2.164420 1_555
F3 Mn5 2.039396 1_556
F3 Mn2 2.163949 1_555
F3 Mn1 2.164881 1_545
F4 Mn0 2.146201 1_555
F4 Mn4 2.154006 1_455
F4 Mn2 2.267473 1_555
F5 Mn2 2.110395 1_555
F5 Mn0 2.121928 1_555
F5 Mn3 2.155178 1_645
F6 Mn5 2.040970 1_655
F6 Mn1 2.159031 1_554
F6 Mn0 2.189260 1_555
F7 Mn5 2.085225 1_656
F7 Mn4 2.160896 1_555
F7 Mn2 2.164420 1_555
F8 Mn1 2.039396 1_554
F8 Mn3 2.163949 1_655
F8 Mn5 2.164881 1_665
F9 Mn4 2.146201 1_555
F9 Mn0 2.154006 1_555
F9 Mn3 2.267473 1_655
