# generated using pymatgen
data_Li2TiFeO4
_symmetry_space_group_name_H-M   'P 1'
_cell_length_a   5.84935322
_cell_length_b   8.93895557
_cell_length_c   5.87377256
_cell_angle_alpha   89.93072665
_cell_angle_beta   90.01695373
_cell_angle_gamma   89.94112833
_symmetry_Int_Tables_number   1
_chemical_formula_structural   Li2TiFeO4
_chemical_formula_sum   'Li8 Ti4 Fe4 O16'
_cell_volume   307.12218334
_cell_formula_units_Z   4
loop_
 _symmetry_equiv_pos_site_id
 _symmetry_equiv_pos_as_xyz
  1  'x, y, z'
loop_
 _atom_site_type_symbol
 _atom_site_label
 _atom_site_symmetry_multiplicity
 _atom_site_fract_x
 _atom_site_fract_y
 _atom_site_fract_z
 _atom_site_occupancy
  Li  Li0  1  0.24652100  0.24984900  0.74654400  1
  Li  Li1  1  0.74653500  0.24987300  0.24648600  1
  Li  Li2  1  0.75270400  0.74886100  0.24769000  1
  Li  Li3  1  0.25262300  0.74889700  0.74772300  1
  Li  Li4  1  0.50307200  0.03229100  0.50605800  1
  Li  Li5  1  0.00311400  0.03225600  0.00598200  1
  Li  Li6  1  0.99808600  0.53219900  0.50839300  1
  Li  Li7  1  0.49804900  0.53224300  0.00841800  1
  Ti  Ti0  1  0.01184800  0.99207400  0.53063100  1
  Ti  Ti1  1  0.51194400  0.99219100  0.03067100  1
  Ti  Ti2  1  0.99014600  0.49224100  0.03320300  1
  Ti  Ti3  1  0.49014100  0.49226200  0.53320600  1
  Fe  Fe0  1  0.74645200  0.25255800  0.74409700  1
  Fe  Fe1  1  0.25300600  0.75265200  0.24531400  1
  Fe  Fe2  1  0.24616400  0.25256600  0.24424400  1
  Fe  Fe3  1  0.75325100  0.75241300  0.74555500  1
  O  O0  1  0.24141800  0.99381900  0.74069600  1
  O  O1  1  0.74147900  0.99383300  0.24072200  1
  O  O2  1  0.75907200  0.49395200  0.24265600  1
  O  O3  1  0.25909500  0.49393300  0.74270900  1
  O  O4  1  0.99706900  0.20833700  0.49002000  1
  O  O5  1  0.49704800  0.20832800  0.99009800  1
  O  O6  1  0.00192500  0.70826700  0.99089700  1
  O  O7  1  0.50193100  0.70819700  0.49084800  1
  O  O8  1  0.99891700  0.27449700  0.99021500  1
  O  O9  1  0.49896200  0.27446200  0.49018700  1
  O  O10  1  0.99992000  0.77410900  0.49093100  1
  O  O11  1  0.49998200  0.77404500  0.99098400  1
  O  O12  1  0.25465600  0.99724300  0.24549000  1
  O  O13  1  0.75465300  0.99723300  0.74550200  1
  O  O14  1  0.24510100  0.49718600  0.24691500  1
  O  O15  1  0.74511800  0.49712400  0.74691700  1
loop_
_geom_bond_atom_site_label_1
_geom_bond_atom_site_label_2
_geom_bond_distance
_geom_bond_site_symmetry_2
Li0 O8 2.048425 1_455
Li0 O5 2.080417 1_555
Li0 O9 2.120700 1_555
Li0 O4 2.130320 1_455
Li0 O3 2.183260 1_555
Li0 O0 2.289165 1_545
Li1 O9 2.048364 1_555
Li1 O4 2.080388 1_555
Li1 O8 2.120111 1_554
Li1 O5 2.129948 1_554
Li1 O2 2.183208 1_555
Li1 O1 2.289243 1_545
Li2 O10 2.045370 1_555
Li2 O7 2.079615 1_555
Li2 O11 2.122891 1_554
Li2 O6 2.129187 1_654
Li2 O1 2.191043 1_555
Li2 O2 2.279114 1_555
Li3 O11 2.045944 1_555
Li3 O6 2.079317 1_555
Li3 O10 2.123199 1_455
Li3 O7 2.130039 1_555
Li3 O0 2.190599 1_555
Li3 O3 2.279613 1_555
Li4 O13 2.058788 1_545
Li4 O0 2.088388 1_545
Li4 O1 2.119782 1_545
Li4 O12 2.133737 1_545
Li4 O9 2.166758 1_555
Li5 O12 2.058821 1_545
Li5 O1 2.088630 1_445
Li5 O0 2.119139 1_544
Li5 O13 2.133513 1_444
Li5 O8 2.167363 1_454
Li6 O15 2.061997 1_555
Li6 O3 2.082959 1_655
Li6 O2 2.123401 1_555
Li6 O14 2.132146 1_655
Li6 O10 2.164768 1_555
Li7 O14 2.061781 1_555
Li7 O2 2.082753 1_555
Li7 O3 2.123141 1_554
Li7 O15 2.132597 1_554
Li7 O11 2.163799 1_554
Fe0 O8 2.075853 1_555
Fe0 O9 2.087051 1_555
Fe0 O5 2.091294 1_555
Fe0 O4 2.129323 1_555
Fe0 O15 2.186253 1_555
Fe0 O13 2.282799 1_545
Fe1 O10 2.076312 1_455
Fe1 O7 2.086660 1_555
Fe1 O11 2.087200 1_554
Fe1 O6 2.132817 1_554
Fe1 O12 2.186421 1_555
Fe1 O14 2.284123 1_555
Fe2 O9 2.076487 1_555
Fe2 O8 2.086588 1_454
Fe2 O4 2.089118 1_455
Fe2 O5 2.130711 1_554
Fe2 O14 2.186725 1_555
Fe2 O12 2.282813 1_545
Fe3 O11 2.076453 1_555
Fe3 O6 2.084336 1_655
Fe3 O10 2.087444 1_555
Fe3 O7 2.134691 1_555
Fe3 O13 2.188459 1_555
Fe3 O15 2.282566 1_555
O0 Ti0 1.823460 1_555
O0 Ti1 2.324555 1_556
O1 Ti1 1.823244 1_555
O1 Ti0 2.323652 1_655
O2 Ti2 1.828038 1_555
O2 Ti3 2.321406 1_555
O3 Ti3 1.828111 1_555
O3 Ti2 2.321236 1_456
O4 Ti0 1.949367 1_645
O5 Ti1 1.948253 1_546
O6 Ti2 1.947964 1_456
O7 Ti3 1.947198 1_555
O8 Ti2 1.963637 1_556
O9 Ti3 1.964164 1_555
O10 Ti0 1.963873 1_655
O11 Ti1 1.965476 1_556
O12 Ti1 1.964746 1_555
O12 Ti0 2.196768 1_555
O13 Ti0 1.964547 1_655
O13 Ti1 2.196496 1_556
O14 Ti2 1.949596 1_455
O14 Ti3 2.209622 1_555
O15 Ti3 1.949673 1_555
O15 Ti2 2.209548 1_556
