# generated using pymatgen
data_Li4Ti3Co3(SnO8)2
_symmetry_space_group_name_H-M   'P 1'
_cell_length_a   5.84875151
_cell_length_b   5.84875151
_cell_length_c   9.75275528
_cell_angle_alpha   89.90703474
_cell_angle_beta   89.90703474
_cell_angle_gamma   60.93016401
_symmetry_Int_Tables_number   1
_chemical_formula_structural   Li4Ti3Co3(SnO8)2
_chemical_formula_sum   'Li4 Ti3 Co3 Sn2 O16'
_cell_volume   291.59381806
_cell_formula_units_Z   1
loop_
 _symmetry_equiv_pos_site_id
 _symmetry_equiv_pos_as_xyz
  1  'x, y, z'
loop_
 _atom_site_type_symbol
 _atom_site_label
 _atom_site_symmetry_multiplicity
 _atom_site_fract_x
 _atom_site_fract_y
 _atom_site_fract_z
 _atom_site_occupancy
  Li  Li0  1  0.66869600  0.66869600  0.10900400  1
  Li  Li1  1  0.99106200  0.99106200  0.00730300  1
  Li  Li2  1  0.99601100  0.99601100  0.50704400  1
  Li  Li3  1  0.33343900  0.33343900  0.59881000  1
  Ti  Ti0  1  0.16925000  0.16925000  0.28505900  1
  Ti  Ti1  1  0.34117200  0.83304400  0.78438800  1
  Ti  Ti2  1  0.83304400  0.34117200  0.78438800  1
  Co  Co0  1  0.82550800  0.82550800  0.78795800  1
  Co  Co1  1  0.16927800  0.65849800  0.28594800  1
  Co  Co2  1  0.65849800  0.16927800  0.28594800  1
  Sn  Sn0  1  0.66733400  0.66733400  0.50383500  1
  Sn  Sn1  1  0.34161200  0.34161200  0.01382500  1
  O  O0  1  0.31766600  0.83869000  0.39621500  1
  O  O1  1  0.51458200  0.51458200  0.66577400  1
  O  O2  1  0.65987400  0.65987400  0.89587700  1
  O  O3  1  0.99689200  0.99689200  0.69511100  1
  O  O4  1  0.99668300  0.99668300  0.19340900  1
  O  O5  1  0.83869000  0.31766600  0.39621500  1
  O  O6  1  0.49584900  0.96710400  0.65224700  1
  O  O7  1  0.96710400  0.49584900  0.65224700  1
  O  O8  1  0.16618900  0.16618900  0.89756900  1
  O  O9  1  0.84210200  0.84210200  0.39426200  1
  O  O10  1  0.03571200  0.48286400  0.16464300  1
  O  O11  1  0.48286400  0.03571200  0.16464300  1
  O  O12  1  0.33390800  0.33390800  0.39043500  1
  O  O13  1  0.17706800  0.67636200  0.90201000  1
  O  O14  1  0.48421100  0.48421100  0.17499600  1
  O  O15  1  0.67636200  0.17706700  0.90201000  1
loop_
_geom_bond_atom_site_label_1
_geom_bond_atom_site_label_2
_geom_bond_distance
_geom_bond_site_symmetry_2
Li0 O10 1.954042 1_655
Li0 O11 1.954042 1_565
Li0 O14 1.967129 1_555
Li0 O2 2.080645 1_554
Li1 O4 1.816037 1_555
Li1 O15 1.918995 1_564
Li1 O13 1.918996 1_654
Li1 O8 2.063010 1_664
Li2 O3 1.834210 1_555
Li2 O9 1.903770 1_555
Li2 O0 1.966896 1_655
Li2 O5 1.966896 1_565
Li3 O1 1.940791 1_555
Li3 O7 1.945477 1_455
Li3 O6 1.945477 1_545
Li3 O12 2.032227 1_555
Co0 O3 1.949357 1_555
Co0 O2 1.972330 1_555
Co0 O15 2.118343 1_565
Co0 O13 2.118348 1_655
Co0 O6 2.146685 1_555
Co0 O7 2.146685 1_555
Co1 O14 1.943031 1_555
Co1 O12 1.946854 1_555
Co1 O4 1.950066 1_455
Co1 O10 1.962615 1_555
Co1 O0 1.978877 1_555
Co1 O9 1.982697 1_455
Co2 O14 1.943031 1_555
Co2 O12 1.946854 1_555
Co2 O4 1.950066 1_545
Co2 O11 1.962615 1_555
Co2 O5 1.978877 1_555
Co2 O9 1.982697 1_545
O0 Ti0 2.007993 1_565
O0 Sn0 2.073741 1_555
O1 Ti2 2.000904 1_555
O1 Ti1 2.000904 1_555
O1 Sn0 2.203901 1_555
O2 Ti2 1.962407 1_555
O2 Ti1 1.962407 1_555
O3 Ti2 1.964414 1_565
O3 Ti1 1.964414 1_655
O4 Ti0 1.957574 1_665
O5 Ti0 2.007993 1_655
O5 Sn0 2.073741 1_555
O6 Ti1 1.943268 1_555
O6 Sn0 2.114166 1_555
O7 Ti2 1.943268 1_555
O7 Sn0 2.114166 1_555
O8 Ti2 2.031733 1_455
O8 Ti1 2.031733 1_545
O8 Sn1 2.102716 1_556
O9 Sn0 2.059103 1_555
O10 Ti0 1.989352 1_555
O10 Sn1 2.146185 1_555
O11 Ti0 1.989352 1_555
O11 Sn1 2.146185 1_555
O12 Ti0 1.954166 1_555
O13 Ti1 1.981074 1_555
O13 Sn1 2.028329 1_556
O14 Sn1 2.132230 1_555
O15 Ti2 1.981078 1_555
O15 Sn1 2.028329 1_556
