# generated using pymatgen
data_CdH6(SO4)4
_symmetry_space_group_name_H-M   'P 1'
_cell_length_a   15.76226900
_cell_length_b   5.50668900
_cell_length_c   9.71002743
_cell_angle_alpha   74.91085976
_cell_angle_beta   90.00000000
_cell_angle_gamma   90.00000000
_symmetry_Int_Tables_number   1
_chemical_formula_structural   CdH6(SO4)4
_chemical_formula_sum   'Cd2 H12 S8 O32'
_cell_volume   813.75170284
_cell_formula_units_Z   2
loop_
 _symmetry_equiv_pos_site_id
 _symmetry_equiv_pos_as_xyz
  1  'x, y, z'
loop_
 _atom_site_type_symbol
 _atom_site_label
 _atom_site_symmetry_multiplicity
 _atom_site_fract_x
 _atom_site_fract_y
 _atom_site_fract_z
 _atom_site_occupancy
  Cd  Cd0  1  0.50000000  0.00000000  0.50000000  1
  Cd  Cd1  1  0.00000000  0.00000000  0.00000000  1
  H  H0  1  0.79903400  0.53069500  0.67707800  1
  H  H1  1  0.29903400  0.46930500  0.82292200  1
  H  H2  1  0.20096600  0.46930500  0.32292200  1
  H  H3  1  0.70096600  0.53069500  0.17707800  1
  H  H4  1  0.26860300  0.18766900  0.72471900  1
  H  H5  1  0.76860300  0.81233100  0.77528100  1
  H  H6  1  0.73139700  0.81233100  0.27528100  1
  H  H7  1  0.23139700  0.18766900  0.22471900  1
  H  H8  1  0.26939200  0.81039700  0.45884400  1
  H  H9  1  0.76939200  0.18960300  0.04115600  1
  H  H10  1  0.73060800  0.18960300  0.54115600  1
  H  H11  1  0.23060800  0.81039700  0.95884400  1
  S  S0  1  0.56731900  0.59022800  0.27957400  1
  S  S1  1  0.06731900  0.40977200  0.22042600  1
  S  S2  1  0.43268100  0.40977200  0.72042600  1
  S  S3  1  0.93268100  0.59022800  0.77957400  1
  S  S4  1  0.32977000  0.86108100  0.26078300  1
  S  S5  1  0.82977000  0.13891900  0.23921700  1
  S  S6  1  0.67023000  0.13891900  0.73921700  1
  S  S7  1  0.17023000  0.86108100  0.76078300  1
  O  O0  1  0.81948800  0.62899300  0.74191100  1
  O  O1  1  0.31948800  0.37100700  0.75808900  1
  O  O2  1  0.18051200  0.37100700  0.25808900  1
  O  O3  1  0.68051200  0.62899300  0.24191100  1
  O  O4  1  0.71843800  0.86042800  0.54466400  1
  O  O5  1  0.21843800  0.13957200  0.95533600  1
  O  O6  1  0.28156200  0.13957200  0.45533600  1
  O  O7  1  0.78156200  0.86042800  0.04466400  1
  O  O8  1  0.43684100  0.68998000  0.67001500  1
  O  O9  1  0.93684100  0.31002000  0.82998500  1
  O  O10  1  0.56315900  0.31002000  0.32998500  1
  O  O11  1  0.06315900  0.68998000  0.17001500  1
  O  O12  1  0.43426500  0.29204300  0.59935600  1
  O  O13  1  0.93426500  0.70795700  0.90064400  1
  O  O14  1  0.56573500  0.70795700  0.40064400  1
  O  O15  1  0.06573500  0.29204300  0.09935600  1
  O  O16  1  0.60300100  0.00009000  0.69025200  1
  O  O17  1  0.10300100  0.99991000  0.80974800  1
  O  O18  1  0.39699900  0.99991000  0.30974800  1
  O  O19  1  0.89699900  0.00009000  0.19025200  1
  O  O20  1  0.14809400  0.70010200  0.67261900  1
  O  O21  1  0.64809400  0.29989800  0.82738100  1
  O  O22  1  0.85190600  0.29989800  0.32738100  1
  O  O23  1  0.35190600  0.70010200  0.17261900  1
  O  O24  1  0.23815500  0.04735200  0.68137400  1
  O  O25  1  0.73815500  0.95264800  0.81862600  1
  O  O26  1  0.76184500  0.95264800  0.31862600  1
  O  O27  1  0.26184500  0.04735200  0.18137400  1
  O  O28  1  0.71840400  0.30675900  0.60324900  1
  O  O29  1  0.21840400  0.69324100  0.89675100  1
  O  O30  1  0.28159600  0.69324100  0.39675100  1
  O  O31  1  0.78159600  0.30675900  0.10324900  1
loop_
_geom_bond_atom_site_label_1
_geom_bond_atom_site_label_2
_geom_bond_distance
_geom_bond_site_symmetry_2
Cd0 O8 2.272340 1_545
Cd0 O10 2.272340 1_555
Cd0 O12 2.323438 1_555
Cd0 O14 2.323438 1_545
Cd0 O18 2.459479 1_545
Cd0 O16 2.459479 1_555
Cd1 O11 2.272340 1_545
Cd1 O9 2.272340 1_454
Cd1 O15 2.323438 1_555
Cd1 O13 2.323438 1_444
Cd1 O17 2.459479 1_544
Cd1 O19 2.459479 1_455
H0 O0 0.985225 1_555
H1 O1 0.985225 1_555
H2 O2 0.985225 1_555
H3 O3 0.985225 1_555
H4 O24 1.083433 1_555
H4 O1 1.392076 1_555
H5 O25 1.083433 1_555
H5 O0 1.392076 1_555
H6 O26 1.083433 1_555
H6 O3 1.392076 1_555
H7 O27 1.083433 1_555
H7 O2 1.392076 1_555
H8 O30 1.009577 1_555
H9 O31 1.009577 1_555
H10 O28 1.009577 1_555
H11 O29 1.009577 1_555
O0 S3 1.822624 1_555
O1 S2 1.822624 1_555
O2 S1 1.822624 1_555
O3 S0 1.822624 1_555
O8 S2 1.493843 1_555
O9 S3 1.493843 1_555
O10 S0 1.493843 1_555
O11 S1 1.493843 1_555
O12 S2 1.483149 1_555
O13 S3 1.483149 1_555
O14 S0 1.483149 1_555
O15 S1 1.483149 1_555
O16 S6 1.456936 1_555
O17 S7 1.456936 1_555
O18 S4 1.456936 1_555
O19 S5 1.456936 1_555
O20 S7 1.426717 1_555
O21 S6 1.426717 1_555
O22 S5 1.426717 1_555
O23 S4 1.426717 1_555
O24 S7 1.543110 1_545
O25 S6 1.543110 1_565
O26 S5 1.543110 1_565
O27 S4 1.543110 1_545
O28 S6 1.593289 1_555
O29 S7 1.593289 1_555
O30 S4 1.593289 1_555
O31 S5 1.593289 1_555
