# generated using pymatgen
data_Li3V2(OF)3
_symmetry_space_group_name_H-M   'P 1'
_cell_length_a   3.22964945
_cell_length_b   5.67463560
_cell_length_c   13.47139871
_cell_angle_alpha   86.25652498
_cell_angle_beta   83.27107168
_cell_angle_gamma   90.38956022
_symmetry_Int_Tables_number   1
_chemical_formula_structural   Li3V2(OF)3
_chemical_formula_sum   'Li6 V4 O6 F6'
_cell_volume   244.64161333
_cell_formula_units_Z   2
loop_
 _symmetry_equiv_pos_site_id
 _symmetry_equiv_pos_as_xyz
  1  'x, y, z'
loop_
 _atom_site_type_symbol
 _atom_site_label
 _atom_site_symmetry_multiplicity
 _atom_site_fract_x
 _atom_site_fract_y
 _atom_site_fract_z
 _atom_site_occupancy
  Li  Li0  1  0.78719500  0.92762900  0.42291600  1
  Li  Li1  1  0.28722000  0.42760800  0.42292400  1
  Li  Li2  1  0.60796400  0.87184400  0.78341300  1
  Li  Li3  1  0.10785100  0.37162800  0.78335200  1
  Li  Li4  1  0.69753900  0.56591500  0.60334800  1
  Li  Li5  1  0.19757200  0.06588900  0.60332900  1
  V  V0  1  0.99917900  0.00111500  0.99466100  1
  V  V1  1  0.88727700  0.62865100  0.22300700  1
  V  V2  1  0.50408700  0.50098000  0.99447200  1
  V  V3  1  0.38662800  0.12849900  0.22298100  1
  O  O0  1  0.87039700  0.95456700  0.25063900  1
  O  O1  1  0.37117100  0.45453700  0.25060800  1
  O  O2  1  0.53787700  0.84885600  0.93294700  1
  O  O3  1  0.03467200  0.34855600  0.93269300  1
  O  O4  1  0.96313200  0.65251500  0.07923400  1
  O  O5  1  0.45688500  0.15276500  0.07919900  1
  F  F0  1  0.71419500  0.90283100  0.56619700  1
  F  F1  1  0.21417500  0.40286400  0.56621500  1
  F  F2  1  0.80502800  0.60154300  0.39079500  1
  F  F3  1  0.30492300  0.10156200  0.39079700  1
  F  F4  1  0.62819300  0.54645000  0.74604600  1
  F  F5  1  0.12851400  0.04643600  0.74593400  1
loop_
_geom_bond_atom_site_label_1
_geom_bond_atom_site_label_2
_geom_bond_distance
_geom_bond_site_symmetry_2
Li0 O0 2.299721 1_555
Li1 O1 2.300238 1_555
Li2 O2 1.996151 1_555
Li3 O3 1.993546 1_555
O0 V1 1.910112 1_555
O0 V3 1.914020 1_565
O0 V3 1.917480 1_665
O1 V3 1.910724 1_555
O1 V1 1.914689 1_455
O1 V1 1.917607 1_555
O2 V0 2.005965 1_565
O2 V0 2.059102 1_465
O2 V2 2.087592 1_555
O3 V2 2.027565 1_555
O3 V2 2.038911 1_455
O3 V0 2.087299 1_455
O4 V1 1.919309 1_555
O4 V2 2.179186 1_554
O4 V2 2.185582 1_654
O4 V0 2.212753 1_564
O5 V3 1.919363 1_555
O5 V0 2.174369 1_454
O5 V0 2.187703 1_554
O5 V2 2.211602 1_554
F0 Li0 1.912715 1_555
F0 Li5 1.940964 1_665
F0 Li4 1.943190 1_555
F0 Li5 1.943235 1_565
F1 Li1 1.912847 1_555
F1 Li4 1.940915 1_555
F1 Li4 1.943253 1_455
F1 Li5 1.943420 1_555
F2 Li1 1.926093 1_655
F2 Li1 1.926240 1_555
F2 Li0 1.927375 1_555
F2 V1 2.239798 1_555
F3 Li0 1.926006 1_445
F3 Li0 1.926265 1_545
F3 Li1 1.927172 1_555
F3 V3 2.240170 1_555
F4 Li4 1.904941 1_555
F4 Li3 1.942877 1_655
F4 Li3 1.942987 1_555
F4 Li2 1.944867 1_555
F5 Li5 1.903701 1_555
F5 Li2 1.942412 1_545
F5 Li2 1.943199 1_445
F5 Li3 1.943991 1_555
