# generated using pymatgen
data_Mn6O7F5
_symmetry_space_group_name_H-M   'P 1'
_cell_length_a   4.62234500
_cell_length_b   5.59133350
_cell_length_c   7.77746201
_cell_angle_alpha   87.20744862
_cell_angle_beta   89.76944490
_cell_angle_gamma   89.04203240
_symmetry_Int_Tables_number   1
_chemical_formula_structural   Mn6O7F5
_chemical_formula_sum   'Mn6 O7 F5'
_cell_volume   200.74126845
_cell_formula_units_Z   1
loop_
 _symmetry_equiv_pos_site_id
 _symmetry_equiv_pos_as_xyz
  1  'x, y, z'
loop_
 _atom_site_type_symbol
 _atom_site_label
 _atom_site_symmetry_multiplicity
 _atom_site_fract_x
 _atom_site_fract_y
 _atom_site_fract_z
 _atom_site_occupancy
  Mn  Mn0  1  0.49112600  0.50102000  0.99874000  1
  Mn  Mn1  1  0.54289000  0.17492800  0.34508100  1
  Mn  Mn2  1  0.51052000  0.81963900  0.65543300  1
  Mn  Mn3  1  0.97136500  0.66915500  0.31774500  1
  Mn  Mn4  1  0.98126700  0.35184800  0.67930700  1
  Mn  Mn5  1  0.99643300  0.00198100  0.00967600  1
  O  O0  1  0.80685000  0.63148200  0.54823200  1
  O  O1  1  0.79511300  0.96312300  0.23669900  1
  O  O2  1  0.81361000  0.28955100  0.90906800  1
  O  O3  1  0.69117300  0.46882900  0.22616900  1
  O  O4  1  0.69672100  0.12655900  0.57057600  1
  O  O5  1  0.31336200  0.53354800  0.76505900  1
  O  O6  1  0.17948700  0.70713700  0.09994800  1
  F  F0  1  0.70600000  0.80587300  0.89628700  1
  F  F1  1  0.28407400  0.86911400  0.42280600  1
  F  F2  1  0.30757400  0.18997900  0.11937000  1
  F  F3  1  0.20215200  0.36982500  0.42955700  1
  F  F4  1  0.21028100  0.02641100  0.77024700  1
loop_
_geom_bond_atom_site_label_1
_geom_bond_atom_site_label_2
_geom_bond_distance
_geom_bond_site_symmetry_2
Mn0 O5 1.996539 1_555
Mn0 O3 1.998185 1_556
Mn0 O6 2.011612 1_556
Mn0 O2 2.029652 1_555
Mn1 O1 1.874959 1_545
Mn1 O4 1.900494 1_555
Mn1 O3 1.977376 1_555
Mn2 O0 1.925157 1_555
Mn2 O5 2.006462 1_555
Mn2 O4 2.013895 1_565
Mn3 O3 1.890220 1_555
Mn3 O1 1.902923 1_555
Mn3 O0 1.947734 1_555
Mn3 O6 1.948988 1_655
Mn4 O2 1.962741 1_555
Mn4 O0 1.985697 1_555
Mn4 O5 1.989913 1_655
Mn4 O4 2.049382 1_555
Mn5 O2 1.936246 1_554
Mn5 O6 1.942169 1_645
Mn5 O1 1.996720 1_545
F0 Mn5 1.983750 1_566
F0 Mn2 2.080534 1_555
F0 Mn0 2.108258 1_555
F1 Mn3 2.039499 1_455
F1 Mn2 2.098165 1_555
F1 Mn1 2.163861 1_565
F2 Mn5 2.012217 1_455
F2 Mn1 2.066336 1_555
F2 Mn0 2.123345 1_554
F3 Mn1 2.025803 1_555
F3 Mn3 2.121628 1_455
F3 Mn4 2.189521 1_455
F4 Mn2 2.024105 1_545
F4 Mn5 2.104345 1_456
F4 Mn4 2.179013 1_455
