# generated using pymatgen
data_Li4Mn3Fe(BO3)4
_symmetry_space_group_name_H-M   'P 1'
_cell_length_a   5.24094400
_cell_length_b   5.24898633
_cell_length_c   10.49698551
_cell_angle_alpha   91.18185951
_cell_angle_beta   90.69172634
_cell_angle_gamma   119.85885506
_symmetry_Int_Tables_number   1
_chemical_formula_structural   Li4Mn3Fe(BO3)4
_chemical_formula_sum   'Li4 Mn3 Fe1 B4 O12'
_cell_volume   250.29922377
_cell_formula_units_Z   1
loop_
 _symmetry_equiv_pos_site_id
 _symmetry_equiv_pos_as_xyz
  1  'x, y, z'
loop_
 _atom_site_type_symbol
 _atom_site_label
 _atom_site_symmetry_multiplicity
 _atom_site_fract_x
 _atom_site_fract_y
 _atom_site_fract_z
 _atom_site_occupancy
  Li  Li0  1  0.34903200  0.32126400  0.33229300  1
  Li  Li1  1  0.32131000  0.34718700  0.83236200  1
  Li  Li2  1  0.66497800  0.65193300  0.58205200  1
  Li  Li3  1  0.65174800  0.66208400  0.08200400  1
  Mn  Mn0  1  0.99580700  0.32942600  0.11673200  1
  Mn  Mn1  1  0.99955600  0.67870300  0.86523400  1
  Mn  Mn2  1  0.67498900  0.99818000  0.36857600  1
  Fe  Fe0  1  0.32458900  0.99939400  0.61686500  1
  B  B0  1  0.65935500  0.00369100  0.87269700  1
  B  B1  1  0.99403300  0.33115600  0.62364700  1
  B  B2  1  0.00242400  0.65962300  0.37596000  1
  B  B3  1  0.33401700  0.99510900  0.12431600  1
  O  O0  1  0.74491800  0.06839500  0.58538000  1
  O  O1  1  0.93001000  0.25465100  0.90340900  1
  O  O2  1  0.42163700  0.03297100  0.83149200  1
  O  O3  1  0.97435200  0.58222000  0.65227700  1
  O  O4  1  0.35851000  0.26906200  0.13904100  1
  O  O5  1  0.26678800  0.34789500  0.63642100  1
  O  O6  1  0.72709600  0.63084600  0.38979200  1
  O  O7  1  0.63013200  0.72833800  0.88742400  1
  O  O8  1  0.03252900  0.42145900  0.33427300  1
  O  O9  1  0.57789600  0.96271400  0.15544500  1
  O  O10  1  0.07063200  0.75261300  0.08178400  1
  O  O11  1  0.25306300  0.93048600  0.40672300  1
loop_
_geom_bond_atom_site_label_1
_geom_bond_atom_site_label_2
_geom_bond_distance
_geom_bond_site_symmetry_2
Li0 O6 1.911941 1_555
Li0 O8 1.974234 1_555
Li0 O11 2.029553 1_545
Li0 O4 2.045892 1_555
Li1 O7 1.913566 1_555
Li1 O2 1.964641 1_555
Li1 O1 2.014407 1_455
Li1 O5 2.073459 1_555
Li2 O3 1.969597 1_555
Li2 O5 1.994441 1_555
Li2 O0 2.009954 1_565
Li2 O6 2.057596 1_555
Li3 O9 1.949203 1_555
Li3 O4 1.972925 1_555
Li3 O10 2.001695 1_655
Li3 O7 2.090105 1_554
Mn0 O4 2.088234 1_655
Mn0 O10 2.095773 1_655
Mn0 O9 2.126795 1_545
Mn0 O1 2.257771 1_554
Mn0 O8 2.310021 1_655
Mn1 O7 2.093178 1_555
Mn1 O2 2.104022 1_665
Mn1 O1 2.116672 1_555
Mn1 O3 2.269478 1_555
Mn1 O10 2.292516 1_656
Mn2 O6 2.093422 1_555
Mn2 O11 2.102684 1_555
Mn2 O8 2.116855 1_665
Mn2 O9 2.271522 1_555
Mn2 O0 2.293497 1_565
Fe0 O5 2.004483 1_565
Fe0 O0 2.078780 1_565
Fe0 O3 2.085726 1_455
Fe0 O11 2.224695 1_555
Fe0 O2 2.287395 1_565
B0 O7 1.387692 1_545
B0 O2 1.394015 1_555
B0 O1 1.400766 1_555
B1 O5 1.392471 1_655
B1 O0 1.392718 1_555
B1 O3 1.399070 1_555
B2 O6 1.383841 1_455
B2 O8 1.398098 1_555
B2 O11 1.400846 1_555
B3 O4 1.383725 1_565
B3 O10 1.391798 1_555
B3 O9 1.406410 1_555
