# generated using pymatgen
data_LiFe(CO3)2
_symmetry_space_group_name_H-M   'P 1'
_cell_length_a   5.61941807
_cell_length_b   7.27255279
_cell_length_c   9.24120037
_cell_angle_alpha   89.97949516
_cell_angle_beta   89.97081221
_cell_angle_gamma   104.44619067
_symmetry_Int_Tables_number   1
_chemical_formula_structural   LiFe(CO3)2
_chemical_formula_sum   'Li4 Fe4 C8 O24'
_cell_volume   365.72392389
_cell_formula_units_Z   4
loop_
 _symmetry_equiv_pos_site_id
 _symmetry_equiv_pos_as_xyz
  1  'x, y, z'
loop_
 _atom_site_type_symbol
 _atom_site_label
 _atom_site_symmetry_multiplicity
 _atom_site_fract_x
 _atom_site_fract_y
 _atom_site_fract_z
 _atom_site_occupancy
  Li  Li0  1  0.99935679  0.00107691  0.49992983  1
  Li  Li1  1  0.50063662  0.49891940  0.75007018  1
  Li  Li2  1  0.99936462  0.00107813  -0.00007044  1
  Li  Li3  1  0.50063789  0.49892341  0.25007105  1
  Fe  Fe0  1  0.00034011  0.50036993  0.50021469  1
  Fe  Fe1  1  0.49965957  0.99962380  0.74978185  1
  Fe  Fe2  1  0.00034463  0.50037078  0.00022153  1
  Fe  Fe3  1  0.49965951  0.99962628  0.24978180  1
  C  C0  1  0.00796328  0.74570275  0.75008730  1
  C  C1  1  0.50850223  0.24586813  0.99972123  1
  C  C2  1  0.00796485  0.74570756  0.25008384  1
  C  C3  1  0.50849425  0.24586786  0.49971700  1
  C  C4  1  0.99148966  0.25413870  0.25028435  1
  C  C5  1  0.49204363  0.75428781  0.49991027  1
  C  C6  1  0.99149059  0.25414181  0.75028359  1
  C  C7  1  0.49205357  0.75428718  0.99991231  1
  O  O0  1  0.99956380  0.26120908  0.61098316  1
  O  O1  1  0.49984133  0.76086201  0.86063873  1
  O  O2  1  0.99957155  0.26120076  0.11098279  1
  O  O3  1  0.49984210  0.76086458  0.36063811  1
  O  O4  1  0.65007536  0.38922720  0.43543276  1
  O  O5  1  0.14987279  0.88890894  0.68568231  1
  O  O6  1  0.65008466  0.38923290  0.93543738  1
  O  O7  1  0.14987626  0.88890897  0.18567481  1
  O  O8  1  0.87122517  0.61040185  0.67541795  1
  O  O9  1  0.37196552  0.11073768  0.92468849  1
  O  O10  1  0.87122550  0.61040396  0.17541663  1
  O  O11  1  0.37195417  0.11074095  0.42468600  1
  O  O12  1  0.12802125  0.38927000  0.32530505  1
  O  O13  1  0.62879658  0.88959527  0.57459373  1
  O  O14  1  0.12803658  0.38926659  0.82530709  1
  O  O15  1  0.62880637  0.88959681  0.07459523  1
  O  O16  1  0.35011309  0.61107570  0.56432143  1
  O  O17  1  0.84991806  0.11078594  0.81456428  1
  O  O18  1  0.35012281  0.61106913  0.06432509  1
  O  O19  1  0.84991955  0.11078019  0.31456823  1
  O  O20  1  0.00017823  0.73914213  0.38934709  1
  O  O21  1  0.50040252  0.23879635  0.63901721  1
  O  O22  1  0.00017549  0.73913448  0.88935221  1
  O  O23  1  0.50041350  0.23879909  0.13902387  1
loop_
_geom_bond_atom_site_label_1
_geom_bond_atom_site_label_2
_geom_bond_distance
_geom_bond_site_symmetry_2
Li0 O19 2.147257 1_555
Li0 O13 2.150652 1_545
Li0 O0 2.152328 1_555
Li0 O11 2.160657 1_655
Li0 O5 2.161529 1_645
Li0 O20 2.163074 1_645
Li1 O6 2.147270 1_555
Li1 O8 2.150758 1_555
Li1 O21 2.152235 1_555
Li1 O14 2.160639 1_555
Li1 O16 2.161482 1_555
Li1 O1 2.163029 1_555
Li2 O17 2.147324 1_554
Li2 O15 2.150647 1_545
Li2 O2 2.152267 1_555
Li2 O9 2.160662 1_654
Li2 O7 2.161468 1_645
Li2 O22 2.163094 1_644
Li3 O4 2.147234 1_555
Li3 O10 2.150757 1_555
Li3 O23 2.152230 1_555
Li3 O12 2.160713 1_555
Li3 O18 2.161402 1_555
Li3 O3 2.163014 1_555
Fe0 O20 2.016084 1_555
Fe0 O0 2.016923 1_455
Fe0 O12 2.017250 1_555
Fe0 O16 2.018518 1_555
Fe0 O8 2.019313 1_455
Fe0 O4 2.023273 1_455
Fe1 O1 2.015992 1_555
Fe1 O21 2.017019 1_565
Fe1 O9 2.017310 1_565
Fe1 O5 2.018576 1_555
Fe1 O13 2.019246 1_555
Fe1 O17 2.023265 1_565
Fe2 O22 2.016047 1_554
Fe2 O2 2.016951 1_455
Fe2 O14 2.017328 1_554
Fe2 O18 2.018526 1_555
Fe2 O10 2.019268 1_455
Fe2 O6 2.023250 1_454
Fe3 O3 2.015990 1_555
Fe3 O23 2.016975 1_565
Fe3 O11 2.017324 1_565
Fe3 O7 2.018582 1_555
Fe3 O15 2.019263 1_555
Fe3 O19 2.023275 1_565
C0 O8 1.287858 1_455
C0 O22 1.288160 1_555
C0 O5 1.288225 1_555
C1 O6 1.287698 1_555
C1 O9 1.288441 1_555
C1 O23 1.288658 1_556
C2 O10 1.287862 1_455
C2 O20 1.288144 1_555
C2 O7 1.288224 1_555
C3 O4 1.287671 1_555
C3 O11 1.288424 1_555
C3 O21 1.288636 1_555
C4 O19 1.287640 1_555
C4 O12 1.288373 1_655
C4 O2 1.288645 1_555
C5 O13 1.287991 1_555
C5 O3 1.288230 1_555
C5 O16 1.288329 1_555
C6 O17 1.287619 1_555
C6 O14 1.288391 1_655
C6 O0 1.288635 1_555
C7 O15 1.287997 1_556
C7 O1 1.288242 1_555
C7 O18 1.288364 1_556
