# generated using pymatgen
data_LiP4WO12
_symmetry_space_group_name_H-M   'P 1'
_cell_length_a   8.92632300
_cell_length_b   6.97315900
_cell_length_c   7.48051631
_cell_angle_alpha   83.70299221
_cell_angle_beta   90.00000000
_cell_angle_gamma   90.00000000
_symmetry_Int_Tables_number   1
_chemical_formula_structural   LiP4WO12
_chemical_formula_sum   'Li2 P8 W2 O24'
_cell_volume   462.81302016
_cell_formula_units_Z   2
loop_
 _symmetry_equiv_pos_site_id
 _symmetry_equiv_pos_as_xyz
  1  'x, y, z'
loop_
 _atom_site_type_symbol
 _atom_site_label
 _atom_site_symmetry_multiplicity
 _atom_site_fract_x
 _atom_site_fract_y
 _atom_site_fract_z
 _atom_site_occupancy
  Li  Li0  1  0.48219100  0.69732300  0.68056800  1
  Li  Li1  1  0.98219100  0.30267700  0.31943200  1
  P  P0  1  0.88443000  0.96336900  0.60504400  1
  P  P1  1  0.16854200  0.92699600  0.08948200  1
  P  P2  1  0.01935500  0.57545200  0.61660000  1
  P  P3  1  0.35306100  0.57561800  0.05311000  1
  P  P4  1  0.85306100  0.42438200  0.94689000  1
  P  P5  1  0.51935500  0.42454800  0.38340000  1
  P  P6  1  0.66854200  0.07300400  0.91051800  1
  P  P7  1  0.38443000  0.03663100  0.39495600  1
  W  W0  1  0.81936600  0.74461200  0.24400200  1
  W  W1  1  0.31936600  0.25538800  0.75599800  1
  O  O0  1  0.79783100  0.99558800  0.78753600  1
  O  O1  1  0.18473000  0.03635700  0.90650100  1
  O  O2  1  0.77458400  0.87204100  0.48601100  1
  O  O3  1  0.01794200  0.92658200  0.17982300  1
  O  O4  1  0.00726200  0.79290900  0.66990600  1
  O  O5  1  0.46385400  0.85857600  0.46472600  1
  O  O6  1  0.20343300  0.70135800  0.07642700  1
  O  O7  1  0.46569500  0.68299800  0.93602800  1
  O  O8  1  0.97749100  0.56528200  0.42028000  1
  O  O9  1  0.80775900  0.62110300  0.99376600  1
  O  O10  1  0.89529900  0.45664900  0.73515800  1
  O  O11  1  0.17267600  0.50123300  0.66783900  1
  O  O12  1  0.67267600  0.49876700  0.33216100  1
  O  O13  1  0.39529900  0.54335100  0.26484200  1
  O  O14  1  0.30775900  0.37889700  0.00623400  1
  O  O15  1  0.47749100  0.43471800  0.57972000  1
  O  O16  1  0.96569500  0.31700200  0.06397200  1
  O  O17  1  0.70343300  0.29864200  0.92357300  1
  O  O18  1  0.96385400  0.14142400  0.53527400  1
  O  O19  1  0.50726200  0.20709100  0.33009400  1
  O  O20  1  0.51794200  0.07341800  0.82017700  1
  O  O21  1  0.27458400  0.12795900  0.51398900  1
  O  O22  1  0.68473000  0.96364300  0.09349900  1
  O  O23  1  0.29783100  0.00441200  0.21246400  1
loop_
_geom_bond_atom_site_label_1
_geom_bond_atom_site_label_2
_geom_bond_distance
_geom_bond_site_symmetry_2
Li0 O5 1.870792 1_555
Li0 O7 1.908298 1_555
Li0 O15 2.056005 1_555
Li1 O18 1.870792 1_555
Li1 O16 1.908298 1_555
Li1 O8 2.056005 1_555
O0 P6 1.605801 1_565
O0 P0 1.605893 1_555
O1 P1 1.499013 1_546
O1 W1 2.160418 1_555
O2 P0 1.511373 1_555
O2 W0 2.140006 1_555
O3 P1 1.504472 1_555
O3 W0 2.202027 1_455
O4 P2 1.613274 1_555
O4 P0 1.650442 1_455
O5 P7 1.474605 1_565
O6 P1 1.617363 1_555
O6 P3 1.617610 1_555
O7 P3 1.481464 1_556
O8 P2 1.524544 1_655
O8 W0 2.221062 1_555
O9 P4 1.507895 1_555
O9 W0 2.147120 1_556
O10 P2 1.593089 1_655
O10 P4 1.619639 1_555
O11 P2 1.498097 1_555
O11 W1 2.200073 1_555
O12 P5 1.498097 1_555
O12 W0 2.200073 1_555
O13 P5 1.593089 1_555
O13 P3 1.619639 1_555
O14 P3 1.507895 1_555
O14 W1 2.147120 1_554
O15 P5 1.524544 1_555
O15 W1 2.221062 1_555
O16 P4 1.481464 1_554
O17 P6 1.617363 1_555
O17 P4 1.617610 1_555
O18 P0 1.474605 1_545
O19 P5 1.613274 1_555
O19 P7 1.650442 1_555
O20 P6 1.504472 1_555
O20 W1 2.202027 1_555
O21 P7 1.511373 1_555
O21 W1 2.140006 1_555
O22 P6 1.499013 1_564
O22 W0 2.160418 1_555
O23 P1 1.605801 1_545
O23 P7 1.605893 1_555
