# generated using pymatgen
data_Ca3AsN
_symmetry_space_group_name_H-M   'P 1'
_cell_length_a   4.75089971
_cell_length_b   4.75089971
_cell_length_c   4.75089971
_cell_angle_alpha   90.00000000
_cell_angle_beta   90.00000000
_cell_angle_gamma   90.00000000
_symmetry_Int_Tables_number   1
_chemical_formula_structural   Ca3AsN
_chemical_formula_sum   'Ca3 As1 N1'
_cell_volume   107.23278566
_cell_formula_units_Z   1
loop_
 _symmetry_equiv_pos_site_id
 _symmetry_equiv_pos_as_xyz
  1  'x, y, z'
loop_
 _atom_site_type_symbol
 _atom_site_label
 _atom_site_symmetry_multiplicity
 _atom_site_fract_x
 _atom_site_fract_y
 _atom_site_fract_z
 _atom_site_occupancy
  Ca  Ca0  1  0.50000000  0.50000000  0.00000000  1
  Ca  Ca1  1  0.50000000  0.00000000  0.50000000  1
  Ca  Ca2  1  0.00000000  0.50000000  0.50000000  1
  As  As0  1  -0.00000000  -0.00000000  -0.00000000  1
  N  N0  1  0.50000000  0.50000000  0.50000000  1
loop_
_geom_bond_atom_site_label_1
_geom_bond_atom_site_label_2
_geom_bond_distance
_geom_bond_site_symmetry_2
Ca0 N0 2.375450 1_555
Ca0 N0 2.375450 1_554
Ca1 N0 2.375450 1_555
Ca1 N0 2.375450 1_545
Ca2 N0 2.375450 1_555
Ca2 N0 2.375450 1_455
As0 Ca1 3.359393 1_455
As0 Ca0 3.359393 1_555
As0 Ca1 3.359393 1_454
As0 Ca2 3.359393 1_554
As0 Ca2 3.359393 1_555
As0 Ca0 3.359393 1_545
As0 Ca1 3.359393 1_555
As0 Ca2 3.359393 1_544
As0 Ca0 3.359393 1_455
As0 Ca0 3.359393 1_445
As0 Ca1 3.359393 1_554
As0 Ca2 3.359393 1_545
