# generated using pymatgen
data_Li7V3P8O29
_symmetry_space_group_name_H-M   'P 1'
_cell_length_a   9.78936600
_cell_length_b   9.80493279
_cell_length_c   13.80023403
_cell_angle_alpha   89.85268277
_cell_angle_beta   89.70898264
_cell_angle_gamma   60.15597182
_symmetry_Int_Tables_number   1
_chemical_formula_structural   Li7V3P8O29
_chemical_formula_sum   'Li14 V6 P16 O58'
_cell_volume   1148.92345130
_cell_formula_units_Z   2
loop_
 _symmetry_equiv_pos_site_id
 _symmetry_equiv_pos_as_xyz
  1  'x, y, z'
loop_
 _atom_site_type_symbol
 _atom_site_label
 _atom_site_symmetry_multiplicity
 _atom_site_fract_x
 _atom_site_fract_y
 _atom_site_fract_z
 _atom_site_occupancy
  Li  Li0  1  0.23490900  0.09347200  0.56164100  1
  Li  Li1  1  0.09527300  0.67025100  0.56256000  1
  Li  Li2  1  0.33257000  0.33361700  0.38241000  1
  Li  Li3  1  0.33120400  0.33467400  0.88282900  1
  Li  Li4  1  0.23340300  0.67077000  0.06159900  1
  Li  Li5  1  0.67269200  0.09165900  0.06180400  1
  Li  Li6  1  0.67014200  0.23156700  0.56350100  1
  Li  Li7  1  0.32791800  0.90563700  0.93742200  1
  Li  Li8  1  0.76614900  0.33042900  0.93616700  1
  Li  Li9  1  0.66324200  0.67070100  0.61612800  1
  Li  Li10  1  0.66966600  0.66876400  0.11690100  1
  Li  Li11  1  0.90532500  0.32888100  0.43745500  1
  Li  Li12  1  0.99995500  0.99876400  0.99709800  1
  Li  Li13  1  0.00935500  0.97223500  0.49827100  1
  V  V0  1  0.43337900  0.56978700  0.25462000  1
  V  V1  1  0.56524500  0.43431400  0.74866400  1
  V  V2  1  0.43471400  0.00076100  0.74981500  1
  V  V3  1  0.56776000  0.99590000  0.25405300  1
  V  V4  1  0.00453800  0.43286300  0.24439000  1
  V  V5  1  0.99615600  0.57006400  0.75411500  1
  P  P0  1  0.08642700  0.22602700  0.84421400  1
  P  P1  1  0.22424700  0.08997400  0.34333200  1
  P  P2  1  0.08798000  0.68406900  0.34571000  1
  P  P3  1  0.33729300  0.33325900  0.12728500  1
  P  P4  1  0.32934200  0.33475200  0.62508800  1
  P  P5  1  0.22662500  0.68321700  0.84436100  1
  P  P6  1  0.31249500  0.77531700  0.65511300  1
  P  P7  1  0.68487500  0.08855900  0.84678700  1
  P  P8  1  0.31529900  0.91084500  0.15576300  1
  P  P9  1  0.68302600  0.22574400  0.34280900  1
  P  P10  1  0.77332200  0.31760800  0.15642700  1
  P  P11  1  0.67017400  0.66338500  0.37259600  1
  P  P12  1  0.66688100  0.66571600  0.87502100  1
  P  P13  1  0.91321800  0.31685400  0.65473400  1
  P  P14  1  0.77612900  0.91274900  0.65690500  1
  P  P15  1  0.91292300  0.77587100  0.15763100  1
  O  O0  1  0.00400100  0.23197900  0.56440300  1
  O  O1  1  0.07768800  0.25578200  0.33935600  1
  O  O2  1  0.23056500  0.99286600  0.06480000  1
  O  O3  1  0.25204600  0.07976900  0.84394500  1
  O  O4  1  0.10430100  0.37398400  0.83247200  1
  O  O5  1  0.18649800  0.33755500  0.17159500  1
  O  O6  1  0.10166300  0.52052800  0.33213200  1
  O  O7  1  0.01024800  0.77594100  0.07349600  1
  O  O8  1  0.07969800  0.66585500  0.84015500  1
  O  O9  1  0.32600400  0.18602300  0.66443000  1
  O  O10  1  0.37265400  0.10832200  0.32972000  1
  O  O11  1  0.18203300  0.48481000  0.66756600  1
  O  O12  1  0.33518800  0.33674900  0.01851600  1
  O  O13  1  0.32451300  0.33776500  0.51612200  1
  O  O14  1  0.33683400  0.48254500  0.16728100  1
  O  O15  1  0.51785400  0.10812300  0.83258600  1
  O  O16  1  0.48444600  0.18202800  0.16650400  1
  O  O17  1  0.25643100  0.65949500  0.33720000  1
  O  O18  1  0.21796600  0.78949300  0.75430500  1
  O  O19  1  0.21217800  0.77795900  0.57296600  1
  O  O20  1  0.22795000  0.77166900  0.93419600  1
  O  O21  1  0.37399700  0.51801100  0.83322300  1
  O  O22  1  0.48279200  0.32992000  0.66224100  1
  O  O23  1  0.33543200  0.74361800  0.16003200  1
  O  O24  1  0.51809000  0.37445100  0.33030400  1
  O  O25  1  0.66256800  0.08189500  0.34078800  1
  O  O26  1  0.21126600  0.99985400  0.24967000  1
  O  O27  1  0.22394900  0.00618900  0.43435400  1
  O  O28  1  0.78063200  0.00824400  0.57330200  1
  O  O29  1  0.33138400  0.92217600  0.65614500  1
  O  O30  1  0.47892000  0.62753900  0.66575100  1
  O  O31  1  0.66732700  0.25438200  0.84100300  1
  O  O32  1  0.52426400  0.66021300  0.32875800  1
  O  O33  1  0.62256900  0.48028600  0.16823600  1
  O  O34  1  0.76947400  0.22864000  0.06781100  1
  O  O35  1  0.76919000  0.23286700  0.43199100  1
  O  O36  1  0.78859400  0.21202800  0.24989900  1
  O  O37  1  0.74841300  0.33304400  0.65506900  1
  O  O38  1  0.51569200  0.81442100  0.83538900  1
  O  O39  1  0.48010200  0.89524900  0.16871700  1
  O  O40  1  0.67079800  0.51393500  0.83669500  1
  O  O41  1  0.66820200  0.66730900  0.98341100  1
  O  O42  1  0.67078200  0.65897400  0.48089200  1
  O  O43  1  0.81991000  0.51630200  0.33142600  1
  O  O44  1  0.62734300  0.89457300  0.66664400  1
  O  O45  1  0.66334500  0.81430000  0.32900300  1
  O  O46  1  0.91632000  0.34002600  0.15863300  1
  O  O47  1  0.00527500  0.20990600  0.74566000  1
  O  O48  1  0.98855600  0.22469600  0.92744100  1
  O  O49  1  0.89521400  0.48198300  0.66806100  1
  O  O50  1  0.81354700  0.66498300  0.82882100  1
  O  O51  1  0.89441700  0.62769500  0.16842200  1
  O  O52  1  0.74598300  0.92106600  0.15766000  1
  O  O53  1  0.76915400  0.00581400  0.93757800  1
  O  O54  1  0.78987000  0.99436200  0.75510100  1
  O  O55  1  0.92236000  0.74620600  0.65817200  1
  O  O56  1  0.00787800  0.76833200  0.43715600  1
  O  O57  1  0.99294300  0.79202100  0.25536800  1
loop_
_geom_bond_atom_site_label_1
_geom_bond_atom_site_label_2
_geom_bond_distance
_geom_bond_site_symmetry_2
Li0 O29 1.958627 1_545
Li0 O0 1.974699 1_555
Li0 O27 1.982562 1_555
Li0 O9 2.110872 1_555
Li1 O19 1.910747 1_555
Li1 O56 1.959433 1_555
Li1 O55 1.971949 1_455
Li1 O11 2.142246 1_555
Li2 O13 1.846229 1_555
Li2 O24 2.164399 1_555
Li2 O10 2.169110 1_555
Li2 O6 2.199079 1_555
Li3 O12 1.873490 1_556
Li3 O21 2.148436 1_555
Li3 O15 2.170036 1_555
Li3 O4 2.174304 1_555
Li4 O7 1.902032 1_555
Li4 O20 2.003064 1_554
Li4 O23 2.020358 1_555
Li4 O14 2.167848 1_555
Li5 O53 1.933666 1_554
Li5 O52 1.966284 1_545
Li5 O34 1.994053 1_555
Li5 O16 2.150149 1_555
Li6 O28 1.904098 1_555
Li6 O37 1.987206 1_555
Li6 O35 2.056301 1_555
Li6 O22 2.090813 1_555
Li7 O3 1.966494 1_565
Li7 O2 1.977179 1_556
Li7 O20 1.991290 1_555
Li7 O38 2.122603 1_555
Li8 O48 1.892367 1_555
Li8 O31 1.988073 1_555
Li8 O34 2.063139 1_556
Li8 O40 2.078894 1_555
Li9 O42 1.868946 1_555
Li9 O30 2.156358 1_555
Li9 O44 2.159944 1_555
Li9 O49 2.218540 1_555
Li10 O41 1.842469 1_554
Li10 O51 2.154312 1_555
Li10 O39 2.186225 1_555
Li10 O33 2.228802 1_555
Li11 O35 1.979400 1_555
Li11 O1 1.992899 1_655
Li11 O0 2.000050 1_655
Li11 O43 2.164817 1_555
Li12 O48 2.363884 1_565
Li12 O53 2.376435 1_565
Li12 O7 2.380137 1_656
Li12 O20 2.395202 1_655
Li12 O2 2.421550 1_656
Li12 O34 2.459812 1_566
Li13 O56 2.178560 1_555
Li13 O19 2.209012 1_555
Li13 O28 2.324153 1_465
Li13 O27 2.444938 1_565
O0 P13 1.514703 1_455
O1 P1 1.543801 1_555
O1 V4 2.001333 1_555
O2 P8 1.500688 1_555
O3 P0 1.539821 1_555
O3 V2 2.021899 1_555
O4 P0 1.553246 1_555
O4 V5 1.990349 1_455
O5 P3 1.576039 1_555
O5 V4 1.839925 1_555
O6 P2 1.553000 1_555
O6 V4 1.984807 1_555
O7 P15 1.498418 1_455
O8 P5 1.531572 1_555
O8 V5 1.934147 1_455
O9 P4 1.570220 1_555
O9 V2 1.974424 1_555
O10 P1 1.560606 1_555
O10 V3 1.960527 1_545
O11 P4 1.572282 1_555
O11 V5 1.976243 1_455
O12 P3 1.501352 1_555
O13 P4 1.504491 1_555
O14 P3 1.563582 1_555
O14 V0 1.974642 1_555
O15 P7 1.561867 1_555
O15 V2 1.985861 1_555
O16 P3 1.563531 1_555
O16 V3 1.993167 1_545
O17 P2 1.547213 1_555
O17 V0 1.881920 1_555
O18 P5 1.595006 1_555
O18 P6 1.615411 1_555
O19 P6 1.495349 1_555
O20 P5 1.518609 1_555
O21 P5 1.549827 1_555
O21 V1 1.998471 1_555
O22 P4 1.567970 1_555
O22 V1 1.989975 1_555
O23 P8 1.552016 1_555
O23 V0 1.975601 1_555
O24 P9 1.556005 1_555
O24 V0 1.965840 1_555
O25 P9 1.520392 1_555
O25 V3 1.949460 1_545
O26 P8 1.608131 1_555
O26 P1 1.608396 1_565
O27 P1 1.499924 1_555
O28 P14 1.498255 1_545
O29 P6 1.540444 1_555
O29 V2 2.020404 1_565
O30 P6 1.557929 1_555
O30 V1 2.004477 1_555
O31 P7 1.549473 1_555
O31 V1 1.995402 1_555
O32 P11 1.568528 1_555
O32 V0 1.850263 1_555
O33 P10 1.550715 1_555
O33 V0 1.996669 1_555
O34 P10 1.515443 1_555
O35 P9 1.516798 1_555
O36 P9 1.605982 1_555
O36 P10 1.612138 1_555
O37 P13 1.540489 1_555
O37 V1 2.020020 1_555
O38 P12 1.572225 1_555
O38 V2 1.979407 1_565
O39 P8 1.554150 1_555
O39 V3 1.989036 1_555
O40 P12 1.563012 1_555
O40 V1 1.993367 1_555
O41 P12 1.496118 1_555
O42 P11 1.494981 1_555
O43 P11 1.563012 1_555
O43 V4 1.972304 1_655
O44 P14 1.558048 1_555
O44 V2 1.996854 1_565
O45 P11 1.566303 1_555
O45 V3 1.859558 1_555
O46 P10 1.521698 1_555
O46 V4 1.942494 1_655
O47 P13 1.597008 1_455
O47 P0 1.625713 1_555
O48 P0 1.496154 1_655
O49 P13 1.550321 1_555
O49 V5 1.999798 1_555
O50 P12 1.564746 1_555
O50 V5 1.858765 1_555
O51 P15 1.557678 1_555
O51 V4 1.965213 1_655
O52 P15 1.543332 1_555
O52 V3 2.014747 1_555
O53 P7 1.499277 1_555
O54 P7 1.599500 1_565
O54 P14 1.615352 1_555
O55 P14 1.545830 1_555
O55 V5 2.003468 1_555
O56 P2 1.496855 1_555
O57 P2 1.601612 1_655
O57 P15 1.610353 1_555
