# generated using pymatgen
data_TaCo3
_symmetry_space_group_name_H-M   'P 1'
_cell_length_a   6.86121585
_cell_length_b   6.86121293
_cell_length_c   6.86121933
_cell_angle_alpha   43.72204007
_cell_angle_beta   43.72200236
_cell_angle_gamma   43.72204106
_symmetry_Int_Tables_number   1
_chemical_formula_structural   TaCo3
_chemical_formula_sum   'Ta3 Co9'
_cell_volume   140.06384829
_cell_formula_units_Z   3
loop_
 _symmetry_equiv_pos_site_id
 _symmetry_equiv_pos_as_xyz
  1  'x, y, z'
loop_
 _atom_site_type_symbol
 _atom_site_label
 _atom_site_symmetry_multiplicity
 _atom_site_fract_x
 _atom_site_fract_y
 _atom_site_fract_z
 _atom_site_occupancy
  Ta  Ta0  1  -0.00000000  0.00000000  0.00000000  1
  Ta  Ta1  1  0.21858946  0.21858846  0.21858946  1
  Ta  Ta2  1  0.78141054  0.78141154  0.78141054  1
  Co  Co0  1  0.50000000  0.50000000  0.00000000  1
  Co  Co1  1  -0.00000000  0.50000000  0.50000000  1
  Co  Co2  1  0.50000000  0.00000000  0.50000000  1
  Co  Co3  1  0.71380812  0.24226169  0.71380812  1
  Co  Co4  1  0.71380912  0.71380612  0.24226069  1
  Co  Co5  1  0.24226069  0.71380612  0.71380912  1
  Co  Co6  1  0.75773931  0.28619388  0.28619088  1
  Co  Co7  1  0.28619188  0.75773831  0.28619188  1
  Co  Co8  1  0.28619088  0.28619388  0.75773931  1
loop_
_geom_bond_atom_site_label_1
_geom_bond_atom_site_label_2
_geom_bond_distance
_geom_bond_site_symmetry_2
Co0 Co3 2.498178 1_554
Co0 Co7 2.498178 1_555
Co0 Co6 2.498187 1_555
Co0 Co5 2.498187 1_554
Co0 Co1 2.554817 1_555
Co0 Co1 2.554817 1_654
Co0 Ta0 2.554818 1_655
Co0 Ta0 2.554818 1_565
Co0 Co2 2.554818 1_564
Co0 Co2 2.554818 1_555
Co0 Ta1 2.592837 1_555
Co0 Ta2 2.592837 1_554
Co1 Co3 2.498177 1_455
Co1 Co7 2.498177 1_555
Co1 Co4 2.498187 1_455
Co1 Co8 2.498187 1_555
Co1 Co2 2.554818 1_465
Co1 Co2 2.554818 1_555
Co1 Ta0 2.554818 1_556
Co1 Ta0 2.554818 1_565
Co1 Ta2 2.592838 1_455
Co1 Ta1 2.592838 1_555
Co2 Co5 2.498192 1_545
Co2 Co6 2.498192 1_555
Co2 Co8 2.498193 1_555
Co2 Co4 2.498193 1_545
Co2 Ta0 2.554817 1_655
Co2 Ta0 2.554817 1_556
Co2 Ta2 2.592838 1_545
Co2 Ta1 2.592838 1_555
Co3 Co5 2.409428 1_555
Co3 Co4 2.409428 1_555
Co3 Co8 2.522834 1_555
Co3 Co6 2.522836 1_555
Co3 Ta2 2.549444 1_545
Co3 Ta1 2.557689 1_556
Co3 Ta1 2.557689 1_655
Co3 Ta0 2.571448 1_656
Co3 Co5 2.700207 1_645
Co3 Co4 2.700208 1_546
Co4 Co5 2.409440 1_555
Co4 Co6 2.522812 1_555
Co4 Co7 2.522834 1_555
Co4 Ta2 2.549439 1_554
Co4 Ta1 2.557684 1_655
Co4 Ta1 2.557695 1_565
Co4 Ta0 2.571453 1_665
Co4 Co5 2.700194 1_654
Co5 Co8 2.522812 1_555
Co5 Co7 2.522836 1_555
Co5 Ta2 2.549437 1_455
Co5 Ta1 2.557685 1_556
Co5 Ta1 2.557696 1_565
Co5 Ta0 2.571455 1_566
Co6 Co7 2.409428 1_555
Co6 Co8 2.409440 1_555
Co6 Ta1 2.549437 1_655
Co6 Ta2 2.557685 1_554
Co6 Ta2 2.557696 1_545
Co6 Ta0 2.571455 1_655
Co6 Co8 2.700194 1_654
Co6 Co7 2.700207 1_645
Co7 Co8 2.409428 1_555
Co7 Ta1 2.549444 1_565
Co7 Ta2 2.557689 1_554
Co7 Ta2 2.557689 1_455
Co7 Ta0 2.571448 1_565
Co7 Co8 2.700208 1_564
Co8 Ta1 2.549439 1_556
Co8 Ta2 2.557684 1_455
Co8 Ta2 2.557695 1_545
Co8 Ta0 2.571453 1_556
