# generated using pymatgen
data_Mn6O5F7
_symmetry_space_group_name_H-M   'P 1'
_cell_length_a   5.12678700
_cell_length_b   5.79640676
_cell_length_c   14.47441373
_cell_angle_alpha   93.20005926
_cell_angle_beta   91.94610287
_cell_angle_gamma   89.94406244
_symmetry_Int_Tables_number   1
_chemical_formula_structural   Mn6O5F7
_chemical_formula_sum   'Mn12 O10 F14'
_cell_volume   429.21672675
_cell_formula_units_Z   2
loop_
 _symmetry_equiv_pos_site_id
 _symmetry_equiv_pos_as_xyz
  1  'x, y, z'
loop_
 _atom_site_type_symbol
 _atom_site_label
 _atom_site_symmetry_multiplicity
 _atom_site_fract_x
 _atom_site_fract_y
 _atom_site_fract_z
 _atom_site_occupancy
  Mn  Mn0  1  0.97029000  0.87975400  0.00522700  1
  Mn  Mn1  1  0.48191200  0.16088900  0.16821700  1
  Mn  Mn2  1  0.98386000  0.92236500  0.33021800  1
  Mn  Mn3  1  0.53428700  0.09615200  0.49866200  1
  Mn  Mn4  1  0.02635400  0.87429600  0.66697500  1
  Mn  Mn5  1  0.46381800  0.93208000  0.83122300  1
  Mn  Mn6  1  0.98170700  0.44846000  0.16818900  1
  Mn  Mn7  1  0.43846900  0.56818000  0.01030200  1
  Mn  Mn8  1  0.54479700  0.58206300  0.66023800  1
  Mn  Mn9  1  0.04974600  0.42326100  0.50709400  1
  Mn  Mn10  1  0.51839700  0.62474700  0.32486900  1
  Mn  Mn11  1  0.02667900  0.44948800  0.82523700  1
  O  O0  1  0.68295600  0.87621800  0.40207400  1
  O  O1  1  0.25662300  0.78391400  0.92894100  1
  O  O2  1  0.71754200  0.82936300  0.73647100  1
  O  O3  1  0.13712800  0.65240200  0.08144700  1
  O  O4  1  0.82432400  0.67062300  0.25628300  1
  O  O5  1  0.87448700  0.62642300  0.59231600  1
  O  O6  1  0.23929300  0.67519400  0.73943600  1
  O  O7  1  0.36930300  0.37115100  0.57169100  1
  O  O8  1  0.31589700  0.40784200  0.23896900  1
  O  O9  1  0.65093600  0.38822900  0.09837700  1
  F  F0  1  0.31102600  0.92632500  0.25217500  1
  F  F1  1  0.64595200  0.90484400  0.08582600  1
  F  F2  1  0.34242300  0.87190000  0.58240200  1
  F  F3  1  0.74565300  0.59011600  0.92979200  1
  F  F4  1  0.21263100  0.64694300  0.40480800  1
  F  F5  1  0.28387000  0.30261900  0.91759600  1
  F  F6  1  0.72101600  0.37907800  0.42896500  1
  F  F7  1  0.69119300  0.35125400  0.75291500  1
  F  F8  1  0.17331100  0.15017400  0.42024100  1
  F  F9  1  0.12889900  0.16232200  0.08966300  1
  F  F10  1  0.17599100  0.12267500  0.74899200  1
  F  F11  1  0.87414100  0.10838800  0.58208300  1
  F  F12  1  0.77212200  0.05504800  0.91351400  1
  F  F13  1  0.83296500  0.18522300  0.24857600  1
loop_
_geom_bond_atom_site_label_1
_geom_bond_atom_site_label_2
_geom_bond_distance
_geom_bond_site_symmetry_2
Mn0 O1 1.929457 1_654
Mn0 O3 1.944592 1_655
Mn1 O8 1.927526 1_555
Mn1 O9 1.928663 1_555
Mn2 O0 1.916762 1_555
Mn2 O4 1.926662 1_555
Mn3 O0 2.008027 1_545
Mn3 O7 2.060008 1_555
Mn4 O5 1.900002 1_455
Mn4 O6 1.917979 1_555
Mn4 O2 1.929892 1_455
Mn5 O2 1.988966 1_555
Mn5 O1 2.026316 1_555
Mn5 O6 2.232908 1_555
Mn6 O4 1.954420 1_555
Mn6 O3 1.960666 1_655
Mn6 O9 1.965724 1_555
Mn6 O8 1.986812 1_655
Mn7 O3 1.932868 1_555
Mn7 O1 1.976688 1_554
Mn7 O9 1.987872 1_555
Mn8 O7 1.922405 1_555
Mn8 O2 1.953507 1_555
Mn8 O5 2.007870 1_555
Mn8 O6 2.027283 1_555
Mn9 O7 1.891037 1_555
Mn9 O5 1.904402 1_455
Mn10 O4 1.911083 1_555
Mn10 O0 1.960038 1_555
Mn10 O8 1.986154 1_555
Mn11 O6 2.172154 1_555
Mn11 O1 2.638179 1_555
F0 Mn2 2.054656 1_455
F0 Mn1 2.086158 1_565
F0 Mn10 2.327854 1_555
F1 Mn1 2.049447 1_565
F1 Mn0 2.063842 1_555
F1 Mn7 2.412788 1_555
F2 Mn4 2.063313 1_555
F2 Mn3 2.094210 1_565
F2 Mn8 2.301462 1_555
F3 Mn7 1.998990 1_556
F3 Mn11 2.244684 1_655
F3 Mn0 2.247401 1_556
F4 Mn10 1.979622 1_555
F4 Mn9 2.206981 1_555
F4 Mn2 2.278747 1_455
F5 Mn11 2.062920 1_555
F5 Mn7 2.120800 1_556
F5 Mn5 2.608028 1_545
F6 Mn9 2.005955 1_655
F6 Mn3 2.208394 1_555
F6 Mn10 2.346790 1_555
F7 Mn11 2.047293 1_655
F7 Mn8 2.069466 1_555
F8 Mn2 2.027156 1_445
F8 Mn9 2.077820 1_555
F8 Mn3 2.169625 1_555
F9 Mn1 2.104664 1_555
F9 Mn6 2.111293 1_455
F9 Mn0 2.132877 1_445
F10 Mn4 1.954504 1_545
F10 Mn5 2.199774 1_545
F10 Mn11 2.283327 1_555
F11 Mn4 2.019637 1_645
F11 Mn3 2.084855 1_555
F11 Mn9 2.368654 1_655
F12 Mn0 1.970737 1_546
F12 Mn5 2.050528 1_545
F13 Mn1 2.109975 1_555
F13 Mn2 2.110215 1_545
F13 Mn6 2.127034 1_555
