# generated using pymatgen
data_Li4Fe(TeO4)3
_symmetry_space_group_name_H-M   'P 1'
_cell_length_a   5.21330900
_cell_length_b   5.48990358
_cell_length_c   7.55573303
_cell_angle_alpha   86.03091569
_cell_angle_beta   89.87545528
_cell_angle_gamma   89.89870257
_symmetry_Int_Tables_number   1
_chemical_formula_structural   Li4Fe(TeO4)3
_chemical_formula_sum   'Li4 Fe1 Te3 O12'
_cell_volume   215.72988101
_cell_formula_units_Z   1
loop_
 _symmetry_equiv_pos_site_id
 _symmetry_equiv_pos_as_xyz
  1  'x, y, z'
loop_
 _atom_site_type_symbol
 _atom_site_label
 _atom_site_symmetry_multiplicity
 _atom_site_fract_x
 _atom_site_fract_y
 _atom_site_fract_z
 _atom_site_occupancy
  Li  Li0  1  0.99640100  0.58319900  0.26259700  1
  Li  Li1  1  0.50508500  0.05413800  0.80653200  1
  Li  Li2  1  0.00612000  0.59246800  0.81001700  1
  Li  Li3  1  0.49457200  0.02341800  0.24701200  1
  Fe  Fe0  1  0.00167300  0.01692500  0.00167900  1
  Te  Te0  1  0.49936000  0.49964200  0.50430400  1
  Te  Te1  1  0.00002600  0.00375500  0.50176200  1
  Te  Te2  1  0.49982300  0.50110000  0.00095000  1
  O  O0  1  0.69461600  0.80734400  0.42293200  1
  O  O1  1  0.87466100  0.98709300  0.74038200  1
  O  O2  1  0.67362400  0.18780000  0.04770000  1
  O  O3  1  0.81341700  0.30789100  0.42300900  1
  O  O4  1  0.20820100  0.31046600  0.92900300  1
  O  O5  1  0.63894700  0.48859900  0.75063600  1
  O  O6  1  0.36428500  0.48148700  0.24854400  1
  O  O7  1  0.80471700  0.67841500  0.04916100  1
  O  O8  1  0.17634800  0.67987900  0.56470000  1
  O  O9  1  0.30572400  0.79276800  0.93643700  1
  O  O10  1  0.12114600  0.97338800  0.25913500  1
  O  O11  1  0.32125300  0.17262600  0.56470700  1
loop_
_geom_bond_atom_site_label_1
_geom_bond_atom_site_label_2
_geom_bond_distance
_geom_bond_site_symmetry_2
Li0 O7 1.939332 1_555
Li0 O6 2.001230 1_655
Li0 O3 2.099973 1_555
Li0 O10 2.238148 1_655
Li0 O0 2.376622 1_555
Li0 O8 2.559468 1_655
Li1 O9 1.976967 1_545
Li1 O1 2.028864 1_545
Li1 O11 2.126268 1_555
Li1 O2 2.196641 1_556
Li1 O4 2.323448 1_555
Li1 O5 2.493886 1_555
Li2 O4 2.029929 1_555
Li2 O5 2.057568 1_455
Li2 O8 2.079596 1_555
Li2 O7 2.167494 1_456
Li2 O9 2.172364 1_555
Li2 O1 2.297510 1_455
Li3 O2 1.939676 1_555
Li3 O10 1.967596 1_545
Li3 O0 2.011197 1_545
Fe0 O4 1.984650 1_554
Fe0 O2 1.990646 1_455
Fe0 O10 2.041939 1_545
Fe0 O9 2.084141 1_544
Fe0 O1 2.100933 1_444
Fe0 O7 2.132947 1_445
O0 Te0 2.031588 1_555
O0 Te1 2.037557 1_665
O1 Te1 1.912694 1_665
O2 Te2 1.953427 1_555
O3 Te1 1.986847 1_655
O3 Te0 2.060384 1_555
O4 Te2 1.946830 1_556
O5 Te0 1.996869 1_555
O5 Te2 2.029688 1_556
O6 Te2 1.994301 1_555
O6 Te0 2.067129 1_555
O7 Te2 1.914129 1_555
O8 Te0 2.018991 1_555
O8 Te1 2.027716 1_565
O9 Te2 1.927132 1_556
O10 Te1 1.955536 1_565
O11 Te1 1.990010 1_555
O11 Te0 2.045515 1_555
