# generated using pymatgen
data_V2OF5
_symmetry_space_group_name_H-M   'P 1'
_cell_length_a   5.07800007
_cell_length_b   5.28981410
_cell_length_c   16.88519345
_cell_angle_alpha   88.44143190
_cell_angle_beta   98.27122383
_cell_angle_gamma   118.36868222
_symmetry_Int_Tables_number   1
_chemical_formula_structural   V2OF5
_chemical_formula_sum   'V8 O4 F20'
_cell_volume   394.50262052
_cell_formula_units_Z   4
loop_
 _symmetry_equiv_pos_site_id
 _symmetry_equiv_pos_as_xyz
  1  'x, y, z'
loop_
 _atom_site_type_symbol
 _atom_site_label
 _atom_site_symmetry_multiplicity
 _atom_site_fract_x
 _atom_site_fract_y
 _atom_site_fract_z
 _atom_site_occupancy
  V  V0  1  0.23973334  0.62168174  0.87657793  1
  V  V1  1  0.23779326  0.13310695  0.37638042  1
  V  V2  1  0.49865394  0.26191035  0.74754166  1
  V  V3  1  0.50132905  0.74999956  0.24566155  1
  V  V4  1  0.73495990  0.84544277  0.63033207  1
  V  V5  1  0.73482810  0.40342588  0.12413119  1
  V  V6  1  -0.00648520  0.03507244  0.99512147  1
  V  V7  1  0.00283528  0.47932200  0.49795083  1
  O  O0  1  0.03163862  0.31322471  0.93881172  1
  O  O1  1  0.08809094  0.31302256  0.41761963  1
  O  O2  1  0.53768230  0.55580508  0.68862876  1
  O  O3  1  0.58834826  0.58882400  0.16291491  1
  F  F0  1  0.06188763  0.84058651  0.90813756  1
  F  F1  1  0.01538370  0.78812556  0.43464193  1
  F  F2  1  0.48709312  0.95167102  0.81322899  1
  F  F3  1  0.06603400  0.03603279  0.71959219  1
  F  F4  1  0.07624092  0.53899517  0.21281231  1
  F  F5  1  0.56015977  0.79075415  0.96578416  1
  F  F6  1  0.43875483  0.42273779  0.84056924  1
  F  F7  1  0.42747535  0.91913147  0.33818303  1
  F  F8  1  0.42835275  0.70172031  0.53433486  1
  F  F9  1  0.48488957  0.44204190  0.31203139  1
  F  F10  1  0.55129571  0.06957138  0.66000684  1
  F  F11  1  0.57677282  0.26942796  0.46582242  1
  F  F12  1  0.42835253  0.21135341  0.03319519  1
  F  F13  1  0.94080242  0.66716982  0.58902837  1
  F  F14  1  0.93928452  0.46327390  0.78481963  1
  F  F15  1  0.93069929  0.96748315  0.28316100  1
  F  F16  1  0.51897690  0.06589664  0.18633523  1
  F  F17  1  0.97810407  0.69967698  0.05738679  1
  F  F18  1  0.97466203  0.18044095  0.56882221  1
  F  F19  1  0.92536526  0.17306910  0.09043351  1
loop_
_geom_bond_atom_site_label_1
_geom_bond_atom_site_label_2
_geom_bond_distance
_geom_bond_site_symmetry_2
O0 V6 1.677085 1_555
O0 V0 1.863056 1_555
O1 V1 1.686537 1_555
O1 V7 1.843069 1_555
O2 V4 1.750158 1_555
O2 V2 1.767923 1_555
O3 V5 1.676977 1_555
O3 V3 1.864073 1_555
F0 V0 1.899013 1_555
F0 V6 1.975985 1_565
F1 V7 1.908100 1_555
F1 V1 1.958821 1_565
F2 V2 1.937794 1_565
F2 V0 1.992584 1_555
F3 V2 1.927299 1_555
F3 V4 1.964015 1_445
F4 V3 1.900695 1_555
F4 V5 1.972862 1_455
F5 V0 1.923922 1_555
F5 V6 1.943391 1_665
F6 V0 1.928950 1_555
F6 V2 1.933839 1_555
F7 V1 1.969626 1_565
F7 V3 1.986240 1_555
F8 V7 1.916279 1_555
F8 V4 1.961017 1_555
F9 V3 1.927436 1_555
F9 V1 1.942346 1_555
F10 V4 1.934964 1_545
F10 V2 1.935248 1_555
F11 V7 1.902708 1_655
F11 V1 1.973716 1_555
F12 V5 1.925282 1_555
F12 V6 1.956034 1_554
F13 V4 1.910635 1_555
F13 V7 1.992888 1_655
F14 V0 1.898943 1_655
F14 V2 1.975775 1_555
F15 V3 1.933155 1_555
F15 V1 1.935825 1_665
F16 V3 1.896401 1_545
F16 V5 1.965191 1_555
F17 V5 1.927915 1_555
F17 V6 2.012328 1_664
F18 V7 1.919255 1_655
F18 V4 1.978488 1_545
F19 V6 1.925326 1_654
F19 V5 2.015255 1_555
