# generated using pymatgen
data_LiMnOF2
_symmetry_space_group_name_H-M   'P 1'
_cell_length_a   5.38049500
_cell_length_b   8.68285685
_cell_length_c   10.18829644
_cell_angle_alpha   89.65227432
_cell_angle_beta   83.22374504
_cell_angle_gamma   88.28424020
_symmetry_Int_Tables_number   1
_chemical_formula_structural   LiMnOF2
_chemical_formula_sum   'Li8 Mn8 O8 F16'
_cell_volume   472.43913023
_cell_formula_units_Z   8
loop_
 _symmetry_equiv_pos_site_id
 _symmetry_equiv_pos_as_xyz
  1  'x, y, z'
loop_
 _atom_site_type_symbol
 _atom_site_label
 _atom_site_symmetry_multiplicity
 _atom_site_fract_x
 _atom_site_fract_y
 _atom_site_fract_z
 _atom_site_occupancy
  Li  Li0  1  0.21432600  0.61264600  0.20672800  1
  Li  Li1  1  0.78024100  0.90608500  0.29528400  1
  Li  Li2  1  0.67491100  0.39799500  0.21491700  1
  Li  Li3  1  0.28979800  0.08861600  0.28670800  1
  Li  Li4  1  0.69879900  0.90999700  0.68709100  1
  Li  Li5  1  0.32202300  0.59005700  0.81624300  1
  Li  Li6  1  0.18662000  0.09200200  0.70117900  1
  Li  Li7  1  0.82016500  0.40881600  0.80265500  1
  Mn  Mn0  1  0.10600600  0.35906700  0.05383600  1
  Mn  Mn1  1  0.25068900  0.91013600  0.00973400  1
  Mn  Mn2  1  0.73055900  0.08303600  0.00632400  1
  Mn  Mn3  1  0.75278300  0.71586600  0.01891500  1
  Mn  Mn4  1  0.75279300  0.20899200  0.48557600  1
  Mn  Mn5  1  0.75945600  0.59447500  0.48766800  1
  Mn  Mn6  1  0.26953100  0.41722500  0.49417200  1
  Mn  Mn7  1  0.26471400  0.77530400  0.48833700  1
  O  O0  1  0.86200300  0.90352500  0.09556500  1
  O  O1  1  0.91947200  0.53738300  0.11378000  1
  O  O2  1  0.40240800  0.07709300  0.08775100  1
  O  O3  1  0.42126700  0.75681500  0.09432900  1
  O  O4  1  0.85961600  0.21720900  0.11714000  1
  O  O5  1  0.58936800  0.74307100  0.39995300  1
  O  O6  1  0.60892000  0.42216000  0.41168600  1
  O  O7  1  0.14667700  0.59247700  0.40547500  1
  F  F0  1  0.38480600  0.42755500  0.14000100  1
  F  F1  1  0.10024900  0.92013800  0.35784500  1
  F  F2  1  0.10396200  0.25813400  0.37803300  1
  F  F3  1  0.59132200  0.07737400  0.35861200  1
  F  F4  1  0.41138500  0.58897500  0.62965900  1
  F  F5  1  0.37480200  0.91727900  0.61900000  1
  F  F6  1  0.92029100  0.42488900  0.60452200  1
  F  F7  1  0.91778600  0.75497400  0.59719000  1
  F  F8  1  0.87967500  0.08275100  0.63249400  1
  F  F9  1  0.37817200  0.25060800  0.60466600  1
  F  F10  1  0.10556900  0.74785100  0.90037800  1
  F  F11  1  0.08363800  0.06455900  0.89468400  1
  F  F12  1  0.64593700  0.58780500  0.87726900  1
  F  F13  1  0.65339100  0.24104400  0.88913000  1
  F  F14  1  0.62111300  0.92682300  0.87685900  1
  F  F15  1  0.14475800  0.40919700  0.85861000  1
loop_
_geom_bond_atom_site_label_1
_geom_bond_atom_site_label_2
_geom_bond_distance
_geom_bond_site_symmetry_2
Li0 O3 1.970611 1_555
Li0 O7 2.022111 1_555
Li0 O1 2.065143 1_455
Li1 O5 2.001407 1_555
Li1 O0 2.030552 1_555
Li2 O1 2.004568 1_555
Li2 O6 2.005430 1_555
Li2 O4 2.033726 1_555
Li3 O2 2.048166 1_555
Mn0 O1 1.884483 1_455
Mn0 O4 1.891292 1_455
Mn1 O3 1.859307 1_555
Mn1 O2 1.907271 1_565
Mn1 O0 2.171782 1_455
Mn2 O4 1.833993 1_555
Mn2 O2 1.862142 1_555
Mn2 O0 1.955717 1_545
Mn3 O3 1.881580 1_555
Mn3 O0 1.947120 1_555
Mn3 O1 2.059944 1_555
Mn4 O6 2.150962 1_555
Mn5 O5 1.846392 1_555
Mn5 O6 1.930925 1_555
Mn5 O7 2.151411 1_655
Mn6 O7 1.906079 1_555
Mn6 O6 1.919575 1_555
Mn7 O5 1.882311 1_555
Mn7 O7 1.959403 1_555
F0 Li2 1.827476 1_555
F0 Li0 1.914213 1_555
F0 Mn0 1.935217 1_555
F1 Li3 1.899327 1_565
F1 Li1 1.912659 1_455
F1 Mn7 2.079131 1_555
F2 Li3 1.934152 1_555
F2 Mn6 2.108115 1_555
F2 Mn4 2.122901 1_455
F3 Li1 1.851449 1_545
F3 Li3 1.856968 1_555
F3 Mn4 2.019086 1_555
F4 Li5 1.905051 1_555
F4 Mn5 2.228810 1_555
F4 Mn6 2.248040 1_555
F4 Mn7 2.340256 1_555
F5 Li6 1.936788 1_565
F5 Li4 1.949997 1_555
F5 Mn7 1.972924 1_555
F6 Li7 2.032007 1_555
F6 Mn6 2.072260 1_655
F6 Mn5 2.116609 1_555
F6 Mn4 2.486244 1_555
F7 Li4 1.924677 1_555
F7 Mn5 2.056018 1_555
F7 Mn7 2.067436 1_655
F8 Li4 1.859051 1_545
F8 Li6 1.872167 1_655
F8 Mn4 2.021023 1_555
F9 Li6 1.937799 1_555
F9 Mn6 1.945982 1_555
F9 Mn4 2.247250 1_555
F10 Li5 1.910874 1_555
F10 Mn1 2.031453 1_556
F10 Mn3 2.150627 1_456
F11 Li6 1.998743 1_555
F11 Mn1 2.033974 1_546
F11 Mn2 2.098219 1_456
F12 Li7 1.905501 1_555
F12 Li5 1.917784 1_555
F12 Mn3 1.975616 1_556
F13 Mn2 1.882370 1_556
F13 Li7 1.891994 1_555
F14 Li4 1.934737 1_555
F14 Mn2 2.044310 1_566
F14 Mn1 2.281267 1_556
F14 Mn3 2.466545 1_556
F15 Li5 1.883192 1_555
F15 Li7 1.900130 1_455
F15 Mn0 2.021434 1_556
