# generated using pymatgen
data_Li5Mn6(BO3)6
_symmetry_space_group_name_H-M   'P 1'
_cell_length_a   5.26948400
_cell_length_b   5.94490415
_cell_length_c   12.37565703
_cell_angle_alpha   91.41497578
_cell_angle_beta   101.23596694
_cell_angle_gamma   90.08883161
_symmetry_Int_Tables_number   1
_chemical_formula_structural   Li5Mn6(BO3)6
_chemical_formula_sum   'Li5 Mn6 B6 O18'
_cell_volume   380.13223965
_cell_formula_units_Z   1
loop_
 _symmetry_equiv_pos_site_id
 _symmetry_equiv_pos_as_xyz
  1  'x, y, z'
loop_
 _atom_site_type_symbol
 _atom_site_label
 _atom_site_symmetry_multiplicity
 _atom_site_fract_x
 _atom_site_fract_y
 _atom_site_fract_z
 _atom_site_occupancy
  Li  Li0  1  0.89658700  0.19574700  0.47869600  1
  Li  Li1  1  0.77317800  0.46913200  0.85344800  1
  Li  Li2  1  0.23492900  0.51481800  0.14909000  1
  Li  Li3  1  0.10632300  0.79982600  0.51597400  1
  Li  Li4  1  0.55956900  0.86294600  0.81427500  1
  Mn  Mn0  1  0.03028800  0.04167000  0.72013900  1
  Mn  Mn1  1  0.30172400  0.28651600  0.95251000  1
  Mn  Mn2  1  0.37513300  0.36213800  0.38087600  1
  Mn  Mn3  1  0.63784400  0.62283400  0.61364900  1
  Mn  Mn4  1  0.69503200  0.70756600  0.05328200  1
  Mn  Mn5  1  0.96084800  0.97158100  0.27306500  1
  B  B0  1  0.47067900  0.13362200  0.60241300  1
  B  B1  1  0.85596800  0.19809300  0.06023400  1
  B  B2  1  0.80933400  0.47852600  0.27086900  1
  B  B3  1  0.19674300  0.53042100  0.73092200  1
  B  B4  1  0.13856200  0.79899500  0.93674600  1
  B  B5  1  0.52563200  0.86330900  0.39990800  1
  O  O0  1  0.35496500  0.01595500  0.34139700  1
  O  O1  1  0.74679100  0.03758600  0.11706500  1
  O  O2  1  0.20453400  0.11666600  0.58522100  1
  O  O3  1  0.11771200  0.22241400  0.07745200  1
  O  O4  1  0.58959300  0.28329000  0.54148300  1
  O  O5  1  0.96437900  0.33052600  0.34148100  1
  O  O6  1  0.69550200  0.34322100  0.98872800  1
  O  O7  1  0.07987800  0.38143200  0.79274800  1
  O  O8  1  0.54548600  0.48061700  0.25949800  1
  O  O9  1  0.46267000  0.54811600  0.74771800  1
  O  O10  1  0.92946900  0.62455800  0.20847400  1
  O  O11  1  0.29555500  0.65793700  0.00930300  1
  O  O12  1  0.04032400  0.66775400  0.65519900  1
  O  O13  1  0.41418000  0.69480600  0.45550500  1
  O  O14  1  0.87248300  0.78223300  0.91808300  1
  O  O15  1  0.78987100  0.88524600  0.41288800  1
  O  O16  1  0.25588700  0.95228700  0.87646500  1
  O  O17  1  0.62676800  0.99455400  0.67677300  1
loop_
_geom_bond_atom_site_label_1
_geom_bond_atom_site_label_2
_geom_bond_distance
_geom_bond_site_symmetry_2
Li0 O2 1.947180 1_655
Li0 O5 1.988957 1_555
Li0 O4 1.990998 1_555
Li0 O15 2.032463 1_545
Li1 O9 1.951460 1_555
Li1 O6 1.964356 1_555
Li1 O7 1.975971 1_655
Li1 O14 2.034365 1_555
Li2 O8 1.931251 1_555
Li2 O3 1.973933 1_555
Li2 O10 1.999288 1_455
Li2 O11 2.026312 1_555
Li3 O15 1.967663 1_455
Li3 O12 2.001409 1_555
Li3 O13 2.008646 1_555
Li3 O2 2.072329 1_565
Li4 O14 1.951131 1_555
Li4 O16 1.974245 1_555
Li4 O17 1.983169 1_555
Li4 O9 2.049193 1_555
Mn0 O17 2.105666 1_445
Mn0 O2 2.112506 1_555
Mn0 O16 2.143564 1_545
Mn0 O7 2.184665 1_555
Mn0 O12 2.349181 1_545
Mn1 O3 2.022012 1_556
Mn1 O6 2.061097 1_555
Mn1 O16 2.170163 1_545
Mn1 O7 2.179580 1_555
Mn1 O11 2.302841 1_556
Mn2 O8 2.033247 1_555
Mn2 O0 2.101166 1_555
Mn2 O5 2.130935 1_455
Mn2 O4 2.149364 1_555
Mn2 O13 2.154305 1_555
Mn3 O12 2.097677 1_655
Mn3 O9 2.105771 1_555
Mn3 O13 2.132263 1_555
Mn3 O4 2.181222 1_555
Mn3 O17 2.330232 1_555
Mn4 O11 2.087612 1_555
Mn4 O1 2.093950 1_565
Mn4 O14 2.125093 1_554
Mn4 O10 2.140662 1_555
Mn4 O6 2.290221 1_554
Mn5 O1 2.084146 1_565
Mn5 O0 2.097776 1_665
Mn5 O15 2.172425 1_555
Mn5 O10 2.188229 1_555
Mn5 O5 2.274916 1_565
B0 O2 1.380039 1_555
B0 O17 1.397000 1_545
B0 O4 1.403015 1_555
B1 O3 1.360876 1_655
B1 O1 1.387536 1_555
B1 O6 1.410972 1_554
B2 O8 1.370002 1_555
B2 O5 1.402587 1_555
B2 O10 1.404489 1_555
B3 O9 1.379442 1_555
B3 O12 1.401072 1_555
B3 O7 1.401633 1_555
B4 O14 1.378908 1_455
B4 O11 1.394181 1_556
B4 O16 1.407412 1_555
B5 O15 1.375804 1_555
B5 O0 1.392058 1_565
B5 O13 1.418269 1_555
