# generated using pymatgen
data_Li4Ti5Ni3O16
_symmetry_space_group_name_H-M   'P 1'
_cell_length_a   5.90396707
_cell_length_b   5.90396707
_cell_length_c   9.55794993
_cell_angle_alpha   88.82571851
_cell_angle_beta   88.82571851
_cell_angle_gamma   59.11303907
_symmetry_Int_Tables_number   1
_chemical_formula_structural   Li4Ti5Ni3O16
_chemical_formula_sum   'Li4 Ti5 Ni3 O16'
_cell_volume   285.83230973
_cell_formula_units_Z   1
loop_
 _symmetry_equiv_pos_site_id
 _symmetry_equiv_pos_as_xyz
  1  'x, y, z'
loop_
 _atom_site_type_symbol
 _atom_site_label
 _atom_site_symmetry_multiplicity
 _atom_site_fract_x
 _atom_site_fract_y
 _atom_site_fract_z
 _atom_site_occupancy
  Li  Li0  1  0.66097200  0.66097200  0.10377300  1
  Li  Li1  1  0.99059200  0.99059200  0.00812000  1
  Li  Li2  1  0.00084600  0.00084600  0.50565100  1
  Li  Li3  1  0.33896200  0.33896200  0.59839900  1
  Ti  Ti0  1  0.34936400  0.84382700  0.77909700  1
  Ti  Ti1  1  0.66654800  0.66654800  0.49897600  1
  Ti  Ti2  1  0.84382700  0.34936400  0.77909700  1
  Ti  Ti3  1  0.17309400  0.17309400  0.27011900  1
  Ti  Ti4  1  0.33980400  0.33980400  0.00342400  1
  Ni  Ni0  1  0.83145100  0.83145100  0.79118400  1
  Ni  Ni1  1  0.16785500  0.66120900  0.28953000  1
  Ni  Ni2  1  0.66120900  0.16785500  0.28953000  1
  O  O0  1  0.34188100  0.83878100  0.40764200  1
  O  O1  1  0.52139000  0.52139000  0.66290600  1
  O  O2  1  0.65544500  0.65544500  0.89753100  1
  O  O3  1  0.00574400  0.00574400  0.69546900  1
  O  O4  1  0.99475000  0.99475000  0.19834900  1
  O  O5  1  0.83878100  0.34188100  0.40764200  1
  O  O6  1  0.50611000  0.96842700  0.65656000  1
  O  O7  1  0.96842700  0.50611000  0.65656000  1
  O  O8  1  0.16741900  0.16741900  0.90213300  1
  O  O9  1  0.83828200  0.83828200  0.40596300  1
  O  O10  1  0.02752800  0.47412500  0.15769500  1
  O  O11  1  0.47412500  0.02752800  0.15769500  1
  O  O12  1  0.33581300  0.33581300  0.38746700  1
  O  O13  1  0.17812800  0.66035600  0.90991700  1
  O  O14  1  0.47392500  0.47392500  0.16402800  1
  O  O15  1  0.66035600  0.17812800  0.90991700  1
loop_
_geom_bond_atom_site_label_1
_geom_bond_atom_site_label_2
_geom_bond_distance
_geom_bond_site_symmetry_2
Li0 O10 1.933226 1_655
Li0 O11 1.933226 1_565
Li0 O2 1.973404 1_554
Li0 O14 1.992651 1_555
Li1 O4 1.819706 1_555
Li1 O13 1.929850 1_654
Li1 O15 1.929850 1_564
Li1 O8 2.058711 1_664
Li2 O3 1.816153 1_555
Li2 O9 1.941879 1_445
Li2 O5 1.956666 1_455
Li2 O0 1.956666 1_545
Li3 O6 1.955701 1_545
Li3 O7 1.955701 1_455
Li3 O1 1.986364 1_555
Li3 O12 2.017099 1_555
Ni0 O3 1.991148 1_665
Ni0 O2 2.053003 1_555
Ni0 O15 2.103100 1_565
Ni0 O13 2.103100 1_655
Ni0 O6 2.112578 1_555
Ni0 O7 2.112578 1_555
Ni1 O12 1.886462 1_555
Ni1 O4 1.892543 1_455
Ni1 O14 1.959843 1_555
Ni1 O9 1.996979 1_455
Ni1 O10 2.129209 1_555
Ni1 O0 2.152005 1_555
Ni2 O12 1.886462 1_555
Ni2 O4 1.892543 1_545
Ni2 O14 1.959843 1_555
Ni2 O9 1.996979 1_545
Ni2 O11 2.129209 1_555
Ni2 O5 2.152005 1_555
O0 Ti1 1.871181 1_555
O0 Ti3 2.131789 1_565
O1 Ti0 1.985985 1_555
O1 Ti2 1.985985 1_555
O1 Ti1 2.137262 1_555
O2 Ti0 1.937191 1_555
O2 Ti2 1.937191 1_555
O3 Ti0 1.926778 1_545
O3 Ti2 1.926778 1_455
O4 Ti3 1.971140 1_665
O5 Ti1 1.871181 1_555
O5 Ti3 2.131789 1_655
O6 Ti0 1.840784 1_555
O6 Ti1 2.158846 1_555
O7 Ti2 1.840784 1_555
O7 Ti1 2.158846 1_555
O8 Ti2 2.029786 1_455
O8 Ti0 2.029786 1_545
O8 Ti4 2.037936 1_556
O9 Ti1 1.956514 1_555
O10 Ti3 1.855623 1_555
O10 Ti4 2.153507 1_555
O11 Ti3 1.855623 1_555
O11 Ti4 2.153507 1_555
O12 Ti3 2.034632 1_555
O13 Ti4 1.844587 1_556
O13 Ti0 2.185366 1_555
O14 Ti4 2.086576 1_555
O15 Ti4 1.844587 1_556
O15 Ti2 2.185366 1_555
