# generated using pymatgen
data_Li2Fe(BO3)2
_symmetry_space_group_name_H-M   'P 1'
_cell_length_a   14.81940200
_cell_length_b   3.06169300
_cell_length_c   9.15564392
_cell_angle_alpha   87.40499503
_cell_angle_beta   90.00000000
_cell_angle_gamma   90.00000000
_symmetry_Int_Tables_number   1
_chemical_formula_structural   Li2Fe(BO3)2
_chemical_formula_sum   'Li8 Fe4 B8 O24'
_cell_volume   414.98808335
_cell_formula_units_Z   4
loop_
 _symmetry_equiv_pos_site_id
 _symmetry_equiv_pos_as_xyz
  1  'x, y, z'
loop_
 _atom_site_type_symbol
 _atom_site_label
 _atom_site_symmetry_multiplicity
 _atom_site_fract_x
 _atom_site_fract_y
 _atom_site_fract_z
 _atom_site_occupancy
  Li  Li0  1  0.04385700  0.71380400  0.88194800  1
  Li  Li1  1  0.25471900  0.70714100  0.89222500  1
  Li  Li2  1  0.45614300  0.71380400  0.38194800  1
  Li  Li3  1  0.24528100  0.70714100  0.39222500  1
  Li  Li4  1  0.75471900  0.29285900  0.60777500  1
  Li  Li5  1  0.54385700  0.28619600  0.61805200  1
  Li  Li6  1  0.74528100  0.29285900  0.10777500  1
  Li  Li7  1  0.95614300  0.28619600  0.11805200  1
  Fe  Fe0  1  0.63153000  0.81110100  0.87273000  1
  Fe  Fe1  1  0.86847000  0.81110100  0.37273000  1
  Fe  Fe2  1  0.13153000  0.18889900  0.62727000  1
  Fe  Fe3  1  0.36847000  0.18889900  0.12727000  1
  B  B0  1  0.42406500  0.84380900  0.83536600  1
  B  B1  1  0.84265700  0.86577000  0.89592600  1
  B  B2  1  0.07593500  0.84380900  0.33536600  1
  B  B3  1  0.65734300  0.86577000  0.39592600  1
  B  B4  1  0.34265700  0.13423000  0.60407400  1
  B  B5  1  0.92406500  0.15619100  0.66463400  1
  B  B6  1  0.15734300  0.13423000  0.10407400  1
  B  B7  1  0.57593500  0.15619100  0.16463400  1
  O  O0  1  0.84805900  0.01660200  0.74904000  1
  O  O1  1  0.50700400  0.83043300  0.77818500  1
  O  O2  1  0.65194100  0.01660200  0.24904000  1
  O  O3  1  0.99299600  0.83043300  0.27818500  1
  O  O4  1  0.75901100  0.80746000  0.96112500  1
  O  O5  1  0.39973200  0.72470700  0.97892100  1
  O  O6  1  0.74098900  0.80746000  0.46112500  1
  O  O7  1  0.91560300  0.77365500  0.97924600  1
  O  O8  1  0.15945900  0.67550500  0.74748600  1
  O  O9  1  0.10026800  0.72470700  0.47892100  1
  O  O10  1  0.58439700  0.77365500  0.47924600  1
  O  O11  1  0.34054100  0.67550500  0.24748600  1
  O  O12  1  0.65945900  0.32449500  0.75251400  1
  O  O13  1  0.41560300  0.22634500  0.52075400  1
  O  O14  1  0.89973200  0.27529300  0.52107900  1
  O  O15  1  0.84054100  0.32449500  0.25251400  1
  O  O16  1  0.08439700  0.22634500  0.02075400  1
  O  O17  1  0.25901100  0.19254000  0.53887500  1
  O  O18  1  0.60026800  0.27529300  0.02107900  1
  O  O19  1  0.24098900  0.19254000  0.03887500  1
  O  O20  1  0.00700400  0.16956700  0.72181500  1
  O  O21  1  0.34805900  0.98339800  0.75096000  1
  O  O22  1  0.49299600  0.16956700  0.22181500  1
  O  O23  1  0.15194100  0.98339800  0.25096000  1
loop_
_geom_bond_atom_site_label_1
_geom_bond_atom_site_label_2
_geom_bond_distance
_geom_bond_site_symmetry_2
Li0 O16 2.007903 1_556
Li0 O20 2.051751 1_565
Li0 O7 2.110543 1_455
Li0 O8 2.115960 1_555
Li0 O16 2.149215 1_566
Li0 O20 2.333561 1_555
Li1 O8 1.941646 1_555
Li1 O19 2.033464 1_556
Li1 O21 2.050004 1_555
Li1 O19 2.057543 1_566
Li1 O5 2.292387 1_555
Li2 O13 2.007903 1_555
Li2 O22 2.051751 1_565
Li2 O10 2.110543 1_555
Li2 O11 2.115960 1_555
Li2 O13 2.149215 1_565
Li2 O22 2.333561 1_555
Li3 O11 1.941646 1_555
Li3 O17 2.033464 1_555
Li3 O23 2.050004 1_555
Li3 O17 2.057543 1_565
Li3 O9 2.292387 1_555
Li4 O12 1.941646 1_555
Li4 O6 2.033464 1_555
Li4 O0 2.050004 1_555
Li4 O6 2.057543 1_545
Li4 O14 2.292387 1_555
Li5 O10 2.007903 1_555
Li5 O1 2.051751 1_545
Li5 O13 2.110543 1_555
Li5 O12 2.115960 1_555
Li5 O10 2.149215 1_545
Li5 O1 2.333561 1_555
Li6 O15 1.941646 1_555
Li6 O4 2.033464 1_554
Li6 O2 2.050004 1_555
Li6 O4 2.057543 1_544
Li6 O18 2.292387 1_555
Li7 O7 2.007903 1_554
Li7 O3 2.051751 1_545
Li7 O16 2.110543 1_655
Li7 O15 2.115960 1_555
Li7 O7 2.149215 1_544
Li7 O3 2.333561 1_555
Fe0 O12 1.922710 1_565
Fe0 O12 1.936712 1_555
Fe0 O1 2.038055 1_555
Fe0 O4 2.055077 1_555
Fe0 O18 2.062539 1_566
Fe0 O18 2.132799 1_556
Fe1 O15 1.922710 1_565
Fe1 O15 1.936712 1_555
Fe1 O3 2.038055 1_555
Fe1 O6 2.055077 1_555
Fe1 O14 2.062539 1_565
Fe1 O14 2.132799 1_555
Fe2 O8 1.922710 1_545
Fe2 O8 1.936712 1_555
Fe2 O20 2.038055 1_555
Fe2 O17 2.055077 1_555
Fe2 O9 2.062539 1_545
Fe2 O9 2.132799 1_555
Fe3 O11 1.922710 1_545
Fe3 O11 1.936712 1_555
Fe3 O22 2.038055 1_555
Fe3 O19 2.055077 1_555
Fe3 O5 2.062539 1_544
Fe3 O5 2.132799 1_554
B0 O1 1.337312 1_555
B0 O5 1.395382 1_555
B0 O21 1.420791 1_555
B1 O7 1.345582 1_555
B1 O4 1.383881 1_555
B1 O0 1.404285 1_565
B2 O3 1.337312 1_455
B2 O9 1.395382 1_555
B2 O23 1.420791 1_555
B3 O10 1.345582 1_555
B3 O6 1.383881 1_555
B3 O2 1.404285 1_565
B4 O13 1.345582 1_555
B4 O17 1.383881 1_555
B4 O21 1.404285 1_545
B5 O20 1.337312 1_655
B5 O14 1.395382 1_555
B5 O0 1.420791 1_555
B6 O16 1.345582 1_555
B6 O19 1.383881 1_555
B6 O23 1.404285 1_545
B7 O22 1.337312 1_555
B7 O18 1.395382 1_555
B7 O2 1.420791 1_555
