# generated using pymatgen
data_AgC2S2N3
_symmetry_space_group_name_H-M   'P 1'
_cell_length_a   23.97292400
_cell_length_b   4.03940900
_cell_length_c   7.17293218
_cell_angle_alpha   83.48671040
_cell_angle_beta   90.00000000
_cell_angle_gamma   90.00000000
_symmetry_Int_Tables_number   1
_chemical_formula_structural   AgC2S2N3
_chemical_formula_sum   'Ag4 C8 S8 N12'
_cell_volume   690.11799794
_cell_formula_units_Z   4
loop_
 _symmetry_equiv_pos_site_id
 _symmetry_equiv_pos_as_xyz
  1  'x, y, z'
loop_
 _atom_site_type_symbol
 _atom_site_label
 _atom_site_symmetry_multiplicity
 _atom_site_fract_x
 _atom_site_fract_y
 _atom_site_fract_z
 _atom_site_occupancy
  Ag  Ag0  1  0.30217800  0.09072400  0.53753100  1
  Ag  Ag1  1  0.19782200  0.59072400  0.03753100  1
  Ag  Ag2  1  0.69782200  0.90927600  0.46246900  1
  Ag  Ag3  1  0.80217800  0.40927600  0.96246900  1
  C  C0  1  0.43365700  0.00803000  0.68729400  1
  C  C1  1  0.06634300  0.50803000  0.18729400  1
  C  C2  1  0.56634300  0.99197000  0.31270600  1
  C  C3  1  0.93365700  0.49197000  0.81270600  1
  C  C4  1  0.30961600  0.99730600  0.99473400  1
  C  C5  1  0.19038400  0.49730600  0.49473400  1
  C  C6  1  0.69038400  0.00269400  0.00526600  1
  C  C7  1  0.80961600  0.50269400  0.50526600  1
  S  S0  1  0.39789000  0.86855200  0.51666600  1
  S  S1  1  0.10211000  0.36855200  0.01666600  1
  S  S2  1  0.60211000  0.13144800  0.48333400  1
  S  S3  1  0.89789000  0.63144800  0.98333400  1
  S  S4  1  0.25137800  0.09357900  0.87277900  1
  S  S5  1  0.24862200  0.59357900  0.37277900  1
  S  S6  1  0.74862200  0.90642100  0.12722100  1
  S  S7  1  0.75137800  0.40642100  0.62722100  1
  N  N0  1  0.46209200  0.11107500  0.80289600  1
  N  N1  1  0.03790800  0.61107500  0.30289600  1
  N  N2  1  0.53790800  0.88892500  0.19710400  1
  N  N3  1  0.96209200  0.38892500  0.69710400  1
  N  N4  1  0.34964400  0.91761100  0.08327400  1
  N  N5  1  0.15035600  0.41761100  0.58327400  1
  N  N6  1  0.65035600  0.08238900  0.91672600  1
  N  N7  1  0.84964400  0.58238900  0.41672600  1
  N  N8  1  0.43929000  0.43238200  0.16578600  1
  N  N9  1  0.06071000  0.93238200  0.66578600  1
  N  N10  1  0.56071000  0.56761800  0.83421400  1
  N  N11  1  0.93929000  0.06761800  0.33421400  1
loop_
_geom_bond_atom_site_label_1
_geom_bond_atom_site_label_2
_geom_bond_distance
_geom_bond_site_symmetry_2
Ag0 S0 2.474468 1_545
Ag0 S5 2.574155 1_555
Ag0 S4 2.696694 1_555
Ag0 S5 2.759724 1_545
Ag1 S1 2.474468 1_555
Ag1 S4 2.574155 1_564
Ag1 S5 2.696694 1_555
Ag1 S4 2.759724 1_554
Ag2 S2 2.474468 1_565
Ag2 S7 2.574155 1_555
Ag2 S6 2.696694 1_555
Ag2 S7 2.759724 1_565
Ag3 S3 2.474468 1_555
Ag3 S6 2.574155 1_546
Ag3 S7 2.696694 1_555
Ag3 S6 2.759724 1_556
C0 N0 1.184827 1_555
C0 S0 1.645299 1_545
C1 N1 1.184827 1_555
C1 S1 1.645299 1_555
C2 N2 1.184827 1_555
C2 S2 1.645299 1_565
C3 N3 1.184827 1_555
C3 S3 1.645299 1_555
C4 N4 1.175330 1_556
C4 S4 1.669874 1_565
C5 N5 1.175330 1_555
C5 S5 1.669874 1_555
C6 N6 1.175330 1_554
C6 S6 1.669874 1_545
C7 N7 1.175330 1_555
C7 S7 1.669874 1_555
