# generated using pymatgen
data_Li3Cu3(PO4)2
_symmetry_space_group_name_H-M   'P 1'
_cell_length_a   5.09889900
_cell_length_b   5.48885244
_cell_length_c   6.16004112
_cell_angle_alpha   90.36498315
_cell_angle_beta   90.09210053
_cell_angle_gamma   90.16015921
_symmetry_Int_Tables_number   1
_chemical_formula_structural   Li3Cu3(PO4)2
_chemical_formula_sum   'Li3 Cu3 P2 O8'
_cell_volume   172.39731376
_cell_formula_units_Z   1
loop_
 _symmetry_equiv_pos_site_id
 _symmetry_equiv_pos_as_xyz
  1  'x, y, z'
loop_
 _atom_site_type_symbol
 _atom_site_label
 _atom_site_symmetry_multiplicity
 _atom_site_fract_x
 _atom_site_fract_y
 _atom_site_fract_z
 _atom_site_occupancy
  Li  Li0  1  0.49520600  0.15419300  0.00054200  1
  Li  Li1  1  0.99305400  0.32781900  0.75363300  1
  Li  Li2  1  0.99255400  0.84686500  0.49979400  1
  Cu  Cu0  1  0.50460900  0.65788800  0.74172000  1
  Cu  Cu1  1  0.49812600  0.65785400  0.25915800  1
  Cu  Cu2  1  0.99320900  0.33723100  0.24258900  1
  P  P0  1  0.99900000  0.83353000  0.99559700  1
  P  P1  1  0.49599300  0.17163700  0.50505300  1
  O  O0  1  0.88262100  0.09607400  0.98684200  1
  O  O1  1  0.30429500  0.84784700  0.99890200  1
  O  O2  1  0.90963700  0.68358400  0.79193000  1
  O  O3  1  0.38409500  0.30394100  0.71027500  1
  O  O4  1  0.80167800  0.16630300  0.51271500  1
  O  O5  1  0.37810600  0.90951400  0.50142300  1
  O  O6  1  0.40551600  0.30022100  0.29102500  1
  O  O7  1  0.90489000  0.70549900  0.20880300  1
loop_
_geom_bond_atom_site_label_1
_geom_bond_atom_site_label_2
_geom_bond_distance
_geom_bond_site_symmetry_2
Li0 O1 1.940537 1_544
Li0 O0 2.003689 1_554
Li0 O6 2.009950 1_555
Li0 O3 2.052263 1_554
Li1 O4 1.978470 1_555
Li1 O0 2.005173 1_555
Li1 O2 2.012178 1_555
Li1 O3 2.016629 1_655
Li2 O5 1.994790 1_655
Li2 O7 1.998189 1_555
Li2 O4 2.008932 1_565
Li2 O2 2.059440 1_555
Cu0 O3 2.043916 1_555
Cu0 O2 2.091974 1_555
Cu0 O5 2.131353 1_555
Cu0 O1 2.151817 1_555
Cu1 O6 2.028519 1_555
Cu1 O7 2.113375 1_555
Cu1 O5 2.119224 1_555
Cu1 O1 2.157890 1_554
Cu2 O7 2.083792 1_555
Cu2 O0 2.125653 1_554
Cu2 O6 2.133342 1_655
Cu2 O4 2.150071 1_555
O0 P0 1.561209 1_545
O1 P0 1.558525 1_455
O2 P0 1.562666 1_555
O3 P1 1.563322 1_555
O4 P1 1.559658 1_555
O5 P1 1.557736 1_565
O6 P1 1.568728 1_555
O7 P0 1.568732 1_554
