# generated using pymatgen
data_Y9U5O28
_symmetry_space_group_name_H-M   'P 1'
_cell_length_a   6.49828602
_cell_length_b   7.49464764
_cell_length_c   11.80137453
_cell_angle_alpha   72.79444595
_cell_angle_beta   80.30645543
_cell_angle_gamma   73.82713544
_symmetry_Int_Tables_number   1
_chemical_formula_structural   Y9U5O28
_chemical_formula_sum   'Y9 U5 O28'
_cell_volume   524.98562682
_cell_formula_units_Z   1
loop_
 _symmetry_equiv_pos_site_id
 _symmetry_equiv_pos_as_xyz
  1  'x, y, z'
loop_
 _atom_site_type_symbol
 _atom_site_label
 _atom_site_symmetry_multiplicity
 _atom_site_fract_x
 _atom_site_fract_y
 _atom_site_fract_z
 _atom_site_occupancy
  Y  Y0  1  0.78230144  0.21459337  0.93126737  1
  Y  Y1  1  0.21769856  0.78540663  0.06873263  1
  Y  Y2  1  0.64391550  0.85666938  0.21380442  1
  Y  Y3  1  0.06857392  0.43073512  0.35628239  1
  Y  Y4  1  0.64130110  0.35701627  0.21657693  1
  Y  Y5  1  0.50000000  -0.00000000  0.50000000  1
  Y  Y6  1  0.93142608  0.56926488  0.64371761  1
  Y  Y7  1  0.35869890  0.64298373  0.78342307  1
  Y  Y8  1  0.35608450  0.14333062  0.78619558  1
  U  U0  1  0.77990856  0.71508040  0.93055169  1
  U  U1  1  0.22009144  0.28491960  0.06944831  1
  U  U2  1  0.07048906  0.92793858  0.35466845  1
  U  U3  1  0.50000000  0.50000000  0.50000000  1
  U  U4  1  0.92951094  0.07206142  0.64533155  1
  O  O0  1  0.14520632  0.11801263  0.97233678  1
  O  O1  1  0.86884970  0.39952850  0.03834919  1
  O  O2  1  0.85479368  0.88198737  0.02766322  1
  O  O3  1  0.13115030  0.60047150  0.96165081  1
  O  O4  1  0.27602021  0.45506068  0.17057600  1
  O  O5  1  0.57872806  0.67479190  0.10078406  1
  O  O6  1  0.00758729  0.23835856  0.24521412  1
  O  O7  1  0.55968287  0.17929241  0.10730214  1
  O  O8  1  0.28060033  0.97538324  0.17925289  1
  O  O9  1  0.00971960  0.76127217  0.25029061  1
  O  O10  1  0.73297533  0.02845071  0.32845004  1
  O  O11  1  0.13219850  0.62894442  0.45917443  1
  O  O12  1  0.42262031  0.32870781  0.40265729  1
  O  O13  1  0.70685858  0.53866765  0.33260968  1
  O  O14  1  0.13155996  0.10054865  0.45857939  1
  O  O15  1  0.86780150  0.37105558  0.54082557  1
  O  O16  1  0.40645393  0.82667306  0.38849009  1
  O  O17  1  0.86844004  0.89945135  0.54142061  1
  O  O18  1  0.26702467  0.97154929  0.67154996  1
  O  O19  1  0.57737969  0.67129219  0.59734271  1
  O  O20  1  0.99028040  0.23872783  0.74970939  1
  O  O21  1  0.59354607  0.17332694  0.61150991  1
  O  O22  1  0.29314142  0.46133235  0.66739032  1
  O  O23  1  0.99241271  0.76164144  0.75478588  1
  O  O24  1  0.44031713  0.82070759  0.89269786  1
  O  O25  1  0.71939967  0.02461676  0.82074711  1
  O  O26  1  0.42127194  0.32520810  0.89921594  1
  O  O27  1  0.72397979  0.54493932  0.82942400  1
loop_
_geom_bond_atom_site_label_1
_geom_bond_atom_site_label_2
_geom_bond_distance
_geom_bond_site_symmetry_2
O0 U1 2.118971 1_556
O0 Y0 2.355139 1_455
O0 Y1 2.361903 1_546
O0 Y8 2.371491 1_555
O1 U1 2.255128 1_655
O1 U0 2.291659 1_554
O1 Y4 2.351729 1_555
O1 Y0 2.354601 1_554
O2 U0 2.118971 1_554
O2 Y1 2.355139 1_655
O2 Y0 2.361903 1_564
O2 Y2 2.371491 1_555
O3 U0 2.255128 1_455
O3 U1 2.291659 1_556
O3 Y7 2.351729 1_555
O3 Y1 2.354601 1_556
O4 U1 2.118242 1_555
O4 Y3 2.357788 1_555
O4 Y1 2.363930 1_555
O4 Y4 2.386506 1_555
O5 U0 2.193819 1_554
O5 Y1 2.316087 1_555
O5 Y2 2.324660 1_555
O5 Y4 2.329607 1_555
O6 U2 2.262376 1_545
O6 U1 2.281871 1_555
O6 Y4 2.341898 1_455
O6 Y3 2.359067 1_555
O7 U1 2.201281 1_555
O7 Y0 2.313992 1_554
O7 Y4 2.314863 1_555
O7 Y2 2.328581 1_545
O8 U1 2.258445 1_565
O8 U2 2.271407 1_555
O8 Y2 2.339067 1_555
O8 Y1 2.344753 1_555
O9 U2 2.140657 1_555
O9 Y1 2.319891 1_555
O9 Y2 2.358596 1_455
O9 Y3 2.376517 1_555
O10 U2 2.154958 1_645
O10 Y5 2.308347 1_555
O10 Y2 2.352070 1_545
O10 Y4 2.384551 1_555
O11 U2 2.175839 1_555
O11 Y3 2.330336 1_555
O11 Y6 2.331793 1_455
O11 U3 2.388338 1_555
O12 U3 2.155741 1_555
O12 Y3 2.318155 1_555
O12 Y5 2.339184 1_555
O12 Y4 2.393378 1_555
O13 U3 2.185720 1_555
O13 Y3 2.299047 1_655
O13 Y2 2.342319 1_555
O13 Y4 2.352120 1_555
O14 U2 2.173297 1_545
O14 U4 2.351618 1_455
O14 Y3 2.362949 1_555
O14 Y5 2.389616 1_555
O15 U4 2.175839 1_555
O15 Y6 2.330336 1_555
O15 Y3 2.331793 1_655
O15 U3 2.388338 1_555
O16 U2 2.166303 1_555
O16 Y5 2.347210 1_565
O16 Y2 2.351465 1_555
O16 U3 2.372701 1_555
O17 U4 2.173297 1_565
O17 U2 2.351618 1_655
O17 Y6 2.362949 1_555
O17 Y5 2.389616 1_565
O18 U4 2.154958 1_465
O18 Y5 2.308347 1_565
O18 Y8 2.352070 1_565
O18 Y7 2.384551 1_555
O19 U3 2.155741 1_555
O19 Y6 2.318155 1_555
O19 Y5 2.339184 1_565
O19 Y7 2.393378 1_555
O20 U4 2.140657 1_555
O20 Y0 2.319891 1_555
O20 Y8 2.358596 1_655
O20 Y6 2.376517 1_555
O21 U4 2.166303 1_555
O21 Y5 2.347210 1_555
O21 Y8 2.351465 1_555
O21 U3 2.372701 1_555
O22 U3 2.185720 1_555
O22 Y6 2.299047 1_455
O22 Y8 2.342319 1_555
O22 Y7 2.352120 1_555
O23 U4 2.262376 1_565
O23 U0 2.281871 1_555
O23 Y7 2.341898 1_655
O23 Y6 2.359067 1_555
O24 U0 2.201281 1_555
O24 Y1 2.313992 1_556
O24 Y7 2.314863 1_555
O24 Y8 2.328581 1_565
O25 U0 2.258445 1_545
O25 U4 2.271407 1_555
O25 Y8 2.339067 1_555
O25 Y0 2.344753 1_555
O26 U1 2.193819 1_556
O26 Y0 2.316087 1_555
O26 Y8 2.324660 1_555
O26 Y7 2.329607 1_555
O27 U0 2.118242 1_555
O27 Y6 2.357788 1_555
O27 Y0 2.363930 1_555
O27 Y7 2.386506 1_555
