# generated using pymatgen
data_Li4Fe2Ni5O12
_symmetry_space_group_name_H-M   'P 1'
_cell_length_a   8.88174700
_cell_length_b   5.03498400
_cell_length_c   9.77686885
_cell_angle_alpha   79.35162121
_cell_angle_beta   90.00000000
_cell_angle_gamma   90.00000000
_symmetry_Int_Tables_number   1
_chemical_formula_structural   Li4Fe2Ni5O12
_chemical_formula_sum   'Li8 Fe4 Ni10 O24'
_cell_volume   429.68723187
_cell_formula_units_Z   2
loop_
 _symmetry_equiv_pos_site_id
 _symmetry_equiv_pos_as_xyz
  1  'x, y, z'
loop_
 _atom_site_type_symbol
 _atom_site_label
 _atom_site_symmetry_multiplicity
 _atom_site_fract_x
 _atom_site_fract_y
 _atom_site_fract_z
 _atom_site_occupancy
  Li  Li0  1  0.91114100  0.00280900  0.74773400  1
  Li  Li1  1  0.92105600  0.50294200  0.25375100  1
  Li  Li2  1  0.58424900  0.75862600  0.50131700  1
  Li  Li3  1  0.58302300  0.50558600  0.25060700  1
  Li  Li4  1  0.41114100  0.99719100  0.25226600  1
  Li  Li5  1  0.42105600  0.49705800  0.74624900  1
  Li  Li6  1  0.08424900  0.24137400  0.49868300  1
  Li  Li7  1  0.08302300  0.49441400  0.74939300  1
  Fe  Fe0  1  0.74627600  0.24955800  0.50187400  1
  Fe  Fe1  1  0.74617800  0.74938500  0.99677700  1
  Fe  Fe2  1  0.24617800  0.25061500  0.00322300  1
  Fe  Fe3  1  0.24627600  0.75044200  0.49812600  1
  Ni  Ni0  1  0.91855600  0.25168500  0.00263100  1
  Ni  Ni1  1  0.92087400  0.75241600  0.49762100  1
  Ni  Ni2  1  0.75293500  0.00273700  0.25144500  1
  Ni  Ni3  1  0.74224000  0.49962700  0.74654400  1
  Ni  Ni4  1  0.58174100  0.24502000  0.00048500  1
  Ni  Ni5  1  0.42087400  0.24758400  0.50237900  1
  Ni  Ni6  1  0.41855600  0.74831500  0.99736900  1
  Ni  Ni7  1  0.25293500  0.99726300  0.74855500  1
  Ni  Ni8  1  0.24224000  0.50037300  0.25345600  1
  Ni  Ni9  1  0.08174100  0.75498000  0.99951500  1
  O  O0  1  0.89676700  0.13778400  0.38622100  1
  O  O1  1  0.90617100  0.88505200  0.11244500  1
  O  O2  1  0.76807600  0.86347300  0.61335400  1
  O  O3  1  0.75984400  0.13340500  0.88661100  1
  O  O4  1  0.90867200  0.61256600  0.88134700  1
  O  O5  1  0.89535900  0.37076900  0.61943300  1
  O  O6  1  0.59523600  0.14501300  0.38356300  1
  O  O7  1  0.76444600  0.63675600  0.37898800  1
  O  O8  1  0.75055200  0.37757400  0.12194700  1
  O  O9  1  0.59040200  0.87628400  0.12192900  1
  O  O10  1  0.58994900  0.36791200  0.60705700  1
  O  O11  1  0.58724700  0.61282200  0.88166000  1
  O  O12  1  0.40617100  0.11494800  0.88755500  1
  O  O13  1  0.39676700  0.86221600  0.61377900  1
  O  O14  1  0.26807600  0.13652700  0.38664600  1
  O  O15  1  0.39535900  0.62923100  0.38056700  1
  O  O16  1  0.25984400  0.86659500  0.11338900  1
  O  O17  1  0.40867200  0.38743400  0.11865300  1
  O  O18  1  0.26444600  0.36324400  0.62101200  1
  O  O19  1  0.09523600  0.85498700  0.61643700  1
  O  O20  1  0.09040200  0.12371600  0.87807100  1
  O  O21  1  0.25055200  0.62242600  0.87805300  1
  O  O22  1  0.08994900  0.63208800  0.39294300  1
  O  O23  1  0.08724700  0.38717800  0.11834000  1
loop_
_geom_bond_atom_site_label_1
_geom_bond_atom_site_label_2
_geom_bond_distance
_geom_bond_site_symmetry_2
Li0 O5 2.041242 1_555
Li0 O2 2.042918 1_545
Li0 O3 2.100391 1_555
Li0 O4 2.149204 1_545
Li0 O20 2.194546 1_655
Li0 O19 2.286561 1_645
Li1 O7 2.047640 1_555
Li1 O0 2.055298 1_555
Li1 O23 2.134569 1_655
Li1 O1 2.155292 1_555
Li1 O8 2.157070 1_555
Li1 O22 2.202723 1_655
Li2 O10 2.046888 1_555
Li2 O6 2.071714 1_565
Li2 O2 2.087569 1_555
Li2 O13 2.113225 1_555
Li2 O7 2.153979 1_555
Li2 O15 2.217431 1_555
Li3 O6 2.031087 1_555
Li3 O9 2.050102 1_555
Li3 O8 2.123992 1_555
Li3 O17 2.167915 1_555
Li3 O7 2.216851 1_555
Li3 O15 2.252220 1_555
Li4 O15 2.041242 1_555
Li4 O14 2.042918 1_565
Li4 O16 2.100391 1_555
Li4 O17 2.149204 1_565
Li4 O9 2.194546 1_555
Li4 O6 2.286561 1_565
Li5 O18 2.047640 1_555
Li5 O13 2.055298 1_555
Li5 O11 2.134569 1_555
Li5 O12 2.155292 1_555
Li5 O21 2.157070 1_555
Li5 O10 2.202723 1_555
Li6 O22 2.046888 1_555
Li6 O19 2.071714 1_545
Li6 O14 2.087569 1_555
Li6 O0 2.113225 1_455
Li6 O18 2.153979 1_555
Li6 O5 2.217431 1_455
Li7 O19 2.031087 1_555
Li7 O20 2.050102 1_555
Li7 O21 2.123992 1_555
Li7 O4 2.167915 1_455
Li7 O18 2.216851 1_555
Li7 O5 2.252220 1_455
Fe0 O10 1.888629 1_555
Fe0 O0 1.901839 1_555
Fe0 O6 1.907799 1_555
Fe0 O5 1.925098 1_555
Fe0 O2 2.054578 1_545
Fe0 O7 2.098710 1_555
Fe1 O11 2.004511 1_555
Fe1 O1 2.012520 1_556
Fe1 O9 2.026966 1_556
Fe1 O4 2.029383 1_555
Fe1 O3 2.035620 1_565
Fe1 O8 2.038893 1_556
Fe2 O23 2.004511 1_555
Fe2 O12 2.012520 1_554
Fe2 O20 2.026966 1_554
Fe2 O17 2.029383 1_555
Fe2 O16 2.035620 1_545
Fe2 O21 2.038893 1_554
Fe3 O22 1.888629 1_555
Fe3 O13 1.901839 1_555
Fe3 O19 1.907799 1_555
Fe3 O15 1.925098 1_555
Fe3 O14 2.054578 1_565
Fe3 O18 2.098710 1_555
Ni0 O1 1.959601 1_545
Ni0 O3 1.969280 1_554
Ni0 O4 1.979676 1_554
Ni0 O8 2.064558 1_555
Ni0 O23 2.067658 1_655
Ni0 O20 2.125501 1_654
Ni1 O2 1.915348 1_555
Ni1 O7 1.965788 1_555
Ni1 O22 1.974497 1_655
Ni1 O0 2.053274 1_565
Ni1 O19 2.058187 1_655
Ni1 O5 2.077606 1_555
Ni2 O7 2.027753 1_545
Ni2 O0 2.040029 1_555
Ni2 O8 2.069360 1_555
Ni2 O1 2.085154 1_545
Ni2 O9 2.095388 1_545
Ni2 O6 2.117881 1_555
Ni3 O5 2.028013 1_555
Ni3 O2 2.054945 1_555
Ni3 O11 2.059900 1_555
Ni3 O3 2.089645 1_555
Ni3 O10 2.112678 1_555
Ni3 O4 2.126598 1_555
Ni4 O11 1.996597 1_554
Ni4 O9 2.011946 1_545
Ni4 O3 2.070954 1_554
Ni4 O12 2.084899 1_554
Ni4 O8 2.096793 1_555
Ni4 O17 2.125538 1_555
Ni5 O14 1.915348 1_555
Ni5 O18 1.965788 1_555
Ni5 O10 1.974497 1_555
Ni5 O13 2.053274 1_545
Ni5 O6 2.058187 1_555
Ni5 O15 2.077606 1_555
Ni6 O12 1.959601 1_565
Ni6 O16 1.969280 1_556
Ni6 O17 1.979676 1_556
Ni6 O21 2.064558 1_555
Ni6 O11 2.067658 1_555
Ni6 O9 2.125501 1_556
Ni7 O18 2.027753 1_565
Ni7 O13 2.040029 1_555
Ni7 O21 2.069360 1_555
Ni7 O12 2.085154 1_565
Ni7 O20 2.095388 1_565
Ni7 O19 2.117881 1_555
Ni8 O15 2.028013 1_555
Ni8 O14 2.054945 1_555
Ni8 O23 2.059900 1_555
Ni8 O16 2.089645 1_555
Ni8 O22 2.112678 1_555
Ni8 O17 2.126598 1_555
Ni9 O23 1.996597 1_556
Ni9 O20 2.011946 1_565
Ni9 O16 2.070954 1_556
Ni9 O1 2.084899 1_456
Ni9 O21 2.096793 1_555
Ni9 O4 2.125538 1_455
