# generated using pymatgen
data_DyNbO4
_symmetry_space_group_name_H-M   'P 1'
_cell_length_a   7.10034181
_cell_length_b   7.10034181
_cell_length_c   7.24261904
_cell_angle_alpha   74.15515620
_cell_angle_beta   74.15515620
_cell_angle_gamma   32.92461623
_symmetry_Int_Tables_number   1
_chemical_formula_structural   DyNbO4
_chemical_formula_sum   'Dy2 Nb2 O8'
_cell_volume   190.25065698
_cell_formula_units_Z   2
loop_
 _symmetry_equiv_pos_site_id
 _symmetry_equiv_pos_as_xyz
  1  'x, y, z'
loop_
 _atom_site_type_symbol
 _atom_site_label
 _atom_site_symmetry_multiplicity
 _atom_site_fract_x
 _atom_site_fract_y
 _atom_site_fract_z
 _atom_site_occupancy
  Dy  Dy0  1  0.80620900  0.80620900  0.28871600  1
  Dy  Dy1  1  0.19379100  0.19379100  0.71128400  1
  Nb  Nb0  1  0.90280300  0.90280300  0.70814700  1
  Nb  Nb1  1  0.09719700  0.09719700  0.29185300  1
  O  O0  1  0.95279600  0.95279600  0.36876500  1
  O  O1  1  0.86832700  0.86832700  0.97312700  1
  O  O2  1  0.24259600  0.24259600  0.35976300  1
  O  O3  1  0.37605300  0.37605300  0.69459900  1
  O  O4  1  0.62394700  0.62394700  0.30540100  1
  O  O5  1  0.75740400  0.75740400  0.64023700  1
  O  O6  1  0.13167300  0.13167300  0.02687300  1
  O  O7  1  0.04720400  0.04720400  0.63123500  1
loop_
_geom_bond_atom_site_label_1
_geom_bond_atom_site_label_2
_geom_bond_distance
_geom_bond_site_symmetry_2
Dy0 O2 2.193196 1_565
Dy0 O2 2.193196 1_655
Dy0 O1 2.199777 1_554
Dy0 O0 2.231675 1_555
Dy0 O5 2.441312 1_555
Dy0 O4 2.450479 1_555
Dy1 O5 2.193196 1_545
Dy1 O5 2.193196 1_455
Dy1 O6 2.199777 1_556
Dy1 O7 2.231675 1_555
Dy1 O2 2.441312 1_555
Dy1 O3 2.450479 1_555
Nb0 O1 1.841331 1_555
Nb0 O7 1.885150 1_665
Nb0 O3 2.052157 1_655
Nb0 O3 2.052157 1_565
Nb0 O5 2.171948 1_555
Nb0 O0 2.356367 1_555
Nb1 O6 1.841331 1_555
Nb1 O0 1.885150 1_445
Nb1 O4 2.052157 1_545
Nb1 O4 2.052157 1_455
Nb1 O2 2.171948 1_555
Nb1 O7 2.356367 1_555
