# generated using pymatgen
data_LiCuPO4
_symmetry_space_group_name_H-M   'P 1'
_cell_length_a   10.81087218
_cell_length_b   10.81087218
_cell_length_c   11.16393600
_cell_angle_alpha   90.00000000
_cell_angle_beta   90.00000000
_cell_angle_gamma   120.00000112
_symmetry_Int_Tables_number   1
_chemical_formula_structural   LiCuPO4
_chemical_formula_sum   'Li12 Cu12 P12 O48'
_cell_volume   1129.97654872
_cell_formula_units_Z   12
loop_
 _symmetry_equiv_pos_site_id
 _symmetry_equiv_pos_as_xyz
  1  'x, y, z'
loop_
 _atom_site_type_symbol
 _atom_site_label
 _atom_site_symmetry_multiplicity
 _atom_site_fract_x
 _atom_site_fract_y
 _atom_site_fract_z
 _atom_site_occupancy
  Li  Li0  1  0.00000000  0.50000000  0.01426900  1
  Li  Li1  1  0.00000000  0.50000000  0.65239800  1
  Li  Li2  1  0.00000000  0.50000000  0.33333300  1
  Li  Li3  1  0.00000000  0.00000000  0.16666700  1
  Li  Li4  1  0.00000000  0.00000000  0.50000000  1
  Li  Li5  1  0.00000000  0.00000000  0.83333300  1
  Li  Li6  1  0.50000000  0.50000000  0.34760200  1
  Li  Li7  1  0.50000000  0.50000000  0.66666700  1
  Li  Li8  1  0.50000000  0.50000000  0.98573100  1
  Li  Li9  1  0.50000000  0.00000000  0.31906500  1
  Li  Li10  1  0.50000000  0.00000000  0.00000000  1
  Li  Li11  1  0.50000000  0.00000000  0.68093500  1
  Cu  Cu0  1  0.00000000  0.76517200  0.33333300  1
  Cu  Cu1  1  0.24668600  0.75331400  0.66666700  1
  Cu  Cu2  1  0.00000000  0.23482800  0.33333300  1
  Cu  Cu3  1  0.24668600  0.49337200  0.00000000  1
  Cu  Cu4  1  0.23482800  0.23482800  0.66666700  1
  Cu  Cu5  1  0.50662800  0.75331400  0.33333300  1
  Cu  Cu6  1  0.23482800  0.00000000  0.00000000  1
  Cu  Cu7  1  0.49337200  0.24668600  0.33333300  1
  Cu  Cu8  1  0.76517200  0.76517200  0.66666700  1
  Cu  Cu9  1  0.75331400  0.50662800  0.00000000  1
  Cu  Cu10  1  0.75331400  0.24668600  0.66666700  1
  Cu  Cu11  1  0.76517200  0.00000000  0.00000000  1
  P  P0  1  0.00000000  0.74081000  0.83333300  1
  P  P1  1  0.00000000  0.25919000  0.83333300  1
  P  P2  1  0.25013900  0.74986100  0.16666700  1
  P  P3  1  0.25013900  0.50027800  0.50000000  1
  P  P4  1  0.49972200  0.74986100  0.83333300  1
  P  P5  1  0.25919000  0.25919000  0.16666700  1
  P  P6  1  0.25919000  0.00000000  0.50000000  1
  P  P7  1  0.74081000  0.74081000  0.16666700  1
  P  P8  1  0.50027800  0.25013900  0.83333300  1
  P  P9  1  0.74986100  0.49972200  0.50000000  1
  P  P10  1  0.74986100  0.25013900  0.16666700  1
  P  P11  1  0.74081000  0.00000000  0.50000000  1
  O  O0  1  0.10549000  0.88178100  0.46318200  1
  O  O1  1  0.11821900  0.89451000  0.87015100  1
  O  O2  1  0.04964500  0.68188500  0.72950100  1
  O  O3  1  0.12160800  0.70524900  0.25086900  1
  O  O4  1  0.29475100  0.87839200  0.08246400  1
  O  O5  1  0.31811500  0.95035500  0.60383200  1
  O  O6  1  0.19757300  0.58677200  0.57461900  1
  O  O7  1  0.04964500  0.36776100  0.93716600  1
  O  O8  1  0.19757300  0.61080100  0.09204800  1
  O  O9  1  0.12160800  0.41635900  0.41579700  1
  O  O10  1  0.10549000  0.22370900  0.20348500  1
  O  O11  1  0.41322800  0.80242700  0.75871500  1
  O  O12  1  0.38919900  0.80242700  0.24128500  1
  O  O13  1  0.11821900  0.22370900  0.79651500  1
  O  O14  1  0.29475100  0.41635900  0.58420300  1
  O  O15  1  0.41322800  0.61080100  0.90795200  1
  O  O16  1  0.31811500  0.36776100  0.06283400  1
  O  O17  1  0.38919900  0.58677200  0.42538100  1
  O  O18  1  0.22370900  0.11821900  0.53681800  1
  O  O19  1  0.22370900  0.10549000  0.12984900  1
  O  O20  1  0.63223900  0.95035500  0.39616800  1
  O  O21  1  0.58364100  0.87839200  0.91753600  1
  O  O22  1  0.58364100  0.70524900  0.74913100  1
  O  O23  1  0.36776100  0.31811500  0.27049900  1
  O  O24  1  0.63223900  0.68188500  0.27049900  1
  O  O25  1  0.41635900  0.29475100  0.74913100  1
  O  O26  1  0.41635900  0.12160800  0.91753600  1
  O  O27  1  0.36776100  0.04964500  0.39616800  1
  O  O28  1  0.77629100  0.89451000  0.12984900  1
  O  O29  1  0.77629100  0.88178100  0.53681800  1
  O  O30  1  0.61080100  0.41322800  0.42538100  1
  O  O31  1  0.68188500  0.63223900  0.06283400  1
  O  O32  1  0.58677200  0.38919900  0.90795200  1
  O  O33  1  0.70524900  0.58364100  0.58420300  1
  O  O34  1  0.88178100  0.77629100  0.79651500  1
  O  O35  1  0.61080100  0.19757300  0.24128500  1
  O  O36  1  0.58677200  0.19757300  0.75871500  1
  O  O37  1  0.89451000  0.77629100  0.20348500  1
  O  O38  1  0.87839200  0.58364100  0.41579700  1
  O  O39  1  0.80242700  0.38919900  0.09204800  1
  O  O40  1  0.95035500  0.63223900  0.93716600  1
  O  O41  1  0.80242700  0.41322800  0.57461900  1
  O  O42  1  0.68188500  0.04964500  0.60383200  1
  O  O43  1  0.70524900  0.12160800  0.08246400  1
  O  O44  1  0.87839200  0.29475100  0.25086900  1
  O  O45  1  0.95035500  0.31811500  0.72950100  1
  O  O46  1  0.88178100  0.10549000  0.87015100  1
  O  O47  1  0.89451000  0.11821900  0.46318200  1
loop_
_geom_bond_atom_site_label_1
_geom_bond_atom_site_label_2
_geom_bond_distance
_geom_bond_site_symmetry_2
Li0 O7 1.959612 1_554
Li0 O40 1.959612 1_454
Li0 O39 2.047564 1_455
Li0 O8 2.047564 1_555
Li1 O2 1.959621 1_555
Li1 O45 1.959621 1_455
Li1 O41 2.047564 1_455
Li1 O6 2.047564 1_555
Li2 O3 2.140647 1_555
Li2 O44 2.140647 1_455
Li2 O9 2.140648 1_555
Li2 O38 2.140648 1_455
Li3 O19 2.135533 1_555
Li3 O10 2.135533 1_555
Li3 O28 2.135533 1_445
Li3 O37 2.135533 1_445
Li4 O18 2.135533 1_555
Li4 O29 2.135533 1_445
Li4 O0 2.135533 1_545
Li4 O47 2.135533 1_455
Li5 O13 2.135533 1_555
Li5 O34 2.135533 1_445
Li5 O46 2.135533 1_455
Li5 O1 2.135533 1_545
Li6 O24 1.959619 1_555
Li6 O23 1.959619 1_555
Li6 O17 2.047564 1_555
Li6 O30 2.047564 1_555
Li7 O14 2.140648 1_555
Li7 O25 2.140648 1_555
Li7 O33 2.140648 1_555
Li7 O22 2.140648 1_555
Li8 O31 1.959619 1_556
Li8 O16 1.959619 1_556
Li8 O32 2.047564 1_555
Li8 O15 2.047564 1_555
Li9 O27 1.959612 1_555
Li9 O20 1.959612 1_545
Li9 O12 2.047569 1_545
Li9 O35 2.047569 1_555
Li10 O4 2.140647 1_545
Li10 O43 2.140647 1_555
Li10 O21 2.140648 1_544
Li10 O26 2.140648 1_554
Li11 O42 1.959621 1_555
Li11 O5 1.959621 1_545
Li11 O36 2.047569 1_555
Li11 O11 2.047569 1_545
Cu0 O37 1.885079 1_455
Cu0 O0 1.885087 1_555
Cu0 O38 1.961455 1_455
Cu0 O3 1.961455 1_555
Cu1 O11 1.903580 1_555
Cu1 O6 1.903580 1_555
Cu1 O2 1.995273 1_555
Cu1 O5 1.995277 1_555
Cu2 O10 1.885079 1_555
Cu2 O47 1.885087 1_455
Cu2 O9 1.961455 1_555
Cu2 O44 1.961455 1_455
Cu3 O15 1.903580 1_554
Cu3 O8 1.903580 1_555
Cu3 O16 1.995263 1_555
Cu3 O7 1.995271 1_554
Cu4 O13 1.885079 1_555
Cu4 O18 1.885087 1_555
Cu4 O25 1.961455 1_555
Cu4 O14 1.961455 1_555
Cu5 O17 1.903580 1_555
Cu5 O12 1.903580 1_555
Cu5 O24 1.995263 1_555
Cu5 O20 1.995275 1_555
Cu6 O1 1.885087 1_544
Cu6 O19 1.885087 1_555
Cu6 O26 1.961455 1_554
Cu6 O4 1.961455 1_545
Cu7 O30 1.903580 1_555
Cu7 O35 1.903580 1_555
Cu7 O23 1.995263 1_555
Cu7 O27 1.995275 1_555
Cu8 O34 1.885079 1_555
Cu8 O29 1.885087 1_555
Cu8 O33 1.961455 1_555
Cu8 O22 1.961455 1_555
Cu9 O32 1.903580 1_554
Cu9 O39 1.903580 1_555
Cu9 O31 1.995263 1_555
Cu9 O40 1.995271 1_554
Cu10 O41 1.903580 1_555
Cu10 O36 1.903580 1_555
Cu10 O45 1.995273 1_555
Cu10 O42 1.995277 1_555
Cu11 O46 1.885087 1_554
Cu11 O28 1.885087 1_545
Cu11 O21 1.961455 1_544
Cu11 O43 1.961455 1_555
O0 P6 1.561964 1_565
O1 P0 1.561964 1_555
O2 P0 1.542544 1_555
O3 P2 1.541717 1_555
O4 P2 1.541724 1_555
O5 P6 1.542544 1_565
O6 P3 1.556490 1_555
O7 P1 1.542559 1_555
O8 P2 1.556490 1_555
O9 P3 1.541724 1_555
O10 P5 1.561964 1_555
O11 P4 1.556484 1_555
O12 P2 1.556484 1_555
O13 P1 1.561964 1_555
O14 P3 1.541724 1_555
O15 P4 1.556490 1_555
O16 P5 1.542559 1_555
O17 P3 1.556490 1_555
O18 P6 1.561964 1_555
O19 P5 1.561964 1_555
O20 P11 1.542551 1_565
O21 P4 1.541724 1_555
O22 P4 1.541717 1_555
O23 P5 1.542550 1_555
O24 P7 1.542550 1_555
O25 P8 1.541717 1_555
O26 P8 1.541724 1_555
O27 P6 1.542551 1_555
O28 P7 1.561964 1_555
O29 P11 1.561964 1_565
O30 P9 1.556490 1_555
O31 P7 1.542559 1_555
O32 P8 1.556490 1_555
O33 P9 1.541724 1_555
O34 P0 1.561964 1_655
O35 P10 1.556484 1_555
O36 P8 1.556484 1_555
O37 P7 1.561964 1_555
O38 P9 1.541724 1_555
O39 P10 1.556490 1_555
O40 P0 1.542559 1_655
O41 P9 1.556490 1_555
O42 P11 1.542544 1_555
O43 P10 1.541724 1_555
O44 P10 1.541717 1_555
O45 P1 1.542544 1_655
O46 P1 1.561964 1_655
O47 P11 1.561964 1_555
