# generated using pymatgen
data_Co2(CO3)3
_symmetry_space_group_name_H-M   'P 1'
_cell_length_a   7.44659000
_cell_length_b   7.62132067
_cell_length_c   7.64467242
_cell_angle_alpha   108.96576973
_cell_angle_beta   108.43863291
_cell_angle_gamma   109.38456611
_symmetry_Int_Tables_number   1
_chemical_formula_structural   Co2(CO3)3
_chemical_formula_sum   'Co4 C6 O18'
_cell_volume   340.49765744
_cell_formula_units_Z   2
loop_
 _symmetry_equiv_pos_site_id
 _symmetry_equiv_pos_as_xyz
  1  'x, y, z'
loop_
 _atom_site_type_symbol
 _atom_site_label
 _atom_site_symmetry_multiplicity
 _atom_site_fract_x
 _atom_site_fract_y
 _atom_site_fract_z
 _atom_site_occupancy
  Co  Co0  1  0.54617500  0.16542800  0.04434800  1
  Co  Co1  1  0.05175300  0.54995000  0.16882900  1
  Co  Co2  1  0.44537600  0.44215400  0.47663300  1
  Co  Co3  1  0.16073100  0.03937600  0.54426300  1
  C  C0  1  0.24875200  0.93964000  0.16695800  1
  C  C1  1  0.94481500  0.16857700  0.25245200  1
  C  C2  1  0.79817000  0.58090600  0.40254800  1
  C  C3  1  0.40142500  0.80811700  0.58993800  1
  C  C4  1  0.60118800  0.40680400  0.80667600  1
  C  C5  1  0.16931200  0.24973500  0.93595400  1
  O  O0  1  0.35668300  0.94547100  0.06539700  1
  O  O1  1  0.77446000  0.08913100  0.07762100  1
  O  O2  1  0.07157100  0.76481500  0.08668900  1
  O  O3  1  0.34988500  0.30471300  0.08775000  1
  O  O4  1  0.96670800  0.70078300  0.39552300  1
  O  O5  1  0.74513700  0.38258200  0.33962800  1
  O  O6  1  0.68890000  0.65498900  0.46891400  1
  O  O7  1  0.34312200  0.75474200  0.39329100  1
  O  O8  1  0.94635400  0.06923200  0.36007200  1
  O  O9  1  0.11266500  0.34774000  0.31515200  1
  O  O10  1  0.30873000  0.09853100  0.34363000  1
  O  O11  1  0.39584600  0.97648500  0.70394500  1
  O  O12  1  0.46138100  0.70355600  0.67138100  1
  O  O13  1  0.69819700  0.47903900  0.71517000  1
  O  O14  1  0.39354500  0.34692800  0.72582500  1
  O  O15  1  0.70024000  0.39593200  0.97316200  1
  O  O16  1  0.07793200  0.07549900  0.76030600  1
  O  O17  1  0.06964400  0.35942600  0.95049900  1
loop_
_geom_bond_atom_site_label_1
_geom_bond_atom_site_label_2
_geom_bond_distance
_geom_bond_site_symmetry_2
Co0 O0 1.891017 1_545
Co0 O1 1.942015 1_555
Co0 O5 1.964176 1_555
Co0 O15 2.092122 1_554
Co0 O3 2.116916 1_555
Co0 O11 2.179446 1_544
Co1 O17 1.898869 1_554
Co1 O2 1.914223 1_555
Co1 O7 1.934982 1_555
Co1 O4 2.146720 1_455
Co1 O15 2.193012 1_454
Co1 O9 2.257342 1_555
Co2 O12 2.000470 1_555
Co2 O13 2.022989 1_555
Co2 O6 2.024951 1_555
Co2 O9 2.117657 1_555
Co2 O10 2.184816 1_555
Co2 O14 2.341473 1_555
Co2 O3 2.566137 1_555
Co3 O8 1.900091 1_455
Co3 O16 1.909176 1_555
Co3 O14 2.022829 1_555
Co3 O11 2.090603 1_545
Co3 O4 2.148969 1_445
Co3 O10 2.226935 1_555
C0 O0 1.282258 1_555
C0 O2 1.296949 1_555
C0 O10 1.298581 1_565
C1 O1 1.285988 1_555
C1 O8 1.286450 1_555
C1 O9 1.311168 1_655
C2 O6 1.272080 1_555
C2 O5 1.297286 1_555
C2 O4 1.313803 1_555
C3 O12 1.266825 1_555
C3 O7 1.298572 1_555
C3 O11 1.318802 1_555
C4 O13 1.272895 1_555
C4 O15 1.298476 1_555
C4 O14 1.313326 1_555
C5 O3 1.285746 1_556
C5 O17 1.290634 1_555
C5 O16 1.300993 1_555
