# generated using pymatgen
data_Li3NiPCO7
_symmetry_space_group_name_H-M   'P 1'
_cell_length_a   6.34518709
_cell_length_b   8.55445078
_cell_length_c   9.77182078
_cell_angle_alpha   85.28355648
_cell_angle_beta   90.00480577
_cell_angle_gamma   90.01935224
_symmetry_Int_Tables_number   1
_chemical_formula_structural   Li3NiPCO7
_chemical_formula_sum   'Li12 Ni4 P4 C4 O28'
_cell_volume   528.61434131
_cell_formula_units_Z   4
loop_
 _symmetry_equiv_pos_site_id
 _symmetry_equiv_pos_as_xyz
  1  'x, y, z'
loop_
 _atom_site_type_symbol
 _atom_site_label
 _atom_site_symmetry_multiplicity
 _atom_site_fract_x
 _atom_site_fract_y
 _atom_site_fract_z
 _atom_site_occupancy
  Li  Li0  1  0.26214000  0.10948500  0.38736400  1
  Li  Li1  1  0.26188000  0.10941000  0.88726100  1
  Li  Li2  1  0.76187300  0.89057800  0.11274000  1
  Li  Li3  1  0.76207200  0.89044400  0.61262400  1
  Li  Li4  1  0.48481800  0.28106000  0.12227900  1
  Li  Li5  1  0.48463700  0.28113400  0.62246200  1
  Li  Li6  1  0.98508200  0.71903300  0.37758500  1
  Li  Li7  1  0.98516300  0.71902600  0.87768600  1
  Li  Li8  1  0.74318900  0.35866600  0.38953800  1
  Li  Li9  1  0.74329100  0.35829300  0.88958900  1
  Li  Li10  1  0.24338100  0.64176000  0.11038200  1
  Li  Li11  1  0.24330700  0.64137300  0.61045000  1
  Ni  Ni0  1  0.99827600  0.26442000  0.62771800  1
  Ni  Ni1  1  0.49874200  0.73527100  0.37222800  1
  Ni  Ni2  1  0.99882000  0.26511500  0.12808500  1
  Ni  Ni3  1  0.49901600  0.73480700  0.87186000  1
  P  P0  1  0.24802600  0.40934600  0.36207800  1
  P  P1  1  0.24776400  0.40919100  0.86211600  1
  P  P2  1  0.74789900  0.59081300  0.13783400  1
  P  P3  1  0.74809100  0.59059600  0.63794200  1
  C  C0  1  0.76077100  0.04272200  0.35442200  1
  C  C1  1  0.76052300  0.04258900  0.85444100  1
  C  C2  1  0.26053300  0.95740800  0.14564500  1
  C  C3  1  0.26073700  0.95724800  0.64556600  1
  O  O0  1  0.76581700  0.06634000  0.48173200  1
  O  O1  1  0.76495300  0.06621700  0.98175100  1
  O  O2  1  0.26512100  0.93384600  0.01836100  1
  O  O3  1  0.26580600  0.93365100  0.51828000  1
  O  O4  1  0.23763600  0.10157400  0.18452200  1
  O  O5  1  0.23721000  0.10142600  0.68428300  1
  O  O6  1  0.73777600  0.89852800  0.31564300  1
  O  O7  1  0.73782700  0.89843500  0.81554700  1
  O  O8  1  0.77450800  0.15734700  0.25935400  1
  O  O9  1  0.77447200  0.15732500  0.75937000  1
  O  O10  1  0.27456400  0.84270200  0.24069600  1
  O  O11  1  0.27476400  0.84267800  0.74064900  1
  O  O12  1  0.05566800  0.31697600  0.42586300  1
  O  O13  1  0.05565500  0.31681800  0.92623200  1
  O  O14  1  0.55586400  0.68338800  0.07382400  1
  O  O15  1  0.55582400  0.68308000  0.57415800  1
  O  O16  1  0.44139100  0.31099200  0.41122400  1
  O  O17  1  0.44140100  0.31088700  0.91094200  1
  O  O18  1  0.94149700  0.68910300  0.08887500  1
  O  O19  1  0.94152500  0.68902900  0.58875500  1
  O  O20  1  0.75118600  0.41947500  0.09710200  1
  O  O21  1  0.75107300  0.41936300  0.59696500  1
  O  O22  1  0.25135300  0.58056900  0.40306200  1
  O  O23  1  0.25132500  0.58051200  0.90291200  1
  O  O24  1  0.22673000  0.41406300  0.20172100  1
  O  O25  1  0.22599200  0.41363500  0.70186400  1
  O  O26  1  0.72616100  0.58630200  0.29811900  1
  O  O27  1  0.72687100  0.58595100  0.79829400  1
loop_
_geom_bond_atom_site_label_1
_geom_bond_atom_site_label_2
_geom_bond_distance
_geom_bond_site_symmetry_2
Li0 O3 1.892935 1_545
Li0 O4 1.994898 1_555
Li0 O16 2.093835 1_555
Li0 O12 2.262718 1_555
Li1 O2 1.892296 1_546
Li1 O5 1.996376 1_555
Li1 O17 2.094240 1_555
Li1 O13 2.262313 1_555
Li2 O1 1.892087 1_564
Li2 O6 1.995360 1_555
Li2 O18 2.095557 1_555
Li2 O14 2.259176 1_555
Li3 O0 1.893180 1_565
Li3 O7 1.995668 1_555
Li3 O19 2.094546 1_555
Li3 O15 2.260222 1_555
Li4 O20 2.066391 1_555
Li4 O17 2.078252 1_554
Li4 O24 2.173857 1_555
Li4 O4 2.243277 1_555
Li4 O8 2.461851 1_555
Li5 O21 2.066077 1_555
Li5 O16 2.077167 1_555
Li5 O25 2.173996 1_555
Li5 O5 2.244740 1_555
Li5 O9 2.462026 1_555
Li6 O22 2.066957 1_655
Li6 O19 2.076850 1_555
Li6 O26 2.175975 1_555
Li6 O6 2.243903 1_555
Li6 O10 2.459430 1_655
Li7 O23 2.066454 1_655
Li7 O18 2.077096 1_556
Li7 O27 2.174300 1_555
Li7 O7 2.243961 1_555
Li7 O11 2.460674 1_655
Li8 O16 1.965616 1_555
Li8 O12 2.040582 1_655
Li8 O26 2.077438 1_555
Li8 O21 2.133922 1_555
Li8 O8 2.232544 1_555
Li9 O17 1.965438 1_555
Li9 O13 2.040077 1_655
Li9 O27 2.076982 1_555
Li9 O20 2.136076 1_556
Li9 O9 2.230227 1_555
Li10 O18 1.965662 1_455
Li10 O14 2.040711 1_555
Li10 O24 2.077450 1_555
Li10 O23 2.135875 1_554
Li10 O10 2.230513 1_555
Li11 O19 1.965728 1_455
Li11 O15 2.040612 1_555
Li11 O25 2.078242 1_555
Li11 O22 2.133888 1_555
Li11 O11 2.232495 1_555
Ni0 O12 2.019812 1_655
Ni0 O21 2.059927 1_555
Ni0 O9 2.077636 1_555
Ni0 O25 2.095876 1_655
Ni0 O5 2.103025 1_655
Ni1 O15 2.019714 1_555
Ni1 O22 2.058956 1_555
Ni1 O10 2.079975 1_555
Ni1 O26 2.093771 1_555
Ni1 O6 2.104354 1_555
Ni2 O13 2.018133 1_654
Ni2 O20 2.059078 1_555
Ni2 O8 2.079915 1_555
Ni2 O24 2.093303 1_655
Ni2 O4 2.105231 1_655
Ni3 O14 2.018847 1_556
Ni3 O23 2.058426 1_555
Ni3 O11 2.079951 1_555
Ni3 O27 2.092970 1_555
Ni3 O7 2.104822 1_555
C0 O0 1.277039 1_555
C0 O8 1.297018 1_555
C0 O6 1.327835 1_545
C1 O1 1.276968 1_555
C1 O9 1.297790 1_555
C1 O7 1.327710 1_545
C2 O2 1.276613 1_555
C2 O10 1.297554 1_555
C2 O4 1.327984 1_565
C3 O3 1.276777 1_555
C3 O11 1.296946 1_555
C3 O5 1.327960 1_565
O12 P0 1.555986 1_555
O13 P1 1.555924 1_555
O14 P2 1.556340 1_555
O15 P3 1.556330 1_555
O16 P0 1.542095 1_555
O17 P1 1.542416 1_555
O18 P2 1.542113 1_555
O19 P3 1.542513 1_555
O20 P2 1.550194 1_555
O21 P3 1.550104 1_555
O22 P0 1.550059 1_555
O23 P1 1.550273 1_555
O24 P0 1.569995 1_555
O25 P1 1.569369 1_555
O26 P2 1.569659 1_555
O27 P3 1.569960 1_555
