# generated using pymatgen
data_V2Re2O11
_symmetry_space_group_name_H-M   'P 1'
_cell_length_a   6.36407200
_cell_length_b   7.80535242
_cell_length_c   9.99922959
_cell_angle_alpha   89.30535715
_cell_angle_beta   91.90293401
_cell_angle_gamma   112.25119837
_symmetry_Int_Tables_number   1
_chemical_formula_structural   V2Re2O11
_chemical_formula_sum   'V4 Re4 O22'
_cell_volume   459.45843724
_cell_formula_units_Z   2
loop_
 _symmetry_equiv_pos_site_id
 _symmetry_equiv_pos_as_xyz
  1  'x, y, z'
loop_
 _atom_site_type_symbol
 _atom_site_label
 _atom_site_symmetry_multiplicity
 _atom_site_fract_x
 _atom_site_fract_y
 _atom_site_fract_z
 _atom_site_occupancy
  V  V0  1  0.22635100  0.37596000  0.22541700  1
  V  V1  1  0.63313300  0.26356200  0.55887500  1
  V  V2  1  0.42891000  0.79145200  0.07862100  1
  V  V3  1  0.81323100  0.63370400  0.71107400  1
  Re  Re0  1  0.01399900  0.01932600  0.51288400  1
  Re  Re1  1  0.73096700  0.47243200  0.14457200  1
  Re  Re2  1  0.01252500  0.98061200  0.02310700  1
  Re  Re3  1  0.25211300  0.50832100  0.64683900  1
  O  O0  1  0.47448700  0.89232000  0.22195000  1
  O  O1  1  0.13293700  0.25583700  0.63903900  1
  O  O2  1  0.30679700  0.11598200  0.46688600  1
  O  O3  1  0.08838700  0.10441300  0.17821300  1
  O  O4  1  0.21022300  0.44135400  0.37796000  1
  O  O5  1  0.81488200  0.12243100  0.46256600  1
  O  O6  1  0.87152100  0.72303600  0.13265100  1
  O  O7  1  0.28959300  0.56814800  0.81375800  1
  O  O8  1  0.79024100  0.57264600  0.86891100  1
  O  O9  1  0.55020500  0.29070300  0.04537600  1
  O  O10  1  0.20430500  0.86635100  0.98090200  1
  O  O11  1  0.58608000  0.14379000  0.69383400  1
  O  O12  1  0.93091500  0.48028500  0.61339100  1
  O  O13  1  0.98813300  0.42729400  0.13211100  1
  O  O14  1  0.71138400  0.91172400  0.98190100  1
  O  O15  1  0.44129500  0.55369800  0.12090500  1
  O  O16  1  0.54275700  0.48022300  0.61264500  1
  O  O17  1  0.34553700  0.71996800  0.56179200  1
  O  O18  1  0.65187000  0.40818200  0.30968600  1
  O  O19  1  0.95295700  0.89398000  0.67202900  1
  O  O20  1  0.10594800  0.15802400  0.91064200  1
  O  O21  1  0.91851000  0.82717100  0.41016200  1
loop_
_geom_bond_atom_site_label_1
_geom_bond_atom_site_label_2
_geom_bond_distance
_geom_bond_site_symmetry_2
O0 V2 1.607730 1_555
O1 Re3 1.825624 1_555
O1 Re0 2.122950 1_555
O2 Re0 1.799104 1_555
O2 V1 2.138506 1_555
O3 Re2 1.790406 1_545
O3 V0 2.018271 1_555
O4 V0 1.632972 1_555
O5 Re0 1.796319 1_655
O5 V1 2.131526 1_555
O6 Re1 1.821210 1_555
O6 Re2 2.166244 1_655
O7 Re3 1.723028 1_555
O8 V3 1.638198 1_555
O9 Re1 1.744068 1_555
O10 Re2 1.825051 1_556
O10 V2 1.966208 1_556
O11 V1 1.602806 1_555
O12 V3 1.924870 1_555
O12 Re3 1.988920 1_655
O12 V1 2.067850 1_555
O13 Re1 1.808172 1_555
O13 V0 1.920004 1_655
O14 Re2 1.817773 1_656
O14 V2 1.965617 1_556
O15 V0 1.873634 1_555
O15 V2 1.928299 1_555
O15 Re1 2.170206 1_555
O16 V3 1.929022 1_555
O16 Re3 1.984278 1_555
O16 V1 2.063728 1_555
O17 Re3 1.749681 1_555
O18 Re1 1.753472 1_555
O18 V1 2.710458 1_555
O19 Re0 1.831913 1_665
O19 V3 1.925104 1_555
O20 Re2 1.708457 1_546
O21 Re0 1.726110 1_665
