# generated using pymatgen
data_USiS
_symmetry_space_group_name_H-M   'P 1'
_cell_length_a   4.06309500
_cell_length_b   4.06309500
_cell_length_c   7.16141600
_cell_angle_alpha   90.00000000
_cell_angle_beta   90.00000000
_cell_angle_gamma   90.00000000
_symmetry_Int_Tables_number   1
_chemical_formula_structural   USiS
_chemical_formula_sum   'U2 Si2 S2'
_cell_volume   118.22596179
_cell_formula_units_Z   2
loop_
 _symmetry_equiv_pos_site_id
 _symmetry_equiv_pos_as_xyz
  1  'x, y, z'
loop_
 _atom_site_type_symbol
 _atom_site_label
 _atom_site_symmetry_multiplicity
 _atom_site_fract_x
 _atom_site_fract_y
 _atom_site_fract_z
 _atom_site_occupancy
  U  U0  1  0.00000000  0.50000000  0.75094200  1
  U  U1  1  0.50000000  0.00000000  0.24905800  1
  Si  Si0  1  0.00000000  0.50000000  0.36484100  1
  Si  Si1  1  0.50000000  0.00000000  0.63515900  1
  S  S0  1  0.50000000  0.50000000  0.00000000  1
  S  S1  1  0.00000000  0.00000000  0.00000000  1
loop_
_geom_bond_atom_site_label_1
_geom_bond_atom_site_label_2
_geom_bond_distance
_geom_bond_site_symmetry_2
Si0 U0 2.765030 1_555
Si0 U1 2.990300 1_465
Si0 U1 2.990300 1_455
Si0 U1 2.990300 1_555
Si0 U1 2.990300 1_565
Si1 U1 2.765030 1_555
Si1 U0 2.990300 1_545
Si1 U0 2.990300 1_655
Si1 U0 2.990300 1_555
Si1 U0 2.990300 1_645
S0 U0 2.703413 1_554
S0 U1 2.703413 1_555
S0 U1 2.703413 1_565
S0 U0 2.703413 1_654
S1 U0 2.703413 1_554
S1 U1 2.703413 1_455
S1 U1 2.703413 1_555
S1 U0 2.703413 1_544
