# generated using pymatgen
data_NaSnPHO4F
_symmetry_space_group_name_H-M   'P 1'
_cell_length_a   4.86981600
_cell_length_b   5.32485100
_cell_length_c   19.13870100
_cell_angle_alpha   90.00000000
_cell_angle_beta   90.00000000
_cell_angle_gamma   90.00000000
_symmetry_Int_Tables_number   1
_chemical_formula_structural   NaSnPHO4F
_chemical_formula_sum   'Na4 Sn4 P4 H4 O16 F4'
_cell_volume   496.28650917
_cell_formula_units_Z   4
loop_
 _symmetry_equiv_pos_site_id
 _symmetry_equiv_pos_as_xyz
  1  'x, y, z'
loop_
 _atom_site_type_symbol
 _atom_site_label
 _atom_site_symmetry_multiplicity
 _atom_site_fract_x
 _atom_site_fract_y
 _atom_site_fract_z
 _atom_site_occupancy
  Na  Na0  1  0.23036500  0.75000000  0.00917900  1
  Na  Na1  1  0.26963500  0.25000000  0.50917900  1
  Na  Na2  1  0.73036500  0.75000000  0.49082100  1
  Na  Na3  1  0.76963500  0.25000000  0.99082100  1
  Sn  Sn0  1  0.22723500  0.25000000  0.13816400  1
  Sn  Sn1  1  0.27276500  0.75000000  0.63816400  1
  Sn  Sn2  1  0.72723500  0.25000000  0.36183600  1
  Sn  Sn3  1  0.77276500  0.75000000  0.86183600  1
  P  P0  1  0.20738100  0.25000000  0.87242600  1
  P  P1  1  0.29261900  0.75000000  0.37242600  1
  P  P2  1  0.70738100  0.25000000  0.62757400  1
  P  P3  1  0.79261900  0.75000000  0.12757400  1
  H  H0  1  0.07754600  0.75000000  0.22142900  1
  H  H1  1  0.42245400  0.25000000  0.72142900  1
  H  H2  1  0.57754600  0.75000000  0.27857100  1
  H  H3  1  0.92245400  0.25000000  0.77857100  1
  O  O0  1  0.01772200  0.25000000  0.62541700  1
  O  O1  1  0.07811600  0.01260900  0.90615700  1
  O  O2  1  0.07811600  0.48739100  0.90615700  1
  O  O3  1  0.12065300  0.25000000  0.78992000  1
  O  O4  1  0.37934700  0.75000000  0.28992000  1
  O  O5  1  0.42188400  0.51260900  0.40615700  1
  O  O6  1  0.42188400  0.98739100  0.40615700  1
  O  O7  1  0.48227800  0.75000000  0.12541700  1
  O  O8  1  0.51772200  0.25000000  0.87458300  1
  O  O9  1  0.57811600  0.01260900  0.59384300  1
  O  O10  1  0.57811600  0.48739100  0.59384300  1
  O  O11  1  0.62065300  0.25000000  0.71008000  1
  O  O12  1  0.87934700  0.75000000  0.21008000  1
  O  O13  1  0.92188400  0.51260900  0.09384300  1
  O  O14  1  0.92188400  0.98739100  0.09384300  1
  O  O15  1  0.98227800  0.75000000  0.37458300  1
  F  F0  1  0.15054300  0.75000000  0.53498500  1
  F  F1  1  0.34945700  0.25000000  0.03498500  1
  F  F2  1  0.65054300  0.75000000  0.96501500  1
  F  F3  1  0.84945700  0.25000000  0.46501500  1
loop_
_geom_bond_atom_site_label_1
_geom_bond_atom_site_label_2
_geom_bond_distance
_geom_bond_site_symmetry_2
Na0 O1 2.528386 1_564
Na0 O2 2.528386 1_554
Na0 O7 2.540474 1_555
Na0 O14 2.545620 1_455
Na0 O13 2.545620 1_455
Na1 O5 2.528386 1_555
Na1 O6 2.528386 1_545
Na1 O0 2.540474 1_555
Na1 O10 2.545620 1_555
Na1 O9 2.545620 1_555
Na2 O9 2.528386 1_565
Na2 O10 2.528386 1_555
Na2 O15 2.540474 1_555
Na2 O6 2.545620 1_555
Na2 O5 2.545620 1_555
Na3 O13 2.528386 1_556
Na3 O14 2.528386 1_546
Na3 O8 2.540474 1_555
Na3 O2 2.545620 1_655
Na3 O1 2.545620 1_655
H0 O12 0.989331 1_455
H1 O11 0.989331 1_555
H2 O4 0.989331 1_555
H3 O3 0.989331 1_655
O0 P2 1.511867 1_455
O1 P0 1.552708 1_555
O1 Sn3 2.210451 1_445
O2 P0 1.552708 1_555
O2 Sn3 2.210451 1_455
O3 P0 1.634565 1_555
O4 P1 1.634565 1_555
O5 P1 1.552708 1_555
O5 Sn2 2.210451 1_555
O6 P1 1.552708 1_555
O6 Sn2 2.210451 1_565
O7 P3 1.511867 1_555
O8 P0 1.511867 1_555
O9 P2 1.552708 1_555
O9 Sn1 2.210451 1_545
O10 P2 1.552708 1_555
O10 Sn1 2.210451 1_555
O11 P2 1.634565 1_555
O12 P3 1.634565 1_555
O13 P3 1.552708 1_555
O13 Sn0 2.210451 1_655
O14 P3 1.552708 1_555
O14 Sn0 2.210451 1_665
O15 P1 1.511867 1_655
F0 Sn1 2.062462 1_555
F0 Na2 2.213894 1_455
F0 Na1 2.769258 1_565
F0 Na1 2.769258 1_555
F1 Sn0 2.062462 1_555
F1 Na3 2.213894 1_554
F1 Na0 2.769258 1_555
F1 Na0 2.769258 1_545
F2 Sn3 2.062462 1_555
F2 Na0 2.213894 1_556
F2 Na3 2.769258 1_555
F2 Na3 2.769258 1_565
F3 Sn2 2.062462 1_555
F3 Na1 2.213894 1_655
F3 Na2 2.769258 1_545
F3 Na2 2.769258 1_555
