# generated using pymatgen
data_LiFeSiO4
_symmetry_space_group_name_H-M   'P 1'
_cell_length_a   10.18116166
_cell_length_b   10.18116166
_cell_length_c   17.41158276
_cell_angle_alpha   71.37538100
_cell_angle_beta   71.37538100
_cell_angle_gamma   58.64688321
_symmetry_Int_Tables_number   1
_chemical_formula_structural   LiFeSiO4
_chemical_formula_sum   'Li16 Fe16 Si16 O64'
_cell_volume   1434.14711692
_cell_formula_units_Z   16
loop_
 _symmetry_equiv_pos_site_id
 _symmetry_equiv_pos_as_xyz
  1  'x, y, z'
loop_
 _atom_site_type_symbol
 _atom_site_label
 _atom_site_symmetry_multiplicity
 _atom_site_fract_x
 _atom_site_fract_y
 _atom_site_fract_z
 _atom_site_occupancy
  Li  Li0  1  0.56520500  0.62752900  0.81523000  1
  Li  Li1  1  0.63607700  0.06794100  0.31228400  1
  Li  Li2  1  0.73284700  0.81688100  0.56424300  1
  Li  Li3  1  0.23299400  0.38343000  0.56302900  1
  Li  Li4  1  0.31554000  0.73385100  0.06447400  1
  Li  Li5  1  0.88411400  0.23339400  0.06234200  1
  Li  Li6  1  0.50543100  0.11854300  0.81331900  1
  Li  Li7  1  0.06794100  0.63607700  0.81228400  1
  Li  Li8  1  0.12873800  0.00491000  0.31251700  1
  Li  Li9  1  0.62752900  0.56520500  0.31523000  1
  Li  Li10  1  0.73385100  0.31554000  0.56447400  1
  Li  Li11  1  0.23339400  0.88411400  0.56234200  1
  Li  Li12  1  0.81688100  0.73284700  0.06424300  1
  Li  Li13  1  0.38343000  0.23299400  0.06302900  1
  Li  Li14  1  0.00491000  0.12873800  0.81251700  1
  Li  Li15  1  0.11854300  0.50543100  0.31331900  1
  Fe  Fe0  1  0.87302200  0.49752900  0.68722100  1
  Fe  Fe1  1  0.43601100  0.37372100  0.18747000  1
  Fe  Fe2  1  0.99787700  0.86975600  0.18715300  1
  Fe  Fe3  1  0.61591700  0.76501700  0.93879400  1
  Fe  Fe4  1  0.18779600  0.26128700  0.93691100  1
  Fe  Fe5  1  0.76143000  0.11772500  0.43798100  1
  Fe  Fe6  1  0.26316400  0.68671800  0.43766400  1
  Fe  Fe7  1  0.37372100  0.43601100  0.68747000  1
  Fe  Fe8  1  0.86975600  0.99787700  0.68715300  1
  Fe  Fe9  1  0.93546800  0.36925900  0.18826900  1
  Fe  Fe10  1  0.49752900  0.87302200  0.18722100  1
  Fe  Fe11  1  0.11772500  0.76143000  0.93798100  1
  Fe  Fe12  1  0.68671800  0.26316400  0.93766400  1
  Fe  Fe13  1  0.76501700  0.61591700  0.43879400  1
  Fe  Fe14  1  0.26128700  0.18779600  0.43691100  1
  Fe  Fe15  1  0.36925900  0.93546800  0.68826900  1
  Si  Si0  1  0.31016400  0.93930500  0.87776300  1
  Si  Si1  1  0.87429600  0.44218400  0.87608900  1
  Si  Si2  1  0.94230900  0.81200000  0.37748300  1
  Si  Si3  1  0.43729100  0.37360400  0.37559200  1
  Si  Si4  1  0.55962400  0.12545300  0.62585100  1
  Si  Si5  1  0.06276200  0.68645700  0.62471100  1
  Si  Si6  1  0.62645700  0.56204900  0.12629600  1
  Si  Si7  1  0.18568900  0.06032400  0.12422700  1
  Si  Si8  1  0.81200000  0.94230900  0.87748300  1
  Si  Si9  1  0.37360400  0.43729100  0.87559200  1
  Si  Si10  1  0.93930500  0.31016400  0.37776300  1
  Si  Si11  1  0.44218400  0.87429600  0.37608900  1
  Si  Si12  1  0.56204900  0.62645700  0.62629600  1
  Si  Si13  1  0.06032400  0.18568900  0.62422700  1
  Si  Si14  1  0.12545300  0.55962400  0.12585100  1
  Si  Si15  1  0.68645700  0.06276200  0.12471100  1
  O  O0  1  0.02821400  0.36638000  0.61074700  1
  O  O1  1  0.82516300  0.32136900  0.95367700  1
  O  O2  1  0.41930800  0.86051800  0.79530900  1
  O  O3  1  0.91768800  0.37360700  0.79238200  1
  O  O4  1  0.40039600  0.82029800  0.95542500  1
  O  O5  1  0.72431700  0.61867100  0.86668000  1
  O  O6  1  0.53157200  0.98641300  0.61724500  1
  O  O7  1  0.86813300  0.02821600  0.11065100  1
  O  O8  1  0.32102800  0.32269400  0.45570400  1
  O  O9  1  0.35845900  0.41498700  0.29611100  1
  O  O10  1  0.87560300  0.92234200  0.29185400  1
  O  O11  1  0.29696400  0.11239900  0.86532300  1
  O  O12  1  0.81766400  0.90213500  0.45406800  1
  O  O13  1  0.89546300  0.68310400  0.64388600  1
  O  O14  1  0.61583900  0.22685500  0.36512000  1
  O  O15  1  0.02414200  0.44677200  0.88931600  1
  O  O16  1  0.48491100  0.53744800  0.11802900  1
  O  O17  1  0.38916400  0.28101300  0.64127700  1
  O  O18  1  0.11510600  0.79785700  0.36691200  1
  O  O19  1  0.17871700  0.60693400  0.54362200  1
  O  O20  1  0.18401800  0.89203900  0.14341000  1
  O  O21  1  0.64868300  0.07065300  0.70339100  1
  O  O22  1  0.15708700  0.58180900  0.70217700  1
  O  O23  1  0.67558000  0.17034300  0.54347000  1
  O  O24  1  0.64031500  0.95014200  0.89316900  1
  O  O25  1  0.44366200  0.52364000  0.38754800  1
  O  O26  1  0.77969500  0.38925100  0.14098300  1
  O  O27  1  0.10725700  0.17683200  0.04301800  1
  O  O28  1  0.02821600  0.86813300  0.61065100  1
  O  O29  1  0.32269400  0.32102800  0.95570400  1
  O  O30  1  0.41498700  0.35845900  0.79611100  1
  O  O31  1  0.92234200  0.87560300  0.79185400  1
  O  O32  1  0.07837400  0.15065000  0.20322900  1
  O  O33  1  0.57612000  0.65179800  0.20275700  1
  O  O34  1  0.94912500  0.13742600  0.39415900  1
  O  O35  1  0.67197800  0.67659600  0.04327600  1
  O  O36  1  0.90213500  0.81766400  0.95406800  1
  O  O37  1  0.22685500  0.61583900  0.86512000  1
  O  O38  1  0.36638000  0.02821400  0.11074700  1
  O  O39  1  0.53744800  0.48491100  0.61802900  1
  O  O40  1  0.32136900  0.82516300  0.45367700  1
  O  O41  1  0.86051800  0.41930800  0.29530900  1
  O  O42  1  0.37360700  0.91768800  0.29238200  1
  O  O43  1  0.79785700  0.11510600  0.86691200  1
  O  O44  1  0.89203900  0.18401800  0.64341000  1
  O  O45  1  0.82029800  0.40039600  0.45542500  1
  O  O46  1  0.52364000  0.44366200  0.88754800  1
  O  O47  1  0.61867100  0.72431700  0.36668000  1
  O  O48  1  0.98641300  0.53157200  0.11724500  1
  O  O49  1  0.38925100  0.77969500  0.64098300  1
  O  O50  1  0.11239900  0.29696400  0.36532300  1
  O  O51  1  0.17683200  0.10725700  0.54301800  1
  O  O52  1  0.68310400  0.89546300  0.14388600  1
  O  O53  1  0.15065000  0.07837400  0.70322900  1
  O  O54  1  0.65179800  0.57612000  0.70275700  1
  O  O55  1  0.13742600  0.94912500  0.89415900  1
  O  O56  1  0.67659600  0.67197800  0.54327600  1
  O  O57  1  0.44677200  0.02414200  0.38931600  1
  O  O58  1  0.28101300  0.38916400  0.14127700  1
  O  O59  1  0.60693400  0.17871700  0.04362200  1
  O  O60  1  0.07065300  0.64868300  0.20339100  1
  O  O61  1  0.58180900  0.15708700  0.20217700  1
  O  O62  1  0.17034300  0.67558000  0.04347000  1
  O  O63  1  0.95014200  0.64031500  0.39316900  1
loop_
_geom_bond_atom_site_label_1
_geom_bond_atom_site_label_2
_geom_bond_distance
_geom_bond_site_symmetry_2
Li0 O54 1.989475 1_555
Li0 O2 2.022494 1_555
Li0 O5 2.039154 1_555
Li0 O46 2.060905 1_555
Li1 O61 1.961574 1_555
Li1 O14 1.997297 1_555
Li1 O10 2.071683 1_545
Li1 O57 2.138607 1_555
Li2 O12 1.958930 1_555
Li2 O56 1.998620 1_555
Li2 O6 2.039344 1_555
Li2 O13 2.105375 1_555
Li3 O8 1.941459 1_555
Li3 O19 1.979187 1_555
Li3 O17 2.054876 1_555
Li3 O0 2.060413 1_555
Li4 O4 1.949934 1_554
Li4 O62 2.016814 1_555
Li4 O16 2.022223 1_555
Li4 O20 2.066398 1_555
Li5 O1 1.955947 1_554
Li5 O27 1.969832 1_655
Li5 O26 2.055623 1_555
Li5 O7 2.059529 1_555
Li6 O24 2.001311 1_545
Li6 O21 2.025185 1_555
Li6 O11 2.050119 1_555
Li6 O30 2.066946 1_555
Li7 O22 1.961574 1_555
Li7 O37 1.997297 1_555
Li7 O31 2.071683 1_455
Li7 O15 2.138607 1_555
Li8 O32 2.028191 1_555
Li8 O34 2.045047 1_455
Li8 O18 2.074933 1_545
Li8 O42 2.112715 1_545
Li9 O33 1.989475 1_555
Li9 O41 2.022494 1_555
Li9 O47 2.039154 1_555
Li9 O25 2.060905 1_555
Li10 O45 1.949934 1_555
Li10 O23 2.016814 1_555
Li10 O39 2.022223 1_555
Li10 O44 2.066398 1_555
Li11 O40 1.955947 1_555
Li11 O51 1.969832 1_565
Li11 O49 2.055623 1_555
Li11 O28 2.059529 1_555
Li12 O36 1.958930 1_554
Li12 O35 1.998620 1_555
Li12 O48 2.039344 1_555
Li12 O52 2.105375 1_555
Li13 O29 1.941459 1_554
Li13 O59 1.979187 1_555
Li13 O58 2.054876 1_555
Li13 O38 2.060413 1_555
Li14 O53 2.028191 1_555
Li14 O55 2.045047 1_545
Li14 O43 2.074933 1_455
Li14 O3 2.112715 1_455
Li15 O63 2.001311 1_455
Li15 O60 2.025185 1_555
Li15 O50 2.050119 1_555
Li15 O9 2.066946 1_555
Fe0 O3 1.900124 1_555
Fe0 O13 1.902567 1_555
Fe0 O0 1.910170 1_655
Fe0 O54 1.913123 1_555
Fe1 O9 1.893823 1_555
Fe1 O61 1.899656 1_555
Fe1 O58 1.906203 1_555
Fe1 O16 1.918380 1_555
Fe2 O20 1.907400 1_655
Fe2 O10 1.907886 1_555
Fe2 O7 1.911944 1_565
Fe2 O60 1.920114 1_655
Fe3 O35 1.878335 1_556
Fe3 O5 1.900859 1_555
Fe3 O4 1.904857 1_555
Fe3 O24 1.910497 1_555
Fe4 O27 1.891122 1_556
Fe4 O15 1.907145 1_555
Fe4 O29 1.909649 1_555
Fe4 O11 1.911943 1_555
Fe5 O23 1.881579 1_555
Fe5 O12 1.904229 1_545
Fe5 O14 1.904740 1_555
Fe5 O34 1.908913 1_555
Fe6 O19 1.886549 1_555
Fe6 O18 1.894996 1_555
Fe6 O25 1.902953 1_555
Fe6 O40 1.908257 1_555
Fe7 O30 1.893823 1_555
Fe7 O22 1.899656 1_555
Fe7 O17 1.906203 1_555
Fe7 O39 1.918380 1_555
Fe8 O44 1.907400 1_565
Fe8 O31 1.907886 1_555
Fe8 O28 1.911944 1_655
Fe8 O21 1.920114 1_565
Fe9 O41 1.899743 1_555
Fe9 O26 1.904100 1_555
Fe9 O32 1.907980 1_655
Fe9 O48 1.925131 1_555
Fe10 O42 1.900124 1_555
Fe10 O52 1.902567 1_555
Fe10 O38 1.910170 1_565
Fe10 O33 1.913123 1_555
Fe11 O62 1.881579 1_556
Fe11 O36 1.904229 1_455
Fe11 O37 1.904740 1_555
Fe11 O55 1.908913 1_555
Fe12 O59 1.886549 1_556
Fe12 O43 1.894996 1_555
Fe12 O46 1.902953 1_555
Fe12 O1 1.908257 1_555
Fe13 O56 1.878335 1_555
Fe13 O47 1.900859 1_555
Fe13 O45 1.904857 1_555
Fe13 O63 1.910497 1_555
Fe14 O51 1.891122 1_555
Fe14 O57 1.907145 1_555
Fe14 O8 1.909649 1_555
Fe14 O50 1.911943 1_555
Fe15 O2 1.899743 1_555
Fe15 O49 1.904100 1_555
Fe15 O53 1.907980 1_565
Fe15 O6 1.925131 1_555
O0 Si13 1.641228 1_555
O1 Si1 1.653938 1_555
O2 Si0 1.651773 1_555
O3 Si1 1.650634 1_555
O4 Si0 1.652016 1_555
O5 Si1 1.644289 1_555
O6 Si4 1.640565 1_565
O7 Si15 1.641251 1_555
O8 Si3 1.654542 1_555
O9 Si3 1.649838 1_555
O10 Si2 1.652014 1_555
O11 Si0 1.642861 1_545
O12 Si2 1.649115 1_555
O13 Si5 1.644340 1_655
O14 Si3 1.644991 1_555
O15 Si1 1.639556 1_455
O16 Si6 1.640538 1_555
O17 Si4 1.645022 1_555
O18 Si2 1.641994 1_455
O19 Si5 1.647271 1_555
O20 Si7 1.645768 1_565
O21 Si4 1.652433 1_555
O22 Si5 1.649665 1_555
O23 Si4 1.649606 1_555
O24 Si8 1.643233 1_555
O25 Si3 1.641880 1_555
O26 Si6 1.644919 1_555
O27 Si7 1.645668 1_555
O28 Si5 1.641251 1_555
O29 Si9 1.654542 1_555
O30 Si9 1.649838 1_555
O31 Si8 1.652014 1_555
O32 Si7 1.653494 1_555
O33 Si6 1.650413 1_555
O34 Si10 1.642863 1_555
O35 Si6 1.649890 1_555
O36 Si8 1.649115 1_555
O37 Si9 1.644991 1_555
O38 Si7 1.641228 1_555
O39 Si12 1.640538 1_555
O40 Si11 1.653938 1_555
O41 Si10 1.651773 1_555
O42 Si11 1.650634 1_555
O43 Si8 1.641994 1_545
O44 Si13 1.645768 1_655
O45 Si10 1.652016 1_555
O46 Si9 1.641880 1_555
O47 Si11 1.644289 1_555
O48 Si14 1.640565 1_655
O49 Si12 1.644919 1_555
O50 Si10 1.642861 1_455
O51 Si13 1.645668 1_555
O52 Si15 1.644340 1_565
O53 Si13 1.653494 1_555
O54 Si12 1.650413 1_555
O55 Si0 1.642863 1_555
O56 Si12 1.649890 1_555
O57 Si11 1.639556 1_545
O58 Si14 1.645022 1_555
O59 Si15 1.647271 1_555
O60 Si14 1.652433 1_555
O61 Si15 1.649665 1_555
O62 Si14 1.649606 1_555
O63 Si2 1.643233 1_555
