# generated using pymatgen
data_TiCuGe
_symmetry_space_group_name_H-M   'P 1'
_cell_length_a   4.94368077
_cell_length_b   4.94368077
_cell_length_c   5.13596600
_cell_angle_alpha   90.00000000
_cell_angle_beta   90.00000000
_cell_angle_gamma   135.09055028
_symmetry_Int_Tables_number   1
_chemical_formula_structural   TiCuGe
_chemical_formula_sum   'Ti2 Cu2 Ge2'
_cell_volume   88.61771233
_cell_formula_units_Z   2
loop_
 _symmetry_equiv_pos_site_id
 _symmetry_equiv_pos_as_xyz
  1  'x, y, z'
loop_
 _atom_site_type_symbol
 _atom_site_label
 _atom_site_symmetry_multiplicity
 _atom_site_fract_x
 _atom_site_fract_y
 _atom_site_fract_z
 _atom_site_occupancy
  Ti  Ti0  1  0.70014900  0.29985100  0.25000000  1
  Ti  Ti1  1  0.29985100  0.70014900  0.75000000  1
  Cu  Cu0  1  0.00000000  0.00000000  0.00000000  1
  Cu  Cu1  1  0.00000000  0.00000000  0.50000000  1
  Ge  Ge0  1  0.39287700  0.60712300  0.25000000  1
  Ge  Ge1  1  0.60712300  0.39287700  0.75000000  1
loop_
_geom_bond_atom_site_label_1
_geom_bond_atom_site_label_2
_geom_bond_distance
_geom_bond_site_symmetry_2
Cu0 Ge1 2.484413 1_554
Cu0 Ge0 2.484413 1_555
Cu0 Ge0 2.484413 1_445
Cu0 Ge1 2.484413 1_444
Cu0 Cu1 2.567983 1_555
Cu0 Cu1 2.567983 1_554
Cu0 Ti1 2.925583 1_554
Cu0 Ti0 2.925583 1_555
Cu0 Ti0 2.925583 1_445
Cu0 Ti1 2.925583 1_444
Cu0 Ti0 3.025885 1_455
Cu0 Ti1 3.025885 1_544
Cu1 Ge1 2.484413 1_555
Cu1 Ge0 2.484413 1_555
Cu1 Ge0 2.484413 1_445
Cu1 Ge1 2.484413 1_445
Cu1 Ti1 2.925583 1_555
Cu1 Ti0 2.925583 1_555
Cu1 Ti0 2.925583 1_445
Cu1 Ti1 2.925583 1_445
Cu1 Ti0 3.025885 1_455
Cu1 Ti1 3.025885 1_545
Ge0 Ti0 2.582046 1_565
Ge0 Ti0 2.582046 1_455
Ge0 Ti1 2.705016 1_555
Ge0 Ti1 2.705016 1_554
Ge0 Ti0 2.807765 1_555
Ge1 Ti1 2.582046 1_655
Ge1 Ti1 2.582046 1_545
Ge1 Ti0 2.705016 1_556
Ge1 Ti0 2.705016 1_555
Ge1 Ti1 2.807765 1_555
