# generated using pymatgen
data_LiMnF4
_symmetry_space_group_name_H-M   'P 1'
_cell_length_a   4.56374300
_cell_length_b   5.35001400
_cell_length_c   11.56462000
_cell_angle_alpha   90.00000000
_cell_angle_beta   90.00000000
_cell_angle_gamma   90.00000000
_symmetry_Int_Tables_number   1
_chemical_formula_structural   LiMnF4
_chemical_formula_sum   'Li4 Mn4 F16'
_cell_volume   282.36279051
_cell_formula_units_Z   4
loop_
 _symmetry_equiv_pos_site_id
 _symmetry_equiv_pos_as_xyz
  1  'x, y, z'
loop_
 _atom_site_type_symbol
 _atom_site_label
 _atom_site_symmetry_multiplicity
 _atom_site_fract_x
 _atom_site_fract_y
 _atom_site_fract_z
 _atom_site_occupancy
  Li  Li0  1  0.00000000  0.75000000  0.32555600  1
  Li  Li1  1  0.00000000  0.25000000  0.67444400  1
  Li  Li2  1  0.50000000  0.25000000  0.17444400  1
  Li  Li3  1  0.50000000  0.75000000  0.82555600  1
  Mn  Mn0  1  0.00000000  0.75000000  0.07166200  1
  Mn  Mn1  1  0.00000000  0.25000000  0.92833800  1
  Mn  Mn2  1  0.50000000  0.25000000  0.42833800  1
  Mn  Mn3  1  0.50000000  0.75000000  0.57166200  1
  F  F0  1  0.23569000  0.10088800  0.04822400  1
  F  F1  1  0.23569000  0.60088800  0.95177600  1
  F  F2  1  0.22492100  0.59840500  0.18616800  1
  F  F3  1  0.22492100  0.09840500  0.81383200  1
  F  F4  1  0.27507900  0.09840500  0.31383200  1
  F  F5  1  0.27507900  0.59840500  0.68616800  1
  F  F6  1  0.26431000  0.10088800  0.54822400  1
  F  F7  1  0.26431000  0.60088800  0.45177600  1
  F  F8  1  0.73569000  0.89911200  0.45177600  1
  F  F9  1  0.73569000  0.39911200  0.54822400  1
  F  F10  1  0.72492100  0.90159500  0.68616800  1
  F  F11  1  0.72492100  0.40159500  0.31383200  1
  F  F12  1  0.77507900  0.90159500  0.18616800  1
  F  F13  1  0.77507900  0.40159500  0.81383200  1
  F  F14  1  0.76431000  0.39911200  0.04822400  1
  F  F15  1  0.76431000  0.89911200  0.95177600  1
loop_
_geom_bond_atom_site_label_1
_geom_bond_atom_site_label_2
_geom_bond_distance
_geom_bond_site_symmetry_2
F0 Mn1 1.927586 1_554
F0 Li2 2.054778 1_555
F0 Mn0 2.180490 1_545
F1 Mn0 1.927586 1_556
F1 Li3 2.054778 1_555
F1 Mn1 2.180490 1_555
F2 Mn0 1.861450 1_555
F2 Li0 2.076027 1_555
F2 Li2 2.251394 1_555
F3 Mn1 1.861450 1_555
F3 Li1 2.076027 1_555
F3 Li3 2.251394 1_545
F4 Mn2 1.861450 1_555
F4 Li2 2.076027 1_555
F4 Li0 2.251394 1_545
F5 Mn3 1.861450 1_555
F5 Li3 2.076027 1_555
F5 Li1 2.251394 1_555
F6 Mn2 1.927586 1_555
F6 Li1 2.054778 1_555
F6 Mn3 2.180490 1_545
F7 Mn3 1.927586 1_555
F7 Li0 2.054778 1_555
F7 Mn2 2.180490 1_555
F8 Mn3 1.927586 1_555
F8 Li0 2.054778 1_655
F8 Mn2 2.180490 1_565
F9 Mn2 1.927586 1_555
F9 Li1 2.054778 1_655
F9 Mn3 2.180490 1_555
F10 Mn3 1.861450 1_555
F10 Li3 2.076027 1_555
F10 Li1 2.251394 1_665
F11 Mn2 1.861450 1_555
F11 Li2 2.076027 1_555
F11 Li0 2.251394 1_655
F12 Mn0 1.861450 1_655
F12 Li0 2.076027 1_655
F12 Li2 2.251394 1_565
F13 Mn1 1.861450 1_655
F13 Li1 2.076027 1_655
F13 Li3 2.251394 1_555
F14 Mn1 1.927586 1_654
F14 Li2 2.054778 1_555
F14 Mn0 2.180490 1_655
F15 Mn0 1.927586 1_656
F15 Li3 2.054778 1_555
F15 Mn1 2.180490 1_665
