# generated using pymatgen
data_Li4TiMn3Cr2(PO4)6
_symmetry_space_group_name_H-M   'P 1'
_cell_length_a   8.51666100
_cell_length_b   8.73528933
_cell_length_c   8.74856846
_cell_angle_alpha   62.29840416
_cell_angle_beta   62.74874242
_cell_angle_gamma   62.97158386
_symmetry_Int_Tables_number   1
_chemical_formula_structural   Li4TiMn3Cr2(PO4)6
_chemical_formula_sum   'Li4 Ti1 Mn3 Cr2 P6 O24'
_cell_volume   487.56931668
_cell_formula_units_Z   1
loop_
 _symmetry_equiv_pos_site_id
 _symmetry_equiv_pos_as_xyz
  1  'x, y, z'
loop_
 _atom_site_type_symbol
 _atom_site_label
 _atom_site_symmetry_multiplicity
 _atom_site_fract_x
 _atom_site_fract_y
 _atom_site_fract_z
 _atom_site_occupancy
  Li  Li0  1  0.75185000  0.15077300  0.35216000  1
  Li  Li1  1  0.27865600  0.85293300  0.65067500  1
  Li  Li2  1  0.64611300  0.27852300  0.85838400  1
  Li  Li3  1  0.86325700  0.64723700  0.28492300  1
  Ti  Ti0  1  0.84771200  0.84316300  0.84925800  1
  Mn  Mn0  1  0.15445400  0.15104300  0.14931900  1
  Mn  Mn1  1  0.34779500  0.35665400  0.34951100  1
  Mn  Mn2  1  0.65478300  0.65288700  0.65762400  1
  Cr  Cr0  1  0.01193200  0.99928000  0.00007000  1
  Cr  Cr1  1  0.49419100  0.50155200  0.50683000  1
  P  P0  1  0.24282700  0.55797800  0.94568500  1
  P  P1  1  0.57239400  0.95370600  0.24457400  1
  P  P2  1  0.93156100  0.24153500  0.54975500  1
  P  P3  1  0.05555000  0.74507700  0.44871200  1
  P  P4  1  0.43979700  0.04711300  0.74862300  1
  P  P5  1  0.74697400  0.44046200  0.05349300  1
  O  O0  1  0.09802200  0.29390600  0.50724500  1
  O  O1  1  0.29468400  0.53568000  0.10115700  1
  O  O2  1  0.05398100  0.91054200  0.27467800  1
  O  O3  1  0.56414100  0.09993300  0.30069600  1
  O  O4  1  0.98215000  0.80847600  0.62120700  1
  O  O5  1  0.24954600  0.60618000  0.44528600  1
  O  O6  1  0.25224000  0.06985700  0.90139700  1
  O  O7  1  0.46000700  0.22642900  0.59416400  1
  O  O8  1  0.17186500  0.40929400  0.98443800  1
  O  O9  1  0.60510100  0.43442500  0.24532400  1
  O  O10  1  0.09078100  0.75738300  0.90747800  1
  O  O11  1  0.41575100  0.01127200  0.17270800  1
  O  O12  1  0.60910500  0.97298900  0.82375800  1
  O  O13  1  0.89949300  0.25364100  0.07616300  1
  O  O14  1  0.39744500  0.57962600  0.75431500  1
  O  O15  1  0.81270400  0.61173200  0.98672700  1
  O  O16  1  0.58519700  0.76240400  0.39397600  1
  O  O17  1  0.77063300  0.91759500  0.08783400  1
  O  O18  1  0.73975000  0.39765600  0.57937300  1
  O  O19  1  0.94717700  0.18061800  0.40490000  1
  O  O20  1  0.46135600  0.90399300  0.67976500  1
  O  O21  1  0.90751300  0.08865900  0.74491100  1
  O  O22  1  0.67399100  0.46365300  0.91094400  1
  O  O23  1  0.91751900  0.66113800  0.47496200  1
loop_
_geom_bond_atom_site_label_1
_geom_bond_atom_site_label_2
_geom_bond_distance
_geom_bond_site_symmetry_2
Li0 O19 2.063279 1_555
Li0 O3 2.108543 1_555
Li0 O13 2.109022 1_555
Li0 O9 2.162662 1_555
Li0 O7 2.466957 1_555
Li0 O2 2.510338 1_645
Li1 O20 1.945190 1_555
Li1 O14 2.043931 1_555
Li1 O10 2.117224 1_555
Li1 O16 2.624889 1_555
Li2 O22 2.005826 1_555
Li2 O18 2.070521 1_555
Li2 O21 2.200779 1_555
Li2 O14 2.590144 1_555
Li3 O23 1.983625 1_555
Li3 O16 2.046559 1_555
Li3 O17 2.222431 1_555
Li3 O18 2.622344 1_555
Mn0 O11 2.049432 1_555
Mn0 O8 2.067490 1_554
Mn0 O19 2.165734 1_455
Mn0 O13 2.213271 1_455
Mn0 O2 2.231781 1_545
Mn0 O6 2.267160 1_554
Mn1 O0 2.097149 1_555
Mn1 O1 2.114016 1_555
Mn1 O3 2.240691 1_555
Mn1 O9 2.245581 1_555
Mn1 O7 2.325935 1_555
Mn1 O5 2.356171 1_555
Mn2 O23 2.081038 1_555
Mn2 O22 2.085898 1_555
Mn2 O20 2.093164 1_555
Mn2 O14 2.236538 1_555
Mn2 O16 2.295992 1_555
Mn2 O18 2.337113 1_555
Cr0 O6 2.085174 1_564
Cr0 O17 2.168018 1_455
Cr0 O13 2.270393 1_465
Cr0 O2 2.303252 1_555
Cr0 O10 2.318544 1_554
Cr0 O21 2.439270 1_464
Cr1 O5 2.074980 1_555
Cr1 O18 2.134267 1_555
Cr1 O14 2.249501 1_555
Cr1 O7 2.273606 1_555
Cr1 O9 2.287996 1_555
Cr1 O16 2.362271 1_555
O0 P2 1.518511 1_455
O1 P0 1.519423 1_554
O2 P3 1.537047 1_555
O3 P1 1.532148 1_545
O4 P3 1.604142 1_655
O4 Ti0 1.880963 1_555
O5 P3 1.539252 1_555
O6 P4 1.542948 1_555
O7 P4 1.540548 1_555
O8 P0 1.511104 1_555
O9 P5 1.548496 1_555
O10 P0 1.621015 1_555
O10 Ti0 2.075409 1_455
O11 P1 1.514066 1_545
O12 P4 1.598201 1_565
O12 Ti0 1.884369 1_555
O13 P5 1.548617 1_555
O14 P0 1.576632 1_555
O15 P5 1.594402 1_556
O15 Ti0 1.892400 1_555
O16 P1 1.564282 1_555
O17 P1 1.621191 1_555
O17 Ti0 2.197520 1_554
O18 P2 1.584837 1_555
O19 P2 1.521554 1_555
O20 P4 1.532932 1_565
O21 P2 1.596506 1_555
O21 Ti0 2.106729 1_545
O22 P5 1.530752 1_556
O23 P3 1.533602 1_655
