# generated using pymatgen
data_Li4MnO3F
_symmetry_space_group_name_H-M   'P 1'
_cell_length_a   6.45981100
_cell_length_b   7.06340900
_cell_length_c   8.24551100
_cell_angle_alpha   89.99970807
_cell_angle_beta   90.00106723
_cell_angle_gamma   89.99943227
_symmetry_Int_Tables_number   1
_chemical_formula_structural   Li4MnO3F
_chemical_formula_sum   'Li16 Mn4 O12 F4'
_cell_volume   376.22854361
_cell_formula_units_Z   4
loop_
 _symmetry_equiv_pos_site_id
 _symmetry_equiv_pos_as_xyz
  1  'x, y, z'
loop_
 _atom_site_type_symbol
 _atom_site_label
 _atom_site_symmetry_multiplicity
 _atom_site_fract_x
 _atom_site_fract_y
 _atom_site_fract_z
 _atom_site_occupancy
  Li  Li0  1  0.49736800  0.50822100  0.33890000  1
  Li  Li1  1  0.49738600  0.00820000  0.83889600  1
  Li  Li2  1  0.99738800  0.49180000  0.33889400  1
  Li  Li3  1  0.99736900  0.99177500  0.83890100  1
  Li  Li4  1  0.99739300  0.49180000  0.66110000  1
  Li  Li5  1  0.99736400  0.99177500  0.16109400  1
  Li  Li6  1  0.49736400  0.50822200  0.66109400  1
  Li  Li7  1  0.49739100  0.00820100  0.16109900  1
  Li  Li8  1  0.23953100  0.72753600  0.15325500  1
  Li  Li9  1  0.23954400  0.22755000  0.65327300  1
  Li  Li10  1  0.73954000  0.27243600  0.15327200  1
  Li  Li11  1  0.73953300  0.77247000  0.65325100  1
  Li  Li12  1  0.23953200  0.72754200  0.84673800  1
  Li  Li13  1  0.23954400  0.22755700  0.34672500  1
  Li  Li14  1  0.73954000  0.27243000  0.84672800  1
  Li  Li15  1  0.73953400  0.77246600  0.34674200  1
  Mn  Mn0  1  0.27863500  0.86797200  0.50002500  1
  Mn  Mn1  1  0.77867300  0.63203800  0.00003200  1
  Mn  Mn2  1  0.27863600  0.36790300  0.99999600  1
  Mn  Mn3  1  0.77863900  0.13213700  0.50000400  1
  O  O0  1  0.01257600  0.78349500  0.99999300  1
  O  O1  1  0.01284100  0.28362700  0.49999700  1
  O  O2  1  0.51272600  0.21643600  0.00002200  1
  O  O3  1  0.51262100  0.71646000  0.49999300  1
  O  O4  1  0.75215900  0.54452400  0.21420200  1
  O  O5  1  0.75215700  0.04463400  0.71419600  1
  O  O6  1  0.25215300  0.45538600  0.21422000  1
  O  O7  1  0.25215200  0.95540100  0.71420500  1
  O  O8  1  0.25215300  0.45538600  0.78577500  1
  O  O9  1  0.25214900  0.95541300  0.28574700  1
  O  O10  1  0.75214500  0.54457400  0.78574100  1
  O  O11  1  0.75217100  0.04462400  0.28590300  1
  F  F0  1  0.98052600  0.21000300  0.99999700  1
  F  F1  1  0.98052400  0.70999300  0.49999600  1
  F  F2  1  0.48052000  0.79000700  0.99999600  1
  F  F3  1  0.48052300  0.29000500  0.49999700  1
loop_
_geom_bond_atom_site_label_1
_geom_bond_atom_site_label_2
_geom_bond_distance
_geom_bond_site_symmetry_2
Li0 O6 1.924918 1_555
Li0 O4 1.957551 1_555
Li0 O3 1.984331 1_555
Li1 O7 1.925018 1_545
Li1 O5 1.957573 1_555
Li1 O2 1.984526 1_556
Li2 O4 1.924885 1_555
Li2 O6 1.957406 1_655
Li2 O1 1.984094 1_655
Li3 O5 1.925037 1_565
Li3 O7 1.957562 1_655
Li3 O0 1.984514 1_655
Li4 O10 1.924863 1_555
Li4 O8 1.957350 1_655
Li4 O1 1.984105 1_655
Li5 O11 1.925414 1_565
Li5 O9 1.957342 1_655
Li5 O0 1.984578 1_654
Li6 O8 1.924932 1_555
Li6 O10 1.957291 1_555
Li6 O3 1.984364 1_555
Li7 O9 1.924885 1_545
Li7 O11 1.958031 1_555
Li7 O2 1.984241 1_555
Li8 O9 1.947027 1_555
Li8 O0 1.975488 1_554
Li8 O6 1.988616 1_555
Li9 O8 1.946831 1_555
Li9 O1 1.974521 1_555
Li9 O7 1.988536 1_545
Li10 O11 1.947284 1_555
Li10 O2 1.974815 1_555
Li10 O4 1.988125 1_555
Li11 O10 1.947117 1_555
Li11 O3 1.975341 1_555
Li11 O5 1.988676 1_565
Li12 O7 1.947105 1_555
Li12 O0 1.975485 1_555
Li12 O8 1.988658 1_555
Li13 O6 1.946797 1_555
Li13 O1 1.974527 1_555
Li13 O9 1.988603 1_545
Li14 O5 1.946739 1_555
Li14 O2 1.975071 1_556
Li14 O10 1.988618 1_555
Li15 O4 1.947631 1_555
Li15 O3 1.975336 1_555
Li15 O11 1.988414 1_565
Mn0 O3 1.852006 1_555
Mn0 O7 1.878694 1_555
Mn0 O9 1.879471 1_555
Mn1 O0 1.851361 1_654
Mn1 O4 1.878827 1_555
Mn1 O10 1.879657 1_554
Mn2 O2 1.852371 1_556
Mn2 O8 1.879125 1_555
Mn2 O6 1.879160 1_556
Mn3 O1 1.853072 1_655
Mn3 O11 1.878263 1_555
Mn3 O5 1.878953 1_555
F0 Li5 2.037712 1_546
F0 Li3 2.037722 1_545
F0 Li14 2.053016 1_555
F0 Li10 2.053094 1_556
F0 Mn2 2.225403 1_655
F1 Li4 2.037574 1_555
F1 Li2 2.037574 1_555
F1 Li15 2.053029 1_555
F1 Li11 2.053084 1_555
F1 Mn0 2.225688 1_655
F2 Li1 2.037555 1_565
F2 Li7 2.037586 1_566
F2 Li12 2.053037 1_555
F2 Li8 2.053089 1_556
F2 Mn1 2.225868 1_556
F3 Li0 2.037655 1_555
F3 Li6 2.037667 1_555
F3 Li13 2.053038 1_555
F3 Li9 2.053102 1_555
F3 Mn3 2.225304 1_555
