# generated using pymatgen
data_Li3Cu3(PO4)2
_symmetry_space_group_name_H-M   'P 1'
_cell_length_a   5.44901800
_cell_length_b   6.22257648
_cell_length_c   10.19925378
_cell_angle_alpha   89.95372628
_cell_angle_beta   89.90314053
_cell_angle_gamma   89.49314490
_symmetry_Int_Tables_number   1
_chemical_formula_structural   Li3Cu3(PO4)2
_chemical_formula_sum   'Li6 Cu6 P4 O16'
_cell_volume   345.81126221
_cell_formula_units_Z   2
loop_
 _symmetry_equiv_pos_site_id
 _symmetry_equiv_pos_as_xyz
  1  'x, y, z'
loop_
 _atom_site_type_symbol
 _atom_site_label
 _atom_site_symmetry_multiplicity
 _atom_site_fract_x
 _atom_site_fract_y
 _atom_site_fract_z
 _atom_site_occupancy
  Li  Li0  1  0.15433000  0.99885400  0.25397300  1
  Li  Li1  1  0.15314200  0.99951400  0.75291000  1
  Li  Li2  1  0.32749800  0.25027600  0.00309800  1
  Li  Li3  1  0.67059100  0.25338300  0.75356700  1
  Li  Li4  1  0.67436200  0.25449800  0.25287800  1
  Li  Li5  1  0.84759900  0.50024500  0.50363600  1
  Cu  Cu0  1  0.34215700  0.24002800  0.49766300  1
  Cu  Cu1  1  0.81835700  0.50120300  0.00257000  1
  Cu  Cu2  1  0.66569100  0.73829600  0.25429200  1
  Cu  Cu3  1  0.66186000  0.74366600  0.75557800  1
  Cu  Cu4  1  0.34162900  0.75926800  0.50081700  1
  Cu  Cu5  1  0.33250700  0.75254300  0.00055600  1
  P  P0  1  0.83035700  0.01090000  0.00076000  1
  P  P1  1  0.82846700  0.00457200  0.50139300  1
  P  P2  1  0.17108900  0.49385000  0.75006800  1
  P  P3  1  0.17464200  0.49260700  0.25041900  1
  O  O0  1  0.83451600  0.01280900  0.34881900  1
  O  O1  1  0.09217600  0.00046600  0.56079500  1
  O  O2  1  0.83135000  0.01343200  0.84794700  1
  O  O3  1  0.09715700  0.01639800  0.05569100  1
  O  O4  1  0.69637800  0.20900600  0.55822600  1
  O  O5  1  0.67838500  0.20543600  0.05583600  1
  O  O6  1  0.31622800  0.29457900  0.80406300  1
  O  O7  1  0.32115800  0.28916900  0.29769000  1
  O  O8  1  0.17692400  0.48967200  0.09798700  1
  O  O9  1  0.90780100  0.48511700  0.30634200  1
  O  O10  1  0.16469600  0.49527600  0.59782300  1
  O  O11  1  0.89942000  0.48529600  0.79919000  1
  O  O12  1  0.29731200  0.70635300  0.29743700  1
  O  O13  1  0.29213900  0.70842700  0.79786700  1
  O  O14  1  0.70040600  0.79221100  0.54686900  1
  O  O15  1  0.69967500  0.80264700  0.05064700  1
loop_
_geom_bond_atom_site_label_1
_geom_bond_atom_site_label_2
_geom_bond_distance
_geom_bond_site_symmetry_2
Li0 O0 1.992985 1_465
Li0 O12 2.022648 1_555
Li0 O3 2.049380 1_565
Li0 O7 2.078551 1_565
Li1 O1 1.987940 1_565
Li1 O2 2.003334 1_465
Li1 O13 2.010052 1_555
Li1 O6 2.113060 1_565
Li2 O8 1.951134 1_555
Li2 O3 2.002458 1_555
Li2 O5 2.004165 1_555
Li2 O6 2.049371 1_554
Li3 O11 1.971972 1_555
Li3 O2 1.975025 1_555
Li3 O6 2.011851 1_555
Li3 O4 2.016096 1_555
Li4 O7 1.987315 1_555
Li4 O0 1.989517 1_555
Li4 O9 2.002653 1_555
Li4 O5 2.033034 1_555
Li5 O10 1.978364 1_655
Li5 O14 2.027989 1_555
Li5 O9 2.040382 1_555
Li5 O4 2.072800 1_555
Cu0 O4 2.035083 1_555
Cu0 O7 2.065339 1_555
Cu0 O10 2.115053 1_555
Cu0 O1 2.126884 1_555
Cu1 O15 2.038648 1_555
Cu1 O5 2.070238 1_555
Cu1 O11 2.122308 1_554
Cu1 O8 2.184846 1_655
Cu2 O12 2.065514 1_555
Cu2 O9 2.113880 1_555
Cu2 O15 2.123051 1_555
Cu2 O0 2.174190 1_565
Cu3 O13 2.073046 1_555
Cu3 O11 2.102918 1_555
Cu3 O2 2.142720 1_565
Cu3 O14 2.159907 1_555
Cu4 O14 2.023596 1_555
Cu4 O1 2.106428 1_565
Cu4 O12 2.115126 1_555
Cu4 O10 2.151527 1_555
Cu5 O15 2.091837 1_555
Cu5 O8 2.097832 1_555
Cu5 O13 2.097832 1_554
Cu5 O3 2.149032 1_565
O0 P1 1.557246 1_555
O1 P1 1.560392 1_455
O2 P0 1.558646 1_556
O3 P0 1.559567 1_455
O4 P1 1.567125 1_555
O5 P0 1.564746 1_555
O6 P2 1.565029 1_555
O7 P3 1.566780 1_555
O8 P3 1.554842 1_555
O9 P3 1.562059 1_655
O10 P2 1.553251 1_555
O11 P2 1.563349 1_655
O12 P3 1.569600 1_555
O13 P2 1.572668 1_555
O14 P1 1.569229 1_565
O15 P0 1.568207 1_565
