# generated using pymatgen
data_LiFe3OF5
_symmetry_space_group_name_H-M   'P 1'
_cell_length_a   6.18370000
_cell_length_b   6.24976411
_cell_length_c   6.27619205
_cell_angle_alpha   91.82181191
_cell_angle_beta   91.42005312
_cell_angle_gamma   91.54331646
_symmetry_Int_Tables_number   1
_chemical_formula_structural   LiFe3OF5
_chemical_formula_sum   'Li2 Fe6 O2 F10'
_cell_volume   242.26355348
_cell_formula_units_Z   2
loop_
 _symmetry_equiv_pos_site_id
 _symmetry_equiv_pos_as_xyz
  1  'x, y, z'
loop_
 _atom_site_type_symbol
 _atom_site_label
 _atom_site_symmetry_multiplicity
 _atom_site_fract_x
 _atom_site_fract_y
 _atom_site_fract_z
 _atom_site_occupancy
  Li  Li0  1  0.50738600  0.49239400  0.50052700  1
  Li  Li1  1  0.99752300  0.98516600  0.98696200  1
  Fe  Fe0  1  0.27220200  0.08754500  0.55784200  1
  Fe  Fe1  1  0.93957500  0.45259200  0.76000200  1
  Fe  Fe2  1  0.41171900  0.73257900  0.92410900  1
  Fe  Fe3  1  0.56364300  0.23938700  0.09654300  1
  Fe  Fe4  1  0.06703400  0.57667700  0.23618700  1
  Fe  Fe5  1  0.74287100  0.94692300  0.43499600  1
  O  O0  1  0.09224400  0.67501100  0.93629100  1
  O  O1  1  0.53602800  0.17779500  0.40420600  1
  F  F0  1  0.31210900  0.08684000  0.90552600  1
  F  F1  1  0.93496700  0.10444800  0.68851600  1
  F  F2  1  0.60269600  0.44170800  0.82314000  1
  F  F3  1  0.17370400  0.41818200  0.52052100  1
  F  F4  1  0.81386600  0.61762000  0.45728800  1
  F  F5  1  0.45454600  0.79928600  0.60223800  1
  F  F6  1  0.91083500  0.29402900  0.08890500  1
  F  F7  1  0.41773500  0.54286700  0.20023300  1
  F  F8  1  0.06782400  0.92788400  0.32165500  1
  F  F9  1  0.68149500  0.90106700  0.05431200  1
loop_
_geom_bond_atom_site_label_1
_geom_bond_atom_site_label_2
_geom_bond_distance
_geom_bond_site_symmetry_2
Li0 O1 2.052106 1_555
Li1 O0 2.057373 1_655
Fe0 O1 1.993097 1_555
Fe1 O0 1.956389 1_655
Fe2 O0 2.002246 1_555
Fe3 O1 1.991475 1_555
Fe4 O0 2.006892 1_554
Fe5 O1 1.964729 1_565
F0 Li1 2.110112 1_445
F0 Fe3 2.126154 1_556
F0 Fe0 2.190113 1_555
F0 Fe2 2.319770 1_545
F1 Li1 2.069374 1_545
F1 Fe5 2.157708 1_545
F1 Fe1 2.206864 1_555
F1 Fe0 2.263545 1_655
F2 Fe1 2.129836 1_555
F2 Li0 2.130524 1_555
F2 Fe3 2.177989 1_556
F2 Fe2 2.276041 1_555
F3 Li0 2.110314 1_555
F3 Fe1 2.122615 1_455
F3 Fe4 2.165665 1_555
F3 Fe0 2.188006 1_555
F4 Li0 2.058390 1_555
F4 Fe5 2.124117 1_555
F4 Fe4 2.132750 1_655
F4 Fe1 2.317798 1_555
F5 Li0 2.039423 1_555
F5 Fe2 2.097370 1_555
F5 Fe0 2.172644 1_565
F5 Fe5 2.279831 1_555
F6 Li1 2.101681 1_544
F6 Fe4 2.160528 1_655
F6 Fe3 2.166768 1_555
F6 Fe1 2.326705 1_554
F7 Li0 1.988561 1_555
F7 Fe2 2.130799 1_554
F7 Fe4 2.201007 1_555
F7 Fe3 2.208565 1_555
F8 Fe0 2.129661 1_565
F8 Fe5 2.153197 1_455
F8 Li1 2.177290 1_454
F8 Fe4 2.242777 1_555
F9 Li1 2.067283 1_554
F9 Fe2 2.083902 1_554
F9 Fe3 2.264743 1_565
F9 Fe5 2.416678 1_555
