# generated using pymatgen
data_Li2CrFeO4
_symmetry_space_group_name_H-M   'P 1'
_cell_length_a   5.16771400
_cell_length_b   5.95173651
_cell_length_c   7.87606840
_cell_angle_alpha   100.87938693
_cell_angle_beta   109.04519933
_cell_angle_gamma   89.93773428
_symmetry_Int_Tables_number   1
_chemical_formula_structural   Li2CrFeO4
_chemical_formula_sum   'Li6 Cr3 Fe3 O12'
_cell_volume   224.38945761
_cell_formula_units_Z   3
loop_
 _symmetry_equiv_pos_site_id
 _symmetry_equiv_pos_as_xyz
  1  'x, y, z'
loop_
 _atom_site_type_symbol
 _atom_site_label
 _atom_site_symmetry_multiplicity
 _atom_site_fract_x
 _atom_site_fract_y
 _atom_site_fract_z
 _atom_site_occupancy
  Li  Li0  1  0.49756400  0.74833100  0.49890600  1
  Li  Li1  1  0.50243600  0.25166900  0.50109400  1
  Li  Li2  1  0.49898900  0.91513400  0.16609500  1
  Li  Li3  1  0.49982700  0.41693100  0.16658900  1
  Li  Li4  1  0.50101100  0.08486600  0.83390500  1
  Li  Li5  1  0.50017300  0.58306900  0.83341100  1
  Cr  Cr0  1  0.00000000  0.50000000  0.50000000  1
  Cr  Cr1  1  0.00048600  0.66570600  0.16723300  1
  Cr  Cr2  1  0.99951400  0.33429400  0.83276700  1
  Fe  Fe0  1  0.00000000  0.00000000  0.50000000  1
  Fe  Fe1  1  0.00058200  0.16579500  0.16632100  1
  Fe  Fe2  1  0.99941800  0.83420500  0.83367900  1
  O  O0  1  0.77073400  0.04516000  0.67254300  1
  O  O1  1  0.77446200  0.54329700  0.67126800  1
  O  O2  1  0.22866900  0.78918100  0.66162000  1
  O  O3  1  0.22452400  0.29093700  0.66117700  1
  O  O4  1  0.77547600  0.70906300  0.33882300  1
  O  O5  1  0.22926600  0.95484000  0.32745700  1
  O  O6  1  0.77133100  0.21081900  0.33838000  1
  O  O7  1  0.77199900  0.87473600  0.00642700  1
  O  O8  1  0.22553800  0.45670300  0.32873200  1
  O  O9  1  0.77455500  0.37688000  0.00454700  1
  O  O10  1  0.22544500  0.62312000  0.99545300  1
  O  O11  1  0.22800100  0.12526400  0.99357300  1
loop_
_geom_bond_atom_site_label_1
_geom_bond_atom_site_label_2
_geom_bond_distance
_geom_bond_site_symmetry_2
Li0 O5 2.158092 1_555
Li0 O2 2.162460 1_555
Li0 O8 2.163951 1_555
Li0 O1 2.175640 1_555
Li0 O4 2.185560 1_555
Li0 O0 2.194898 1_565
Li1 O0 2.158092 1_555
Li1 O6 2.162460 1_555
Li1 O1 2.163951 1_555
Li1 O8 2.175640 1_555
Li1 O3 2.185560 1_555
Li1 O5 2.194898 1_545
Li2 O5 2.157743 1_555
Li2 O7 2.161653 1_555
Li2 O10 2.169993 1_554
Li2 O4 2.180355 1_555
Li2 O11 2.183423 1_564
Li2 O6 2.185554 1_565
Li3 O6 2.165178 1_555
Li3 O10 2.169467 1_554
Li3 O11 2.169489 1_554
Li3 O4 2.178601 1_555
Li3 O8 2.182329 1_555
Li3 O9 2.183614 1_555
Li4 O0 2.157743 1_555
Li4 O11 2.161653 1_555
Li4 O9 2.169993 1_556
Li4 O3 2.180355 1_555
Li4 O7 2.183423 1_546
Li4 O2 2.185554 1_545
Li5 O2 2.165178 1_555
Li5 O9 2.169467 1_556
Li5 O7 2.169489 1_556
Li5 O3 2.178601 1_555
Li5 O1 2.182329 1_555
Li5 O10 2.183614 1_555
Cr0 O3 2.034167 1_555
Cr0 O4 2.034167 1_455
Cr0 O8 2.034354 1_555
Cr0 O1 2.034354 1_455
Cr0 O6 2.043220 1_455
Cr0 O2 2.043220 1_555
Cr1 O4 2.034299 1_455
Cr1 O10 2.035331 1_554
Cr1 O8 2.036310 1_555
Cr1 O9 2.038762 1_455
Cr1 O7 2.040010 1_455
Cr1 O5 2.040234 1_555
Cr2 O3 2.034299 1_655
Cr2 O9 2.035331 1_556
Cr2 O1 2.036310 1_555
Cr2 O10 2.038762 1_655
Cr2 O11 2.040010 1_655
Cr2 O0 2.040234 1_555
Fe0 O4 2.041920 1_445
Fe0 O3 2.041920 1_555
Fe0 O2 2.051616 1_545
Fe0 O6 2.051616 1_455
Fe0 O0 2.057894 1_455
Fe0 O5 2.057894 1_545
Fe1 O8 2.045314 1_555
Fe1 O7 2.047503 1_445
Fe1 O9 2.048389 1_455
Fe1 O5 2.050148 1_545
Fe1 O11 2.051725 1_554
Fe1 O6 2.054690 1_455
Fe2 O1 2.045314 1_555
Fe2 O11 2.047503 1_665
Fe2 O10 2.048389 1_655
Fe2 O0 2.050148 1_565
Fe2 O7 2.051725 1_556
Fe2 O2 2.054690 1_655
