# generated using pymatgen
data_MgSO3
_symmetry_space_group_name_H-M   'P 1'
_cell_length_a   7.80003466
_cell_length_b   7.80003466
_cell_length_c   7.80003392
_cell_angle_alpha   109.40732782
_cell_angle_beta   109.40732782
_cell_angle_gamma   109.40733519
_symmetry_Int_Tables_number   1
_chemical_formula_structural   MgSO3
_chemical_formula_sum   'Mg6 S6 O18'
_cell_volume   366.17673124
_cell_formula_units_Z   6
loop_
 _symmetry_equiv_pos_site_id
 _symmetry_equiv_pos_as_xyz
  1  'x, y, z'
loop_
 _atom_site_type_symbol
 _atom_site_label
 _atom_site_symmetry_multiplicity
 _atom_site_fract_x
 _atom_site_fract_y
 _atom_site_fract_z
 _atom_site_occupancy
  Mg  Mg0  1  0.68720700  0.86913800  0.18567100  1
  Mg  Mg1  1  0.13086200  0.81432900  0.31279300  1
  Mg  Mg2  1  0.81432900  0.31279300  0.13086200  1
  Mg  Mg3  1  0.18567100  0.68720700  0.86913800  1
  Mg  Mg4  1  0.86913800  0.18567100  0.68720700  1
  Mg  Mg5  1  0.31279300  0.13086200  0.81432900  1
  S  S0  1  0.29223200  0.47440400  0.14742700  1
  S  S1  1  0.85257300  0.70776800  0.52559600  1
  S  S2  1  0.52559600  0.85257300  0.70776800  1
  S  S3  1  0.47440400  0.14742700  0.29223200  1
  S  S4  1  0.14742700  0.29223200  0.47440400  1
  S  S5  1  0.70776800  0.52559600  0.85257300  1
  O  O0  1  0.26398500  0.93657500  0.15907500  1
  O  O1  1  0.84092500  0.73601500  0.06342500  1
  O  O2  1  0.38641500  0.63679600  0.08538700  1
  O  O3  1  0.81249300  0.87520500  0.48112700  1
  O  O4  1  0.12479500  0.51887300  0.18750700  1
  O  O5  1  0.36320400  0.91461300  0.61358500  1
  O  O6  1  0.91461300  0.61358500  0.36320400  1
  O  O7  1  0.06342500  0.84092500  0.73601500  1
  O  O8  1  0.51887300  0.18750700  0.12479500  1
  O  O9  1  0.48112700  0.81249300  0.87520500  1
  O  O10  1  0.93657500  0.15907500  0.26398500  1
  O  O11  1  0.08538700  0.38641500  0.63679600  1
  O  O12  1  0.63679600  0.08538700  0.38641500  1
  O  O13  1  0.87520500  0.48112700  0.81249300  1
  O  O14  1  0.18750700  0.12479500  0.51887300  1
  O  O15  1  0.61358500  0.36320400  0.91461300  1
  O  O16  1  0.15907500  0.26398500  0.93657500  1
  O  O17  1  0.73601500  0.06342500  0.84092500  1
loop_
_geom_bond_atom_site_label_1
_geom_bond_atom_site_label_2
_geom_bond_distance
_geom_bond_site_symmetry_2
Mg0 O1 2.086672 1_555
Mg0 O2 2.100812 1_555
Mg0 O12 2.132189 1_565
Mg0 O10 2.154058 1_565
Mg0 O3 2.160644 1_555
Mg0 O9 2.207595 1_554
Mg1 O0 2.086672 1_555
Mg1 O5 2.100812 1_555
Mg1 O6 2.132189 1_455
Mg1 O1 2.154058 1_455
Mg1 O4 2.160644 1_555
Mg1 O14 2.207595 1_565
Mg2 O10 2.086672 1_555
Mg2 O6 2.100812 1_555
Mg2 O15 2.132189 1_554
Mg2 O17 2.154058 1_554
Mg2 O8 2.160644 1_555
Mg2 O4 2.207595 1_655
Mg3 O7 2.086672 1_555
Mg3 O11 2.100812 1_555
Mg3 O2 2.132189 1_556
Mg3 O0 2.154058 1_556
Mg3 O9 2.160644 1_555
Mg3 O13 2.207595 1_455
Mg4 O17 2.086672 1_555
Mg4 O12 2.100812 1_555
Mg4 O11 2.132189 1_655
Mg4 O16 2.154058 1_655
Mg4 O13 2.160644 1_555
Mg4 O3 2.207595 1_545
Mg5 O16 2.086672 1_555
Mg5 O15 2.100812 1_555
Mg5 O5 2.132189 1_545
Mg5 O7 2.154058 1_545
Mg5 O14 2.160644 1_555
Mg5 O8 2.207595 1_556
O0 S3 1.554181 1_565
O1 S5 1.554181 1_554
O2 S0 1.550321 1_555
O3 S1 1.556934 1_555
O4 S0 1.556934 1_555
O5 S2 1.550321 1_555
O6 S1 1.550321 1_555
O7 S1 1.554181 1_455
O8 S3 1.556934 1_555
O9 S2 1.556934 1_555
O10 S4 1.554181 1_655
O11 S4 1.550321 1_555
O12 S3 1.550321 1_555
O13 S5 1.556934 1_555
O14 S4 1.556934 1_555
O15 S5 1.550321 1_555
O16 S0 1.554181 1_556
O17 S2 1.554181 1_545
