# generated using pymatgen
data_Li4Mn2OF7
_symmetry_space_group_name_H-M   'P 1'
_cell_length_a   6.08941082
_cell_length_b   8.53942171
_cell_length_c   6.14099874
_cell_angle_alpha   88.58972091
_cell_angle_beta   88.46435914
_cell_angle_gamma   88.01668063
_symmetry_Int_Tables_number   1
_chemical_formula_structural   Li4Mn2OF7
_chemical_formula_sum   'Li8 Mn4 O2 F14'
_cell_volume   318.93664448
_cell_formula_units_Z   2
loop_
 _symmetry_equiv_pos_site_id
 _symmetry_equiv_pos_as_xyz
  1  'x, y, z'
loop_
 _atom_site_type_symbol
 _atom_site_label
 _atom_site_symmetry_multiplicity
 _atom_site_fract_x
 _atom_site_fract_y
 _atom_site_fract_z
 _atom_site_occupancy
  Li  Li0  1  0.74848200  0.74915800  0.75106700  1
  Li  Li1  1  0.24857200  0.24918100  0.25100900  1
  Li  Li2  1  0.99409000  0.49881200  0.01369900  1
  Li  Li3  1  0.49418700  0.99882000  0.51370900  1
  Li  Li4  1  0.24880900  0.89386600  0.00182300  1
  Li  Li5  1  0.74871200  0.39392800  0.50181200  1
  Li  Li6  1  0.25467700  0.61219000  0.48736900  1
  Li  Li7  1  0.75452900  0.11221800  0.98735100  1
  Mn  Mn0  1  0.24960800  0.23884900  0.75014200  1
  Mn  Mn1  1  0.51061600  0.49884300  0.01069800  1
  Mn  Mn2  1  0.74985900  0.73907400  0.25017200  1
  Mn  Mn3  1  0.01064500  0.99879500  0.51056000  1
  O  O0  1  0.74776800  0.52873700  0.24002300  1
  O  O1  1  0.24772300  0.02850000  0.74007900  1
  F  F0  1  0.74031900  0.98743100  0.72958700  1
  F  F1  1  0.24023300  0.48742700  0.22963700  1
  F  F2  1  0.51927700  0.75351000  0.48802700  1
  F  F3  1  0.01910000  0.25347400  0.98810100  1
  F  F4  1  0.75386600  0.97399000  0.25889500  1
  F  F5  1  0.25372200  0.47386200  0.75885700  1
  F  F6  1  0.99063200  0.74777100  0.50091400  1
  F  F7  1  0.49047200  0.24775900  0.00081300  1
  F  F8  1  0.50845600  0.75507900  0.99471800  1
  F  F9  1  0.00836000  0.25506500  0.49464500  1
  F  F10  1  0.97747200  0.74873200  0.00950000  1
  F  F11  1  0.47728200  0.24868800  0.50954800  1
  F  F12  1  0.75624500  0.51311700  0.76365300  1
  F  F13  1  0.25628800  0.01312000  0.26359600  1
loop_
_geom_bond_atom_site_label_1
_geom_bond_atom_site_label_2
_geom_bond_distance
_geom_bond_site_symmetry_2
Li2 O0 2.031276 1_555
Li3 O1 2.031840 1_565
Li4 O1 1.953091 1_564
Li5 O0 1.954159 1_555
Mn0 O1 1.799285 1_555
Mn1 O0 2.070294 1_555
Mn2 O0 1.799267 1_555
Mn3 O1 2.070542 1_565
F0 Li7 1.935310 1_565
F0 Li3 2.025689 1_555
F0 Li0 2.034716 1_555
F0 Mn3 2.101013 1_655
F1 Li6 1.935152 1_555
F1 Li2 2.025987 1_455
F1 Li1 2.034450 1_555
F1 Mn1 2.100971 1_555
F2 Mn2 2.001805 1_555
F2 Li6 2.046385 1_555
F2 Li3 2.104577 1_555
F2 Li0 2.161713 1_555
F3 Mn0 2.002044 1_555
F3 Li7 2.045927 1_455
F3 Li2 2.104747 1_456
F3 Li1 2.162188 1_556
F4 Mn2 2.009088 1_555
F4 Li7 2.019192 1_564
F4 Li3 2.203312 1_555
F4 Mn3 2.246523 1_655
F5 Mn0 2.009945 1_555
F5 Li6 2.019397 1_555
F5 Li2 2.203323 1_456
F5 Mn1 2.247996 1_556
F6 Li6 1.949711 1_655
F6 Li0 2.100618 1_555
F6 Mn3 2.153625 1_655
F6 Mn2 2.158780 1_555
F7 Li7 1.949559 1_554
F7 Li1 2.099768 1_555
F7 Mn1 2.154289 1_555
F7 Mn0 2.158986 1_554
F8 Li4 1.943071 1_556
F8 Li0 2.063751 1_555
F8 Mn2 2.177080 1_556
F8 Mn1 2.187493 1_556
F9 Li5 1.943459 1_455
F9 Li1 2.064460 1_555
F9 Mn0 2.176661 1_555
F9 Mn3 2.187754 1_545
F10 Mn2 2.001095 1_555
F10 Li4 2.098324 1_655
F10 Li2 2.132623 1_555
F10 Li0 2.140342 1_554
F11 Mn0 2.001074 1_555
F11 Li5 2.099335 1_555
F11 Li3 2.132205 1_545
F11 Li1 2.139670 1_555
F12 Li5 1.926480 1_555
F12 Li0 2.014200 1_555
F12 Mn1 2.106082 1_556
F12 Li2 2.137330 1_556
F13 Li4 1.926410 1_545
F13 Li1 2.014373 1_555
F13 Mn3 2.105821 1_545
F13 Li3 2.137860 1_545
