# generated using pymatgen
data_Li3V4(OF3)3
_symmetry_space_group_name_H-M   'P 1'
_cell_length_a   5.95624900
_cell_length_b   5.97361452
_cell_length_c   6.08676356
_cell_angle_alpha   99.09553969
_cell_angle_beta   99.68698386
_cell_angle_gamma   99.65221060
_symmetry_Int_Tables_number   1
_chemical_formula_structural   Li3V4(OF3)3
_chemical_formula_sum   'Li3 V4 O3 F9'
_cell_volume   206.55571779
_cell_formula_units_Z   1
loop_
 _symmetry_equiv_pos_site_id
 _symmetry_equiv_pos_as_xyz
  1  'x, y, z'
loop_
 _atom_site_type_symbol
 _atom_site_label
 _atom_site_symmetry_multiplicity
 _atom_site_fract_x
 _atom_site_fract_y
 _atom_site_fract_z
 _atom_site_occupancy
  Li  Li0  1  0.01579800  0.99190400  0.00742000  1
  Li  Li1  1  0.86385300  0.67055000  0.39123600  1
  Li  Li2  1  0.29046000  0.59278500  0.11420200  1
  V  V0  1  0.67090800  0.40483800  0.84228100  1
  V  V1  1  0.14015900  0.32662300  0.61097200  1
  V  V2  1  0.60706900  0.14909300  0.33617700  1
  V  V3  1  0.39647500  0.85381100  0.67502500  1
  O  O0  1  0.41296100  0.17084300  0.57219200  1
  O  O1  1  0.41237200  0.57596100  0.79866700  1
  O  O2  1  0.81922300  0.40673800  0.58142000  1
  F  F0  1  0.66461300  0.07436300  0.91462300  1
  F  F1  1  0.08655300  0.31171200  0.92684200  1
  F  F2  1  0.94342800  0.11281800  0.31332900  1
  F  F3  1  0.18633000  0.58326400  0.41178300  1
  F  F4  1  0.08303000  0.90755200  0.69254700  1
  F  F5  1  0.55898200  0.40981500  0.17281600  1
  F  F6  1  0.62417000  0.84440100  0.46640700  1
  F  F7  1  0.88653900  0.67630200  0.04835400  1
  F  F8  1  0.33707700  0.93662800  0.12370800  1
loop_
_geom_bond_atom_site_label_1
_geom_bond_atom_site_label_2
_geom_bond_distance
_geom_bond_site_symmetry_2
Li1 O2 2.105721 1_555
Li2 O1 2.158427 1_554
O0 V2 1.991885 1_555
O0 V1 2.031889 1_555
O0 V3 2.078725 1_545
O0 V0 2.172625 1_555
O1 V3 1.937476 1_555
O1 V0 1.990679 1_555
O1 V1 2.044828 1_555
O2 V0 1.943195 1_555
O2 V1 2.033171 1_655
O2 V2 2.044620 1_555
F0 V3 2.077608 1_545
F0 V0 2.085198 1_555
F0 Li0 2.230008 1_646
F1 Li2 1.959441 1_556
F1 V1 2.014340 1_555
F1 Li0 2.040499 1_546
F1 V0 2.612841 1_455
F2 Li0 2.030726 1_645
F2 V2 2.076024 1_555
F2 V1 2.082940 1_655
F3 Li2 2.016815 1_555
F3 Li1 2.062140 1_455
F3 V1 2.110542 1_555
F3 V3 2.138683 1_555
F4 V3 1.963956 1_555
F4 Li0 2.026839 1_556
F4 Li1 2.196767 1_455
F5 V2 2.009918 1_555
F5 Li2 2.096999 1_555
F5 V0 2.220837 1_554
F5 Li1 2.252842 1_555
F6 Li1 1.972994 1_555
F6 V3 2.009333 1_555
F6 V2 2.107764 1_565
F7 Li0 1.983798 1_655
F7 V0 1.992207 1_554
F7 Li1 2.119246 1_555
F8 V2 1.991526 1_565
F8 Li2 2.016203 1_555
F8 Li0 2.025320 1_555
