# generated using pymatgen
data_Bi12PbO19
_symmetry_space_group_name_H-M   'P 1'
_cell_length_a   9.05767483
_cell_length_b   9.05767483
_cell_length_c   9.05767471
_cell_angle_alpha   109.81767677
_cell_angle_beta   109.81767677
_cell_angle_gamma   109.81766740
_symmetry_Int_Tables_number   1
_chemical_formula_structural   Bi12PbO19
_chemical_formula_sum   'Bi12 Pb1 O19'
_cell_volume   564.58568458
_cell_formula_units_Z   1
loop_
 _symmetry_equiv_pos_site_id
 _symmetry_equiv_pos_as_xyz
  1  'x, y, z'
loop_
 _atom_site_type_symbol
 _atom_site_label
 _atom_site_symmetry_multiplicity
 _atom_site_fract_x
 _atom_site_fract_y
 _atom_site_fract_z
 _atom_site_occupancy
  Bi  Bi0  1  0.68072200  0.83294700  0.47674500  1
  Bi  Bi1  1  0.19453600  0.49275800  0.32194500  1
  Bi  Bi2  1  0.16291700  0.85640700  0.66144800  1
  Bi  Bi3  1  0.13891100  0.29687200  0.82451600  1
  Bi  Bi4  1  0.47674500  0.68072200  0.83294700  1
  Bi  Bi5  1  0.29687200  0.82451600  0.13891100  1
  Bi  Bi6  1  0.66144800  0.16291700  0.85640700  1
  Bi  Bi7  1  0.49275800  0.32194500  0.19453600  1
  Bi  Bi8  1  0.85640700  0.66144800  0.16291700  1
  Bi  Bi9  1  0.83294700  0.47674500  0.68072200  1
  Bi  Bi10  1  0.82451600  0.13891100  0.29687200  1
  Bi  Bi11  1  0.32194500  0.19453600  0.49275800  1
  Pb  Pb0  1  0.95935400  0.95935400  0.95935400  1
  O  O0  1  0.38789000  0.38789000  0.38789000  1
  O  O1  1  0.37493600  0.73622100  0.62509600  1
  O  O2  1  0.64768400  0.88498300  0.25687200  1
  O  O3  1  0.36785300  0.63193600  0.24818300  1
  O  O4  1  0.01904700  0.23930200  0.00398800  1
  O  O5  1  0.11657800  0.76111300  0.38045000  1
  O  O6  1  0.63100000  0.00225200  0.00196700  1
  O  O7  1  0.00225200  0.00196700  0.63100000  1
  O  O8  1  0.24818300  0.36785300  0.63193600  1
  O  O9  1  0.25687200  0.64768400  0.88498300  1
  O  O10  1  0.76111300  0.38045000  0.11657800  1
  O  O11  1  0.73622100  0.62509600  0.37493600  1
  O  O12  1  0.00196700  0.63100000  0.00225200  1
  O  O13  1  0.88498300  0.25687200  0.64768400  1
  O  O14  1  0.23930200  0.00398800  0.01904700  1
  O  O15  1  0.00398800  0.01904700  0.23930200  1
  O  O16  1  0.38045000  0.11657800  0.76111300  1
  O  O17  1  0.62509600  0.37493600  0.73622100  1
  O  O18  1  0.63193600  0.24818300  0.36785300  1
loop_
_geom_bond_atom_site_label_1
_geom_bond_atom_site_label_2
_geom_bond_distance
_geom_bond_site_symmetry_2
Bi0 O11 2.103873 1_555
Bi0 O2 2.146142 1_555
Bi0 O7 2.354761 1_665
Bi0 O3 2.366290 1_555
Bi1 O3 2.107219 1_555
Bi1 O0 2.264852 1_555
Bi1 O1 2.341224 1_555
Bi1 O4 2.455557 1_555
Bi1 O5 2.689183 1_555
Bi2 O16 2.110361 1_565
Bi2 O5 2.222515 1_555
Bi2 O7 2.281985 1_565
Bi2 O1 2.566054 1_555
Bi2 O14 2.770266 1_566
Bi3 O13 2.128444 1_455
Bi3 O7 2.202690 1_555
Bi3 O4 2.341111 1_556
Bi3 O8 2.436229 1_555
Bi3 O9 2.767575 1_555
Bi4 O1 2.103873 1_555
Bi4 O9 2.146142 1_555
Bi4 O6 2.354761 1_566
Bi4 O8 2.366290 1_555
Bi5 O9 2.128444 1_554
Bi5 O12 2.202690 1_555
Bi5 O14 2.341111 1_565
Bi5 O3 2.436229 1_555
Bi5 O2 2.767575 1_555
Bi6 O10 2.110361 1_556
Bi6 O16 2.222515 1_555
Bi6 O6 2.281986 1_556
Bi6 O17 2.566054 1_555
Bi6 O4 2.770266 1_656
Bi7 O18 2.107219 1_555
Bi7 O0 2.264852 1_555
Bi7 O11 2.341224 1_555
Bi7 O14 2.455557 1_555
Bi7 O10 2.689183 1_555
Bi8 O5 2.110361 1_655
Bi8 O10 2.222515 1_555
Bi8 O12 2.281986 1_655
Bi8 O11 2.566054 1_555
Bi8 O15 2.770266 1_665
Bi9 O17 2.103874 1_555
Bi9 O13 2.146142 1_555
Bi9 O12 2.354761 1_656
Bi9 O18 2.366289 1_555
Bi10 O2 2.128444 1_545
Bi10 O6 2.202690 1_555
Bi10 O15 2.341111 1_655
Bi10 O18 2.436228 1_555
Bi10 O13 2.767575 1_555
Bi11 O8 2.107219 1_555
Bi11 O0 2.264852 1_555
Bi11 O17 2.341224 1_555
Bi11 O15 2.455557 1_555
Bi11 O16 2.689183 1_555
O4 Pb0 2.261090 1_444
O14 Pb0 2.261090 1_444
O15 Pb0 2.261089 1_444
