# generated using pymatgen
data_CoBO3
_symmetry_space_group_name_H-M   'P 1'
_cell_length_a   5.16444533
_cell_length_b   5.16444533
_cell_length_c   9.91326240
_cell_angle_alpha   89.96197537
_cell_angle_beta   89.96197537
_cell_angle_gamma   118.69354621
_symmetry_Int_Tables_number   1
_chemical_formula_structural   CoBO3
_chemical_formula_sum   'Co4 B4 O12'
_cell_volume   231.93289533
_cell_formula_units_Z   4
loop_
 _symmetry_equiv_pos_site_id
 _symmetry_equiv_pos_as_xyz
  1  'x, y, z'
loop_
 _atom_site_type_symbol
 _atom_site_label
 _atom_site_symmetry_multiplicity
 _atom_site_fract_x
 _atom_site_fract_y
 _atom_site_fract_z
 _atom_site_occupancy
  Co  Co0  1  0.49806300  0.82230400  0.12422700  1
  Co  Co1  1  0.17769600  0.50193700  0.37577300  1
  Co  Co2  1  0.82230400  0.49806300  0.62422700  1
  Co  Co3  1  0.50193700  0.17769600  0.87577300  1
  B  B0  1  0.49697000  0.83621100  0.62405200  1
  B  B1  1  0.16378900  0.50303000  0.87594800  1
  B  B2  1  0.83621100  0.49697000  0.12405200  1
  B  B3  1  0.50303000  0.16378900  0.37594800  1
  O  O0  1  0.47949400  0.90039700  0.32748700  1
  O  O1  1  0.37885100  0.76893700  0.92622300  1
  O  O2  1  0.73896400  0.79470600  0.62507800  1
  O  O3  1  0.23106300  0.62114900  0.57377700  1
  O  O4  1  0.09960300  0.52050600  0.17251300  1
  O  O5  1  0.79470600  0.73896400  0.12507800  1
  O  O6  1  0.20529400  0.26103600  0.87492200  1
  O  O7  1  0.90039700  0.47949400  0.82748700  1
  O  O8  1  0.76893700  0.37885100  0.42622300  1
  O  O9  1  0.26103600  0.20529400  0.37492200  1
  O  O10  1  0.62114900  0.23106300  0.07377700  1
  O  O11  1  0.52050600  0.09960300  0.67251300  1
loop_
_geom_bond_atom_site_label_1
_geom_bond_atom_site_label_2
_geom_bond_distance
_geom_bond_site_symmetry_2
Co0 O5 1.779189 1_555
Co0 O4 1.952152 1_555
Co0 O10 1.954530 1_565
Co0 O1 2.036474 1_554
Co0 O0 2.066378 1_555
Co1 O9 1.779189 1_555
Co1 O0 1.952152 1_555
Co1 O8 1.954530 1_455
Co1 O3 2.036474 1_555
Co1 O4 2.066378 1_555
Co2 O2 1.779189 1_555
Co2 O11 1.952152 1_555
Co2 O3 1.954530 1_655
Co2 O8 2.036474 1_555
Co2 O7 2.066378 1_555
Co3 O6 1.779189 1_555
Co3 O7 1.952152 1_555
Co3 O1 1.954530 1_545
Co3 O10 2.036474 1_556
Co3 O11 2.066378 1_555
B0 O2 1.365728 1_555
B0 O3 1.380169 1_555
B0 O11 1.392151 1_565
B1 O6 1.365728 1_555
B1 O1 1.380169 1_555
B1 O7 1.392151 1_455
B2 O5 1.365728 1_555
B2 O10 1.380169 1_555
B2 O4 1.392151 1_655
B3 O9 1.365728 1_555
B3 O8 1.380169 1_555
B3 O0 1.392151 1_545
