# generated using pymatgen
data_Na3V2P2O10F
_symmetry_space_group_name_H-M   'P 1'
_cell_length_a   6.47986600
_cell_length_b   6.48215329
_cell_length_c   10.63429532
_cell_angle_alpha   89.72660031
_cell_angle_beta   89.69305383
_cell_angle_gamma   89.92680419
_symmetry_Int_Tables_number   1
_chemical_formula_structural   Na3V2P2O10F
_chemical_formula_sum   'Na6 V4 P4 O20 F2'
_cell_volume   446.66561597
_cell_formula_units_Z   2
loop_
 _symmetry_equiv_pos_site_id
 _symmetry_equiv_pos_as_xyz
  1  'x, y, z'
loop_
 _atom_site_type_symbol
 _atom_site_label
 _atom_site_symmetry_multiplicity
 _atom_site_fract_x
 _atom_site_fract_y
 _atom_site_fract_z
 _atom_site_occupancy
  Na  Na0  1  0.18416300  0.24784000  0.50160100  1
  Na  Na1  1  0.68415700  0.75041200  0.00149900  1
  Na  Na2  1  0.24063700  0.76705000  0.50022700  1
  Na  Na3  1  0.75912300  0.77427300  0.49762000  1
  Na  Na4  1  0.25060900  0.31430300  0.99844600  1
  Na  Na5  1  0.73598500  0.26320000  0.00003500  1
  V  V0  1  0.50300400  0.49399100  0.30106000  1
  V  V1  1  0.00487900  0.99427900  0.80164000  1
  V  V2  1  0.00535700  0.99494900  0.19854400  1
  V  V3  1  0.50385300  0.49472600  0.69900800  1
  P  P0  1  0.99739400  0.50211500  0.24953400  1
  P  P1  1  0.49808400  0.00193100  0.74926700  1
  P  P2  1  0.49702400  0.00284000  0.25061000  1
  P  P3  1  0.99660200  0.50278300  0.75056900  1
  O  O0  1  0.99601800  0.69113600  0.16049100  1
  O  O1  1  0.18894600  0.50156200  0.33742200  1
  O  O2  1  0.80785900  0.50184800  0.33870700  1
  O  O3  1  0.51025500  0.49406700  0.14344600  1
  O  O4  1  0.99947000  0.30988900  0.16255600  1
  O  O5  1  0.49509500  0.19196600  0.66087600  1
  O  O6  1  0.49142700  0.19061000  0.33978700  1
  O  O7  1  0.69000600  0.00144400  0.83680200  1
  O  O8  1  0.30893000  0.00188900  0.83868800  1
  O  O9  1  0.01201800  0.99260900  0.64408300  1
  O  O10  1  0.00615100  0.98704100  0.35612700  1
  O  O11  1  0.69103700  0.00404700  0.16375600  1
  O  O12  1  0.30999900  0.00583100  0.16061700  1
  O  O13  1  0.50094000  0.80962800  0.66202700  1
  O  O14  1  0.49760700  0.80844500  0.33700300  1
  O  O15  1  0.99218600  0.68985200  0.84016100  1
  O  O16  1  0.50540700  0.48975200  0.85663900  1
  O  O17  1  0.19023700  0.50422600  0.66332400  1
  O  O18  1  0.80927200  0.50472000  0.66077100  1
  O  O19  1  0.99704600  0.30880500  0.83704300  1
  F  F0  1  0.49206800  0.50696900  0.49994400  1
  F  F1  1  0.99215300  0.00796700  0.00006800  1
loop_
_geom_bond_atom_site_label_1
_geom_bond_atom_site_label_2
_geom_bond_distance
_geom_bond_site_symmetry_2
Na0 O1 2.392968 1_555
Na0 O17 2.397809 1_555
Na0 O9 2.497996 1_545
Na0 O10 2.575030 1_545
Na0 O6 2.651489 1_555
Na0 O5 2.662389 1_555
Na1 O7 2.385180 1_564
Na1 O11 2.389655 1_565
Na1 O3 2.504433 1_555
Na1 O16 2.572650 1_554
Na1 O15 2.655086 1_554
Na1 O0 2.668044 1_555
Na2 O14 2.413151 1_555
Na2 O13 2.432819 1_555
Na2 O17 2.446325 1_555
Na2 O1 2.471312 1_555
Na2 O9 2.581512 1_555
Na2 O10 2.586315 1_555
Na3 O14 2.421687 1_555
Na3 O13 2.424802 1_555
Na3 O2 2.468872 1_555
Na3 O18 2.478804 1_555
Na3 O10 2.586220 1_655
Na3 O9 2.677438 1_655
Na4 O4 2.379915 1_456
Na4 O19 2.382835 1_455
Na4 O16 2.501056 1_555
Na4 O3 2.572191 1_556
Na4 O12 2.663221 1_556
Na4 O8 2.674737 1_555
Na5 O11 2.430222 1_555
Na5 O19 2.432767 1_554
Na5 O7 2.452729 1_554
Na5 O4 2.455925 1_555
Na5 O3 2.587893 1_555
Na5 O16 2.590715 1_554
O0 P0 1.544984 1_555
O0 V2 2.013449 1_655
O1 P0 1.557749 1_455
O1 V0 2.069993 1_555
O2 P0 1.547628 1_555
O2 V0 2.018435 1_555
O3 V0 1.676518 1_555
O4 P0 1.555361 1_555
O4 V2 2.075596 1_645
O5 P1 1.546103 1_555
O5 V3 2.006822 1_555
O6 P2 1.546820 1_555
O6 V0 2.008711 1_555
O7 P1 1.557406 1_555
O7 V1 2.072846 1_645
O8 P1 1.547288 1_555
O8 V1 2.011997 1_545
O9 V1 1.675985 1_555
O10 V2 1.676359 1_555
O11 P2 1.556010 1_555
O11 V2 2.072740 1_645
O12 P2 1.548267 1_555
O12 V2 2.013960 1_545
O13 P1 1.557461 1_565
O13 V3 2.077019 1_555
O14 P2 1.555924 1_565
O14 V0 2.075875 1_555
O15 P3 1.545838 1_555
O15 V1 2.015190 1_655
O16 V3 1.676535 1_555
O17 P3 1.556502 1_455
O17 V3 2.070098 1_555
O18 P3 1.548490 1_555
O18 V3 2.019339 1_555
O19 P3 1.554246 1_555
O19 V1 2.075549 1_645
F0 V0 2.117868 1_555
F0 V3 2.119795 1_555
F0 Na2 2.342993 1_555
F0 Na3 2.450354 1_555
F0 Na0 2.609676 1_555
F1 V1 2.113593 1_644
F1 V2 2.114122 1_645
F1 Na5 2.342136 1_555
F1 Na4 2.599241 1_654
F1 Na1 2.603565 1_545
