# generated using pymatgen
data_GdTmO3
_symmetry_space_group_name_H-M   'P 1'
_cell_length_a   5.69140800
_cell_length_b   5.94978800
_cell_length_c   8.33352700
_cell_angle_alpha   90.00000000
_cell_angle_beta   90.00000000
_cell_angle_gamma   90.00000000
_symmetry_Int_Tables_number   1
_chemical_formula_structural   GdTmO3
_chemical_formula_sum   'Gd4 Tm4 O12'
_cell_volume   282.19548325
_cell_formula_units_Z   4
loop_
 _symmetry_equiv_pos_site_id
 _symmetry_equiv_pos_as_xyz
  1  'x, y, z'
loop_
 _atom_site_type_symbol
 _atom_site_label
 _atom_site_symmetry_multiplicity
 _atom_site_fract_x
 _atom_site_fract_y
 _atom_site_fract_z
 _atom_site_occupancy
  Gd  Gd0  1  0.98674100  0.05314600  0.25000000  1
  Gd  Gd1  1  0.48674100  0.44685400  0.75000000  1
  Gd  Gd2  1  0.51325900  0.55314600  0.25000000  1
  Gd  Gd3  1  0.01325900  0.94685400  0.75000000  1
  Tm  Tm0  1  0.50000000  0.00000000  0.00000000  1
  Tm  Tm1  1  0.50000000  0.00000000  0.50000000  1
  Tm  Tm2  1  0.00000000  0.50000000  0.00000000  1
  Tm  Tm3  1  0.00000000  0.50000000  0.50000000  1
  O  O0  1  0.63787500  0.06885100  0.75000000  1
  O  O1  1  0.18014800  0.18377500  0.57133100  1
  O  O2  1  0.18014800  0.18377500  0.92866900  1
  O  O3  1  0.68014800  0.31622500  0.07133100  1
  O  O4  1  0.68014800  0.31622500  0.42866900  1
  O  O5  1  0.13787500  0.43114900  0.25000000  1
  O  O6  1  0.86212500  0.56885100  0.75000000  1
  O  O7  1  0.31985200  0.68377500  0.92866900  1
  O  O8  1  0.31985200  0.68377500  0.57133100  1
  O  O9  1  0.81985200  0.81622500  0.07133100  1
  O  O10  1  0.81985200  0.81622500  0.42866900  1
  O  O11  1  0.36212500  0.93114900  0.25000000  1
loop_
_geom_bond_atom_site_label_1
_geom_bond_atom_site_label_2
_geom_bond_distance
_geom_bond_site_symmetry_2
Gd0 O11 2.256401 1_645
Gd0 O9 2.259688 1_545
Gd0 O10 2.259688 1_545
Gd0 O5 2.407915 1_655
Gd0 O3 2.777020 1_555
Gd0 O4 2.777020 1_555
Gd0 O2 2.997742 1_654
Gd0 O1 2.997742 1_655
Gd1 O6 2.256401 1_555
Gd1 O7 2.259688 1_555
Gd1 O8 2.259688 1_555
Gd1 O0 2.407915 1_555
Gd1 O2 2.777020 1_555
Gd1 O1 2.777020 1_555
Gd1 O4 2.997742 1_555
Gd1 O3 2.997742 1_556
Gd2 O5 2.256401 1_555
Gd2 O4 2.259688 1_555
Gd2 O3 2.259688 1_555
Gd2 O11 2.407915 1_555
Gd2 O9 2.777020 1_555
Gd2 O10 2.777020 1_555
Gd2 O7 2.997742 1_554
Gd2 O8 2.997742 1_555
Gd3 O0 2.256401 1_465
Gd3 O2 2.259688 1_565
Gd3 O1 2.259688 1_565
Gd3 O6 2.407915 1_455
Gd3 O8 2.777020 1_555
Gd3 O7 2.777020 1_555
Gd3 O10 2.997742 1_455
Gd3 O9 2.997742 1_456
O0 Tm1 2.263637 1_555
O0 Tm0 2.263637 1_556
O1 Tm1 2.205179 1_555
O1 Tm3 2.223629 1_555
O2 Tm0 2.205179 1_556
O2 Tm2 2.223629 1_556
O3 Tm2 2.205179 1_655
O3 Tm0 2.223629 1_555
O4 Tm3 2.205179 1_655
O4 Tm1 2.223629 1_555
O5 Tm2 2.263637 1_555
O5 Tm3 2.263637 1_555
O6 Tm3 2.263637 1_655
O6 Tm2 2.263637 1_656
O7 Tm2 2.205179 1_556
O7 Tm0 2.223629 1_566
O8 Tm3 2.205179 1_555
O8 Tm1 2.223629 1_565
O9 Tm0 2.205179 1_565
O9 Tm2 2.223629 1_655
O10 Tm1 2.205179 1_565
O10 Tm3 2.223629 1_655
O11 Tm0 2.263637 1_565
O11 Tm1 2.263637 1_565
