# generated using pymatgen
data_Na5GdO4
_symmetry_space_group_name_H-M   'P 1'
_cell_length_a   6.07286400
_cell_length_b   11.86886000
_cell_length_c   18.45776300
_cell_angle_alpha   90.00000000
_cell_angle_beta   90.00000000
_cell_angle_gamma   90.00000000
_symmetry_Int_Tables_number   1
_chemical_formula_structural   Na5GdO4
_chemical_formula_sum   'Na40 Gd8 O32'
_cell_volume   1330.39813605
_cell_formula_units_Z   8
loop_
 _symmetry_equiv_pos_site_id
 _symmetry_equiv_pos_as_xyz
  1  'x, y, z'
loop_
 _atom_site_type_symbol
 _atom_site_label
 _atom_site_symmetry_multiplicity
 _atom_site_fract_x
 _atom_site_fract_y
 _atom_site_fract_z
 _atom_site_occupancy
  Na  Na0  1  0.10249500  0.07953100  0.42648300  1
  Na  Na1  1  0.39750500  0.07953100  0.92648300  1
  Na  Na2  1  0.58966400  0.05809700  0.76006200  1
  Na  Na3  1  0.91033600  0.05809700  0.26006200  1
  Na  Na4  1  0.86651000  0.18838900  0.98980500  1
  Na  Na5  1  0.63349000  0.18838900  0.48980500  1
  Na  Na6  1  0.08510800  0.19811500  0.81772800  1
  Na  Na7  1  0.41489200  0.19811500  0.31772800  1
  Na  Na8  1  0.57113100  0.19890400  0.15122900  1
  Na  Na9  1  0.92886900  0.19890400  0.65122900  1
  Na  Na10  1  0.07113100  0.30109600  0.15122900  1
  Na  Na11  1  0.42886900  0.30109600  0.65122900  1
  Na  Na12  1  0.91489200  0.30188500  0.31772800  1
  Na  Na13  1  0.58510800  0.30188500  0.81772800  1
  Na  Na14  1  0.36651000  0.31161100  0.98980500  1
  Na  Na15  1  0.13349000  0.31161100  0.48980500  1
  Na  Na16  1  0.41033600  0.44190300  0.26006200  1
  Na  Na17  1  0.08966400  0.44190300  0.76006200  1
  Na  Na18  1  0.89750500  0.42046900  0.92648300  1
  Na  Na19  1  0.60249500  0.42046900  0.42648300  1
  Na  Na20  1  0.10249500  0.57953100  0.07351700  1
  Na  Na21  1  0.39750500  0.57953100  0.57351700  1
  Na  Na22  1  0.91033600  0.55809700  0.23993800  1
  Na  Na23  1  0.58966400  0.55809700  0.73993800  1
  Na  Na24  1  0.63349000  0.68838900  0.01019500  1
  Na  Na25  1  0.86651000  0.68838900  0.51019500  1
  Na  Na26  1  0.41489200  0.69811500  0.18227200  1
  Na  Na27  1  0.08510800  0.69811500  0.68227200  1
  Na  Na28  1  0.57113100  0.69890400  0.34877100  1
  Na  Na29  1  0.92886900  0.69890400  0.84877100  1
  Na  Na30  1  0.07113100  0.80109600  0.34877100  1
  Na  Na31  1  0.42886900  0.80109600  0.84877100  1
  Na  Na32  1  0.58510800  0.80188500  0.68227200  1
  Na  Na33  1  0.91489200  0.80188500  0.18227200  1
  Na  Na34  1  0.36651000  0.81161100  0.51019500  1
  Na  Na35  1  0.13349000  0.81161100  0.01019500  1
  Na  Na36  1  0.08966400  0.94190300  0.73993800  1
  Na  Na37  1  0.41033600  0.94190300  0.23993800  1
  Na  Na38  1  0.89750500  0.92046900  0.57351700  1
  Na  Na39  1  0.60249500  0.92046900  0.07351700  1
  Gd  Gd0  1  0.13580300  0.04285500  0.11529800  1
  Gd  Gd1  1  0.36419700  0.04285500  0.61529800  1
  Gd  Gd2  1  0.63580300  0.45714500  0.11529800  1
  Gd  Gd3  1  0.86419700  0.45714500  0.61529800  1
  Gd  Gd4  1  0.13580300  0.54285500  0.38470200  1
  Gd  Gd5  1  0.36419700  0.54285500  0.88470200  1
  Gd  Gd6  1  0.63580300  0.95714500  0.38470200  1
  Gd  Gd7  1  0.86419700  0.95714500  0.88470200  1
  O  O0  1  0.79050000  0.04901700  0.13531600  1
  O  O1  1  0.70950000  0.04901700  0.63531600  1
  O  O2  1  0.24667100  0.13626600  0.21067700  1
  O  O3  1  0.25332900  0.13626600  0.71067700  1
  O  O4  1  0.22316600  0.14679400  0.02405700  1
  O  O5  1  0.27683400  0.14679400  0.52405700  1
  O  O6  1  0.76196900  0.13491400  0.37124800  1
  O  O7  1  0.73803100  0.13491400  0.87124800  1
  O  O8  1  0.26196900  0.36508600  0.37124800  1
  O  O9  1  0.23803100  0.36508600  0.87124800  1
  O  O10  1  0.72316600  0.35320600  0.02405700  1
  O  O11  1  0.77683400  0.35320600  0.52405700  1
  O  O12  1  0.74667100  0.36373400  0.21067700  1
  O  O13  1  0.75332900  0.36373400  0.71067700  1
  O  O14  1  0.29050000  0.45098300  0.13531600  1
  O  O15  1  0.20950000  0.45098300  0.63531600  1
  O  O16  1  0.70950000  0.54901700  0.86468400  1
  O  O17  1  0.79050000  0.54901700  0.36468400  1
  O  O18  1  0.25332900  0.63626600  0.78932300  1
  O  O19  1  0.24667100  0.63626600  0.28932300  1
  O  O20  1  0.27683400  0.64679400  0.97594300  1
  O  O21  1  0.22316600  0.64679400  0.47594300  1
  O  O22  1  0.76196900  0.63491400  0.12875200  1
  O  O23  1  0.73803100  0.63491400  0.62875200  1
  O  O24  1  0.23803100  0.86508600  0.62875200  1
  O  O25  1  0.26196900  0.86508600  0.12875200  1
  O  O26  1  0.72316600  0.85320600  0.47594300  1
  O  O27  1  0.77683400  0.85320600  0.97594300  1
  O  O28  1  0.74667100  0.86373400  0.28932300  1
  O  O29  1  0.75332900  0.86373400  0.78932300  1
  O  O30  1  0.29050000  0.95098300  0.36468400  1
  O  O31  1  0.20950000  0.95098300  0.86468400  1
loop_
_geom_bond_atom_site_label_1
_geom_bond_atom_site_label_2
_geom_bond_distance
_geom_bond_site_symmetry_2
Na0 O30 2.220921 1_545
Na0 O5 2.236483 1_555
Na0 O6 2.397496 1_455
Na1 O31 2.220921 1_545
Na1 O4 2.236483 1_556
Na1 O7 2.397496 1_555
Na2 O1 2.417206 1_555
Na2 O7 2.419666 1_555
Na2 O3 2.421475 1_555
Na2 O29 2.569281 1_545
Na3 O0 2.417206 1_555
Na3 O6 2.419666 1_555
Na3 O2 2.421475 1_655
Na3 O28 2.569281 1_545
Na4 O10 2.232523 1_556
Na4 O4 2.309685 1_656
Na4 O7 2.408369 1_555
Na5 O11 2.232523 1_555
Na5 O5 2.309685 1_555
Na5 O6 2.408369 1_555
Na6 O3 2.342385 1_555
Na6 O9 2.401181 1_555
Na6 O7 2.445643 1_455
Na7 O2 2.342385 1_555
Na7 O8 2.401181 1_555
Na7 O6 2.445643 1_555
Na8 O0 2.241834 1_555
Na8 O2 2.374701 1_555
Na8 O12 2.483490 1_555
Na9 O1 2.241834 1_555
Na9 O3 2.374701 1_655
Na9 O13 2.483490 1_555
Na10 O14 2.241834 1_555
Na10 O12 2.374701 1_455
Na10 O2 2.483490 1_555
Na11 O15 2.241834 1_555
Na11 O13 2.374701 1_555
Na11 O3 2.483490 1_555
Na12 O12 2.342385 1_555
Na12 O6 2.401181 1_555
Na12 O8 2.445643 1_655
Na13 O13 2.342385 1_555
Na13 O7 2.401181 1_555
Na13 O9 2.445643 1_555
Na14 O4 2.232523 1_556
Na14 O10 2.309685 1_556
Na14 O9 2.408369 1_555
Na15 O5 2.232523 1_555
Na15 O11 2.309685 1_455
Na15 O8 2.408369 1_555
Na16 O14 2.417206 1_555
Na16 O8 2.419666 1_555
Na16 O12 2.421475 1_555
Na16 O19 2.569281 1_555
Na17 O15 2.417206 1_555
Na17 O9 2.419666 1_555
Na17 O13 2.421475 1_455
Na17 O18 2.569281 1_555
Na18 O16 2.220921 1_555
Na18 O10 2.236483 1_556
Na18 O9 2.397496 1_655
Na19 O17 2.220921 1_555
Na19 O11 2.236483 1_555
Na19 O8 2.397496 1_555
Na20 O14 2.220921 1_555
Na20 O20 2.236483 1_554
Na20 O22 2.397496 1_455
Na21 O15 2.220921 1_555
Na21 O21 2.236483 1_555
Na21 O23 2.397496 1_555
Na22 O17 2.417206 1_555
Na22 O22 2.419666 1_555
Na22 O19 2.421475 1_655
Na22 O12 2.569281 1_555
Na23 O16 2.417206 1_555
Na23 O23 2.419666 1_555
Na23 O18 2.421475 1_555
Na23 O13 2.569281 1_555
Na24 O27 2.232523 1_554
Na24 O20 2.309685 1_554
Na24 O22 2.408369 1_555
Na25 O26 2.232523 1_555
Na25 O21 2.309685 1_655
Na25 O23 2.408369 1_555
Na26 O19 2.342385 1_555
Na26 O25 2.401181 1_555
Na26 O22 2.445643 1_555
Na27 O18 2.342385 1_555
Na27 O24 2.401181 1_555
Na27 O23 2.445643 1_455
Na28 O17 2.241834 1_555
Na28 O19 2.374701 1_555
Na28 O28 2.483490 1_555
Na29 O16 2.241834 1_555
Na29 O18 2.374701 1_655
Na29 O29 2.483490 1_555
Na30 O30 2.241834 1_555
Na30 O28 2.374701 1_455
Na30 O19 2.483490 1_555
Na31 O31 2.241834 1_555
Na31 O29 2.374701 1_555
Na31 O18 2.483490 1_555
Na32 O29 2.342385 1_555
Na32 O23 2.401181 1_555
Na32 O24 2.445643 1_555
Na33 O28 2.342385 1_555
Na33 O22 2.401181 1_555
Na33 O25 2.445643 1_655
Na34 O21 2.232523 1_555
Na34 O26 2.309685 1_555
Na34 O24 2.408369 1_555
Na35 O20 2.232523 1_554
Na35 O27 2.309685 1_454
Na35 O25 2.408369 1_555
Na36 O31 2.417206 1_555
Na36 O24 2.419666 1_555
Na36 O29 2.421475 1_455
Na36 O3 2.569281 1_565
Na37 O30 2.417206 1_555
Na37 O25 2.419666 1_555
Na37 O28 2.421475 1_555
Na37 O2 2.569281 1_565
Na38 O1 2.220921 1_565
Na38 O26 2.236483 1_555
Na38 O24 2.397496 1_655
Na39 O0 2.220921 1_565
Na39 O27 2.236483 1_554
Na39 O25 2.397496 1_555
Gd0 O0 2.130537 1_455
Gd0 O4 2.153961 1_555
Gd0 O2 2.186731 1_555
Gd0 O25 2.258419 1_545
Gd1 O1 2.130537 1_555
Gd1 O5 2.153961 1_555
Gd1 O3 2.186731 1_555
Gd1 O24 2.258419 1_545
Gd2 O14 2.130537 1_555
Gd2 O10 2.153961 1_555
Gd2 O12 2.186731 1_555
Gd2 O22 2.258419 1_555
Gd3 O15 2.130537 1_655
Gd3 O11 2.153961 1_555
Gd3 O13 2.186731 1_555
Gd3 O23 2.258419 1_555
Gd4 O17 2.130537 1_455
Gd4 O21 2.153961 1_555
Gd4 O19 2.186731 1_555
Gd4 O8 2.258419 1_555
Gd5 O16 2.130537 1_555
Gd5 O20 2.153961 1_555
Gd5 O18 2.186731 1_555
Gd5 O9 2.258419 1_555
Gd6 O30 2.130537 1_555
Gd6 O26 2.153961 1_555
Gd6 O28 2.186731 1_555
Gd6 O6 2.258419 1_565
Gd7 O31 2.130537 1_655
Gd7 O27 2.153961 1_555
Gd7 O29 2.186731 1_555
Gd7 O7 2.258419 1_565
