# generated using pymatgen
data_Ca3B6(H4O5)4
_symmetry_space_group_name_H-M   'P 1'
_cell_length_a   8.15840265
_cell_length_b   8.15840265
_cell_length_c   13.62194827
_cell_angle_alpha   67.03443217
_cell_angle_beta   67.03443217
_cell_angle_gamma   72.05263599
_symmetry_Int_Tables_number   1
_chemical_formula_structural   Ca3B6(H4O5)4
_chemical_formula_sum   'Ca6 B12 H32 O40'
_cell_volume   755.53074064
_cell_formula_units_Z   2
loop_
 _symmetry_equiv_pos_site_id
 _symmetry_equiv_pos_as_xyz
  1  'x, y, z'
loop_
 _atom_site_type_symbol
 _atom_site_label
 _atom_site_symmetry_multiplicity
 _atom_site_fract_x
 _atom_site_fract_y
 _atom_site_fract_z
 _atom_site_occupancy
  Ca  Ca0  1  0.75126400  0.24873600  0.75000000  1
  Ca  Ca1  1  0.24873600  0.75126400  0.25000000  1
  Ca  Ca2  1  0.75259200  0.57060600  0.06946100  1
  Ca  Ca3  1  0.42939400  0.24740800  0.43053900  1
  Ca  Ca4  1  0.24740800  0.42939400  0.93053900  1
  Ca  Ca5  1  0.57060600  0.75259200  0.56946100  1
  B  B0  1  0.40121200  0.07702200  0.66799600  1
  B  B1  1  0.92297800  0.59878800  0.83200400  1
  B  B2  1  0.59878800  0.92297800  0.33200400  1
  B  B3  1  0.07702200  0.40121200  0.16799600  1
  B  B4  1  0.43088200  0.38225900  0.65777400  1
  B  B5  1  0.61774100  0.56911800  0.84222600  1
  B  B6  1  0.56911800  0.61774100  0.34222600  1
  B  B7  1  0.38225900  0.43088200  0.15777400  1
  B  B8  1  0.40625300  0.10571900  0.84337300  1
  B  B9  1  0.89428100  0.59374700  0.65662700  1
  B  B10  1  0.59374700  0.89428100  0.15662700  1
  B  B11  1  0.10571900  0.40625300  0.34337300  1
  H  H0  1  0.04113000  0.34886700  0.51280500  1
  H  H1  1  0.65113300  0.95887000  0.98719500  1
  H  H2  1  0.95887000  0.65113300  0.48719500  1
  H  H3  1  0.34886700  0.04113000  0.01280500  1
  H  H4  1  0.65941900  0.39011000  0.51792900  1
  H  H5  1  0.60989000  0.34058100  0.98207100  1
  H  H6  1  0.34058100  0.60989000  0.48207100  1
  H  H7  1  0.39011000  0.65941900  0.01792900  1
  H  H8  1  0.18383300  0.00396600  0.65801200  1
  H  H9  1  0.99603400  0.81616700  0.84198800  1
  H  H10  1  0.81616700  0.99603400  0.34198800  1
  H  H11  1  0.00396600  0.18383300  0.15801200  1
  H  H12  1  0.20654900  0.60124000  0.66638500  1
  H  H13  1  0.39876000  0.79345100  0.83361500  1
  H  H14  1  0.79345100  0.39876000  0.33361500  1
  H  H15  1  0.60124000  0.20654900  0.16638500  1
  H  H16  1  0.68856300  0.02823000  0.62836300  1
  H  H17  1  0.97177000  0.31143700  0.87163700  1
  H  H18  1  0.31143700  0.97177000  0.37163700  1
  H  H19  1  0.02823000  0.68856300  0.12836300  1
  H  H20  1  0.95649300  0.89071500  0.65729500  1
  H  H21  1  0.10928500  0.04350700  0.84270500  1
  H  H22  1  0.04350700  0.10928500  0.34270500  1
  H  H23  1  0.89071500  0.95649300  0.15729500  1
  H  H24  1  0.00654100  0.08366300  0.56441600  1
  H  H25  1  0.91633700  0.99345900  0.93558400  1
  H  H26  1  0.99345900  0.91633700  0.43558400  1
  H  H27  1  0.08366300  0.00654100  0.06441600  1
  H  H28  1  0.11914200  0.37387900  0.64399300  1
  H  H29  1  0.62612100  0.88085800  0.85600700  1
  H  H30  1  0.88085800  0.62612100  0.35600700  1
  H  H31  1  0.37387900  0.11914200  0.14399300  1
  O  O0  1  0.35963100  0.27779400  0.62117500  1
  O  O1  1  0.72220600  0.64036900  0.87882500  1
  O  O2  1  0.64036900  0.72220600  0.37882500  1
  O  O3  1  0.27779400  0.35963100  0.12117500  1
  O  O4  1  0.42001700  0.29869700  0.77815300  1
  O  O5  1  0.70130300  0.57998300  0.72184700  1
  O  O6  1  0.57998300  0.70130300  0.22184700  1
  O  O7  1  0.29869700  0.42001700  0.27815300  1
  O  O8  1  0.28086600  0.10160600  0.95841700  1
  O  O9  1  0.89839400  0.71913400  0.54158300  1
  O  O10  1  0.71913400  0.89839400  0.04158300  1
  O  O11  1  0.10160600  0.28086600  0.45841700  1
  O  O12  1  0.60920900  0.37070800  0.90489100  1
  O  O13  1  0.62929200  0.39079100  0.59510900  1
  O  O14  1  0.39079100  0.62929200  0.09510900  1
  O  O15  1  0.37070800  0.60920900  0.40489100  1
  O  O16  1  0.34194100  0.02148700  0.79140000  1
  O  O17  1  0.97851300  0.65805900  0.70860000  1
  O  O18  1  0.65805900  0.97851300  0.20860000  1
  O  O19  1  0.02148700  0.34194100  0.29140000  1
  O  O20  1  0.31493800  0.99341400  0.62613800  1
  O  O21  1  0.00658600  0.68506200  0.87386200  1
  O  O22  1  0.68506200  0.00658600  0.37386200  1
  O  O23  1  0.99341400  0.31493800  0.12613800  1
  O  O24  1  0.42469000  0.65867400  0.86816700  1
  O  O25  1  0.34132600  0.57531000  0.63183300  1
  O  O26  1  0.57531000  0.34132600  0.13183300  1
  O  O27  1  0.65867400  0.42469000  0.36816700  1
  O  O28  1  0.59226900  0.00233200  0.61472300  1
  O  O29  1  0.99766800  0.40773100  0.88527700  1
  O  O30  1  0.40773100  0.99766800  0.38527700  1
  O  O31  1  0.00233200  0.59226900  0.11472300  1
  O  O32  1  0.93891200  0.02440400  0.64328400  1
  O  O33  1  0.97559600  0.06108700  0.85671600  1
  O  O34  1  0.06108700  0.97559600  0.35671600  1
  O  O35  1  0.02440400  0.93891200  0.14328400  1
  O  O36  1  0.59166200  0.00939300  0.85482900  1
  O  O37  1  0.99060700  0.40833800  0.64517100  1
  O  O38  1  0.40833800  0.99060700  0.14517100  1
  O  O39  1  0.00939300  0.59166200  0.35482900  1
loop_
_geom_bond_atom_site_label_1
_geom_bond_atom_site_label_2
_geom_bond_distance
_geom_bond_site_symmetry_2
Ca0 O37 2.342544 1_555
Ca0 O36 2.342544 1_555
Ca0 O12 2.409275 1_555
Ca0 O13 2.409275 1_555
Ca0 O5 2.500161 1_555
Ca0 O4 2.500161 1_555
Ca0 O32 2.533618 1_555
Ca0 O33 2.533619 1_555
Ca1 O38 2.342544 1_555
Ca1 O39 2.342544 1_555
Ca1 O15 2.409275 1_555
Ca1 O14 2.409275 1_555
Ca1 O6 2.500161 1_555
Ca1 O7 2.500161 1_555
Ca1 O35 2.533618 1_555
Ca1 O34 2.533619 1_555
Ca2 O26 2.404360 1_555
Ca2 O31 2.418668 1_655
Ca2 O6 2.439194 1_555
Ca2 O23 2.491658 1_555
Ca2 O10 2.491735 1_555
Ca2 O1 2.528038 1_554
Ca2 O21 2.684696 1_654
Ca2 O14 2.742037 1_555
Ca3 O27 2.404360 1_555
Ca3 O30 2.418668 1_545
Ca3 O7 2.439194 1_555
Ca3 O22 2.491658 1_555
Ca3 O11 2.491735 1_555
Ca3 O0 2.528038 1_555
Ca3 O20 2.684696 1_545
Ca3 O15 2.742037 1_555
Ca4 O24 2.404360 1_555
Ca4 O29 2.418668 1_455
Ca4 O4 2.439194 1_555
Ca4 O21 2.491658 1_555
Ca4 O8 2.491735 1_555
Ca4 O3 2.528038 1_556
Ca4 O23 2.684696 1_456
Ca4 O12 2.742037 1_555
Ca5 O25 2.404360 1_555
Ca5 O28 2.418668 1_565
Ca5 O5 2.439194 1_555
Ca5 O20 2.491658 1_555
Ca5 O9 2.491735 1_555
Ca5 O2 2.528038 1_555
Ca5 O22 2.684696 1_565
Ca5 O13 2.742037 1_555
B0 O16 1.473513 1_555
B0 O20 1.482690 1_545
B0 O28 1.484776 1_555
B0 O0 1.488623 1_555
B1 O17 1.473513 1_555
B1 O21 1.482690 1_655
B1 O29 1.484776 1_555
B1 O1 1.488623 1_555
B2 O18 1.473513 1_555
B2 O22 1.482690 1_565
B2 O30 1.484776 1_555
B2 O2 1.488623 1_555
B3 O19 1.473513 1_555
B3 O23 1.482690 1_455
B3 O31 1.484776 1_555
B3 O3 1.488623 1_555
B4 O0 1.475078 1_555
B4 O25 1.482317 1_555
B4 O4 1.487616 1_555
B4 O13 1.516092 1_555
B5 O1 1.475078 1_555
B5 O24 1.482317 1_555
B5 O5 1.487616 1_555
B5 O12 1.516092 1_555
B6 O2 1.475078 1_555
B6 O27 1.482317 1_555
B6 O6 1.487616 1_555
B6 O15 1.516092 1_555
B7 O3 1.475078 1_555
B7 O26 1.482317 1_555
B7 O7 1.487616 1_555
B7 O14 1.516092 1_555
B8 O16 1.463045 1_555
B8 O4 1.490039 1_555
B8 O8 1.494180 1_555
B8 O36 1.511928 1_555
B9 O17 1.463045 1_555
B9 O5 1.490039 1_555
B9 O9 1.494180 1_555
B9 O37 1.511928 1_555
B10 O18 1.463045 1_555
B10 O6 1.490039 1_555
B10 O10 1.494180 1_555
B10 O38 1.511928 1_555
B11 O19 1.463045 1_555
B11 O7 1.490039 1_555
B11 O11 1.494180 1_555
B11 O39 1.511928 1_555
H0 O11 0.983312 1_555
H1 O10 0.983312 1_556
H2 O9 0.983312 1_555
H3 O8 0.983312 1_554
H4 O13 0.983783 1_555
H5 O12 0.983783 1_555
H6 O15 0.983783 1_555
H7 O14 0.983783 1_555
H8 O20 0.974682 1_545
H9 O21 0.974682 1_655
H10 O22 0.974682 1_565
H11 O23 0.974682 1_455
H12 O25 1.002901 1_555
H13 O24 1.002901 1_555
H14 O27 1.002901 1_555
H15 O26 1.002901 1_555
H16 O28 0.971174 1_555
H17 O29 0.971174 1_555
H18 O30 0.971174 1_555
H19 O31 0.971174 1_555
H20 O32 1.004544 1_565
H21 O33 1.004545 1_455
H22 O34 1.004545 1_545
H23 O35 1.004544 1_655
H24 O32 0.994418 1_455
H25 O33 0.994415 1_565
H26 O34 0.994415 1_655
H27 O35 0.994418 1_545
H28 O37 0.993802 1_455
H29 O36 0.993802 1_565
H30 O39 0.993802 1_655
H31 O38 0.993802 1_545
