# generated using pymatgen
data_RbInPHO5
_symmetry_space_group_name_H-M   'P 1'
_cell_length_a   9.54211000
_cell_length_b   9.54211000
_cell_length_c   11.37683700
_cell_angle_alpha   90.00000000
_cell_angle_beta   90.00000000
_cell_angle_gamma   90.00000000
_symmetry_Int_Tables_number   1
_chemical_formula_structural   RbInPHO5
_chemical_formula_sum   'Rb8 In8 P8 H8 O40'
_cell_volume   1035.88220677
_cell_formula_units_Z   8
loop_
 _symmetry_equiv_pos_site_id
 _symmetry_equiv_pos_as_xyz
  1  'x, y, z'
loop_
 _atom_site_type_symbol
 _atom_site_label
 _atom_site_symmetry_multiplicity
 _atom_site_fract_x
 _atom_site_fract_y
 _atom_site_fract_z
 _atom_site_occupancy
  Rb  Rb0  1  0.98429900  0.31612600  0.29630500  1
  Rb  Rb1  1  0.01570100  0.68387400  0.79630500  1
  Rb  Rb2  1  0.81612600  0.51570100  0.54630500  1
  Rb  Rb3  1  0.18387400  0.48429900  0.04630500  1
  Rb  Rb4  1  0.68387400  0.01570100  0.20369500  1
  Rb  Rb5  1  0.31612600  0.98429900  0.70369500  1
  Rb  Rb6  1  0.51570100  0.81612600  0.45369500  1
  Rb  Rb7  1  0.48429900  0.18387400  0.95369500  1
  In  In0  1  0.60020700  0.39979300  0.25000000  1
  In  In1  1  0.39979300  0.60020700  0.75000000  1
  In  In2  1  0.89979300  0.89979300  0.50000000  1
  In  In3  1  0.10020700  0.10020700  0.00000000  1
  In  In4  1  0.15333900  0.84666100  0.25000000  1
  In  In5  1  0.84666100  0.15333900  0.75000000  1
  In  In6  1  0.34666100  0.34666100  0.50000000  1
  In  In7  1  0.65333900  0.65333900  0.00000000  1
  P  P0  1  0.84012400  0.68450200  0.25341200  1
  P  P1  1  0.15987600  0.31549800  0.75341200  1
  P  P2  1  0.18450200  0.65987600  0.50341200  1
  P  P3  1  0.81549800  0.34012400  0.00341200  1
  P  P4  1  0.31549800  0.15987600  0.24658800  1
  P  P5  1  0.68450200  0.84012400  0.74658800  1
  P  P6  1  0.65987600  0.18450200  0.49658800  1
  P  P7  1  0.34012400  0.81549800  0.99658800  1
  H  H0  1  0.12191000  0.04081400  0.40669200  1
  H  H1  1  0.87809000  0.95918600  0.90669200  1
  H  H2  1  0.54081400  0.37809000  0.65669200  1
  H  H3  1  0.45918600  0.62191000  0.15669200  1
  H  H4  1  0.95918600  0.87809000  0.09330800  1
  H  H5  1  0.04081400  0.12191000  0.59330800  1
  H  H6  1  0.37809000  0.54081400  0.34330800  1
  H  H7  1  0.62191000  0.45918600  0.84330800  1
  O  O0  1  0.82806200  0.50128600  0.98956900  1
  O  O1  1  0.17193800  0.49871400  0.48956900  1
  O  O2  1  0.00128600  0.67193800  0.23956900  1
  O  O3  1  0.99871400  0.32806200  0.73956900  1
  O  O4  1  0.49871400  0.17193800  0.51043100  1
  O  O5  1  0.50128600  0.82806200  0.01043100  1
  O  O6  1  0.67193800  0.00128600  0.76043100  1
  O  O7  1  0.32806200  0.99871400  0.26043100  1
  O  O8  1  0.71559700  0.29864100  0.10701900  1
  O  O9  1  0.28440300  0.70135900  0.60701900  1
  O  O10  1  0.79864100  0.78440300  0.35701900  1
  O  O11  1  0.20135900  0.21559700  0.85701900  1
  O  O12  1  0.70135900  0.28440300  0.39298100  1
  O  O13  1  0.29864100  0.71559700  0.89298100  1
  O  O14  1  0.78440300  0.79864100  0.64298100  1
  O  O15  1  0.21559700  0.20135900  0.14298100  1
  O  O16  1  0.78044000  0.53721200  0.28234500  1
  O  O17  1  0.21956000  0.46278800  0.78234500  1
  O  O18  1  0.03721200  0.71956000  0.53234500  1
  O  O19  1  0.96278800  0.28044000  0.03234500  1
  O  O20  1  0.46278800  0.21956000  0.21765500  1
  O  O21  1  0.53721200  0.78044000  0.71765500  1
  O  O22  1  0.71956000  0.03721200  0.46765500  1
  O  O23  1  0.28044000  0.96278800  0.96765500  1
  O  O24  1  0.77574100  0.74874700  0.13923100  1
  O  O25  1  0.22425900  0.25125300  0.63923100  1
  O  O26  1  0.24874700  0.72425900  0.38923100  1
  O  O27  1  0.75125300  0.27574100  0.88923100  1
  O  O28  1  0.25125300  0.22425900  0.36076900  1
  O  O29  1  0.74874700  0.77574100  0.86076900  1
  O  O30  1  0.72425900  0.24874700  0.61076900  1
  O  O31  1  0.27574100  0.75125300  0.11076900  1
  O  O32  1  0.45512900  0.48543600  0.37627600  1
  O  O33  1  0.54487100  0.51456400  0.87627600  1
  O  O34  1  0.98543600  0.04487100  0.62627600  1
  O  O35  1  0.01456400  0.95512900  0.12627600  1
  O  O36  1  0.51456400  0.54487100  0.12372400  1
  O  O37  1  0.48543600  0.45512900  0.62372400  1
  O  O38  1  0.04487100  0.98543600  0.37372400  1
  O  O39  1  0.95512900  0.01456400  0.87372400  1
loop_
_geom_bond_atom_site_label_1
_geom_bond_atom_site_label_2
_geom_bond_distance
_geom_bond_site_symmetry_2
In0 O32 2.155956 1_555
In0 O36 2.155956 1_555
In0 O12 2.188611 1_555
In0 O8 2.188611 1_555
In0 O16 2.193754 1_555
In0 O20 2.193754 1_555
In1 O33 2.155956 1_555
In1 O37 2.155956 1_555
In1 O9 2.188611 1_555
In1 O13 2.188611 1_555
In1 O21 2.193754 1_555
In1 O17 2.193754 1_555
In2 O38 2.155956 1_655
In2 O34 2.155956 1_565
In2 O10 2.188611 1_555
In2 O14 2.188611 1_555
In2 O18 2.193754 1_655
In2 O22 2.193754 1_565
In3 O35 2.155956 1_545
In3 O39 2.155956 1_454
In3 O15 2.188611 1_555
In3 O11 2.188611 1_554
In3 O19 2.193754 1_455
In3 O23 2.193754 1_544
In4 O26 2.168424 1_555
In4 O31 2.168424 1_555
In4 O38 2.192277 1_555
In4 O35 2.192277 1_555
In4 O2 2.213336 1_555
In4 O7 2.213336 1_555
In5 O27 2.168424 1_555
In5 O30 2.168424 1_555
In5 O39 2.192277 1_555
In5 O34 2.192277 1_555
In5 O6 2.213336 1_555
In5 O3 2.213336 1_555
In6 O28 2.168424 1_555
In6 O25 2.168424 1_555
In6 O37 2.192277 1_555
In6 O32 2.192277 1_555
In6 O4 2.213336 1_555
In6 O1 2.213336 1_555
In7 O24 2.168424 1_555
In7 O29 2.168424 1_554
In7 O33 2.192277 1_554
In7 O36 2.192277 1_555
In7 O0 2.213336 1_554
In7 O5 2.213336 1_555
H0 O38 0.979951 1_545
H1 O39 0.979951 1_565
H2 O37 0.979951 1_555
H3 O36 0.979951 1_555
H4 O35 0.979951 1_655
H5 O34 0.979951 1_455
H6 O32 0.979951 1_555
H7 O33 0.979951 1_555
O0 P3 1.550511 1_556
O0 Rb1 3.328023 1_655
O1 P2 1.550511 1_555
O1 Rb0 3.328023 1_455
O2 P0 1.550511 1_455
O2 Rb3 3.328023 1_555
O3 P1 1.550511 1_655
O3 Rb2 3.328023 1_555
O4 P6 1.550511 1_555
O4 Rb5 3.328023 1_545
O5 P7 1.550511 1_554
O5 Rb4 3.328023 1_565
O6 P5 1.550511 1_545
O6 Rb7 3.328023 1_555
O7 P4 1.550511 1_565
O7 Rb6 3.328023 1_555
O8 P3 1.566775 1_555
O8 Rb4 2.930955 1_555
O8 Rb7 3.018804 1_554
O9 P2 1.566775 1_555
O9 Rb5 2.930955 1_555
O9 Rb6 3.018804 1_555
O10 P0 1.566775 1_555
O10 Rb6 2.930955 1_555
O10 Rb4 3.018804 1_565
O11 P1 1.566775 1_555
O11 Rb7 2.930955 1_555
O11 Rb5 3.018804 1_545
O12 P6 1.566775 1_555
O12 Rb0 2.930955 1_555
O12 Rb2 3.018804 1_555
O13 P7 1.566775 1_555
O13 Rb1 2.930955 1_555
O13 Rb3 3.018804 1_556
O14 P5 1.566775 1_555
O14 Rb2 2.930955 1_555
O14 Rb1 3.018804 1_655
O15 P4 1.566775 1_555
O15 Rb3 2.930955 1_555
O15 Rb0 3.018804 1_455
O16 P0 1.551774 1_555
O16 Rb0 2.873974 1_555
O16 Rb2 3.029237 1_555
O17 P1 1.551774 1_555
O17 Rb1 2.873974 1_555
O17 Rb3 3.029237 1_556
O18 P2 1.551774 1_555
O18 Rb2 2.873974 1_455
O18 Rb1 3.029237 1_555
O19 P3 1.551774 1_555
O19 Rb3 2.873974 1_655
O19 Rb0 3.029237 1_555
O20 P4 1.551774 1_555
O20 Rb4 2.873974 1_555
O20 Rb7 3.029237 1_554
O21 P5 1.551774 1_555
O21 Rb5 2.873974 1_555
O21 Rb6 3.029237 1_555
O22 P6 1.551774 1_555
O22 Rb6 2.873974 1_545
O22 Rb4 3.029237 1_555
O23 P7 1.551774 1_555
O23 Rb7 2.873974 1_565
O23 Rb5 3.029237 1_555
O24 P0 1.562269 1_555
O24 Rb4 2.791965 1_565
O25 P1 1.562269 1_555
O25 Rb5 2.791965 1_545
O26 P2 1.562269 1_555
O26 Rb6 2.791965 1_555
O27 P3 1.562269 1_556
O27 Rb7 2.791965 1_555
O28 P4 1.562269 1_555
O28 Rb0 2.791965 1_455
O29 P5 1.562269 1_555
O29 Rb1 2.791965 1_655
O30 P6 1.562269 1_555
O30 Rb2 2.791965 1_555
O31 P7 1.562269 1_554
O31 Rb3 2.791965 1_555
