# generated using pymatgen
data_Sb2Au
_symmetry_space_group_name_H-M   'P 1'
_cell_length_a   6.73569078
_cell_length_b   6.73569078
_cell_length_c   6.73569078
_cell_angle_alpha   90.00000000
_cell_angle_beta   90.00000000
_cell_angle_gamma   90.00000000
_symmetry_Int_Tables_number   1
_chemical_formula_structural   Sb2Au
_chemical_formula_sum   'Sb8 Au4'
_cell_volume   305.59512683
_cell_formula_units_Z   4
loop_
 _symmetry_equiv_pos_site_id
 _symmetry_equiv_pos_as_xyz
  1  'x, y, z'
loop_
 _atom_site_type_symbol
 _atom_site_label
 _atom_site_symmetry_multiplicity
 _atom_site_fract_x
 _atom_site_fract_y
 _atom_site_fract_z
 _atom_site_occupancy
  Sb  Sb0  1  0.37644093  0.12355907  0.87644093  1
  Sb  Sb1  1  0.12355907  0.87644093  0.37644093  1
  Sb  Sb2  1  0.87644093  0.37644093  0.12355907  1
  Sb  Sb3  1  0.62355907  0.62355907  0.62355907  1
  Sb  Sb4  1  0.37644093  0.37644093  0.37644093  1
  Sb  Sb5  1  0.12355907  0.62355907  0.87644093  1
  Sb  Sb6  1  0.87644093  0.12355907  0.62355907  1
  Sb  Sb7  1  0.62355907  0.87644093  0.12355907  1
  Au  Au0  1  -0.00000000  0.50000000  0.50000000  1
  Au  Au1  1  0.50000000  0.50000000  -0.00000000  1
  Au  Au2  1  0.50000000  -0.00000000  0.50000000  1
  Au  Au3  1  -0.00000000  -0.00000000  -0.00000000  1
loop_
_geom_bond_atom_site_label_1
_geom_bond_atom_site_label_2
_geom_bond_distance
_geom_bond_site_symmetry_2
Sb0 Sb7 2.883018 1_546
Sb1 Sb6 2.883018 1_465
Sb2 Sb5 2.883018 1_654
Sb3 Sb4 2.883018 1_555
Au0 Sb2 2.795445 1_455
Au0 Sb1 2.795445 1_555
Au0 Sb6 2.795445 1_455
Au0 Sb5 2.795445 1_555
Au0 Sb3 2.795445 1_455
Au0 Sb4 2.795445 1_555
Au1 Sb7 2.795445 1_555
Au1 Sb5 2.795445 1_554
Au1 Sb3 2.795445 1_554
Au1 Sb2 2.795445 1_555
Au1 Sb0 2.795445 1_554
Au1 Sb4 2.795445 1_555
Au2 Sb7 2.795445 1_545
Au2 Sb1 2.795445 1_545
Au2 Sb3 2.795445 1_545
Au2 Sb6 2.795445 1_555
Au2 Sb0 2.795445 1_555
Au2 Sb4 2.795445 1_555
Au3 Sb2 2.795445 1_455
Au3 Sb1 2.795445 1_545
Au3 Sb6 2.795445 1_454
Au3 Sb7 2.795445 1_445
Au3 Sb0 2.795445 1_554
Au3 Sb5 2.795445 1_544
