# generated using pymatgen
data_Na2V2(PO4)3
_symmetry_space_group_name_H-M   'P 1'
_cell_length_a   9.05514500
_cell_length_b   8.61364300
_cell_length_c   15.05210361
_cell_angle_alpha   55.22801614
_cell_angle_beta   90.00000000
_cell_angle_gamma   90.00000000
_symmetry_Int_Tables_number   1
_chemical_formula_structural   Na2V2(PO4)3
_chemical_formula_sum   'Na8 V8 P12 O48'
_cell_volume   964.38194586
_cell_formula_units_Z   4
loop_
 _symmetry_equiv_pos_site_id
 _symmetry_equiv_pos_as_xyz
  1  'x, y, z'
loop_
 _atom_site_type_symbol
 _atom_site_label
 _atom_site_symmetry_multiplicity
 _atom_site_fract_x
 _atom_site_fract_y
 _atom_site_fract_z
 _atom_site_occupancy
  Na  Na0  1  0.80008400  0.96880900  0.83622900  1
  Na  Na1  1  0.70894000  0.59975600  0.17634100  1
  Na  Na2  1  0.20894000  0.40024400  0.32365900  1
  Na  Na3  1  0.30008400  0.03119100  0.66377100  1
  Na  Na4  1  0.69991600  0.96880900  0.33622900  1
  Na  Na5  1  0.79106000  0.59975600  0.67634100  1
  Na  Na6  1  0.29106000  0.40024400  0.82365900  1
  Na  Na7  1  0.19991600  0.03119100  0.16377100  1
  V  V0  1  0.53398500  0.35538700  0.39403500  1
  V  V1  1  0.96458800  0.14566300  0.60818200  1
  V  V2  1  0.03398500  0.64461300  0.10596500  1
  V  V3  1  0.46458800  0.85433700  0.89181800  1
  V  V4  1  0.53541200  0.14566300  0.10818200  1
  V  V5  1  0.96601500  0.35538700  0.89403500  1
  V  V6  1  0.03541200  0.85433700  0.39181800  1
  V  V7  1  0.46601500  0.64461300  0.60596500  1
  P  P0  1  0.24856200  0.46888500  0.50303900  1
  P  P1  1  0.38871400  0.74809900  0.14546600  1
  P  P2  1  0.11500000  0.03637100  0.85212900  1
  P  P3  1  0.88871400  0.25190100  0.35453400  1
  P  P4  1  0.61500000  0.96362900  0.64787100  1
  P  P5  1  0.74856200  0.53111500  0.99696100  1
  P  P6  1  0.25143800  0.46888500  0.00303900  1
  P  P7  1  0.38500000  0.03637100  0.35212900  1
  P  P8  1  0.11128600  0.74809900  0.64546600  1
  P  P9  1  0.88500000  0.96362900  0.14787100  1
  P  P10  1  0.61128600  0.25190100  0.85453400  1
  P  P11  1  0.75143800  0.53111500  0.49696100  1
  O  O0  1  0.67276900  0.51666500  0.41173500  1
  O  O1  1  0.85722800  0.35828500  0.57130200  1
  O  O2  1  0.89363500  0.80123700  0.13232400  1
  O  O3  1  0.57548400  0.07894600  0.84919300  1
  O  O4  1  0.35294600  0.45954700  0.42670500  1
  O  O5  1  0.44025400  0.80141100  0.03400300  1
  O  O6  1  0.22067600  0.71394700  0.16313800  1
  O  O7  1  0.01612400  0.08518200  0.75475800  1
  O  O8  1  0.15190900  0.28858900  0.56130500  1
  O  O9  1  0.04855800  0.85427800  0.95145700  1
  O  O10  1  0.27808700  0.01206800  0.82980800  1
  O  O11  1  0.47836700  0.57515400  0.23316400  1
  O  O12  1  0.97836700  0.42484600  0.26683600  1
  O  O13  1  0.77808700  0.98793200  0.67019200  1
  O  O14  1  0.54855800  0.14572200  0.54854300  1
  O  O15  1  0.65190900  0.71141100  0.93869500  1
  O  O16  1  0.51612400  0.91481800  0.74524200  1
  O  O17  1  0.72067600  0.28605300  0.33686200  1
  O  O18  1  0.94025400  0.19858900  0.46599700  1
  O  O19  1  0.85294600  0.54045300  0.07329500  1
  O  O20  1  0.07548400  0.92105400  0.65080700  1
  O  O21  1  0.39363500  0.19876300  0.36767600  1
  O  O22  1  0.35722800  0.64171500  0.92869800  1
  O  O23  1  0.17276900  0.48333500  0.08826500  1
  O  O24  1  0.82723100  0.51666500  0.91173500  1
  O  O25  1  0.64277200  0.35828500  0.07130200  1
  O  O26  1  0.60636500  0.80123700  0.63232400  1
  O  O27  1  0.92451600  0.07894600  0.34919300  1
  O  O28  1  0.14705400  0.45954700  0.92670500  1
  O  O29  1  0.05974600  0.80141100  0.53400300  1
  O  O30  1  0.27932400  0.71394700  0.66313800  1
  O  O31  1  0.48387600  0.08518200  0.25475800  1
  O  O32  1  0.34809100  0.28858900  0.06130500  1
  O  O33  1  0.45144200  0.85427800  0.45145700  1
  O  O34  1  0.22191300  0.01206800  0.32980800  1
  O  O35  1  0.02163300  0.57515400  0.73316400  1
  O  O36  1  0.52163300  0.42484600  0.76683600  1
  O  O37  1  0.72191300  0.98793200  0.17019200  1
  O  O38  1  0.95144200  0.14572200  0.04854300  1
  O  O39  1  0.84809100  0.71141100  0.43869500  1
  O  O40  1  0.98387600  0.91481800  0.24524200  1
  O  O41  1  0.77932400  0.28605300  0.83686200  1
  O  O42  1  0.55974600  0.19858900  0.96599700  1
  O  O43  1  0.64705400  0.54045300  0.57329500  1
  O  O44  1  0.42451600  0.92105400  0.15080700  1
  O  O45  1  0.10636500  0.19876300  0.86767600  1
  O  O46  1  0.14277200  0.64171500  0.42869800  1
  O  O47  1  0.32723100  0.48333500  0.58826500  1
loop_
_geom_bond_atom_site_label_1
_geom_bond_atom_site_label_2
_geom_bond_distance
_geom_bond_site_symmetry_2
Na0 O7 2.221155 1_665
Na0 O15 2.279106 1_555
Na0 O3 2.299024 1_565
Na0 O13 2.417288 1_555
Na0 O9 2.663108 1_655
Na0 O41 2.744517 1_565
Na1 O11 2.220118 1_555
Na1 O2 2.221800 1_555
Na1 O19 2.295831 1_555
Na1 O17 2.388257 1_555
Na2 O12 2.220118 1_455
Na2 O21 2.221800 1_555
Na2 O4 2.295831 1_555
Na2 O6 2.388257 1_555
Na3 O16 2.221155 1_545
Na3 O8 2.279106 1_555
Na3 O20 2.299024 1_545
Na3 O10 2.417288 1_555
Na3 O14 2.663108 1_555
Na3 O30 2.744517 1_545
Na4 O31 2.221155 1_565
Na4 O39 2.279106 1_555
Na4 O27 2.299024 1_565
Na4 O37 2.417288 1_555
Na4 O33 2.663108 1_555
Na4 O17 2.744517 1_565
Na5 O35 2.220118 1_655
Na5 O26 2.221800 1_555
Na5 O43 2.295831 1_555
Na5 O41 2.388257 1_555
Na6 O36 2.220118 1_555
Na6 O45 2.221800 1_555
Na6 O28 2.295831 1_555
Na6 O30 2.388257 1_555
Na7 O40 2.221155 1_445
Na7 O32 2.279106 1_555
Na7 O44 2.299024 1_545
Na7 O34 2.417288 1_555
Na7 O38 2.663108 1_455
Na7 O6 2.744517 1_545
O0 P11 1.533208 1_555
O0 V0 2.000577 1_555
O1 P11 1.576679 1_555
O1 V1 1.856830 1_555
O2 P9 1.546237 1_555
O2 V2 2.050170 1_655
O3 P10 1.570858 1_555
O3 V3 1.935779 1_545
O4 P0 1.524953 1_555
O4 V0 2.058505 1_555
O5 P1 1.537776 1_555
O5 V3 1.929738 1_554
O6 P1 1.543805 1_555
O6 V2 2.131037 1_555
O7 P2 1.556800 1_555
O7 V1 2.011422 1_455
O8 P0 1.547071 1_555
O8 V1 1.974801 1_455
O9 P2 1.543575 1_565
O9 V2 1.974074 1_556
O10 P2 1.554926 1_555
O10 V3 2.030435 1_545
O11 P1 1.541995 1_555
O11 V0 2.114734 1_555
O12 P3 1.541995 1_555
O12 V2 2.114734 1_655
O13 P4 1.554926 1_555
O13 V1 2.030435 1_565
O14 P4 1.543575 1_545
O14 V0 1.974074 1_555
O15 P5 1.547071 1_555
O15 V3 1.974801 1_555
O16 P4 1.556800 1_555
O16 V3 2.011422 1_555
O17 P3 1.543805 1_555
O17 V0 2.131037 1_555
O18 P3 1.537776 1_555
O18 V1 1.929738 1_555
O19 P5 1.524953 1_554
O19 V2 2.058505 1_655
O20 P8 1.570858 1_555
O20 V1 1.935779 1_465
O21 P7 1.546237 1_555
O21 V0 2.050170 1_555
O22 P6 1.576679 1_556
O22 V3 1.856830 1_555
O23 P6 1.533208 1_555
O23 V2 2.000577 1_555
O24 P5 1.533208 1_555
O24 V5 2.000577 1_555
O25 P5 1.576679 1_554
O25 V4 1.856830 1_555
O26 P4 1.546237 1_555
O26 V7 2.050170 1_555
O27 P3 1.570858 1_555
O27 V6 1.935779 1_645
O28 P6 1.524953 1_556
O28 V5 2.058505 1_455
O29 P8 1.537776 1_555
O29 V6 1.929738 1_555
O30 P8 1.543805 1_555
O30 V7 2.131037 1_555
O31 P7 1.556800 1_555
O31 V4 2.011422 1_555
O32 P6 1.547071 1_555
O32 V4 1.974801 1_555
O33 P7 1.543575 1_565
O33 V7 1.974074 1_555
O34 P7 1.554926 1_555
O34 V6 2.030435 1_545
O35 P8 1.541995 1_555
O35 V5 2.114734 1_455
O36 P10 1.541995 1_555
O36 V7 2.114734 1_555
O37 P9 1.554926 1_555
O37 V4 2.030435 1_565
O38 P9 1.543575 1_545
O38 V5 1.974074 1_554
O39 P11 1.547071 1_555
O39 V6 1.974801 1_655
O40 P9 1.556800 1_555
O40 V6 2.011422 1_655
O41 P10 1.543805 1_555
O41 V5 2.131037 1_555
O42 P10 1.537776 1_555
O42 V4 1.929738 1_556
O43 P11 1.524953 1_555
O43 V7 2.058505 1_555
O44 P1 1.570858 1_555
O44 V4 1.935779 1_565
O45 P2 1.546237 1_555
O45 V5 2.050170 1_455
O46 P0 1.576679 1_555
O46 V6 1.856830 1_555
O47 P0 1.533208 1_555
O47 V7 2.000577 1_555
