# generated using pymatgen
data_Li3Fe2(SiO4)2
_symmetry_space_group_name_H-M   'P 1'
_cell_length_a   11.31618700
_cell_length_b   5.17400700
_cell_length_c   6.10516468
_cell_angle_alpha   88.82778425
_cell_angle_beta   90.00000000
_cell_angle_gamma   90.00000000
_symmetry_Int_Tables_number   1
_chemical_formula_structural   Li3Fe2(SiO4)2
_chemical_formula_sum   'Li6 Fe4 Si4 O16'
_cell_volume   357.38277155
_cell_formula_units_Z   2
loop_
 _symmetry_equiv_pos_site_id
 _symmetry_equiv_pos_as_xyz
  1  'x, y, z'
loop_
 _atom_site_type_symbol
 _atom_site_label
 _atom_site_symmetry_multiplicity
 _atom_site_fract_x
 _atom_site_fract_y
 _atom_site_fract_z
 _atom_site_occupancy
  Li  Li0  1  0.83415100  0.55196400  0.75760900  1
  Li  Li1  1  0.33415100  0.44803600  0.24239100  1
  Li  Li2  1  0.17182900  0.96184800  0.24139900  1
  Li  Li3  1  0.66965800  0.05242500  0.24294300  1
  Li  Li4  1  0.67182900  0.03815200  0.75860100  1
  Li  Li5  1  0.16965800  0.94757500  0.75705700  1
  Fe  Fe0  1  0.57322200  0.43863900  0.50048000  1
  Fe  Fe1  1  0.07322200  0.56136100  0.49952000  1
  Fe  Fe2  1  0.42428500  0.06769700  0.97389600  1
  Fe  Fe3  1  0.92428500  0.93230300  0.02610400  1
  Si  Si0  1  0.40928500  0.93675500  0.49169700  1
  Si  Si1  1  0.90928500  0.06324500  0.50830300  1
  Si  Si2  1  0.58489700  0.56489800  0.00516700  1
  Si  Si3  1  0.08489700  0.43510200  0.99483300  1
  O  O0  1  0.83806300  0.95182900  0.72478200  1
  O  O1  1  0.33351200  0.99295300  0.70986000  1
  O  O2  1  0.93377400  0.37689400  0.53380800  1
  O  O3  1  0.54530200  0.06953800  0.50921600  1
  O  O4  1  0.43377400  0.62310600  0.46619200  1
  O  O5  1  0.04530200  0.93046200  0.49078400  1
  O  O6  1  0.83351200  0.00704700  0.29014000  1
  O  O7  1  0.33806300  0.04817100  0.27521800  1
  O  O8  1  0.15701100  0.53592600  0.22248300  1
  O  O9  1  0.65334500  0.45080800  0.22794700  1
  O  O10  1  0.45112800  0.45369600  0.00419600  1
  O  O11  1  0.95112800  0.54630400  0.99580400  1
  O  O12  1  0.58917900  0.88331200  0.00422100  1
  O  O13  1  0.08917900  0.11668800  0.99577900  1
  O  O14  1  0.65701100  0.46407400  0.77751700  1
  O  O15  1  0.15334500  0.54919200  0.77205300  1
loop_
_geom_bond_atom_site_label_1
_geom_bond_atom_site_label_2
_geom_bond_distance
_geom_bond_site_symmetry_2
Li0 O11 1.966250 1_555
Li0 O2 2.002236 1_555
Li0 O14 2.058524 1_555
Li0 O0 2.074976 1_555
Li1 O10 1.966250 1_555
Li1 O4 2.002236 1_555
Li1 O8 2.058524 1_555
Li1 O7 2.074976 1_555
Li2 O13 1.927714 1_564
Li2 O7 1.945393 1_565
Li2 O5 2.093904 1_555
Li2 O8 2.215460 1_555
Li3 O6 1.890357 1_555
Li3 O12 1.941987 1_545
Li3 O9 2.069646 1_555
Li3 O3 2.153311 1_555
Li4 O12 1.927714 1_546
Li4 O0 1.945393 1_545
Li4 O3 2.093904 1_555
Li4 O14 2.215460 1_555
Li5 O1 1.890357 1_555
Li5 O13 1.941987 1_565
Li5 O15 2.069646 1_555
Li5 O5 2.153311 1_555
Fe0 O4 1.853843 1_555
Fe0 O9 1.894778 1_555
Fe0 O3 1.935348 1_555
Fe0 O14 1.945801 1_555
Fe1 O2 1.853843 1_455
Fe1 O15 1.894778 1_555
Fe1 O5 1.935348 1_555
Fe1 O8 1.945801 1_555
Fe2 O1 1.956707 1_545
Fe2 O10 2.032304 1_556
Fe2 O7 2.082980 1_556
Fe2 O12 2.102150 1_546
Fe3 O6 1.956707 1_565
Fe3 O11 2.032304 1_554
Fe3 O0 2.082980 1_554
Fe3 O13 2.102150 1_664
O0 Si1 1.642391 1_565
O1 Si0 1.615440 1_555
O2 Si1 1.656784 1_555
O3 Si0 1.689840 1_545
O4 Si0 1.656784 1_555
O5 Si1 1.689840 1_465
O6 Si1 1.615440 1_555
O7 Si0 1.642391 1_545
O8 Si3 1.702763 1_554
O9 Si2 1.662968 1_555
O10 Si2 1.619465 1_555
O11 Si3 1.619465 1_655
O12 Si2 1.648081 1_555
O13 Si3 1.648081 1_555
O14 Si2 1.702763 1_556
O15 Si3 1.662968 1_555
