# generated using pymatgen
data_Li24Mn7Cr5O36
_symmetry_space_group_name_H-M   'P 1'
_cell_length_a   5.00756300
_cell_length_b   9.73717660
_cell_length_c   13.27385717
_cell_angle_alpha   97.13252441
_cell_angle_beta   100.50879171
_cell_angle_gamma   94.72001082
_symmetry_Int_Tables_number   1
_chemical_formula_structural   Li24Mn7Cr5O36
_chemical_formula_sum   'Li24 Mn7 Cr5 O36'
_cell_volume   627.78357958
_cell_formula_units_Z   1
loop_
 _symmetry_equiv_pos_site_id
 _symmetry_equiv_pos_as_xyz
  1  'x, y, z'
loop_
 _atom_site_type_symbol
 _atom_site_label
 _atom_site_symmetry_multiplicity
 _atom_site_fract_x
 _atom_site_fract_y
 _atom_site_fract_z
 _atom_site_occupancy
  Li  Li0  1  0.16599900  0.00035200  0.83388500  1
  Li  Li1  1  0.05332500  0.00042400  0.61514000  1
  Li  Li2  1  0.99962700  0.74936400  0.25043800  1
  Li  Li3  1  0.33153900  0.75028300  0.91781900  1
  Li  Li4  1  0.04868800  0.49877300  0.11114600  1
  Li  Li5  1  0.37859700  0.49953900  0.77628500  1
  Li  Li6  1  0.16689900  0.50065900  0.33341000  1
  Li  Li7  1  0.50305600  0.49989200  0.00072000  1
  Li  Li8  1  0.28908600  0.50041600  0.55631800  1
  Li  Li9  1  0.33480300  0.24957900  0.41574300  1
  Li  Li10  1  0.50094600  0.00020900  0.49977800  1
  Li  Li11  1  0.28033800  0.99962800  0.05255900  1
  Li  Li12  1  0.61487600  0.99894300  0.71763100  1
  Li  Li13  1  0.38265400  0.99967000  0.28081600  1
  Li  Li14  1  0.71695200  0.00099300  0.94793400  1
  Li  Li15  1  0.66369500  0.75014800  0.58438600  1
  Li  Li16  1  0.71025300  0.50021900  0.44434800  1
  Li  Li17  1  0.83191900  0.49974600  0.66673400  1
  Li  Li18  1  0.61766000  0.50228600  0.22251400  1
  Li  Li19  1  0.95358500  0.49915800  0.88890300  1
  Li  Li20  1  0.66497400  0.25000100  0.08133400  1
  Li  Li21  1  0.83601000  0.99904600  0.16680800  1
  Li  Li22  1  0.00091200  0.25021700  0.74921500  1
  Li  Li23  1  0.95126500  0.99969800  0.38518700  1
  Mn  Mn0  1  0.11160800  0.25045700  0.97342900  1
  Mn  Mn1  1  0.22352600  0.75041800  0.69425400  1
  Mn  Mn2  1  0.22064800  0.24933500  0.19408500  1
  Mn  Mn3  1  0.44467900  0.25069600  0.63911200  1
  Mn  Mn4  1  0.44434600  0.75001500  0.13894900  1
  Mn  Mn5  1  0.55377100  0.74871000  0.35958700  1
  Mn  Mn6  1  0.89205900  0.75107300  0.02899400  1
  Cr  Cr0  1  0.10428100  0.75028900  0.47316700  1
  Cr  Cr1  1  0.55871900  0.25011200  0.85944000  1
  Cr  Cr2  1  0.77333500  0.74986300  0.80765300  1
  Cr  Cr3  1  0.77020100  0.24820300  0.30233300  1
  Cr  Cr4  1  0.89525100  0.25084900  0.52666500  1
  O  O0  1  0.00289100  0.86314800  0.93157300  1
  O  O1  1  0.06926600  0.63665100  0.78451700  1
  O  O2  1  0.99299600  0.36163400  0.42975100  1
  O  O3  1  0.14849200  0.36347400  0.64506200  1
  O  O4  1  0.26702500  0.36386500  0.88349800  1
  O  O5  1  0.33713400  0.86329800  0.59762700  1
  O  O6  1  0.07476800  0.13418800  0.28392600  1
  O  O7  1  0.18979600  0.13833300  0.52464300  1
  O  O8  1  0.40077800  0.13501900  0.95209900  1
  O  O9  1  0.14343400  0.86167100  0.14345000  1
  O  O10  1  0.26543600  0.86406500  0.38236500  1
  O  O11  1  0.48026000  0.86161900  0.80898400  1
  O  O12  1  0.33243500  0.13777400  0.73659600  1
  O  O13  1  0.19131300  0.63844300  0.02374000  1
  O  O14  1  0.40269600  0.63627900  0.45068100  1
  O  O15  1  0.51886100  0.63701600  0.68873300  1
  O  O16  1  0.33075200  0.63857200  0.23728900  1
  O  O17  1  0.67083700  0.63836500  0.90472400  1
  O  O18  1  0.33491000  0.36142700  0.09555300  1
  O  O19  1  0.66726600  0.36220500  0.76207300  1
  O  O20  1  0.46943800  0.36252400  0.30844600  1
  O  O21  1  0.59517600  0.36429000  0.54844400  1
  O  O22  1  0.81520700  0.36361800  0.97813200  1
  O  O23  1  0.66666500  0.86160500  0.26146700  1
  O  O24  1  0.52225700  0.13773500  0.19010500  1
  O  O25  1  0.73573000  0.13604700  0.61789100  1
  O  O26  1  0.85390000  0.13817700  0.85890300  1
  O  O27  1  0.59697900  0.86354000  0.04827700  1
  O  O28  1  0.81217800  0.86162000  0.47446200  1
  O  O29  1  0.93201200  0.86423400  0.71546800  1
  O  O30  1  0.67091600  0.13684600  0.40218300  1
  O  O31  1  0.73648600  0.63632500  0.11865800  1
  O  O32  1  0.85033500  0.63633400  0.35515800  1
  O  O33  1  0.00315000  0.63872600  0.57057500  1
  O  O34  1  0.93142200  0.36376900  0.21680200  1
  O  O35  1  0.99671800  0.13830300  0.07142600  1
loop_
_geom_bond_atom_site_label_1
_geom_bond_atom_site_label_2
_geom_bond_distance
_geom_bond_site_symmetry_2
Li0 O8 2.031327 1_555
Li0 O29 2.038517 1_445
Li0 O0 2.184109 1_545
Li0 O26 2.185784 1_455
Li0 O12 2.188845 1_555
Li0 O11 2.199837 1_545
Li1 O5 2.052405 1_545
Li1 O7 2.064518 1_555
Li1 O29 2.121840 1_445
Li1 O25 2.151610 1_455
Li1 O12 2.162465 1_555
Li1 O28 2.248110 1_445
Li2 O16 2.072888 1_655
Li2 O32 2.079896 1_555
Li2 O23 2.084482 1_555
Li2 O9 2.088144 1_655
Li2 O31 2.109509 1_555
Li2 O10 2.122528 1_655
Li3 O13 2.066468 1_556
Li3 O0 2.075317 1_555
Li3 O27 2.103946 1_556
Li3 O11 2.113159 1_555
Li3 O17 2.114238 1_555
Li3 O1 2.122969 1_555
Li4 O13 2.059128 1_555
Li4 O18 2.059268 1_555
Li4 O31 2.148554 1_455
Li4 O22 2.152447 1_454
Li4 O34 2.161245 1_455
Li4 O16 2.215066 1_555
Li5 O15 2.040890 1_555
Li5 O19 2.065990 1_555
Li5 O1 2.135329 1_555
Li5 O3 2.135555 1_555
Li5 O4 2.172130 1_555
Li5 O17 2.251118 1_555
Li6 O14 2.030678 1_555
Li6 O34 2.031291 1_455
Li6 O20 2.149865 1_555
Li6 O16 2.174970 1_555
Li6 O32 2.181375 1_455
Li6 O2 2.206436 1_455
Li7 O4 2.032770 1_554
Li7 O31 2.035300 1_555
Li7 O22 2.169669 1_554
Li7 O18 2.175455 1_555
Li7 O13 2.183713 1_555
Li7 O17 2.185937 1_554
Li8 O3 2.049245 1_555
Li8 O33 2.062189 1_555
Li8 O21 2.115558 1_555
Li8 O15 2.147625 1_555
Li8 O14 2.160500 1_555
Li8 O2 2.246074 1_455
Li9 O20 2.075981 1_555
Li9 O7 2.105338 1_555
Li9 O30 2.106109 1_555
Li9 O6 2.111742 1_555
Li9 O21 2.117616 1_555
Li9 O2 2.127857 1_455
Li10 O10 2.033807 1_545
Li10 O25 2.036301 1_555
Li10 O7 2.183507 1_555
Li10 O5 2.185347 1_545
Li10 O28 2.188035 1_545
Li10 O30 2.194681 1_555
Li11 O35 2.065069 1_465
Li11 O9 2.069459 1_555
Li11 O8 2.116364 1_564
Li11 O0 2.151199 1_554
Li11 O27 2.152495 1_555
Li11 O24 2.219183 1_565
Li12 O12 2.061838 1_565
Li12 O11 2.065253 1_555
Li12 O25 2.121204 1_565
Li12 O5 2.140871 1_555
Li12 O29 2.143229 1_555
Li12 O26 2.251671 1_565
Li13 O23 2.063515 1_555
Li13 O24 2.073690 1_565
Li13 O6 2.106300 1_565
Li13 O10 2.123213 1_555
Li13 O30 2.182471 1_565
Li13 O9 2.212506 1_555
Li14 O26 2.046487 1_555
Li14 O0 2.063073 1_645
Li14 O27 2.128042 1_546
Li14 O8 2.137041 1_555
Li14 O35 2.178780 1_556
Li14 O11 2.228152 1_545
Li15 O15 2.066838 1_555
Li15 O5 2.066919 1_555
Li15 O33 2.113752 1_655
Li15 O29 2.118586 1_555
Li15 O14 2.124641 1_555
Li15 O28 2.125142 1_555
Li16 O32 2.046917 1_555
Li16 O2 2.052488 1_555
Li16 O14 2.118862 1_555
Li16 O21 2.147609 1_555
Li16 O20 2.201321 1_555
Li16 O33 2.234806 1_655
Li17 O21 2.039577 1_555
Li17 O1 2.043986 1_655
Li17 O19 2.166735 1_555
Li17 O15 2.178137 1_555
Li17 O3 2.184997 1_655
Li17 O33 2.198402 1_655
Li18 O16 2.053182 1_555
Li18 O20 2.057200 1_555
Li18 O31 2.139200 1_555
Li18 O32 2.142890 1_555
Li18 O34 2.158783 1_555
Li18 O18 2.227566 1_555
Li19 O22 2.040063 1_555
Li19 O17 2.059070 1_555
Li19 O4 2.135899 1_655
Li19 O1 2.161862 1_655
Li19 O13 2.194137 1_656
Li19 O19 2.217113 1_555
Li20 O22 2.069244 1_554
Li20 O35 2.073988 1_555
Li20 O18 2.074285 1_555
Li20 O8 2.097134 1_554
Li20 O24 2.104775 1_555
Li20 O34 2.151227 1_555
Li21 O6 2.032959 1_665
Li21 O27 2.046150 1_555
Li21 O9 2.159937 1_655
Li21 O35 2.169716 1_565
Li21 O23 2.169878 1_555
Li21 O24 2.193284 1_565
Li22 O3 2.071433 1_555
Li22 O12 2.082749 1_555
Li22 O19 2.089797 1_455
Li22 O25 2.114079 1_455
Li22 O26 2.122563 1_455
Li22 O4 2.139754 1_555
Li23 O30 2.038227 1_565
Li23 O28 2.059038 1_555
Li23 O6 2.123941 1_665
Li23 O10 2.138180 1_655
Li23 O23 2.195129 1_555
Li23 O7 2.232308 1_665
Mn0 O22 1.925323 1_455
Mn0 O35 1.933397 1_456
Mn0 O18 1.936676 1_556
Mn0 O4 1.942911 1_555
Mn0 O8 1.943921 1_555
Mn0 O26 1.952210 1_455
Mn1 O5 1.920984 1_555
Mn1 O15 1.923545 1_555
Mn1 O29 1.943486 1_455
Mn1 O1 1.945705 1_555
Mn1 O11 1.947232 1_555
Mn1 O33 1.947827 1_555
Mn2 O6 1.930777 1_555
Mn2 O20 1.933875 1_555
Mn2 O24 1.936408 1_555
Mn2 O18 1.937515 1_555
Mn2 O34 1.942059 1_455
Mn2 O35 1.942821 1_455
Mn3 O3 1.923849 1_555
Mn3 O12 1.927754 1_555
Mn3 O21 1.940117 1_555
Mn3 O19 1.944839 1_555
Mn3 O7 1.945444 1_555
Mn3 O25 1.946590 1_555
Mn4 O16 1.930301 1_555
Mn4 O9 1.934549 1_555
Mn4 O23 1.940750 1_555
Mn4 O31 1.942768 1_555
Mn4 O13 1.943828 1_555
Mn4 O27 1.944632 1_555
Mn5 O32 1.920807 1_555
Mn5 O16 1.934395 1_555
Mn5 O23 1.935505 1_555
Mn5 O14 1.938817 1_555
Mn5 O10 1.944118 1_555
Mn5 O28 1.959103 1_555
Mn6 O0 1.919311 1_654
Mn6 O9 1.930144 1_655
Mn6 O13 1.934634 1_655
Mn6 O27 1.944953 1_555
Mn6 O31 1.948605 1_555
Mn6 O17 1.958671 1_554
Cr0 O28 1.892227 1_455
Cr0 O33 1.898798 1_555
Cr0 O10 1.967378 1_555
Cr0 O14 1.976852 1_555
Cr0 O32 1.977769 1_455
Cr0 O5 1.983559 1_555
Cr1 O26 1.907863 1_555
Cr1 O19 1.914700 1_555
Cr1 O4 1.952173 1_555
Cr1 O12 1.954097 1_555
Cr1 O8 1.986319 1_555
Cr1 O22 1.987259 1_555
Cr2 O17 1.897183 1_555
Cr2 O11 1.898894 1_555
Cr2 O1 1.963749 1_655
Cr2 O0 1.973541 1_655
Cr2 O29 1.978976 1_555
Cr2 O15 1.981931 1_555
Cr3 O24 1.904043 1_555
Cr3 O30 1.920442 1_555
Cr3 O34 1.925902 1_555
Cr3 O20 1.952456 1_555
Cr3 O6 1.991350 1_655
Cr3 O2 1.992538 1_555
Cr4 O2 1.882955 1_555
Cr4 O7 1.910392 1_655
Cr4 O30 1.971467 1_555
Cr4 O25 1.973840 1_555
Cr4 O3 1.974034 1_655
Cr4 O21 1.978374 1_555
