# generated using pymatgen
data_Cr8Ni50Mo15W2
_symmetry_space_group_name_H-M   'P 1'
_cell_length_a   6.30061200
_cell_length_b   11.64078875
_cell_length_c   13.35339972
_cell_angle_alpha   108.30344526
_cell_angle_beta   98.49883233
_cell_angle_gamma   100.44898374
_symmetry_Int_Tables_number   1
_chemical_formula_structural   Cr8Ni50Mo15W2
_chemical_formula_sum   'Cr8 Ni50 Mo15 W2'
_cell_volume   892.16455986
_cell_formula_units_Z   1
loop_
 _symmetry_equiv_pos_site_id
 _symmetry_equiv_pos_as_xyz
  1  'x, y, z'
loop_
 _atom_site_type_symbol
 _atom_site_label
 _atom_site_symmetry_multiplicity
 _atom_site_fract_x
 _atom_site_fract_y
 _atom_site_fract_z
 _atom_site_occupancy
  Cr  Cr0  1  0.87959700  0.16026900  0.48046700  1
  Cr  Cr1  1  0.44087200  0.07957300  0.23942900  1
  Cr  Cr2  1  0.00038600  0.99951700  0.99965900  1
  Cr  Cr3  1  0.35682500  0.52060100  0.56163100  1
  Cr  Cr4  1  0.52009800  0.64009400  0.91988300  1
  Cr  Cr5  1  0.08286000  0.55952100  0.67870600  1
  Cr  Cr6  1  0.96012100  0.72032100  0.15986900  1
  Cr  Cr7  1  0.83934800  0.88001400  0.64032500  1
  Ni  Ni0  1  0.39803800  0.13325800  0.06769800  1
  Ni  Ni1  1  0.56198500  0.25258500  0.42558900  1
  Ni  Ni2  1  0.12169800  0.17235000  0.18599100  1
  Ni  Ni3  1  0.68264600  0.09352500  0.94719700  1
  Ni  Ni4  1  0.27883400  0.29580300  0.54621000  1
  Ni  Ni5  1  0.83846900  0.21326100  0.30781500  1
  Ni  Ni6  1  0.44143700  0.41708100  0.90671500  1
  Ni  Ni7  1  0.00022000  0.33546700  0.66533800  1
  Ni  Ni8  1  0.72058800  0.37506800  0.78667100  1
  Ni  Ni9  1  0.60055600  0.53492800  0.26703500  1
  Ni  Ni10  1  0.16056300  0.45494200  0.02652300  1
  Ni  Ni11  1  0.32046200  0.57443600  0.38835800  1
  Ni  Ni12  1  0.88117300  0.49700700  0.14693700  1
  Ni  Ni13  1  0.47656500  0.69190600  0.74604800  1
  Ni  Ni14  1  0.04361400  0.61344600  0.50859500  1
  Ni  Ni15  1  0.20219400  0.73266900  0.86581500  1
  Ni  Ni16  1  0.76081200  0.65526500  0.62727900  1
  Ni  Ni17  1  0.64195000  0.81289600  0.10572800  1
  Ni  Ni18  1  0.35849500  0.85569900  0.22615800  1
  Ni  Ni19  1  0.91902100  0.77527100  0.98743900  1
  Ni  Ni20  1  0.52257900  0.97397900  0.58700200  1
  Ni  Ni21  1  0.07978400  0.89360200  0.34525100  1
  Ni  Ni22  1  0.23745600  0.01347300  0.70645300  1
  Ni  Ni23  1  0.80157100  0.93643000  0.46811900  1
  Ni  Ni24  1  0.95984300  0.05306900  0.82652800  1
  Ni  Ni25  1  0.79926800  0.26506600  0.13348700  1
  Ni  Ni26  1  0.96257700  0.38564100  0.49517400  1
  Ni  Ni27  1  0.51896000  0.30311000  0.25338500  1
  Ni  Ni28  1  0.07857000  0.22269800  0.01286000  1
  Ni  Ni29  1  0.67978900  0.42707900  0.61349400  1
  Ni  Ni30  1  0.23984400  0.34626300  0.37474400  1
  Ni  Ni31  1  0.83840600  0.54770200  0.97416800  1
  Ni  Ni32  1  0.39741800  0.46778800  0.73279200  1
  Ni  Ni33  1  0.12199000  0.50677500  0.85220900  1
  Ni  Ni34  1  0.99924700  0.66569400  0.33216300  1
  Ni  Ni35  1  0.56189900  0.58672100  0.09225900  1
  Ni  Ni36  1  0.72088400  0.70679400  0.45470300  1
  Ni  Ni37  1  0.27741100  0.62630100  0.21274600  1
  Ni  Ni38  1  0.87983600  0.82678500  0.81345600  1
  Ni  Ni39  1  0.44177700  0.74405900  0.57384000  1
  Ni  Ni40  1  0.60152600  0.86423300  0.93347200  1
  Ni  Ni41  1  0.15620600  0.78397200  0.69292300  1
  Ni  Ni42  1  0.04114900  0.94495600  0.17245400  1
  Ni  Ni43  1  0.75814500  0.98735200  0.29426900  1
  Ni  Ni44  1  0.31795700  0.90716900  0.05423500  1
  Ni  Ni45  1  0.91849800  0.10354000  0.65183300  1
  Ni  Ni46  1  0.48183100  0.02678000  0.41218200  1
  Ni  Ni47  1  0.63904800  0.14500800  0.77296600  1
  Ni  Ni48  1  0.19750100  0.06603000  0.53237400  1
  Ni  Ni49  1  0.35972600  0.18510100  0.89332700  1
  Mo  Mo0  1  0.71922000  0.03961800  0.12035600  1
  Mo  Mo1  1  0.60555900  0.19930200  0.59741300  1
  Mo  Mo2  1  0.76016900  0.32019700  0.95999300  1
  Mo  Mo3  1  0.32000700  0.24037400  0.71969100  1
  Mo  Mo4  1  0.04024700  0.27984900  0.83963800  1
  Mo  Mo5  1  0.48004600  0.35998700  0.07996100  1
  Mo  Mo6  1  0.63413700  0.48100400  0.44324600  1
  Mo  Mo7  1  0.20080400  0.39967900  0.19951000  1
  Mo  Mo8  1  0.80016400  0.60054300  0.80007300  1
  Mo  Mo9  1  0.68482100  0.75969700  0.27777000  1
  Mo  Mo10  1  0.24016400  0.68035900  0.03976400  1
  Mo  Mo11  1  0.40007000  0.80027300  0.40015600  1
  Mo  Mo12  1  0.56442200  0.91855700  0.75774500  1
  Mo  Mo13  1  0.11574400  0.84042900  0.52205200  1
  Mo  Mo14  1  0.27487100  0.96036800  0.88235000  1
  W  W0  1  0.16011300  0.11980200  0.35975000  1
  W  W1  1  0.91931800  0.44002100  0.32055800  1
loop_
_geom_bond_atom_site_label_1
_geom_bond_atom_site_label_2
_geom_bond_distance
_geom_bond_site_symmetry_2
Cr0 Mo1 2.502432 1_555
Cr0 Ni23 2.509959 1_545
Cr0 Ni26 2.518576 1_555
Cr0 Ni5 2.556880 1_555
Cr0 Ni1 2.556881 1_555
Cr0 Ni46 2.559100 1_555
Cr0 Ni7 2.559716 1_655
Cr0 Ni43 2.560229 1_545
Cr0 Ni48 2.561267 1_655
Cr0 Ni45 2.564106 1_555
Cr0 W0 2.571252 1_655
Cr0 Ni4 2.573933 1_655
Cr1 Ni27 2.500380 1_555
Cr1 Ni18 2.506893 1_545
Cr1 Mo0 2.544759 1_555
Cr1 Ni44 2.548713 1_545
Cr1 Ni0 2.549605 1_555
Cr1 Ni43 2.554262 1_545
Cr1 Ni46 2.556909 1_555
Cr1 Ni5 2.558996 1_555
Cr1 Ni1 2.560330 1_555
Cr1 Ni2 2.562685 1_555
Cr1 W0 2.568645 1_555
Cr1 Ni42 2.573089 1_545
Cr2 Ni28 2.499166 1_566
Cr2 Mo14 2.508121 1_555
Cr2 Ni19 2.515145 1_455
Cr2 Ni44 2.555694 1_556
Cr2 Ni38 2.559288 1_455
Cr2 Ni0 2.559382 1_566
Cr2 Ni3 2.560815 1_465
Cr2 Ni2 2.561018 1_566
Cr2 Ni24 2.566536 1_465
Cr2 Ni42 2.568646 1_556
Cr2 Ni40 2.571075 1_455
Cr2 Mo0 2.573934 1_466
Cr3 Cr5 2.503065 1_555
Cr3 Ni39 2.506448 1_555
Cr3 Ni4 2.509355 1_555
Cr3 Ni14 2.530879 1_555
Cr3 Mo6 2.532829 1_555
Cr3 Ni13 2.535907 1_555
Cr3 Ni32 2.536547 1_555
Cr3 Ni26 2.546216 1_455
Cr3 Ni11 2.570010 1_555
Cr3 Ni30 2.573410 1_555
Cr3 Ni29 2.581874 1_555
Cr3 Ni16 2.595141 1_555
Cr4 Ni6 2.497368 1_555
Cr4 Ni40 2.508664 1_555
Cr4 Ni35 2.555800 1_556
Cr4 Ni17 2.556487 1_556
Cr4 Ni15 2.557096 1_555
Cr4 Ni31 2.558657 1_555
Cr4 Mo8 2.559650 1_555
Cr4 Ni33 2.560074 1_555
Cr4 Mo10 2.560524 1_556
Cr4 Ni13 2.564870 1_555
Cr4 Ni32 2.565453 1_555
Cr4 Ni19 2.571185 1_555
Cr5 Ni7 2.508588 1_555
Cr5 Ni41 2.510141 1_555
Cr5 Ni14 2.530034 1_555
Cr5 Ni32 2.533543 1_555
Cr5 Ni13 2.533867 1_555
Cr5 Ni26 2.540961 1_455
Cr5 Ni33 2.566161 1_555
Cr5 Ni15 2.569535 1_555
Cr5 Ni29 2.582182 1_455
Cr5 Mo8 2.588968 1_455
Cr5 Ni16 2.592332 1_455
Cr6 Ni12 2.501708 1_555
Cr6 Mo9 2.517889 1_555
Cr6 Ni42 2.518160 1_655
Cr6 Ni31 2.554258 1_554
Cr6 Ni21 2.554531 1_655
Cr6 Ni17 2.558764 1_555
Cr6 Ni37 2.560212 1_655
Cr6 Ni35 2.561688 1_555
Cr6 Ni34 2.562529 1_555
Cr6 Mo10 2.562696 1_655
Cr6 Ni19 2.566473 1_554
Cr6 Ni18 2.568947 1_655
Cr7 Ni45 2.509650 1_565
Cr7 Mo12 2.510607 1_555
Cr7 Ni16 2.517672 1_555
Cr7 Mo13 2.527110 1_655
Cr7 Ni36 2.556343 1_555
Cr7 Ni20 2.558873 1_555
Cr7 Ni22 2.560312 1_665
Cr7 Ni24 2.560891 1_565
Cr7 Ni38 2.564490 1_555
Cr7 Ni39 2.567062 1_555
Cr7 Ni41 2.572391 1_655
Cr7 Ni23 2.572792 1_555
Ni0 Ni2 2.526371 1_555
Ni0 Ni44 2.531382 1_545
Ni0 Ni27 2.540454 1_555
Ni0 Ni28 2.544623 1_555
Ni0 Ni25 2.570361 1_555
Ni0 Ni49 2.571662 1_554
Ni0 Ni3 2.589394 1_554
Ni1 Ni5 2.522767 1_555
Ni1 Ni46 2.528352 1_555
Ni1 Ni27 2.535785 1_555
Ni1 Ni26 2.572490 1_555
Ni1 Ni30 2.574936 1_555
Ni1 W0 2.577250 1_555
Ni1 Ni29 2.583450 1_555
Ni1 Ni4 2.587690 1_555
Ni2 Ni42 2.546008 1_545
Ni2 Ni27 2.546305 1_555
Ni2 Ni28 2.546626 1_555
Ni2 W0 2.568191 1_555
Ni2 Ni25 2.575463 1_455
Ni2 Ni30 2.588310 1_555
Ni2 Ni5 2.595646 1_455
Ni3 Ni40 2.566973 1_545
Ni3 Ni47 2.567910 1_555
Ni3 Ni49 2.574719 1_555
Ni4 Ni7 2.546241 1_555
Ni4 Ni48 2.572046 1_555
Ni4 W0 2.578000 1_555
Ni5 W1 2.541811 1_555
Ni5 W0 2.574815 1_655
Ni6 Ni8 2.560308 1_555
Ni7 Ni8 2.571173 1_455
Ni9 W1 2.577117 1_555
Ni10 Ni37 2.552522 1_555
Ni10 Ni6 2.561715 1_554
Ni10 Ni12 2.564906 1_455
Ni10 Ni35 2.570800 1_555
Ni10 Ni33 2.570870 1_554
Ni10 Ni31 2.573805 1_454
Ni10 Ni28 2.600931 1_555
Ni11 Ni39 2.537498 1_555
Ni11 Ni14 2.546344 1_555
Ni11 Ni30 2.554613 1_555
Ni11 Ni36 2.568243 1_555
Ni11 Ni34 2.572784 1_455
Ni11 Ni9 2.573330 1_555
Ni11 W1 2.579804 1_455
Ni11 Ni37 2.588020 1_555
Ni12 Ni34 2.530355 1_555
Ni12 Ni37 2.535372 1_655
Ni12 Ni31 2.544095 1_554
Ni12 Ni35 2.545031 1_555
Ni12 Ni9 2.563074 1_555
Ni12 W1 2.594620 1_555
Ni12 Ni25 2.598283 1_555
Ni13 Ni32 2.509656 1_555
Ni13 Ni15 2.531680 1_555
Ni13 Ni39 2.545733 1_555
Ni13 Ni41 2.562214 1_555
Ni13 Ni16 2.568346 1_555
Ni13 Ni40 2.568858 1_555
Ni13 Ni38 2.592421 1_555
Ni14 Ni41 2.531088 1_555
Ni14 Ni39 2.550030 1_555
Ni14 Ni26 2.551147 1_455
Ni14 Ni16 2.566770 1_455
Ni14 W1 2.579745 1_455
Ni14 Ni36 2.587177 1_455
Ni14 Ni34 2.601088 1_455
Ni15 Ni33 2.528612 1_555
Ni15 Ni41 2.549850 1_555
Ni15 Ni40 2.559990 1_555
Ni15 Ni38 2.585117 1_455
Ni15 Ni44 2.588196 1_556
Ni15 Ni19 2.595841 1_455
Ni16 Ni41 2.528858 1_655
Ni16 Ni39 2.532016 1_555
Ni16 Ni36 2.546627 1_555
Ni16 Ni38 2.552967 1_555
Ni16 Ni29 2.554113 1_555
Ni17 Ni19 2.528283 1_554
Ni17 Ni35 2.532342 1_555
Ni17 Ni40 2.541332 1_554
Ni17 Ni42 2.560886 1_655
Ni17 Ni18 2.586967 1_555
Ni17 Ni43 2.589072 1_555
Ni17 Ni44 2.591501 1_555
Ni18 Ni42 2.527740 1_555
Ni18 Ni44 2.537885 1_555
Ni18 Ni21 2.544247 1_555
Ni18 Ni46 2.549784 1_565
Ni18 Ni43 2.562084 1_555
Ni18 Ni37 2.569377 1_555
Ni19 Ni40 2.527345 1_555
Ni19 Ni42 2.533607 1_656
Ni19 Ni31 2.549022 1_555
Ni19 Ni44 2.558948 1_656
Ni19 Ni38 2.564629 1_555
Ni20 Ni45 2.534513 1_565
Ni20 Ni23 2.543384 1_555
Ni20 Ni47 2.548517 1_565
Ni20 Ni39 2.576299 1_555
Ni20 Ni22 2.582403 1_565
Ni20 Ni46 2.583532 1_565
Ni20 Ni48 2.592457 1_565
Ni21 W0 2.528742 1_565
Ni21 Ni42 2.548331 1_555
Ni21 Ni34 2.553595 1_455
Ni21 Ni48 2.566051 1_565
Ni21 Ni43 2.573383 1_455
Ni21 Ni46 2.579749 1_565
Ni21 Ni23 2.581952 1_455
Ni22 Ni45 2.545810 1_455
Ni22 Ni24 2.549518 1_455
Ni22 Ni49 2.560110 1_555
Ni22 Ni41 2.570103 1_545
Ni22 Ni47 2.571363 1_555
Ni22 Ni48 2.572422 1_555
Ni23 Ni45 2.508723 1_565
Ni23 Ni48 2.534651 1_665
Ni23 Ni46 2.557290 1_565
Ni23 Ni43 2.559486 1_555
Ni23 Ni36 2.572082 1_555
Ni24 Ni38 2.535103 1_545
Ni24 Ni28 2.545146 1_656
Ni24 Ni3 2.553828 1_555
Ni24 Ni49 2.564341 1_655
Ni24 Ni47 2.565224 1_555
Ni24 Ni45 2.567413 1_555
Ni25 Ni3 2.554029 1_554
Ni25 Ni27 2.559836 1_555
Ni25 Ni28 2.566776 1_655
Ni25 Ni5 2.570891 1_555
Ni25 W1 2.578249 1_555
Ni26 Ni7 2.507014 1_655
Ni26 Ni4 2.516095 1_655
Ni26 Ni30 2.550676 1_655
Ni26 Ni29 2.562951 1_555
Ni26 Ni5 2.568417 1_555
Ni26 W1 2.591090 1_555
Ni27 Ni5 2.546273 1_555
Ni27 Ni30 2.573463 1_555
Ni27 W1 2.585094 1_555
Ni27 Ni9 2.596115 1_555
Ni28 Ni3 2.533279 1_454
Ni28 Ni49 2.560383 1_554
Ni29 Ni7 2.554232 1_655
Ni29 Ni8 2.557432 1_555
Ni29 Ni4 2.567283 1_555
Ni29 Ni32 2.568448 1_555
Ni30 Ni4 2.525615 1_555
Ni30 W0 2.529885 1_555
Ni30 Ni5 2.575626 1_455
Ni30 W1 2.580067 1_455
Ni31 Ni35 2.525328 1_556
Ni31 Ni6 2.544304 1_555
Ni31 Ni8 2.570493 1_555
Ni31 Ni33 2.598695 1_655
Ni32 Ni33 2.531667 1_555
Ni32 Ni7 2.551654 1_555
Ni32 Ni4 2.558942 1_555
Ni32 Ni6 2.559143 1_555
Ni32 Ni8 2.584660 1_555
Ni33 Ni6 2.545092 1_555
Ni33 Ni7 2.558475 1_555
Ni33 Ni8 2.570861 1_455
Ni34 W1 2.533809 1_555
Ni34 Ni37 2.546176 1_655
Ni34 Ni9 2.553315 1_555
Ni34 Ni36 2.577478 1_555
Ni35 Ni6 2.538070 1_554
Ni35 Ni9 2.576577 1_555
Ni35 Ni37 2.588458 1_555
Ni36 Ni39 2.545924 1_555
Ni36 Ni9 2.568396 1_555
Ni37 Ni9 2.576005 1_555
Ni38 Ni40 2.549976 1_555
Ni38 Ni41 2.551555 1_655
Ni39 Ni41 2.582002 1_555
Ni40 Ni44 2.590694 1_556
Ni42 Ni44 2.526499 1_555
Ni42 W0 2.579700 1_565
Ni42 Ni43 2.596393 1_455
Ni43 Ni46 2.523269 1_565
Ni43 Ni5 2.529012 1_565
Ni43 W0 2.576498 1_665
Ni45 Ni48 2.548572 1_655
Ni45 Ni47 2.570836 1_555
Ni45 Ni7 2.597913 1_655
Ni46 W0 2.573799 1_555
Ni46 Ni48 2.584599 1_555
Ni47 Ni49 2.561463 1_555
Ni47 Ni8 2.575822 1_555
Ni48 W0 2.561274 1_555
Ni49 Ni6 2.598966 1_555
Mo0 Ni25 2.525327 1_555
Mo0 Ni17 2.534305 1_545
Mo0 Ni43 2.568420 1_545
Mo0 Ni3 2.568999 1_554
Mo0 Ni44 2.572903 1_545
Mo0 Ni5 2.575179 1_555
Mo0 Ni0 2.576568 1_555
Mo0 Ni40 2.578673 1_544
Mo0 Ni2 2.580189 1_655
Mo0 Ni42 2.586038 1_645
Mo1 Ni20 2.534669 1_545
Mo1 Ni29 2.541300 1_555
Mo1 Ni1 2.548327 1_555
Mo1 Ni46 2.549730 1_555
Mo1 Ni7 2.553241 1_655
Mo1 Ni45 2.557519 1_555
Mo1 Ni8 2.602203 1_555
Mo1 Ni47 2.602337 1_555
Mo1 Ni48 2.611162 1_555
Mo1 Mo3 2.611830 1_555
Mo1 Ni4 2.621504 1_555
Mo2 Ni3 2.540641 1_555
Mo2 Ni31 2.544907 1_555
Mo2 Mo5 2.561661 1_556
Mo2 Mo4 2.565611 1_655
Mo2 Ni10 2.576964 1_656
Mo2 Ni8 2.577308 1_555
Mo2 Ni49 2.578554 1_555
Mo2 Ni47 2.579085 1_555
Mo2 Ni25 2.581149 1_556
Mo2 Ni12 2.586560 1_556
Mo2 Ni6 2.591172 1_555
Mo2 Ni28 2.592596 1_656
Mo3 Ni22 2.541560 1_555
Mo3 Ni32 2.547966 1_555
Mo3 Mo4 2.559212 1_555
Mo3 Ni48 2.577572 1_555
Mo3 Ni8 2.577796 1_555
Mo3 Ni47 2.581084 1_555
Mo3 Ni4 2.583023 1_555
Mo3 Ni49 2.583911 1_555
Mo3 Ni6 2.586774 1_555
Mo3 Ni7 2.587113 1_555
Mo3 Ni45 2.590793 1_455
Mo4 Ni24 2.540624 1_455
Mo4 Ni33 2.544389 1_555
Mo4 Ni10 2.577276 1_556
Mo4 Ni49 2.580247 1_555
Mo4 Ni47 2.581489 1_455
Mo4 Ni8 2.581928 1_455
Mo4 Ni28 2.590577 1_556
Mo4 Ni6 2.590580 1_555
Mo4 Ni45 2.591796 1_455
Mo4 Ni7 2.594655 1_555
Mo5 Ni35 2.543260 1_555
Mo5 Ni0 2.543344 1_555
Mo5 Mo7 2.553265 1_555
Mo5 Ni49 2.573964 1_554
Mo5 Ni9 2.578228 1_555
Mo5 Ni25 2.579602 1_555
Mo5 Ni10 2.580857 1_555
Mo5 Ni12 2.589431 1_555
Mo5 Ni6 2.590532 1_554
Mo5 Ni27 2.591431 1_555
Mo5 Ni28 2.592267 1_555
Mo6 Ni29 2.532515 1_555
Mo6 Ni36 2.536164 1_555
Mo6 Ni1 2.543326 1_555
Mo6 Ni11 2.545245 1_555
Mo6 Ni30 2.546048 1_555
Mo6 Ni16 2.548137 1_555
Mo6 Ni9 2.608490 1_555
Mo6 W1 2.613482 1_555
Mo6 Ni14 2.615600 1_655
Mo6 Ni27 2.618421 1_555
Mo6 Ni26 2.624509 1_555
Mo7 Ni37 2.538431 1_555
Mo7 Ni2 2.545347 1_555
Mo7 Ni10 2.575553 1_555
Mo7 Ni9 2.575708 1_555
Mo7 W1 2.579028 1_455
Mo7 Ni25 2.582306 1_455
Mo7 Ni28 2.584875 1_555
Mo7 Ni27 2.588172 1_555
Mo7 Ni30 2.592651 1_555
Mo7 Ni11 2.593387 1_555
Mo7 Ni12 2.596430 1_455
Mo8 Ni8 2.524601 1_555
Mo8 Ni38 2.533436 1_555
Mo8 Ni29 2.566337 1_555
Mo8 Ni16 2.569567 1_555
Mo8 Ni31 2.574353 1_555
Mo8 Ni15 2.575666 1_655
Mo8 Ni13 2.577253 1_555
Mo8 Ni33 2.578867 1_655
Mo8 Ni19 2.579740 1_555
Mo8 Ni32 2.581895 1_555
Mo9 Ni9 2.527150 1_555
Mo9 Ni43 2.538509 1_555
Mo9 Ni21 2.546050 1_655
Mo9 Ni17 2.550512 1_555
Mo9 Ni34 2.551443 1_555
Mo9 Ni35 2.554433 1_555
Mo9 Ni37 2.608234 1_555
Mo9 Ni36 2.611319 1_555
Mo9 Ni23 2.616930 1_555
Mo9 Ni18 2.617172 1_555
Mo10 Ni10 2.524552 1_555
Mo10 Ni44 2.535871 1_555
Mo10 Ni37 2.567687 1_555
Mo10 Ni15 2.569137 1_554
Mo10 Ni18 2.574030 1_555
Mo10 Ni33 2.575732 1_554
Mo10 Ni17 2.575918 1_555
Mo10 Ni31 2.576174 1_454
Mo10 Ni35 2.578789 1_555
Mo10 Ni19 2.584746 1_454
Mo11 Ni11 2.534925 1_555
Mo11 Ni46 2.541726 1_565
Mo11 Ni20 2.570123 1_555
Mo11 Ni37 2.576578 1_555
Mo11 Ni21 2.578444 1_555
Mo11 Ni34 2.578801 1_455
Mo11 Ni36 2.580869 1_555
Mo11 Ni23 2.588198 1_555
Mo11 Ni18 2.589669 1_555
Mo11 Ni39 2.590707 1_555
Mo11 Mo13 2.600950 1_555
Mo11 Mo9 2.608052 1_555
Mo12 Ni47 2.529209 1_565
Mo12 Ni38 2.544861 1_555
Mo12 Ni13 2.545153 1_555
Mo12 Ni39 2.547662 1_555
Mo12 Ni20 2.547952 1_555
Mo12 Ni24 2.551033 1_565
Mo12 Ni3 2.599926 1_565
Mo12 Ni40 2.604683 1_555
Mo12 Ni22 2.611083 1_565
Mo12 Ni41 2.616785 1_555
Mo12 Mo14 2.654120 1_555
Mo13 Ni48 2.538130 1_565
Mo13 Ni14 2.542135 1_555
Mo13 Ni36 2.544475 1_455
Mo13 Ni22 2.544634 1_565
Mo13 Ni41 2.556131 1_555
Mo13 Ni23 2.563671 1_455
Mo13 Ni34 2.602792 1_455
Mo13 Ni20 2.605800 1_555
Mo13 Ni21 2.611305 1_555
Mo13 Ni39 2.619111 1_555
Mo14 Ni49 2.525828 1_565
Mo14 Ni15 2.538970 1_555
Mo14 Ni38 2.545611 1_455
Mo14 Ni44 2.548520 1_556
Mo14 Ni24 2.550422 1_465
Mo14 Ni0 2.552557 1_566
Mo14 Ni22 2.599210 1_565
Mo14 Ni41 2.606821 1_555
Mo14 Ni3 2.609269 1_565
Mo14 Ni40 2.618059 1_555
