# generated using pymatgen
data_Mn21Sn9O40
_symmetry_space_group_name_H-M   'P 1'
_cell_length_a   10.98028706
_cell_length_b   10.98028706
_cell_length_c   10.98028706
_cell_angle_alpha   99.61014744
_cell_angle_beta   99.61014744
_cell_angle_gamma   131.76778842
_symmetry_Int_Tables_number   1
_chemical_formula_structural   Mn21Sn9O40
_chemical_formula_sum   'Mn21 Sn9 O40'
_cell_volume   901.21869311
_cell_formula_units_Z   1
loop_
 _symmetry_equiv_pos_site_id
 _symmetry_equiv_pos_as_xyz
  1  'x, y, z'
loop_
 _atom_site_type_symbol
 _atom_site_label
 _atom_site_symmetry_multiplicity
 _atom_site_fract_x
 _atom_site_fract_y
 _atom_site_fract_z
 _atom_site_occupancy
  Mn  Mn0  1  0.37276700  0.62626700  0.74782700  1
  Mn  Mn1  1  0.57189600  0.72552800  0.54851100  1
  Mn  Mn2  1  0.67009000  0.02057900  0.45027600  1
  Mn  Mn3  1  0.47486500  0.42459800  0.64985600  1
  Mn  Mn4  1  0.37373300  0.12156000  0.74650000  1
  Mn  Mn5  1  0.37506000  0.62723300  0.25350000  1
  Mn  Mn6  1  0.77474200  0.82500900  0.35014400  1
  Mn  Mn7  1  0.97942100  0.42969700  0.64951000  1
  Mn  Mn8  1  0.17701700  0.02338500  0.45148900  1
  Mn  Mn9  1  0.57030300  0.21981300  0.54972400  1
  Mn  Mn10  1  0.25000000  0.75000000  0.50000000  1
  Mn  Mn11  1  0.78018700  0.32991000  0.35049000  1
  Mn  Mn12  1  0.17499100  0.52513500  0.94973300  1
  Mn  Mn13  1  0.97497500  0.92515800  0.15037300  1
  Mn  Mn14  1  0.07484200  0.22521500  0.04981600  1
  Mn  Mn15  1  0.87844000  0.62494000  0.25217300  1
  Mn  Mn16  1  0.77478500  0.82460100  0.84962700  1
  Mn  Mn17  1  0.17539900  0.02502500  0.95018400  1
  Mn  Mn18  1  0.57540200  0.22525800  0.05026700  1
  Mn  Mn19  1  0.97661500  0.42810400  0.15363200  1
  Mn  Mn20  1  0.27447200  0.82298300  0.84636800  1
  Sn  Sn0  1  0.05010600  0.15001500  0.70011200  1
  Sn  Sn1  1  0.69937100  0.10002500  0.79911700  1
  Sn  Sn2  1  0.09974700  0.30062900  0.40065400  1
  Sn  Sn3  1  0.89997500  0.69909300  0.59934600  1
  Sn  Sn4  1  0.44990300  0.34999400  0.29988800  1
  Sn  Sn5  1  0.65000600  0.94989400  0.09990900  1
  Sn  Sn6  1  0.50000000  0.50000000  0.00000000  1
  Sn  Sn7  1  0.30090700  0.90025300  0.20088300  1
  Sn  Sn8  1  0.84998500  0.55009700  0.90009100  1
  O  O0  1  0.12713700  0.38237900  0.75275500  1
  O  O1  1  0.62340200  0.86778400  0.74886500  1
  O  O2  1  0.91451300  0.26928200  0.45175900  1
  O  O3  1  0.13221600  0.88108100  0.75561900  1
  O  O4  1  0.71839600  0.67553200  0.64978500  1
  O  O5  1  0.33301000  0.48082200  0.55549800  1
  O  O6  1  0.81781800  0.96962400  0.54513600  1
  O  O7  1  0.23076800  0.17606900  0.64847900  1
  O  O8  1  0.44057400  0.77888700  0.44616700  1
  O  O9  1  0.61762100  0.37037600  0.74475800  1
  O  O10  1  0.42448800  0.27268200  0.45486400  1
  O  O11  1  0.52759000  0.58228900  0.35152100  1
  O  O12  1  0.62561800  0.87286300  0.25524200  1
  O  O13  1  0.33272000  0.99440700  0.55383300  1
  O  O14  1  0.22111300  0.66728000  0.66168700  1
  O  O15  1  0.12546200  0.37659800  0.24438100  1
  O  O16  1  0.02574700  0.06861100  0.35021500  1
  O  O17  1  0.92532300  0.77751100  0.44450200  1
  O  O18  1  0.81752300  0.46275400  0.54824100  1
  O  O19  1  0.73071800  0.18247700  0.64523100  1
  O  O20  1  0.93138900  0.28160400  0.95713600  1
  O  O21  1  0.11891900  0.87453800  0.25113500  1
  O  O22  1  0.73384300  0.67909100  0.15563000  1
  O  O23  1  0.53724600  0.08548700  0.35476900  1
  O  O24  1  0.32090900  0.47653900  0.05475100  1
  O  O25  1  0.41771100  0.76923200  0.94530100  1
  O  O26  1  0.83154900  0.97546700  0.04886700  1
  O  O27  1  0.62962400  0.37438200  0.24724500  1
  O  O28  1  0.21731700  0.16845100  0.14391800  1
  O  O29  1  0.00559300  0.55942600  0.33831300  1
  O  O30  1  0.02453300  0.07340000  0.85608200  1
  O  O31  1  0.72731800  0.18218200  0.15180600  1
  O  O32  1  0.92660000  0.78268300  0.95113300  1
  O  O33  1  0.82393100  0.47241000  0.05469900  1
  O  O34  1  0.42178700  0.26615700  0.94524900  1
  O  O35  1  0.22248900  0.66699000  0.14781200  1
  O  O36  1  0.52346100  0.57821300  0.84437000  1
  O  O37  1  0.32446800  0.97425300  0.04286400  1
  O  O38  1  0.51917800  0.07467700  0.85218800  1
  O  O39  1  0.03037600  0.57551200  0.84819400  1
loop_
_geom_bond_atom_site_label_1
_geom_bond_atom_site_label_2
_geom_bond_distance
_geom_bond_site_symmetry_2
Mn0 O14 2.117947 1_555
Mn0 O5 2.199591 1_555
Mn0 O1 2.205254 1_555
Mn0 O25 2.209883 1_555
Mn0 O36 2.214567 1_555
Mn0 O0 2.218902 1_555
Mn1 O8 2.118884 1_555
Mn1 O5 2.202821 1_555
Mn1 O1 2.204504 1_555
Mn1 O11 2.209616 1_555
Mn1 O6 2.213894 1_555
Mn1 O4 2.215540 1_555
Mn2 O8 2.099548 1_545
Mn2 O23 2.204362 1_555
Mn2 O19 2.205173 1_555
Mn2 O2 2.206176 1_555
Mn2 O6 2.206509 1_545
Mn2 O12 2.211627 1_545
Mn3 O9 2.191454 1_555
Mn3 O5 2.199212 1_555
Mn3 O10 2.203518 1_555
Mn3 O7 2.204432 1_555
Mn3 O36 2.215651 1_555
Mn3 O4 2.219928 1_555
Mn4 O13 2.117947 1_545
Mn4 O38 2.199582 1_555
Mn4 O3 2.205259 1_545
Mn4 O7 2.209883 1_555
Mn4 O34 2.214576 1_555
Mn4 O9 2.218902 1_555
Mn5 O8 2.117947 1_555
Mn5 O35 2.199582 1_555
Mn5 O15 2.205254 1_555
Mn5 O11 2.209883 1_555
Mn5 O24 2.214576 1_555
Mn5 O12 2.218902 1_555
Mn6 O12 2.191454 1_555
Mn6 O17 2.199212 1_555
Mn6 O6 2.203518 1_555
Mn6 O11 2.204432 1_555
Mn6 O22 2.215651 1_555
Mn6 O16 2.219928 1_665
Mn7 O14 2.099544 1_655
Mn7 O2 2.204353 1_555
Mn7 O18 2.205169 1_555
Mn7 O19 2.206180 1_555
Mn7 O39 2.206518 1_655
Mn7 O0 2.211632 1_655
Mn8 O13 2.118884 1_545
Mn8 O17 2.202830 1_445
Mn8 O21 2.204499 1_545
Mn8 O7 2.209616 1_555
Mn8 O10 2.213894 1_555
Mn8 O16 2.215540 1_555
Mn9 O13 2.099544 1_545
Mn9 O19 2.204353 1_555
Mn9 O23 2.205169 1_555
Mn9 O18 2.206180 1_555
Mn9 O10 2.206518 1_555
Mn9 O9 2.211632 1_555
Mn10 O8 2.102416 1_555
Mn10 O14 2.102416 1_555
Mn10 O29 2.102416 1_555
Mn10 O13 2.102416 1_555
Mn11 O29 2.099549 1_655
Mn11 O18 2.204357 1_555
Mn11 O2 2.205160 1_555
Mn11 O23 2.206175 1_555
Mn11 O31 2.206514 1_555
Mn11 O27 2.211641 1_555
Mn12 O0 2.191454 1_555
Mn12 O35 2.199207 1_556
Mn12 O39 2.203518 1_555
Mn12 O25 2.204432 1_555
Mn12 O24 2.215646 1_556
Mn12 O20 2.219928 1_455
Mn13 O26 2.192278 1_555
Mn13 O21 2.196132 1_655
Mn13 O16 2.207848 1_665
Mn13 O32 2.208589 1_554
Mn13 O28 2.208682 1_665
Mn13 O22 2.210538 1_555
Mn14 O30 2.192269 1_554
Mn14 O15 2.196146 1_555
Mn14 O20 2.207844 1_454
Mn14 O28 2.208588 1_555
Mn14 O26 2.208691 1_445
Mn14 O24 2.210538 1_555
Mn15 O29 2.117947 1_655
Mn15 O17 2.199591 1_555
Mn15 O21 2.205259 1_655
Mn15 O33 2.209883 1_555
Mn15 O22 2.214567 1_555
Mn15 O27 2.218902 1_555
Mn16 O32 2.192261 1_555
Mn16 O1 2.196150 1_555
Mn16 O4 2.207844 1_555
Mn16 O26 2.208597 1_556
Mn16 O30 2.208691 1_665
Mn16 O36 2.210533 1_555
Mn17 O28 2.192279 1_556
Mn17 O3 2.196137 1_545
Mn17 O37 2.207835 1_546
Mn17 O30 2.208606 1_555
Mn17 O32 2.208683 1_445
Mn17 O34 2.210533 1_555
Mn18 O27 2.191454 1_555
Mn18 O38 2.199207 1_554
Mn18 O31 2.203518 1_555
Mn18 O33 2.204432 1_555
Mn18 O34 2.215646 1_554
Mn18 O37 2.219928 1_545
Mn19 O29 2.118884 1_655
Mn19 O35 2.202826 1_655
Mn19 O15 2.204490 1_655
Mn19 O33 2.209616 1_555
Mn19 O31 2.213894 1_555
Mn19 O20 2.215540 1_554
Mn20 O14 2.118884 1_555
Mn20 O38 2.202826 1_565
Mn20 O3 2.204499 1_555
Mn20 O25 2.209616 1_555
Mn20 O39 2.213894 1_555
Mn20 O37 2.215540 1_556
O0 Sn0 2.007144 1_555
O1 Sn1 2.011417 1_565
O2 Sn2 2.020670 1_655
O3 Sn3 2.011422 1_455
O4 Sn3 2.019459 1_555
O5 Sn2 2.009283 1_555
O6 Sn0 2.004873 1_665
O7 Sn0 2.003007 1_555
O9 Sn8 2.007144 1_555
O10 Sn4 2.004873 1_555
O11 Sn4 2.003007 1_555
O12 Sn5 2.007144 1_555
O15 Sn2 2.011427 1_555
O16 Sn2 2.019459 1_555
O17 Sn3 2.009278 1_555
O18 Sn3 2.020670 1_555
O19 Sn1 2.020660 1_555
O20 Sn1 2.019464 1_555
O21 Sn7 2.011417 1_555
O22 Sn6 2.016522 1_555
O23 Sn7 2.020665 1_545
O24 Sn6 2.016517 1_555
O25 Sn5 2.003007 1_556
O26 Sn5 2.011577 1_555
O27 Sn4 2.007144 1_555
O28 Sn4 2.011582 1_555
O30 Sn0 2.011577 1_555
O31 Sn5 2.004873 1_545
O32 Sn8 2.011587 1_555
O33 Sn8 2.003007 1_554
O34 Sn6 2.016522 1_556
O35 Sn7 2.009289 1_555
O36 Sn6 2.016522 1_556
O37 Sn7 2.019469 1_555
O38 Sn1 2.009294 1_555
O39 Sn8 2.004873 1_455
