# generated using pymatgen
data_K2Yb2O3
_symmetry_space_group_name_H-M   'P 1'
_cell_length_a   6.87348600
_cell_length_b   6.60397800
_cell_length_c   6.74973999
_cell_angle_alpha   63.40228241
_cell_angle_beta   90.00000000
_cell_angle_gamma   90.00000000
_symmetry_Int_Tables_number   1
_chemical_formula_structural   K2Yb2O3
_chemical_formula_sum   'K4 Yb4 O6'
_cell_volume   273.96230754
_cell_formula_units_Z   2
loop_
 _symmetry_equiv_pos_site_id
 _symmetry_equiv_pos_as_xyz
  1  'x, y, z'
loop_
 _atom_site_type_symbol
 _atom_site_label
 _atom_site_symmetry_multiplicity
 _atom_site_fract_x
 _atom_site_fract_y
 _atom_site_fract_z
 _atom_site_occupancy
  K  K0  1  0.35033500  0.81992600  0.92355600  1
  K  K1  1  0.14966500  0.81992600  0.42355600  1
  K  K2  1  0.85033500  0.18007400  0.57644400  1
  K  K3  1  0.64966500  0.18007400  0.07644400  1
  Yb  Yb0  1  0.61990500  0.66617000  0.56790800  1
  Yb  Yb1  1  0.11990500  0.33383000  0.93209200  1
  Yb  Yb2  1  0.88009500  0.66617000  0.06790800  1
  Yb  Yb3  1  0.38009500  0.33383000  0.43209200  1
  O  O0  1  0.50000000  0.00000000  0.50000000  1
  O  O1  1  0.00000000  0.00000000  0.00000000  1
  O  O2  1  0.89177500  0.59890000  0.76752000  1
  O  O3  1  0.39177500  0.40110000  0.73248000  1
  O  O4  1  0.60822500  0.59890000  0.26752000  1
  O  O5  1  0.10822500  0.40110000  0.23248000  1
loop_
_geom_bond_atom_site_label_1
_geom_bond_atom_site_label_2
_geom_bond_distance
_geom_bond_site_symmetry_2
K0 O0 2.757062 1_565
K0 O4 2.761943 1_556
K0 O1 2.833454 1_566
K0 O5 3.098897 1_556
K1 O1 2.757062 1_565
K1 O2 2.761943 1_455
K1 O0 2.833454 1_565
K1 O3 3.098897 1_555
K2 O1 2.757062 1_656
K2 O5 2.761943 1_655
K2 O0 2.833454 1_555
K2 O4 3.098897 1_555
K3 O0 2.757062 1_555
K3 O3 2.761943 1_554
K3 O1 2.833454 1_655
K3 O2 3.098897 1_554
O0 Yb3 2.201085 1_555
O0 Yb0 2.201085 1_545
O1 Yb2 2.201085 1_445
O1 Yb1 2.201085 1_554
O2 Yb0 2.229059 1_555
O2 Yb1 2.239598 1_655
O2 Yb2 2.263026 1_556
O3 Yb1 2.229059 1_555
O3 Yb0 2.239598 1_555
O3 Yb3 2.263026 1_555
O4 Yb2 2.229059 1_555
O4 Yb3 2.239598 1_555
O4 Yb0 2.263026 1_555
O5 Yb3 2.229059 1_555
O5 Yb2 2.239598 1_455
O5 Yb1 2.263026 1_554
