# generated using pymatgen
data_Li3V3P8O29
_symmetry_space_group_name_H-M   'P 1'
_cell_length_a   9.76049500
_cell_length_b   9.77733917
_cell_length_c   14.38868007
_cell_angle_alpha   90.37074613
_cell_angle_beta   89.98030899
_cell_angle_gamma   119.80363338
_symmetry_Int_Tables_number   1
_chemical_formula_structural   Li3V3P8O29
_chemical_formula_sum   'Li6 V6 P16 O58'
_cell_volume   1191.48503225
_cell_formula_units_Z   2
loop_
 _symmetry_equiv_pos_site_id
 _symmetry_equiv_pos_as_xyz
  1  'x, y, z'
loop_
 _atom_site_type_symbol
 _atom_site_label
 _atom_site_symmetry_multiplicity
 _atom_site_fract_x
 _atom_site_fract_y
 _atom_site_fract_z
 _atom_site_occupancy
  Li  Li0  1  0.65846100  0.32179400  0.60763400  1
  Li  Li1  1  0.92118100  0.69673700  0.44925700  1
  Li  Li2  1  0.21971500  0.30090600  0.05357400  1
  Li  Li3  1  0.07670900  0.78503300  0.04712200  1
  Li  Li4  1  0.70188200  0.91891600  0.05191500  1
  Li  Li5  1  0.01151000  0.06422600  0.52115200  1
  V  V0  1  0.00398800  0.42858100  0.75018000  1
  V  V1  1  0.00105400  0.56199800  0.25107700  1
  V  V2  1  0.43852900  0.43415700  0.25482800  1
  V  V3  1  0.56667600  0.57269600  0.74971300  1
  V  V4  1  0.42626600  0.99390500  0.74790800  1
  V  V5  1  0.56339700  0.00150900  0.25782700  1
  P  P0  1  0.31428400  0.08493000  0.16209300  1
  P  P1  1  0.30875400  0.21919100  0.66076600  1
  P  P2  1  0.78183100  0.08710700  0.65937200  1
  P  P3  1  0.66651800  0.33339700  0.86415400  1
  P  P4  1  0.67058100  0.33751400  0.36971500  1
  P  P5  1  0.91012500  0.22434300  0.16195500  1
  P  P6  1  0.08464900  0.30718100  0.34254100  1
  P  P7  1  0.77015100  0.68197100  0.15847200  1
  P  P8  1  0.23202700  0.31504000  0.84093400  1
  P  P9  1  0.90530700  0.67985100  0.65887400  1
  P  P10  1  0.08524000  0.76971200  0.83656100  1
  P  P11  1  0.33056400  0.66374400  0.62979300  1
  P  P12  1  0.33596600  0.66680800  0.13624300  1
  P  P13  1  0.22081800  0.91634100  0.34379100  1
  P  P14  1  0.69378500  0.77599000  0.34000300  1
  P  P15  1  0.68508300  0.91662000  0.83952200  1
  O  O0  1  0.20625200  0.99034500  0.42965100  1
  O  O1  1  0.34952900  0.08293900  0.66496000  1
  O  O2  1  0.23788600  0.24950200  0.93229600  1
  O  O3  1  0.34033200  0.25519800  0.16376100  1
  O  O4  1  0.47531300  0.09314300  0.18320700  1
  O  O5  1  0.52748200  0.18114600  0.81746500  1
  O  O6  1  0.62592500  0.09257400  0.66296500  1
  O  O7  1  0.75197700  0.98866300  0.93112200  1
  O  O8  1  0.74035600  0.08091700  0.16365000  1
  O  O9  1  0.51943800  0.33225200  0.32635000  1
  O  O10  1  0.46962600  0.37409800  0.66552100  1
  O  O11  1  0.67216200  0.18896900  0.32794300  1
  O  O12  1  0.66610900  0.33529300  0.96694700  1
  O  O13  1  0.67184400  0.34273500  0.47314000  1
  O  O14  1  0.82044900  0.34435800  0.82100500  1
  O  O15  1  0.61860700  0.52205300  0.17928300  1
  O  O16  1  0.65417600  0.47354600  0.81853800  1
  O  O17  1  0.91803300  0.26325800  0.66693300  1
  O  O18  1  0.99207300  0.20120400  0.25343700  1
  O  O19  1  0.01502300  0.22198400  0.42905600  1
  O  O20  1  0.00387800  0.23550700  0.07861600  1
  O  O21  1  0.90167400  0.37856200  0.18112200  1
  O  O22  1  0.81686900  0.48959800  0.32976900  1
  O  O23  1  0.08591100  0.33887300  0.82976400  1
  O  O24  1  0.89425000  0.51722500  0.66913700  1
  O  O25  1  0.73328100  0.65080700  0.66660400  1
  O  O26  1  0.21534500  0.19861800  0.75789500  1
  O  O27  1  0.20252600  0.19649600  0.58215600  1
  O  O28  1  0.78656900  0.78242200  0.42272200  1
  O  O29  1  0.25888400  0.34684100  0.32664200  1
  O  O30  1  0.08208100  0.46497300  0.32708200  1
  O  O31  1  0.91631600  0.65746200  0.16197000  1
  O  O32  1  0.18164300  0.52010000  0.67453400  1
  O  O33  1  0.09498100  0.61917700  0.81770100  1
  O  O34  1  0.00904600  0.76775700  0.92594500  1
  O  O35  1  0.98149200  0.76652500  0.57227100  1
  O  O36  1  0.99232500  0.78710500  0.74922800  1
  O  O37  1  0.08264400  0.74144000  0.33349000  1
  O  O38  1  0.34015800  0.51986800  0.17529600  1
  O  O39  1  0.38046100  0.47492200  0.81864400  1
  O  O40  1  0.18242700  0.66015300  0.18115100  1
  O  O41  1  0.32736500  0.66828900  0.03339100  1
  O  O42  1  0.32919200  0.66328200  0.52707200  1
  O  O43  1  0.33613600  0.81459900  0.67435100  1
  O  O44  1  0.53409800  0.61708800  0.32690300  1
  O  O45  1  0.47608300  0.66016400  0.67470400  1
  O  O46  1  0.25501100  0.91554300  0.82792300  1
  O  O47  1  0.20628000  0.00200100  0.25227400  1
  O  O48  1  0.23257400  0.99266000  0.07794700  1
  O  O49  1  0.38211200  0.91739600  0.32893400  1
  O  O50  1  0.48018000  0.81762100  0.17933500  1
  O  O51  1  0.52546500  0.90695100  0.81717500  1
  O  O52  1  0.65955300  0.74602400  0.82866400  1
  O  O53  1  0.76130500  0.76320400  0.07418100  1
  O  O54  1  0.79430000  0.79268000  0.24805500  1
  O  O55  1  0.65603800  0.91232800  0.33254900  1
  O  O56  1  0.81115700  0.00797300  0.58012700  1
  O  O57  1  0.80050800  0.01318300  0.75641900  1
loop_
_geom_bond_atom_site_label_1
_geom_bond_atom_site_label_2
_geom_bond_distance
_geom_bond_site_symmetry_2
Li0 O13 1.944818 1_555
Li0 O6 2.252314 1_555
Li0 O10 2.298428 1_555
Li0 O24 2.310606 1_555
Li1 O35 1.879056 1_555
Li1 O28 1.916400 1_555
Li1 O37 2.184548 1_655
Li1 O22 2.449615 1_555
Li2 O2 1.845599 1_554
Li2 O20 1.907925 1_555
Li2 O3 2.152396 1_555
Li2 O38 2.546340 1_555
Li3 O34 1.841424 1_554
Li3 O48 1.884414 1_555
Li3 O31 2.195729 1_455
Li4 O7 1.846142 1_554
Li4 O53 1.908167 1_555
Li4 O8 2.147284 1_565
Li5 O27 1.873128 1_555
Li5 O56 1.944856 1_455
Li5 O19 2.027358 1_555
O0 P13 1.469887 1_555
O1 P1 1.569980 1_555
O1 V4 1.845386 1_545
O2 P8 1.479654 1_555
O3 P0 1.554161 1_555
O3 V2 2.000329 1_555
O4 P0 1.563204 1_555
O4 V5 1.863717 1_555
O5 P3 1.577477 1_555
O5 V4 1.873044 1_545
O6 P2 1.549815 1_555
O6 V4 2.089733 1_545
O7 P15 1.480203 1_555
O8 P5 1.550285 1_555
O8 V5 2.025158 1_555
O9 P4 1.578941 1_555
O9 V2 1.863177 1_555
O10 P1 1.548810 1_555
O10 V3 2.068134 1_555
O11 P4 1.575392 1_555
O11 V5 1.883297 1_555
O12 P3 1.479081 1_555
O13 P4 1.488540 1_555
O14 P3 1.579381 1_555
O14 V0 1.862533 1_655
O15 P7 1.558538 1_555
O15 V2 1.875816 1_555
O16 P3 1.580751 1_555
O16 V3 1.867052 1_555
O17 P2 1.570696 1_555
O17 V0 1.838207 1_655
O18 P6 1.608344 1_655
O18 P5 1.614951 1_555
O19 P6 1.468145 1_555
O20 P5 1.479479 1_455
O21 P5 1.573124 1_555
O21 V1 1.848972 1_655
O22 P4 1.574846 1_555
O22 V1 1.938801 1_655
O23 P8 1.563673 1_555
O23 V0 1.852232 1_555
O24 P9 1.547307 1_555
O24 V0 2.048160 1_655
O25 P9 1.561588 1_555
O25 V3 1.852990 1_555
O26 P8 1.596284 1_555
O26 P1 1.626444 1_555
O27 P1 1.473940 1_555
O28 P14 1.477794 1_555
O29 P6 1.562100 1_555
O29 V2 1.842062 1_555
O30 P6 1.572634 1_555
O30 V1 1.865796 1_555
O31 P7 1.560548 1_555
O31 V1 1.995684 1_655
O32 P11 1.575267 1_555
O32 V0 1.860399 1_555
O33 P10 1.543661 1_555
O33 V0 1.880777 1_555
O34 P10 1.480902 1_555
O35 P9 1.486771 1_555
O36 P10 1.608508 1_655
O36 P9 1.615239 1_555
O37 P13 1.571442 1_555
O37 V1 1.924405 1_555
O38 P12 1.565370 1_555
O38 V2 1.935652 1_555
O39 P8 1.549310 1_555
O39 V3 1.866794 1_555
O40 P12 1.603298 1_555
O40 V1 1.841112 1_555
O41 P12 1.482884 1_555
O42 P11 1.478042 1_555
O43 P11 1.580367 1_555
O43 V4 1.846916 1_555
O44 P14 1.570953 1_555
O44 V2 1.860865 1_555
O45 P11 1.576869 1_555
O45 V3 1.855369 1_555
O46 P10 1.564539 1_555
O46 V4 1.855688 1_555
O47 P13 1.608760 1_545
O47 P0 1.617235 1_555
O48 P0 1.478905 1_565
O49 P13 1.583638 1_555
O49 V5 1.848553 1_565
O50 P12 1.570225 1_555
O50 V5 1.921072 1_565
O51 P15 1.546958 1_555
O51 V4 1.866418 1_555
O52 P15 1.565928 1_555
O52 V3 1.852807 1_555
O53 P7 1.479850 1_555
O54 P14 1.606939 1_555
O54 P7 1.617787 1_555
O55 P14 1.553795 1_555
O55 V5 1.878942 1_565
O56 P2 1.479598 1_555
O57 P15 1.595858 1_545
O57 P2 1.627799 1_555
