# generated using pymatgen
data_Li3VF6
_symmetry_space_group_name_H-M   'P 1'
_cell_length_a   6.06769429
_cell_length_b   6.06769429
_cell_length_c   6.06769464
_cell_angle_alpha   91.38367038
_cell_angle_beta   91.38367038
_cell_angle_gamma   91.38367645
_symmetry_Int_Tables_number   1
_chemical_formula_structural   Li3VF6
_chemical_formula_sum   'Li6 V2 F12'
_cell_volume   223.19516956
_cell_formula_units_Z   2
loop_
 _symmetry_equiv_pos_site_id
 _symmetry_equiv_pos_as_xyz
  1  'x, y, z'
loop_
 _atom_site_type_symbol
 _atom_site_label
 _atom_site_symmetry_multiplicity
 _atom_site_fract_x
 _atom_site_fract_y
 _atom_site_fract_z
 _atom_site_occupancy
  Li  Li0  1  0.44747100  0.74944600  0.93935000  1
  Li  Li1  1  0.25055400  0.06065000  0.55252900  1
  Li  Li2  1  0.06065000  0.55252900  0.25055400  1
  Li  Li3  1  0.93935000  0.44747100  0.74944600  1
  Li  Li4  1  0.74944600  0.93935000  0.44747100  1
  Li  Li5  1  0.55252900  0.25055400  0.06065000  1
  V  V0  1  0.50000000  0.50000000  0.50000000  1
  V  V1  1  0.00000000  0.00000000  0.00000000  1
  F  F0  1  0.07417300  0.69410300  0.91990200  1
  F  F1  1  0.30589700  0.08009800  0.92582700  1
  F  F2  1  0.19377100  0.39875400  0.54707200  1
  F  F3  1  0.08009800  0.92582700  0.30589700  1
  F  F4  1  0.60124600  0.45292800  0.80622900  1
  F  F5  1  0.45292800  0.80622900  0.60124600  1
  F  F6  1  0.54707200  0.19377100  0.39875400  1
  F  F7  1  0.39875400  0.54707200  0.19377100  1
  F  F8  1  0.91990200  0.07417300  0.69410300  1
  F  F9  1  0.80622900  0.60124600  0.45292800  1
  F  F10  1  0.69410300  0.91990200  0.07417300  1
  F  F11  1  0.92582700  0.30589700  0.08009800  1
loop_
_geom_bond_atom_site_label_1
_geom_bond_atom_site_label_2
_geom_bond_distance
_geom_bond_site_symmetry_2
F0 Li3 1.950306 1_455
F0 V1 1.972604 1_566
F0 Li2 2.204011 1_556
F0 Li0 2.281583 1_555
F1 Li5 1.950306 1_556
F1 V1 1.972604 1_556
F1 Li0 2.204011 1_545
F1 Li1 2.281583 1_555
F2 V0 1.972436 1_555
F2 Li3 2.018525 1_455
F2 Li1 2.089347 1_555
F2 Li2 2.192574 1_555
F3 Li1 1.950306 1_565
F3 V1 1.972605 1_565
F3 Li4 2.204011 1_455
F3 Li2 2.281583 1_555
F4 V0 1.972437 1_555
F4 Li5 2.018525 1_556
F4 Li3 2.089347 1_555
F4 Li0 2.192574 1_555
F5 V0 1.972437 1_555
F5 Li1 2.018525 1_565
F5 Li0 2.089347 1_555
F5 Li4 2.192573 1_555
F6 V0 1.972437 1_555
F6 Li4 2.018525 1_545
F6 Li5 2.089347 1_555
F6 Li1 2.192573 1_555
F7 V0 1.972437 1_555
F7 Li0 2.018525 1_554
F7 Li2 2.089347 1_555
F7 Li5 2.192574 1_555
F8 Li4 1.950306 1_545
F8 V1 1.972605 1_656
F8 Li1 2.204011 1_655
F8 Li3 2.281583 1_555
F9 V0 1.972436 1_555
F9 Li2 2.018525 1_655
F9 Li4 2.089347 1_555
F9 Li3 2.192574 1_555
F10 Li0 1.950306 1_554
F10 V1 1.972604 1_665
F10 Li5 2.204011 1_565
F10 Li4 2.281583 1_555
F11 Li2 1.950306 1_655
F11 V1 1.972604 1_655
F11 Li3 2.204011 1_554
F11 Li5 2.281583 1_555
