# generated using pymatgen
data_LiMnF3
_symmetry_space_group_name_H-M   'P 1'
_cell_length_a   9.27624800
_cell_length_b   5.71913100
_cell_length_c   10.28897418
_cell_angle_alpha   75.03034805
_cell_angle_beta   90.00000000
_cell_angle_gamma   90.00000000
_symmetry_Int_Tables_number   1
_chemical_formula_structural   LiMnF3
_chemical_formula_sum   'Li8 Mn8 F24'
_cell_volume   527.32677468
_cell_formula_units_Z   8
loop_
 _symmetry_equiv_pos_site_id
 _symmetry_equiv_pos_as_xyz
  1  'x, y, z'
loop_
 _atom_site_type_symbol
 _atom_site_label
 _atom_site_symmetry_multiplicity
 _atom_site_fract_x
 _atom_site_fract_y
 _atom_site_fract_z
 _atom_site_occupancy
  Li  Li0  1  0.16484000  0.24479000  0.95499400  1
  Li  Li1  1  0.33516000  0.74479000  0.95499400  1
  Li  Li2  1  0.33401800  0.15161600  0.56190300  1
  Li  Li3  1  0.16598200  0.65161600  0.56190300  1
  Li  Li4  1  0.83401800  0.34838400  0.43809700  1
  Li  Li5  1  0.66598200  0.84838400  0.43809700  1
  Li  Li6  1  0.66484000  0.25521000  0.04500600  1
  Li  Li7  1  0.83516000  0.75521000  0.04500600  1
  Mn  Mn0  1  0.65568500  0.05279500  0.74141900  1
  Mn  Mn1  1  0.03958500  0.05938600  0.74107000  1
  Mn  Mn2  1  0.84431500  0.55279500  0.74141900  1
  Mn  Mn3  1  0.46041500  0.55938600  0.74107000  1
  Mn  Mn4  1  0.53958500  0.44061400  0.25893000  1
  Mn  Mn5  1  0.15568500  0.44720500  0.25858100  1
  Mn  Mn6  1  0.96041500  0.94061400  0.25893000  1
  Mn  Mn7  1  0.34431500  0.94720500  0.25858100  1
  F  F0  1  0.98558200  0.31077300  0.86011700  1
  F  F1  1  0.65881700  0.33706000  0.84908100  1
  F  F2  1  0.30189700  0.47487700  0.88507000  1
  F  F3  1  0.51441800  0.81077300  0.86011700  1
  F  F4  1  0.84118300  0.83706000  0.84908100  1
  F  F5  1  0.19810300  0.97487700  0.88507000  1
  F  F6  1  0.48842900  0.28073700  0.64264300  1
  F  F7  1  0.83593000  0.26205600  0.63518900  1
  F  F8  1  0.16664200  0.30753500  0.60373600  1
  F  F9  1  0.01157100  0.78073700  0.64264300  1
  F  F10  1  0.66407000  0.76205600  0.63518900  1
  F  F11  1  0.33335800  0.80753500  0.60373600  1
  F  F12  1  0.66664200  0.19246500  0.39626400  1
  F  F13  1  0.33593000  0.23794400  0.36481100  1
  F  F14  1  0.98842900  0.21926300  0.35735700  1
  F  F15  1  0.83335800  0.69246500  0.39626400  1
  F  F16  1  0.16407000  0.73794400  0.36481100  1
  F  F17  1  0.51157100  0.71926300  0.35735700  1
  F  F18  1  0.80189700  0.02512300  0.11493000  1
  F  F19  1  0.15881700  0.16294000  0.15091900  1
  F  F20  1  0.48558200  0.18922700  0.13988300  1
  F  F21  1  0.69810300  0.52512300  0.11493000  1
  F  F22  1  0.34118300  0.66294000  0.15091900  1
  F  F23  1  0.01441800  0.68922700  0.13988300  1
loop_
_geom_bond_atom_site_label_1
_geom_bond_atom_site_label_2
_geom_bond_distance
_geom_bond_site_symmetry_2
F0 Li0 1.915745 1_655
F0 Mn2 2.061874 1_555
F0 Mn1 2.174408 1_655
F1 Li6 1.948966 1_556
F1 Mn0 2.191196 1_555
F1 Mn2 2.237005 1_555
F1 Mn3 2.347113 1_555
F2 Li0 1.837524 1_555
F2 Li1 1.889303 1_555
F2 Mn3 2.054521 1_555
F3 Li1 1.915745 1_555
F3 Mn0 2.061874 1_565
F3 Mn3 2.174408 1_555
F4 Li7 1.948966 1_556
F4 Mn2 2.191196 1_555
F4 Mn0 2.237005 1_565
F4 Mn1 2.347113 1_665
F5 Li1 1.837524 1_555
F5 Li0 1.889303 1_565
F5 Mn1 2.054521 1_565
F6 Li2 1.898421 1_555
F6 Mn0 2.110698 1_555
F6 Mn3 2.113417 1_555
F7 Li4 1.959365 1_555
F7 Mn0 2.178704 1_555
F7 Mn2 2.214591 1_555
F7 Mn1 2.333853 1_655
F8 Li2 1.894556 1_555
F8 Li3 1.902666 1_555
F8 Mn1 2.088992 1_555
F9 Li3 1.898421 1_555
F9 Mn2 2.110698 1_455
F9 Mn1 2.113417 1_565
F10 Li5 1.959365 1_555
F10 Mn2 2.178704 1_555
F10 Mn0 2.214591 1_565
F10 Mn3 2.333853 1_555
F11 Li3 1.894556 1_555
F11 Li2 1.902666 1_565
F11 Mn3 2.088992 1_555
F12 Li4 1.894556 1_555
F12 Li5 1.902666 1_545
F12 Mn4 2.088992 1_555
F13 Li2 1.959365 1_555
F13 Mn5 2.178704 1_555
F13 Mn7 2.214591 1_545
F13 Mn4 2.333853 1_555
F14 Li4 1.898421 1_555
F14 Mn5 2.110698 1_655
F14 Mn6 2.113417 1_545
F15 Li5 1.894556 1_555
F15 Li4 1.902666 1_555
F15 Mn6 2.088992 1_555
F16 Li3 1.959365 1_555
F16 Mn7 2.178704 1_555
F16 Mn5 2.214591 1_555
F16 Mn6 2.333853 1_455
F17 Li5 1.898421 1_555
F17 Mn7 2.110698 1_555
F17 Mn4 2.113417 1_555
F18 Li6 1.837524 1_555
F18 Li7 1.889303 1_545
F18 Mn6 2.054521 1_545
F19 Li0 1.948966 1_554
F19 Mn5 2.191196 1_555
F19 Mn7 2.237005 1_545
F19 Mn6 2.347113 1_445
F20 Li6 1.915745 1_555
F20 Mn7 2.061874 1_545
F20 Mn4 2.174408 1_555
F21 Li7 1.837524 1_555
F21 Li6 1.889303 1_555
F21 Mn4 2.054521 1_555
F22 Li1 1.948966 1_554
F22 Mn7 2.191196 1_555
F22 Mn5 2.237005 1_555
F22 Mn4 2.347113 1_555
F23 Li7 1.915745 1_455
F23 Mn5 2.061874 1_555
F23 Mn6 2.174408 1_455
