# generated using pymatgen
data_Li5MnO4
_symmetry_space_group_name_H-M   'P 1'
_cell_length_a   6.75131500
_cell_length_b   6.61245300
_cell_length_c   4.53455000
_cell_angle_alpha   90.00010253
_cell_angle_beta   90.00002961
_cell_angle_gamma   89.99998285
_symmetry_Int_Tables_number   1
_chemical_formula_structural   Li5MnO4
_chemical_formula_sum   'Li10 Mn2 O8'
_cell_volume   202.43479619
_cell_formula_units_Z   2
loop_
 _symmetry_equiv_pos_site_id
 _symmetry_equiv_pos_as_xyz
  1  'x, y, z'
loop_
 _atom_site_type_symbol
 _atom_site_label
 _atom_site_symmetry_multiplicity
 _atom_site_fract_x
 _atom_site_fract_y
 _atom_site_fract_z
 _atom_site_occupancy
  Li  Li0  1  0.05192900  0.00898600  0.74838900  1
  Li  Li1  1  0.05192900  0.49101400  0.74838900  1
  Li  Li2  1  0.25000000  0.75000000  0.19573100  1
  Li  Li3  1  0.44807100  0.00898600  0.74838900  1
  Li  Li4  1  0.44807100  0.49101400  0.74838900  1
  Li  Li5  1  0.55192900  0.99101400  0.25161200  1
  Li  Li6  1  0.55193000  0.50898600  0.25161200  1
  Li  Li7  1  0.75000000  0.25000000  0.80426800  1
  Li  Li8  1  0.94807100  0.99101400  0.25161200  1
  Li  Li9  1  0.94807100  0.50898600  0.25161200  1
  Mn  Mn0  1  0.25000000  0.25000000  0.23288200  1
  Mn  Mn1  1  0.74999800  0.75000200  0.76711400  1
  O  O0  1  0.00142100  0.25000000  0.02981700  1
  O  O1  1  0.25000000  0.99603000  0.42539800  1
  O  O2  1  0.25000000  0.50396900  0.42539800  1
  O  O3  1  0.49858000  0.25000000  0.02981800  1
  O  O4  1  0.50142000  0.75000000  0.97018400  1
  O  O5  1  0.75000000  0.00397200  0.57460000  1
  O  O6  1  0.75000000  0.49602800  0.57460100  1
  O  O7  1  0.99858100  0.75000000  0.97018500  1
loop_
_geom_bond_atom_site_label_1
_geom_bond_atom_site_label_2
_geom_bond_distance
_geom_bond_site_symmetry_2
Li0 O1 1.985109 1_545
Li0 O7 2.018420 1_445
Li0 O0 2.069949 1_556
Li0 O5 2.185698 1_455
Li1 O2 1.985109 1_555
Li1 O7 2.018417 1_455
Li1 O0 2.069952 1_556
Li1 O6 2.185696 1_455
Li2 O1 1.931648 1_555
Li2 O2 1.931657 1_555
Li2 O7 1.981719 1_454
Li2 O4 1.981728 1_554
Li3 O1 1.985108 1_545
Li3 O4 2.018419 1_545
Li3 O3 2.069953 1_556
Li3 O5 2.185699 1_555
Li4 O2 1.985108 1_555
Li4 O4 2.018416 1_555
Li4 O3 2.069956 1_556
Li4 O6 2.185697 1_555
Li5 O5 1.985099 1_565
Li5 O3 2.018417 1_565
Li5 O4 2.069950 1_554
Li5 O1 2.185694 1_555
Li6 O6 1.985098 1_555
Li6 O3 2.018415 1_555
Li6 O4 2.069954 1_554
Li6 O2 2.185700 1_555
Li7 O5 1.931639 1_555
Li7 O6 1.931640 1_555
Li7 O3 1.981735 1_556
Li7 O0 1.981738 1_656
Li8 O5 1.985100 1_565
Li8 O0 2.018420 1_665
Li8 O7 2.069948 1_554
Li8 O1 2.185693 1_655
Li9 O6 1.985104 1_555
Li9 O0 2.018417 1_655
Li9 O7 2.069952 1_554
Li9 O2 2.185693 1_655
Mn0 O2 1.892702 1_555
Mn0 O1 1.892711 1_545
Mn0 O0 1.914252 1_555
Mn0 O3 1.914256 1_555
Mn1 O5 1.892706 1_565
Mn1 O6 1.892725 1_555
Mn1 O4 1.914258 1_555
Mn1 O7 1.914288 1_555
