# generated using pymatgen
data_Li2Mn4OF8
_symmetry_space_group_name_H-M   'P 1'
_cell_length_a   5.46300000
_cell_length_b   9.45643900
_cell_length_c   14.59456800
_cell_angle_alpha   90.00000000
_cell_angle_beta   90.00000000
_cell_angle_gamma   90.00000000
_symmetry_Int_Tables_number   1
_chemical_formula_structural   Li2Mn4OF8
_chemical_formula_sum   'Li8 Mn16 O4 F32'
_cell_volume   753.96306337
_cell_formula_units_Z   4
loop_
 _symmetry_equiv_pos_site_id
 _symmetry_equiv_pos_as_xyz
  1  'x, y, z'
loop_
 _atom_site_type_symbol
 _atom_site_label
 _atom_site_symmetry_multiplicity
 _atom_site_fract_x
 _atom_site_fract_y
 _atom_site_fract_z
 _atom_site_occupancy
  Li  Li0  1  0.75246700  0.00413700  0.89802200  1
  Li  Li1  1  0.75246700  0.99586300  0.10197800  1
  Li  Li2  1  0.24753300  0.49586300  0.39802200  1
  Li  Li3  1  0.24753300  0.50413700  0.60197800  1
  Li  Li4  1  0.26684100  0.52418600  0.09749400  1
  Li  Li5  1  0.26684100  0.47581400  0.90250600  1
  Li  Li6  1  0.73315900  0.02418600  0.40250600  1
  Li  Li7  1  0.73315900  0.97581400  0.59749400  1
  Mn  Mn0  1  0.77115500  0.33058400  0.05883400  1
  Mn  Mn1  1  0.77115500  0.66941600  0.94116600  1
  Mn  Mn2  1  0.76921200  0.66614300  0.23820800  1
  Mn  Mn3  1  0.76921200  0.33385700  0.76179200  1
  Mn  Mn4  1  0.23078800  0.16614300  0.26179200  1
  Mn  Mn5  1  0.23078800  0.83385700  0.73820800  1
  Mn  Mn6  1  0.22884500  0.83058400  0.44116600  1
  Mn  Mn7  1  0.22884500  0.16941600  0.55883400  1
  Mn  Mn8  1  0.23808200  0.83989000  0.93698500  1
  Mn  Mn9  1  0.23808200  0.16011000  0.06301500  1
  Mn  Mn10  1  0.23454600  0.17404200  0.75916600  1
  Mn  Mn11  1  0.23454600  0.82595800  0.24083400  1
  Mn  Mn12  1  0.76545400  0.67404200  0.74083400  1
  Mn  Mn13  1  0.76545400  0.32595800  0.25916600  1
  Mn  Mn14  1  0.76191800  0.66011000  0.43698500  1
  Mn  Mn15  1  0.76191800  0.33989000  0.56301500  1
  O  O0  1  0.95287700  0.19415600  0.15910700  1
  O  O1  1  0.95287700  0.80584400  0.84089300  1
  O  O2  1  0.04712300  0.30584400  0.65910700  1
  O  O3  1  0.04712300  0.69415600  0.34089300  1
  F  F0  1  0.88087500  0.14908100  0.49674200  1
  F  F1  1  0.88087500  0.85091900  0.50325800  1
  F  F2  1  0.90797200  0.83885500  0.16457900  1
  F  F3  1  0.90797200  0.16114500  0.83542100  1
  F  F4  1  0.91230100  0.49573700  0.16045300  1
  F  F5  1  0.91230100  0.50426300  0.83954700  1
  F  F6  1  0.96864600  0.50000000  0.50000000  1
  F  F7  1  0.03135400  0.00000000  0.00000000  1
  F  F8  1  0.08769900  0.99573700  0.33954700  1
  F  F9  1  0.08769900  0.00426300  0.66045300  1
  F  F10  1  0.09202800  0.33885500  0.33542100  1
  F  F11  1  0.09202800  0.66114500  0.66457900  1
  F  F12  1  0.11912500  0.35091900  0.99674200  1
  F  F13  1  0.11912500  0.64908100  0.00325800  1
  F  F14  1  0.41294200  0.64931400  0.49507200  1
  F  F15  1  0.41294200  0.35068600  0.50492800  1
  F  F16  1  0.42662900  0.66554200  0.17293800  1
  F  F17  1  0.42662900  0.33445800  0.82706200  1
  F  F18  1  0.39470200  0.00471100  0.16687200  1
  F  F19  1  0.39470200  0.99528900  0.83312800  1
  F  F20  1  0.45367400  0.32599500  0.15846100  1
  F  F21  1  0.45367400  0.67400500  0.84153900  1
  F  F22  1  0.43060600  0.00000000  0.50000000  1
  F  F23  1  0.56939400  0.50000000  0.00000000  1
  F  F24  1  0.54632600  0.17400500  0.65846100  1
  F  F25  1  0.54632600  0.82599500  0.34153900  1
  F  F26  1  0.60529800  0.49528900  0.66687200  1
  F  F27  1  0.60529800  0.50471100  0.33312800  1
  F  F28  1  0.57337100  0.16554200  0.32706200  1
  F  F29  1  0.57337100  0.83445800  0.67293800  1
  F  F30  1  0.58705800  0.14931400  0.00492800  1
  F  F31  1  0.58705800  0.85068600  0.99507200  1
loop_
_geom_bond_atom_site_label_1
_geom_bond_atom_site_label_2
_geom_bond_distance
_geom_bond_site_symmetry_2
Li0 O1 2.325946 1_545
Li1 O0 2.325946 1_565
Li2 O3 2.325946 1_555
Li3 O2 2.325946 1_555
Mn0 O0 2.188978 1_555
Mn1 O1 2.188978 1_555
Mn2 O3 2.149679 1_655
Mn3 O2 2.149679 1_655
Mn4 O0 2.149679 1_455
Mn5 O1 2.149679 1_455
Mn6 O3 2.188978 1_555
Mn7 O2 2.188978 1_555
Mn8 O1 2.120858 1_455
Mn9 O0 2.120858 1_455
Mn10 O2 2.175854 1_555
Mn11 O3 2.175854 1_555
Mn12 O1 2.175854 1_555
Mn13 O0 2.175854 1_555
Mn14 O3 2.120858 1_655
Mn15 O2 2.120858 1_655
F0 Li6 1.984352 1_555
F0 Mn7 2.114672 1_655
F0 Mn15 2.147932 1_555
F0 Li7 2.344786 1_545
F1 Li7 1.984352 1_555
F1 Mn6 2.114672 1_655
F1 Mn14 2.147932 1_555
F1 Li6 2.344786 1_565
F2 Li1 1.939294 1_555
F2 Mn2 2.096864 1_555
F2 Mn11 2.106267 1_655
F3 Li0 1.939294 1_555
F3 Mn3 2.096864 1_555
F3 Mn10 2.106267 1_655
F4 Mn2 2.120269 1_555
F4 Li4 2.160572 1_655
F4 Mn0 2.287619 1_555
F4 Mn13 2.301467 1_555
F5 Mn3 2.120269 1_555
F5 Li5 2.160572 1_655
F5 Mn1 2.287619 1_555
F5 Mn12 2.301467 1_555
F6 Mn15 2.100871 1_555
F6 Mn14 2.100871 1_555
F6 Li2 2.130229 1_655
F6 Li3 2.130229 1_655
F7 Mn8 2.100871 1_544
F7 Mn9 2.100871 1_555
F7 Li1 2.130229 1_445
F7 Li0 2.130229 1_454
F8 Mn4 2.120269 1_565
F8 Li6 2.160572 1_465
F8 Mn6 2.287619 1_555
F8 Mn11 2.301467 1_555
F9 Mn5 2.120269 1_545
F9 Li7 2.160572 1_445
F9 Mn7 2.287619 1_555
F9 Mn10 2.301467 1_555
F10 Li2 1.939294 1_555
F10 Mn4 2.096864 1_555
F10 Mn13 2.106267 1_455
F11 Li3 1.939294 1_555
F11 Mn5 2.096864 1_555
F11 Mn12 2.106267 1_455
F12 Li5 1.984352 1_555
F12 Mn0 2.114672 1_456
F12 Mn9 2.147932 1_556
F12 Li4 2.344786 1_556
F13 Li4 1.984352 1_555
F13 Mn1 2.114672 1_454
F13 Mn8 2.147932 1_554
F13 Li5 2.344786 1_554
F14 Mn14 2.088943 1_555
F14 Mn6 2.137476 1_555
F14 Li2 2.220008 1_555
F14 Li3 2.266198 1_555
F15 Mn15 2.088943 1_555
F15 Mn7 2.137476 1_555
F15 Li3 2.220008 1_555
F15 Li2 2.266198 1_555
F16 Li4 1.939378 1_555
F16 Mn11 2.093854 1_555
F16 Mn2 2.100020 1_555
F17 Li5 1.939378 1_555
F17 Mn10 2.093854 1_555
F17 Mn3 2.100020 1_555
F18 Li1 2.173466 1_545
F18 Mn11 2.188160 1_545
F18 Mn4 2.247527 1_555
F18 Mn9 2.277951 1_555
F19 Li0 2.173466 1_565
F19 Mn10 2.188160 1_565
F19 Mn5 2.247527 1_555
F19 Mn8 2.277951 1_555
F20 Mn13 2.249717 1_555
F20 Mn0 2.263664 1_555
F20 Li4 2.312151 1_555
F20 Mn9 2.405900 1_555
F20 Mn4 2.458032 1_555
F21 Mn12 2.249717 1_555
F21 Mn1 2.263664 1_555
F21 Li5 2.312151 1_555
F21 Mn8 2.405900 1_555
F21 Mn5 2.458032 1_555
F22 Mn7 2.125751 1_555
F22 Mn6 2.125751 1_545
F22 Li7 2.192900 1_545
F22 Li6 2.192900 1_555
F23 Mn0 2.125751 1_555
F23 Mn1 2.125751 1_554
F23 Li4 2.192900 1_555
F23 Li5 2.192900 1_554
F24 Mn10 2.249717 1_555
F24 Mn7 2.263664 1_555
F24 Li7 2.312151 1_545
F24 Mn15 2.405900 1_555
F24 Mn3 2.458032 1_555
F25 Mn11 2.249717 1_555
F25 Mn6 2.263664 1_555
F25 Li6 2.312151 1_565
F25 Mn14 2.405900 1_555
F25 Mn2 2.458032 1_555
F26 Li3 2.173466 1_555
F26 Mn12 2.188160 1_555
F26 Mn3 2.247527 1_555
F26 Mn15 2.277951 1_555
F27 Li2 2.173466 1_555
F27 Mn13 2.188160 1_555
F27 Mn2 2.247527 1_555
F27 Mn14 2.277951 1_555
F28 Li6 1.939378 1_555
F28 Mn13 2.093854 1_555
F28 Mn4 2.100020 1_555
F29 Li7 1.939378 1_555
F29 Mn12 2.093854 1_555
F29 Mn5 2.100020 1_555
F30 Mn9 2.088943 1_555
F30 Mn0 2.137476 1_555
F30 Li1 2.220008 1_545
F30 Li0 2.266198 1_554
F31 Mn8 2.088943 1_555
F31 Mn1 2.137476 1_555
F31 Li0 2.220008 1_565
F31 Li1 2.266198 1_556
