# generated using pymatgen
data_Li3Mn4CoO8
_symmetry_space_group_name_H-M   'P 1'
_cell_length_a   6.02525743
_cell_length_b   6.02525743
_cell_length_c   6.13176790
_cell_angle_alpha   59.51528961
_cell_angle_beta   59.51528961
_cell_angle_gamma   61.14592723
_symmetry_Int_Tables_number   1
_chemical_formula_structural   Li3Mn4CoO8
_chemical_formula_sum   'Li3 Mn4 Co1 O8'
_cell_volume   157.53022181
_cell_formula_units_Z   1
loop_
 _symmetry_equiv_pos_site_id
 _symmetry_equiv_pos_as_xyz
  1  'x, y, z'
loop_
 _atom_site_type_symbol
 _atom_site_label
 _atom_site_symmetry_multiplicity
 _atom_site_fract_x
 _atom_site_fract_y
 _atom_site_fract_z
 _atom_site_occupancy
  Li  Li0  1  0.50000000  0.00000000  0.50000000  1
  Li  Li1  1  0.00000000  0.00000000  0.50000000  1
  Li  Li2  1  0.00000000  0.50000000  0.50000000  1
  Mn  Mn0  1  0.50000000  0.50000000  0.50000000  1
  Mn  Mn1  1  0.00000000  0.00000000  0.00000000  1
  Mn  Mn2  1  0.50000000  0.00000000  0.00000000  1
  Mn  Mn3  1  0.00000000  0.50000000  0.00000000  1
  Co  Co0  1  0.50000000  0.50000000  0.00000000  1
  O  O0  1  0.25254000  0.25254000  0.20501900  1
  O  O1  1  0.76302700  0.26327800  0.23422300  1
  O  O2  1  0.26327800  0.76302700  0.23422300  1
  O  O3  1  0.74627900  0.74627900  0.27338200  1
  O  O4  1  0.25372100  0.25372100  0.72661800  1
  O  O5  1  0.73672200  0.23697300  0.76577700  1
  O  O6  1  0.23697300  0.73672200  0.76577700  1
  O  O7  1  0.74746000  0.74746000  0.79498100  1
loop_
_geom_bond_atom_site_label_1
_geom_bond_atom_site_label_2
_geom_bond_distance
_geom_bond_site_symmetry_2
Li0 O4 2.084141 1_555
Li0 O3 2.084141 1_545
Li0 O6 2.206090 1_545
Li0 O1 2.206090 1_555
Li0 O7 2.358845 1_545
Li0 O0 2.358845 1_555
Li1 O7 2.133535 1_445
Li1 O0 2.133535 1_555
Li1 O5 2.182386 1_455
Li1 O6 2.182386 1_545
Li1 O2 2.182386 1_545
Li1 O1 2.182386 1_455
Li2 O4 2.084141 1_555
Li2 O3 2.084141 1_455
Li2 O5 2.206090 1_455
Li2 O2 2.206090 1_555
Li2 O7 2.358845 1_455
Li2 O0 2.358845 1_555
Mn0 O3 2.067798 1_555
Mn0 O4 2.067798 1_555
Mn0 O5 2.181305 1_555
Mn0 O6 2.181305 1_555
Mn0 O2 2.181305 1_555
Mn0 O1 2.181305 1_555
Mn1 O4 2.130611 1_554
Mn1 O3 2.130611 1_445
Mn1 O2 2.159315 1_545
Mn1 O1 2.159315 1_455
Mn1 O6 2.159315 1_544
Mn1 O5 2.159315 1_454
Mn2 O5 1.985512 1_554
Mn2 O2 1.985512 1_545
Mn2 O0 1.992019 1_555
Mn2 O7 1.992019 1_544
Mn2 O3 2.254615 1_545
Mn2 O4 2.254615 1_554
Mn3 O6 1.985512 1_554
Mn3 O1 1.985512 1_455
Mn3 O0 1.992019 1_555
Mn3 O7 1.992019 1_454
Mn3 O3 2.254615 1_455
Mn3 O4 2.254615 1_554
Co0 O7 2.090138 1_554
Co0 O0 2.090138 1_555
Co0 O1 2.158223 1_555
Co0 O2 2.158223 1_555
Co0 O5 2.158223 1_554
Co0 O6 2.158223 1_554
