# generated using pymatgen
data_CaTi2(HO3)2
_symmetry_space_group_name_H-M   'P 1'
_cell_length_a   12.20023400
_cell_length_b   4.97458500
_cell_length_c   16.06461528
_cell_angle_alpha   81.05251697
_cell_angle_beta   90.00000000
_cell_angle_gamma   90.00000000
_symmetry_Int_Tables_number   1
_chemical_formula_structural   CaTi2(HO3)2
_chemical_formula_sum   'Ca8 Ti16 H16 O48'
_cell_volume   963.11497245
_cell_formula_units_Z   8
loop_
 _symmetry_equiv_pos_site_id
 _symmetry_equiv_pos_as_xyz
  1  'x, y, z'
loop_
 _atom_site_type_symbol
 _atom_site_label
 _atom_site_symmetry_multiplicity
 _atom_site_fract_x
 _atom_site_fract_y
 _atom_site_fract_z
 _atom_site_occupancy
  Ca  Ca0  1  0.45040300  0.78648700  0.74025100  1
  Ca  Ca1  1  0.04959700  0.78648700  0.24025100  1
  Ca  Ca2  1  0.54959700  0.21351300  0.25974900  1
  Ca  Ca3  1  0.95040300  0.21351300  0.75974900  1
  Ca  Ca4  1  0.81180000  0.21184200  0.37766000  1
  Ca  Ca5  1  0.68820000  0.21184200  0.87766000  1
  Ca  Ca6  1  0.18820000  0.78815800  0.62234000  1
  Ca  Ca7  1  0.31180000  0.78815800  0.12234000  1
  Ti  Ti0  1  0.19649200  0.37077900  0.45762200  1
  Ti  Ti1  1  0.30350800  0.37077900  0.95762200  1
  Ti  Ti2  1  0.80350800  0.62922100  0.54237800  1
  Ti  Ti3  1  0.69649200  0.62922100  0.04237800  1
  Ti  Ti4  1  0.01237900  0.78658100  0.43928800  1
  Ti  Ti5  1  0.48762100  0.78658100  0.93928800  1
  Ti  Ti6  1  0.98762100  0.21341900  0.56071200  1
  Ti  Ti7  1  0.51237900  0.21341900  0.06071200  1
  Ti  Ti8  1  0.40995300  0.40607400  0.57267000  1
  Ti  Ti9  1  0.09004700  0.40607400  0.07267000  1
  Ti  Ti10  1  0.59004700  0.59392600  0.42733000  1
  Ti  Ti11  1  0.90995300  0.59392600  0.92733000  1
  Ti  Ti12  1  0.61237400  0.03643800  0.54859800  1
  Ti  Ti13  1  0.88762600  0.03643800  0.04859800  1
  Ti  Ti14  1  0.38762600  0.96356200  0.45140200  1
  Ti  Ti15  1  0.11237400  0.96356200  0.95140200  1
  H  H0  1  0.70423200  0.78507600  0.28950800  1
  H  H1  1  0.79576800  0.78507600  0.78950800  1
  H  H2  1  0.29576800  0.21492400  0.71049200  1
  H  H3  1  0.20423200  0.21492400  0.21049200  1
  H  H4  1  0.58453300  0.34993000  0.70241900  1
  H  H5  1  0.91546700  0.34993000  0.20241900  1
  H  H6  1  0.41546700  0.65007000  0.29758100  1
  H  H7  1  0.08453300  0.65007000  0.79758100  1
  H  H8  1  0.74833500  0.97005700  0.20617300  1
  H  H9  1  0.75166500  0.97005700  0.70617300  1
  H  H10  1  0.25166500  0.02994300  0.79382700  1
  H  H11  1  0.24833500  0.02994300  0.29382700  1
  H  H12  1  0.66316100  0.60168300  0.70125600  1
  H  H13  1  0.83683900  0.60168300  0.20125600  1
  H  H14  1  0.33683900  0.39831700  0.29874400  1
  H  H15  1  0.16316100  0.39831700  0.79874400  1
  O  O0  1  0.90258300  0.49739800  0.45989400  1
  O  O1  1  0.59741700  0.49739800  0.95989400  1
  O  O2  1  0.09741700  0.50260200  0.54010600  1
  O  O3  1  0.40258300  0.50260200  0.04010600  1
  O  O4  1  0.31254100  0.12532800  0.54738400  1
  O  O5  1  0.18745900  0.12532800  0.04738400  1
  O  O6  1  0.68745900  0.87467200  0.45261600  1
  O  O7  1  0.81254100  0.87467200  0.95261600  1
  O  O8  1  0.69226100  0.36901600  0.51600400  1
  O  O9  1  0.80773900  0.36901600  0.01600400  1
  O  O10  1  0.30773900  0.63098400  0.48399600  1
  O  O11  1  0.19226100  0.63098400  0.98399600  1
  O  O12  1  0.50330100  0.73754800  0.53505700  1
  O  O13  1  0.99669900  0.73754800  0.03505700  1
  O  O14  1  0.49669900  0.26245200  0.46494300  1
  O  O15  1  0.00330100  0.26245200  0.96494300  1
  O  O16  1  0.10111300  0.05555800  0.48752300  1
  O  O17  1  0.39888700  0.05555800  0.98752300  1
  O  O18  1  0.89888700  0.94444200  0.51247700  1
  O  O19  1  0.60111300  0.94444200  0.01247700  1
  O  O20  1  0.71213800  0.82663800  0.61781200  1
  O  O21  1  0.78786200  0.82663800  0.11781200  1
  O  O22  1  0.28786200  0.17336200  0.38218800  1
  O  O23  1  0.21213800  0.17336200  0.88218800  1
  O  O24  1  0.52052700  0.16345700  0.63295000  1
  O  O25  1  0.97947300  0.16345700  0.13295000  1
  O  O26  1  0.47947300  0.83654300  0.36705000  1
  O  O27  1  0.02052700  0.83654300  0.86705000  1
  O  O28  1  0.34529000  0.51340400  0.66235000  1
  O  O29  1  0.15471000  0.51340400  0.16235000  1
  O  O30  1  0.65471000  0.48659600  0.33765000  1
  O  O31  1  0.84529000  0.48659600  0.83765000  1
  O  O32  1  0.72355800  0.97931500  0.26488200  1
  O  O33  1  0.77644200  0.97931500  0.76488200  1
  O  O34  1  0.27644200  0.02068500  0.73511800  1
  O  O35  1  0.22355800  0.02068500  0.23511800  1
  O  O36  1  0.61152000  0.48268800  0.73910000  1
  O  O37  1  0.88848000  0.48268800  0.23910000  1
  O  O38  1  0.38848000  0.51731200  0.26090000  1
  O  O39  1  0.11152000  0.51731200  0.76090000  1
  O  O40  1  0.96441500  0.97444100  0.34420400  1
  O  O41  1  0.53558500  0.97444100  0.84420400  1
  O  O42  1  0.03558500  0.02555900  0.65579600  1
  O  O43  1  0.46441500  0.02555900  0.15579600  1
  O  O44  1  0.12026600  0.59208700  0.37630200  1
  O  O45  1  0.37973400  0.59208700  0.87630200  1
  O  O46  1  0.87973400  0.40791300  0.62369800  1
  O  O47  1  0.62026700  0.40791300  0.12369800  1
loop_
_geom_bond_atom_site_label_1
_geom_bond_atom_site_label_2
_geom_bond_distance
_geom_bond_site_symmetry_2
Ca0 O41 2.286636 1_555
Ca0 O28 2.363251 1_555
Ca0 O45 2.407899 1_555
Ca0 O34 2.416332 1_565
Ca0 O36 2.481294 1_555
Ca0 O24 2.492866 1_565
Ca1 O40 2.286636 1_455
Ca1 O29 2.363251 1_555
Ca1 O44 2.407899 1_555
Ca1 O35 2.416332 1_565
Ca1 O37 2.481294 1_455
Ca1 O25 2.492866 1_465
Ca2 O43 2.286636 1_555
Ca2 O30 2.363251 1_555
Ca2 O47 2.407903 1_555
Ca2 O32 2.416332 1_545
Ca2 O38 2.481294 1_555
Ca2 O26 2.492866 1_545
Ca3 O42 2.286636 1_655
Ca3 O31 2.363251 1_555
Ca3 O46 2.407899 1_555
Ca3 O33 2.416332 1_545
Ca3 O39 2.481294 1_655
Ca3 O27 2.492866 1_645
Ca4 O40 2.312532 1_545
Ca4 O0 2.360832 1_555
Ca4 O30 2.383500 1_555
Ca4 O6 2.436440 1_545
Ca4 O32 2.535998 1_545
Ca4 O18 2.587043 1_545
Ca4 O37 2.590817 1_555
Ca4 O8 2.866713 1_555
Ca5 O41 2.312532 1_545
Ca5 O1 2.360832 1_555
Ca5 O31 2.383500 1_555
Ca5 O7 2.436440 1_545
Ca5 O33 2.535998 1_545
Ca5 O19 2.587043 1_546
Ca5 O36 2.590817 1_555
Ca5 O9 2.866713 1_556
Ca6 O42 2.312532 1_565
Ca6 O2 2.360832 1_555
Ca6 O28 2.383500 1_555
Ca6 O4 2.436440 1_565
Ca6 O34 2.535998 1_565
Ca6 O16 2.587043 1_565
Ca6 O39 2.590817 1_555
Ca6 O10 2.866713 1_555
Ca7 O43 2.312532 1_565
Ca7 O3 2.360832 1_555
Ca7 O29 2.383500 1_555
Ca7 O5 2.436440 1_565
Ca7 O35 2.535998 1_565
Ca7 O17 2.587043 1_564
Ca7 O38 2.590817 1_555
Ca7 O11 2.866713 1_554
H0 O32 1.013335 1_555
H0 O30 1.676493 1_555
H1 O33 1.013335 1_555
H1 O31 1.676493 1_555
H2 O34 1.013335 1_555
H2 O28 1.676493 1_555
H3 O35 1.013335 1_555
H3 O29 1.676493 1_555
H4 O36 1.006399 1_555
H4 O24 1.742909 1_555
H5 O37 1.006399 1_555
H5 O25 1.742909 1_555
H6 O38 1.006399 1_555
H6 O26 1.742909 1_555
H7 O39 1.006399 1_555
H7 O27 1.742909 1_555
H8 O32 0.998257 1_555
H8 O21 1.752576 1_555
H9 O33 0.998257 1_555
H9 O20 1.752576 1_555
H10 O34 0.998257 1_555
H10 O23 1.752576 1_555
H11 O35 0.998257 1_555
H11 O22 1.752576 1_555
H12 O36 1.002500 1_555
H12 O20 1.714540 1_555
H13 O37 1.002500 1_555
H13 O21 1.714540 1_555
H14 O38 1.002500 1_555
H14 O22 1.714540 1_555
H15 O39 1.002500 1_555
H15 O23 1.714540 1_555
O0 Ti4 1.955833 1_655
O0 Ti2 1.979188 1_555
O0 Ti6 2.232364 1_555
O1 Ti5 1.955833 1_555
O1 Ti3 1.979188 1_556
O1 Ti7 2.232364 1_556
O2 Ti6 1.955833 1_455
O2 Ti0 1.979188 1_555
O2 Ti4 2.232364 1_555
O3 Ti7 1.955833 1_555
O3 Ti1 1.979188 1_554
O3 Ti5 2.232364 1_554
O4 Ti8 1.924672 1_555
O4 Ti14 2.061599 1_545
O4 Ti0 2.242121 1_555
O5 Ti9 1.924672 1_555
O5 Ti15 2.061599 1_544
O5 Ti1 2.242121 1_554
O6 Ti10 1.924672 1_555
O6 Ti12 2.061599 1_565
O6 Ti2 2.242121 1_555
O7 Ti11 1.924672 1_555
O7 Ti13 2.061599 1_566
O7 Ti3 2.242121 1_556
O8 Ti12 1.921403 1_555
O8 Ti2 1.966648 1_555
O8 Ti10 2.083353 1_555
O9 Ti13 1.921403 1_555
O9 Ti3 1.966648 1_555
O9 Ti11 2.083353 1_554
O10 Ti14 1.921403 1_555
O10 Ti0 1.966648 1_555
O10 Ti8 2.083353 1_555
O11 Ti15 1.921403 1_555
O11 Ti1 1.966648 1_555
O11 Ti9 2.083353 1_556
O12 Ti8 2.017726 1_555
O12 Ti12 2.032109 1_565
O12 Ti14 2.142848 1_555
O12 Ti10 2.238315 1_555
O13 Ti9 2.017726 1_655
O13 Ti13 2.032109 1_565
O13 Ti15 2.142848 1_654
O13 Ti11 2.238315 1_554
O14 Ti10 2.017726 1_555
O14 Ti14 2.032109 1_545
O14 Ti12 2.142848 1_555
O14 Ti8 2.238315 1_555
O15 Ti11 2.017726 1_455
O15 Ti15 2.032109 1_545
O15 Ti13 2.142848 1_456
O15 Ti9 2.238315 1_556
O16 Ti0 1.951775 1_555
O16 Ti4 1.971114 1_545
O16 Ti6 2.050239 1_455
O17 Ti1 1.951775 1_555
O17 Ti5 1.971114 1_545
O17 Ti7 2.050239 1_556
O18 Ti2 1.951775 1_555
O18 Ti6 1.971114 1_565
O18 Ti4 2.050239 1_655
O19 Ti3 1.951775 1_555
O19 Ti7 1.971114 1_565
O19 Ti5 2.050239 1_554
O20 Ti12 1.856348 1_565
O20 Ti2 2.011413 1_555
O21 Ti13 1.856348 1_565
O21 Ti3 2.011413 1_555
O22 Ti14 1.856348 1_545
O22 Ti0 2.011413 1_555
O23 Ti15 1.856348 1_545
O23 Ti1 2.011413 1_555
O24 Ti12 1.938423 1_555
O24 Ti8 1.962328 1_555
O25 Ti13 1.938423 1_555
O25 Ti9 1.962328 1_655
O26 Ti14 1.938423 1_555
O26 Ti10 1.962328 1_555
O27 Ti15 1.938423 1_555
O27 Ti11 1.962328 1_455
O28 Ti8 1.795064 1_555
O29 Ti9 1.795064 1_555
O30 Ti10 1.795064 1_555
O31 Ti11 1.795064 1_555
O40 Ti4 1.762088 1_655
O41 Ti5 1.762088 1_555
O42 Ti6 1.762088 1_455
O43 Ti7 1.762088 1_555
O44 Ti0 1.826504 1_555
O44 Ti4 1.999242 1_555
O45 Ti1 1.826504 1_555
O45 Ti5 1.999242 1_555
O46 Ti2 1.826504 1_555
O46 Ti6 1.999242 1_555
O47 Ti3 1.826498 1_555
O47 Ti7 1.999250 1_555
