# generated using pymatgen
data_Na2V2O5
_symmetry_space_group_name_H-M   'P 1'
_cell_length_a   5.34774800
_cell_length_b   6.60973900
_cell_length_c   17.00700400
_cell_angle_alpha   90.00000000
_cell_angle_beta   90.00000000
_cell_angle_gamma   90.00000000
_symmetry_Int_Tables_number   1
_chemical_formula_structural   Na2V2O5
_chemical_formula_sum   'Na8 V8 O20'
_cell_volume   601.15028672
_cell_formula_units_Z   4
loop_
 _symmetry_equiv_pos_site_id
 _symmetry_equiv_pos_as_xyz
  1  'x, y, z'
loop_
 _atom_site_type_symbol
 _atom_site_label
 _atom_site_symmetry_multiplicity
 _atom_site_fract_x
 _atom_site_fract_y
 _atom_site_fract_z
 _atom_site_occupancy
  Na  Na0  1  0.77615600  0.59450100  0.94326500  1
  Na  Na1  1  0.22384400  0.59450100  0.44326500  1
  Na  Na2  1  0.27615600  0.90549900  0.94326500  1
  Na  Na3  1  0.72384400  0.90549900  0.44326500  1
  Na  Na4  1  0.27615600  0.09450100  0.55673500  1
  Na  Na5  1  0.72384400  0.09450100  0.05673500  1
  Na  Na6  1  0.77615600  0.40549900  0.55673500  1
  Na  Na7  1  0.22384400  0.40549900  0.05673500  1
  V  V0  1  0.29234700  0.59410100  0.65060900  1
  V  V1  1  0.70765300  0.59410100  0.15060900  1
  V  V2  1  0.79234700  0.90589900  0.65060900  1
  V  V3  1  0.20765300  0.90589900  0.15060900  1
  V  V4  1  0.20765300  0.09410100  0.34939100  1
  V  V5  1  0.79234700  0.09410100  0.84939100  1
  V  V6  1  0.29234700  0.40589900  0.84939100  1
  V  V7  1  0.70765300  0.40589900  0.34939100  1
  O  O0  1  0.24080900  0.50000000  0.75000000  1
  O  O1  1  0.75919100  0.50000000  0.25000000  1
  O  O2  1  0.21947300  0.55733700  0.93014900  1
  O  O3  1  0.78052700  0.55733700  0.43014900  1
  O  O4  1  0.62986500  0.65731300  0.63825200  1
  O  O5  1  0.37013500  0.65731300  0.13825200  1
  O  O6  1  0.12986500  0.84268700  0.63825200  1
  O  O7  1  0.87013500  0.84268700  0.13825200  1
  O  O8  1  0.71947300  0.94266300  0.93014900  1
  O  O9  1  0.28052700  0.94266300  0.43014900  1
  O  O10  1  0.74080900  0.00000000  0.75000000  1
  O  O11  1  0.25919100  0.00000000  0.25000000  1
  O  O12  1  0.71947300  0.05733700  0.56985100  1
  O  O13  1  0.28052700  0.05733700  0.06985100  1
  O  O14  1  0.12986500  0.15731300  0.86174800  1
  O  O15  1  0.87013500  0.15731300  0.36174800  1
  O  O16  1  0.62986500  0.34268700  0.86174800  1
  O  O17  1  0.37013500  0.34268700  0.36174800  1
  O  O18  1  0.21947300  0.44266300  0.56985100  1
  O  O19  1  0.78052700  0.44266300  0.06985100  1
loop_
_geom_bond_atom_site_label_1
_geom_bond_atom_site_label_2
_geom_bond_distance
_geom_bond_site_symmetry_2
Na0 O16 2.303115 1_555
Na0 O8 2.331832 1_555
Na0 O19 2.375402 1_556
Na0 O2 2.393855 1_655
Na1 O17 2.303115 1_555
Na1 O9 2.331832 1_555
Na1 O18 2.375402 1_555
Na1 O3 2.393855 1_455
Na2 O14 2.303115 1_565
Na2 O2 2.331832 1_555
Na2 O13 2.375402 1_566
Na2 O8 2.393855 1_555
Na3 O15 2.303115 1_565
Na3 O3 2.331832 1_555
Na3 O12 2.375402 1_565
Na3 O9 2.393855 1_555
Na4 O6 2.303115 1_545
Na4 O18 2.331832 1_555
Na4 O9 2.375402 1_545
Na4 O12 2.393855 1_555
Na5 O7 2.303115 1_545
Na5 O19 2.331832 1_555
Na5 O8 2.375402 1_544
Na5 O13 2.393855 1_555
Na6 O4 2.303115 1_555
Na6 O12 2.331832 1_555
Na6 O3 2.375402 1_555
Na6 O18 2.393855 1_655
Na7 O5 2.303115 1_555
Na7 O13 2.331832 1_555
Na7 O2 2.375402 1_554
Na7 O19 2.393855 1_455
O0 V0 1.822110 1_555
O0 V6 1.822110 1_555
O1 V1 1.822110 1_555
O1 V7 1.822110 1_555
O2 V6 1.743610 1_555
O3 V7 1.743610 1_555
O4 V0 1.864570 1_555
O4 V2 1.870539 1_555
O5 V1 1.864570 1_555
O5 V3 1.870539 1_555
O6 V2 1.864570 1_455
O6 V0 1.870539 1_555
O7 V3 1.864570 1_655
O7 V1 1.870539 1_555
O8 V5 1.743610 1_565
O9 V4 1.743610 1_565
O10 V5 1.822110 1_555
O10 V2 1.822110 1_545
O11 V4 1.822110 1_555
O11 V3 1.822110 1_545
O12 V2 1.743610 1_545
O13 V3 1.743610 1_545
O14 V5 1.864570 1_455
O14 V6 1.870539 1_555
O15 V4 1.864570 1_655
O15 V7 1.870539 1_555
O16 V6 1.864570 1_555
O16 V5 1.870539 1_555
O17 V7 1.864570 1_555
O17 V4 1.870539 1_555
O18 V0 1.743610 1_555
O19 V1 1.743610 1_555
