# generated using pymatgen
data_CdBiO3
_symmetry_space_group_name_H-M   'P 1'
_cell_length_a   5.82956195
_cell_length_b   5.83042303
_cell_length_c   5.97222702
_cell_angle_alpha   60.77515692
_cell_angle_beta   119.17519248
_cell_angle_gamma   119.97930802
_symmetry_Int_Tables_number   1
_chemical_formula_structural   CdBiO3
_chemical_formula_sum   'Cd2 Bi2 O6'
_cell_volume   145.26917585
_cell_formula_units_Z   2
loop_
 _symmetry_equiv_pos_site_id
 _symmetry_equiv_pos_as_xyz
  1  'x, y, z'
loop_
 _atom_site_type_symbol
 _atom_site_label
 _atom_site_symmetry_multiplicity
 _atom_site_fract_x
 _atom_site_fract_y
 _atom_site_fract_z
 _atom_site_occupancy
  Cd  Cd0  1  0.63746289  0.36235626  0.91275783  1
  Cd  Cd1  1  0.36708135  0.63288539  0.10124387  1
  Bi  Bi0  1  0.86141947  0.13839973  0.58469133  1
  Bi  Bi1  1  0.14971077  0.85024579  0.44918714  1
  O  O0  1  0.95544388  0.73525489  0.73241716  1
  O  O1  1  0.51170123  0.04462610  0.73193370  1
  O  O2  1  0.26461001  0.48790443  0.73190127  1
  O  O3  1  0.78614956  0.56821646  0.25181657  1
  O  O4  1  0.43264396  0.96615227  0.25232106  1
  O  O5  1  0.03377588  0.21395866  0.25172808  1
loop_
_geom_bond_atom_site_label_1
_geom_bond_atom_site_label_2
_geom_bond_distance
_geom_bond_site_symmetry_2
Cd0 O0 2.226069 1_555
Cd0 O2 2.226198 1_555
Cd0 O1 2.227058 1_555
Cd0 O4 2.429886 1_546
Cd0 O5 2.431429 1_656
Cd0 O3 2.431996 1_556
Cd1 O5 2.316260 1_555
Cd1 O3 2.316590 1_555
Cd1 O4 2.317174 1_555
Cd1 O1 2.440999 1_564
Cd1 O0 2.441461 1_454
Cd1 O2 2.443013 1_554
Bi0 O1 2.322280 1_555
Bi0 O0 2.322672 1_545
Bi0 O2 2.323361 1_655
Bi0 O4 2.407719 1_545
Bi0 O5 2.409996 1_655
Bi0 O3 2.410079 1_555
Bi1 O5 2.134881 1_565
Bi1 O3 2.135255 1_455
Bi1 O4 2.135500 1_555
Bi1 O2 2.142665 1_555
Bi1 O1 2.143235 1_565
Bi1 O0 2.143531 1_455
