# generated using pymatgen
data_LaAgO3
_symmetry_space_group_name_H-M   'P 1'
_cell_length_a   5.73108100
_cell_length_b   5.73108100
_cell_length_c   5.73108061
_cell_angle_alpha   62.31957935
_cell_angle_beta   62.31957935
_cell_angle_gamma   62.31958708
_symmetry_Int_Tables_number   1
_chemical_formula_structural   LaAgO3
_chemical_formula_sum   'La2 Ag2 O6'
_cell_volume   139.99486405
_cell_formula_units_Z   2
loop_
 _symmetry_equiv_pos_site_id
 _symmetry_equiv_pos_as_xyz
  1  'x, y, z'
loop_
 _atom_site_type_symbol
 _atom_site_label
 _atom_site_symmetry_multiplicity
 _atom_site_fract_x
 _atom_site_fract_y
 _atom_site_fract_z
 _atom_site_occupancy
  La  La0  1  0.25793300  0.25793300  0.25793300  1
  La  La1  1  0.75793300  0.75793300  0.75793300  1
  Ag  Ag0  1  0.99778100  0.99778100  0.99778100  1
  Ag  Ag1  1  0.49778100  0.49778100  0.49778100  1
  O  O0  1  0.84957600  0.23103500  0.64539400  1
  O  O1  1  0.73103500  0.34957600  0.14539400  1
  O  O2  1  0.34957600  0.14539400  0.73103500  1
  O  O3  1  0.64539400  0.84957600  0.23103500  1
  O  O4  1  0.23103500  0.64539400  0.84957600  1
  O  O5  1  0.14539400  0.73103500  0.34957600  1
loop_
_geom_bond_atom_site_label_1
_geom_bond_atom_site_label_2
_geom_bond_distance
_geom_bond_site_symmetry_2
La0 O0 2.370798 1_455
La0 O4 2.370798 1_554
La0 O3 2.370799 1_545
La0 O2 2.725261 1_555
La0 O1 2.725261 1_555
La0 O5 2.725261 1_555
La0 O2 3.135547 1_554
La0 O5 3.135547 1_545
La0 O1 3.135547 1_455
La1 O1 2.370798 1_556
La1 O5 2.370798 1_655
La1 O2 2.370799 1_565
La1 O3 2.725261 1_556
La1 O0 2.725261 1_565
La1 O4 2.725261 1_655
La1 O3 3.135547 1_555
La1 O4 3.135547 1_555
La1 O0 3.135547 1_555
Ag0 O3 2.148860 1_556
Ag0 O0 2.148860 1_565
Ag0 O4 2.148860 1_655
Ag0 O2 2.153408 1_665
Ag0 O5 2.153408 1_656
Ag0 O1 2.153408 1_566
Ag1 O2 2.148860 1_555
Ag1 O1 2.148860 1_555
Ag1 O5 2.148860 1_555
Ag1 O3 2.153408 1_555
Ag1 O4 2.153408 1_555
Ag1 O0 2.153408 1_555
