# generated using pymatgen
data_ZnCrH15N5Cl4F
_symmetry_space_group_name_H-M   'P 1'
_cell_length_a   9.64013194
_cell_length_b   9.64013194
_cell_length_c   9.17435000
_cell_angle_alpha   90.00000000
_cell_angle_beta   90.00000000
_cell_angle_gamma   130.78024200
_symmetry_Int_Tables_number   1
_chemical_formula_structural   ZnCrH15N5Cl4F
_chemical_formula_sum   'Zn2 Cr2 H30 N10 Cl8 F2'
_cell_volume   645.60001255
_cell_formula_units_Z   2
loop_
 _symmetry_equiv_pos_site_id
 _symmetry_equiv_pos_as_xyz
  1  'x, y, z'
loop_
 _atom_site_type_symbol
 _atom_site_label
 _atom_site_symmetry_multiplicity
 _atom_site_fract_x
 _atom_site_fract_y
 _atom_site_fract_z
 _atom_site_occupancy
  Zn  Zn0  1  0.11112300  0.88887700  0.47777900  1
  Zn  Zn1  1  0.88887700  0.11112300  0.97777900  1
  Cr  Cr0  1  0.39940600  0.60059400  0.57921300  1
  Cr  Cr1  1  0.60059400  0.39940600  0.07921300  1
  H  H0  1  0.72056800  0.70369600  0.63671700  1
  H  H1  1  0.29630400  0.27943200  0.63671700  1
  H  H2  1  0.27943200  0.29630400  0.13671700  1
  H  H3  1  0.70369600  0.72056800  0.13671700  1
  H  H4  1  0.61756200  0.66287400  0.79431100  1
  H  H5  1  0.33712600  0.38243800  0.79431100  1
  H  H6  1  0.38243800  0.33712600  0.29431100  1
  H  H7  1  0.66287400  0.61756200  0.29431100  1
  H  H8  1  0.72024200  0.86057000  0.70742600  1
  H  H9  1  0.13943000  0.27975800  0.70742600  1
  H  H10  1  0.27975800  0.13943000  0.20742600  1
  H  H11  1  0.86057000  0.72024200  0.20742600  1
  H  H12  1  0.21750300  0.57822500  0.81420300  1
  H  H13  1  0.42177500  0.78249700  0.81420300  1
  H  H14  1  0.78249700  0.42177500  0.31420300  1
  H  H15  1  0.57822500  0.21750300  0.31420300  1
  H  H16  1  0.26015200  0.73984800  0.70688600  1
  H  H17  1  0.73984800  0.26015200  0.20688600  1
  H  H18  1  0.14260400  0.41886900  0.37172300  1
  H  H19  1  0.58113100  0.85739600  0.37172300  1
  H  H20  1  0.85739600  0.58113100  0.87172300  1
  H  H21  1  0.41886900  0.14260400  0.87172300  1
  H  H22  1  0.13071500  0.56664500  0.44615600  1
  H  H23  1  0.43335500  0.86928500  0.44615600  1
  H  H24  1  0.86928500  0.43335500  0.94615600  1
  H  H25  1  0.56664500  0.13071500  0.94615600  1
  H  H26  1  0.03873600  0.37332200  0.53055600  1
  H  H27  1  0.62667800  0.96126400  0.53055600  1
  H  H28  1  0.96126400  0.62667800  0.03055600  1
  H  H29  1  0.37332200  0.03873600  0.03055600  1
  N  N0  1  0.64179700  0.72218400  0.69342800  1
  N  N1  1  0.27781600  0.35820300  0.69342800  1
  N  N2  1  0.35820300  0.27781600  0.19342800  1
  N  N3  1  0.72218400  0.64179700  0.19342800  1
  N  N4  1  0.31472100  0.68527900  0.74783200  1
  N  N5  1  0.68527900  0.31472100  0.24783200  1
  N  N6  1  0.14910200  0.47507900  0.46874700  1
  N  N7  1  0.52492100  0.85089800  0.46874700  1
  N  N8  1  0.85089800  0.52492100  0.96874700  1
  N  N9  1  0.47507900  0.14910200  0.96874700  1
  Cl  Cl0  1  0.17931100  0.82068900  0.25560300  1
  Cl  Cl1  1  0.82068900  0.17931100  0.75560300  1
  Cl  Cl2  1  0.98435400  0.01564600  0.43510800  1
  Cl  Cl3  1  0.01564600  0.98435400  0.93510800  1
  Cl  Cl4  1  0.91302500  0.60876600  0.58842000  1
  Cl  Cl5  1  0.39123400  0.08697500  0.58842000  1
  Cl  Cl6  1  0.08697500  0.39123400  0.08842000  1
  Cl  Cl7  1  0.60876600  0.91302500  0.08842000  1
  F  F0  1  0.47595200  0.52404800  0.42930400  1
  F  F1  1  0.52404800  0.47595200  0.92930400  1
loop_
_geom_bond_atom_site_label_1
_geom_bond_atom_site_label_2
_geom_bond_distance
_geom_bond_site_symmetry_2
Cr0 F0 1.921417 1_555
Cr0 N1 2.086642 1_555
Cr0 N0 2.086642 1_555
Cr0 N7 2.121215 1_555
Cr0 N6 2.121215 1_555
Cr0 N4 2.143984 1_555
Cr1 F1 1.921417 1_554
Cr1 N2 2.086642 1_555
Cr1 N3 2.086642 1_555
Cr1 N8 2.121215 1_554
Cr1 N9 2.121215 1_554
Cr1 N5 2.143984 1_555
H0 N0 1.027565 1_555
H1 N1 1.027565 1_555
H2 N2 1.027565 1_555
H3 N3 1.027565 1_555
H4 N0 1.031314 1_555
H5 N1 1.031314 1_555
H6 N2 1.031314 1_555
H7 N3 1.031314 1_555
H8 N0 1.024795 1_555
H9 N1 1.024795 1_555
H10 N2 1.024795 1_555
H11 N3 1.024795 1_555
H12 N4 1.025032 1_555
H13 N4 1.025032 1_555
H14 N5 1.025032 1_555
H15 N5 1.025032 1_555
H16 N4 1.027656 1_555
H17 N5 1.027656 1_555
H18 N6 1.022518 1_555
H19 N7 1.022518 1_555
H20 N8 1.022518 1_555
H21 N9 1.022518 1_555
H22 N6 1.028561 1_555
H23 N7 1.028561 1_555
H24 N8 1.028561 1_555
H25 N9 1.028561 1_555
H26 N6 1.025875 1_555
H27 N7 1.025875 1_555
H28 N8 1.025875 1_554
H29 N9 1.025875 1_554
Cl0 Zn0 2.362922 1_555
Cl1 Zn1 2.362922 1_555
Cl2 Zn0 2.256345 1_645
Cl3 Zn1 2.256345 1_465
Cl4 Zn0 2.287479 1_655
Cl5 Zn0 2.287479 1_545
Cl6 Zn1 2.287479 1_454
Cl7 Zn1 2.287479 1_564
