# generated using pymatgen
data_Li13Ni15O28
_symmetry_space_group_name_H-M   'P 1'
_cell_length_a   8.15507815
_cell_length_b   8.76603204
_cell_length_c   7.66995584
_cell_angle_alpha   105.16129867
_cell_angle_beta   105.13737557
_cell_angle_gamma   103.33173654
_symmetry_Int_Tables_number   1
_chemical_formula_structural   Li13Ni15O28
_chemical_formula_sum   'Li13 Ni15 O28'
_cell_volume   483.86039285
_cell_formula_units_Z   1
loop_
 _symmetry_equiv_pos_site_id
 _symmetry_equiv_pos_as_xyz
  1  'x, y, z'
loop_
 _atom_site_type_symbol
 _atom_site_label
 _atom_site_symmetry_multiplicity
 _atom_site_fract_x
 _atom_site_fract_y
 _atom_site_fract_z
 _atom_site_occupancy
  Li  Li0  1  0.28787200  0.21308100  0.92871800  1
  Li  Li1  1  0.06975700  0.42797700  0.85990800  1
  Li  Li2  1  0.43010200  0.06954400  0.64162800  1
  Li  Li3  1  0.85752100  0.64228000  0.78325100  1
  Li  Li4  1  0.99846900  0.50188500  0.50122900  1
  Li  Li5  1  0.64276300  0.85933500  0.71717300  1
  Li  Li6  1  0.35881500  0.14345100  0.28294900  1
  Li  Li7  1  0.50142200  0.00106900  0.99966100  1
  Li  Li8  1  0.14069900  0.35834700  0.21413900  1
  Li  Li9  1  0.78580900  0.71209300  0.42568400  1
  Li  Li10  1  0.57105100  0.92914800  0.35960600  1
  Li  Li11  1  0.92715000  0.57036000  0.14319600  1
  Li  Li12  1  0.71428600  0.78571400  0.07142900  1
  Ni  Ni0  1  0.78345000  0.21130100  0.92520300  1
  Ni  Ni1  1  0.57148700  0.42792700  0.85848900  1
  Ni  Ni2  1  0.92932400  0.06873900  0.63970300  1
  Ni  Ni3  1  0.21428600  0.28571400  0.57142900  1
  Ni  Ni4  1  0.35583900  0.64118900  0.79023700  1
  Ni  Ni5  1  0.71428600  0.28571400  0.57142900  1
  Ni  Ni6  1  0.14325300  0.85783600  0.70943300  1
  Ni  Ni7  1  0.49924700  0.50268900  0.50315400  1
  Ni  Ni8  1  0.85708500  0.14350200  0.28436900  1
  Ni  Ni9  1  0.28531800  0.71359300  0.43342400  1
  Ni  Ni10  1  0.64512200  0.36012800  0.21765500  1
  Ni  Ni11  1  0.99781500  0.99959800  0.99618800  1
  Ni  Ni12  1  0.43075700  0.57183000  0.14666900  1
  Ni  Ni13  1  0.07273300  0.93024000  0.35262000  1
  Ni  Ni14  1  0.21428600  0.78571400  0.07142900  1
  O  O0  1  0.01954200  0.19360200  0.91491400  1
  O  O1  1  0.54990600  0.22983100  0.93665300  1
  O  O2  1  0.68170000  0.08928300  0.64380600  1
  O  O3  1  0.80015900  0.42203500  0.84249700  1
  O  O4  1  0.17684900  0.06407200  0.62024500  1
  O  O5  1  0.33812200  0.42512900  0.86009700  1
  O  O6  1  0.58650300  0.62729500  0.77677200  1
  O  O7  1  0.12570800  0.64948100  0.80714200  1
  O  O8  1  0.23185600  0.98973800  0.98144300  1
  O  O9  1  0.96483900  0.26879800  0.57921900  1
  O  O10  1  0.46373200  0.30263000  0.56363800  1
  O  O11  1  0.25172200  0.50735600  0.52261300  1
  O  O12  1  0.62841300  0.14939400  0.30036000  1
  O  O13  1  0.74687100  0.48214500  0.49905100  1
  O  O14  1  0.09045000  0.14629900  0.28276000  1
  O  O15  1  0.37337600  0.84788200  0.70329900  1
  O  O16  1  0.90888900  0.86634400  0.70199400  1
  O  O17  1  0.51968200  0.70508500  0.44086300  1
  O  O18  1  0.05519500  0.72354700  0.43955800  1
  O  O19  1  0.87866500  0.34159700  0.20620400  1
  O  O20  1  0.76215500  0.00072400  0.99925300  1
  O  O21  1  0.40903000  0.37782700  0.22794300  1
  O  O22  1  0.84206900  0.94413300  0.36608500  1
  O  O23  1  0.19671500  0.58169100  0.16141400  1
  O  O24  1  0.30286300  0.92194700  0.33571600  1
  O  O25  1  0.66641600  0.57070400  0.14360400  1
  O  O26  1  0.45246600  0.76647900  0.06603400  1
  O  O27  1  0.97610500  0.80494900  0.07682300  1
loop_
_geom_bond_atom_site_label_1
_geom_bond_atom_site_label_2
_geom_bond_distance
_geom_bond_site_symmetry_2
Li0 O5 2.042852 1_555
Li0 O8 2.074484 1_545
Li0 O1 2.091492 1_555
Li0 O0 2.127448 1_555
Li0 O21 2.180144 1_556
Li0 O4 2.200692 1_555
Li1 O9 2.056700 1_455
Li1 O7 2.059402 1_555
Li1 O3 2.155125 1_455
Li1 O23 2.170635 1_556
Li1 O0 2.173118 1_555
Li1 O5 2.194056 1_555
Li2 O2 2.014191 1_555
Li2 O4 2.016915 1_555
Li2 O15 2.096156 1_545
Li2 O1 2.144382 1_555
Li2 O24 2.185718 1_545
Li2 O10 2.252649 1_555
Li3 O3 2.075148 1_555
Li3 O13 2.079494 1_555
Li3 O7 2.131169 1_655
Li3 O27 2.141484 1_556
Li3 O6 2.170235 1_555
Li3 O16 2.195225 1_555
Li4 O13 2.014189 1_555
Li4 O11 2.016916 1_655
Li4 O18 2.096156 1_655
Li4 O19 2.144384 1_555
Li4 O7 2.185723 1_655
Li4 O9 2.252657 1_555
Li5 O17 2.022715 1_555
Li5 O20 2.026257 1_565
Li5 O15 2.149012 1_555
Li5 O6 2.173111 1_555
Li5 O16 2.191265 1_555
Li5 O2 2.207287 1_565
Li6 O10 2.056700 1_555
Li6 O24 2.059406 1_545
Li6 O12 2.155123 1_555
Li6 O8 2.170634 1_544
Li6 O21 2.173126 1_555
Li6 O14 2.194056 1_555
Li7 O20 2.127815 1_555
Li7 O15 2.139526 1_545
Li7 O8 2.143284 1_545
Li7 O12 2.155300 1_556
Li7 O1 2.156920 1_555
Li7 O26 2.218681 1_546
Li8 O14 2.042852 1_555
Li8 O23 2.074492 1_555
Li8 O19 2.091492 1_455
Li8 O21 2.127455 1_555
Li8 O0 2.180142 1_554
Li8 O11 2.200699 1_555
Li9 O16 2.022717 1_555
Li9 O25 2.026258 1_555
Li9 O18 2.149002 1_655
Li9 O22 2.173111 1_555
Li9 O17 2.191275 1_555
Li9 O13 2.207287 1_555
Li10 O12 2.075156 1_565
Li10 O2 2.079494 1_565
Li10 O24 2.131178 1_555
Li10 O26 2.141484 1_555
Li10 O22 2.170235 1_555
Li10 O17 2.195218 1_555
Li11 O25 2.127821 1_555
Li11 O18 2.139526 1_655
Li11 O23 2.143276 1_655
Li11 O3 2.155300 1_554
Li11 O19 2.156928 1_555
Li11 O27 2.218672 1_555
Li12 O25 2.081001 1_555
Li12 O20 2.081004 1_564
Li12 O27 2.091222 1_555
Li12 O26 2.091228 1_555
Li12 O22 2.140792 1_555
Li12 O6 2.140797 1_554
Ni0 O1 1.970799 1_555
Ni0 O2 1.984611 1_555
Ni0 O0 1.986952 1_655
Ni0 O19 1.995488 1_556
Ni0 O20 2.052376 1_555
Ni0 O3 2.091771 1_555
Ni1 O5 1.900913 1_555
Ni1 O3 1.912041 1_555
Ni1 O1 1.965858 1_555
Ni1 O6 1.994121 1_555
Ni1 O25 2.045801 1_556
Ni1 O10 2.076210 1_555
Ni2 O9 1.906863 1_555
Ni2 O16 1.937122 1_545
Ni2 O22 1.940696 1_545
Ni2 O0 1.950396 1_655
Ni2 O4 2.071440 1_655
Ni2 O2 2.075889 1_555
Ni3 O10 2.023054 1_555
Ni3 O9 2.023059 1_455
Ni3 O4 2.043281 1_555
Ni3 O11 2.043281 1_555
Ni3 O5 2.064759 1_555
Ni3 O14 2.064766 1_555
Ni4 O11 1.918709 1_555
Ni4 O7 1.931141 1_555
Ni4 O6 1.940236 1_555
Ni4 O26 1.953704 1_556
Ni4 O15 2.076117 1_555
Ni4 O5 2.083326 1_555
Ni5 O2 1.926088 1_555
Ni5 O13 1.926092 1_555
Ni5 O3 1.948096 1_555
Ni5 O12 1.948100 1_555
Ni5 O9 2.069095 1_555
Ni5 O10 2.069102 1_555
Ni6 O15 1.910813 1_555
Ni6 O16 1.916437 1_455
Ni6 O18 1.935279 1_555
Ni6 O8 1.943519 1_555
Ni6 O4 2.080326 1_565
Ni6 O7 2.137633 1_555
Ni7 O10 1.906863 1_555
Ni7 O17 1.937130 1_555
Ni7 O6 1.940695 1_555
Ni7 O21 1.950395 1_555
Ni7 O11 2.071443 1_555
Ni7 O13 2.075889 1_555
Ni8 O14 1.900917 1_655
Ni8 O12 1.912039 1_555
Ni8 O19 1.965854 1_555
Ni8 O22 1.994125 1_545
Ni8 O20 2.045809 1_554
Ni8 O9 2.076202 1_555
Ni9 O18 1.910813 1_555
Ni9 O17 1.916437 1_555
Ni9 O15 1.935279 1_555
Ni9 O23 1.943519 1_555
Ni9 O11 2.080339 1_555
Ni9 O24 2.137620 1_555
Ni10 O19 1.970796 1_555
Ni10 O13 1.984603 1_555
Ni10 O21 1.986950 1_555
Ni10 O1 1.995496 1_554
Ni10 O25 2.052372 1_555
Ni10 O12 2.091767 1_555
Ni11 O20 1.930359 1_565
Ni11 O0 1.945616 1_665
Ni11 O27 1.948119 1_556
Ni11 O8 1.961326 1_655
Ni11 O14 2.064432 1_666
Ni11 O16 2.087575 1_555
Ni12 O25 1.930351 1_555
Ni12 O21 1.945608 1_555
Ni12 O26 1.948119 1_555
Ni12 O23 1.961337 1_555
Ni12 O5 2.064432 1_554
Ni12 O17 2.087578 1_555
Ni13 O4 1.918713 1_565
Ni13 O24 1.931132 1_555
Ni13 O22 1.940233 1_455
Ni13 O27 1.953706 1_455
Ni13 O18 2.076116 1_555
Ni13 O14 2.083317 1_565
Ni14 O7 1.904772 1_554
Ni14 O24 1.904772 1_555
Ni14 O26 1.998084 1_555
Ni14 O27 1.998090 1_455
Ni14 O23 2.067522 1_555
Ni14 O8 2.067535 1_554
