# generated using pymatgen
data_Co3(OF2)2
_symmetry_space_group_name_H-M   'P 1'
_cell_length_a   4.58299300
_cell_length_b   5.65901700
_cell_length_c   7.73275339
_cell_angle_alpha   87.86569851
_cell_angle_beta   90.00000000
_cell_angle_gamma   90.00000000
_symmetry_Int_Tables_number   1
_chemical_formula_structural   Co3(OF2)2
_chemical_formula_sum   'Co6 O4 F8'
_cell_volume   200.41165195
_cell_formula_units_Z   2
loop_
 _symmetry_equiv_pos_site_id
 _symmetry_equiv_pos_as_xyz
  1  'x, y, z'
loop_
 _atom_site_type_symbol
 _atom_site_label
 _atom_site_symmetry_multiplicity
 _atom_site_fract_x
 _atom_site_fract_y
 _atom_site_fract_z
 _atom_site_occupancy
  Co  Co0  1  0.49587300  0.56847800  0.64986300  1
  Co  Co1  1  0.53334400  0.90024800  0.32744600  1
  Co  Co2  1  0.47836600  0.23009200  0.99986400  1
  Co  Co3  1  0.97836600  0.76990800  0.00013600  1
  Co  Co4  1  0.99587300  0.43152200  0.35013700  1
  Co  Co5  1  0.03334400  0.09975200  0.67255400  1
  O  O0  1  0.20147100  0.04950400  0.89959200  1
  O  O1  1  0.19749400  0.38770100  0.56541000  1
  O  O2  1  0.70147100  0.95049600  0.10040800  1
  O  O3  1  0.69749400  0.61229900  0.43459000  1
  F  F0  1  0.19662400  0.71805100  0.22692600  1
  F  F1  1  0.29728300  0.55248100  0.89555300  1
  F  F2  1  0.30522400  0.88267200  0.55467800  1
  F  F3  1  0.29432100  0.22087300  0.24060400  1
  F  F4  1  0.69662400  0.28194900  0.77307400  1
  F  F5  1  0.80522400  0.11732800  0.44532200  1
  F  F6  1  0.79432100  0.77912700  0.75939600  1
  F  F7  1  0.79728300  0.44751900  0.10444700  1
loop_
_geom_bond_atom_site_label_1
_geom_bond_atom_site_label_2
_geom_bond_distance
_geom_bond_site_symmetry_2
Co0 O1 1.841951 1_555
Co0 O3 1.911974 1_555
Co0 F6 2.021004 1_555
Co0 F4 2.065994 1_555
Co0 F2 2.090238 1_555
Co0 F1 2.105517 1_555
Co1 O2 1.928630 1_555
Co1 O3 1.951188 1_555
Co1 F5 1.993975 1_565
Co1 F0 2.026914 1_555
Co1 F2 2.043866 1_555
Co1 F3 2.202797 1_565
Co2 O0 1.820713 1_555
Co2 O2 2.015394 1_546
Co2 F4 2.030724 1_555
Co2 F3 2.042653 1_556
Co2 F7 2.092447 1_556
Co2 F1 2.134995 1_555
Co3 O2 1.820713 1_555
Co3 O0 2.015394 1_664
Co3 F0 2.030724 1_655
Co3 F6 2.042653 1_554
Co3 F1 2.092447 1_654
Co3 F7 2.134995 1_555
Co4 O3 1.841951 1_555
Co4 O1 1.911974 1_655
Co4 F3 2.021004 1_655
Co4 F0 2.065994 1_655
Co4 F5 2.090238 1_555
Co4 F7 2.105517 1_555
Co5 O0 1.928630 1_555
Co5 O1 1.951188 1_555
Co5 F2 1.993975 1_545
Co5 F4 2.026914 1_455
Co5 F5 2.043866 1_455
Co5 F6 2.202797 1_445
