# generated using pymatgen
data_Na5LiMn2P2(CO7)2
_symmetry_space_group_name_H-M   'P 1'
_cell_length_a   6.76177500
_cell_length_b   8.98197400
_cell_length_c   10.38745178
_cell_angle_alpha   89.95805184
_cell_angle_beta   90.00000000
_cell_angle_gamma   90.00000000
_symmetry_Int_Tables_number   1
_chemical_formula_structural   Na5LiMn2P2(CO7)2
_chemical_formula_sum   'Na10 Li2 Mn4 P4 C4 O28'
_cell_volume   630.87223381
_cell_formula_units_Z   2
loop_
 _symmetry_equiv_pos_site_id
 _symmetry_equiv_pos_as_xyz
  1  'x, y, z'
loop_
 _atom_site_type_symbol
 _atom_site_label
 _atom_site_symmetry_multiplicity
 _atom_site_fract_x
 _atom_site_fract_y
 _atom_site_fract_z
 _atom_site_occupancy
  Na  Na0  1  0.25045600  0.08252800  0.62883700  1
  Na  Na1  1  0.25413400  0.08384500  0.13014100  1
  Na  Na2  1  0.00111300  0.25611700  0.37447400  1
  Na  Na3  1  0.00079000  0.25865700  0.87356000  1
  Na  Na4  1  0.49987800  0.25820100  0.87308700  1
  Na  Na5  1  0.50111300  0.74388300  0.62552600  1
  Na  Na6  1  0.50079000  0.74134300  0.12644000  1
  Na  Na7  1  0.99987800  0.74179900  0.12691300  1
  Na  Na8  1  0.75045600  0.91747200  0.37116300  1
  Na  Na9  1  0.75413400  0.91615500  0.86985900  1
  Li  Li0  1  0.48220000  0.27425000  0.36539200  1
  Li  Li1  1  0.98220000  0.72575000  0.63460800  1
  Mn  Mn0  1  0.74754700  0.36018300  0.63566200  1
  Mn  Mn1  1  0.74740400  0.36252500  0.14284100  1
  Mn  Mn2  1  0.24754700  0.63981700  0.36433800  1
  Mn  Mn3  1  0.24740400  0.63747500  0.85715900  1
  P  P0  1  0.24840500  0.41311500  0.59800400  1
  P  P1  1  0.24947600  0.41258500  0.10419000  1
  P  P2  1  0.74840500  0.58688500  0.40199600  1
  P  P3  1  0.74947600  0.58741500  0.89581000  1
  C  C0  1  0.75733500  0.05492000  0.61736800  1
  C  C1  1  0.74930400  0.06057800  0.11806000  1
  C  C2  1  0.25733500  0.94508000  0.38263200  1
  C  C3  1  0.24930400  0.93942200  0.88194000  1
  O  O0  1  0.27449500  0.08897200  0.39235400  1
  O  O1  1  0.24973800  0.08307900  0.89299100  1
  O  O2  1  0.74993100  0.11825300  0.73042100  1
  O  O3  1  0.75067000  0.12278200  0.23122500  1
  O  O4  1  0.74646900  0.13846200  0.51500600  1
  O  O5  1  0.74734100  0.14487700  0.01555000  1
  O  O6  1  0.06472300  0.31785300  0.63515200  1
  O  O7  1  0.43231200  0.32895200  0.65009000  1
  O  O8  1  0.06366100  0.32106600  0.14374700  1
  O  O9  1  0.43166200  0.31958900  0.14957000  1
  O  O10  1  0.26492800  0.42278600  0.44767500  1
  O  O11  1  0.73181800  0.42558000  0.34747200  1
  O  O12  1  0.25317900  0.42929800  0.95428200  1
  O  O13  1  0.75102800  0.43004100  0.83542400  1
  O  O14  1  0.23181800  0.57442000  0.65252800  1
  O  O15  1  0.76492800  0.57721400  0.55232500  1
  O  O16  1  0.25102800  0.56995900  0.16457600  1
  O  O17  1  0.75317900  0.57070200  0.04571800  1
  O  O18  1  0.56472300  0.68214700  0.36484800  1
  O  O19  1  0.93231200  0.67104800  0.34991000  1
  O  O20  1  0.56366100  0.67893400  0.85625300  1
  O  O21  1  0.93166200  0.68041100  0.85043000  1
  O  O22  1  0.24646900  0.86153800  0.48499400  1
  O  O23  1  0.24734100  0.85512300  0.98445000  1
  O  O24  1  0.24993100  0.88174700  0.26957900  1
  O  O25  1  0.25067000  0.87721800  0.76877500  1
  O  O26  1  0.77449500  0.91102800  0.60764600  1
  O  O27  1  0.74973800  0.91692100  0.10700900  1
loop_
_geom_bond_atom_site_label_1
_geom_bond_atom_site_label_2
_geom_bond_distance
_geom_bond_site_symmetry_2
Na0 O25 2.347273 1_545
Na0 O6 2.459555 1_555
Na0 O0 2.462466 1_555
Na0 O22 2.485462 1_545
Na0 O7 2.541764 1_555
Na0 O1 2.743899 1_555
Na1 O24 2.321622 1_545
Na1 O9 2.442521 1_555
Na1 O1 2.463578 1_554
Na1 O8 2.493819 1_555
Na1 O23 2.552914 1_544
Na1 O0 2.727625 1_555
Na2 O0 2.388534 1_555
Na2 O11 2.389684 1_455
Na2 O10 2.450110 1_555
Na2 O4 2.492025 1_455
Na2 O8 2.502230 1_555
Na2 O3 2.553182 1_455
Na2 O6 2.797634 1_555
Na3 O1 2.315366 1_555
Na3 O13 2.319017 1_455
Na3 O12 2.442658 1_555
Na3 O5 2.480842 1_456
Na3 O6 2.569138 1_555
Na3 O2 2.584787 1_455
Na3 O8 2.893787 1_556
Na4 O1 2.318882 1_555
Na4 O13 2.327745 1_555
Na4 O12 2.420246 1_555
Na4 O7 2.444582 1_555
Na4 O5 2.454312 1_556
Na4 O2 2.576382 1_555
Na5 O26 2.388534 1_555
Na5 O14 2.389684 1_555
Na5 O15 2.450110 1_555
Na5 O22 2.492025 1_555
Na5 O20 2.502230 1_555
Na5 O25 2.553182 1_555
Na5 O18 2.797634 1_555
Na6 O27 2.315366 1_555
Na6 O16 2.319017 1_555
Na6 O17 2.442658 1_555
Na6 O23 2.480842 1_554
Na6 O18 2.569138 1_555
Na6 O24 2.584787 1_555
Na6 O20 2.893787 1_554
Na7 O27 2.318882 1_555
Na7 O16 2.327745 1_655
Na7 O17 2.420246 1_555
Na7 O19 2.444582 1_555
Na7 O23 2.454312 1_654
Na7 O24 2.576382 1_655
Na8 O3 2.347273 1_565
Na8 O18 2.459555 1_555
Na8 O26 2.462466 1_555
Na8 O4 2.485462 1_565
Na8 O19 2.541764 1_555
Na8 O27 2.743899 1_555
Na9 O2 2.321622 1_565
Na9 O21 2.442521 1_555
Na9 O27 2.463578 1_556
Na9 O20 2.493819 1_555
Na9 O5 2.552914 1_566
Na9 O26 2.727625 1_555
Li0 O10 2.161141 1_555
Li0 O11 2.175015 1_555
Li0 O0 2.195378 1_555
Li0 O9 2.303721 1_555
Li1 O15 2.161141 1_555
Li1 O14 2.175015 1_655
Li1 O26 2.195378 1_555
Li1 O21 2.303721 1_555
Mn0 O15 2.135588 1_555
Mn0 O7 2.155130 1_555
Mn0 O13 2.168380 1_555
Mn0 O6 2.178121 1_655
Mn0 O4 2.353833 1_555
Mn0 O2 2.384943 1_555
Mn1 O17 2.124351 1_555
Mn1 O9 2.170644 1_555
Mn1 O8 2.170659 1_655
Mn1 O11 2.202677 1_555
Mn1 O3 2.340396 1_555
Mn1 O5 2.360878 1_555
Mn2 O10 2.135588 1_555
Mn2 O19 2.155130 1_455
Mn2 O16 2.168380 1_555
Mn2 O18 2.178121 1_555
Mn2 O22 2.353833 1_555
Mn2 O24 2.384943 1_555
Mn3 O12 2.124351 1_555
Mn3 O21 2.170644 1_455
Mn3 O20 2.170659 1_555
Mn3 O14 2.202677 1_555
Mn3 O25 2.340396 1_555
Mn3 O23 2.360878 1_555
C0 O26 1.301629 1_545
C0 O4 1.303017 1_555
C0 O2 1.306192 1_555
C1 O27 1.295507 1_545
C1 O3 1.301922 1_555
C1 O5 1.306193 1_555
C2 O0 1.301629 1_565
C2 O22 1.303017 1_555
C2 O24 1.306192 1_555
C3 O1 1.295507 1_565
C3 O25 1.301922 1_555
C3 O23 1.306193 1_555
O6 P0 1.556644 1_555
O7 P0 1.552409 1_555
O8 P1 1.556502 1_555
O9 P1 1.561060 1_555
O10 P0 1.567872 1_555
O11 P2 1.560026 1_555
O12 P1 1.564472 1_556
O13 P3 1.546908 1_555
O14 P0 1.560026 1_555
O15 P2 1.567872 1_555
O16 P1 1.546908 1_555
O17 P3 1.564472 1_554
O18 P2 1.556644 1_555
O19 P2 1.552409 1_555
O20 P3 1.556502 1_555
O21 P3 1.561060 1_555
