# generated using pymatgen
data_Li2Cr(CoO3)2
_symmetry_space_group_name_H-M   'P 1'
_cell_length_a   4.95138435
_cell_length_b   4.95138435
_cell_length_c   9.97715700
_cell_angle_alpha   90.00000000
_cell_angle_beta   90.00000000
_cell_angle_gamma   120.34035942
_symmetry_Int_Tables_number   1
_chemical_formula_structural   Li2Cr(CoO3)2
_chemical_formula_sum   'Li4 Cr2 Co4 O12'
_cell_volume   211.10133661
_cell_formula_units_Z   2
loop_
 _symmetry_equiv_pos_site_id
 _symmetry_equiv_pos_as_xyz
  1  'x, y, z'
loop_
 _atom_site_type_symbol
 _atom_site_label
 _atom_site_symmetry_multiplicity
 _atom_site_fract_x
 _atom_site_fract_y
 _atom_site_fract_z
 _atom_site_occupancy
  Li  Li0  1  0.66412100  0.16412100  0.25000000  1
  Li  Li1  1  0.83587900  0.33587900  0.75000000  1
  Li  Li2  1  0.16412100  0.66412100  0.25000000  1
  Li  Li3  1  0.33587900  0.83587900  0.75000000  1
  Cr  Cr0  1  0.50000000  0.50000000  0.50000000  1
  Cr  Cr1  1  0.00000000  0.00000000  0.00000000  1
  Co  Co0  1  0.83397500  0.16602500  0.50000000  1
  Co  Co1  1  0.33397500  0.66602500  0.00000000  1
  Co  Co2  1  0.66602500  0.33397500  0.00000000  1
  Co  Co3  1  0.16602500  0.83397500  0.50000000  1
  O  O0  1  0.66899700  0.66899700  0.09666300  1
  O  O1  1  0.83100300  0.83100300  0.59666300  1
  O  O2  1  0.16899700  0.16899700  0.40333700  1
  O  O3  1  0.49564700  0.83869100  0.39623800  1
  O  O4  1  0.33100300  0.33100300  0.90333700  1
  O  O5  1  0.66130900  0.00435300  0.89623800  1
  O  O6  1  0.99564700  0.33869100  0.10376200  1
  O  O7  1  0.16130900  0.50435300  0.60376200  1
  O  O8  1  0.50435300  0.16130900  0.60376200  1
  O  O9  1  0.83869100  0.49564700  0.39623800  1
  O  O10  1  0.00435300  0.66130900  0.89623800  1
  O  O11  1  0.33869100  0.99564700  0.10376200  1
loop_
_geom_bond_atom_site_label_1
_geom_bond_atom_site_label_2
_geom_bond_distance
_geom_bond_site_symmetry_2
Li0 O3 2.015711 1_545
Li0 O11 2.015711 1_545
Li0 O6 2.033973 1_555
Li0 O9 2.033973 1_555
Li1 O10 2.015711 1_655
Li1 O7 2.015711 1_655
Li1 O8 2.033973 1_555
Li1 O5 2.033973 1_555
Li2 O9 2.015711 1_455
Li2 O6 2.015711 1_455
Li2 O11 2.033973 1_555
Li2 O3 2.033973 1_555
Li3 O5 2.015711 1_565
Li3 O8 2.015711 1_565
Li3 O10 2.033973 1_555
Li3 O7 2.033973 1_555
Cr0 O1 1.894357 1_555
Cr0 O2 1.894357 1_555
Cr0 O9 1.980156 1_555
Cr0 O3 1.980156 1_555
Cr0 O7 1.980156 1_555
Cr0 O8 1.980156 1_555
Cr1 O4 1.894357 1_554
Cr1 O0 1.894357 1_445
Cr1 O6 1.980156 1_455
Cr1 O11 1.980156 1_545
Cr1 O5 1.980156 1_454
Cr1 O10 1.980156 1_544
Co0 O1 1.912422 1_545
Co0 O2 1.912422 1_655
Co0 O8 1.922885 1_555
Co0 O9 1.922885 1_555
Co0 O3 1.939561 1_545
Co0 O7 1.939561 1_655
Co1 O4 1.912422 1_554
Co1 O0 1.912422 1_555
Co1 O10 1.922885 1_554
Co1 O11 1.922885 1_555
Co1 O6 1.939561 1_455
Co1 O5 1.939561 1_564
Co2 O4 1.912422 1_554
Co2 O0 1.912422 1_555
Co2 O5 1.922885 1_554
Co2 O6 1.922885 1_555
Co2 O11 1.939561 1_545
Co2 O10 1.939561 1_654
Co3 O1 1.912422 1_455
Co3 O2 1.912422 1_565
Co3 O3 1.922885 1_555
Co3 O7 1.922885 1_555
Co3 O9 1.939561 1_455
Co3 O8 1.939561 1_565
