# generated using pymatgen
data_Li6MnV3(PO4)6
_symmetry_space_group_name_H-M   'P 1'
_cell_length_a   8.62738100
_cell_length_b   8.63046495
_cell_length_c   12.73574935
_cell_angle_alpha   105.93532439
_cell_angle_beta   105.99766802
_cell_angle_gamma   94.42999750
_symmetry_Int_Tables_number   1
_chemical_formula_structural   Li6MnV3(PO4)6
_chemical_formula_sum   'Li12 Mn2 V6 P12 O48'
_cell_volume   864.45262748
_cell_formula_units_Z   2
loop_
 _symmetry_equiv_pos_site_id
 _symmetry_equiv_pos_as_xyz
  1  'x, y, z'
loop_
 _atom_site_type_symbol
 _atom_site_label
 _atom_site_symmetry_multiplicity
 _atom_site_fract_x
 _atom_site_fract_y
 _atom_site_fract_z
 _atom_site_occupancy
  Li  Li0  1  0.99437500  0.00180500  0.87429200  1
  Li  Li1  1  0.99511400  0.00664700  0.37627200  1
  Li  Li2  1  0.71176900  0.28751300  0.62575100  1
  Li  Li3  1  0.50074000  0.50006500  0.74937500  1
  Li  Li4  1  0.71165300  0.28776700  0.12481200  1
  Li  Li5  1  0.50045800  0.50083500  0.50042100  1
  Li  Li6  1  0.28526600  0.71058400  0.87378000  1
  Li  Li7  1  0.49973200  0.49967100  0.25068200  1
  Li  Li8  1  0.49949900  0.49850900  0.99903000  1
  Li  Li9  1  0.28956500  0.71251500  0.37656000  1
  Li  Li10  1  0.00375100  0.99247600  0.62632200  1
  Li  Li11  1  0.00493000  0.99698300  0.12418900  1
  Mn  Mn0  1  0.94255200  0.62465300  0.93363800  1
  Mn  Mn1  1  0.62530100  0.94279100  0.68384200  1
  V  V0  1  0.37733900  0.05826300  0.81888300  1
  V  V1  1  0.37917300  0.05746100  0.32114100  1
  V  V2  1  0.05802000  0.37885500  0.57082900  1
  V  V3  1  0.05805400  0.37698000  0.06948400  1
  V  V4  1  0.94373300  0.61917600  0.43037900  1
  V  V5  1  0.61930100  0.94333500  0.18008200  1
  P  P0  1  0.71403900  0.28621000  0.87501500  1
  P  P1  1  0.33527500  0.13909800  0.56778400  1
  P  P2  1  0.13932000  0.33549800  0.81821000  1
  P  P3  1  0.71369900  0.28654500  0.37508500  1
  P  P4  1  0.33901600  0.13721100  0.06828300  1
  P  P5  1  0.13713500  0.33851400  0.31791100  1
  P  P6  1  0.86712400  0.66044600  0.68369400  1
  P  P7  1  0.66065600  0.86734800  0.93203500  1
  P  P8  1  0.28808700  0.71606600  0.62545900  1
  P  P9  1  0.86183100  0.66091900  0.18119300  1
  P  P10  1  0.66107500  0.86193100  0.43299100  1
  P  P11  1  0.28496200  0.71255300  0.12501200  1
  O  O0  1  0.33911400  0.01270900  0.95404200  1
  O  O1  1  0.38628700  0.05436900  0.66312900  1
  O  O2  1  0.82752500  0.25651200  0.98287600  1
  O  O3  1  0.33958400  0.01201100  0.45506600  1
  O  O4  1  0.73714400  0.17061000  0.76355100  1
  O  O5  1  0.15904000  0.15112400  0.79898200  1
  O  O6  1  0.53836200  0.26576600  0.88456700  1
  O  O7  1  0.15048900  0.15968900  0.54781300  1
  O  O8  1  0.39870600  0.04927100  0.16295900  1
  O  O9  1  0.82782300  0.25991600  0.48407300  1
  O  O10  1  0.74071400  0.17175500  0.26664200  1
  O  O11  1  0.15715100  0.15498700  0.30306000  1
  O  O12  1  0.45429800  0.29626600  0.60129600  1
  O  O13  1  0.05435100  0.38615200  0.91338600  1
  O  O14  1  0.01298600  0.33925400  0.70477200  1
  O  O15  1  0.74015700  0.46154900  0.86446600  1
  O  O16  1  0.53747000  0.26361600  0.38354400  1
  O  O17  1  0.29653500  0.45479900  0.85177700  1
  O  O18  1  0.15561700  0.15660800  0.05451700  1
  O  O19  1  0.45616200  0.29589900  0.10245800  1
  O  O20  1  0.04955200  0.39813200  0.41268800  1
  O  O21  1  0.70601400  0.54659400  0.64889900  1
  O  O22  1  0.01115100  0.33971800  0.20422300  1
  O  O23  1  0.73700000  0.46242800  0.36569600  1
  O  O24  1  0.26553400  0.53912700  0.63293300  1
  O  O25  1  0.99003000  0.65835800  0.79923400  1
  O  O26  1  0.29550400  0.45574900  0.35184600  1
  O  O27  1  0.95288100  0.59708300  0.58795300  1
  O  O28  1  0.54783800  0.70602700  0.89841500  1
  O  O29  1  0.84476400  0.85683700  0.94634100  1
  O  O30  1  0.70338200  0.54407200  0.14723900  1
  O  O31  1  0.46398000  0.74080500  0.61536800  1
  O  O32  1  0.26388400  0.53745000  0.13513000  1
  O  O33  1  0.98717300  0.66039300  0.29530800  1
  O  O34  1  0.95048400  0.59915600  0.08624100  1
  O  O35  1  0.54313100  0.70377200  0.39796200  1
  O  O36  1  0.85532100  0.84427400  0.69741900  1
  O  O37  1  0.25890700  0.82741300  0.73416900  1
  O  O38  1  0.17171300  0.74239800  0.51670500  1
  O  O39  1  0.59530500  0.95306100  0.83576700  1
  O  O40  1  0.84409300  0.84104300  0.44586500  1
  O  O41  1  0.46085000  0.73722200  0.11594700  1
  O  O42  1  0.84210100  0.84394600  0.19436200  1
  O  O43  1  0.25683400  0.82845200  0.23264800  1
  O  O44  1  0.66296900  0.98696300  0.54843700  1
  O  O45  1  0.17086400  0.73666000  0.01362600  1
  O  O46  1  0.60124200  0.95038700  0.33841700  1
  O  O47  1  0.65543400  0.99039200  0.04575000  1
loop_
_geom_bond_atom_site_label_1
_geom_bond_atom_site_label_2
_geom_bond_distance
_geom_bond_site_symmetry_2
Li0 O36 2.222318 1_545
Li0 O29 2.259896 1_545
Li0 O18 2.292939 1_656
Li0 O5 2.397033 1_655
Li1 O7 2.200492 1_655
Li1 O42 2.307237 1_545
Li1 O11 2.357996 1_655
Li1 O40 2.360150 1_545
Li2 O12 2.166655 1_555
Li2 O21 2.179973 1_555
Li2 O4 2.222715 1_555
Li2 O9 2.260894 1_555
Li2 O44 2.464829 1_545
Li2 O14 2.469402 1_655
Li3 O12 2.112823 1_555
Li3 O28 2.130330 1_555
Li3 O24 2.269818 1_555
Li3 O15 2.286973 1_555
Li3 O21 2.521213 1_555
Li3 O17 2.529255 1_555
Li4 O19 2.152564 1_555
Li4 O30 2.160658 1_555
Li4 O2 2.260466 1_554
Li4 O10 2.260605 1_555
Li4 O47 2.440382 1_545
Li4 O22 2.456005 1_655
Li5 O26 2.122185 1_555
Li5 O21 2.123691 1_555
Li5 O16 2.280073 1_555
Li5 O31 2.284999 1_555
Li5 O35 2.515146 1_555
Li5 O12 2.518938 1_555
Li6 O17 2.160953 1_555
Li6 O28 2.204630 1_555
Li6 O45 2.231606 1_556
Li6 O37 2.242053 1_555
Li6 O25 2.418069 1_455
Li6 O0 2.479358 1_565
Li7 O35 2.111418 1_555
Li7 O19 2.116957 1_555
Li7 O32 2.264442 1_555
Li7 O23 2.268609 1_555
Li7 O26 2.514838 1_555
Li7 O30 2.533460 1_555
Li8 O17 2.103554 1_555
Li8 O30 2.113528 1_556
Li8 O6 2.244521 1_555
Li8 O41 2.295240 1_556
Li8 O19 2.523449 1_556
Li8 O28 2.542219 1_555
Li9 O35 2.138634 1_555
Li9 O26 2.157737 1_555
Li9 O38 2.252561 1_555
Li9 O43 2.281569 1_555
Li9 O3 2.457196 1_565
Li9 O33 2.480795 1_455
Li10 O5 2.223635 1_565
Li10 O36 2.262241 1_455
Li10 O40 2.283644 1_455
Li10 O7 2.427513 1_565
Li11 O29 2.239426 1_454
Li11 O11 2.267666 1_565
Li11 O18 2.325019 1_565
Li11 O42 2.360114 1_455
Mn0 O25 1.955483 1_555
Mn0 O15 1.974350 1_555
Mn0 O45 1.977668 1_656
Mn0 O34 1.998551 1_556
Mn0 O29 2.216246 1_555
Mn0 O13 2.320789 1_655
Mn1 O31 1.964140 1_555
Mn1 O44 1.968639 1_555
Mn1 O4 1.974455 1_565
Mn1 O39 2.000988 1_555
Mn1 O36 2.200725 1_555
Mn1 O1 2.322805 1_565
O0 P4 1.553645 1_556
O0 V0 1.972524 1_555
O1 P1 1.563856 1_555
O1 V0 1.997532 1_555
O2 P0 1.549868 1_555
O2 V3 2.023572 1_656
O3 P1 1.560873 1_555
O3 V1 1.961503 1_555
O4 P0 1.568219 1_555
O5 P2 1.572181 1_555
O5 V0 2.082099 1_555
O6 P0 1.554084 1_555
O6 V0 1.997328 1_555
O7 P1 1.575720 1_555
O7 V2 2.087510 1_555
O8 P4 1.586104 1_555
O8 V1 2.050036 1_555
O8 V5 2.157541 1_545
O9 P3 1.551041 1_555
O9 V2 2.017789 1_655
O10 P3 1.550813 1_555
O10 V5 2.012455 1_545
O11 P5 1.571675 1_555
O11 V1 2.131399 1_555
O12 P1 1.517192 1_555
O13 P2 1.563995 1_555
O13 V3 2.002829 1_556
O14 P2 1.561873 1_555
O14 V2 1.960275 1_555
O15 P0 1.560262 1_555
O16 P3 1.554952 1_555
O16 V1 1.977943 1_555
O17 P2 1.518398 1_555
O18 P4 1.570484 1_555
O18 V3 2.121028 1_555
O19 P4 1.517545 1_555
O20 P5 1.585696 1_555
O20 V2 2.047964 1_555
O20 V4 2.161019 1_455
O21 P6 1.517979 1_555
O22 P5 1.555786 1_555
O22 V3 1.969132 1_555
O23 P3 1.557134 1_555
O23 V4 1.973647 1_555
O24 P8 1.556590 1_555
O24 V2 1.995060 1_555
O25 P6 1.564429 1_555
O26 P5 1.515967 1_555
O27 P6 1.589600 1_555
O27 V4 2.048185 1_555
O27 V2 2.136583 1_655
O28 P7 1.517473 1_555
O29 P7 1.560822 1_555
O30 P9 1.514728 1_555
O31 P8 1.561220 1_555
O32 P11 1.552692 1_555
O32 V3 1.984023 1_555
O33 P9 1.555540 1_555
O33 V4 1.974071 1_555
O34 P9 1.596974 1_555
O34 V3 2.177826 1_655
O35 P10 1.516066 1_555
O36 P6 1.562198 1_555
O37 P8 1.550039 1_555
O37 V0 2.018668 1_565
O38 P8 1.555525 1_555
O38 V4 2.012761 1_455
O39 P7 1.596782 1_555
O39 V0 2.134213 1_565
O40 P10 1.571630 1_555
O40 V4 2.141202 1_555
O41 P11 1.556108 1_555
O41 V5 1.977692 1_555
O42 P9 1.569734 1_555
O42 V5 2.147396 1_555
O43 P11 1.551293 1_555
O43 V1 2.022250 1_565
O44 P10 1.561822 1_555
O45 P11 1.564817 1_555
O46 P10 1.588426 1_555
O46 V5 2.049770 1_555
O46 V1 2.173877 1_565
O47 P7 1.557564 1_554
O47 V5 1.960852 1_555
