# generated using pymatgen
data_Ti2Ni(PO5)2
_symmetry_space_group_name_H-M   'P 1'
_cell_length_a   7.36096600
_cell_length_b   6.50308100
_cell_length_c   7.36107850
_cell_angle_alpha   89.23419431
_cell_angle_beta   90.00000000
_cell_angle_gamma   90.00000000
_symmetry_Int_Tables_number   1
_chemical_formula_structural   Ti2Ni(PO5)2
_chemical_formula_sum   'Ti4 Ni2 P4 O20'
_cell_volume   352.33568471
_cell_formula_units_Z   2
loop_
 _symmetry_equiv_pos_site_id
 _symmetry_equiv_pos_as_xyz
  1  'x, y, z'
loop_
 _atom_site_type_symbol
 _atom_site_label
 _atom_site_symmetry_multiplicity
 _atom_site_fract_x
 _atom_site_fract_y
 _atom_site_fract_z
 _atom_site_occupancy
  Ti  Ti0  1  0.22398800  0.76369700  0.65913300  1
  Ti  Ti1  1  0.27601200  0.76369700  0.15913300  1
  Ti  Ti2  1  0.72398800  0.23630300  0.84086700  1
  Ti  Ti3  1  0.77601200  0.23630300  0.34086700  1
  Ni  Ni0  1  0.50000000  0.50000000  0.50000000  1
  Ni  Ni1  1  0.00000000  0.50000000  0.00000000  1
  P  P0  1  0.62589000  0.74439100  0.87250500  1
  P  P1  1  0.87411000  0.74439100  0.37250500  1
  P  P2  1  0.12589000  0.25560900  0.62749500  1
  P  P3  1  0.37411000  0.25560900  0.12749500  1
  O  O0  1  0.73899100  0.94262000  0.85725700  1
  O  O1  1  0.76100900  0.94262000  0.35725700  1
  O  O2  1  0.16005500  0.72708900  0.88617900  1
  O  O3  1  0.98944500  0.74999200  0.54739500  1
  O  O4  1  0.33994500  0.72708900  0.38617900  1
  O  O5  1  0.51055500  0.74999200  0.04739500  1
  O  O6  1  0.49874800  0.72131700  0.70520700  1
  O  O7  1  0.00125200  0.72131700  0.20520700  1
  O  O8  1  0.75614400  0.55960300  0.87741100  1
  O  O9  1  0.74385600  0.55960300  0.37741100  1
  O  O10  1  0.25614400  0.44039700  0.62258900  1
  O  O11  1  0.24385600  0.44039700  0.12258900  1
  O  O12  1  0.99874800  0.27868300  0.79479300  1
  O  O13  1  0.50125200  0.27868300  0.29479300  1
  O  O14  1  0.48944500  0.25000800  0.95260500  1
  O  O15  1  0.66005500  0.27291100  0.61382100  1
  O  O16  1  0.01055500  0.25000800  0.45260500  1
  O  O17  1  0.83994500  0.27291100  0.11382100  1
  O  O18  1  0.23899100  0.05738000  0.64274300  1
  O  O19  1  0.26100900  0.05738000  0.14274300  1
loop_
_geom_bond_atom_site_label_1
_geom_bond_atom_site_label_2
_geom_bond_distance
_geom_bond_site_symmetry_2
Ni0 O9 2.043837 1_555
Ni0 O10 2.043837 1_555
Ni0 O15 2.058602 1_555
Ni0 O4 2.058602 1_555
Ni0 O13 2.100325 1_555
Ni0 O6 2.100325 1_555
Ni1 O8 2.043837 1_454
Ni1 O11 2.043837 1_555
Ni1 O17 2.058602 1_455
Ni1 O2 2.058602 1_554
Ni1 O7 2.100325 1_555
Ni1 O12 2.100325 1_454
O0 P0 1.537406 1_555
O0 Ti2 1.915228 1_565
O1 P1 1.537406 1_555
O1 Ti3 1.915228 1_565
O2 Ti0 1.749505 1_555
O2 Ti1 2.198874 1_556
O3 P1 1.542947 1_555
O3 Ti0 1.914968 1_655
O4 Ti1 1.749505 1_555
O4 Ti0 2.198874 1_555
O5 P0 1.542947 1_554
O5 Ti1 1.914968 1_555
O6 P0 1.555609 1_555
O6 Ti0 2.068571 1_555
O7 P1 1.555609 1_455
O7 Ti1 2.068571 1_555
O8 P0 1.537366 1_555
O8 Ti2 2.136302 1_555
O9 P1 1.537366 1_555
O9 Ti3 2.136302 1_555
O10 P2 1.537366 1_555
O10 Ti0 2.136302 1_555
O11 P3 1.537366 1_555
O11 Ti1 2.136302 1_555
O12 P2 1.555609 1_655
O12 Ti2 2.068571 1_555
O13 P3 1.555609 1_555
O13 Ti3 2.068571 1_555
O14 P3 1.542947 1_556
O14 Ti2 1.914968 1_555
O15 Ti2 1.749505 1_555
O15 Ti3 2.198874 1_555
O16 P2 1.542947 1_555
O16 Ti3 1.914968 1_455
O17 Ti3 1.749505 1_555
O17 Ti2 2.198874 1_554
O18 P2 1.537406 1_555
O18 Ti0 1.915228 1_545
O19 P3 1.537406 1_555
O19 Ti1 1.915228 1_545
