# generated using pymatgen
data_Na2TbO3
_symmetry_space_group_name_H-M   'P 1'
_cell_length_a   5.85204100
_cell_length_b   5.91818841
_cell_length_c   8.89292028
_cell_angle_alpha   70.91194768
_cell_angle_beta   72.38773379
_cell_angle_gamma   61.21145609
_symmetry_Int_Tables_number   1
_chemical_formula_structural   Na2TbO3
_chemical_formula_sum   'Na6 Tb3 O9'
_cell_volume   251.13993377
_cell_formula_units_Z   3
loop_
 _symmetry_equiv_pos_site_id
 _symmetry_equiv_pos_as_xyz
  1  'x, y, z'
loop_
 _atom_site_type_symbol
 _atom_site_label
 _atom_site_symmetry_multiplicity
 _atom_site_fract_x
 _atom_site_fract_y
 _atom_site_fract_z
 _atom_site_occupancy
  Na  Na0  1  0.71602800  0.05166800  0.33395900  1
  Na  Na1  1  0.82605400  0.84780600  0.00072000  1
  Na  Na2  1  0.17394600  0.15219400  0.99928000  1
  Na  Na3  1  0.39180900  0.72497800  0.33374800  1
  Na  Na4  1  0.28397200  0.94833200  0.66604100  1
  Na  Na5  1  0.60819100  0.27502200  0.66625200  1
  Tb  Tb0  1  0.50000000  0.50000000  0.00000000  1
  Tb  Tb1  1  0.04502300  0.37532400  0.33303100  1
  Tb  Tb2  1  0.95497700  0.62467600  0.66696900  1
  O  O0  1  0.13622700  0.72800800  0.16283300  1
  O  O1  1  0.86377300  0.27199200  0.83716700  1
  O  O2  1  0.23125100  0.55777900  0.82948900  1
  O  O3  1  0.41915700  0.15106800  0.16855600  1
  O  O4  1  0.58084300  0.84893200  0.83144400  1
  O  O5  1  0.28281400  0.35351200  0.50624100  1
  O  O6  1  0.76874900  0.44222100  0.17051100  1
  O  O7  1  0.71718600  0.64648800  0.49375900  1
  O  O8  1  0.00000000  0.00000000  0.50000000  1
loop_
_geom_bond_atom_site_label_1
_geom_bond_atom_site_label_2
_geom_bond_distance
_geom_bond_site_symmetry_2
Na0 O3 2.350318 1_555
Na0 O7 2.351814 1_545
Na0 O8 2.394919 1_655
Na0 O6 2.401764 1_555
Na0 O5 2.653906 1_555
Na0 O0 2.671527 1_645
Na1 O0 2.356130 1_655
Na1 O4 2.369974 1_554
Na1 O6 2.500470 1_555
Na1 O1 2.533316 1_564
Na1 O2 2.547926 1_654
Na1 O3 2.569827 1_565
Na2 O1 2.356130 1_455
Na2 O3 2.369974 1_556
Na2 O2 2.500470 1_555
Na2 O0 2.533316 1_546
Na2 O6 2.547926 1_456
Na2 O4 2.569827 1_545
Na3 O6 2.422634 1_555
Na3 O0 2.424790 1_555
Na3 O8 2.453640 1_565
Na3 O5 2.479063 1_555
Na3 O7 2.494333 1_555
Na3 O3 2.523119 1_565
Na4 O4 2.350318 1_555
Na4 O5 2.351814 1_565
Na4 O8 2.394919 1_565
Na4 O2 2.401764 1_555
Na4 O7 2.653906 1_555
Na4 O1 2.671527 1_465
Na5 O2 2.422634 1_555
Na5 O1 2.424790 1_555
Na5 O8 2.453640 1_655
Na5 O7 2.479063 1_555
Na5 O5 2.494333 1_555
Na5 O4 2.523119 1_545
O0 Tb0 2.257291 1_555
O0 Tb1 2.334573 1_555
O1 Tb0 2.257291 1_556
O1 Tb2 2.334573 1_555
O2 Tb2 2.298432 1_455
O2 Tb0 2.340032 1_556
O3 Tb0 2.285258 1_555
O3 Tb1 2.286361 1_555
O4 Tb0 2.285258 1_556
O4 Tb2 2.286361 1_555
O5 Tb2 2.274753 1_455
O5 Tb1 2.306475 1_555
O6 Tb1 2.298432 1_655
O6 Tb0 2.340032 1_555
O7 Tb1 2.274753 1_655
O7 Tb2 2.306475 1_555
O8 Tb2 2.319021 1_445
O8 Tb1 2.319021 1_555
