# generated using pymatgen
data_Ba(CuO)2
_symmetry_space_group_name_H-M   'P 1'
_cell_length_a   5.73915136
_cell_length_b   5.73915210
_cell_length_c   6.48579350
_cell_angle_alpha   116.25966457
_cell_angle_beta   116.25966100
_cell_angle_gamma   90.00001223
_symmetry_Int_Tables_number   1
_chemical_formula_structural   Ba(CuO)2
_chemical_formula_sum   'Ba2 Cu4 O4'
_cell_volume   166.64280981
_cell_formula_units_Z   2
loop_
 _symmetry_equiv_pos_site_id
 _symmetry_equiv_pos_as_xyz
  1  'x, y, z'
loop_
 _atom_site_type_symbol
 _atom_site_label
 _atom_site_symmetry_multiplicity
 _atom_site_fract_x
 _atom_site_fract_y
 _atom_site_fract_z
 _atom_site_occupancy
  Ba  Ba0  1  0.87500000  0.12500000  0.75000000  1
  Ba  Ba1  1  0.12500000  0.87500000  0.25000000  1
  Cu  Cu0  1  0.50000000  0.50000000  0.50000000  1
  Cu  Cu1  1  0.50000000  0.00000000  0.00000000  1
  Cu  Cu2  1  0.00000000  0.50000000  0.50000000  1
  Cu  Cu3  1  0.50000000  0.50000000  0.00000000  1
  O  O0  1  0.61217328  0.86217328  0.22434656  1
  O  O1  1  0.86217328  0.61217328  0.72434656  1
  O  O2  1  0.38782672  0.13782672  0.77565344  1
  O  O3  1  0.13782672  0.38782672  0.27565344  1
loop_
_geom_bond_atom_site_label_1
_geom_bond_atom_site_label_2
_geom_bond_distance
_geom_bond_site_symmetry_2
Ba0 O0 2.659443 1_545
Ba0 O3 2.659443 1_656
Ba0 O2 2.872509 1_555
Ba0 O2 2.872509 1_655
Ba0 O1 2.872510 1_555
Ba0 O1 2.872510 1_545
Ba1 O1 2.659443 1_454
Ba1 O2 2.659443 1_565
Ba1 O0 2.872509 1_555
Ba1 O0 2.872509 1_455
Ba1 O3 2.872510 1_555
Ba1 O3 2.872510 1_565
Cu0 O3 1.829461 1_555
Cu0 O1 1.829461 1_555
Cu1 O0 1.829461 1_545
Cu1 O2 1.829461 1_554
Cu2 O1 1.829461 1_455
Cu2 O3 1.829461 1_555
Cu3 O2 1.829462 1_554
Cu3 O0 1.829462 1_555
