# generated using pymatgen
data_MgSiH12(OF)6
_symmetry_space_group_name_H-M   'P 1'
_cell_length_a   9.50141800
_cell_length_b   6.63070300
_cell_length_c   8.45837705
_cell_angle_alpha   79.40575350
_cell_angle_beta   90.00000000
_cell_angle_gamma   90.00000000
_symmetry_Int_Tables_number   1
_chemical_formula_structural   MgSiH12(OF)6
_chemical_formula_sum   'Mg2 Si2 H24 O12 F12'
_cell_volume   523.80320829
_cell_formula_units_Z   2
loop_
 _symmetry_equiv_pos_site_id
 _symmetry_equiv_pos_as_xyz
  1  'x, y, z'
loop_
 _atom_site_type_symbol
 _atom_site_label
 _atom_site_symmetry_multiplicity
 _atom_site_fract_x
 _atom_site_fract_y
 _atom_site_fract_z
 _atom_site_occupancy
  Mg  Mg0  1  0.50000000  0.00000000  0.50000000  1
  Mg  Mg1  1  0.00000000  0.00000000  0.00000000  1
  Si  Si0  1  0.00000000  0.50000000  0.50000000  1
  Si  Si1  1  0.50000000  0.50000000  0.00000000  1
  H  H0  1  0.43593400  0.95708700  0.81972100  1
  H  H1  1  0.06406600  0.95708700  0.31972100  1
  H  H2  1  0.97618200  0.80784500  0.73967000  1
  H  H3  1  0.67151400  0.75351800  0.70484100  1
  H  H4  1  0.52381800  0.80784500  0.23967000  1
  H  H5  1  0.73204000  0.74908100  0.53090200  1
  H  H6  1  0.27591900  0.73386000  0.52193100  1
  H  H7  1  0.82848600  0.75351800  0.20484100  1
  H  H8  1  0.39697200  0.63065800  0.63877700  1
  H  H9  1  0.76796000  0.74908100  0.03090200  1
  H  H10  1  0.22408100  0.73386000  0.02193100  1
  H  H11  1  0.10302800  0.63065800  0.13877700  1
  H  H12  1  0.89697200  0.36934200  0.86122300  1
  H  H13  1  0.77591900  0.26614000  0.97806900  1
  H  H14  1  0.23204000  0.25091900  0.96909800  1
  H  H15  1  0.60302800  0.36934200  0.36122300  1
  H  H16  1  0.17151400  0.24648200  0.79515900  1
  H  H17  1  0.72408100  0.26614000  0.47806900  1
  H  H18  1  0.26796000  0.25091900  0.46909800  1
  H  H19  1  0.47618200  0.19215500  0.76033000  1
  H  H20  1  0.32848600  0.24648200  0.29515900  1
  H  H21  1  0.02381800  0.19215500  0.26033000  1
  H  H22  1  0.93593400  0.04291300  0.68027900  1
  H  H23  1  0.56406600  0.04291300  0.18027900  1
  O  O0  1  0.96145100  0.93913300  0.77416100  1
  O  O1  1  0.53854900  0.93913300  0.27416100  1
  O  O2  1  0.67139400  0.82593200  0.59283600  1
  O  O3  1  0.37635400  0.74029200  0.54653100  1
  O  O4  1  0.82860600  0.82593200  0.09283600  1
  O  O5  1  0.12364600  0.74029200  0.04653100  1
  O  O6  1  0.87635400  0.25970800  0.95346900  1
  O  O7  1  0.17139400  0.17406800  0.90716400  1
  O  O8  1  0.62364600  0.25970800  0.45346900  1
  O  O9  1  0.32860600  0.17406800  0.40716400  1
  O  O10  1  0.46145100  0.06086700  0.72583900  1
  O  O11  1  0.03854900  0.06086700  0.22583900  1
  F  F0  1  0.40719300  0.72757300  0.96779100  1
  F  F1  1  0.09280700  0.72757300  0.46779100  1
  F  F2  1  0.64720000  0.62549500  0.91150000  1
  F  F3  1  0.85280000  0.62549500  0.41150000  1
  F  F4  1  0.94601400  0.54733600  0.68391400  1
  F  F5  1  0.44601400  0.45266400  0.81608600  1
  F  F6  1  0.55398600  0.54733600  0.18391400  1
  F  F7  1  0.05398600  0.45266400  0.31608600  1
  F  F8  1  0.14720000  0.37450500  0.58850000  1
  F  F9  1  0.35280000  0.37450500  0.08850000  1
  F  F10  1  0.90719300  0.27242700  0.53220900  1
  F  F11  1  0.59280700  0.27242700  0.03220900  1
loop_
_geom_bond_atom_site_label_1
_geom_bond_atom_site_label_2
_geom_bond_distance
_geom_bond_site_symmetry_2
Mg0 O1 2.056576 1_545
Mg0 O10 2.056576 1_555
Mg0 O8 2.061872 1_555
Mg0 O3 2.061872 1_545
Mg0 O2 2.065787 1_545
Mg0 O9 2.065787 1_555
Mg1 O11 2.056576 1_555
Mg1 O0 2.056576 1_444
Mg1 O5 2.061872 1_545
Mg1 O6 2.061872 1_454
Mg1 O7 2.065787 1_554
Mg1 O4 2.065787 1_445
H0 O10 0.980795 1_565
H1 O11 0.980795 1_565
H2 O0 0.977707 1_555
H3 O2 0.980212 1_555
H4 O1 0.977707 1_555
H5 O2 0.981982 1_555
H6 O3 0.979295 1_555
H7 O4 0.980212 1_555
H8 O3 0.983393 1_555
H9 O4 0.981982 1_555
H10 O5 0.979295 1_555
H11 O5 0.983393 1_555
H12 O6 0.983393 1_555
H13 O6 0.979295 1_555
H14 O7 0.981982 1_555
H15 O8 0.983393 1_555
H16 O7 0.980212 1_555
H17 O8 0.979295 1_555
H18 O9 0.981982 1_555
H19 O10 0.977707 1_555
H20 O9 0.980212 1_555
H21 O11 0.977707 1_555
H22 O0 0.980795 1_545
H23 O1 0.980795 1_545
F0 Si1 1.725576 1_556
F1 Si0 1.725576 1_555
F2 Si1 1.726221 1_556
F3 Si0 1.726221 1_655
F4 Si0 1.720784 1_655
F5 Si1 1.720784 1_556
F6 Si1 1.720784 1_555
F7 Si0 1.720784 1_555
F8 Si0 1.726221 1_555
F9 Si1 1.726221 1_555
F10 Si0 1.725576 1_655
F11 Si1 1.725576 1_555
