# generated using pymatgen
data_Li3V4(OF3)3
_symmetry_space_group_name_H-M   'P 1'
_cell_length_a   5.20369600
_cell_length_b   5.53089111
_cell_length_c   17.24356011
_cell_angle_alpha   88.75450903
_cell_angle_beta   97.03651685
_cell_angle_gamma   117.46851490
_symmetry_Int_Tables_number   1
_chemical_formula_structural   Li3V4(OF3)3
_chemical_formula_sum   'Li6 V8 O6 F18'
_cell_volume   436.68157907
_cell_formula_units_Z   2
loop_
 _symmetry_equiv_pos_site_id
 _symmetry_equiv_pos_as_xyz
  1  'x, y, z'
loop_
 _atom_site_type_symbol
 _atom_site_label
 _atom_site_symmetry_multiplicity
 _atom_site_fract_x
 _atom_site_fract_y
 _atom_site_fract_z
 _atom_site_occupancy
  Li  Li0  1  0.82556200  0.34046100  0.29861200  1
  Li  Li1  1  0.70574000  0.41944800  0.95849700  1
  Li  Li2  1  0.81619600  0.86243400  0.79787000  1
  Li  Li3  1  0.65849600  0.91249500  0.45359200  1
  Li  Li4  1  0.43082400  0.82023700  0.06459500  1
  Li  Li5  1  0.05643900  0.44880900  0.67298900  1
  V  V0  1  0.00505200  0.01370500  0.00264700  1
  V  V1  1  0.00179500  0.50586500  0.49915400  1
  V  V2  1  0.76246700  0.37469900  0.12784000  1
  V  V3  1  0.50680000  0.24467200  0.74765500  1
  V  V4  1  0.51049300  0.71596200  0.24858500  1
  V  V5  1  0.24443900  0.08447400  0.37851500  1
  V  V6  1  0.74485000  0.91335100  0.62264900  1
  V  V7  1  0.24224700  0.64285100  0.88129200  1
  O  O0  1  0.80179200  0.19922100  0.03346600  1
  O  O1  1  0.78962600  0.20003800  0.55969700  1
  O  O2  1  0.70183500  0.05874200  0.71968600  1
  O  O3  1  0.69408400  0.52665400  0.21592900  1
  O  O4  1  0.24025000  0.80467000  0.43848100  1
  O  O5  1  0.15799500  0.77847900  0.96585500  1
  F  F0  1  0.75457900  0.06154100  0.19670600  1
  F  F1  1  0.71986900  0.66815900  0.05477100  1
  F  F2  1  0.69592300  0.31671500  0.40120000  1
  F  F3  1  0.79290300  0.41604800  0.84829500  1
  F  F4  1  0.78322200  0.70948700  0.53074200  1
  F  F5  1  0.79582300  0.88928300  0.34997200  1
  F  F6  1  0.32117600  0.12647200  0.09402200  1
  F  F7  1  0.77202200  0.59220600  0.69423300  1
  F  F8  1  0.23228000  0.41005000  0.30897600  1
  F  F9  1  0.69313800  0.86018800  0.90107400  1
  F  F10  1  0.18929500  0.28466700  0.46233100  1
  F  F11  1  0.19248700  0.13342200  0.66023100  1
  F  F12  1  0.20301300  0.59812600  0.14831500  1
  F  F13  1  0.32607700  0.49565900  0.78099300  1
  F  F14  1  0.33299200  0.95580500  0.28264400  1
  F  F15  1  0.29911000  0.67296500  0.59865100  1
  F  F16  1  0.27729100  0.33265500  0.93648900  1
  F  F17  1  0.22382000  0.93475900  0.81069800  1
loop_
_geom_bond_atom_site_label_1
_geom_bond_atom_site_label_2
_geom_bond_distance
_geom_bond_site_symmetry_2
Li0 O3 1.977000 1_555
Li1 O0 1.933783 1_556
Li1 O5 2.263716 1_655
Li2 O2 1.920014 1_565
Li3 O4 1.957243 1_555
Li3 O1 2.271986 1_565
Li4 O5 2.022438 1_554
Li4 O0 2.209165 1_565
Li5 O2 2.307328 1_455
Li5 O1 2.308078 1_455
O0 V0 1.901731 1_655
O0 V2 1.991372 1_555
O1 V6 1.842060 1_545
O1 V1 1.911231 1_655
O2 V3 1.850528 1_555
O2 V6 1.952656 1_545
O3 V4 1.845619 1_555
O3 V2 1.898437 1_555
O4 V5 1.835615 1_565
O4 V1 1.927859 1_555
O5 V7 1.840858 1_555
O5 V0 1.960440 1_566
F0 V4 2.007805 1_545
F0 V2 2.066094 1_555
F0 Li0 2.244385 1_555
F1 Li4 2.057731 1_555
F1 V0 2.073254 1_665
F1 V2 2.108478 1_555
F1 Li1 2.151670 1_554
F2 Li0 1.949917 1_555
F2 V5 2.082132 1_555
F2 V1 2.088742 1_655
F2 Li3 2.325095 1_545
F3 Li1 2.009407 1_555
F3 V3 2.064752 1_555
F3 V7 2.088995 1_655
F3 Li2 2.553956 1_555
F4 Li3 1.961523 1_555
F4 V6 2.045912 1_555
F4 V1 2.053980 1_655
F5 Li3 2.031542 1_555
F5 V5 2.067381 1_665
F5 V4 2.074555 1_555
F5 Li0 2.572283 1_565
F6 V0 2.009693 1_555
F6 V2 2.072787 1_555
F6 Li4 2.109898 1_545
F7 Li5 2.044999 1_655
F7 V3 2.057983 1_555
F7 V6 2.189112 1_555
F7 Li2 2.275702 1_555
F8 Li0 1.954028 1_455
F8 V4 2.018947 1_555
F8 V5 2.162662 1_555
F9 Li2 1.961659 1_555
F9 V7 2.070336 1_555
F9 V0 2.125998 1_666
F10 V5 1.965064 1_555
F10 V1 2.034372 1_555
F11 V3 1.958093 1_555
F11 V6 2.091962 1_445
F11 Li5 2.187811 1_555
F12 Li4 1.999312 1_555
F12 V2 2.028392 1_455
F12 V4 2.093688 1_555
F13 V7 2.101890 1_555
F13 V3 2.124478 1_555
F13 Li5 2.132992 1_555
F13 Li2 2.403219 1_555
F14 V5 1.998006 1_565
F14 V4 2.062744 1_555
F14 Li0 2.448233 1_565
F15 Li5 1.912604 1_555
F15 V6 2.064656 1_555
F15 V1 2.071440 1_555
F16 V7 2.014390 1_555
F16 Li1 2.039238 1_555
F16 V0 2.103164 1_556
F17 Li2 1.953037 1_455
F17 V7 2.031360 1_555
F17 V3 2.066623 1_565
