# generated using pymatgen
data_Li2VFeP2(HO5)2
_symmetry_space_group_name_H-M   'P 1'
_cell_length_a   6.96751100
_cell_length_b   7.40938420
_cell_length_c   7.98916082
_cell_angle_alpha   91.17819071
_cell_angle_beta   92.66569600
_cell_angle_gamma   117.27858816
_symmetry_Int_Tables_number   1
_chemical_formula_structural   Li2VFeP2(HO5)2
_chemical_formula_sum   'Li4 V2 Fe2 P4 H4 O20'
_cell_volume   365.76785541
_cell_formula_units_Z   2
loop_
 _symmetry_equiv_pos_site_id
 _symmetry_equiv_pos_as_xyz
  1  'x, y, z'
loop_
 _atom_site_type_symbol
 _atom_site_label
 _atom_site_symmetry_multiplicity
 _atom_site_fract_x
 _atom_site_fract_y
 _atom_site_fract_z
 _atom_site_occupancy
  Li  Li0  1  0.07276800  0.82256400  0.67560900  1
  Li  Li1  1  0.42891300  0.17675600  0.82503700  1
  Li  Li2  1  0.57108700  0.82324400  0.17496300  1
  Li  Li3  1  0.92723200  0.17743600  0.32439100  1
  V  V0  1  0.00000000  0.00000000  0.00000000  1
  V  V1  1  0.50000000  0.50000000  0.50000000  1
  Fe  Fe0  1  0.00000000  0.50000000  0.00000000  1
  Fe  Fe1  1  0.50000000  0.00000000  0.50000000  1
  P  P0  1  0.48057100  0.76772900  0.84213500  1
  P  P1  1  0.01750500  0.23100900  0.65758800  1
  P  P2  1  0.98249500  0.76899100  0.34241200  1
  P  P3  1  0.51942900  0.23227100  0.15786500  1
  H  H0  1  0.79049800  0.65922600  0.84918700  1
  H  H1  1  0.29083000  0.66257300  0.35061700  1
  H  H2  1  0.70917000  0.33742700  0.64938300  1
  H  H3  1  0.20950200  0.34077400  0.15081300  1
  O  O0  1  0.32476500  0.65787800  0.98072300  1
  O  O1  1  0.11165700  0.11859900  0.77308500  1
  O  O2  1  0.38676700  0.88075600  0.72801700  1
  O  O3  1  0.68875500  0.92627900  0.94015800  1
  O  O4  1  0.19034400  0.92890400  0.44172100  1
  O  O5  1  0.53403400  0.61997500  0.73752300  1
  O  O6  1  0.17485200  0.34075100  0.51982200  1
  O  O7  1  0.03474800  0.62054300  0.23871700  1
  O  O8  1  0.94290400  0.72197900  0.89515000  1
  O  O9  1  0.44424100  0.72740500  0.39374900  1
  O  O10  1  0.55575900  0.27259500  0.60625100  1
  O  O11  1  0.05709600  0.27802100  0.10485000  1
  O  O12  1  0.96525200  0.37945700  0.76128300  1
  O  O13  1  0.82514800  0.65924900  0.48017800  1
  O  O14  1  0.46596600  0.38002500  0.26247700  1
  O  O15  1  0.80965600  0.07109600  0.55827900  1
  O  O16  1  0.31124500  0.07372100  0.05984200  1
  O  O17  1  0.61323300  0.11924400  0.27198300  1
  O  O18  1  0.88834300  0.88140100  0.22691500  1
  O  O19  1  0.67523500  0.34212200  0.01927700  1
loop_
_geom_bond_atom_site_label_1
_geom_bond_atom_site_label_2
_geom_bond_distance
_geom_bond_site_symmetry_2
Li0 O8 2.008415 1_455
Li0 O2 2.047034 1_555
Li0 O4 2.096363 1_555
Li0 O13 2.153303 1_455
Li0 O1 2.203720 1_565
Li1 O10 1.989983 1_555
Li1 O1 2.068427 1_555
Li1 O16 2.098140 1_556
Li1 O19 2.145096 1_556
Li1 O2 2.194455 1_545
Li2 O9 1.989983 1_555
Li2 O18 2.068427 1_555
Li2 O3 2.098140 1_554
Li2 O0 2.145096 1_554
Li2 O17 2.194455 1_565
Li3 O11 2.008415 1_655
Li3 O17 2.047034 1_555
Li3 O15 2.096363 1_555
Li3 O6 2.153303 1_655
Li3 O18 2.203720 1_545
Fe0 O0 2.031229 1_554
Fe0 O19 2.031229 1_455
Fe0 O7 2.045077 1_555
Fe0 O12 2.045077 1_454
Fe0 O8 2.047067 1_454
Fe0 O11 2.047067 1_555
Fe1 O15 2.000976 1_555
Fe1 O4 2.000976 1_545
Fe1 O10 2.032358 1_555
Fe1 O9 2.032358 1_545
Fe1 O2 2.069407 1_545
Fe1 O17 2.069407 1_555
H0 O8 0.991348 1_555
H1 O9 0.990102 1_555
H2 O10 0.990102 1_555
H3 O11 0.991348 1_555
O0 P0 1.551063 1_555
O1 P1 1.565758 1_555
O1 V0 2.057656 1_556
O2 P0 1.561220 1_555
O3 P0 1.546578 1_555
O3 V0 2.009177 1_666
O4 P2 1.553136 1_455
O5 P0 1.549487 1_555
O5 V1 2.035416 1_555
O6 P1 1.551255 1_555
O6 V1 2.034817 1_555
O7 P2 1.544766 1_455
O8 V0 2.061616 1_666
O9 V1 2.082943 1_555
O10 V1 2.082943 1_555
O11 V0 2.061616 1_555
O12 P1 1.544766 1_655
O13 P2 1.551255 1_555
O13 V1 2.034817 1_555
O14 P3 1.549487 1_555
O14 V1 2.035416 1_555
O15 P1 1.553136 1_655
O16 P3 1.546578 1_555
O16 V0 2.009177 1_555
O17 P3 1.561220 1_555
O18 P2 1.565758 1_555
O18 V0 2.057656 1_665
O19 P3 1.551063 1_555
