# generated using pymatgen
data_Li5Mn3Co2(PO4)6
_symmetry_space_group_name_H-M   'P 1'
_cell_length_a   8.30759429
_cell_length_b   8.86652185
_cell_length_c   8.78990935
_cell_angle_alpha   59.89646165
_cell_angle_beta   59.37104899
_cell_angle_gamma   61.85225427
_symmetry_Int_Tables_number   1
_chemical_formula_structural   Li5Mn3Co2(PO4)6
_chemical_formula_sum   'Li5 Mn3 Co2 P6 O24'
_cell_volume   461.20698277
_cell_formula_units_Z   1
loop_
 _symmetry_equiv_pos_site_id
 _symmetry_equiv_pos_as_xyz
  1  'x, y, z'
loop_
 _atom_site_type_symbol
 _atom_site_label
 _atom_site_symmetry_multiplicity
 _atom_site_fract_x
 _atom_site_fract_y
 _atom_site_fract_z
 _atom_site_occupancy
  Li  Li0  1  0.51721000  0.16719200  0.15580700  1
  Li  Li1  1  0.24481300  0.87020600  0.64699800  1
  Li  Li2  1  0.71686700  0.13736000  0.32963000  1
  Li  Li3  1  0.70332300  0.82252200  0.15222100  1
  Li  Li4  1  0.71676400  0.33021700  0.81325700  1
  Mn  Mn0  1  0.06985500  0.64224700  0.64479000  1
  Mn  Mn1  1  0.43611000  0.84860300  0.85981500  1
  Mn  Mn2  1  0.94739600  0.34603100  0.34746300  1
  Co  Co0  1  0.99961300  0.01523600  0.99737100  1
  Co  Co1  1  0.49638900  0.49682600  0.49776200  1
  P  P0  1  0.25698800  0.25162400  0.54114900  1
  P  P1  1  0.25039300  0.94512000  0.24335500  1
  P  P2  1  0.26224900  0.54678100  0.94441800  1
  P  P3  1  0.75863100  0.45333300  0.04369300  1
  P  P4  1  0.77608500  0.03765600  0.74388200  1
  P  P5  1  0.73686300  0.74980300  0.46667500  1
  O  O0  1  0.06814300  0.09637000  0.30017700  1
  O  O1  1  0.07444800  0.50835500  0.10851400  1
  O  O2  1  0.07279000  0.32841500  0.49012800  1
  O  O3  1  0.21040300  0.09025900  0.73387600  1
  O  O4  1  0.44278500  0.18652400  0.39204000  1
  O  O5  1  0.28159300  0.39758100  0.57119500  1
  O  O6  1  0.23249500  0.92897900  0.08136800  1
  O  O7  1  0.25967100  0.75196800  0.40787900  1
  O  O8  1  0.57557200  0.60366200  0.01772700  1
  O  O9  1  0.27454000  0.58507300  0.74166300  1
  O  O10  1  0.78252100  0.26730000  0.04441000  1
  O  O11  1  0.59808200  0.98668100  0.79527400  1
  O  O12  1  0.44219600  0.97411900  0.18514900  1
  O  O13  1  0.23634300  0.74409400  0.92616200  1
  O  O14  1  0.74017800  0.41235800  0.25090700  1
  O  O15  1  0.44717600  0.39955900  0.96667900  1
  O  O16  1  0.74584500  0.24000000  0.59512700  1
  O  O17  1  0.77955300  0.05260200  0.91278100  1
  O  O18  1  0.70625600  0.61359100  0.42529700  1
  O  O19  1  0.54015600  0.81816200  0.61337500  1
  O  O20  1  0.78678400  0.90792500  0.27491100  1
  O  O21  1  0.89905100  0.65963500  0.54554900  1
  O  O22  1  0.94452500  0.50689300  0.89514700  1
  O  O23  1  0.96934500  0.90213600  0.67337500  1
loop_
_geom_bond_atom_site_label_1
_geom_bond_atom_site_label_2
_geom_bond_distance
_geom_bond_site_symmetry_2
Li0 O4 1.916306 1_555
Li0 O15 1.940549 1_554
Li0 O12 1.945585 1_545
Li0 O10 2.319389 1_555
Li0 O17 2.385277 1_554
Li0 O20 2.552150 1_545
Li1 O23 2.070013 1_455
Li1 O13 2.102959 1_555
Li1 O19 2.156403 1_555
Li1 O9 2.157531 1_555
Li1 O3 2.284215 1_565
Li2 O4 1.925138 1_555
Li2 O10 2.052388 1_555
Li2 O20 2.071004 1_545
Li2 O14 2.253440 1_555
Li3 O12 1.896275 1_555
Li3 O20 2.072104 1_555
Li3 O17 2.132162 1_564
Li3 O18 2.179532 1_555
Li4 O15 1.915097 1_555
Li4 O17 2.046890 1_555
Li4 O10 2.108162 1_556
Li4 O16 2.293164 1_555
Mn0 O22 1.887345 1_455
Mn0 O21 1.928246 1_455
Mn0 O7 1.959268 1_555
Mn0 O9 2.025489 1_555
Mn0 O23 2.149848 1_455
Mn0 O5 2.206043 1_555
Mn1 O11 1.926409 1_555
Mn1 O13 1.968659 1_555
Mn1 O19 1.992699 1_555
Mn1 O6 2.014922 1_556
Mn1 O8 2.055791 1_556
Mn1 O3 2.297262 1_565
Mn2 O2 1.913955 1_655
Mn2 O1 1.933633 1_655
Mn2 O14 2.015579 1_555
Mn2 O16 2.035824 1_555
Mn2 O0 2.117119 1_655
Mn2 O18 2.420091 1_555
Co0 O3 2.072242 1_655
Co0 O6 2.089520 1_646
Co0 O17 2.138065 1_555
Co0 O10 2.186939 1_556
Co0 O20 2.201494 1_546
Co0 O13 2.415258 1_645
Co1 O5 2.028124 1_555
Co1 O18 2.104108 1_555
Co1 O9 2.213859 1_555
Co1 O14 2.256571 1_555
Co1 O7 2.280801 1_555
Co1 O16 2.369056 1_555
O0 P1 1.525099 1_545
O1 P2 1.531743 1_554
O2 P0 1.554445 1_555
O3 P0 1.577868 1_555
O4 P0 1.513401 1_555
O5 P0 1.560048 1_555
O6 P1 1.584347 1_555
O7 P1 1.592129 1_555
O8 P3 1.509134 1_555
O9 P2 1.594437 1_555
O10 P3 1.562736 1_555
O11 P4 1.529784 1_565
O12 P1 1.513528 1_555
O13 P2 1.590938 1_555
O14 P3 1.605368 1_555
O15 P2 1.503475 1_555
O16 P4 1.596186 1_555
O17 P4 1.570665 1_555
O18 P5 1.574848 1_555
O19 P5 1.550146 1_555
O20 P5 1.563487 1_555
O21 P5 1.521442 1_555
O22 P3 1.526640 1_556
O23 P4 1.522689 1_565
