# generated using pymatgen
data_V3H8(NO4)2
_symmetry_space_group_name_H-M   'P 1'
_cell_length_a   9.02863100
_cell_length_b   9.02863100
_cell_length_c   5.69214700
_cell_angle_alpha   90.00000000
_cell_angle_beta   90.00000000
_cell_angle_gamma   90.00000000
_symmetry_Int_Tables_number   1
_chemical_formula_structural   V3H8(NO4)2
_chemical_formula_sum   'V6 H16 N4 O16'
_cell_volume   464.00206654
_cell_formula_units_Z   2
loop_
 _symmetry_equiv_pos_site_id
 _symmetry_equiv_pos_as_xyz
  1  'x, y, z'
loop_
 _atom_site_type_symbol
 _atom_site_label
 _atom_site_symmetry_multiplicity
 _atom_site_fract_x
 _atom_site_fract_y
 _atom_site_fract_z
 _atom_site_occupancy
  V  V0  1  0.50000000  0.50000000  0.00322300  1
  V  V1  1  0.00000000  0.00000000  0.00322300  1
  V  V2  1  0.13369000  0.63369000  0.00418700  1
  V  V3  1  0.63369000  0.86631000  0.00418700  1
  V  V4  1  0.36631000  0.13369000  0.00418700  1
  V  V5  1  0.86631000  0.36631000  0.00418700  1
  H  H0  1  0.90072900  0.59927100  0.45193300  1
  H  H1  1  0.75751000  0.61145600  0.64200100  1
  H  H2  1  0.76665400  0.73334600  0.41919500  1
  H  H3  1  0.88854400  0.74249000  0.64200100  1
  H  H4  1  0.38854400  0.75751000  0.64200100  1
  H  H5  1  0.26665400  0.76665400  0.41919500  1
  H  H6  1  0.25751000  0.88854400  0.64200100  1
  H  H7  1  0.40072900  0.90072900  0.45193300  1
  H  H8  1  0.59927100  0.09927100  0.45193300  1
  H  H9  1  0.74249000  0.11145600  0.64200100  1
  H  H10  1  0.73334600  0.23334600  0.41919500  1
  H  H11  1  0.61145600  0.24249000  0.64200100  1
  H  H12  1  0.11145600  0.25751000  0.64200100  1
  H  H13  1  0.23334600  0.26665400  0.41919500  1
  H  H14  1  0.24249000  0.38854400  0.64200100  1
  H  H15  1  0.09927100  0.40072900  0.45193300  1
  N  N0  1  0.82940000  0.67060000  0.53690300  1
  N  N1  1  0.32940000  0.82940000  0.53690300  1
  N  N2  1  0.67060000  0.17060000  0.53690300  1
  N  N3  1  0.17060000  0.32940000  0.53690300  1
  O  O0  1  0.50000000  0.50000000  0.29123000  1
  O  O1  1  0.00000000  0.50000000  0.89352600  1
  O  O2  1  0.30756100  0.58427500  0.89576000  1
  O  O3  1  0.13180700  0.63180700  0.29896300  1
  O  O4  1  0.58427500  0.69243900  0.89576000  1
  O  O5  1  0.08427500  0.80756100  0.89576000  1
  O  O6  1  0.63180700  0.86819300  0.29896300  1
  O  O7  1  0.80756100  0.91572500  0.89576000  1
  O  O8  1  0.50000000  0.00000000  0.89352600  1
  O  O9  1  0.00000000  0.00000000  0.29123000  1
  O  O10  1  0.19243900  0.08427500  0.89576000  1
  O  O11  1  0.36819300  0.13180700  0.29896300  1
  O  O12  1  0.91572500  0.19243900  0.89576000  1
  O  O13  1  0.41572500  0.30756100  0.89576000  1
  O  O14  1  0.86819300  0.36819300  0.29896300  1
  O  O15  1  0.69243900  0.41572500  0.89576000  1
loop_
_geom_bond_atom_site_label_1
_geom_bond_atom_site_label_2
_geom_bond_distance
_geom_bond_site_symmetry_2
H0 N0 1.031217 1_555
H1 N0 1.031658 1_555
H2 N0 1.044406 1_555
H3 N0 1.031658 1_555
H4 N1 1.031658 1_555
H5 N1 1.044406 1_555
H6 N1 1.031658 1_555
H7 N1 1.031217 1_555
H8 N2 1.031217 1_555
H9 N2 1.031658 1_555
H10 N2 1.044406 1_555
H11 N2 1.031658 1_555
H12 N3 1.031658 1_555
H13 N3 1.044406 1_555
H14 N3 1.031658 1_555
H15 N3 1.031217 1_555
O0 V0 1.639378 1_555
O1 V5 1.819520 1_456
O1 V2 1.819520 1_556
O2 V2 1.744789 1_556
O2 V0 1.992960 1_556
O3 V2 1.678081 1_555
O4 V3 1.744789 1_556
O4 V0 1.992960 1_556
O5 V2 1.744789 1_556
O5 V1 1.992960 1_566
O6 V3 1.678081 1_555
O7 V3 1.744789 1_556
O7 V1 1.992960 1_666
O8 V4 1.819520 1_556
O8 V3 1.819520 1_546
O9 V1 1.639378 1_555
O10 V4 1.744789 1_556
O10 V1 1.992960 1_556
O11 V4 1.678081 1_555
O12 V5 1.744789 1_556
O12 V1 1.992960 1_656
O13 V4 1.744789 1_556
O13 V0 1.992960 1_556
O14 V5 1.678081 1_555
O15 V5 1.744789 1_556
O15 V0 1.992960 1_556
