# generated using pymatgen
data_CaTb2O4
_symmetry_space_group_name_H-M   'P 1'
_cell_length_a   5.81315875
_cell_length_b   5.81315875
_cell_length_c   11.03454900
_cell_angle_alpha   90.00000000
_cell_angle_beta   90.00000000
_cell_angle_gamma   146.57146038
_symmetry_Int_Tables_number   1
_chemical_formula_structural   CaTb2O4
_chemical_formula_sum   'Ca2 Tb4 O8'
_cell_volume   205.42295897
_cell_formula_units_Z   2
loop_
 _symmetry_equiv_pos_site_id
 _symmetry_equiv_pos_as_xyz
  1  'x, y, z'
loop_
 _atom_site_type_symbol
 _atom_site_label
 _atom_site_symmetry_multiplicity
 _atom_site_fract_x
 _atom_site_fract_y
 _atom_site_fract_z
 _atom_site_occupancy
  Ca  Ca0  1  0.88958600  0.11041400  0.25000000  1
  Ca  Ca1  1  0.11041400  0.88958600  0.75000000  1
  Tb  Tb0  1  0.63253000  0.36747000  0.42537800  1
  Tb  Tb1  1  0.63253000  0.36747000  0.07462200  1
  Tb  Tb2  1  0.36747000  0.63253000  0.57462200  1
  Tb  Tb3  1  0.36747000  0.63253000  0.92537800  1
  O  O0  1  0.00000000  0.00000000  0.00000000  1
  O  O1  1  0.00000000  0.00000000  0.50000000  1
  O  O2  1  0.73365100  0.26634900  0.61320500  1
  O  O3  1  0.53162700  0.46837300  0.25000000  1
  O  O4  1  0.46837300  0.53162700  0.75000000  1
  O  O5  1  0.26634900  0.73365100  0.38679500  1
  O  O6  1  0.73365100  0.26634900  0.88679500  1
  O  O7  1  0.26634900  0.73365100  0.11320500  1
loop_
_geom_bond_atom_site_label_1
_geom_bond_atom_site_label_2
_geom_bond_distance
_geom_bond_site_symmetry_2
Ca0 O3 2.301458 1_655
Ca0 O3 2.301458 1_545
Ca0 O5 2.637557 1_655
Ca0 O7 2.637557 1_545
Ca0 O5 2.637557 1_545
Ca0 O7 2.637557 1_655
Ca0 O1 3.020212 1_655
Ca0 O0 3.020212 1_655
Ca1 O4 2.301458 1_565
Ca1 O4 2.301458 1_455
Ca1 O2 2.637557 1_455
Ca1 O6 2.637557 1_455
Ca1 O2 2.637557 1_565
Ca1 O6 2.637557 1_565
Ca1 O1 3.020212 1_565
Ca1 O0 3.020212 1_566
O0 Tb3 2.377169 1_554
O0 Tb1 2.377169 1_555
O0 Tb3 2.377169 1_444
O0 Tb1 2.377169 1_445
O1 Tb2 2.377169 1_555
O1 Tb2 2.377169 1_445
O1 Tb0 2.377169 1_555
O1 Tb0 2.377169 1_445
O2 Tb2 2.279636 1_655
O2 Tb2 2.279636 1_545
O2 Tb0 2.358702 1_555
O3 Tb0 2.237737 1_555
O3 Tb1 2.237737 1_555
O4 Tb2 2.237737 1_555
O4 Tb3 2.237737 1_555
O5 Tb0 2.279636 1_455
O5 Tb0 2.279636 1_565
O5 Tb2 2.358702 1_555
O6 Tb3 2.279636 1_655
O6 Tb3 2.279636 1_545
O6 Tb1 2.358702 1_556
O7 Tb1 2.279636 1_455
O7 Tb1 2.279636 1_565
O7 Tb3 2.358702 1_554
