# generated using pymatgen
data_Be(FeO2)2
_symmetry_space_group_name_H-M   'P 1'
_cell_length_a   3.05906900
_cell_length_b   9.47654600
_cell_length_c   9.88509900
_cell_angle_alpha   90.00000000
_cell_angle_beta   90.00000000
_cell_angle_gamma   90.00000000
_symmetry_Int_Tables_number   1
_chemical_formula_structural   Be(FeO2)2
_chemical_formula_sum   'Be4 Fe8 O16'
_cell_volume   286.56316898
_cell_formula_units_Z   4
loop_
 _symmetry_equiv_pos_site_id
 _symmetry_equiv_pos_as_xyz
  1  'x, y, z'
loop_
 _atom_site_type_symbol
 _atom_site_label
 _atom_site_symmetry_multiplicity
 _atom_site_fract_x
 _atom_site_fract_y
 _atom_site_fract_z
 _atom_site_occupancy
  Be  Be0  1  0.25000000  0.66214400  0.62031800  1
  Be  Be1  1  0.75000000  0.83785600  0.12031800  1
  Be  Be2  1  0.25000000  0.16214400  0.87968200  1
  Be  Be3  1  0.75000000  0.33785600  0.37968200  1
  Fe  Fe0  1  0.25000000  0.61237100  0.30733800  1
  Fe  Fe1  1  0.25000000  0.62054400  0.92936900  1
  Fe  Fe2  1  0.75000000  0.87945600  0.42936900  1
  Fe  Fe3  1  0.75000000  0.88762900  0.80733800  1
  Fe  Fe4  1  0.25000000  0.11237100  0.19266200  1
  Fe  Fe5  1  0.25000000  0.12054400  0.57063100  1
  Fe  Fe6  1  0.75000000  0.37945600  0.07063100  1
  Fe  Fe7  1  0.75000000  0.38762900  0.69266200  1
  O  O0  1  0.25000000  0.51605000  0.11584100  1
  O  O1  1  0.25000000  0.50189300  0.63272700  1
  O  O2  1  0.75000000  0.75498200  0.25609200  1
  O  O3  1  0.25000000  0.74301800  0.48321200  1
  O  O4  1  0.75000000  0.75698200  0.98321200  1
  O  O5  1  0.25000000  0.74501800  0.75609200  1
  O  O6  1  0.75000000  0.99810700  0.13272700  1
  O  O7  1  0.75000000  0.98395000  0.61584100  1
  O  O8  1  0.25000000  0.01605000  0.38415900  1
  O  O9  1  0.25000000  0.00189300  0.86727300  1
  O  O10  1  0.75000000  0.25498200  0.24390800  1
  O  O11  1  0.25000000  0.24301800  0.01678800  1
  O  O12  1  0.75000000  0.25698200  0.51678800  1
  O  O13  1  0.25000000  0.24501800  0.74390800  1
  O  O14  1  0.75000000  0.49810700  0.36727300  1
  O  O15  1  0.75000000  0.48395000  0.88415900  1
loop_
_geom_bond_atom_site_label_1
_geom_bond_atom_site_label_2
_geom_bond_distance
_geom_bond_site_symmetry_2
Be0 O1 1.523572 1_555
Be0 O5 1.555033 1_555
Be0 O3 1.556995 1_555
Be1 O6 1.523572 1_555
Be1 O2 1.555033 1_555
Be1 O4 1.556995 1_554
Be2 O9 1.523572 1_555
Be2 O13 1.555033 1_555
Be2 O11 1.556995 1_556
Be3 O14 1.523572 1_555
Be3 O10 1.555033 1_555
Be3 O12 1.556995 1_555
Fe0 O14 1.965453 1_455
Fe0 O14 1.965453 1_555
Fe0 O0 2.101549 1_555
Fe0 O2 2.102982 1_455
Fe0 O2 2.102982 1_555
Fe0 O3 2.134324 1_555
Fe1 O15 2.052991 1_455
Fe1 O15 2.052991 1_555
Fe1 O4 2.072319 1_555
Fe1 O4 2.072319 1_455
Fe1 O5 2.079737 1_555
Fe1 O0 2.092442 1_556
Fe2 O8 2.052991 1_665
Fe2 O8 2.052991 1_565
Fe2 O3 2.072319 1_555
Fe2 O3 2.072319 1_655
Fe2 O2 2.079737 1_555
Fe2 O7 2.092442 1_555
Fe3 O9 1.965453 1_565
Fe3 O9 1.965453 1_665
Fe3 O7 2.101549 1_555
Fe3 O5 2.102982 1_555
Fe3 O5 2.102982 1_655
Fe3 O4 2.134324 1_555
Fe4 O6 1.965453 1_445
Fe4 O6 1.965453 1_545
Fe4 O8 2.101549 1_555
Fe4 O10 2.102982 1_555
Fe4 O10 2.102982 1_455
Fe4 O11 2.134324 1_555
Fe5 O7 2.052991 1_445
Fe5 O7 2.052991 1_545
Fe5 O12 2.072319 1_555
Fe5 O12 2.072319 1_455
Fe5 O13 2.079737 1_555
Fe5 O8 2.092442 1_555
Fe6 O0 2.052991 1_555
Fe6 O0 2.052991 1_655
Fe6 O11 2.072319 1_655
Fe6 O11 2.072319 1_555
Fe6 O10 2.079737 1_555
Fe6 O15 2.092442 1_554
Fe7 O1 1.965453 1_655
Fe7 O1 1.965453 1_555
Fe7 O15 2.101549 1_555
Fe7 O13 2.102982 1_655
Fe7 O13 2.102982 1_555
Fe7 O12 2.134324 1_555
