# generated using pymatgen
data_Li3CoNi3O8
_symmetry_space_group_name_H-M   'P 1'
_cell_length_a   5.83593249
_cell_length_b   5.76211037
_cell_length_c   5.76210981
_cell_angle_alpha   60.00000248
_cell_angle_beta   60.41757753
_cell_angle_gamma   90.00000481
_symmetry_Int_Tables_number   1
_chemical_formula_structural   Li3CoNi3O8
_chemical_formula_sum   'Li3 Co1 Ni3 O8'
_cell_volume   137.87034067
_cell_formula_units_Z   1
loop_
 _symmetry_equiv_pos_site_id
 _symmetry_equiv_pos_as_xyz
  1  'x, y, z'
loop_
 _atom_site_type_symbol
 _atom_site_label
 _atom_site_symmetry_multiplicity
 _atom_site_fract_x
 _atom_site_fract_y
 _atom_site_fract_z
 _atom_site_occupancy
  Li  Li0  1  0.50000000  0.00000000  0.00000000  1
  Li  Li1  1  0.50000000  0.00000000  0.50000000  1
  Li  Li2  1  0.50000000  0.50000000  0.50000000  1
  Co  Co0  1  0.00000000  0.00000000  0.00000000  1
  Ni  Ni0  1  0.00000000  0.00000000  0.50000000  1
  Ni  Ni1  1  0.00000000  0.50000000  0.00000000  1
  Ni  Ni2  1  0.00000000  0.50000000  0.50000000  1
  O  O0  1  0.21650600  0.22831400  0.01180900  1
  O  O1  1  0.21650600  0.22831400  0.54337100  1
  O  O2  1  0.21650600  0.75987700  0.01180900  1
  O  O3  1  0.21827500  0.73942500  0.52115100  1
  O  O4  1  0.78172500  0.26057500  0.47884900  1
  O  O5  1  0.78349400  0.24012300  0.98819100  1
  O  O6  1  0.78349400  0.77168600  0.45662900  1
  O  O7  1  0.78349400  0.77168600  0.98819100  1
loop_
_geom_bond_atom_site_label_1
_geom_bond_atom_site_label_2
_geom_bond_distance
_geom_bond_site_symmetry_2
Li0 O5 2.109723 1_554
Li0 O2 2.109723 1_545
Li0 O7 2.109723 1_544
Li0 O0 2.109723 1_555
Li0 O3 2.142802 1_545
Li0 O4 2.142802 1_554
Li1 O6 2.109723 1_545
Li1 O1 2.109723 1_555
Li1 O2 2.109727 1_546
Li1 O5 2.109727 1_554
Li1 O4 2.142794 1_555
Li1 O3 2.142794 1_545
Li2 O6 2.109727 1_555
Li2 O1 2.109727 1_555
Li2 O0 2.109727 1_556
Li2 O7 2.109727 1_554
Li2 O3 2.142798 1_555
Li2 O4 2.142798 1_555
Co0 O0 1.872493 1_555
Co0 O7 1.872493 1_444
Co0 O6 1.872493 1_445
Co0 O1 1.872493 1_554
Co0 O5 1.872493 1_454
Co0 O2 1.872493 1_545
Ni0 O3 1.965248 1_545
Ni0 O4 1.965248 1_455
Ni0 O1 2.007533 1_555
Ni0 O6 2.007533 1_445
Ni0 O7 2.007533 1_445
Ni0 O0 2.007533 1_555
Ni1 O4 1.965244 1_455
Ni1 O3 1.965244 1_554
Ni1 O2 2.007537 1_555
Ni1 O5 2.007537 1_454
Ni1 O0 2.007537 1_555
Ni1 O7 2.007537 1_454
Ni2 O3 1.965252 1_555
Ni2 O4 1.965252 1_455
Ni2 O5 2.007533 1_455
Ni2 O2 2.007533 1_555
Ni2 O1 2.007537 1_555
Ni2 O6 2.007537 1_455
