# generated using pymatgen
data_Li2VFe3O8
_symmetry_space_group_name_H-M   'P 1'
_cell_length_a   5.87934476
_cell_length_b   5.87934476
_cell_length_c   9.42631400
_cell_angle_alpha   90.00000000
_cell_angle_beta   90.00000000
_cell_angle_gamma   119.35929081
_symmetry_Int_Tables_number   1
_chemical_formula_structural   Li2VFe3O8
_chemical_formula_sum   'Li4 V2 Fe6 O16'
_cell_volume   283.98685347
_cell_formula_units_Z   2
loop_
 _symmetry_equiv_pos_site_id
 _symmetry_equiv_pos_as_xyz
  1  'x, y, z'
loop_
 _atom_site_type_symbol
 _atom_site_label
 _atom_site_symmetry_multiplicity
 _atom_site_fract_x
 _atom_site_fract_y
 _atom_site_fract_z
 _atom_site_occupancy
  Li  Li0  1  0.66656200  0.33343800  0.89913700  1
  Li  Li1  1  0.99980900  0.00019100  0.99106300  1
  Li  Li2  1  0.00019100  0.99980900  0.49106300  1
  Li  Li3  1  0.33343800  0.66656200  0.39913700  1
  V  V0  1  0.66629500  0.33370500  0.49689900  1
  V  V1  1  0.33370500  0.66629500  0.99689900  1
  Fe  Fe0  1  0.34519100  0.16964700  0.21821800  1
  Fe  Fe1  1  0.82582600  0.17417400  0.21422600  1
  Fe  Fe2  1  0.83035300  0.65480900  0.21821800  1
  Fe  Fe3  1  0.16964700  0.34519100  0.71821800  1
  Fe  Fe4  1  0.17417400  0.82582600  0.71422600  1
  Fe  Fe5  1  0.65480900  0.83035300  0.71821800  1
  O  O0  1  0.35104000  0.16690600  0.59007700  1
  O  O1  1  0.52998800  0.04126400  0.34473500  1
  O  O2  1  0.66740700  0.33259300  0.10530000  1
  O  O3  1  0.99601300  0.00398700  0.29998500  1
  O  O4  1  0.00398700  0.99601300  0.79998500  1
  O  O5  1  0.82686300  0.17313700  0.58927400  1
  O  O6  1  0.52231600  0.47768400  0.35210300  1
  O  O7  1  0.95873600  0.47001200  0.34473500  1
  O  O8  1  0.16690600  0.35104000  0.09007700  1
  O  O9  1  0.83309400  0.64896000  0.59007700  1
  O  O10  1  0.04126400  0.52998800  0.84473500  1
  O  O11  1  0.47768400  0.52231600  0.85210300  1
  O  O12  1  0.33259300  0.66740700  0.60530000  1
  O  O13  1  0.17313700  0.82686300  0.08927400  1
  O  O14  1  0.47001200  0.95873600  0.84473500  1
  O  O15  1  0.64896000  0.83309400  0.09007700  1
loop_
_geom_bond_atom_site_label_1
_geom_bond_atom_site_label_2
_geom_bond_distance
_geom_bond_site_symmetry_2
Li0 O2 1.943376 1_556
Li0 O11 1.967764 1_555
Li0 O14 1.988788 1_545
Li0 O10 1.988788 1_655
Li1 O4 1.801660 1_645
Li1 O13 1.988036 1_646
Li1 O15 2.025866 1_546
Li1 O8 2.025866 1_656
Li2 O3 1.801660 1_465
Li2 O5 1.988036 1_465
Li2 O9 2.025866 1_455
Li2 O0 2.025866 1_565
Li3 O12 1.943376 1_555
Li3 O6 1.967764 1_555
Li3 O1 1.988788 1_565
Li3 O7 1.988788 1_455
Fe0 O3 1.948486 1_455
Fe0 O2 1.964675 1_555
Fe0 O1 1.994143 1_555
Fe0 O6 2.026769 1_555
Fe0 O13 2.136165 1_545
Fe0 O8 2.188893 1_555
Fe1 O3 1.907242 1_555
Fe1 O2 1.907857 1_555
Fe1 O1 1.953611 1_555
Fe1 O7 1.953611 1_555
Fe1 O8 2.104146 1_655
Fe1 O15 2.104146 1_545
Fe2 O3 1.948486 1_565
Fe2 O2 1.964675 1_555
Fe2 O7 1.994143 1_555
Fe2 O6 2.026769 1_555
Fe2 O13 2.136165 1_655
Fe2 O15 2.188893 1_555
Fe3 O4 1.948486 1_545
Fe3 O12 1.964675 1_555
Fe3 O10 1.994143 1_555
Fe3 O11 2.026769 1_555
Fe3 O5 2.136165 1_455
Fe3 O0 2.188893 1_555
Fe4 O4 1.907242 1_555
Fe4 O12 1.907857 1_555
Fe4 O10 1.953611 1_555
Fe4 O14 1.953611 1_555
Fe4 O9 2.104146 1_455
Fe4 O0 2.104146 1_565
Fe5 O4 1.948486 1_655
Fe5 O12 1.964675 1_555
Fe5 O14 1.994143 1_555
Fe5 O11 2.026769 1_555
Fe5 O5 2.136165 1_565
Fe5 O9 2.188893 1_555
O0 V0 1.840179 1_555
O1 V0 2.074770 1_555
O5 V0 1.847837 1_555
O6 V0 1.999677 1_555
O7 V0 2.074770 1_555
O8 V1 1.840179 1_554
O9 V0 1.840179 1_555
O10 V1 2.074770 1_555
O11 V1 1.999677 1_555
O13 V1 1.847837 1_554
O14 V1 2.074770 1_555
O15 V1 1.840179 1_554
