# generated using pymatgen
data_CsSbPO4F3
_symmetry_space_group_name_H-M   'P 1'
_cell_length_a   5.74839800
_cell_length_b   10.25145400
_cell_length_c   12.88647554
_cell_angle_alpha   69.61822978
_cell_angle_beta   90.00000000
_cell_angle_gamma   90.00000000
_symmetry_Int_Tables_number   1
_chemical_formula_structural   CsSbPO4F3
_chemical_formula_sum   'Cs4 Sb4 P4 O16 F12'
_cell_volume   711.84933894
_cell_formula_units_Z   4
loop_
 _symmetry_equiv_pos_site_id
 _symmetry_equiv_pos_as_xyz
  1  'x, y, z'
loop_
 _atom_site_type_symbol
 _atom_site_label
 _atom_site_symmetry_multiplicity
 _atom_site_fract_x
 _atom_site_fract_y
 _atom_site_fract_z
 _atom_site_occupancy
  Cs  Cs0  1  0.25708000  0.34424100  0.86583200  1
  Cs  Cs1  1  0.75708000  0.65575900  0.63416800  1
  Cs  Cs2  1  0.74292000  0.65575900  0.13416800  1
  Cs  Cs3  1  0.24292000  0.34424100  0.36583200  1
  Sb  Sb0  1  0.22710900  0.78085200  0.86271900  1
  Sb  Sb1  1  0.72710900  0.21914800  0.63728100  1
  Sb  Sb2  1  0.77289100  0.21914800  0.13728100  1
  Sb  Sb3  1  0.27289100  0.78085200  0.36271900  1
  P  P0  1  0.23051700  0.07449200  0.67630800  1
  P  P1  1  0.73051700  0.92550800  0.82369200  1
  P  P2  1  0.76948300  0.92550800  0.32369200  1
  P  P3  1  0.26948300  0.07449200  0.17630800  1
  O  O0  1  0.01481600  0.13376900  0.59575000  1
  O  O1  1  0.51481600  0.86623100  0.90425000  1
  O  O2  1  0.98518400  0.86623100  0.40425000  1
  O  O3  1  0.48518400  0.13376900  0.09575000  1
  O  O4  1  0.44732000  0.12804400  0.59465400  1
  O  O5  1  0.94732000  0.87195600  0.90534600  1
  O  O6  1  0.55268000  0.87195600  0.40534600  1
  O  O7  1  0.05268000  0.12804400  0.09465400  1
  O  O8  1  0.22644000  0.90949400  0.70494000  1
  O  O9  1  0.72644000  0.09050600  0.79506000  1
  O  O10  1  0.77356000  0.09050600  0.29506000  1
  O  O11  1  0.27356000  0.90949400  0.20494000  1
  O  O12  1  0.23504700  0.11112300  0.77790000  1
  O  O13  1  0.73504700  0.88887700  0.72210000  1
  O  O14  1  0.76495300  0.88887700  0.22210000  1
  O  O15  1  0.26495300  0.11112300  0.27790000  1
  F  F0  1  0.26344300  0.66736100  0.51859300  1
  F  F1  1  0.76344300  0.33263900  0.98140700  1
  F  F2  1  0.73655700  0.33263900  0.48140700  1
  F  F3  1  0.23655700  0.66736100  0.01859300  1
  F  F4  1  0.00287400  0.64876200  0.84424100  1
  F  F5  1  0.50287400  0.35123800  0.65575900  1
  F  F6  1  0.99712600  0.35123800  0.15575900  1
  F  F7  1  0.49712600  0.64876200  0.34424100  1
  F  F8  1  0.43446300  0.65390300  0.82603300  1
  F  F9  1  0.93446300  0.34609700  0.67396700  1
  F  F10  1  0.56553700  0.34609700  0.17396700  1
  F  F11  1  0.06553700  0.65390300  0.32603300  1
loop_
_geom_bond_atom_site_label_1
_geom_bond_atom_site_label_2
_geom_bond_distance
_geom_bond_site_symmetry_2
Cs0 O12 2.982850 1_555
Cs0 F5 3.032265 1_555
Cs0 F9 3.085443 1_455
Cs0 F1 3.187638 1_455
Cs0 F8 3.200949 1_555
Cs0 O7 3.230390 1_556
Cs0 F1 3.252930 1_555
Cs0 O3 3.271130 1_556
Cs0 F4 3.369461 1_555
Cs1 O13 2.982850 1_555
Cs1 F4 3.032265 1_655
Cs1 F8 3.085443 1_555
Cs1 F0 3.187638 1_555
Cs1 F9 3.200949 1_555
Cs1 O6 3.230390 1_555
Cs1 F0 3.252930 1_655
Cs1 O2 3.271130 1_555
Cs1 F5 3.369461 1_555
Cs2 O14 2.982850 1_555
Cs2 F7 3.032265 1_555
Cs2 F11 3.085443 1_655
Cs2 F3 3.187638 1_655
Cs2 F10 3.200949 1_555
Cs2 O5 3.230390 1_554
Cs2 F3 3.252930 1_555
Cs2 O1 3.271130 1_554
Cs2 F6 3.369461 1_555
Cs3 O15 2.982850 1_555
Cs3 F6 3.032265 1_455
Cs3 F10 3.085443 1_555
Cs3 F2 3.187638 1_555
Cs3 F11 3.200949 1_555
Cs3 O4 3.230390 1_555
Cs3 F2 3.252930 1_455
Cs3 O0 3.271130 1_555
Cs3 F7 3.369461 1_555
O0 P0 1.595297 1_555
O0 Sb1 2.028305 1_455
O1 P1 1.595297 1_555
O1 Sb0 2.028305 1_555
O2 P2 1.595297 1_555
O2 Sb3 2.028305 1_655
O3 P3 1.595297 1_555
O3 Sb2 2.028305 1_555
O4 P0 1.599812 1_555
O4 Sb1 2.029311 1_555
O5 P1 1.599812 1_555
O5 Sb0 2.029311 1_655
O6 P2 1.599812 1_555
O6 Sb3 2.029311 1_555
O7 P3 1.599812 1_555
O7 Sb2 2.029311 1_455
O8 P0 1.600950 1_565
O8 Sb0 2.001361 1_555
O9 P1 1.600950 1_545
O9 Sb1 2.001361 1_555
O10 P2 1.600950 1_545
O10 Sb2 2.001361 1_555
O11 P3 1.600950 1_565
O11 Sb3 2.001361 1_555
O12 P0 1.482578 1_555
O13 P1 1.482578 1_555
O14 P2 1.482578 1_555
O15 P3 1.482578 1_555
F0 Sb3 1.939970 1_555
F1 Sb2 1.939970 1_556
F2 Sb1 1.939970 1_555
F3 Sb0 1.939970 1_554
F4 Sb0 1.943301 1_555
F5 Sb1 1.943301 1_555
F6 Sb2 1.943301 1_555
F7 Sb3 1.943301 1_555
F8 Sb0 1.940739 1_555
F9 Sb1 1.940739 1_555
F10 Sb2 1.940739 1_555
F11 Sb3 1.940739 1_555
