# generated using pymatgen
data_Li4Ti3V3(CuO8)2
_symmetry_space_group_name_H-M   'P 1'
_cell_length_a   5.83829500
_cell_length_b   5.87382658
_cell_length_c   9.81199799
_cell_angle_alpha   91.15023558
_cell_angle_beta   92.40883788
_cell_angle_gamma   118.88027044
_symmetry_Int_Tables_number   1
_chemical_formula_structural   Li4Ti3V3(CuO8)2
_chemical_formula_sum   'Li4 Ti3 V3 Cu2 O16'
_cell_volume   294.06192489
_cell_formula_units_Z   1
loop_
 _symmetry_equiv_pos_site_id
 _symmetry_equiv_pos_as_xyz
  1  'x, y, z'
loop_
 _atom_site_type_symbol
 _atom_site_label
 _atom_site_symmetry_multiplicity
 _atom_site_fract_x
 _atom_site_fract_y
 _atom_site_fract_z
 _atom_site_occupancy
  Li  Li0  1  0.32151700  0.66097200  0.10390100  1
  Li  Li1  1  0.02176600  0.02193600  0.00480100  1
  Li  Li2  1  0.02017100  0.00665300  0.50335400  1
  Li  Li3  1  0.65359700  0.32209900  0.60399400  1
  Ti  Ti0  1  0.19230700  0.34661500  0.78042500  1
  Ti  Ti1  1  0.15599200  0.81918100  0.77974400  1
  Ti  Ti2  1  0.34375900  0.19136300  0.27994500  1
  V  V0  1  0.66923800  0.85144400  0.79410300  1
  V  V1  1  0.85029700  0.65906400  0.29214700  1
  V  V2  1  0.81867300  0.14983600  0.28494000  1
  Cu  Cu0  1  0.33331300  0.66686400  0.50645500  1
  Cu  Cu1  1  0.66753000  0.32909800  0.00595600  1
  O  O0  1  0.15557400  0.32000200  0.39236800  1
  O  O1  1  0.00774400  0.50747300  0.68261800  1
  O  O2  1  0.34105100  0.67873500  0.89517300  1
  O  O3  1  0.99154200  0.00339900  0.68605800  1
  O  O4  1  0.99719200  0.98869400  0.18731800  1
  O  O5  1  0.17321600  0.83536900  0.39530600  1
  O  O6  1  0.46280900  0.50867500  0.66317700  1
  O  O7  1  0.46993400  0.95217800  0.66960300  1
  O  O8  1  0.33189100  0.17105500  0.89441800  1
  O  O9  1  0.70519200  0.83522000  0.38825800  1
  O  O10  1  0.51391700  0.01736900  0.18244600  1
  O  O11  1  0.49735700  0.46483300  0.16775500  1
  O  O12  1  0.67311300  0.33716900  0.39687700  1
  O  O13  1  0.84361000  0.17043300  0.89626500  1
  O  O14  1  0.94619600  0.47730900  0.16505500  1
  O  O15  1  0.84150100  0.70666100  0.88970000  1
loop_
_geom_bond_atom_site_label_1
_geom_bond_atom_site_label_2
_geom_bond_distance
_geom_bond_site_symmetry_2
Li0 O10 1.956809 1_565
Li0 O11 1.972603 1_555
Li0 O14 2.044124 1_455
Li0 O2 2.057929 1_554
Li1 O4 1.809545 1_445
Li1 O15 1.935461 1_444
Li1 O13 1.948680 1_454
Li1 O8 1.972192 1_554
Li2 O3 1.807075 1_455
Li2 O9 1.913662 1_445
Li2 O5 1.959523 1_545
Li2 O0 1.986415 1_555
Li3 O1 1.926986 1_655
Li3 O6 1.996736 1_555
Li3 O7 2.036928 1_545
Li3 O12 2.041501 1_555
Cu0 O5 1.973317 1_555
Cu0 O0 2.061429 1_555
Cu0 O6 2.106624 1_555
Cu0 O7 2.121583 1_555
Cu0 O9 2.284849 1_555
Cu0 O1 2.469689 1_555
Cu1 O8 1.980189 1_554
Cu1 O13 2.015430 1_554
Cu1 O14 2.050749 1_555
Cu1 O11 2.233842 1_555
Cu1 O15 2.296583 1_554
Cu1 O10 2.414019 1_555
O0 V2 1.965526 1_455
O0 Ti2 1.966004 1_555
O1 Ti1 1.827417 1_555
O1 Ti0 1.976802 1_555
O2 Ti1 1.981478 1_555
O2 V0 2.001593 1_555
O2 Ti0 2.005160 1_555
O3 Ti0 1.961302 1_655
O3 Ti1 1.976605 1_645
O3 V0 2.011139 1_545
O4 Ti2 1.952546 1_665
O4 V2 1.974876 1_565
O4 V1 2.022977 1_555
O5 V1 1.887564 1_455
O5 Ti2 2.196297 1_565
O6 Ti0 1.862330 1_555
O6 V0 2.139757 1_555
O7 V0 1.941891 1_555
O7 Ti1 1.988706 1_555
O8 Ti0 1.939071 1_555
O8 Ti1 2.086077 1_545
O9 V1 1.884769 1_555
O9 V2 1.957228 1_565
O10 V2 1.806495 1_555
O10 Ti2 1.991981 1_555
O11 Ti2 1.832683 1_555
O11 V1 2.121107 1_555
O12 Ti2 1.982831 1_555
O12 V1 1.994761 1_555
O12 V2 2.018052 1_555
O13 V0 1.883663 1_545
O13 Ti0 2.171172 1_655
O14 V1 1.894977 1_555
O14 V2 2.102155 1_555
O15 V0 1.842134 1_555
O15 Ti1 1.998746 1_655
