# generated using pymatgen
data_Ti2N2O
_symmetry_space_group_name_H-M   'P 1'
_cell_length_a   8.20324700
_cell_length_b   8.22238649
_cell_length_c   8.22644276
_cell_angle_alpha   109.44350725
_cell_angle_beta   109.42355293
_cell_angle_gamma   109.40780751
_symmetry_Int_Tables_number   1
_chemical_formula_structural   Ti2N2O
_chemical_formula_sum   'Ti16 N16 O8'
_cell_volume   427.87362352
_cell_formula_units_Z   8
loop_
 _symmetry_equiv_pos_site_id
 _symmetry_equiv_pos_as_xyz
  1  'x, y, z'
loop_
 _atom_site_type_symbol
 _atom_site_label
 _atom_site_symmetry_multiplicity
 _atom_site_fract_x
 _atom_site_fract_y
 _atom_site_fract_z
 _atom_site_occupancy
  Ti  Ti0  1  0.01101300  0.49932900  0.99707600  1
  Ti  Ti1  1  0.74766900  0.53933100  0.30326000  1
  Ti  Ti2  1  0.21395000  0.75083400  0.46440600  1
  Ti  Ti3  1  0.71121000  0.75111200  0.95394400  1
  Ti  Ti4  1  0.26513400  0.96180100  0.20765100  1
  Ti  Ti5  1  0.96154800  0.70721300  0.74224400  1
  Ti  Ti6  1  0.44850900  0.21068800  0.74592400  1
  Ti  Ti7  1  0.04079500  0.29351100  0.24920500  1
  Ti  Ti8  1  0.99370300  0.00506600  0.50686900  1
  Ti  Ti9  1  0.49727800  0.99731300  0.99459600  1
  Ti  Ti10  1  0.54184900  0.79515100  0.25984100  1
  Ti  Ti11  1  0.50931900  0.51112700  0.51074300  1
  Ti  Ti12  1  0.74836100  0.03815800  0.79814000  1
  Ti  Ti13  1  0.79590500  0.24901300  0.54066500  1
  Ti  Ti14  1  0.28633500  0.25062200  0.03980800  1
  Ti  Ti15  1  0.24239000  0.45255900  0.69796600  1
  N  N0  1  0.04285200  0.27112600  0.99483100  1
  N  N1  1  0.27026400  0.72430000  0.23251600  1
  N  N2  1  0.77497400  0.03894300  0.05125500  1
  N  N3  1  0.45825200  0.95354900  0.72634200  1
  N  N4  1  0.49143000  0.53731400  0.26301200  1
  N  N5  1  0.00873300  0.77215600  0.54398300  1
  N  N6  1  0.51158000  0.46008000  0.73746000  1
  N  N7  1  0.73417000  0.77443900  0.72469900  1
  N  N8  1  0.22382400  0.22724500  0.77218800  1
  N  N9  1  0.22657600  0.96138900  0.95348600  1
  N  N10  1  0.53817500  0.04926100  0.27487400  1
  N  N11  1  0.76432200  0.98783000  0.53910200  1
  N  N12  1  0.98897700  0.22418800  0.44989900  1
  N  N13  1  0.27147500  0.54711000  0.50544100  1
  N  N14  1  0.72448300  0.44723700  0.48700000  1
  N  N15  1  0.05252700  0.51085700  0.77927900  1
  O  O0  1  0.95277800  0.73039000  0.00764000  1
  O  O1  1  0.55325700  0.27590700  0.04065200  1
  O  O2  1  0.94377600  0.48609000  0.22140600  1
  O  O3  1  0.25946500  0.22023600  0.27305800  1
  O  O4  1  0.24030100  0.01588900  0.45983700  1
  O  O5  1  0.45289200  0.72758300  0.95876100  1
  O  O6  1  0.77353800  0.76946700  0.22279600  1
  O  O7  1  0.72641300  0.27458700  0.76814800  1
loop_
_geom_bond_atom_site_label_1
_geom_bond_atom_site_label_2
_geom_bond_distance
_geom_bond_site_symmetry_2
N0 Ti0 1.973618 1_555
N0 Ti14 1.982052 1_556
N0 Ti7 2.045052 1_556
N0 Ti12 2.093993 1_455
N1 Ti0 1.989142 1_554
N1 Ti10 2.017559 1_555
N1 Ti4 2.042539 1_555
N1 Ti2 2.067865 1_555
N2 Ti12 2.017718 1_554
N2 Ti7 2.030698 1_655
N2 Ti3 2.037890 1_544
N2 Ti9 2.047712 1_544
N3 Ti2 1.988582 1_555
N3 Ti9 2.006671 1_555
N3 Ti12 2.046393 1_565
N3 Ti6 2.096831 1_565
N4 Ti1 2.009617 1_555
N4 Ti10 2.031639 1_555
N4 Ti14 2.046202 1_555
N4 Ti11 2.082150 1_555
N5 Ti5 1.989323 1_455
N5 Ti1 2.025728 1_455
N5 Ti2 2.036167 1_555
N5 Ti8 2.072942 1_465
N6 Ti6 1.972667 1_555
N6 Ti11 2.039204 1_555
N6 Ti3 2.049014 1_555
N6 Ti15 2.098659 1_555
N7 Ti11 1.958927 1_555
N7 Ti12 1.998450 1_565
N7 Ti3 2.020351 1_555
N7 Ti5 2.089197 1_555
N8 Ti6 1.968360 1_555
N8 Ti8 1.994488 1_455
N8 Ti14 2.012133 1_556
N8 Ti15 2.110835 1_555
N9 Ti4 2.006620 1_556
N9 Ti9 2.032470 1_555
N9 Ti5 2.040587 1_455
N9 Ti14 2.066327 1_566
N10 Ti4 1.918526 1_545
N10 Ti13 2.043326 1_555
N10 Ti10 2.062537 1_545
N10 Ti9 2.084667 1_544
N11 Ti8 1.952106 1_565
N11 Ti10 1.996292 1_555
N11 Ti13 2.070962 1_565
N11 Ti12 2.088990 1_565
N12 Ti13 2.001901 1_555
N12 Ti15 2.011238 1_655
N12 Ti8 2.015882 1_555
N12 Ti7 2.040502 1_655
N13 Ti2 1.984547 1_555
N13 Ti15 2.029172 1_555
N13 Ti7 2.042213 1_555
N13 Ti11 2.057142 1_555
N14 Ti1 1.936954 1_555
N14 Ti13 2.033788 1_555
N14 Ti11 2.051023 1_555
N14 Ti5 2.072075 1_555
N15 Ti0 1.957692 1_555
N15 Ti15 2.019560 1_555
N15 Ti5 2.057550 1_455
N15 Ti13 2.084713 1_455
O0 Ti3 1.960450 1_554
O0 Ti0 2.089532 1_654
O0 Ti5 2.155161 1_554
O0 Ti4 2.182836 1_655
O1 Ti1 2.049277 1_555
O1 Ti9 2.051624 1_544
O1 Ti6 2.084934 1_554
O1 Ti14 2.127000 1_555
O2 Ti7 2.037303 1_655
O2 Ti1 2.055547 1_555
O2 Ti0 2.119560 1_654
O2 Ti2 2.143987 1_655
O3 Ti4 2.031801 1_545
O3 Ti7 2.045016 1_555
O3 Ti14 2.087281 1_555
O3 Ti11 2.169779 1_555
O4 Ti6 2.005079 1_555
O4 Ti4 2.066462 1_545
O4 Ti2 2.131833 1_545
O4 Ti8 2.161850 1_455
O5 Ti9 2.023584 1_555
O5 Ti3 2.077946 1_555
O5 Ti15 2.099838 1_555
O5 Ti10 2.141995 1_556
O6 Ti3 2.037199 1_554
O6 Ti8 2.080757 1_565
O6 Ti10 2.087795 1_555
O6 Ti1 2.173549 1_555
O7 Ti0 2.074542 1_655
O7 Ti6 2.090313 1_555
O7 Ti12 2.096391 1_555
O7 Ti13 2.097246 1_555
