# generated using pymatgen
data_LiMnOF2
_symmetry_space_group_name_H-M   'P 1'
_cell_length_a   8.95343600
_cell_length_b   5.24271800
_cell_length_c   10.44455511
_cell_angle_alpha   76.68795454
_cell_angle_beta   90.00000000
_cell_angle_gamma   90.00000000
_symmetry_Int_Tables_number   1
_chemical_formula_structural   LiMnOF2
_chemical_formula_sum   'Li8 Mn8 O8 F16'
_cell_volume   477.09762663
_cell_formula_units_Z   8
loop_
 _symmetry_equiv_pos_site_id
 _symmetry_equiv_pos_as_xyz
  1  'x, y, z'
loop_
 _atom_site_type_symbol
 _atom_site_label
 _atom_site_symmetry_multiplicity
 _atom_site_fract_x
 _atom_site_fract_y
 _atom_site_fract_z
 _atom_site_occupancy
  Li  Li0  1  0.41461400  0.25212700  0.94146900  1
  Li  Li1  1  0.58538600  0.75212700  0.94146900  1
  Li  Li2  1  0.58985400  0.14405700  0.57611300  1
  Li  Li3  1  0.41014600  0.64405700  0.57611300  1
  Li  Li4  1  0.08945200  0.32672000  0.45664700  1
  Li  Li5  1  0.91054800  0.82672000  0.45664700  1
  Li  Li6  1  0.90532600  0.26007100  0.03217100  1
  Li  Li7  1  0.09467400  0.76007100  0.03217100  1
  Mn  Mn0  1  0.90690300  0.06681200  0.74527800  1
  Mn  Mn1  1  0.24174900  0.06863800  0.74528400  1
  Mn  Mn2  1  0.09309700  0.56681200  0.74527800  1
  Mn  Mn3  1  0.75825100  0.56863800  0.74528400  1
  Mn  Mn4  1  0.80288000  0.44460200  0.25621400  1
  Mn  Mn5  1  0.41003900  0.45053200  0.25742800  1
  Mn  Mn6  1  0.19712000  0.94460200  0.25621400  1
  Mn  Mn7  1  0.58996100  0.95053200  0.25742800  1
  O  O0  1  0.22824900  0.33460700  0.84311700  1
  O  O1  1  0.91503500  0.35231200  0.83998900  1
  O  O2  1  0.77175100  0.83460700  0.84311700  1
  O  O3  1  0.08496500  0.85231200  0.83998900  1
  O  O4  1  0.76158700  0.29158300  0.65340900  1
  O  O5  1  0.08176900  0.27518800  0.65004600  1
  O  O6  1  0.23841300  0.79158300  0.65340900  1
  O  O7  1  0.91823100  0.77518800  0.65004600  1
  F  F0  1  0.59564900  0.43325500  0.86603100  1
  F  F1  1  0.40435100  0.93325500  0.86603100  1
  F  F2  1  0.39216900  0.26196700  0.62503500  1
  F  F3  1  0.60783100  0.76196700  0.62503500  1
  F  F4  1  0.92397100  0.18353900  0.39184700  1
  F  F5  1  0.58802900  0.23890700  0.37587000  1
  F  F6  1  0.24633200  0.21689700  0.36474300  1
  F  F7  1  0.07602900  0.68353900  0.39184700  1
  F  F8  1  0.41197100  0.73890700  0.37587000  1
  F  F9  1  0.75366800  0.71689700  0.36474300  1
  F  F10  1  0.04759400  0.03504200  0.10991400  1
  F  F11  1  0.40714700  0.17051400  0.13683700  1
  F  F12  1  0.72977700  0.19262900  0.13255800  1
  F  F13  1  0.95240600  0.53504200  0.10991400  1
  F  F14  1  0.59285300  0.67051400  0.13683700  1
  F  F15  1  0.27022300  0.69262900  0.13255800  1
loop_
_geom_bond_atom_site_label_1
_geom_bond_atom_site_label_2
_geom_bond_distance
_geom_bond_site_symmetry_2
Li0 O0 1.954970 1_555
Li1 O2 1.954970 1_555
Li2 O4 1.975282 1_555
Li3 O6 1.975282 1_555
Li4 O5 1.976531 1_555
Li5 O7 1.976531 1_555
Li6 O1 1.955372 1_554
Li7 O3 1.955372 1_554
Mn0 O2 1.848694 1_545
Mn0 O4 1.865864 1_555
Mn0 O1 1.976385 1_555
Mn0 O7 2.009348 1_545
Mn0 O5 2.033143 1_655
Mn0 O3 2.067024 1_645
Mn1 O0 1.912911 1_555
Mn1 O6 1.916612 1_545
Mn1 O5 1.928145 1_555
Mn1 O3 1.928368 1_545
Mn2 O0 1.848694 1_555
Mn2 O6 1.865864 1_555
Mn2 O3 1.976385 1_555
Mn2 O5 2.009348 1_555
Mn2 O7 2.033143 1_455
Mn2 O1 2.067024 1_455
Mn3 O2 1.912911 1_555
Mn3 O4 1.916612 1_555
Mn3 O7 1.928145 1_555
Mn3 O1 1.928368 1_555
F0 Mn3 1.949756 1_555
F0 Li0 1.950710 1_555
F0 Li1 2.007637 1_555
F1 Mn1 1.949756 1_565
F1 Li1 1.950710 1_555
F1 Li0 2.007637 1_565
F2 Li3 1.956631 1_555
F2 Mn1 1.957628 1_555
F2 Li2 1.980262 1_555
F3 Li2 1.956631 1_565
F3 Mn3 1.957628 1_555
F3 Li3 1.980262 1_555
F4 Li5 1.840919 1_545
F4 Li4 1.857613 1_655
F4 Mn4 2.040264 1_555
F5 Li2 2.035379 1_555
F5 Mn5 2.160762 1_555
F5 Mn7 2.162796 1_545
F5 Mn4 2.409281 1_555
F6 Li4 1.865575 1_555
F6 Mn6 2.064507 1_545
F6 Mn5 2.067078 1_555
F7 Li4 1.840919 1_555
F7 Li5 1.857613 1_455
F7 Mn6 2.040264 1_555
F8 Li3 2.035379 1_555
F8 Mn7 2.160762 1_555
F8 Mn5 2.162796 1_555
F8 Mn6 2.409281 1_555
F9 Li5 1.865575 1_555
F9 Mn4 2.064507 1_555
F9 Mn7 2.067078 1_555
F10 Li6 1.797932 1_455
F10 Li7 1.858566 1_545
F10 Mn6 2.004590 1_545
F11 Li0 1.987272 1_554
F11 Mn5 2.143303 1_555
F11 Mn7 2.219621 1_545
F11 Mn6 2.411116 1_545
F12 Li6 1.877257 1_555
F12 Mn7 2.028973 1_545
F12 Mn4 2.151105 1_555
F13 Li7 1.797932 1_655
F13 Li6 1.858566 1_555
F13 Mn4 2.004590 1_555
F14 Li1 1.987272 1_554
F14 Mn7 2.143303 1_555
F14 Mn5 2.219621 1_555
F14 Mn4 2.411116 1_555
F15 Li7 1.877257 1_555
F15 Mn5 2.028973 1_555
F15 Mn6 2.151105 1_555
