# generated using pymatgen
data_K2LiVS4
_symmetry_space_group_name_H-M   'P 1'
_cell_length_a   6.83928016
_cell_length_b   6.83928016
_cell_length_c   18.22339607
_cell_angle_alpha   86.21885365
_cell_angle_beta   86.21885365
_cell_angle_gamma   77.06447710
_symmetry_Int_Tables_number   1
_chemical_formula_structural   K2LiVS4
_chemical_formula_sum   'K8 Li4 V4 S16'
_cell_volume   827.82369940
_cell_formula_units_Z   4
loop_
 _symmetry_equiv_pos_site_id
 _symmetry_equiv_pos_as_xyz
  1  'x, y, z'
loop_
 _atom_site_type_symbol
 _atom_site_label
 _atom_site_symmetry_multiplicity
 _atom_site_fract_x
 _atom_site_fract_y
 _atom_site_fract_z
 _atom_site_occupancy
  K  K0  1  0.84260400  0.89392100  0.92751000  1
  K  K1  1  0.89392100  0.84260400  0.42751000  1
  K  K2  1  0.31888000  0.68119900  0.75005000  1
  K  K3  1  0.49915700  0.46890300  0.50219600  1
  K  K4  1  0.68119900  0.31888000  0.25005000  1
  K  K5  1  0.46890300  0.49915700  0.00219600  1
  K  K6  1  0.10385700  0.15321200  0.57297100  1
  K  K7  1  0.15321200  0.10385700  0.07297100  1
  Li  Li0  1  0.88692800  0.40383600  0.78417000  1
  Li  Li1  1  0.40383600  0.88692800  0.28417000  1
  Li  Li2  1  0.59634800  0.11247200  0.71607400  1
  Li  Li3  1  0.11247200  0.59634800  0.21607400  1
  V  V0  1  0.80981200  0.69980000  0.64495500  1
  V  V1  1  0.69980000  0.80981200  0.14495500  1
  V  V2  1  0.30056400  0.19057300  0.85488900  1
  V  V3  1  0.19057300  0.30056400  0.35488900  1
  S  S0  1  0.82536800  0.78414700  0.75654900  1
  S  S1  1  0.59722400  0.93148000  0.59006000  1
  S  S2  1  0.78414700  0.82536800  0.25654900  1
  S  S3  1  0.93148000  0.59722400  0.09006000  1
  S  S4  1  0.33571500  0.90152800  0.91306600  1
  S  S5  1  0.90152800  0.33571500  0.41306600  1
  S  S6  1  0.71241300  0.41636900  0.65395700  1
  S  S7  1  0.41636900  0.71241300  0.15395700  1
  S  S8  1  0.58295000  0.28961500  0.84742900  1
  S  S9  1  0.28961500  0.58295000  0.34742900  1
  S  S10  1  0.09892800  0.66438400  0.58692400  1
  S  S11  1  0.66438400  0.09892800  0.08692400  1
  S  S12  1  0.06919000  0.40275900  0.90992400  1
  S  S13  1  0.21675100  0.17521200  0.74311700  1
  S  S14  1  0.40275900  0.06919000  0.40992400  1
  S  S15  1  0.17521200  0.21675100  0.24311700  1
loop_
_geom_bond_atom_site_label_1
_geom_bond_atom_site_label_2
_geom_bond_distance
_geom_bond_site_symmetry_2
K0 S8 3.205691 1_565
K0 S0 3.268088 1_555
K0 S11 3.346049 1_566
K0 S4 3.377215 1_655
K0 S12 3.396214 1_655
K0 S4 3.482554 1_555
K0 S3 3.486300 1_556
K1 S9 3.205691 1_655
K1 S2 3.268088 1_555
K1 S10 3.346049 1_655
K1 S5 3.377215 1_565
K1 S14 3.396214 1_565
K1 S5 3.482554 1_555
K1 S1 3.486300 1_555
K2 S0 3.285802 1_455
K2 S13 3.289099 1_565
K2 S6 3.347437 1_555
K2 S8 3.348702 1_555
K2 S4 3.438353 1_555
K2 S10 3.438827 1_555
K3 S5 3.086158 1_555
K3 S10 3.120986 1_555
K3 S6 3.173523 1_555
K3 S9 3.218579 1_555
K3 S14 3.506415 1_555
K4 S2 3.285802 1_545
K4 S15 3.289099 1_655
K4 S7 3.347437 1_555
K4 S9 3.348702 1_555
K4 S5 3.438353 1_555
K4 S11 3.438827 1_555
K5 S4 3.086158 1_554
K5 S11 3.120986 1_555
K5 S7 3.173523 1_555
K5 S8 3.218579 1_554
K5 S12 3.506415 1_554
K6 S6 3.202614 1_455
K6 S13 3.265280 1_555
K6 S10 3.343680 1_545
K6 S5 3.353077 1_455
K6 S1 3.401148 1_545
K6 S14 3.497980 1_555
K6 S10 3.514469 1_555
K7 S7 3.202614 1_545
K7 S15 3.265280 1_555
K7 S11 3.343680 1_455
K7 S4 3.353077 1_544
K7 S3 3.401148 1_455
K7 S12 3.497980 1_554
K7 S11 3.514469 1_555
Li0 S13 2.538818 1_655
Li0 S8 2.560008 1_555
Li0 S0 2.561461 1_555
Li0 S12 2.678820 1_655
Li0 S6 2.713596 1_555
Li1 S15 2.538818 1_565
Li1 S9 2.560008 1_555
Li1 S2 2.561461 1_555
Li1 S14 2.678820 1_565
Li1 S7 2.713596 1_555
Li2 S0 2.529621 1_545
Li2 S13 2.554894 1_555
Li2 S6 2.557585 1_555
Li2 S1 2.678725 1_545
Li2 S8 2.740443 1_555
Li3 S2 2.529621 1_455
Li3 S15 2.554894 1_555
Li3 S7 2.557585 1_555
Li3 S3 2.678725 1_455
Li3 S9 2.740443 1_555
S0 V0 2.165747 1_555
S1 V0 2.139337 1_555
S2 V1 2.165747 1_555
S3 V1 2.139337 1_555
S4 V2 2.152714 1_565
S5 V3 2.152714 1_655
S6 V0 2.179464 1_555
S7 V1 2.179464 1_555
S8 V2 2.178586 1_555
S9 V3 2.178586 1_555
S10 V0 2.151854 1_455
S11 V1 2.151854 1_545
S12 V2 2.137859 1_555
S13 V2 2.167399 1_555
S14 V3 2.137859 1_555
S15 V3 2.167399 1_555
