# generated using pymatgen
data_Li2MnNb3O8
_symmetry_space_group_name_H-M   'P 1'
_cell_length_a   6.23950609
_cell_length_b   6.23950185
_cell_length_c   6.23951384
_cell_angle_alpha   59.07064653
_cell_angle_beta   59.07067106
_cell_angle_gamma   59.07065047
_symmetry_Int_Tables_number   1
_chemical_formula_structural   Li2MnNb3O8
_chemical_formula_sum   'Li2 Mn1 Nb3 O8'
_cell_volume   168.12576769
_cell_formula_units_Z   1
loop_
 _symmetry_equiv_pos_site_id
 _symmetry_equiv_pos_as_xyz
  1  'x, y, z'
loop_
 _atom_site_type_symbol
 _atom_site_label
 _atom_site_symmetry_multiplicity
 _atom_site_fract_x
 _atom_site_fract_y
 _atom_site_fract_z
 _atom_site_occupancy
  Li  Li0  1  0.11884300  0.11884300  0.11884300  1
  Li  Li1  1  0.50416600  0.50416600  0.50416600  1
  Mn  Mn0  1  0.87492000  0.87492300  0.87491900  1
  Nb  Nb0  1  0.02152700  0.48927000  0.48927000  1
  Nb  Nb1  1  0.48927100  0.02152700  0.48926900  1
  Nb  Nb2  1  0.48926900  0.48926900  0.02152800  1
  O  O0  1  0.24704700  0.24704800  0.24704800  1
  O  O1  1  0.25417400  0.25417400  0.72386100  1
  O  O2  1  0.25417300  0.72386100  0.25417400  1
  O  O3  1  0.72386200  0.25417300  0.25417400  1
  O  O4  1  0.28737900  0.74824300  0.74824300  1
  O  O5  1  0.74824400  0.28738000  0.74824200  1
  O  O6  1  0.74824300  0.74824200  0.28738000  1
  O  O7  1  0.73888100  0.73888000  0.73888100  1
loop_
_geom_bond_atom_site_label_1
_geom_bond_atom_site_label_2
_geom_bond_distance
_geom_bond_site_symmetry_2
Li0 O0 1.973080 1_555
Li0 O3 1.988533 1_455
Li0 O2 1.988536 1_545
Li0 O1 1.988541 1_554
Li1 O6 2.148766 1_555
Li1 O4 2.148772 1_555
Li1 O5 2.148772 1_555
Li1 O1 2.202342 1_555
Li1 O3 2.202347 1_555
Li1 O2 2.202348 1_555
Mn0 O5 2.081518 1_565
Mn0 O4 2.081530 1_655
Mn0 O6 2.081542 1_556
Mn0 O7 2.093666 1_555
Nb0 O2 2.046833 1_555
Nb0 O1 2.046839 1_555
Nb0 O5 2.094915 1_455
Nb0 O6 2.094920 1_455
Nb0 O0 2.127001 1_555
Nb0 O7 2.192713 1_455
Nb1 O3 2.046833 1_555
Nb1 O1 2.046843 1_555
Nb1 O6 2.094921 1_545
Nb1 O4 2.094927 1_545
Nb1 O0 2.127006 1_555
Nb1 O7 2.192718 1_545
Nb2 O2 2.046839 1_555
Nb2 O3 2.046843 1_555
Nb2 O4 2.094926 1_554
Nb2 O5 2.094927 1_554
Nb2 O0 2.126995 1_555
Nb2 O7 2.192721 1_554
