# generated using pymatgen
data_LiMnSnO4
_symmetry_space_group_name_H-M   'P 1'
_cell_length_a   5.91324600
_cell_length_b   6.22951708
_cell_length_c   6.27549612
_cell_angle_alpha   119.75787644
_cell_angle_beta   118.10847373
_cell_angle_gamma   89.99982524
_symmetry_Int_Tables_number   1
_chemical_formula_structural   LiMnSnO4
_chemical_formula_sum   'Li2 Mn2 Sn2 O8'
_cell_volume   168.55915669
_cell_formula_units_Z   2
loop_
 _symmetry_equiv_pos_site_id
 _symmetry_equiv_pos_as_xyz
  1  'x, y, z'
loop_
 _atom_site_type_symbol
 _atom_site_label
 _atom_site_symmetry_multiplicity
 _atom_site_fract_x
 _atom_site_fract_y
 _atom_site_fract_z
 _atom_site_occupancy
  Li  Li0  1  0.36945900  0.11945900  0.23892000  1
  Li  Li1  1  0.63054200  0.88054000  0.76108000  1
  Mn  Mn0  1  0.49998700  0.50000200  0.00000900  1
  Mn  Mn1  1  0.99999900  0.49999600  0.99998800  1
  Sn  Sn0  1  0.00000400  0.00000100  0.50000000  1
  Sn  Sn1  1  0.00000300  0.49999900  0.50000200  1
  O  O0  1  0.76657800  0.25057300  0.50114300  1
  O  O1  1  0.23457300  0.25057700  0.50115400  1
  O  O2  1  0.76542900  0.74942400  0.49884800  1
  O  O3  1  0.23342300  0.74942700  0.49885700  1
  O  O4  1  0.23381500  0.27093600  0.96763100  1
  O  O5  1  0.23381800  0.69669400  0.96763200  1
  O  O6  1  0.76618500  0.72906300  0.03236800  1
  O  O7  1  0.76618500  0.30330700  0.03236800  1
loop_
_geom_bond_atom_site_label_1
_geom_bond_atom_site_label_2
_geom_bond_distance
_geom_bond_site_symmetry_2
Li0 O0 1.978372 1_555
Li0 O1 1.978390 1_555
Li0 O4 2.177200 1_554
Li0 O5 2.177201 1_544
Li1 O3 1.978372 1_555
Li1 O2 1.978384 1_555
Li1 O6 2.177194 1_556
Li1 O7 2.177211 1_566
Mn0 O5 1.991395 1_554
Mn0 O4 1.991398 1_554
Mn0 O7 1.991530 1_555
Mn0 O6 1.991566 1_555
Mn0 O2 2.284579 1_555
Mn0 O1 2.284643 1_554
Mn1 O5 1.991448 1_655
Mn1 O4 1.991455 1_655
Mn1 O6 1.991486 1_556
Mn1 O7 1.991500 1_556
Mn1 O0 2.284602 1_555
Mn1 O3 2.284714 1_656
O0 Sn1 2.083256 1_655
O0 Sn0 2.083276 1_655
O1 Sn1 2.083250 1_555
O1 Sn0 2.083254 1_555
O2 Sn1 2.083281 1_655
O2 Sn0 2.083290 1_665
O3 Sn0 2.083258 1_565
O3 Sn1 2.083262 1_555
O4 Sn0 2.152269 1_555
O5 Sn1 2.152264 1_555
O6 Sn0 2.152275 1_665
O7 Sn1 2.152285 1_655
