# generated using pymatgen
data_Li4TiCo3O8
_symmetry_space_group_name_H-M   'P 1'
_cell_length_a   5.93884092
_cell_length_b   5.89837731
_cell_length_c   10.33521957
_cell_angle_alpha   107.32785575
_cell_angle_beta   73.01189036
_cell_angle_gamma   120.51268384
_symmetry_Int_Tables_number   1
_chemical_formula_structural   Li4TiCo3O8
_chemical_formula_sum   'Li8 Ti2 Co6 O16'
_cell_volume   293.34083554
_cell_formula_units_Z   2
loop_
 _symmetry_equiv_pos_site_id
 _symmetry_equiv_pos_as_xyz
  1  'x, y, z'
loop_
 _atom_site_type_symbol
 _atom_site_label
 _atom_site_symmetry_multiplicity
 _atom_site_fract_x
 _atom_site_fract_y
 _atom_site_fract_z
 _atom_site_occupancy
  Li  Li0  1  0.25011500  0.74632800  0.24907800  1
  Li  Li1  1  0.74988600  0.25367300  0.75092100  1
  Li  Li2  1  0.75207500  0.24979800  0.24854600  1
  Li  Li3  1  0.24792400  0.75020200  0.75145400  1
  Li  Li4  1  0.75020300  0.74706700  0.74829900  1
  Li  Li5  1  0.24979600  0.25293300  0.25170100  1
  Li  Li6  1  0.25202600  0.25419100  0.75140000  1
  Li  Li7  1  0.74797400  0.74580800  0.24860000  1
  Ti  Ti0  1  0.50000000  0.50000000  0.50000000  1
  Ti  Ti1  1  0.00000100  0.00000000  0.00000000  1
  Co  Co0  1  0.00000100  0.00000100  0.50000000  1
  Co  Co1  1  0.00000000  0.50000000  0.00000000  1
  Co  Co2  1  0.50000000  0.00000100  0.50000000  1
  Co  Co3  1  0.50000000  0.50000000  0.00000000  1
  Co  Co4  1  0.00000000  0.50000000  0.50000000  1
  Co  Co5  1  0.50000000  0.00000000  0.00000000  1
  O  O0  1  0.35682500  0.63948300  0.89302300  1
  O  O1  1  0.86119400  0.14281300  0.39221800  1
  O  O2  1  0.13880700  0.85718700  0.60778200  1
  O  O3  1  0.64317500  0.36051700  0.10697700  1
  O  O4  1  0.88509700  0.13791600  0.88615400  1
  O  O5  1  0.38150000  0.61947500  0.38225700  1
  O  O6  1  0.61850100  0.38052400  0.61774300  1
  O  O7  1  0.11490300  0.86208400  0.11384500  1
  O  O8  1  0.85748600  0.61621800  0.38412800  1
  O  O9  1  0.35696200  0.11697000  0.88362300  1
  O  O10  1  0.38196200  0.13689200  0.38311300  1
  O  O11  1  0.87864900  0.64553400  0.88125300  1
  O  O12  1  0.64303700  0.88303000  0.11637700  1
  O  O13  1  0.14251500  0.38378200  0.61587100  1
  O  O14  1  0.12135100  0.35446600  0.11874700  1
  O  O15  1  0.61803800  0.86310800  0.61688700  1
loop_
_geom_bond_atom_site_label_1
_geom_bond_atom_site_label_2
_geom_bond_distance
_geom_bond_site_symmetry_2
Li0 O14 2.166571 1_555
Li0 O10 2.177219 1_565
Li0 O7 2.201243 1_555
Li0 O12 2.203258 1_555
Li0 O8 2.212094 1_455
Li0 O5 2.212952 1_555
Li1 O11 2.166571 1_555
Li1 O15 2.177219 1_545
Li1 O4 2.201243 1_555
Li1 O9 2.203271 1_555
Li1 O13 2.212094 1_655
Li1 O6 2.212935 1_555
Li2 O12 2.073489 1_545
Li2 O8 2.088360 1_555
Li2 O14 2.095151 1_655
Li2 O10 2.118514 1_555
Li2 O3 2.129927 1_555
Li2 O1 2.135124 1_555
Li3 O9 2.073489 1_565
Li3 O13 2.088365 1_555
Li3 O11 2.095147 1_455
Li3 O15 2.118518 1_555
Li3 O0 2.129931 1_555
Li3 O2 2.135116 1_555
Li4 O6 2.066041 1_555
Li4 O11 2.096506 1_555
Li4 O15 2.156712 1_555
Li4 O4 2.195784 1_565
Li4 O2 2.222247 1_655
Li4 O0 2.261832 1_555
Li5 O5 2.066038 1_555
Li5 O14 2.096502 1_555
Li5 O10 2.156716 1_555
Li5 O7 2.195788 1_545
Li5 O1 2.222238 1_455
Li5 O3 2.261837 1_555
Li6 O6 2.099954 1_555
Li6 O4 2.106311 1_455
Li6 O9 2.140012 1_555
Li6 O13 2.155039 1_555
Li6 O0 2.192957 1_555
Li6 O2 2.247814 1_545
Li7 O5 2.099950 1_555
Li7 O7 2.106316 1_655
Li7 O12 2.140020 1_555
Li7 O8 2.155031 1_555
Li7 O3 2.192953 1_555
Li7 O1 2.247818 1_565
Co0 O13 2.075253 1_555
Co0 O8 2.075266 1_445
Co0 O10 2.092087 1_555
Co0 O15 2.092095 1_445
Co0 O1 2.104922 1_455
Co0 O2 2.104927 1_545
Co1 O3 1.947389 1_455
Co1 O0 1.947389 1_554
Co1 O7 1.975780 1_555
Co1 O4 1.975784 1_454
Co1 O14 2.129571 1_555
Co1 O11 2.129571 1_454
Co2 O2 1.969665 1_545
Co2 O1 1.969669 1_555
Co2 O10 2.062382 1_555
Co2 O15 2.062391 1_545
Co2 O6 2.069600 1_555
Co2 O5 2.069613 1_545
Co3 O12 2.074135 1_555
Co3 O9 2.074135 1_554
Co3 O14 2.086761 1_555
Co3 O11 2.086761 1_554
Co3 O0 2.103297 1_554
Co3 O3 2.103297 1_555
Co4 O1 1.932392 1_455
Co4 O2 1.932392 1_555
Co4 O13 2.071431 1_555
Co4 O8 2.071435 1_455
Co4 O6 2.095020 1_455
Co4 O5 2.095024 1_555
Co5 O0 1.944239 1_544
Co5 O3 1.944239 1_555
Co5 O12 2.081058 1_545
Co5 O9 2.081062 1_554
Co5 O7 2.094079 1_545
Co5 O4 2.094083 1_554
O4 Ti1 2.028522 1_656
O5 Ti0 1.996897 1_555
O6 Ti0 1.996905 1_555
O7 Ti1 2.028505 1_565
O8 Ti0 1.984158 1_555
O9 Ti1 1.983918 1_556
O10 Ti0 1.991715 1_555
O11 Ti1 1.963468 1_666
O12 Ti1 1.983931 1_665
O13 Ti0 1.984150 1_555
O14 Ti1 1.963468 1_555
O15 Ti0 1.991715 1_555
