# generated using pymatgen
data_Cd3GeO6
_symmetry_space_group_name_H-M   'P 1'
_cell_length_a   5.14977700
_cell_length_b   5.85784800
_cell_length_c   9.76169500
_cell_angle_alpha   90.00000000
_cell_angle_beta   90.00000000
_cell_angle_gamma   90.00000000
_symmetry_Int_Tables_number   1
_chemical_formula_structural   Cd3GeO6
_chemical_formula_sum   'Cd6 Ge2 O12'
_cell_volume   294.47725479
_cell_formula_units_Z   2
loop_
 _symmetry_equiv_pos_site_id
 _symmetry_equiv_pos_as_xyz
  1  'x, y, z'
loop_
 _atom_site_type_symbol
 _atom_site_label
 _atom_site_symmetry_multiplicity
 _atom_site_fract_x
 _atom_site_fract_y
 _atom_site_fract_z
 _atom_site_occupancy
  Cd  Cd0  1  0.76224800  0.97888700  0.00000000  1
  Cd  Cd1  1  0.23775200  0.47888700  0.50000000  1
  Cd  Cd2  1  0.75764400  0.49135300  0.19647700  1
  Cd  Cd3  1  0.75764400  0.49135300  0.80352300  1
  Cd  Cd4  1  0.24235600  0.99135300  0.30352300  1
  Cd  Cd5  1  0.24235600  0.99135300  0.69647700  1
  Ge  Ge0  1  0.67907200  0.84276000  0.50000000  1
  Ge  Ge1  1  0.32092800  0.34276000  0.00000000  1
  O  O0  1  0.48367500  0.61297200  0.00000000  1
  O  O1  1  0.51632500  0.11297200  0.50000000  1
  O  O2  1  0.99330800  0.80095200  0.15874500  1
  O  O3  1  0.99330800  0.80095200  0.84125500  1
  O  O4  1  0.00669200  0.30095200  0.34125500  1
  O  O5  1  0.00669200  0.30095200  0.65874500  1
  O  O6  1  0.01707700  0.82729500  0.50000000  1
  O  O7  1  0.98292300  0.32729500  0.00000000  1
  O  O8  1  0.52503600  0.69473800  0.35818700  1
  O  O9  1  0.52503600  0.69473800  0.64181300  1
  O  O10  1  0.47496400  0.19473800  0.14181300  1
  O  O11  1  0.47496400  0.19473800  0.85818700  1
loop_
_geom_bond_atom_site_label_1
_geom_bond_atom_site_label_2
_geom_bond_distance
_geom_bond_site_symmetry_2
Cd0 O2 2.214413 1_555
Cd0 O3 2.214413 1_554
Cd0 O7 2.335985 1_565
Cd0 O10 2.388287 1_565
Cd0 O11 2.388287 1_564
Cd0 O0 2.579249 1_555
Cd1 O4 2.214413 1_555
Cd1 O5 2.214413 1_555
Cd1 O6 2.335985 1_555
Cd1 O8 2.388287 1_555
Cd1 O9 2.388287 1_555
Cd1 O1 2.579249 1_555
Cd2 O4 2.210487 1_655
Cd2 O2 2.213056 1_555
Cd2 O8 2.312187 1_555
Cd2 O10 2.328715 1_555
Cd2 O7 2.438856 1_555
Cd2 O0 2.485288 1_555
Cd3 O5 2.210487 1_655
Cd3 O3 2.213056 1_555
Cd3 O9 2.312187 1_555
Cd3 O11 2.328715 1_555
Cd3 O7 2.438856 1_556
Cd3 O0 2.485288 1_556
Cd4 O2 2.210487 1_455
Cd4 O4 2.213056 1_565
Cd4 O10 2.312187 1_565
Cd4 O8 2.328715 1_555
Cd4 O6 2.438856 1_555
Cd4 O1 2.485288 1_565
Cd5 O3 2.210487 1_455
Cd5 O5 2.213056 1_565
Cd5 O11 2.312187 1_565
Cd5 O9 2.328715 1_555
Cd5 O6 2.438856 1_555
Cd5 O1 2.485288 1_565
Ge0 O6 1.743006 1_655
Ge0 O1 1.791055 1_565
Ge0 O9 1.815896 1_555
Ge0 O8 1.815896 1_555
Ge1 O7 1.743006 1_455
Ge1 O0 1.791055 1_555
Ge1 O10 1.815896 1_555
Ge1 O11 1.815896 1_554
