# generated using pymatgen
data_Na7(WO3)8
_symmetry_space_group_name_H-M   'P 1'
_cell_length_a   8.80574401
_cell_length_b   8.80574401
_cell_length_c   8.80653884
_cell_angle_alpha   66.43893169
_cell_angle_beta   66.43893169
_cell_angle_gamma   53.18434208
_symmetry_Int_Tables_number   1
_chemical_formula_structural   Na7(WO3)8
_chemical_formula_sum   'Na7 W8 O24'
_cell_volume   489.02264961
_cell_formula_units_Z   1
loop_
 _symmetry_equiv_pos_site_id
 _symmetry_equiv_pos_as_xyz
  1  'x, y, z'
loop_
 _atom_site_type_symbol
 _atom_site_label
 _atom_site_symmetry_multiplicity
 _atom_site_fract_x
 _atom_site_fract_y
 _atom_site_fract_z
 _atom_site_occupancy
  Na  Na0  1  0.50000000  0.50000000  0.00000000  1
  Na  Na1  1  0.75040300  0.75040300  0.99998600  1
  Na  Na2  1  0.62495100  0.62495100  0.49987100  1
  Na  Na3  1  0.87509800  0.87509800  0.49931200  1
  Na  Na4  1  0.12490200  0.12490200  0.50068800  1
  Na  Na5  1  0.37504900  0.37504900  0.50012900  1
  Na  Na6  1  0.24959700  0.24959700  0.00001400  1
  W  W0  1  0.81344600  0.31098800  0.24877500  1
  W  W1  1  0.93780600  0.43539200  0.75122600  1
  W  W2  1  0.31098800  0.81344600  0.24877500  1
  W  W3  1  0.56460800  0.06219400  0.24877400  1
  W  W4  1  0.43539200  0.93780600  0.75122600  1
  W  W5  1  0.68901200  0.18655400  0.75122500  1
  W  W6  1  0.18655400  0.68901200  0.75122500  1
  W  W7  1  0.06219400  0.56460800  0.24877400  1
  O  O0  1  0.75041400  0.24958600  0.50000000  1
  O  O1  1  0.87407500  0.37809000  0.99999700  1
  O  O2  1  0.93755600  0.43759300  0.24970300  1
  O  O3  1  0.81090800  0.31508900  0.74798700  1
  O  O4  1  0.00000000  0.50000000  0.50000000  1
  O  O5  1  0.56241400  0.56241400  0.24972100  1
  O  O6  1  0.81088000  0.81088000  0.25218200  1
  O  O7  1  0.68728000  0.68728000  0.75028700  1
  O  O8  1  0.93695300  0.93695300  0.74786500  1
  O  O9  1  0.24958600  0.75041400  0.50000000  1
  O  O10  1  0.37809000  0.87407500  0.99999700  1
  O  O11  1  0.43759300  0.93755600  0.24970300  1
  O  O12  1  0.50000000  0.00000000  0.50000000  1
  O  O13  1  0.68491100  0.18909200  0.25201300  1
  O  O14  1  0.31508900  0.81090800  0.74798700  1
  O  O15  1  0.62191000  0.12592500  0.00000300  1
  O  O16  1  0.56240700  0.06244400  0.75029700  1
  O  O17  1  0.31272000  0.31272000  0.24971300  1
  O  O18  1  0.06304700  0.06304700  0.25213500  1
  O  O19  1  0.43758600  0.43758600  0.75027900  1
  O  O20  1  0.18912000  0.18912000  0.74781800  1
  O  O21  1  0.06244400  0.56240700  0.75029700  1
  O  O22  1  0.18909200  0.68491100  0.25201300  1
  O  O23  1  0.12592500  0.62191000  0.00000300  1
loop_
_geom_bond_atom_site_label_1
_geom_bond_atom_site_label_2
_geom_bond_distance
_geom_bond_site_symmetry_2
Na0 O5 2.781200 1_555
Na0 O19 2.781200 1_554
Na0 O17 2.781407 1_555
Na0 O7 2.781407 1_554
Na0 O22 2.785865 1_555
Na0 O3 2.785865 1_554
Na0 O13 2.785865 1_555
Na0 O14 2.785865 1_554
Na0 O10 2.786548 1_554
Na0 O1 2.786548 1_554
Na0 O23 2.786548 1_555
Na0 O15 2.786548 1_555
Na1 O10 2.766821 1_555
Na1 O1 2.766821 1_555
Na1 O8 2.780138 1_555
Na1 O15 2.780460 1_566
Na1 O23 2.780460 1_656
Na1 O6 2.780461 1_556
Na1 O11 2.784549 1_556
Na1 O2 2.784549 1_556
Na1 O21 2.784599 1_655
Na1 O16 2.784599 1_565
Na1 O7 2.788921 1_555
Na1 O5 2.789373 1_556
Na2 O6 2.760722 1_555
Na2 O14 2.764072 1_555
Na2 O3 2.764072 1_555
Na2 O19 2.784295 1_555
Na2 O7 2.786062 1_555
Na2 O5 2.786154 1_555
Na2 O12 2.786514 1_565
Na2 O4 2.786514 1_655
Na2 O9 2.787017 1_555
Na2 O0 2.787017 1_555
Na2 O2 2.787053 1_555
Na2 O11 2.787053 1_555
Na3 O8 2.765220 1_555
Na3 O6 2.779770 1_555
Na3 O18 2.781931 1_665
Na3 O13 2.782967 1_565
Na3 O22 2.782967 1_655
Na3 O9 2.784131 1_655
Na3 O0 2.784131 1_565
Na3 O12 2.784792 1_565
Na3 O4 2.784792 1_655
Na3 O7 2.790919 1_555
Na3 O16 2.791814 1_565
Na3 O21 2.791814 1_655
Na4 O18 2.765220 1_555
Na4 O20 2.779770 1_555
Na4 O8 2.781931 1_445
Na4 O14 2.782967 1_545
Na4 O3 2.782967 1_455
Na4 O9 2.784131 1_545
Na4 O0 2.784131 1_455
Na4 O12 2.784792 1_555
Na4 O4 2.784792 1_555
Na4 O17 2.790919 1_555
Na4 O2 2.791814 1_455
Na4 O11 2.791814 1_545
Na5 O20 2.760722 1_555
Na5 O13 2.764072 1_555
Na5 O22 2.764072 1_555
Na5 O5 2.784295 1_555
Na5 O17 2.786062 1_555
Na5 O19 2.786154 1_555
Na5 O4 2.786514 1_555
Na5 O12 2.786514 1_555
Na5 O9 2.787017 1_555
Na5 O0 2.787017 1_555
Na5 O21 2.787053 1_555
Na5 O16 2.787053 1_555
Na6 O23 2.766821 1_555
Na6 O15 2.766821 1_555
Na6 O18 2.780138 1_555
Na6 O10 2.780460 1_544
Na6 O1 2.780460 1_454
Na6 O20 2.780461 1_554
Na6 O16 2.784549 1_554
Na6 O21 2.784549 1_554
Na6 O11 2.784599 1_545
Na6 O2 2.784599 1_455
Na6 O17 2.788921 1_555
Na6 O19 2.789373 1_554
O0 W5 1.979104 1_555
O0 W0 1.979104 1_555
O1 W1 1.960081 1_555
O1 W0 1.960140 1_556
O2 W0 1.977879 1_555
O2 W7 1.977953 1_655
O3 W5 1.959546 1_555
O3 W1 1.959607 1_555
O4 W1 1.979126 1_455
O4 W7 1.979126 1_555
O5 W2 1.980603 1_555
O5 W0 1.980603 1_555
O6 W3 1.961732 1_565
O6 W7 1.961732 1_655
O7 W4 1.980430 1_555
O7 W1 1.980430 1_555
O8 W6 1.961554 1_655
O8 W5 1.961554 1_565
O9 W6 1.979104 1_555
O9 W2 1.979104 1_555
O10 W4 1.960081 1_555
O10 W2 1.960140 1_556
O11 W2 1.977879 1_555
O11 W3 1.977953 1_565
O12 W4 1.979126 1_545
O12 W3 1.979126 1_555
O13 W0 1.959546 1_555
O13 W3 1.959607 1_555
O14 W6 1.959546 1_555
O14 W4 1.959607 1_555
O15 W3 1.960081 1_555
O15 W5 1.960140 1_554
O16 W5 1.977879 1_555
O16 W4 1.977953 1_545
O17 W7 1.980430 1_555
O17 W3 1.980430 1_555
O18 W0 1.961554 1_455
O18 W2 1.961554 1_545
O19 W5 1.980603 1_555
O19 W6 1.980603 1_555
O20 W4 1.961732 1_545
O20 W1 1.961732 1_455
O21 W6 1.977879 1_555
O21 W1 1.977953 1_455
O22 W2 1.959546 1_555
O22 W7 1.959607 1_555
O23 W7 1.960081 1_555
O23 W6 1.960140 1_554
