# generated using pymatgen
data_Li4Ti3Mn3Nb2O16
_symmetry_space_group_name_H-M   'P 1'
_cell_length_a   6.14073602
_cell_length_b   6.14073602
_cell_length_c   9.92688083
_cell_angle_alpha   89.05382084
_cell_angle_beta   89.05382084
_cell_angle_gamma   59.05487178
_symmetry_Int_Tables_number   1
_chemical_formula_structural   Li4Ti3Mn3Nb2O16
_chemical_formula_sum   'Li4 Ti3 Mn3 Nb2 O16'
_cell_volume   320.98938861
_cell_formula_units_Z   1
loop_
 _symmetry_equiv_pos_site_id
 _symmetry_equiv_pos_as_xyz
  1  'x, y, z'
loop_
 _atom_site_type_symbol
 _atom_site_label
 _atom_site_symmetry_multiplicity
 _atom_site_fract_x
 _atom_site_fract_y
 _atom_site_fract_z
 _atom_site_occupancy
  Li  Li0  1  0.66145900  0.66145900  0.09394600  1
  Li  Li1  1  0.00254000  0.00254000  0.01357000  1
  Li  Li2  1  0.00742700  0.00742700  0.50732600  1
  Li  Li3  1  0.32726000  0.32726000  0.59241900  1
  Ti  Ti0  1  0.17801300  0.17801300  0.26425200  1
  Ti  Ti1  1  0.34500500  0.84300400  0.78031000  1
  Ti  Ti2  1  0.84300400  0.34500500  0.78031000  1
  Mn  Mn0  1  0.83306200  0.83306200  0.78972900  1
  Mn  Mn1  1  0.16832900  0.66247500  0.29437700  1
  Mn  Mn2  1  0.66247500  0.16832900  0.29437700  1
  Nb  Nb0  1  0.66566900  0.66566900  0.50252500  1
  Nb  Nb1  1  0.35013600  0.35013600  0.01109900  1
  O  O0  1  0.34651000  0.83594300  0.41175300  1
  O  O1  1  0.52022600  0.52022600  0.66654400  1
  O  O2  1  0.64999100  0.64999100  0.89099900  1
  O  O3  1  0.01042300  0.01042300  0.69487500  1
  O  O4  1  0.01172900  0.01172900  0.20050500  1
  O  O5  1  0.83594300  0.34651000  0.41175300  1
  O  O6  1  0.49803400  0.96019500  0.66161100  1
  O  O7  1  0.96019500  0.49803400  0.66161100  1
  O  O8  1  0.16310000  0.16310000  0.89410600  1
  O  O9  1  0.83164800  0.83164800  0.42838800  1
  O  O10  1  0.03232100  0.46393600  0.14810300  1
  O  O11  1  0.46393600  0.03232100  0.14810300  1
  O  O12  1  0.31227400  0.31227400  0.39103800  1
  O  O13  1  0.17632800  0.66567800  0.90811400  1
  O  O14  1  0.47715200  0.47715200  0.14236800  1
  O  O15  1  0.66567800  0.17632800  0.90811400  1
loop_
_geom_bond_atom_site_label_1
_geom_bond_atom_site_label_2
_geom_bond_distance
_geom_bond_site_symmetry_2
Li0 O14 2.018495 1_555
Li0 O2 2.020675 1_554
Li0 O10 2.030933 1_655
Li0 O11 2.030933 1_565
Li1 O4 1.860138 1_555
Li1 O8 2.067150 1_554
Li1 O15 2.068356 1_454
Li1 O13 2.068356 1_544
Li2 O3 1.862659 1_555
Li2 O0 2.014296 1_545
Li2 O5 2.014296 1_455
Li2 O9 2.049008 1_445
Li3 O12 2.008517 1_555
Li3 O6 2.047905 1_545
Li3 O7 2.047905 1_455
Li3 O1 2.202568 1_555
Mn0 O3 2.100286 1_665
Mn0 O13 2.166685 1_655
Mn0 O15 2.166685 1_565
Mn0 O2 2.182503 1_555
Mn0 O6 2.204851 1_555
Mn0 O7 2.204851 1_555
Mn1 O4 2.057981 1_565
Mn1 O12 2.081249 1_555
Mn1 O9 2.206652 1_455
Mn1 O14 2.216107 1_555
Mn1 O0 2.229639 1_555
Mn1 O10 2.331969 1_555
Mn2 O4 2.057981 1_655
Mn2 O12 2.081249 1_555
Mn2 O9 2.206652 1_545
Mn2 O14 2.216107 1_555
Mn2 O5 2.229639 1_555
Mn2 O11 2.331969 1_555
Nb0 O9 1.907386 1_555
Nb0 O5 1.914686 1_555
Nb0 O0 1.914686 1_555
Nb0 O6 2.224996 1_555
Nb0 O7 2.224996 1_555
Nb0 O1 2.229503 1_555
Nb1 O14 1.899355 1_555
Nb1 O15 1.944876 1_554
Nb1 O13 1.944876 1_554
Nb1 O10 2.165166 1_555
Nb1 O11 2.165166 1_555
Nb1 O8 2.330629 1_554
O0 Ti0 2.310871 1_565
O1 Ti2 2.049953 1_555
O1 Ti1 2.049953 1_555
O2 Ti2 1.965132 1_555
O2 Ti1 1.965132 1_555
O3 Ti2 1.963147 1_455
O3 Ti1 1.963147 1_545
O4 Ti0 1.897564 1_555
O5 Ti0 2.310871 1_655
O6 Ti1 1.849394 1_555
O7 Ti2 1.849394 1_555
O8 Ti1 2.039875 1_545
O8 Ti2 2.039875 1_455
O10 Ti0 1.887934 1_555
O11 Ti0 1.887934 1_555
O12 Ti0 1.926428 1_555
O13 Ti1 2.222418 1_555
O15 Ti2 2.222418 1_555
