# generated using pymatgen
data_Mn5FeO12
_symmetry_space_group_name_H-M   'P 1'
_cell_length_a   5.09481889
_cell_length_b   5.09481889
_cell_length_c   9.82453247
_cell_angle_alpha   89.95261765
_cell_angle_beta   89.95261765
_cell_angle_gamma   120.07585922
_symmetry_Int_Tables_number   1
_chemical_formula_structural   Mn5FeO12
_chemical_formula_sum   'Mn5 Fe1 O12'
_cell_volume   220.68201679
_cell_formula_units_Z   1
loop_
 _symmetry_equiv_pos_site_id
 _symmetry_equiv_pos_as_xyz
  1  'x, y, z'
loop_
 _atom_site_type_symbol
 _atom_site_label
 _atom_site_symmetry_multiplicity
 _atom_site_fract_x
 _atom_site_fract_y
 _atom_site_fract_z
 _atom_site_occupancy
  Mn  Mn0  1  0.83332400  0.16667600  0.50000000  1
  Mn  Mn1  1  0.33326700  0.66673300  0.00000000  1
  Mn  Mn2  1  0.66673300  0.33326700  0.00000000  1
  Mn  Mn3  1  0.16667600  0.83332400  0.50000000  1
  Mn  Mn4  1  0.50000000  0.50000000  0.50000000  1
  Fe  Fe0  1  0.00000000  0.00000000  0.00000000  1
  O  O0  1  0.00014400  0.33999200  0.90165700  1
  O  O1  1  0.66000800  0.99985600  0.09834300  1
  O  O2  1  0.83291900  0.49958400  0.59683900  1
  O  O3  1  0.49958400  0.83291900  0.59683900  1
  O  O4  1  0.50041600  0.16708100  0.40316100  1
  O  O5  1  0.83375800  0.83375800  0.40314700  1
  O  O6  1  0.16708100  0.50041600  0.40316100  1
  O  O7  1  0.33999200  0.00014400  0.90165700  1
  O  O8  1  0.66127900  0.66127900  0.90194800  1
  O  O9  1  0.99985600  0.66000800  0.09834300  1
  O  O10  1  0.33872100  0.33872100  0.09805200  1
  O  O11  1  0.16624200  0.16624200  0.59685300  1
loop_
_geom_bond_atom_site_label_1
_geom_bond_atom_site_label_2
_geom_bond_distance
_geom_bond_site_symmetry_2
Mn0 O3 1.945379 1_545
Mn0 O6 1.945379 1_655
Mn0 O2 1.946307 1_555
Mn0 O4 1.946307 1_555
Mn0 O5 1.946483 1_545
Mn0 O11 1.946483 1_655
Mn1 O0 1.938750 1_554
Mn1 O1 1.938750 1_555
Mn1 O7 1.938824 1_564
Mn1 O9 1.938824 1_455
Mn1 O8 1.940478 1_554
Mn1 O10 1.940478 1_555
Mn2 O9 1.938750 1_555
Mn2 O7 1.938750 1_554
Mn2 O0 1.938824 1_654
Mn2 O1 1.938824 1_545
Mn2 O8 1.940478 1_554
Mn2 O10 1.940478 1_555
Mn3 O2 1.945379 1_455
Mn3 O4 1.945379 1_565
Mn3 O6 1.946307 1_555
Mn3 O3 1.946307 1_555
Mn3 O5 1.946483 1_455
Mn3 O11 1.946483 1_565
Mn4 O11 1.945488 1_555
Mn4 O5 1.945488 1_555
Mn4 O6 1.946380 1_555
Mn4 O4 1.946380 1_555
Mn4 O3 1.946380 1_555
Mn4 O2 1.946380 1_555
Fe0 O10 1.976048 1_555
Fe0 O8 1.976048 1_444
Fe0 O9 1.982412 1_445
Fe0 O0 1.982412 1_554
Fe0 O7 1.982412 1_554
Fe0 O1 1.982412 1_445
