# generated using pymatgen
data_BiOF
_symmetry_space_group_name_H-M   'P 1'
_cell_length_a   10.98215600
_cell_length_b   7.66316900
_cell_length_c   7.91746515
_cell_angle_alpha   81.49257947
_cell_angle_beta   90.00000000
_cell_angle_gamma   90.00000000
_symmetry_Int_Tables_number   1
_chemical_formula_structural   BiOF
_chemical_formula_sum   'Bi12 O12 F12'
_cell_volume   658.98726221
_cell_formula_units_Z   12
loop_
 _symmetry_equiv_pos_site_id
 _symmetry_equiv_pos_as_xyz
  1  'x, y, z'
loop_
 _atom_site_type_symbol
 _atom_site_label
 _atom_site_symmetry_multiplicity
 _atom_site_fract_x
 _atom_site_fract_y
 _atom_site_fract_z
 _atom_site_occupancy
  Bi  Bi0  1  0.50862700  0.07752300  0.27294100  1
  Bi  Bi1  1  0.21231400  0.07524300  0.98271600  1
  Bi  Bi2  1  0.19336500  0.12753300  0.53071400  1
  Bi  Bi3  1  0.69336500  0.37246700  0.46928600  1
  Bi  Bi4  1  0.71231400  0.42475700  0.01728400  1
  Bi  Bi5  1  0.00862700  0.42247700  0.72705900  1
  Bi  Bi6  1  0.99137300  0.57752300  0.27294100  1
  Bi  Bi7  1  0.28768600  0.57524300  0.98271600  1
  Bi  Bi8  1  0.30663500  0.62753300  0.53071400  1
  Bi  Bi9  1  0.80663500  0.87246700  0.46928600  1
  Bi  Bi10  1  0.78768600  0.92475700  0.01728400  1
  Bi  Bi11  1  0.49137300  0.92247700  0.72705900  1
  O  O0  1  0.60511700  0.10207100  0.51187700  1
  O  O1  1  0.31621300  0.06675500  0.75128600  1
  O  O2  1  0.58916500  0.35237200  0.23107800  1
  O  O3  1  0.08916500  0.14762800  0.76892200  1
  O  O4  1  0.81621300  0.43324500  0.24871400  1
  O  O5  1  0.10511700  0.39792900  0.48812300  1
  O  O6  1  0.89488300  0.60207100  0.51187700  1
  O  O7  1  0.18378700  0.56675500  0.75128600  1
  O  O8  1  0.91083500  0.85237200  0.23107800  1
  O  O9  1  0.41083500  0.64762800  0.76892200  1
  O  O10  1  0.68378700  0.93324500  0.24871400  1
  O  O11  1  0.39488300  0.89792900  0.48812300  1
  F  F0  1  0.86381800  0.20475900  0.00337600  1
  F  F1  1  0.85221400  0.20844800  0.56987400  1
  F  F2  1  0.62291700  0.12938300  0.94344400  1
  F  F3  1  0.12291700  0.37061700  0.05655600  1
  F  F4  1  0.35221400  0.29155200  0.43012600  1
  F  F5  1  0.36381800  0.29524100  0.99662400  1
  F  F6  1  0.63618200  0.70475900  0.00337600  1
  F  F7  1  0.64778600  0.70844800  0.56987400  1
  F  F8  1  0.87708300  0.62938300  0.94344400  1
  F  F9  1  0.37708300  0.87061700  0.05655600  1
  F  F10  1  0.14778600  0.79155200  0.43012600  1
  F  F11  1  0.13618200  0.79524100  0.99662400  1
loop_
_geom_bond_atom_site_label_1
_geom_bond_atom_site_label_2
_geom_bond_distance
_geom_bond_site_symmetry_2
Bi0 O0 2.200537 1_555
Bi0 O10 2.241054 1_545
Bi0 O2 2.263129 1_555
Bi0 O11 2.379771 1_545
Bi1 O1 2.167700 1_555
Bi1 O3 2.173530 1_555
Bi1 F11 2.290264 1_545
Bi1 F5 2.382775 1_555
Bi1 F9 2.409106 1_546
Bi1 F3 2.611634 1_556
Bi2 O1 2.201419 1_555
Bi2 F4 2.227373 1_555
Bi2 O3 2.230733 1_555
Bi2 O5 2.267111 1_555
Bi3 O4 2.201419 1_555
Bi3 F1 2.227373 1_555
Bi3 O2 2.230733 1_555
Bi3 O0 2.267111 1_555
Bi4 O4 2.167700 1_555
Bi4 O2 2.173530 1_555
Bi4 F6 2.290264 1_555
Bi4 F0 2.382775 1_555
Bi4 F8 2.409106 1_554
Bi4 F2 2.611634 1_554
Bi5 O5 2.200537 1_555
Bi5 O7 2.241054 1_555
Bi5 O3 2.263129 1_555
Bi5 O6 2.379771 1_455
Bi6 O6 2.200537 1_555
Bi6 O4 2.241054 1_555
Bi6 O8 2.263129 1_555
Bi6 O5 2.379771 1_655
Bi7 O7 2.167700 1_555
Bi7 O9 2.173530 1_555
Bi7 F5 2.290264 1_555
Bi7 F11 2.382775 1_555
Bi7 F3 2.409106 1_556
Bi7 F9 2.611634 1_556
Bi8 O7 2.201419 1_555
Bi8 F10 2.227373 1_555
Bi8 O9 2.230733 1_555
Bi8 O11 2.267111 1_555
Bi9 O10 2.201419 1_555
Bi9 F7 2.227373 1_555
Bi9 O8 2.230733 1_555
Bi9 O6 2.267111 1_555
Bi10 O10 2.167700 1_555
Bi10 O8 2.173530 1_555
Bi10 F0 2.290264 1_565
Bi10 F6 2.382775 1_555
Bi10 F2 2.409106 1_564
Bi10 F8 2.611634 1_554
Bi11 O11 2.200537 1_555
Bi11 O1 2.241054 1_565
Bi11 O9 2.263129 1_555
Bi11 O0 2.379771 1_565
