# generated using pymatgen
data_K5Au5C10I2(N5O)2
_symmetry_space_group_name_H-M   'P 1'
_cell_length_a   12.29312300
_cell_length_b   7.38556797
_cell_length_c   9.80945386
_cell_angle_alpha   111.95191855
_cell_angle_beta   98.48255130
_cell_angle_gamma   94.77655634
_symmetry_Int_Tables_number   1
_chemical_formula_structural   K5Au5C10I2(N5O)2
_chemical_formula_sum   'K5 Au5 C10 I2 N10 O2'
_cell_volume   807.65565770
_cell_formula_units_Z   1
loop_
 _symmetry_equiv_pos_site_id
 _symmetry_equiv_pos_as_xyz
  1  'x, y, z'
loop_
 _atom_site_type_symbol
 _atom_site_label
 _atom_site_symmetry_multiplicity
 _atom_site_fract_x
 _atom_site_fract_y
 _atom_site_fract_z
 _atom_site_occupancy
  K  K0  1  0.50000000  0.00000000  0.00000000  1
  K  K1  1  0.58960200  0.66272000  0.98588800  1
  K  K2  1  0.41039800  0.33728000  0.01411200  1
  K  K3  1  0.45497800  0.80699700  0.45339200  1
  K  K4  1  0.54502200  0.19300300  0.54660800  1
  Au  Au0  1  0.00000000  0.00000000  0.00000000  1
  Au  Au1  1  0.00000000  0.00000000  0.50000000  1
  Au  Au2  1  0.00000000  0.50000000  0.00000000  1
  Au  Au3  1  0.02015700  0.75119200  0.73750300  1
  Au  Au4  1  0.97984300  0.24880800  0.26249700  1
  C  C0  1  0.21264900  0.99292300  0.16034000  1
  C  C1  1  0.78735100  0.00707700  0.83966000  1
  C  C2  1  0.79322000  0.91457100  0.35100100  1
  C  C3  1  0.20678000  0.08542900  0.64899900  1
  C  C4  1  0.23041100  0.54575900  0.12394700  1
  C  C5  1  0.76958900  0.45424100  0.87605300  1
  C  C6  1  0.80585000  0.72052900  0.69774300  1
  C  C7  1  0.19415000  0.27947100  0.30225700  1
  C  C8  1  0.23315200  0.77490600  0.77090600  1
  C  C9  1  0.76684800  0.22509400  0.22909400  1
  I  I0  1  0.99417200  0.64733400  0.28274600  1
  I  I1  1  0.00582800  0.35266600  0.71725400  1
  N  N0  1  0.33856700  0.98951400  0.25329000  1
  N  N1  1  0.66143300  0.01048600  0.74671000  1
  N  N2  1  0.67118100  0.86315400  0.26226300  1
  N  N3  1  0.32881900  0.13684600  0.73773700  1
  N  N4  1  0.34473600  0.61102600  0.12241600  1
  N  N5  1  0.65526400  0.38897400  0.87758400  1
  N  N6  1  0.67899500  0.70505000  0.67335900  1
  N  N7  1  0.32100500  0.29495000  0.32664100  1
  N  N8  1  0.35690300  0.78400900  0.78065200  1
  N  N9  1  0.64309700  0.21599100  0.21934800  1
  O  O0  1  0.66213500  0.48926600  0.73021900  1
  O  O1  1  0.33786500  0.51073400  0.26978100  1
loop_
_geom_bond_atom_site_label_1
_geom_bond_atom_site_label_2
_geom_bond_distance
_geom_bond_site_symmetry_2
K0 N9 2.473596 1_555
K0 N8 2.473596 1_544
K1 N5 2.187847 1_555
K1 N2 2.548956 1_556
K1 O0 2.678421 1_555
K2 N4 2.187847 1_555
K2 N3 2.548956 1_554
K2 O1 2.678421 1_555
K3 O1 2.422451 1_555
K4 O0 2.422451 1_555
Au0 Au3 2.606701 1_544
Au0 Au4 2.606701 1_455
Au1 C2 2.635017 1_445
Au1 C3 2.635017 1_555
Au1 I1 2.665481 1_555
Au1 I0 2.665481 1_445
Au2 I0 2.587874 1_455
Au2 I1 2.587874 1_554
Au3 C8 2.573234 1_555
Au3 C6 2.583694 1_455
Au3 I1 2.863557 1_555
Au4 C9 2.573234 1_555
Au4 C7 2.583694 1_655
Au4 I0 2.863557 1_555
C0 N0 1.683847 1_555
C1 N1 1.683847 1_555
C2 N2 1.557356 1_555
C3 N3 1.557356 1_555
C4 N4 1.451406 1_555
C4 O1 1.906406 1_555
C5 N5 1.451406 1_555
C5 O0 1.906406 1_555
C6 N6 1.530350 1_555
C7 N7 1.530350 1_555
C8 N8 1.504402 1_555
C9 N9 1.504402 1_555
N4 O1 1.863229 1_555
N5 O0 1.863229 1_555
N6 O0 1.880848 1_555
N7 O1 1.880848 1_555
