# generated using pymatgen
data_LiFeF4
_symmetry_space_group_name_H-M   'P 1'
_cell_length_a   7.49990700
_cell_length_b   7.61970100
_cell_length_c   10.34364900
_cell_angle_alpha   90.00000000
_cell_angle_beta   90.00000000
_cell_angle_gamma   90.00000000
_symmetry_Int_Tables_number   1
_chemical_formula_structural   LiFeF4
_chemical_formula_sum   'Li8 Fe8 F32'
_cell_volume   591.10901487
_cell_formula_units_Z   8
loop_
 _symmetry_equiv_pos_site_id
 _symmetry_equiv_pos_as_xyz
  1  'x, y, z'
loop_
 _atom_site_type_symbol
 _atom_site_label
 _atom_site_symmetry_multiplicity
 _atom_site_fract_x
 _atom_site_fract_y
 _atom_site_fract_z
 _atom_site_occupancy
  Li  Li0  1  0.00000000  0.25378700  0.77012700  1
  Li  Li1  1  0.00000000  0.82578400  0.77545400  1
  Li  Li2  1  0.00000000  0.02255300  0.26512400  1
  Li  Li3  1  0.00000000  0.56599300  0.28070300  1
  Li  Li4  1  0.50000000  0.06599300  0.71929700  1
  Li  Li5  1  0.50000000  0.32578400  0.22454600  1
  Li  Li6  1  0.50000000  0.52255300  0.73487600  1
  Li  Li7  1  0.50000000  0.75378800  0.22987300  1
  Fe  Fe0  1  0.24653900  0.49596500  0.00379100  1
  Fe  Fe1  1  0.24984600  0.74280000  0.50489400  1
  Fe  Fe2  1  0.25015400  0.24280000  0.49510600  1
  Fe  Fe3  1  0.25346100  0.99596500  0.99620900  1
  Fe  Fe4  1  0.74653900  0.99596500  0.99620900  1
  Fe  Fe5  1  0.74984600  0.24280000  0.49510600  1
  Fe  Fe6  1  0.75015400  0.74280000  0.50489400  1
  Fe  Fe7  1  0.75346100  0.49596500  0.00379100  1
  F  F0  1  0.00000000  0.20812300  0.57039000  1
  F  F1  1  0.00000000  0.78723200  0.58162800  1
  F  F2  1  0.00000000  0.03506300  0.06731700  1
  F  F3  1  0.00000000  0.47370500  0.08762700  1
  F  F4  1  0.16716300  0.43899400  0.83987600  1
  F  F5  1  0.17608300  0.19874800  0.32408200  1
  F  F6  1  0.16298300  0.77143000  0.33588100  1
  F  F7  1  0.16924800  0.02655700  0.82256900  1
  F  F8  1  0.18980200  0.49214900  0.47535200  1
  F  F9  1  0.19051600  0.74451300  0.96950900  1
  F  F10  1  0.30948400  0.24451200  0.03049100  1
  F  F11  1  0.31019800  0.99214900  0.52464800  1
  F  F12  1  0.33075200  0.52655700  0.17743100  1
  F  F13  1  0.33701700  0.27143000  0.66411900  1
  F  F14  1  0.32391700  0.69874800  0.67591800  1
  F  F15  1  0.33283700  0.93899400  0.16012400  1
  F  F16  1  0.50000000  0.28723200  0.41837200  1
  F  F17  1  0.50000000  0.53506300  0.93268300  1
  F  F18  1  0.50000000  0.97370500  0.91237300  1
  F  F19  1  0.50000000  0.70812300  0.42961000  1
  F  F20  1  0.66716300  0.93899400  0.16012400  1
  F  F21  1  0.67608300  0.69874800  0.67591800  1
  F  F22  1  0.66298300  0.27143000  0.66411900  1
  F  F23  1  0.66924800  0.52655700  0.17743100  1
  F  F24  1  0.68980200  0.99214900  0.52464800  1
  F  F25  1  0.69051600  0.24451200  0.03049100  1
  F  F26  1  0.80948400  0.74451300  0.96950900  1
  F  F27  1  0.81019800  0.49214900  0.47535200  1
  F  F28  1  0.83075200  0.02655700  0.82256900  1
  F  F29  1  0.83701700  0.77143000  0.33588100  1
  F  F30  1  0.82391700  0.19874800  0.32408200  1
  F  F31  1  0.83283700  0.43899400  0.83987600  1
loop_
_geom_bond_atom_site_label_1
_geom_bond_atom_site_label_2
_geom_bond_distance
_geom_bond_site_symmetry_2
F0 Fe5 2.048433 1_455
F0 Fe2 2.048433 1_555
F0 Li0 2.095104 1_555
F1 Li1 2.026274 1_555
F1 Fe1 2.062960 1_555
F1 Fe6 2.062960 1_455
F2 Li2 2.048265 1_555
F2 Fe4 2.059924 1_444
F2 Fe3 2.059924 1_544
F3 Fe7 2.049299 1_455
F3 Fe0 2.049299 1_555
F3 Li3 2.117298 1_555
F4 Fe0 1.848646 1_556
F4 Li0 2.020849 1_555
F5 Fe2 1.884326 1_555
F5 Li2 1.979484 1_555
F6 Fe1 1.878361 1_555
F6 Li3 2.066466 1_555
F6 Li2 2.385629 1_565
F7 Fe3 1.918102 1_545
F7 Li1 2.046733 1_545
F7 Li0 2.214342 1_555
F8 Fe2 1.963796 1_555
F8 Fe1 1.985908 1_555
F9 Fe0 1.972053 1_556
F9 Fe3 1.992523 1_555
F10 Fe3 1.972046 1_544
F10 Fe0 1.992530 1_555
F11 Fe1 1.963796 1_555
F11 Fe2 1.985908 1_565
F12 Fe0 1.918102 1_555
F12 Li5 2.046733 1_555
F12 Li7 2.214348 1_555
F13 Fe2 1.878361 1_555
F13 Li4 2.066466 1_555
F13 Li6 2.385629 1_555
F14 Fe1 1.884326 1_555
F14 Li6 1.979484 1_555
F15 Fe3 1.848646 1_554
F15 Li7 2.020844 1_555
F16 Li5 2.026274 1_555
F16 Fe5 2.062960 1_555
F16 Fe2 2.062960 1_555
F17 Li6 2.048265 1_555
F17 Fe7 2.059924 1_556
F17 Fe0 2.059924 1_556
F18 Fe3 2.049299 1_555
F18 Fe4 2.049299 1_555
F18 Li4 2.117298 1_565
F19 Fe6 2.048433 1_555
F19 Fe1 2.048433 1_555
F19 Li7 2.095105 1_555
F20 Fe4 1.848646 1_554
F20 Li7 2.020844 1_555
F21 Fe6 1.884326 1_555
F21 Li6 1.979484 1_555
F22 Fe5 1.878361 1_555
F22 Li4 2.066466 1_555
F22 Li6 2.385629 1_555
F23 Fe7 1.918102 1_555
F23 Li5 2.046733 1_555
F23 Li7 2.214348 1_555
F24 Fe6 1.963796 1_555
F24 Fe5 1.985908 1_565
F25 Fe4 1.972046 1_544
F25 Fe7 1.992530 1_555
F26 Fe7 1.972053 1_556
F26 Fe4 1.992523 1_555
F27 Fe5 1.963796 1_555
F27 Fe6 1.985908 1_555
F28 Fe4 1.918102 1_545
F28 Li1 2.046733 1_645
F28 Li0 2.214342 1_655
F29 Fe6 1.878361 1_555
F29 Li3 2.066466 1_655
F29 Li2 2.385629 1_665
F30 Fe5 1.884326 1_555
F30 Li2 1.979484 1_655
F31 Fe7 1.848646 1_556
F31 Li0 2.020849 1_655
