# generated using pymatgen
data_Li3Ti(Si2O5)3
_symmetry_space_group_name_H-M   'P 1'
_cell_length_a   7.93947500
_cell_length_b   9.88809200
_cell_length_c   15.01751300
_cell_angle_alpha   90.00000000
_cell_angle_beta   90.00000000
_cell_angle_gamma   90.00000000
_symmetry_Int_Tables_number   1
_chemical_formula_structural   Li3Ti(Si2O5)3
_chemical_formula_sum   'Li12 Ti4 Si24 O60'
_cell_volume   1178.96876859
_cell_formula_units_Z   4
loop_
 _symmetry_equiv_pos_site_id
 _symmetry_equiv_pos_as_xyz
  1  'x, y, z'
loop_
 _atom_site_type_symbol
 _atom_site_label
 _atom_site_symmetry_multiplicity
 _atom_site_fract_x
 _atom_site_fract_y
 _atom_site_fract_z
 _atom_site_occupancy
  Li  Li0  1  0.25000000  0.91995800  0.06529000  1
  Li  Li1  1  0.25000000  0.58004200  0.56529000  1
  Li  Li2  1  0.99871600  0.49795900  0.24181400  1
  Li  Li3  1  0.50128400  0.49795900  0.24181400  1
  Li  Li4  1  0.00128400  0.50204100  0.75818600  1
  Li  Li5  1  0.49871600  0.50204100  0.75818600  1
  Li  Li6  1  0.75000000  0.41995800  0.43471000  1
  Li  Li7  1  0.75000000  0.08004200  0.93471000  1
  Li  Li8  1  0.00128400  0.99795900  0.25818600  1
  Li  Li9  1  0.49871600  0.99795900  0.25818600  1
  Li  Li10  1  0.50128400  0.00204100  0.74181400  1
  Li  Li11  1  0.99871600  0.00204100  0.74181400  1
  Ti  Ti0  1  0.25000000  0.74554000  0.25144800  1
  Ti  Ti1  1  0.25000000  0.75446000  0.75144800  1
  Ti  Ti2  1  0.75000000  0.25446000  0.74855200  1
  Ti  Ti3  1  0.75000000  0.24554000  0.24855200  1
  Si  Si0  1  0.75000000  0.96912300  0.40263200  1
  Si  Si1  1  0.75000000  0.97159700  0.59826200  1
  Si  Si2  1  0.56072000  0.79563500  0.09926000  1
  Si  Si3  1  0.93928000  0.79563500  0.09926000  1
  Si  Si4  1  0.94175400  0.79793500  0.90120200  1
  Si  Si5  1  0.55824600  0.79793500  0.90120200  1
  Si  Si6  1  0.94175400  0.70206500  0.40120200  1
  Si  Si7  1  0.56072000  0.70436500  0.59926000  1
  Si  Si8  1  0.55824600  0.70206500  0.40120200  1
  Si  Si9  1  0.93928000  0.70436500  0.59926000  1
  Si  Si10  1  0.75000000  0.52840300  0.09826200  1
  Si  Si11  1  0.75000000  0.53087700  0.90263200  1
  Si  Si12  1  0.25000000  0.47159700  0.90173800  1
  Si  Si13  1  0.25000000  0.46912300  0.09736800  1
  Si  Si14  1  0.43928000  0.29563500  0.40074000  1
  Si  Si15  1  0.06072000  0.29563500  0.40074000  1
  Si  Si16  1  0.05824600  0.29793500  0.59879800  1
  Si  Si17  1  0.44175400  0.29793500  0.59879800  1
  Si  Si18  1  0.05824600  0.20206500  0.09879800  1
  Si  Si19  1  0.43928000  0.20436500  0.90074000  1
  Si  Si20  1  0.06072000  0.20436500  0.90074000  1
  Si  Si21  1  0.44175400  0.20206500  0.09879800  1
  Si  Si22  1  0.25000000  0.03087700  0.59736800  1
  Si  Si23  1  0.25000000  0.02840300  0.40173800  1
  O  O0  1  0.25000000  0.95660800  0.50001700  1
  O  O1  1  0.25000000  0.92807300  0.31848100  1
  O  O2  1  0.25000000  0.93378700  0.68227500  1
  O  O3  1  0.58621000  0.86605600  0.39712500  1
  O  O4  1  0.91379000  0.86605600  0.39712500  1
  O  O5  1  0.58525500  0.86885300  0.60530500  1
  O  O6  1  0.91474500  0.86885300  0.60530500  1
  O  O7  1  0.75000000  0.86462800  0.10596900  1
  O  O8  1  0.75000000  0.87101900  0.90117100  1
  O  O9  1  0.07214800  0.85057500  0.17111800  1
  O  O10  1  0.42785200  0.85057500  0.17111800  1
  O  O11  1  0.05688100  0.84636300  0.82002600  1
  O  O12  1  0.44311900  0.84636300  0.82002600  1
  O  O13  1  0.47806100  0.83729400  0.00042300  1
  O  O14  1  0.02193900  0.83729400  0.00042300  1
  O  O15  1  0.47806100  0.66270600  0.50042300  1
  O  O16  1  0.02193900  0.66270600  0.50042300  1
  O  O17  1  0.07214800  0.64942500  0.67111800  1
  O  O18  1  0.05688100  0.65363700  0.32002600  1
  O  O19  1  0.44311900  0.65363700  0.32002600  1
  O  O20  1  0.42785200  0.64942500  0.67111800  1
  O  O21  1  0.75000000  0.62898100  0.40117100  1
  O  O22  1  0.75000000  0.63537200  0.60596900  1
  O  O23  1  0.91474500  0.63114700  0.10530500  1
  O  O24  1  0.58525500  0.63114700  0.10530500  1
  O  O25  1  0.91379000  0.63394400  0.89712500  1
  O  O26  1  0.58621000  0.63394400  0.89712500  1
  O  O27  1  0.25000000  0.56621300  0.18227500  1
  O  O28  1  0.25000000  0.57192700  0.81848100  1
  O  O29  1  0.25000000  0.54339200  0.00001700  1
  O  O30  1  0.75000000  0.45660800  0.99998300  1
  O  O31  1  0.75000000  0.42807300  0.18151900  1
  O  O32  1  0.75000000  0.43378700  0.81772500  1
  O  O33  1  0.08525500  0.36885300  0.89469500  1
  O  O34  1  0.41474500  0.36885300  0.89469500  1
  O  O35  1  0.08621000  0.36605600  0.10287500  1
  O  O36  1  0.41379000  0.36605600  0.10287500  1
  O  O37  1  0.25000000  0.37101900  0.59882900  1
  O  O38  1  0.25000000  0.36462800  0.39403100  1
  O  O39  1  0.55688100  0.34636300  0.67997400  1
  O  O40  1  0.94311900  0.34636300  0.67997400  1
  O  O41  1  0.57214800  0.35057500  0.32888200  1
  O  O42  1  0.92785200  0.35057500  0.32888200  1
  O  O43  1  0.97806100  0.33729400  0.49957700  1
  O  O44  1  0.52193900  0.33729400  0.49957700  1
  O  O45  1  0.97806100  0.16270600  0.99957700  1
  O  O46  1  0.52193900  0.16270600  0.99957700  1
  O  O47  1  0.55688100  0.15363700  0.17997400  1
  O  O48  1  0.94311900  0.15363700  0.17997400  1
  O  O49  1  0.57214800  0.14942500  0.82888200  1
  O  O50  1  0.92785200  0.14942500  0.82888200  1
  O  O51  1  0.25000000  0.12898100  0.09882900  1
  O  O52  1  0.25000000  0.13537200  0.89403100  1
  O  O53  1  0.41379000  0.13394400  0.60287500  1
  O  O54  1  0.08525500  0.13114700  0.39469500  1
  O  O55  1  0.41474500  0.13114700  0.39469500  1
  O  O56  1  0.08621000  0.13394400  0.60287500  1
  O  O57  1  0.75000000  0.06621300  0.31772500  1
  O  O58  1  0.75000000  0.07192700  0.68151900  1
  O  O59  1  0.75000000  0.04339200  0.49998300  1
loop_
_geom_bond_atom_site_label_1
_geom_bond_atom_site_label_2
_geom_bond_distance
_geom_bond_site_symmetry_2
Li0 O51 2.127324 1_565
Li0 O13 2.212613 1_555
Li0 O14 2.212613 1_555
Li0 O10 2.233913 1_555
Li0 O9 2.233913 1_555
Li1 O37 2.127324 1_555
Li1 O15 2.212613 1_555
Li1 O16 2.212613 1_555
Li1 O17 2.233913 1_555
Li1 O20 2.233913 1_555
Li2 O18 1.990590 1_655
Li2 O42 2.037174 1_555
Li2 O31 2.279643 1_555
Li2 O27 2.288063 1_655
Li2 O23 2.526163 1_555
Li2 O35 2.556799 1_655
Li3 O19 1.990590 1_555
Li3 O41 2.037174 1_555
Li3 O31 2.279643 1_555
Li3 O27 2.288063 1_555
Li3 O24 2.526163 1_555
Li3 O36 2.556799 1_555
Li4 O40 1.990590 1_455
Li4 O17 2.037174 1_555
Li4 O28 2.279643 1_555
Li4 O32 2.288063 1_455
Li4 O33 2.526163 1_555
Li4 O25 2.556799 1_455
Li5 O39 1.990590 1_555
Li5 O20 2.037174 1_555
Li5 O28 2.279643 1_555
Li5 O32 2.288063 1_555
Li5 O34 2.526163 1_555
Li5 O26 2.556799 1_555
Li6 O21 2.127324 1_555
Li6 O43 2.212613 1_555
Li6 O44 2.212613 1_555
Li6 O42 2.233913 1_555
Li6 O41 2.233913 1_555
Li7 O8 2.127324 1_545
Li7 O45 2.212613 1_555
Li7 O46 2.212613 1_555
Li7 O50 2.233913 1_555
Li7 O49 2.233913 1_555
Li8 O48 1.990590 1_465
Li8 O9 2.037174 1_555
Li8 O1 2.279643 1_555
Li8 O57 2.288063 1_465
Li8 O54 2.526163 1_565
Li8 O4 2.556799 1_455
Li9 O47 1.990590 1_565
Li9 O10 2.037174 1_555
Li9 O1 2.279643 1_555
Li9 O57 2.288063 1_565
Li9 O55 2.526163 1_565
Li9 O3 2.556799 1_555
Li10 O12 1.990590 1_545
Li10 O49 2.037174 1_555
Li10 O58 2.279643 1_555
Li10 O2 2.288063 1_545
Li10 O5 2.526163 1_545
Li10 O53 2.556799 1_555
Li11 O11 1.990590 1_645
Li11 O50 2.037174 1_555
Li11 O58 2.279643 1_555
Li11 O2 2.288063 1_645
Li11 O6 2.526163 1_545
Li11 O56 2.556799 1_655
O0 Si22 1.636053 1_565
O0 Si23 1.637766 1_565
O1 Si23 1.596086 1_565
O1 Ti0 2.066654 1_555
O2 Si22 1.596097 1_565
O2 Ti1 2.055082 1_555
O3 Si8 1.637831 1_555
O3 Si0 1.654248 1_555
O4 Si6 1.637831 1_555
O4 Si0 1.654248 1_555
O5 Si7 1.640609 1_555
O5 Si1 1.659566 1_555
O6 Si9 1.640609 1_555
O6 Si1 1.659566 1_555
O7 Si2 1.653457 1_555
O7 Si3 1.653457 1_555
O8 Si5 1.685236 1_555
O8 Si4 1.685236 1_555
O9 Si3 1.603889 1_455
O9 Ti0 2.127879 1_555
O10 Si2 1.603889 1_555
O10 Ti0 2.127879 1_555
O11 Si4 1.597154 1_455
O11 Ti1 2.058482 1_555
O12 Si5 1.597154 1_555
O12 Ti1 2.058482 1_555
O13 Si5 1.666438 1_554
O13 Si2 1.674359 1_555
O14 Si4 1.666438 1_454
O14 Si3 1.674359 1_455
O15 Si8 1.666438 1_555
O15 Si7 1.674359 1_555
O16 Si6 1.666438 1_455
O16 Si9 1.674359 1_455
O17 Si9 1.603889 1_455
O17 Ti1 2.127879 1_555
O18 Si6 1.597154 1_455
O18 Ti0 2.058482 1_555
O19 Si8 1.597154 1_555
O19 Ti0 2.058482 1_555
O20 Si7 1.603889 1_555
O20 Ti1 2.127879 1_555
O21 Si8 1.685236 1_555
O21 Si6 1.685236 1_555
O22 Si9 1.653457 1_555
O22 Si7 1.653457 1_555
O23 Si3 1.640609 1_555
O23 Si10 1.659566 1_555
O24 Si2 1.640609 1_555
O24 Si10 1.659566 1_555
O25 Si4 1.637831 1_555
O25 Si11 1.654248 1_555
O26 Si5 1.637831 1_555
O26 Si11 1.654248 1_555
O27 Si13 1.596097 1_555
O27 Ti0 2.055082 1_555
O28 Si12 1.596086 1_555
O28 Ti1 2.066654 1_555
O29 Si13 1.636053 1_555
O29 Si12 1.637766 1_554
O30 Si11 1.636053 1_555
O30 Si10 1.637766 1_556
O31 Si10 1.596086 1_555
O31 Ti3 2.066654 1_555
O32 Si11 1.596097 1_555
O32 Ti2 2.055082 1_555
O33 Si20 1.640609 1_555
O33 Si12 1.659566 1_555
O34 Si19 1.640609 1_555
O34 Si12 1.659566 1_555
O35 Si18 1.637831 1_555
O35 Si13 1.654248 1_555
O36 Si21 1.637831 1_555
O36 Si13 1.654248 1_555
O37 Si17 1.685236 1_555
O37 Si16 1.685236 1_555
O38 Si14 1.653457 1_555
O38 Si15 1.653457 1_555
O39 Si17 1.597154 1_555
O39 Ti2 2.058482 1_555
O40 Si16 1.597154 1_655
O40 Ti2 2.058482 1_555
O41 Si14 1.603889 1_555
O41 Ti3 2.127879 1_555
O42 Si15 1.603889 1_655
O42 Ti3 2.127879 1_555
O43 Si16 1.666438 1_655
O43 Si15 1.674359 1_655
O44 Si17 1.666438 1_555
O44 Si14 1.674359 1_555
O45 Si18 1.666438 1_656
O45 Si20 1.674359 1_655
O46 Si21 1.666438 1_556
O46 Si19 1.674359 1_555
O47 Si21 1.597154 1_555
O47 Ti3 2.058482 1_555
O48 Si18 1.597154 1_655
O48 Ti3 2.058482 1_555
O49 Si19 1.603889 1_555
O49 Ti2 2.127879 1_555
O50 Si20 1.603889 1_655
O50 Ti2 2.127879 1_555
O51 Si21 1.685236 1_555
O51 Si18 1.685236 1_555
O52 Si19 1.653457 1_555
O52 Si20 1.653457 1_555
O53 Si17 1.637831 1_555
O53 Si22 1.654248 1_555
O54 Si15 1.640609 1_555
O54 Si23 1.659566 1_555
O55 Si14 1.640609 1_555
O55 Si23 1.659566 1_555
O56 Si16 1.637831 1_555
O56 Si22 1.654248 1_555
O57 Si0 1.596097 1_545
O57 Ti3 2.055082 1_555
O58 Si1 1.596086 1_545
O58 Ti2 2.066654 1_555
O59 Si0 1.636053 1_545
O59 Si1 1.637766 1_545
