# generated using pymatgen
data_Na5P5(H9O7)2
_symmetry_space_group_name_H-M   'P 1'
_cell_length_a   13.71575600
_cell_length_b   11.21269800
_cell_length_c   13.04292197
_cell_angle_alpha   75.99291191
_cell_angle_beta   90.00000000
_cell_angle_gamma   90.00000000
_symmetry_Int_Tables_number   1
_chemical_formula_structural   Na5P5(H9O7)2
_chemical_formula_sum   'Na20 P20 H72 O56'
_cell_volume   1946.23595385
_cell_formula_units_Z   4
loop_
 _symmetry_equiv_pos_site_id
 _symmetry_equiv_pos_as_xyz
  1  'x, y, z'
loop_
 _atom_site_type_symbol
 _atom_site_label
 _atom_site_symmetry_multiplicity
 _atom_site_fract_x
 _atom_site_fract_y
 _atom_site_fract_z
 _atom_site_occupancy
  Na  Na0  1  0.76014200  0.23477200  0.50268200  1
  Na  Na1  1  0.73985800  0.73477200  0.00268200  1
  Na  Na2  1  0.23985800  0.76522800  0.49731800  1
  Na  Na3  1  0.26014200  0.26522800  0.99731800  1
  Na  Na4  1  0.56921600  0.11982800  0.64450800  1
  Na  Na5  1  0.93078400  0.61982800  0.14450800  1
  Na  Na6  1  0.43078400  0.88017200  0.35549200  1
  Na  Na7  1  0.06921600  0.38017200  0.85549200  1
  Na  Na8  1  0.06328800  0.62869500  0.64276500  1
  Na  Na9  1  0.43671200  0.12869500  0.14276500  1
  Na  Na10  1  0.93671200  0.37130500  0.35723500  1
  Na  Na11  1  0.56328800  0.87130500  0.85723500  1
  Na  Na12  1  0.82553100  0.56217200  0.45722900  1
  Na  Na13  1  0.67446900  0.06217200  0.95722900  1
  Na  Na14  1  0.17446900  0.43782800  0.54277100  1
  Na  Na15  1  0.32553100  0.93782800  0.04277100  1
  Na  Na16  1  0.32300600  0.07285700  0.45858500  1
  Na  Na17  1  0.17699400  0.57285700  0.95858500  1
  Na  Na18  1  0.67699400  0.92714300  0.54141500  1
  Na  Na19  1  0.82300600  0.42714300  0.04141500  1
  P  P0  1  0.70294400  0.49017800  0.25287800  1
  P  P1  1  0.79705600  0.99017800  0.75287800  1
  P  P2  1  0.29705600  0.50982200  0.74712200  1
  P  P3  1  0.20294400  0.00982200  0.24712200  1
  P  P4  1  0.60914100  0.43463300  0.58040500  1
  P  P5  1  0.89085900  0.93463300  0.08040500  1
  P  P6  1  0.39085900  0.56536700  0.41959500  1
  P  P7  1  0.10914100  0.06536700  0.91959500  1
  P  P8  1  0.10112300  0.96066500  0.61868900  1
  P  P9  1  0.39887700  0.46066500  0.11868900  1
  P  P10  1  0.89887700  0.03933500  0.38131100  1
  P  P11  1  0.60112300  0.53933500  0.88131100  1
  P  P12  1  0.55540500  0.16769400  0.36135600  1
  P  P13  1  0.94459500  0.66769400  0.86135600  1
  P  P14  1  0.44459500  0.83230600  0.63864400  1
  P  P15  1  0.05540500  0.33230600  0.13864400  1
  P  P16  1  0.04917900  0.66928600  0.35784200  1
  P  P17  1  0.45082100  0.16928600  0.85784200  1
  P  P18  1  0.95082100  0.33071400  0.64215800  1
  P  P19  1  0.54917900  0.83071400  0.14215800  1
  H  H0  1  0.63783200  0.57591000  0.28117800  1
  H  H1  1  0.86216800  0.07591000  0.78117800  1
  H  H2  1  0.36216800  0.42409000  0.71882200  1
  H  H3  1  0.13783200  0.92409000  0.21882200  1
  H  H4  1  0.13685400  0.09527100  0.27423100  1
  H  H5  1  0.36314600  0.59527100  0.77423100  1
  H  H6  1  0.86314600  0.90472900  0.72576900  1
  H  H7  1  0.63685400  0.40472900  0.22576900  1
  H  H8  1  0.52790200  0.44654900  0.64530100  1
  H  H9  1  0.97209800  0.94654900  0.14530100  1
  H  H10  1  0.47209800  0.55345100  0.35469900  1
  H  H11  1  0.02790200  0.05345100  0.85469900  1
  H  H12  1  0.08824400  0.97408500  0.72364200  1
  H  H13  1  0.41175600  0.47408500  0.22364200  1
  H  H14  1  0.91175600  0.02591500  0.27635800  1
  H  H15  1  0.58824400  0.52591500  0.77635800  1
  H  H16  1  0.56433600  0.42252100  0.48511000  1
  H  H17  1  0.93566400  0.92252100  0.98511000  1
  H  H18  1  0.43566400  0.57747900  0.51489000  1
  H  H19  1  0.06433600  0.07747900  0.01489000  1
  H  H20  1  0.00389100  0.97305600  0.58002800  1
  H  H21  1  0.49610900  0.47305600  0.08002800  1
  H  H22  1  0.99610900  0.02694400  0.41997200  1
  H  H23  1  0.50389100  0.52694400  0.91997200  1
  H  H24  1  0.62302300  0.18593700  0.27609700  1
  H  H25  1  0.87697700  0.68593700  0.77609700  1
  H  H26  1  0.37697700  0.81406300  0.72390300  1
  H  H27  1  0.12302300  0.31406300  0.22390300  1
  H  H28  1  0.11804800  0.69279600  0.27387800  1
  H  H29  1  0.38195200  0.19279600  0.77387800  1
  H  H30  1  0.88195200  0.30720400  0.72612200  1
  H  H31  1  0.61804800  0.80720400  0.22612200  1
  H  H32  1  0.51934000  0.28870300  0.35560400  1
  H  H33  1  0.98066000  0.78870300  0.85560400  1
  H  H34  1  0.48066000  0.71129700  0.64439600  1
  H  H35  1  0.01934000  0.21129700  0.14439600  1
  H  H36  1  0.00429900  0.78643900  0.35062300  1
  H  H37  1  0.49570100  0.28643900  0.85062300  1
  H  H38  1  0.99570100  0.21356100  0.64937700  1
  H  H39  1  0.50429900  0.71356100  0.14937700  1
  H  H40  1  0.39862200  0.29518000  0.52004000  1
  H  H41  1  0.10137800  0.79518000  0.02004000  1
  H  H42  1  0.60137800  0.70482000  0.47996000  1
  H  H43  1  0.89862200  0.20482000  0.97996000  1
  H  H44  1  0.89678500  0.78276600  0.52010200  1
  H  H45  1  0.60321500  0.28276600  0.02010200  1
  H  H46  1  0.10321500  0.21723400  0.47989800  1
  H  H47  1  0.39678500  0.71723400  0.97989800  1
  H  H48  1  0.35317200  0.21131600  0.61770000  1
  H  H49  1  0.14682800  0.71131600  0.11770000  1
  H  H50  1  0.64682800  0.78868400  0.38230000  1
  H  H51  1  0.85317200  0.28868400  0.88230000  1
  H  H52  1  0.85219500  0.69957700  0.61934800  1
  H  H53  1  0.64780500  0.19957700  0.11934800  1
  H  H54  1  0.14780500  0.30042300  0.38065200  1
  H  H55  1  0.35219500  0.80042300  0.88065200  1
  H  H56  1  0.79445300  0.77422400  0.26470000  1
  H  H57  1  0.70554700  0.27422400  0.76470000  1
  H  H58  1  0.20554700  0.22577600  0.73530000  1
  H  H59  1  0.29445300  0.72577600  0.23530000  1
  H  H60  1  0.30876700  0.27708300  0.26882000  1
  H  H61  1  0.19123300  0.77708300  0.76882000  1
  H  H62  1  0.69123300  0.72291700  0.73118000  1
  H  H63  1  0.80876700  0.22291700  0.23118000  1
  H  H64  1  0.80373000  0.82184200  0.36901200  1
  H  H65  1  0.69627000  0.32184200  0.86901200  1
  H  H66  1  0.19627000  0.17815800  0.63098800  1
  H  H67  1  0.30373000  0.67815800  0.13098800  1
  H  H68  1  0.30749800  0.33708900  0.36688400  1
  H  H69  1  0.19250200  0.83708900  0.86688400  1
  H  H70  1  0.69250200  0.66291100  0.63311600  1
  H  H71  1  0.80749800  0.16291100  0.13311600  1
  O  O0  1  0.76006000  0.42703700  0.35110600  1
  O  O1  1  0.73994000  0.92703700  0.85110600  1
  O  O2  1  0.23994000  0.57296300  0.64889400  1
  O  O3  1  0.26006000  0.07296300  0.14889400  1
  O  O4  1  0.25824600  0.94669100  0.34651900  1
  O  O5  1  0.24175400  0.44669100  0.84651900  1
  O  O6  1  0.74175400  0.05330900  0.65348100  1
  O  O7  1  0.75824600  0.55330900  0.15348100  1
  O  O8  1  0.66094300  0.31420000  0.62841100  1
  O  O9  1  0.83905700  0.81420000  0.12841100  1
  O  O10  1  0.33905700  0.68580000  0.37158900  1
  O  O11  1  0.16094300  0.18580000  0.87158900  1
  O  O12  1  0.13614000  0.83044000  0.62423900  1
  O  O13  1  0.36386000  0.33044000  0.12423900  1
  O  O14  1  0.86386000  0.16956000  0.37576100  1
  O  O15  1  0.63614000  0.66956000  0.87576100  1
  O  O16  1  0.66606600  0.55529000  0.55684800  1
  O  O17  1  0.83393400  0.05529000  0.05684800  1
  O  O18  1  0.33393400  0.44471000  0.44315200  1
  O  O19  1  0.16606600  0.94471000  0.94315200  1
  O  O20  1  0.16102300  0.06958800  0.55779500  1
  O  O21  1  0.33897700  0.56958800  0.05779500  1
  O  O22  1  0.83897700  0.93041200  0.44220500  1
  O  O23  1  0.66102300  0.43041200  0.94220500  1
  O  O24  1  0.61378300  0.12694100  0.46299800  1
  O  O25  1  0.88621700  0.62694100  0.96299800  1
  O  O26  1  0.38621700  0.87305900  0.53700200  1
  O  O27  1  0.11378300  0.37305900  0.03700200  1
  O  O28  1  0.10633300  0.63528700  0.46055400  1
  O  O29  1  0.39366700  0.13528700  0.96055400  1
  O  O30  1  0.89366700  0.36471300  0.53944600  1
  O  O31  1  0.60633300  0.86471300  0.03944600  1
  O  O32  1  0.47094500  0.09071300  0.33795500  1
  O  O33  1  0.02905500  0.59071300  0.83795500  1
  O  O34  1  0.52905500  0.90928700  0.66204500  1
  O  O35  1  0.97094500  0.40928700  0.16204500  1
  O  O36  1  0.97134000  0.58346000  0.33370100  1
  O  O37  1  0.52866000  0.08346000  0.83370100  1
  O  O38  1  0.02866000  0.41654000  0.66629900  1
  O  O39  1  0.47134000  0.91654000  0.16629900  1
  O  O40  1  0.40779600  0.21285600  0.56773300  1
  O  O41  1  0.09220400  0.71285600  0.06773300  1
  O  O42  1  0.59220400  0.78714400  0.43226700  1
  O  O43  1  0.90779600  0.28714400  0.93226700  1
  O  O44  1  0.90413700  0.69974800  0.56682100  1
  O  O45  1  0.59586300  0.19974800  0.06682100  1
  O  O46  1  0.09586300  0.30025200  0.43317900  1
  O  O47  1  0.40413700  0.80025200  0.93317900  1
  O  O48  1  0.77374300  0.75652000  0.33986000  1
  O  O49  1  0.72625700  0.25652000  0.83986000  1
  O  O50  1  0.22625700  0.24348000  0.66014000  1
  O  O51  1  0.27374300  0.74348000  0.16014000  1
  O  O52  1  0.28152800  0.26759900  0.34053300  1
  O  O53  1  0.21847200  0.76759900  0.84053300  1
  O  O54  1  0.71847200  0.73240100  0.65946700  1
  O  O55  1  0.78152800  0.23240100  0.15946700  1
loop_
_geom_bond_atom_site_label_1
_geom_bond_atom_site_label_2
_geom_bond_distance
_geom_bond_site_symmetry_2
Na0 O14 2.425848 1_555
Na0 O8 2.457754 1_555
Na0 O30 2.458650 1_555
Na0 O24 2.462208 1_555
Na0 O6 2.476858 1_555
Na0 O0 2.548106 1_555
Na1 O15 2.425848 1_554
Na1 O9 2.457754 1_555
Na1 O31 2.458650 1_555
Na1 O25 2.462208 1_554
Na1 O7 2.476858 1_555
Na1 O1 2.548106 1_554
Na2 O12 2.425848 1_555
Na2 O10 2.457754 1_555
Na2 O28 2.458650 1_555
Na2 O26 2.462208 1_555
Na2 O4 2.476858 1_555
Na2 O2 2.548106 1_555
Na3 O13 2.425848 1_556
Na3 O11 2.457754 1_555
Na3 O29 2.458650 1_555
Na3 O27 2.462208 1_556
Na3 O5 2.476858 1_555
Na3 O3 2.548106 1_556
Na4 O34 2.380631 1_545
Na4 O24 2.427610 1_555
Na4 O37 2.465317 1_555
Na4 O6 2.475483 1_555
Na4 O8 2.480995 1_555
Na4 O40 2.546946 1_555
Na5 O35 2.380631 1_555
Na5 O25 2.427610 1_554
Na5 O36 2.465317 1_555
Na5 O7 2.475483 1_555
Na5 O9 2.480995 1_555
Na5 O41 2.546946 1_655
Na6 O32 2.380631 1_565
Na6 O26 2.427610 1_555
Na6 O39 2.465317 1_555
Na6 O4 2.475483 1_555
Na6 O10 2.480995 1_555
Na6 O42 2.546946 1_555
Na7 O33 2.380631 1_555
Na7 O27 2.427610 1_556
Na7 O38 2.465317 1_555
Na7 O5 2.475483 1_555
Na7 O11 2.480995 1_555
Na7 O43 2.546946 1_455
Na8 O38 2.371741 1_555
Na8 O12 2.430915 1_555
Na8 O28 2.432499 1_555
Na8 O44 2.449247 1_455
Na8 O2 2.498647 1_555
Na8 O33 2.521571 1_555
Na9 O39 2.371741 1_545
Na9 O13 2.430915 1_555
Na9 O29 2.432499 1_554
Na9 O45 2.449247 1_555
Na9 O3 2.498647 1_555
Na9 O32 2.521571 1_555
Na10 O36 2.371741 1_555
Na10 O14 2.430915 1_555
Na10 O30 2.432499 1_555
Na10 O46 2.449247 1_655
Na10 O0 2.498647 1_555
Na10 O35 2.521571 1_555
Na11 O37 2.371741 1_565
Na11 O15 2.430915 1_555
Na11 O31 2.432499 1_556
Na11 O47 2.449247 1_555
Na11 O1 2.498647 1_555
Na11 O34 2.521571 1_555
Na12 O30 2.403326 1_555
Na12 O48 2.445789 1_555
Na12 O0 2.456308 1_555
Na12 O16 2.535632 1_555
Na12 O36 2.542870 1_555
Na12 O44 2.579260 1_555
Na13 O31 2.403326 1_546
Na13 O49 2.445789 1_555
Na13 O1 2.456308 1_545
Na13 O17 2.535632 1_556
Na13 O37 2.542870 1_555
Na13 O45 2.579260 1_556
Na14 O28 2.403326 1_555
Na14 O50 2.445789 1_555
Na14 O2 2.456308 1_555
Na14 O18 2.535632 1_555
Na14 O38 2.542870 1_555
Na14 O46 2.579260 1_555
Na15 O29 2.403326 1_564
Na15 O51 2.445789 1_555
Na15 O3 2.456308 1_565
Na15 O19 2.535632 1_554
Na15 O39 2.542870 1_555
Na15 O47 2.579260 1_554
Na16 O26 2.389016 1_545
Na16 O52 2.415560 1_555
Na16 O4 2.434680 1_545
Na16 O32 2.545645 1_555
Na16 O20 2.566871 1_555
Na16 O40 2.631559 1_555
Na17 O27 2.389016 1_556
Na17 O53 2.415560 1_555
Na17 O5 2.434680 1_555
Na17 O33 2.545645 1_555
Na17 O21 2.566871 1_556
Na17 O41 2.631559 1_556
Na18 O24 2.389016 1_565
Na18 O54 2.415560 1_555
Na18 O6 2.434680 1_565
Na18 O34 2.545645 1_555
Na18 O22 2.566871 1_555
Na18 O42 2.631559 1_555
Na19 O25 2.389016 1_554
Na19 O55 2.415560 1_555
Na19 O7 2.434680 1_555
Na19 O35 2.545645 1_555
Na19 O23 2.566871 1_554
Na19 O43 2.631559 1_554
H0 P0 1.424654 1_555
H1 P1 1.424654 1_545
H2 P2 1.424654 1_555
H3 P3 1.424654 1_565
H4 P3 1.424321 1_555
H5 P2 1.424321 1_555
H6 P1 1.424321 1_555
H7 P0 1.424321 1_555
H8 P4 1.424995 1_555
H9 P5 1.424995 1_555
H10 P6 1.424995 1_555
H11 P7 1.424995 1_555
H12 P8 1.423878 1_555
H13 P9 1.423878 1_555
H14 P10 1.423878 1_555
H15 P11 1.423878 1_555
H16 P4 1.422207 1_555
H17 P5 1.422207 1_556
H18 P6 1.422207 1_555
H19 P7 1.422207 1_554
H20 P8 1.420625 1_555
H21 P9 1.420625 1_555
H22 P10 1.420625 1_555
H23 P11 1.420625 1_555
H24 P12 1.424241 1_555
H25 P13 1.424241 1_555
H26 P14 1.424241 1_555
H27 P15 1.424241 1_555
H28 P16 1.421729 1_555
H29 P17 1.421729 1_555
H30 P18 1.421729 1_555
H31 P19 1.421729 1_555
H32 P12 1.429002 1_555
H33 P13 1.429002 1_555
H34 P14 1.429002 1_555
H35 P15 1.429002 1_555
H36 P16 1.432989 1_555
H37 P17 1.432989 1_555
H38 P18 1.432989 1_555
H39 P19 1.432989 1_555
H40 O40 0.988377 1_555
H41 O41 0.988377 1_555
H42 O42 0.988377 1_555
H43 O43 0.988377 1_555
H44 O44 0.986605 1_555
H45 O45 0.986605 1_555
H46 O46 0.986605 1_555
H47 O47 0.986605 1_555
H48 O40 0.990403 1_555
H49 O41 0.990403 1_555
H50 O42 0.990403 1_555
H51 O43 0.990403 1_555
H52 O44 0.988071 1_555
H53 O45 0.988071 1_555
H54 O46 0.988071 1_555
H55 O47 0.988071 1_555
H56 O48 0.993423 1_555
H57 O49 0.993423 1_555
H58 O50 0.993423 1_555
H59 O51 0.993423 1_555
H60 O52 0.988743 1_555
H61 O53 0.988743 1_555
H62 O54 0.988743 1_555
H63 O55 0.988743 1_555
H64 O48 0.992478 1_555
H65 O49 0.992478 1_555
H66 O50 0.992478 1_555
H67 O51 0.992478 1_555
H68 O52 0.990830 1_555
H69 O53 0.990830 1_555
H70 O54 0.990830 1_555
H71 O55 0.990830 1_555
O0 P0 1.522258 1_555
O1 P1 1.522258 1_555
O2 P2 1.522258 1_555
O3 P3 1.522258 1_555
O4 P3 1.520820 1_565
O5 P2 1.520820 1_555
O6 P1 1.520820 1_545
O7 P0 1.520820 1_555
O8 P4 1.520225 1_555
O9 P5 1.520225 1_555
O10 P6 1.520225 1_555
O11 P7 1.520225 1_555
O12 P8 1.522121 1_555
O13 P9 1.522121 1_555
O14 P10 1.522121 1_555
O15 P11 1.522121 1_555
O16 P4 1.527447 1_555
O17 P5 1.527447 1_545
O18 P6 1.527447 1_555
O19 P7 1.527447 1_565
O20 P8 1.525729 1_545
O21 P9 1.525729 1_555
O22 P10 1.525729 1_565
O23 P11 1.525729 1_555
O24 P12 1.521241 1_555
O25 P13 1.521241 1_555
O26 P14 1.521241 1_555
O27 P15 1.521241 1_555
O28 P16 1.518987 1_555
O29 P17 1.518987 1_555
O30 P18 1.518987 1_555
O31 P19 1.518987 1_555
O32 P12 1.519115 1_555
O33 P13 1.519115 1_455
O34 P14 1.519115 1_555
O35 P15 1.519115 1_655
O36 P16 1.520441 1_655
O37 P17 1.520441 1_555
O38 P18 1.520441 1_455
O39 P19 1.520441 1_555
