# generated using pymatgen
data_LiMn5O3F5
_symmetry_space_group_name_H-M   'P 1'
_cell_length_a   6.42729025
_cell_length_b   6.42729025
_cell_length_c   6.42728962
_cell_angle_alpha   60.27661091
_cell_angle_beta   60.27661091
_cell_angle_gamma   60.27661276
_symmetry_Int_Tables_number   1
_chemical_formula_structural   LiMn5O3F5
_chemical_formula_sum   'Li1 Mn5 O3 F5'
_cell_volume   188.92050555
_cell_formula_units_Z   1
loop_
 _symmetry_equiv_pos_site_id
 _symmetry_equiv_pos_as_xyz
  1  'x, y, z'
loop_
 _atom_site_type_symbol
 _atom_site_label
 _atom_site_symmetry_multiplicity
 _atom_site_fract_x
 _atom_site_fract_y
 _atom_site_fract_z
 _atom_site_occupancy
  Li  Li0  1  0.24675500  0.24675500  0.24675500  1
  Mn  Mn0  1  0.01633600  0.01633600  0.01633600  1
  Mn  Mn1  1  0.62151300  0.62151300  0.11010100  1
  Mn  Mn2  1  0.11010100  0.62151300  0.62151300  1
  Mn  Mn3  1  0.63185800  0.63185800  0.63185800  1
  Mn  Mn4  1  0.62151300  0.11010100  0.62151300  1
  O  O0  1  0.86844600  0.86844600  0.40511000  1
  O  O1  1  0.40511000  0.86844600  0.86844600  1
  O  O2  1  0.86844600  0.40511000  0.86844600  1
  F  F0  1  0.37575500  0.37575500  0.37575500  1
  F  F1  1  0.38239800  0.84463900  0.38239800  1
  F  F2  1  0.38239800  0.38239800  0.84463900  1
  F  F3  1  0.84463900  0.38239800  0.38239800  1
  F  F4  1  0.87473100  0.87473100  0.87473100  1
loop_
_geom_bond_atom_site_label_1
_geom_bond_atom_site_label_2
_geom_bond_distance
_geom_bond_site_symmetry_2
Mn0 O0 2.058216 1_445
Mn0 O1 2.058216 1_544
Mn0 O2 2.058216 1_454
Mn1 O1 2.091565 1_554
Mn1 O2 2.091565 1_554
Mn2 O0 2.091565 1_455
Mn2 O2 2.091565 1_455
Mn3 O2 2.155532 1_555
Mn3 O1 2.155532 1_555
Mn3 O0 2.155532 1_555
Mn4 O0 2.091565 1_545
Mn4 O1 2.091565 1_545
F0 Li0 2.026666 1_555
F0 Mn2 2.242908 1_555
F0 Mn4 2.242908 1_555
F0 Mn1 2.242908 1_555
F1 Li0 2.117744 1_565
F1 Mn1 2.262219 1_555
F1 Mn2 2.262219 1_555
F1 Mn3 2.283034 1_555
F2 Li0 2.117744 1_556
F2 Mn2 2.262219 1_555
F2 Mn4 2.262219 1_555
F2 Mn3 2.283035 1_555
F3 Li0 2.117744 1_655
F3 Mn1 2.262219 1_555
F3 Mn4 2.262219 1_555
F3 Mn3 2.283034 1_555
F4 Mn0 2.224698 1_666
F4 Mn2 2.308627 1_655
F4 Mn4 2.308627 1_565
F4 Mn1 2.308628 1_556
