# generated using pymatgen
data_Li2Cr(Si2O5)3
_symmetry_space_group_name_H-M   'P 1'
_cell_length_a   6.70326700
_cell_length_b   7.33551018
_cell_length_c   7.33864595
_cell_angle_alpha   97.51306581
_cell_angle_beta   114.08523270
_cell_angle_gamma   110.97286389
_symmetry_Int_Tables_number   1
_chemical_formula_structural   Li2Cr(Si2O5)3
_chemical_formula_sum   'Li2 Cr1 Si6 O15'
_cell_volume   290.94270657
_cell_formula_units_Z   1
loop_
 _symmetry_equiv_pos_site_id
 _symmetry_equiv_pos_as_xyz
  1  'x, y, z'
loop_
 _atom_site_type_symbol
 _atom_site_label
 _atom_site_symmetry_multiplicity
 _atom_site_fract_x
 _atom_site_fract_y
 _atom_site_fract_z
 _atom_site_occupancy
  Li  Li0  1  0.29624100  0.82923900  0.80933800  1
  Li  Li1  1  0.70375900  0.17076100  0.19066200  1
  Cr  Cr0  1  0.00000000  0.00000000  0.00000000  1
  Si  Si0  1  0.13096700  0.39299800  0.82825900  1
  Si  Si1  1  0.64665000  0.21342600  0.79750900  1
  Si  Si2  1  0.27632100  0.30401800  0.48665900  1
  Si  Si3  1  0.72367900  0.69598200  0.51334100  1
  Si  Si4  1  0.35335000  0.78657400  0.20249100  1
  Si  Si5  1  0.86903300  0.60700200  0.17174100  1
  O  O0  1  0.17646300  0.23081800  0.94733400  1
  O  O1  1  0.68989400  0.36541100  0.01390500  1
  O  O2  1  0.66126500  0.01071900  0.85467400  1
  O  O3  1  0.17464200  0.39431600  0.62660800  1
  O  O4  1  0.37658800  0.15126900  0.60091900  1
  O  O5  1  0.84567400  0.34889900  0.73544100  1
  O  O6  1  0.95419200  0.82419000  0.74942200  1
  O  O7  1  0.50000000  0.50000000  0.50000000  1
  O  O8  1  0.04580800  0.17581000  0.25057800  1
  O  O9  1  0.15432600  0.65110100  0.26455900  1
  O  O10  1  0.62341200  0.84873100  0.39908100  1
  O  O11  1  0.82535800  0.60568400  0.37339200  1
  O  O12  1  0.33873500  0.98928100  0.14532600  1
  O  O13  1  0.31010600  0.63458900  0.98609500  1
  O  O14  1  0.82353700  0.76918200  0.05266600  1
loop_
_geom_bond_atom_site_label_1
_geom_bond_atom_site_label_2
_geom_bond_distance
_geom_bond_site_symmetry_2
Li0 O13 2.052066 1_555
Li0 O6 2.136339 1_455
Li0 O2 2.181271 1_565
Li0 O12 2.443243 1_556
Li1 O1 2.052066 1_555
Li1 O8 2.136339 1_655
Li1 O12 2.181271 1_545
Li1 O2 2.443243 1_554
Cr0 O14 1.877753 1_445
Cr0 O0 1.877753 1_554
Cr0 O8 1.942818 1_555
Cr0 O6 1.942818 1_444
Cr0 O2 2.114851 1_454
Cr0 O12 2.114851 1_545
O0 Si0 1.608108 1_555
O1 Si5 1.651926 1_555
O1 Si1 1.666988 1_554
O2 Si1 1.621882 1_555
O3 Si0 1.622059 1_555
O3 Si2 1.635461 1_555
O4 Si1 1.634598 1_555
O4 Si2 1.653833 1_555
O5 Si1 1.624863 1_555
O5 Si0 1.631624 1_655
O6 Si3 1.619364 1_555
O7 Si3 1.620131 1_555
O7 Si2 1.620131 1_555
O8 Si2 1.619364 1_555
O9 Si4 1.624863 1_555
O9 Si5 1.631624 1_455
O10 Si4 1.634598 1_555
O10 Si3 1.653833 1_555
O11 Si5 1.622059 1_555
O11 Si3 1.635461 1_555
O12 Si4 1.621882 1_555
O13 Si0 1.651926 1_555
O13 Si4 1.666988 1_556
O14 Si5 1.608108 1_555
