# generated using pymatgen
data_K2O
_symmetry_space_group_name_H-M   'P 1'
_cell_length_a   7.98977200
_cell_length_b   4.10796400
_cell_length_c   4.34260171
_cell_angle_alpha   68.07329769
_cell_angle_beta   90.00000000
_cell_angle_gamma   90.00000000
_symmetry_Int_Tables_number   1
_chemical_formula_structural   K2O
_chemical_formula_sum   'K4 O2'
_cell_volume   132.22115101
_cell_formula_units_Z   2
loop_
 _symmetry_equiv_pos_site_id
 _symmetry_equiv_pos_as_xyz
  1  'x, y, z'
loop_
 _atom_site_type_symbol
 _atom_site_label
 _atom_site_symmetry_multiplicity
 _atom_site_fract_x
 _atom_site_fract_y
 _atom_site_fract_z
 _atom_site_occupancy
  K  K0  1  0.88342900  0.08257500  0.03751900  1
  K  K1  1  0.62879500  0.35759300  0.40796500  1
  K  K2  1  0.12879500  0.64240700  0.59203500  1
  K  K3  1  0.38342900  0.91742500  0.96248100  1
  O  O0  1  0.23777600  0.29007400  0.24208400  1
  O  O1  1  0.73777600  0.70992600  0.75791600  1
loop_
_geom_bond_atom_site_label_1
_geom_bond_atom_site_label_2
_geom_bond_distance
_geom_bond_site_symmetry_2
K0 O1 2.561286 1_544
K0 O1 2.670806 1_554
K0 O1 3.147687 1_545
K0 O0 3.177528 1_655
K1 O1 2.608691 1_555
K1 O1 2.669591 1_545
K1 O1 2.787546 1_554
K1 O0 3.241202 1_555
K2 O0 2.608691 1_555
K2 O0 2.669591 1_565
K2 O0 2.787546 1_556
K2 O1 3.241202 1_455
K3 O0 2.561286 1_566
K3 O0 2.670806 1_556
K3 O0 3.147687 1_565
K3 O1 3.177528 1_555
