# generated using pymatgen
data_LiV3O4
_symmetry_space_group_name_H-M   'P 1'
_cell_length_a   6.08297738
_cell_length_b   5.97776458
_cell_length_c   5.97779154
_cell_angle_alpha   90.21968225
_cell_angle_beta   60.20487114
_cell_angle_gamma   119.79534081
_symmetry_Int_Tables_number   1
_chemical_formula_structural   LiV3O4
_chemical_formula_sum   'Li2 V6 O8'
_cell_volume   154.93571277
_cell_formula_units_Z   2
loop_
 _symmetry_equiv_pos_site_id
 _symmetry_equiv_pos_as_xyz
  1  'x, y, z'
loop_
 _atom_site_type_symbol
 _atom_site_label
 _atom_site_symmetry_multiplicity
 _atom_site_fract_x
 _atom_site_fract_y
 _atom_site_fract_z
 _atom_site_occupancy
  Li  Li0  1  0.99993803  0.50001829  -0.00000614  1
  Li  Li1  1  0.49993706  0.50001876  -0.00000755  1
  V  V0  1  0.99997674  0.00002853  0.50001298  1
  V  V1  1  0.99997176  0.50002124  0.50001507  1
  V  V2  1  0.49997251  0.50002159  0.50001236  1
  V  V3  1  0.49997550  0.00002913  0.50001643  1
  V  V4  1  0.49996910  0.00002340  0.00002067  1
  V  V5  1  0.99996840  0.00002338  0.00002391  1
  O  O0  1  0.01528710  0.76272330  0.73735816  1
  O  O1  1  0.51528926  0.76268585  0.73731382  1
  O  O2  1  0.48465503  0.23735093  0.26271794  1
  O  O3  1  -0.01534526  0.23731036  0.26268006  1
  O  O4  1  -0.00005876  0.75396011  0.25392981  1
  O  O5  1  0.50001766  0.75394635  0.25394581  1
  O  O6  1  0.49993449  0.24609221  0.74608400  1
  O  O7  1  0.00001838  0.24608758  0.74609465  1
loop_
_geom_bond_atom_site_label_1
_geom_bond_atom_site_label_2
_geom_bond_distance
_geom_bond_site_symmetry_2
Li0 O7 2.142441 1_654
Li0 O4 2.142643 1_655
Li0 O0 2.160369 1_654
Li0 O3 2.160867 1_655
Li0 O2 2.234353 1_555
Li0 O1 2.234643 1_654
Li1 O6 2.142463 1_554
Li1 O5 2.142656 1_555
Li1 O1 2.160377 1_554
Li1 O2 2.160868 1_555
Li1 O3 2.234350 1_555
Li1 O0 2.234637 1_654
O0 V0 2.076538 1_465
O0 V3 2.102335 1_565
O0 V5 2.110729 1_466
O0 V1 2.111062 1_455
O1 V3 2.076512 1_565
O1 V0 2.102331 1_565
O1 V2 2.110727 1_555
O1 V4 2.111061 1_566
O2 V3 2.076455 1_555
O2 V0 2.102293 1_455
O2 V2 2.110726 1_555
O2 V4 2.110978 1_555
O3 V0 2.076439 1_455
O3 V3 2.102297 1_455
O3 V5 2.110634 1_455
O3 V1 2.111066 1_455
O4 V0 2.076297 1_465
O4 V5 2.117524 1_465
O4 V1 2.118003 1_455
O4 V2 2.168103 1_455
O4 V4 2.168362 1_565
O5 V3 2.076305 1_565
O5 V2 2.117541 1_555
O5 V4 2.117987 1_565
O5 V5 2.168024 1_565
O5 V1 2.168440 1_455
O6 V3 2.076209 1_555
O6 V2 2.117613 1_555
O6 V4 2.117943 1_556
O6 V5 2.168093 1_456
O6 V1 2.168403 1_555
O7 V0 2.076251 1_455
O7 V5 2.117531 1_456
O7 V1 2.118026 1_455
O7 V2 2.168039 1_555
O7 V4 2.168456 1_456
