# generated using pymatgen
data_Li3MnO4
_symmetry_space_group_name_H-M   'P 1'
_cell_length_a   7.10541108
_cell_length_b   7.10541108
_cell_length_c   7.10541108
_cell_angle_alpha   109.47122063
_cell_angle_beta   109.47122063
_cell_angle_gamma   109.47122063
_symmetry_Int_Tables_number   1
_chemical_formula_structural   Li3MnO4
_chemical_formula_sum   'Li12 Mn4 O16'
_cell_volume   276.15043773
_cell_formula_units_Z   4
loop_
 _symmetry_equiv_pos_site_id
 _symmetry_equiv_pos_as_xyz
  1  'x, y, z'
loop_
 _atom_site_type_symbol
 _atom_site_label
 _atom_site_symmetry_multiplicity
 _atom_site_fract_x
 _atom_site_fract_y
 _atom_site_fract_z
 _atom_site_occupancy
  Li  Li0  1  0.73873000  0.48383400  0.00000000  1
  Li  Li1  1  0.26127000  0.74510300  0.26127000  1
  Li  Li2  1  0.74510300  0.26127000  0.26127000  1
  Li  Li3  1  0.26127000  0.26127000  0.74510300  1
  Li  Li4  1  0.51616600  0.25489700  0.51616600  1
  Li  Li5  1  0.25489700  0.51616600  0.51616600  1
  Li  Li6  1  0.51616600  0.51616600  0.25489700  1
  Li  Li7  1  0.00000000  0.73873000  0.48383400  1
  Li  Li8  1  0.48383400  0.73873000  0.00000000  1
  Li  Li9  1  0.73873000  0.00000000  0.48383400  1
  Li  Li10  1  0.48383400  0.00000000  0.73873000  1
  Li  Li11  1  0.00000000  0.48383400  0.73873000  1
  Mn  Mn0  1  0.73706000  0.73706000  0.73706000  1
  Mn  Mn1  1  0.00000000  0.00000000  0.26294000  1
  Mn  Mn2  1  0.26294000  0.00000000  0.00000000  1
  Mn  Mn3  1  0.00000000  0.26294000  0.00000000  1
  O  O0  1  0.22748200  0.22748200  0.22748200  1
  O  O1  1  0.00000000  0.47647500  0.23435500  1
  O  O2  1  0.00000000  0.77251800  0.00000000  1
  O  O3  1  0.47647500  0.23435500  0.00000000  1
  O  O4  1  0.23435500  0.47647500  0.00000000  1
  O  O5  1  0.00000000  0.23435500  0.47647500  1
  O  O6  1  0.76564500  0.76564500  0.24212000  1
  O  O7  1  0.23435500  0.00000000  0.47647500  1
  O  O8  1  0.47647500  0.00000000  0.23435500  1
  O  O9  1  0.76564500  0.24212000  0.76564500  1
  O  O10  1  0.24212000  0.76564500  0.76564500  1
  O  O11  1  0.77251800  0.00000000  0.00000000  1
  O  O12  1  0.75788000  0.52352500  0.52352500  1
  O  O13  1  0.52352500  0.75788000  0.52352500  1
  O  O14  1  0.52352500  0.52352500  0.75788000  1
  O  O15  1  0.00000000  0.00000000  0.77251800  1
loop_
_geom_bond_atom_site_label_1
_geom_bond_atom_site_label_2
_geom_bond_distance
_geom_bond_site_symmetry_2
Li0 O6 2.057809 1_555
Li0 O14 2.057809 1_554
Li0 O1 2.069737 1_655
Li0 O9 2.069737 1_554
Li0 O3 2.100600 1_555
Li0 O2 2.261681 1_655
Li1 O7 2.057814 1_565
Li1 O8 2.057814 1_565
Li1 O4 2.069733 1_555
Li1 O1 2.069733 1_555
Li1 O13 2.100596 1_555
Li1 O2 2.261686 1_555
Li2 O5 2.057814 1_655
Li2 O1 2.057814 1_655
Li2 O3 2.069733 1_555
Li2 O8 2.069733 1_555
Li2 O12 2.100596 1_555
Li2 O11 2.261686 1_555
Li3 O4 2.057814 1_556
Li3 O3 2.057814 1_556
Li3 O5 2.069733 1_555
Li3 O7 2.069733 1_555
Li3 O14 2.100596 1_555
Li3 O15 2.261686 1_555
Li4 O8 2.057812 1_555
Li4 O7 2.057812 1_555
Li4 O12 2.069733 1_555
Li4 O14 2.069733 1_555
Li4 O9 2.100604 1_555
Li4 O0 2.261678 1_555
Li5 O1 2.057812 1_555
Li5 O5 2.057812 1_555
Li5 O13 2.069733 1_555
Li5 O14 2.069733 1_555
Li5 O10 2.100604 1_555
Li5 O0 2.261678 1_555
Li6 O3 2.057812 1_555
Li6 O4 2.057812 1_555
Li6 O12 2.069733 1_555
Li6 O13 2.069733 1_555
Li6 O6 2.100604 1_555
Li6 O0 2.261678 1_555
Li7 O10 2.057809 1_555
Li7 O12 2.057809 1_455
Li7 O6 2.069737 1_455
Li7 O7 2.069737 1_565
Li7 O1 2.100600 1_555
Li7 O15 2.261681 1_565
Li8 O6 2.057809 1_555
Li8 O14 2.057809 1_554
Li8 O8 2.069737 1_565
Li8 O10 2.069737 1_554
Li8 O4 2.100600 1_555
Li8 O11 2.261681 1_565
Li9 O13 2.057809 1_545
Li9 O9 2.057809 1_555
Li9 O6 2.069737 1_545
Li9 O5 2.069737 1_655
Li9 O8 2.100600 1_555
Li9 O15 2.261681 1_655
Li10 O13 2.057809 1_545
Li10 O9 2.057809 1_555
Li10 O3 2.069737 1_556
Li10 O10 2.069737 1_545
Li10 O7 2.100600 1_555
Li10 O11 2.261681 1_556
Li11 O10 2.057809 1_555
Li11 O12 2.057809 1_455
Li11 O4 2.069737 1_556
Li11 O9 2.069737 1_455
Li11 O5 2.100600 1_555
Li11 O2 2.261681 1_556
Mn0 O14 1.841350 1_555
Mn0 O13 1.841350 1_555
Mn0 O12 1.841350 1_555
Mn0 O11 2.022353 1_566
Mn0 O2 2.022353 1_656
Mn0 O15 2.022353 1_665
Mn1 O5 1.841350 1_555
Mn1 O6 1.841350 1_445
Mn1 O7 1.841350 1_555
Mn1 O11 2.022353 1_455
Mn1 O2 2.022353 1_545
Mn1 O0 2.022353 1_555
Mn2 O10 1.841350 1_544
Mn2 O3 1.841350 1_555
Mn2 O8 1.841350 1_555
Mn2 O15 2.022353 1_554
Mn2 O2 2.022353 1_545
Mn2 O0 2.022353 1_555
Mn3 O1 1.841350 1_555
Mn3 O9 1.841350 1_454
Mn3 O4 1.841350 1_555
Mn3 O15 2.022353 1_554
Mn3 O11 2.022353 1_455
Mn3 O0 2.022353 1_555
