# generated using pymatgen
data_LiMnBO3
_symmetry_space_group_name_H-M   'P 1'
_cell_length_a   7.04709166
_cell_length_b   7.69941706
_cell_length_c   5.59929456
_cell_angle_alpha   89.98639505
_cell_angle_beta   71.76090763
_cell_angle_gamma   89.99131583
_symmetry_Int_Tables_number   1
_chemical_formula_structural   LiMnBO3
_chemical_formula_sum   'Li4 Mn4 B4 O12'
_cell_volume   288.54553571
_cell_formula_units_Z   4
loop_
 _symmetry_equiv_pos_site_id
 _symmetry_equiv_pos_as_xyz
  1  'x, y, z'
loop_
 _atom_site_type_symbol
 _atom_site_label
 _atom_site_symmetry_multiplicity
 _atom_site_fract_x
 _atom_site_fract_y
 _atom_site_fract_z
 _atom_site_occupancy
  Li  Li0  1  0.09147800  0.06155000  0.76344500  1
  Li  Li1  1  0.40835200  0.56153800  0.73656700  1
  Li  Li2  1  0.59149000  0.43854900  0.26330400  1
  Li  Li3  1  0.90840000  0.93845600  0.23649900  1
  Mn  Mn0  1  0.25706600  0.24939000  0.14333000  1
  Mn  Mn1  1  0.24320100  0.74978800  0.35668100  1
  Mn  Mn2  1  0.75684500  0.25045500  0.64323200  1
  Mn  Mn3  1  0.74306900  0.75033700  0.85686200  1
  B  B0  1  0.19407700  0.37232500  0.60856600  1
  B  B1  1  0.30592800  0.87231600  0.89142700  1
  B  B2  1  0.69409300  0.12763700  0.10841800  1
  B  B3  1  0.80593900  0.62768600  0.39156000  1
  O  O0  1  0.19336400  0.98739000  0.07534300  1
  O  O1  1  0.07753200  0.25024200  0.53117700  1
  O  O2  1  0.30654800  0.48747000  0.42446400  1
  O  O3  1  0.21373400  0.37195400  0.84282100  1
  O  O4  1  0.28651200  0.87210000  0.65708400  1
  O  O5  1  0.57755200  0.24976200  0.03100700  1
  O  O6  1  0.42244200  0.75025000  0.96894900  1
  O  O7  1  0.71353700  0.12797300  0.34290400  1
  O  O8  1  0.78645000  0.62796800  0.15719000  1
  O  O9  1  0.69338000  0.51258600  0.57571300  1
  O  O10  1  0.92246400  0.74977100  0.46896500  1
  O  O11  1  0.80654600  0.01250600  0.92449100  1
loop_
_geom_bond_atom_site_label_1
_geom_bond_atom_site_label_2
_geom_bond_distance
_geom_bond_site_symmetry_2
Li0 O11 1.963218 1_455
Li0 O4 1.964387 1_545
Li0 O1 1.972512 1_555
Li0 O0 2.162362 1_546
Li1 O3 1.963431 1_555
Li1 O9 1.963493 1_555
Li1 O6 1.973793 1_555
Li1 O2 2.163160 1_555
Li2 O2 1.963152 1_555
Li2 O8 1.963878 1_555
Li2 O5 1.973623 1_555
Li2 O9 2.165014 1_555
Li3 O0 1.963339 1_655
Li3 O7 1.964063 1_565
Li3 O10 1.973434 1_555
Li3 O11 2.162569 1_564
Mn0 O3 2.033673 1_554
Mn0 O0 2.126814 1_545
Mn0 O1 2.144065 1_555
Mn0 O5 2.146442 1_555
Mn0 O2 2.510953 1_555
Mn1 O4 2.032607 1_555
Mn1 O2 2.127892 1_555
Mn1 O6 2.142960 1_554
Mn1 O10 2.148147 1_455
Mn1 O0 2.509252 1_555
Mn2 O7 2.032839 1_555
Mn2 O9 2.126386 1_555
Mn2 O5 2.143263 1_556
Mn2 O1 2.147856 1_655
Mn2 O11 2.510581 1_555
Mn3 O8 2.032232 1_556
Mn3 O11 2.127135 1_565
Mn3 O10 2.144024 1_555
Mn3 O6 2.147443 1_555
Mn3 O9 2.509650 1_555
B0 O3 1.361393 1_555
B0 O2 1.401838 1_555
B0 O1 1.403229 1_555
B1 O4 1.361199 1_555
B1 O0 1.401288 1_556
B1 O6 1.403054 1_555
B2 O7 1.362077 1_555
B2 O11 1.401338 1_554
B2 O5 1.403182 1_555
B3 O8 1.361556 1_555
B3 O9 1.401986 1_555
B3 O10 1.403187 1_555
