# generated using pymatgen
data_Li4V3CrO8
_symmetry_space_group_name_H-M   'P 1'
_cell_length_a   5.97231900
_cell_length_b   5.19659700
_cell_length_c   5.21031716
_cell_angle_alpha   70.06538405
_cell_angle_beta   90.00000000
_cell_angle_gamma   90.00000000
_symmetry_Int_Tables_number   1
_chemical_formula_structural   Li4V3CrO8
_chemical_formula_sum   'Li4 V3 Cr1 O8'
_cell_volume   152.01697156
_cell_formula_units_Z   1
loop_
 _symmetry_equiv_pos_site_id
 _symmetry_equiv_pos_as_xyz
  1  'x, y, z'
loop_
 _atom_site_type_symbol
 _atom_site_label
 _atom_site_symmetry_multiplicity
 _atom_site_fract_x
 _atom_site_fract_y
 _atom_site_fract_z
 _atom_site_occupancy
  Li  Li0  1  0.25189900  0.00000000  0.00000000  1
  Li  Li1  1  0.74810100  0.00000000  0.00000000  1
  Li  Li2  1  0.50000000  0.00000000  0.50000000  1
  Li  Li3  1  0.00000000  0.00000000  0.50000000  1
  V  V0  1  0.00000000  0.50000000  0.00000000  1
  V  V1  1  0.25009400  0.50000000  0.50000000  1
  V  V2  1  0.74990600  0.50000000  0.50000000  1
  Cr  Cr0  1  0.50000000  0.50000000  0.00000000  1
  O  O0  1  0.25303600  0.72943200  0.76092300  1
  O  O1  1  0.74696400  0.72943200  0.76092300  1
  O  O2  1  0.50000000  0.27796000  0.74322900  1
  O  O3  1  0.50000000  0.72204000  0.25677100  1
  O  O4  1  0.00000000  0.27483800  0.74174300  1
  O  O5  1  0.25303600  0.27056800  0.23907700  1
  O  O6  1  0.00000000  0.72516200  0.25825700  1
  O  O7  1  0.74696400  0.27056800  0.23907700  1
loop_
_geom_bond_atom_site_label_1
_geom_bond_atom_site_label_2
_geom_bond_distance
_geom_bond_site_symmetry_2
Li0 O5 2.173238 1_555
Li0 O0 2.173238 1_544
Li0 O2 2.180390 1_554
Li0 O3 2.180390 1_545
Li0 O4 2.191635 1_554
Li0 O6 2.191635 1_545
Li1 O7 2.173238 1_555
Li1 O1 2.173238 1_544
Li1 O2 2.180390 1_554
Li1 O3 2.180390 1_545
Li1 O4 2.191635 1_654
Li1 O6 2.191635 1_645
Li2 O5 2.167298 1_555
Li2 O1 2.167298 1_545
Li2 O7 2.167298 1_555
Li2 O0 2.167298 1_545
Li2 O2 2.222772 1_555
Li2 O3 2.222772 1_545
Li3 O5 2.192138 1_555
Li3 O7 2.192138 1_455
Li3 O0 2.192138 1_545
Li3 O1 2.192138 1_445
Li3 O6 2.202949 1_545
Li3 O4 2.202949 1_555
Cr0 O0 2.033698 1_554
Cr0 O1 2.033698 1_554
Cr0 O7 2.033698 1_555
Cr0 O5 2.033698 1_555
Cr0 O2 2.043007 1_554
Cr0 O3 2.043007 1_555
O0 V0 2.060150 1_556
O0 V1 2.091719 1_555
O1 V0 2.060150 1_656
O1 V2 2.091719 1_555
O2 V2 2.041548 1_555
O2 V1 2.041548 1_555
O3 V2 2.041548 1_555
O3 V1 2.041548 1_555
O4 V1 2.044888 1_555
O4 V2 2.044888 1_455
O4 V0 2.062361 1_556
O5 V0 2.060150 1_555
O5 V1 2.091719 1_555
O6 V1 2.044888 1_555
O6 V2 2.044888 1_455
O6 V0 2.062361 1_555
O7 V0 2.060150 1_655
O7 V2 2.091719 1_555
