# generated using pymatgen
data_TiBi2O5
_symmetry_space_group_name_H-M   'P 1'
_cell_length_a   3.91219670
_cell_length_b   11.23216005
_cell_length_c   10.98733620
_cell_angle_alpha   90.00000000
_cell_angle_beta   90.00000000
_cell_angle_gamma   90.00000000
_symmetry_Int_Tables_number   1
_chemical_formula_structural   TiBi2O5
_chemical_formula_sum   'Ti4 Bi8 O20'
_cell_volume   482.81013628
_cell_formula_units_Z   4
loop_
 _symmetry_equiv_pos_site_id
 _symmetry_equiv_pos_as_xyz
  1  'x, y, z'
loop_
 _atom_site_type_symbol
 _atom_site_label
 _atom_site_symmetry_multiplicity
 _atom_site_fract_x
 _atom_site_fract_y
 _atom_site_fract_z
 _atom_site_occupancy
  Ti  Ti0  1  0.25000000  0.20924257  0.63323879  1
  Ti  Ti1  1  0.75000000  0.29075743  0.13323879  1
  Ti  Ti2  1  0.25000000  0.70924257  0.86676121  1
  Ti  Ti3  1  0.75000000  0.79075743  0.36676121  1
  Bi  Bi0  1  0.25000000  0.08452683  0.28372834  1
  Bi  Bi1  1  0.25000000  0.13596233  0.94337019  1
  Bi  Bi2  1  0.75000000  0.36403767  0.44337019  1
  Bi  Bi3  1  0.75000000  0.41547317  0.78372834  1
  Bi  Bi4  1  0.25000000  0.58452683  0.21627166  1
  Bi  Bi5  1  0.25000000  0.63596233  0.55662981  1
  Bi  Bi6  1  0.75000000  0.86403767  0.05662981  1
  Bi  Bi7  1  0.75000000  0.91547317  0.71627166  1
  O  O0  1  0.75000000  -0.00632960  0.89900194  1
  O  O1  1  0.25000000  0.05862315  0.68221621  1
  O  O2  1  0.25000000  0.25056244  0.46645250  1
  O  O3  1  0.75000000  0.19008581  0.27075383  1
  O  O4  1  0.75000000  0.25121260  0.62767179  1
  O  O5  1  0.25000000  0.24878740  0.12767179  1
  O  O6  1  0.25000000  0.30991419  0.77075383  1
  O  O7  1  0.75000000  0.24943756  0.96645250  1
  O  O8  1  0.75000000  0.44137685  0.18221621  1
  O  O9  1  0.25000000  0.50632960  0.39900194  1
  O  O10  1  0.75000000  0.49367040  0.60099806  1
  O  O11  1  0.25000000  0.55862315  0.81778379  1
  O  O12  1  0.25000000  0.75056244  0.03354750  1
  O  O13  1  0.75000000  0.69008581  0.22924617  1
  O  O14  1  0.75000000  0.75121260  0.87232821  1
  O  O15  1  0.25000000  0.74878740  0.37232821  1
  O  O16  1  0.25000000  0.80991419  0.72924617  1
  O  O17  1  0.75000000  0.74943756  0.53354750  1
  O  O18  1  0.75000000  0.94137685  0.31778379  1
  O  O19  1  0.25000000  0.00632960  0.10099806  1
loop_
_geom_bond_atom_site_label_1
_geom_bond_atom_site_label_2
_geom_bond_distance
_geom_bond_site_symmetry_2
Bi0 O19 2.191435 1_555
Bi0 O3 2.291816 1_555
Bi0 O3 2.291816 1_455
Bi0 O5 2.518738 1_555
Bi0 O18 2.559613 1_445
Bi0 O18 2.559613 1_545
Bi0 O2 2.740194 1_555
Bi1 O19 2.262656 1_556
Bi1 O7 2.348441 1_555
Bi1 O7 2.348441 1_455
Bi1 O5 2.388834 1_556
Bi1 O0 2.572616 1_555
Bi1 O0 2.572616 1_455
Bi1 O6 2.722980 1_555
Bi2 O10 2.262656 1_555
Bi2 O2 2.348441 1_655
Bi2 O2 2.348441 1_555
Bi2 O4 2.388834 1_555
Bi2 O9 2.572616 1_555
Bi2 O9 2.572616 1_655
Bi2 O3 2.722980 1_555
Bi3 O10 2.191435 1_555
Bi3 O6 2.291816 1_655
Bi3 O6 2.291816 1_555
Bi3 O4 2.518738 1_555
Bi3 O11 2.559613 1_655
Bi3 O11 2.559613 1_555
Bi3 O7 2.740194 1_555
Bi4 O9 2.191435 1_555
Bi4 O13 2.291816 1_555
Bi4 O13 2.291816 1_455
Bi4 O15 2.518738 1_555
Bi4 O8 2.559613 1_455
Bi4 O8 2.559613 1_555
Bi4 O12 2.740194 1_555
Bi5 O9 2.262656 1_555
Bi5 O17 2.348441 1_455
Bi5 O17 2.348441 1_555
Bi5 O15 2.388834 1_555
Bi5 O10 2.572616 1_455
Bi5 O10 2.572616 1_555
Bi5 O16 2.722980 1_555
Bi6 O0 2.262656 1_564
Bi6 O12 2.348441 1_555
Bi6 O12 2.348441 1_655
Bi6 O14 2.388834 1_554
Bi6 O19 2.572616 1_565
Bi6 O19 2.572616 1_665
Bi6 O13 2.722980 1_555
Bi7 O0 2.191435 1_565
Bi7 O16 2.291816 1_655
Bi7 O16 2.291816 1_555
Bi7 O14 2.518738 1_555
Bi7 O1 2.559613 1_565
Bi7 O1 2.559613 1_665
Bi7 O17 2.740194 1_555
O1 Ti0 1.775306 1_555
O2 Ti0 1.890395 1_555
O3 Ti1 1.887196 1_555
O4 Ti0 2.013031 1_555
O4 Ti0 2.013031 1_655
O5 Ti1 2.013031 1_555
O5 Ti1 2.013031 1_455
O6 Ti0 1.887196 1_555
O7 Ti1 1.890395 1_556
O8 Ti1 1.775306 1_555
O11 Ti2 1.775306 1_555
O12 Ti2 1.890395 1_554
O13 Ti3 1.887196 1_555
O14 Ti2 2.013031 1_655
O14 Ti2 2.013031 1_555
O15 Ti3 2.013031 1_555
O15 Ti3 2.013031 1_455
O16 Ti2 1.887196 1_555
O17 Ti3 1.890395 1_555
O18 Ti3 1.775306 1_555
