# generated using pymatgen
data_Co2OF3
_symmetry_space_group_name_H-M   'P 1'
_cell_length_a   10.08497686
_cell_length_b   10.08497686
_cell_length_c   4.80451355
_cell_angle_alpha   87.44433044
_cell_angle_beta   87.44433044
_cell_angle_gamma   35.22388549
_symmetry_Int_Tables_number   1
_chemical_formula_structural   Co2OF3
_chemical_formula_sum   'Co8 O4 F12'
_cell_volume   281.53235738
_cell_formula_units_Z   4
loop_
 _symmetry_equiv_pos_site_id
 _symmetry_equiv_pos_as_xyz
  1  'x, y, z'
loop_
 _atom_site_type_symbol
 _atom_site_label
 _atom_site_symmetry_multiplicity
 _atom_site_fract_x
 _atom_site_fract_y
 _atom_site_fract_z
 _atom_site_occupancy
  Co  Co0  1  0.86831000  0.38182000  0.49928600  1
  Co  Co1  1  0.38182000  0.86831000  0.49928600  1
  Co  Co2  1  0.13169000  0.61818000  0.50071400  1
  Co  Co3  1  0.61818000  0.13169000  0.50071400  1
  Co  Co4  1  0.50000000  0.50000000  0.00000000  1
  Co  Co5  1  0.23999700  0.23999700  0.03959900  1
  Co  Co6  1  0.00000000  0.00000000  0.00000000  1
  Co  Co7  1  0.76000300  0.76000300  0.96040100  1
  O  O0  1  0.82976400  0.82976400  0.68060700  1
  O  O1  1  0.58165600  0.58165600  0.67296600  1
  O  O2  1  0.17023600  0.17023600  0.31939300  1
  O  O3  1  0.41834400  0.41834400  0.32703400  1
  F  F0  1  0.95163700  0.45228400  0.80739300  1
  F  F1  1  0.20118700  0.70040000  0.80478900  1
  F  F2  1  0.45228400  0.95163700  0.80739300  1
  F  F3  1  0.70040000  0.20118700  0.80478900  1
  F  F4  1  0.07526000  0.07526000  0.70123300  1
  F  F5  1  0.31954100  0.31954100  0.71712000  1
  F  F6  1  0.92474000  0.92474000  0.29876700  1
  F  F7  1  0.68045900  0.68045900  0.28288000  1
  F  F8  1  0.54771600  0.04836300  0.19260700  1
  F  F9  1  0.04836300  0.54771600  0.19260700  1
  F  F10  1  0.79881300  0.29960000  0.19521100  1
  F  F11  1  0.29960000  0.79881300  0.19521100  1
loop_
_geom_bond_atom_site_label_1
_geom_bond_atom_site_label_2
_geom_bond_distance
_geom_bond_site_symmetry_2
Co0 O1 1.879157 1_555
Co0 O2 1.971329 1_655
Co0 F4 2.055842 1_655
Co0 F7 2.077296 1_555
Co0 F10 2.112332 1_555
Co0 F0 2.140772 1_555
Co1 O1 1.879157 1_555
Co1 O2 1.971329 1_565
Co1 F4 2.055842 1_565
Co1 F7 2.077296 1_555
Co1 F11 2.112332 1_555
Co1 F2 2.140772 1_555
Co2 O3 1.879157 1_555
Co2 O0 1.971329 1_455
Co2 F6 2.055842 1_455
Co2 F5 2.077296 1_555
Co2 F1 2.112332 1_555
Co2 F9 2.140772 1_555
Co3 O3 1.879157 1_555
Co3 O0 1.971329 1_545
Co3 F6 2.055842 1_545
Co3 F5 2.077296 1_555
Co3 F3 2.112332 1_555
Co3 F8 2.140772 1_555
Co4 F3 2.044005 1_554
Co4 F1 2.044005 1_554
Co4 F10 2.044005 1_555
Co4 F11 2.044005 1_555
Co4 O1 2.168474 1_554
Co4 O3 2.168474 1_555
Co5 O2 1.853915 1_555
Co5 F9 2.045483 1_555
Co5 F8 2.045483 1_555
Co5 F2 2.046818 1_544
Co5 F0 2.046818 1_454
Co5 F5 2.125385 1_554
Co6 F6 1.989845 1_445
Co6 F4 1.989845 1_554
Co6 F3 2.047587 1_454
Co6 F10 2.047587 1_455
Co6 F11 2.047587 1_545
Co6 F1 2.047587 1_544
Co7 O0 1.853915 1_555
Co7 F0 2.045483 1_555
Co7 F2 2.045483 1_555
Co7 F8 2.046818 1_566
Co7 F9 2.046818 1_656
Co7 F7 2.125385 1_556
