# generated using pymatgen
data_Li7CrO6
_symmetry_space_group_name_H-M   'P 1'
_cell_length_a   5.58863797
_cell_length_b   5.58863797
_cell_length_c   10.73392005
_cell_angle_alpha   89.97812441
_cell_angle_beta   89.97812441
_cell_angle_gamma   60.61512287
_symmetry_Int_Tables_number   1
_chemical_formula_structural   Li7CrO6
_chemical_formula_sum   'Li14 Cr2 O12'
_cell_volume   292.11885458
_cell_formula_units_Z   2
loop_
 _symmetry_equiv_pos_site_id
 _symmetry_equiv_pos_as_xyz
  1  'x, y, z'
loop_
 _atom_site_type_symbol
 _atom_site_label
 _atom_site_symmetry_multiplicity
 _atom_site_fract_x
 _atom_site_fract_y
 _atom_site_fract_z
 _atom_site_occupancy
  Li  Li0  1  0.00101600  0.62181200  0.25890500  1
  Li  Li1  1  0.99958500  0.61333800  0.86191500  1
  Li  Li2  1  0.32011100  0.70735000  0.73831100  1
  Li  Li3  1  0.02657000  0.29156800  0.74163500  1
  Li  Li4  1  0.38695500  0.61452800  0.36325400  1
  Li  Li5  1  0.33441100  0.34802200  0.59292200  1
  Li  Li6  1  0.65080400  0.68838600  0.09198600  1
  Li  Li7  1  0.34802200  0.33441100  0.09292200  1
  Li  Li8  1  0.68838600  0.65080400  0.59198600  1
  Li  Li9  1  0.61452800  0.38695500  0.86325400  1
  Li  Li10  1  0.29156800  0.02657000  0.24163500  1
  Li  Li11  1  0.70735000  0.32011100  0.23831100  1
  Li  Li12  1  0.61333800  0.99958500  0.36191500  1
  Li  Li13  1  0.62181200  0.00101600  0.75890500  1
  Cr  Cr0  1  0.99526100  0.00906600  0.50199100  1
  Cr  Cr1  1  0.00906600  0.99526100  0.00199100  1
  O  O0  1  0.99834100  0.70411700  0.04790700  1
  O  O1  1  0.29717100  0.71290100  0.54849600  1
  O  O2  1  0.01657100  0.28515900  0.55358900  1
  O  O3  1  0.32534800  0.36313300  0.77483400  1
  O  O4  1  0.63751100  0.68944800  0.27373700  1
  O  O5  1  0.98147200  0.99670000  0.83867300  1
  O  O6  1  0.99670000  0.98147200  0.33867300  1
  O  O7  1  0.36313300  0.32534800  0.27483400  1
  O  O8  1  0.68944800  0.63751100  0.77373700  1
  O  O9  1  0.28515900  0.01657100  0.05358900  1
  O  O10  1  0.71290100  0.29717100  0.04849600  1
  O  O11  1  0.70411700  0.99834100  0.54790700  1
loop_
_geom_bond_atom_site_label_1
_geom_bond_atom_site_label_2
_geom_bond_distance
_geom_bond_site_symmetry_2
Li0 O4 1.881871 1_455
Li0 O7 1.891941 1_555
Li0 O6 2.174295 1_455
Li0 O0 2.309494 1_455
Li1 O3 1.909164 1_655
Li1 O8 1.920835 1_555
Li1 O0 2.059233 1_556
Li1 O5 2.109372 1_555
Li2 O8 1.940952 1_555
Li2 O3 1.949196 1_555
Li2 O1 2.040805 1_555
Li2 O5 2.086533 1_455
Li3 O3 1.931576 1_555
Li3 O8 1.957461 1_455
Li3 O2 2.020083 1_555
Li3 O5 2.066430 1_445
Li4 O4 1.906134 1_555
Li4 O7 1.934623 1_555
Li4 O1 2.058399 1_555
Li4 O6 2.154679 1_455
Li5 O3 1.954050 1_555
Li5 O1 2.002950 1_555
Li5 O2 2.017420 1_555
Li5 O11 2.087828 1_545
Li6 O4 1.952187 1_555
Li6 O9 2.007882 1_565
Li6 O0 2.042252 1_555
Li6 O10 2.091549 1_555
Li7 O7 1.954050 1_555
Li7 O10 2.002950 1_555
Li7 O9 2.017420 1_555
Li7 O0 2.087828 1_455
Li8 O8 1.952187 1_555
Li8 O2 2.007882 1_655
Li8 O11 2.042252 1_555
Li8 O1 2.091549 1_555
Li9 O8 1.906134 1_555
Li9 O3 1.934623 1_555
Li9 O10 2.058399 1_556
Li9 O5 2.154679 1_545
Li10 O7 1.931576 1_555
Li10 O4 1.957461 1_545
Li10 O9 2.020083 1_555
Li10 O6 2.066430 1_445
Li11 O4 1.940952 1_555
Li11 O7 1.949196 1_555
Li11 O10 2.040805 1_555
Li11 O6 2.086533 1_545
Li12 O7 1.909164 1_565
Li12 O4 1.920835 1_555
Li12 O11 2.059233 1_555
Li12 O6 2.109372 1_555
Li13 O8 1.881871 1_545
Li13 O3 1.891941 1_555
Li13 O5 2.174295 1_545
Li13 O11 2.309494 1_545
Cr0 O2 1.697871 1_655
Cr0 O11 1.728879 1_545
Cr0 O1 1.759264 1_645
Cr0 O6 1.759540 1_545
Cr1 O9 1.697871 1_565
Cr1 O0 1.728879 1_455
Cr1 O10 1.759264 1_465
Cr1 O5 1.759540 1_454
