# generated using pymatgen
data_Li4Ti3Cr3(SnO8)2
_symmetry_space_group_name_H-M   'P 1'
_cell_length_a   5.96576771
_cell_length_b   5.96576771
_cell_length_c   9.81762276
_cell_angle_alpha   89.91400109
_cell_angle_beta   89.91400109
_cell_angle_gamma   60.08685576
_symmetry_Int_Tables_number   1
_chemical_formula_structural   Li4Ti3Cr3(SnO8)2
_chemical_formula_sum   'Li4 Ti3 Cr3 Sn2 O16'
_cell_volume   302.86454404
_cell_formula_units_Z   1
loop_
 _symmetry_equiv_pos_site_id
 _symmetry_equiv_pos_as_xyz
  1  'x, y, z'
loop_
 _atom_site_type_symbol
 _atom_site_label
 _atom_site_symmetry_multiplicity
 _atom_site_fract_x
 _atom_site_fract_y
 _atom_site_fract_z
 _atom_site_occupancy
  Li  Li0  1  0.66540600  0.66540600  0.89288500  1
  Li  Li1  1  0.99910800  0.99910800  0.99244200  1
  Li  Li2  1  0.99910800  0.99910800  0.49408800  1
  Li  Li3  1  0.33353600  0.33353600  0.39673400  1
  Ti  Ti0  1  0.17030900  0.17030900  0.71530500  1
  Ti  Ti1  1  0.82931400  0.34026400  0.21522900  1
  Ti  Ti2  1  0.34026400  0.82931400  0.21522900  1
  Cr  Cr0  1  0.82978900  0.82978900  0.21364900  1
  Cr  Cr1  1  0.66133200  0.16851100  0.71429600  1
  Cr  Cr2  1  0.16851100  0.66133200  0.71429600  1
  Sn  Sn0  1  0.66970500  0.66970500  0.49375900  1
  Sn  Sn1  1  0.33605400  0.33605400  0.98841200  1
  O  O0  1  0.84425600  0.32272200  0.60171400  1
  O  O1  1  0.51851600  0.51851600  0.33974700  1
  O  O2  1  0.66347700  0.66347700  0.10504800  1
  O  O3  1  0.99918600  0.99918600  0.30902600  1
  O  O4  1  0.00235100  0.00235100  0.80883500  1
  O  O5  1  0.32272200  0.84425600  0.60171400  1
  O  O6  1  0.96481800  0.51363000  0.33740200  1
  O  O7  1  0.51363000  0.96481800  0.33740200  1
  O  O8  1  0.16335600  0.16335600  0.10169900  1
  O  O9  1  0.84106700  0.84106700  0.59930900  1
  O  O10  1  0.47761400  0.03302500  0.83740000  1
  O  O11  1  0.03302500  0.47761400  0.83740000  1
  O  O12  1  0.32839300  0.32839300  0.60660600  1
  O  O13  1  0.67903500  0.16425900  0.10071600  1
  O  O14  1  0.48238400  0.48238400  0.83680200  1
  O  O15  1  0.16425900  0.67903500  0.10071600  1
loop_
_geom_bond_atom_site_label_1
_geom_bond_atom_site_label_2
_geom_bond_distance
_geom_bond_site_symmetry_2
Li0 O14 1.969812 1_555
Li0 O11 1.977210 1_655
Li0 O10 1.977210 1_565
Li0 O2 2.082997 1_556
Li1 O4 1.802837 1_665
Li1 O13 1.966588 1_566
Li1 O15 1.966588 1_656
Li1 O8 2.008672 1_666
Li2 O3 1.816868 1_555
Li2 O9 1.930224 1_555
Li2 O5 1.980278 1_655
Li2 O0 1.980278 1_565
Li3 O1 1.989865 1_555
Li3 O7 1.994265 1_545
Li3 O6 1.994265 1_455
Li3 O12 2.061037 1_555
Cr0 O3 1.985858 1_555
Cr0 O2 2.023317 1_555
Cr0 O7 2.040394 1_555
Cr0 O6 2.040394 1_555
Cr0 O13 2.055760 1_565
Cr0 O15 2.055760 1_655
Cr1 O4 1.993626 1_655
Cr1 O12 2.021497 1_555
Cr1 O14 2.025242 1_555
Cr1 O9 2.038140 1_545
Cr1 O10 2.047415 1_555
Cr1 O0 2.062423 1_555
Cr2 O4 1.993626 1_565
Cr2 O12 2.021497 1_555
Cr2 O14 2.025242 1_555
Cr2 O9 2.038140 1_455
Cr2 O11 2.047415 1_555
Cr2 O5 2.062423 1_555
O0 Ti0 2.023241 1_655
O0 Sn0 2.083140 1_555
O1 Ti1 2.023289 1_555
O1 Ti2 2.023289 1_555
O1 Sn0 2.175518 1_555
O2 Ti2 1.990280 1_555
O2 Ti1 1.990280 1_555
O3 Ti2 1.988940 1_655
O3 Ti1 1.988940 1_565
O4 Ti0 1.961380 1_555
O5 Ti0 2.023241 1_565
O5 Sn0 2.083140 1_555
O6 Ti1 2.000595 1_555
O6 Sn0 2.164296 1_555
O7 Ti2 2.000595 1_555
O7 Sn0 2.164296 1_555
O8 Ti1 2.055889 1_455
O8 Ti2 2.055889 1_545
O8 Sn1 2.100416 1_554
O9 Sn0 2.052500 1_555
O10 Ti0 1.993675 1_555
O10 Sn1 2.158928 1_555
O11 Ti0 1.993675 1_555
O11 Sn1 2.158928 1_555
O12 Ti0 1.949034 1_555
O13 Ti1 2.028709 1_555
O13 Sn1 2.089153 1_554
O14 Sn1 2.119414 1_555
O15 Ti2 2.028709 1_555
O15 Sn1 2.089153 1_554
