# generated using pymatgen
data_Bi3PO7
_symmetry_space_group_name_H-M   'P 1'
_cell_length_a   9.43572657
_cell_length_b   9.43572657
_cell_length_c   12.28981445
_cell_angle_alpha   77.21854505
_cell_angle_beta   77.21854505
_cell_angle_gamma   92.48932576
_symmetry_Int_Tables_number   1
_chemical_formula_structural   Bi3PO7
_chemical_formula_sum   'Bi18 P6 O42'
_cell_volume   1035.72324951
_cell_formula_units_Z   6
loop_
 _symmetry_equiv_pos_site_id
 _symmetry_equiv_pos_as_xyz
  1  'x, y, z'
loop_
 _atom_site_type_symbol
 _atom_site_label
 _atom_site_symmetry_multiplicity
 _atom_site_fract_x
 _atom_site_fract_y
 _atom_site_fract_z
 _atom_site_occupancy
  Bi  Bi0  1  0.14575800  0.48334500  0.05454100  1
  Bi  Bi1  1  0.48334500  0.14575800  0.05454100  1
  Bi  Bi2  1  0.19008100  0.50152800  0.37818000  1
  Bi  Bi3  1  0.50152800  0.19008100  0.37818000  1
  Bi  Bi4  1  0.19060500  0.85023500  0.15999800  1
  Bi  Bi5  1  0.85023500  0.19060500  0.15999800  1
  Bi  Bi6  1  0.50854800  0.20008600  0.71817000  1
  Bi  Bi7  1  0.20008600  0.50854800  0.71817000  1
  Bi  Bi8  1  0.13380400  0.82759100  0.49824100  1
  Bi  Bi9  1  0.82759100  0.13380400  0.49824100  1
  Bi  Bi10  1  0.14584200  0.83509800  0.83709100  1
  Bi  Bi11  1  0.83509800  0.14584200  0.83709100  1
  Bi  Bi12  1  0.84423400  0.49982300  0.30277300  1
  Bi  Bi13  1  0.49982300  0.84423400  0.30277300  1
  Bi  Bi14  1  0.48112000  0.85405000  0.60940200  1
  Bi  Bi15  1  0.85405000  0.48112000  0.60940200  1
  Bi  Bi16  1  0.49135200  0.83625400  0.91529500  1
  Bi  Bi17  1  0.83625400  0.49135200  0.91529500  1
  P  P0  1  0.17018200  0.17018200  0.28727800  1
  P  P1  1  0.16589000  0.16589000  0.92459900  1
  P  P2  1  0.50482200  0.50482200  0.48855400  1
  P  P3  1  0.50062300  0.50062300  0.87212200  1
  P  P4  1  0.83938000  0.83938000  0.34343200  1
  P  P5  1  0.83495100  0.83495100  0.72673400  1
  O  O0  1  0.07574400  0.07574400  0.40185500  1
  O  O1  1  0.26075900  0.07061900  0.21901100  1
  O  O2  1  0.07061900  0.26075900  0.21901100  1
  O  O3  1  0.05287600  0.05287600  0.90603200  1
  O  O4  1  0.28133900  0.28133900  0.30939600  1
  O  O5  1  0.58507700  0.09367000  0.22505100  1
  O  O6  1  0.09367000  0.58507700  0.22505100  1
  O  O7  1  0.07613600  0.26760500  0.99077300  1
  O  O8  1  0.26760500  0.07613600  0.99077300  1
  O  O9  1  0.25799700  0.25799700  0.80796300  1
  O  O10  1  0.10414600  0.56490700  0.55341900  1
  O  O11  1  0.56490700  0.10414600  0.55341900  1
  O  O12  1  0.40198200  0.40198200  0.59724800  1
  O  O13  1  0.47425600  0.47425600  0.37595700  1
  O  O14  1  0.58305400  0.07829500  0.88536500  1
  O  O15  1  0.07829500  0.58305400  0.88536500  1
  O  O16  1  0.25769300  0.75455100  0.33052900  1
  O  O17  1  0.75455100  0.25769300  0.33052900  1
  O  O18  1  0.38956900  0.38956900  0.97074000  1
  O  O19  1  0.89369500  0.44224400  0.10543800  1
  O  O20  1  0.44224400  0.89369500  0.10543800  1
  O  O21  1  0.23234800  0.76947700  0.66221700  1
  O  O22  1  0.76947700  0.23234800  0.66221700  1
  O  O23  1  0.66436000  0.47225200  0.49140200  1
  O  O24  1  0.47225200  0.66436000  0.49140200  1
  O  O25  1  0.60672600  0.41656400  0.79855200  1
  O  O26  1  0.41656400  0.60672600  0.79855200  1
  O  O27  1  0.75159300  0.24308200  0.98978500  1
  O  O28  1  0.24308200  0.75159300  0.98978500  1
  O  O29  1  0.95120100  0.38917900  0.44513900  1
  O  O30  1  0.38917900  0.95120100  0.44513900  1
  O  O31  1  0.74290400  0.74290400  0.29350100  1
  O  O32  1  0.59156600  0.59156600  0.93054600  1
  O  O33  1  0.94798000  0.38553200  0.76928200  1
  O  O34  1  0.38553200  0.94798000  0.76928200  1
  O  O35  1  0.92732100  0.73684000  0.41616100  1
  O  O36  1  0.73684000  0.92732100  0.41616100  1
  O  O37  1  0.86865400  0.67703500  0.71933300  1
  O  O38  1  0.67703500  0.86865400  0.71933300  1
  O  O39  1  0.94627600  0.94627600  0.23942100  1
  O  O40  1  0.85934100  0.85934100  0.84264900  1
  O  O41  1  0.94329300  0.94329300  0.62335300  1
loop_
_geom_bond_atom_site_label_1
_geom_bond_atom_site_label_2
_geom_bond_distance
_geom_bond_site_symmetry_2
Bi0 O19 2.313595 1_455
Bi0 O15 2.320628 1_554
Bi0 O7 2.450956 1_554
Bi0 O6 2.455520 1_555
Bi0 O2 2.521431 1_555
Bi0 O28 2.542961 1_554
Bi0 O18 2.582209 1_554
Bi1 O20 2.313595 1_545
Bi1 O14 2.320628 1_554
Bi1 O8 2.450956 1_554
Bi1 O5 2.455520 1_555
Bi1 O1 2.521431 1_555
Bi1 O27 2.542961 1_554
Bi1 O18 2.582209 1_554
Bi2 O6 2.270256 1_555
Bi2 O29 2.338219 1_455
Bi2 O10 2.343644 1_555
Bi2 O16 2.352372 1_555
Bi2 O4 2.526483 1_555
Bi2 O13 2.699536 1_555
Bi3 O5 2.270256 1_555
Bi3 O30 2.338219 1_545
Bi3 O11 2.343644 1_555
Bi3 O17 2.352372 1_555
Bi3 O4 2.526483 1_555
Bi3 O13 2.699536 1_555
Bi4 O20 2.311890 1_555
Bi4 O16 2.325434 1_555
Bi4 O28 2.435303 1_554
Bi4 O1 2.459389 1_565
Bi4 O6 2.515585 1_555
Bi4 O8 2.575284 1_564
Bi4 O39 2.581887 1_455
Bi5 O19 2.311890 1_555
Bi5 O17 2.325434 1_555
Bi5 O27 2.435303 1_554
Bi5 O2 2.459389 1_655
Bi5 O5 2.515585 1_555
Bi5 O7 2.575284 1_654
Bi5 O39 2.581887 1_545
Bi6 O11 2.361855 1_555
Bi6 O14 2.387799 1_555
Bi6 O22 2.391738 1_555
Bi6 O34 2.485354 1_545
Bi6 O9 2.515984 1_555
Bi6 O12 2.534500 1_555
Bi6 O25 2.672041 1_555
Bi7 O10 2.361855 1_555
Bi7 O15 2.387799 1_555
Bi7 O21 2.391738 1_555
Bi7 O33 2.485354 1_455
Bi7 O9 2.515984 1_555
Bi7 O12 2.534500 1_555
Bi7 O26 2.672041 1_555
Bi8 O21 2.368734 1_555
Bi8 O16 2.392122 1_555
Bi8 O10 2.407026 1_555
Bi8 O30 2.513154 1_555
Bi8 O0 2.521365 1_565
Bi8 O41 2.545142 1_455
Bi8 O35 2.579466 1_455
Bi9 O22 2.368734 1_555
Bi9 O17 2.392122 1_555
Bi9 O11 2.407026 1_555
Bi9 O29 2.513154 1_555
Bi9 O0 2.521365 1_655
Bi9 O41 2.545142 1_545
Bi9 O36 2.579466 1_545
Bi10 O28 2.270388 1_555
Bi10 O15 2.343256 1_555
Bi10 O34 2.346931 1_555
Bi10 O21 2.350549 1_555
Bi10 O3 2.511578 1_565
Bi10 O40 2.709980 1_455
Bi11 O27 2.270388 1_555
Bi11 O14 2.343256 1_555
Bi11 O33 2.346931 1_555
Bi11 O22 2.350549 1_555
Bi11 O3 2.511578 1_655
Bi11 O40 2.709980 1_545
Bi12 O29 2.287928 1_555
Bi12 O17 2.326303 1_555
Bi12 O6 2.366390 1_655
Bi12 O23 2.505258 1_555
Bi12 O31 2.512176 1_555
Bi12 O19 2.549285 1_555
Bi13 O30 2.287928 1_555
Bi13 O16 2.326303 1_555
Bi13 O5 2.366390 1_565
Bi13 O24 2.505258 1_555
Bi13 O31 2.512176 1_555
Bi13 O20 2.549285 1_555
Bi14 O21 2.345655 1_555
Bi14 O34 2.348548 1_555
Bi14 O11 2.355017 1_565
Bi14 O30 2.386105 1_555
Bi14 O38 2.535135 1_555
Bi14 O24 2.550070 1_555
Bi15 O22 2.345655 1_555
Bi15 O33 2.348548 1_555
Bi15 O10 2.355017 1_655
Bi15 O29 2.386105 1_555
Bi15 O37 2.535135 1_555
Bi15 O23 2.550070 1_555
Bi16 O34 2.318550 1_555
Bi16 O14 2.327167 1_565
Bi16 O28 2.351381 1_555
Bi16 O20 2.464209 1_556
Bi16 O32 2.517234 1_555
Bi16 O38 2.593056 1_555
Bi17 O33 2.318550 1_555
Bi17 O15 2.327167 1_655
Bi17 O27 2.351381 1_555
Bi17 O19 2.464209 1_556
Bi17 O32 2.517234 1_555
Bi17 O37 2.593056 1_555
O0 P0 1.546465 1_555
O1 P0 1.555034 1_555
O2 P0 1.555034 1_555
O3 P1 1.562980 1_555
O4 P0 1.559098 1_555
O7 P1 1.552733 1_555
O8 P1 1.552733 1_555
O9 P1 1.548334 1_555
O12 P2 1.561662 1_555
O13 P2 1.557950 1_555
O18 P3 1.563891 1_555
O23 P2 1.555799 1_555
O24 P2 1.555799 1_555
O25 P3 1.560350 1_555
O26 P3 1.560350 1_555
O31 P4 1.567251 1_555
O32 P3 1.571480 1_555
O35 P4 1.561687 1_555
O36 P4 1.561687 1_555
O37 P5 1.554989 1_555
O38 P5 1.554989 1_555
O39 P4 1.561848 1_555
O40 P5 1.555911 1_555
O41 P5 1.569783 1_555
