# generated using pymatgen
data_Ho2(WO4)3
_symmetry_space_group_name_H-M   'P 1'
_cell_length_a   10.24516400
_cell_length_b   10.13067400
_cell_length_c   17.32454450
_cell_angle_alpha   54.55257448
_cell_angle_beta   90.00000000
_cell_angle_gamma   90.00000000
_symmetry_Int_Tables_number   1
_chemical_formula_structural   Ho2(WO4)3
_chemical_formula_sum   'Ho8 W12 O48'
_cell_volume   1464.83628783
_cell_formula_units_Z   4
loop_
 _symmetry_equiv_pos_site_id
 _symmetry_equiv_pos_as_xyz
  1  'x, y, z'
loop_
 _atom_site_type_symbol
 _atom_site_label
 _atom_site_symmetry_multiplicity
 _atom_site_fract_x
 _atom_site_fract_y
 _atom_site_fract_z
 _atom_site_occupancy
  Ho  Ho0  1  0.97072400  0.63410500  0.11812900  1
  Ho  Ho1  1  0.03358400  0.13771400  0.61801600  1
  Ho  Ho2  1  0.53358400  0.86228600  0.88198400  1
  Ho  Ho3  1  0.47072400  0.36589500  0.38187100  1
  Ho  Ho4  1  0.52927600  0.63410500  0.61812900  1
  Ho  Ho5  1  0.46641600  0.13771400  0.11801600  1
  Ho  Ho6  1  0.96641600  0.86228600  0.38198400  1
  Ho  Ho7  1  0.02927600  0.36589500  0.88187100  1
  W  W0  1  0.74878900  0.47415000  0.49989500  1
  W  W1  1  0.61933400  0.75288600  0.14339700  1
  W  W2  1  0.88004700  0.03536100  0.85714800  1
  W  W3  1  0.38004700  0.96463900  0.64285200  1
  W  W4  1  0.11933400  0.24711400  0.35660300  1
  W  W5  1  0.24878900  0.52585000  0.00010500  1
  W  W6  1  0.75121100  0.47415000  0.99989500  1
  W  W7  1  0.88066600  0.75288600  0.64339700  1
  W  W8  1  0.61995300  0.03536100  0.35714800  1
  W  W9  1  0.11995300  0.96463900  0.14285200  1
  W  W10  1  0.38066600  0.24711400  0.85660300  1
  W  W11  1  0.25121100  0.52585000  0.50010500  1
  O  O0  1  0.09865100  0.79799700  0.13204700  1
  O  O1  1  0.34404800  0.50314200  0.41910200  1
  O  O2  1  0.17498900  0.33392600  0.58930800  1
  O  O3  1  0.41059200  0.06400200  0.86301000  1
  O  O4  1  0.87367900  0.32101100  0.56550500  1
  O  O5  1  0.79182700  0.70139300  0.16557400  1
  O  O6  1  0.70952600  0.02379600  0.83328300  1
  O  O7  1  0.64142400  0.41321000  0.44269400  1
  O  O8  1  0.98190800  0.06766900  0.76187700  1
  O  O9  1  0.52076900  0.58655400  0.23700000  1
  O  O10  1  0.57722500  0.78830000  0.03115900  1
  O  O11  1  0.92744500  0.84787800  0.96726700  1
  O  O12  1  0.42744500  0.15212200  0.53273300  1
  O  O13  1  0.07722500  0.21170000  0.46884100  1
  O  O14  1  0.02076900  0.41344600  0.26300000  1
  O  O15  1  0.48190800  0.93233100  0.73812300  1
  O  O16  1  0.14142400  0.58679000  0.05730600  1
  O  O17  1  0.20952600  0.97620400  0.66671700  1
  O  O18  1  0.29182700  0.29860700  0.33442600  1
  O  O19  1  0.37367900  0.67898900  0.93449500  1
  O  O20  1  0.84404800  0.49685800  0.08089800  1
  O  O21  1  0.91059200  0.93599800  0.63699000  1
  O  O22  1  0.67498900  0.66607400  0.91069200  1
  O  O23  1  0.59865100  0.20200300  0.36795300  1
  O  O24  1  0.40134900  0.79799700  0.63204700  1
  O  O25  1  0.32501100  0.33392600  0.08930800  1
  O  O26  1  0.08940800  0.06400200  0.36301000  1
  O  O27  1  0.15595200  0.50314200  0.91910200  1
  O  O28  1  0.62632100  0.32101100  0.06550500  1
  O  O29  1  0.70817300  0.70139300  0.66557400  1
  O  O30  1  0.79047400  0.02379600  0.33328300  1
  O  O31  1  0.85857600  0.41321000  0.94269400  1
  O  O32  1  0.51809200  0.06766900  0.26187700  1
  O  O33  1  0.97923100  0.58655400  0.73700000  1
  O  O34  1  0.92277500  0.78830000  0.53115900  1
  O  O35  1  0.57255500  0.84787800  0.46726700  1
  O  O36  1  0.07255500  0.15212200  0.03273300  1
  O  O37  1  0.42277500  0.21170000  0.96884100  1
  O  O38  1  0.47923100  0.41344600  0.76300000  1
  O  O39  1  0.01809200  0.93233100  0.23812300  1
  O  O40  1  0.35857600  0.58679000  0.55730600  1
  O  O41  1  0.29047400  0.97620400  0.16671700  1
  O  O42  1  0.20817300  0.29860700  0.83442600  1
  O  O43  1  0.12632100  0.67898900  0.43449500  1
  O  O44  1  0.58940800  0.93599800  0.13699000  1
  O  O45  1  0.82501100  0.66607400  0.41069200  1
  O  O46  1  0.65595200  0.49685800  0.58089800  1
  O  O47  1  0.90134900  0.20200300  0.86795300  1
loop_
_geom_bond_atom_site_label_1
_geom_bond_atom_site_label_2
_geom_bond_distance
_geom_bond_site_symmetry_2
Ho0 O16 2.232586 1_655
Ho0 O0 2.235393 1_655
Ho0 O14 2.247557 1_655
Ho0 O20 2.252516 1_555
Ho0 O5 2.269245 1_555
Ho0 O11 2.269878 1_554
Ho1 O8 2.223544 1_455
Ho1 O4 2.236114 1_455
Ho1 O17 2.244321 1_545
Ho1 O21 2.256691 1_445
Ho1 O2 2.269498 1_555
Ho1 O13 2.279020 1_555
Ho2 O15 2.223544 1_555
Ho2 O19 2.236114 1_555
Ho2 O6 2.244321 1_565
Ho2 O3 2.256691 1_565
Ho2 O22 2.269498 1_555
Ho2 O10 2.279020 1_556
Ho3 O7 2.232586 1_555
Ho3 O23 2.235393 1_555
Ho3 O9 2.247557 1_555
Ho3 O1 2.252516 1_555
Ho3 O18 2.269245 1_555
Ho3 O12 2.269878 1_555
Ho4 O40 2.232586 1_555
Ho4 O24 2.235393 1_555
Ho4 O38 2.247557 1_555
Ho4 O46 2.252516 1_555
Ho4 O29 2.269245 1_555
Ho4 O35 2.269878 1_555
Ho5 O32 2.223544 1_555
Ho5 O28 2.236114 1_555
Ho5 O41 2.244321 1_545
Ho5 O44 2.256691 1_545
Ho5 O25 2.269498 1_555
Ho5 O37 2.279020 1_554
Ho6 O39 2.223544 1_655
Ho6 O43 2.236114 1_655
Ho6 O30 2.244321 1_565
Ho6 O26 2.256691 1_665
Ho6 O45 2.269498 1_555
Ho6 O34 2.279020 1_555
Ho7 O31 2.232586 1_455
Ho7 O47 2.235393 1_455
Ho7 O33 2.247557 1_455
Ho7 O27 2.252516 1_555
Ho7 O42 2.269245 1_555
Ho7 O36 2.269878 1_556
O0 W9 1.816377 1_555
O1 W11 1.816974 1_555
O2 W11 1.814721 1_555
O3 W10 1.818981 1_555
O4 W0 1.814003 1_555
O5 W1 1.819431 1_555
O6 W2 1.814640 1_555
O7 W0 1.811836 1_555
O8 W2 1.814889 1_555
O9 W1 1.821900 1_555
O10 W1 1.812908 1_555
O11 W2 1.811053 1_565
O12 W3 1.811053 1_545
O13 W4 1.812908 1_555
O14 W4 1.821900 1_555
O15 W3 1.814889 1_555
O16 W5 1.811836 1_555
O17 W3 1.814640 1_555
O18 W4 1.819431 1_555
O19 W5 1.814003 1_556
O20 W6 1.816974 1_554
O21 W7 1.818981 1_555
O22 W6 1.814721 1_555
O23 W8 1.816377 1_555
O24 W3 1.816377 1_555
O25 W5 1.814721 1_555
O26 W4 1.818981 1_555
O27 W5 1.816974 1_556
O28 W6 1.814003 1_554
O29 W7 1.819431 1_555
O30 W8 1.814640 1_555
O31 W6 1.811836 1_555
O32 W8 1.814889 1_555
O33 W7 1.821900 1_555
O34 W7 1.812908 1_555
O35 W8 1.811053 1_565
O36 W9 1.811053 1_545
O37 W10 1.812908 1_555
O38 W10 1.821900 1_555
O39 W9 1.814889 1_555
O40 W11 1.811836 1_555
O41 W9 1.814640 1_555
O42 W10 1.819431 1_555
O43 W11 1.814003 1_555
O44 W1 1.818981 1_555
O45 W0 1.814721 1_555
O46 W0 1.816974 1_555
O47 W2 1.816377 1_555
