# generated using pymatgen
data_Li3Cu2(SO4)3
_symmetry_space_group_name_H-M   'P 1'
_cell_length_a   9.14556270
_cell_length_b   9.14556270
_cell_length_c   9.14556263
_cell_angle_alpha   56.03707382
_cell_angle_beta   56.03707382
_cell_angle_gamma   56.03707507
_symmetry_Int_Tables_number   1
_chemical_formula_structural   Li3Cu2(SO4)3
_chemical_formula_sum   'Li6 Cu4 S6 O24'
_cell_volume   491.24787015
_cell_formula_units_Z   2
loop_
 _symmetry_equiv_pos_site_id
 _symmetry_equiv_pos_as_xyz
  1  'x, y, z'
loop_
 _atom_site_type_symbol
 _atom_site_label
 _atom_site_symmetry_multiplicity
 _atom_site_fract_x
 _atom_site_fract_y
 _atom_site_fract_z
 _atom_site_occupancy
  Li  Li0  1  0.72822700  0.07848400  0.34229500  1
  Li  Li1  1  0.65770500  0.27177300  0.92151600  1
  Li  Li2  1  0.92151600  0.65770500  0.27177300  1
  Li  Li3  1  0.07848400  0.34229500  0.72822700  1
  Li  Li4  1  0.34229500  0.72822700  0.07848400  1
  Li  Li5  1  0.27177300  0.92151600  0.65770500  1
  Cu  Cu0  1  0.85199800  0.85199800  0.85199800  1
  Cu  Cu1  1  0.65602200  0.65602200  0.65602200  1
  Cu  Cu2  1  0.34397800  0.34397800  0.34397800  1
  Cu  Cu3  1  0.14800200  0.14800200  0.14800200  1
  S  S0  1  0.95375300  0.25027200  0.54674200  1
  S  S1  1  0.45325800  0.04624700  0.74972800  1
  S  S2  1  0.74972800  0.45325800  0.04624700  1
  S  S3  1  0.25027200  0.54674200  0.95375300  1
  S  S4  1  0.54674200  0.95375300  0.25027200  1
  S  S5  1  0.04624700  0.74972800  0.45325800  1
  O  O0  1  0.79597200  0.44905500  0.85960400  1
  O  O1  1  0.85960400  0.79597200  0.44905500  1
  O  O2  1  0.98710300  0.19522700  0.40568000  1
  O  O3  1  0.85133600  0.14272200  0.74212100  1
  O  O4  1  0.44905500  0.85960400  0.79597200  1
  O  O5  1  0.85727800  0.25787900  0.14866400  1
  O  O6  1  0.59432000  0.01289700  0.80477300  1
  O  O7  1  0.84487800  0.45695400  0.50506400  1
  O  O8  1  0.49493600  0.15512200  0.54304600  1
  O  O9  1  0.80477300  0.59432000  0.01289700  1
  O  O10  1  0.25787900  0.14866400  0.85727800  1
  O  O11  1  0.54304600  0.49493600  0.15512200  1
  O  O12  1  0.45695400  0.50506400  0.84487800  1
  O  O13  1  0.74212100  0.85133600  0.14272200  1
  O  O14  1  0.19522700  0.40568000  0.98710300  1
  O  O15  1  0.50506400  0.84487800  0.45695400  1
  O  O16  1  0.15512200  0.54304600  0.49493600  1
  O  O17  1  0.40568000  0.98710300  0.19522700  1
  O  O18  1  0.14272200  0.74212100  0.85133600  1
  O  O19  1  0.55094500  0.14039600  0.20402800  1
  O  O20  1  0.14866400  0.85727800  0.25787900  1
  O  O21  1  0.01289700  0.80477300  0.59432000  1
  O  O22  1  0.14039600  0.20402800  0.55094500  1
  O  O23  1  0.20402800  0.55094500  0.14039600  1
loop_
_geom_bond_atom_site_label_1
_geom_bond_atom_site_label_2
_geom_bond_distance
_geom_bond_site_symmetry_2
Li0 O5 1.950076 1_555
Li0 O8 1.950496 1_555
Li0 O1 2.023897 1_545
Li0 O19 2.239066 1_555
Li1 O3 1.950076 1_555
Li1 O12 1.950496 1_555
Li1 O19 2.023897 1_556
Li1 O0 2.239066 1_555
Li2 O13 1.950076 1_555
Li2 O7 1.950496 1_555
Li2 O23 2.023897 1_655
Li2 O1 2.239066 1_555
Li3 O10 1.950076 1_555
Li3 O16 1.950496 1_555
Li3 O0 2.023897 1_455
Li3 O22 2.239066 1_555
Li4 O20 1.950076 1_555
Li4 O11 1.950496 1_555
Li4 O4 2.023897 1_554
Li4 O23 2.239066 1_555
Li5 O18 1.950076 1_555
Li5 O15 1.950496 1_555
Li5 O22 2.023897 1_565
Li5 O4 2.239066 1_555
Cu0 O21 2.111402 1_655
Cu0 O9 2.111402 1_556
Cu0 O6 2.111402 1_565
Cu0 O13 2.254502 1_556
Cu0 O3 2.254502 1_565
Cu0 O18 2.254502 1_655
Cu1 O1 2.169253 1_555
Cu1 O0 2.169253 1_555
Cu1 O4 2.169253 1_555
Cu1 O12 2.198739 1_555
Cu1 O15 2.198739 1_555
Cu1 O7 2.198739 1_555
Cu2 O22 2.169253 1_555
Cu2 O23 2.169253 1_555
Cu2 O19 2.169253 1_555
Cu2 O11 2.198739 1_555
Cu2 O8 2.198739 1_555
Cu2 O16 2.198739 1_555
Cu3 O2 2.111402 1_455
Cu3 O14 2.111402 1_554
Cu3 O17 2.111402 1_545
Cu3 O10 2.254502 1_554
Cu3 O20 2.254502 1_545
Cu3 O5 2.254502 1_455
O0 S2 1.530549 1_556
O1 S5 1.530549 1_655
O2 S0 1.457819 1_555
O3 S0 1.494416 1_555
O4 S1 1.530549 1_565
O5 S2 1.494416 1_555
O6 S1 1.457819 1_555
O7 S0 1.491914 1_555
O8 S1 1.491914 1_555
O9 S2 1.457819 1_555
O10 S1 1.494416 1_555
O11 S2 1.491914 1_555
O12 S3 1.491914 1_555
O13 S4 1.494416 1_555
O14 S3 1.457819 1_555
O15 S4 1.491914 1_555
O16 S5 1.491914 1_555
O17 S4 1.457819 1_555
O18 S3 1.494416 1_555
O19 S4 1.530549 1_545
O20 S5 1.494416 1_555
O21 S5 1.457819 1_555
O22 S0 1.530549 1_455
O23 S3 1.530549 1_554
