# generated using pymatgen
data_Li2V3(P2O7)2
_symmetry_space_group_name_H-M   'P 1'
_cell_length_a   7.08888752
_cell_length_b   7.48082569
_cell_length_c   10.54461165
_cell_angle_alpha   75.57616924
_cell_angle_beta   76.09049514
_cell_angle_gamma   80.08215355
_symmetry_Int_Tables_number   1
_chemical_formula_structural   Li2V3(P2O7)2
_chemical_formula_sum   'Li4 V6 P8 O28'
_cell_volume   521.91411513
_cell_formula_units_Z   2
loop_
 _symmetry_equiv_pos_site_id
 _symmetry_equiv_pos_as_xyz
  1  'x, y, z'
loop_
 _atom_site_type_symbol
 _atom_site_label
 _atom_site_symmetry_multiplicity
 _atom_site_fract_x
 _atom_site_fract_y
 _atom_site_fract_z
 _atom_site_occupancy
  Li  Li0  1  0.69093900  0.69039000  0.33442300  1
  Li  Li1  1  0.19103000  0.69033900  0.83442800  1
  Li  Li2  1  0.30907700  0.30961000  0.66561900  1
  Li  Li3  1  0.80902800  0.30960500  0.16558000  1
  V  V0  1  0.49984000  0.00054800  0.49996600  1
  V  V1  1  0.66148500  0.31125500  0.85375000  1
  V  V2  1  0.33858500  0.68869700  0.14620400  1
  V  V3  1  0.99962900  0.00005800  0.99991000  1
  V  V4  1  0.16048800  0.31125300  0.35393900  1
  V  V5  1  0.83957500  0.68851500  0.64620000  1
  P  P0  1  0.27066200  0.65607800  0.46561100  1
  P  P1  1  0.77047500  0.65604300  0.96573100  1
  P  P2  1  0.72946900  0.34396400  0.53437700  1
  P  P3  1  0.22950400  0.34388200  0.03429100  1
  P  P4  1  0.98219100  0.93211300  0.33114900  1
  P  P5  1  0.48228300  0.93208800  0.83109900  1
  P  P6  1  0.01780200  0.06786600  0.66884200  1
  P  P7  1  0.51767100  0.06784300  0.16890400  1
  O  O0  1  0.03983900  0.85062300  0.20400500  1
  O  O1  1  0.54004200  0.85055500  0.70397100  1
  O  O2  1  0.96014700  0.14940200  0.79595800  1
  O  O3  1  0.46001000  0.14948900  0.29598000  1
  O  O4  1  0.30286600  0.55001900  0.35230500  1
  O  O5  1  0.80300800  0.54997900  0.85237000  1
  O  O6  1  0.69723400  0.44998600  0.64768900  1
  O  O7  1  0.19701000  0.44991100  0.14766800  1
  O  O8  1  0.97224600  0.14217600  0.30093900  1
  O  O9  1  0.47229800  0.14215400  0.80097500  1
  O  O10  1  0.02786300  0.85781200  0.69906100  1
  O  O11  1  0.52768700  0.85779300  0.19903500  1
  O  O12  1  0.45444700  0.71695000  0.48377300  1
  O  O13  1  0.95437000  0.71684700  0.98381600  1
  O  O14  1  0.54560000  0.28322100  0.51623900  1
  O  O15  1  0.04562700  0.28306300  0.01618000  1
  O  O16  1  0.15096500  0.85808600  0.41476500  1
  O  O17  1  0.65099300  0.85806500  0.91476900  1
  O  O18  1  0.84903000  0.14187700  0.58524000  1
  O  O19  1  0.34899900  0.14185800  0.08524500  1
  O  O20  1  0.85624100  0.44766200  0.40716900  1
  O  O21  1  0.35639300  0.44758400  0.90714500  1
  O  O22  1  0.14389100  0.55229700  0.59281900  1
  O  O23  1  0.64360500  0.55234300  0.09286800  1
  O  O24  1  0.20404600  0.14300700  0.57250400  1
  O  O25  1  0.70401400  0.14287900  0.07254200  1
  O  O26  1  0.79588500  0.85711900  0.42749500  1
  O  O27  1  0.29591200  0.85709500  0.92745100  1
loop_
_geom_bond_atom_site_label_1
_geom_bond_atom_site_label_2
_geom_bond_distance
_geom_bond_site_symmetry_2
Li0 O12 2.025324 1_555
Li0 O20 2.064942 1_555
Li0 O11 2.085682 1_555
Li0 O26 2.086334 1_555
Li1 O13 2.026251 1_455
Li1 O21 2.065211 1_555
Li1 O10 2.085338 1_555
Li1 O27 2.085867 1_555
Li2 O14 2.025462 1_555
Li2 O22 2.064480 1_555
Li2 O9 2.085454 1_555
Li2 O24 2.086267 1_555
Li3 O15 2.026095 1_655
Li3 O23 2.065323 1_555
Li3 O8 2.085394 1_555
Li3 O25 2.086340 1_555
O0 P4 1.547257 1_455
O0 V3 2.224658 1_464
O0 V2 2.277575 1_555
O1 P5 1.547277 1_555
O1 V0 2.224819 1_565
O1 V5 2.282213 1_555
O2 P6 1.547184 1_655
O2 V3 2.221769 1_555
O2 V1 2.276858 1_555
O3 P7 1.547268 1_555
O3 V0 2.222034 1_555
O3 V4 2.281599 1_555
O4 P0 1.545253 1_555
O4 V2 2.136849 1_555
O4 V4 2.192417 1_555
O5 P1 1.545487 1_555
O5 V5 2.136965 1_555
O5 V1 2.189333 1_555
O6 P2 1.545091 1_555
O6 V1 2.136574 1_555
O6 V5 2.191147 1_555
O7 P3 1.545489 1_555
O7 V4 2.138132 1_555
O7 V2 2.189695 1_555
O8 P4 1.516289 1_545
O8 V4 2.232698 1_655
O9 P5 1.516322 1_545
O9 V1 2.236627 1_555
O10 P6 1.516153 1_565
O10 V5 2.233366 1_455
O11 P7 1.516184 1_565
O11 V2 2.236459 1_555
O12 P0 1.519599 1_555
O12 V0 2.252935 1_565
O13 P1 1.519758 1_555
O13 V3 2.249416 1_565
O14 P2 1.519593 1_555
O14 V0 2.247253 1_555
O15 P3 1.519803 1_555
O15 V3 2.250236 1_454
O16 P4 1.597239 1_455
O16 P0 1.632330 1_555
O17 P5 1.597231 1_555
O17 P1 1.632013 1_555
O18 P6 1.597122 1_655
O18 P2 1.632393 1_555
O19 P7 1.596930 1_555
O19 P3 1.632046 1_555
O20 P2 1.533247 1_555
O20 V4 2.225584 1_655
O21 P3 1.533245 1_556
O21 V1 2.230575 1_555
O22 P0 1.533485 1_555
O22 V5 2.225696 1_455
O23 P1 1.533119 1_554
O23 V2 2.230134 1_555
O24 P6 1.554790 1_555
O24 V0 2.232218 1_555
O24 V4 2.398791 1_555
O25 P7 1.555140 1_555
O25 V3 2.232558 1_554
O25 V1 2.399155 1_554
O26 P4 1.554773 1_555
O26 V0 2.236348 1_565
O26 V5 2.401020 1_555
O27 P5 1.555141 1_555
O27 V3 2.236221 1_465
O27 V2 2.399116 1_556
