# generated using pymatgen
data_Li3FePCO7
_symmetry_space_group_name_H-M   'P 1'
_cell_length_a   6.46614700
_cell_length_b   8.53980225
_cell_length_c   10.02614089
_cell_angle_alpha   95.40403580
_cell_angle_beta   90.19163507
_cell_angle_gamma   90.52334992
_symmetry_Int_Tables_number   1
_chemical_formula_structural   Li3FePCO7
_chemical_formula_sum   'Li12 Fe4 P4 C4 O28'
_cell_volume   551.15100366
_cell_formula_units_Z   4
loop_
 _symmetry_equiv_pos_site_id
 _symmetry_equiv_pos_as_xyz
  1  'x, y, z'
loop_
 _atom_site_type_symbol
 _atom_site_label
 _atom_site_symmetry_multiplicity
 _atom_site_fract_x
 _atom_site_fract_y
 _atom_site_fract_z
 _atom_site_occupancy
  Li  Li0  1  0.74541200  0.90245600  0.38696000  1
  Li  Li1  1  0.74068800  0.90317800  0.88001900  1
  Li  Li2  1  0.51242000  0.72142600  0.10761600  1
  Li  Li3  1  0.98466000  0.72557300  0.63916800  1
  Li  Li4  1  0.51597900  0.72481400  0.63858100  1
  Li  Li5  1  0.25959700  0.65535800  0.87786000  1
  Li  Li6  1  0.47640600  0.27826100  0.37727200  1
  Li  Li7  1  0.02080000  0.27784600  0.37828100  1
  Li  Li8  1  0.47070400  0.27991700  0.87060200  1
  Li  Li9  1  0.02881800  0.27859600  0.87191100  1
  Li  Li10  1  0.25097100  0.10440500  0.11057500  1
  Li  Li11  1  0.25134300  0.08932400  0.62347300  1
  Fe  Fe0  1  0.00912600  0.74082200  0.11519700  1
  Fe  Fe1  1  0.24975600  0.66376500  0.39841900  1
  Fe  Fe2  1  0.74965300  0.33400900  0.10270400  1
  Fe  Fe3  1  0.74953600  0.33469300  0.60778900  1
  P  P0  1  0.75131000  0.58995700  0.35913500  1
  P  P1  1  0.74877200  0.58831400  0.86261000  1
  P  P2  1  0.25104000  0.41315200  0.14203900  1
  P  P3  1  0.25008600  0.41075300  0.64100700  1
  C  C0  1  0.24195900  0.96482100  0.34700800  1
  C  C1  1  0.24490400  0.96112700  0.85379800  1
  C  C2  1  0.75217200  0.03602300  0.15082600  1
  C  C3  1  0.74942500  0.03516000  0.65105600  1
  O  O0  1  0.25210100  0.93152800  0.46965200  1
  O  O1  1  0.75865600  0.88937200  0.18183300  1
  O  O2  1  0.23957000  0.92930800  0.97743600  1
  O  O3  1  0.23081100  0.84483500  0.25299900  1
  O  O4  1  0.75002300  0.88928600  0.67955100  1
  O  O5  1  0.24683100  0.85002100  0.75578600  1
  O  O6  1  0.93769100  0.69280800  0.41567400  1
  O  O7  1  0.56288700  0.69195400  0.40850800  1
  O  O8  1  0.94282100  0.68613400  0.91688300  1
  O  O9  1  0.56314300  0.69063800  0.91089700  1
  O  O10  1  0.25712700  0.57758000  0.09064300  1
  O  O11  1  0.75969000  0.57331400  0.20171900  1
  O  O12  1  0.25132000  0.57756500  0.59201000  1
  O  O13  1  0.75598100  0.57051000  0.70579700  1
  O  O14  1  0.25132600  0.42891400  0.29862100  1
  O  O15  1  0.74797400  0.42475100  0.40847200  1
  O  O16  1  0.25143900  0.42551300  0.79541500  1
  O  O17  1  0.74618700  0.42119700  0.91060200  1
  O  O18  1  0.06251900  0.31079200  0.08852200  1
  O  O19  1  0.43639700  0.31090000  0.08816600  1
  O  O20  1  0.43660400  0.31011500  0.58406200  1
  O  O21  1  0.06178900  0.30895100  0.58438300  1
  O  O22  1  0.74810600  0.14903800  0.24704300  1
  O  O23  1  0.24683800  0.10630200  0.31292800  1
  O  O24  1  0.74869900  0.14874500  0.74730300  1
  O  O25  1  0.74891100  0.06743400  0.02823900  1
  O  O26  1  0.24975200  0.10830800  0.82490000  1
  O  O27  1  0.74927200  0.07043900  0.52804700  1
loop_
_geom_bond_atom_site_label_1
_geom_bond_atom_site_label_2
_geom_bond_distance
_geom_bond_site_symmetry_2
Li0 O27 1.917393 1_565
Li0 O1 2.051249 1_555
Li0 O7 2.169621 1_555
Li0 O6 2.229216 1_555
Li1 O25 1.945334 1_566
Li1 O4 2.003379 1_555
Li1 O9 2.185950 1_555
Li1 O8 2.334627 1_555
Li2 O9 1.993746 1_554
Li2 O10 2.045650 1_555
Li2 O1 2.212496 1_555
Li2 O11 2.301755 1_555
Li2 O3 2.512886 1_555
Li3 O4 2.087265 1_555
Li3 O13 2.126905 1_555
Li3 O12 2.174150 1_655
Li3 O6 2.251096 1_555
Li3 O5 2.256138 1_655
Li4 O4 2.068846 1_555
Li4 O12 2.138375 1_555
Li4 O13 2.190103 1_555
Li4 O5 2.316031 1_555
Li4 O7 2.318647 1_555
Li5 O9 2.004749 1_555
Li5 O16 2.056933 1_555
Li5 O8 2.100856 1_455
Li5 O5 2.157176 1_555
Li5 O10 2.293410 1_556
Li5 O2 2.460310 1_555
Li6 O20 2.082654 1_555
Li6 O23 2.133424 1_555
Li6 O14 2.147755 1_555
Li6 O15 2.151479 1_555
Li6 O22 2.405936 1_555
Li7 O21 2.074249 1_555
Li7 O23 2.139252 1_555
Li7 O14 2.165888 1_555
Li7 O15 2.179481 1_455
Li7 O22 2.393099 1_455
Li8 O26 2.056639 1_555
Li8 O16 2.079897 1_555
Li8 O17 2.157403 1_555
Li8 O19 2.184721 1_556
Li8 O24 2.409369 1_555
Li9 O26 2.071511 1_555
Li9 O16 2.095270 1_555
Li9 O18 2.173234 1_556
Li9 O17 2.220311 1_455
Li9 O24 2.399688 1_455
Li10 O2 1.909078 1_544
Li10 O23 2.027626 1_555
Li10 O19 2.153030 1_555
Li10 O18 2.179685 1_555
Li11 O0 1.950155 1_545
Li11 O26 2.010824 1_555
Li11 O20 2.290972 1_555
Li11 O21 2.313204 1_555
Li11 O5 2.539055 1_545
Fe0 O8 2.042325 1_454
Fe0 O3 2.117776 1_555
Fe0 O10 2.134104 1_555
Fe0 O1 2.136312 1_455
Fe0 O11 2.366680 1_455
Fe0 O2 2.666033 1_554
Fe1 O7 2.037876 1_555
Fe1 O6 2.041223 1_455
Fe1 O12 2.139740 1_555
Fe1 O14 2.155479 1_555
Fe1 O3 2.226823 1_555
Fe1 O0 2.330392 1_555
Fe2 O19 2.036759 1_555
Fe2 O18 2.038664 1_655
Fe2 O17 2.129473 1_554
Fe2 O11 2.186578 1_555
Fe2 O22 2.240525 1_555
Fe2 O25 2.327985 1_555
Fe3 O20 2.043201 1_555
Fe3 O21 2.044900 1_655
Fe3 O13 2.155990 1_555
Fe3 O15 2.207850 1_555
Fe3 O24 2.212809 1_555
Fe3 O27 2.322043 1_555
C0 O23 1.286343 1_565
C0 O0 1.289503 1_555
C0 O3 1.326573 1_555
C1 O2 1.294304 1_555
C1 O5 1.300292 1_555
C1 O26 1.316303 1_565
C2 O25 1.282596 1_555
C2 O22 1.299246 1_555
C2 O1 1.319486 1_545
C3 O27 1.296840 1_555
C3 O24 1.302272 1_555
C3 O4 1.304074 1_545
O6 P0 1.558055 1_555
O7 P0 1.558967 1_555
O8 P1 1.568117 1_555
O9 P1 1.543390 1_555
O10 P2 1.540855 1_555
O11 P0 1.572434 1_555
O12 P3 1.549949 1_555
O13 P1 1.566138 1_555
O14 P2 1.562985 1_555
O15 P0 1.538360 1_555
O16 P3 1.541351 1_555
O17 P1 1.548392 1_555
O18 P2 1.557499 1_555
O19 P2 1.557360 1_555
O20 P3 1.565334 1_555
O21 P3 1.563210 1_555
