# generated using pymatgen
data_LiFeBO3
_symmetry_space_group_name_H-M   'P 1'
_cell_length_a   5.57341566
_cell_length_b   7.77390401
_cell_length_c   6.81433707
_cell_angle_alpha   90.00338842
_cell_angle_beta   70.14052349
_cell_angle_gamma   89.99552037
_symmetry_Int_Tables_number   1
_chemical_formula_structural   LiFeBO3
_chemical_formula_sum   'Li4 Fe4 B4 O12'
_cell_volume   277.68744026
_cell_formula_units_Z   4
loop_
 _symmetry_equiv_pos_site_id
 _symmetry_equiv_pos_as_xyz
  1  'x, y, z'
loop_
 _atom_site_type_symbol
 _atom_site_label
 _atom_site_symmetry_multiplicity
 _atom_site_fract_x
 _atom_site_fract_y
 _atom_site_fract_z
 _atom_site_occupancy
  Li  Li0  1  0.25663100  0.05751600  0.09527900  1
  Li  Li1  1  0.24337400  0.55751800  0.40471600  1
  Li  Li2  1  0.75675800  0.44248600  0.59538700  1
  Li  Li3  1  0.74325500  0.94244600  0.90460300  1
  Fe  Fe0  1  0.63922900  0.25038900  0.24864100  1
  Fe  Fe1  1  0.86063700  0.75045000  0.25134000  1
  Fe  Fe2  1  0.13922600  0.24918000  0.74857200  1
  Fe  Fe3  1  0.36077700  0.74922200  0.75140200  1
  B  B0  1  0.10715700  0.36945000  0.19132200  1
  B  B1  1  0.39278800  0.86943700  0.30869200  1
  B  B2  1  0.60702200  0.13066900  0.69137400  1
  B  B3  1  0.89305400  0.63064800  0.80862600  1
  O  O0  1  0.02420600  0.24277000  0.08168400  1
  O  O1  1  0.47572000  0.74278100  0.41839400  1
  O  O2  1  0.52425400  0.25742900  0.58172400  1
  O  O3  1  0.97585000  0.75742000  0.91823300  1
  O  O4  1  0.06927900  0.50850500  0.69913800  1
  O  O5  1  0.56920600  0.99152800  0.19906900  1
  O  O6  1  0.43073000  0.00857500  0.80084300  1
  O  O7  1  0.93083800  0.49161200  0.30092100  1
  O  O8  1  0.34466000  0.36317100  0.20790900  1
  O  O9  1  0.15532500  0.86319000  0.29204700  1
  O  O10  1  0.84452600  0.13678600  0.70796900  1
  O  O11  1  0.65549900  0.63682100  0.79211600  1
loop_
_geom_bond_atom_site_label_1
_geom_bond_atom_site_label_2
_geom_bond_distance
_geom_bond_site_symmetry_2
Li0 O6 1.946529 1_554
Li0 O0 1.960084 1_555
Li0 O9 1.970986 1_545
Li0 O5 2.152989 1_545
Li1 O4 1.946629 1_555
Li1 O1 1.960132 1_555
Li1 O8 1.971071 1_555
Li1 O7 2.152703 1_455
Li2 O7 1.947048 1_555
Li2 O2 1.959524 1_555
Li2 O11 1.970681 1_555
Li2 O4 2.152654 1_655
Li3 O5 1.946879 1_556
Li3 O3 1.959489 1_555
Li3 O10 1.970526 1_565
Li3 O6 2.152871 1_565
Fe0 O8 1.962273 1_555
Fe0 O0 2.059867 1_655
Fe0 O5 2.098958 1_545
Fe0 O2 2.139421 1_555
Fe0 O7 2.584320 1_555
Fe1 O9 1.962741 1_655
Fe1 O1 2.059738 1_555
Fe1 O7 2.099019 1_555
Fe1 O3 2.139493 1_554
Fe1 O5 2.582657 1_555
Fe2 O10 1.961299 1_455
Fe2 O2 2.060123 1_555
Fe2 O4 2.102085 1_555
Fe2 O0 2.139485 1_556
Fe2 O6 2.580265 1_555
Fe3 O11 1.961654 1_555
Fe3 O3 2.059593 1_455
Fe3 O6 2.102332 1_565
Fe3 O1 2.138828 1_555
Fe3 O4 2.581011 1_555
B0 O8 1.367111 1_555
B0 O7 1.387977 1_455
B0 O0 1.405846 1_555
B1 O9 1.367050 1_555
B1 O5 1.388103 1_555
B1 O1 1.405953 1_555
B2 O10 1.367101 1_555
B2 O6 1.387438 1_555
B2 O2 1.405827 1_555
B3 O11 1.367155 1_555
B3 O4 1.387376 1_655
B3 O3 1.405772 1_555
