# generated using pymatgen
data_Tm2Zr2O7
_symmetry_space_group_name_H-M   'P 1'
_cell_length_a   7.42873232
_cell_length_b   7.42873232
_cell_length_c   7.42873232
_cell_angle_alpha   60.00000000
_cell_angle_beta   60.00000000
_cell_angle_gamma   60.00000000
_symmetry_Int_Tables_number   1
_chemical_formula_structural   Tm2Zr2O7
_chemical_formula_sum   'Tm4 Zr4 O14'
_cell_volume   289.88726137
_cell_formula_units_Z   2
loop_
 _symmetry_equiv_pos_site_id
 _symmetry_equiv_pos_as_xyz
  1  'x, y, z'
loop_
 _atom_site_type_symbol
 _atom_site_label
 _atom_site_symmetry_multiplicity
 _atom_site_fract_x
 _atom_site_fract_y
 _atom_site_fract_z
 _atom_site_occupancy
  Tm  Tm0  1  0.62500000  0.12500000  0.12500000  1
  Tm  Tm1  1  0.12500000  0.12500000  0.12500000  1
  Tm  Tm2  1  0.12500000  0.62500000  0.12500000  1
  Tm  Tm3  1  0.12500000  0.12500000  0.62500000  1
  Zr  Zr0  1  0.62500000  0.62500000  0.12500000  1
  Zr  Zr1  1  0.62500000  0.62500000  0.62500000  1
  Zr  Zr2  1  0.62500000  0.12500000  0.62500000  1
  Zr  Zr3  1  0.12500000  0.62500000  0.62500000  1
  O  O0  1  0.71890700  0.28109300  0.28109300  1
  O  O1  1  0.71890700  0.71890700  0.28109300  1
  O  O2  1  0.28109300  0.71890700  0.28109300  1
  O  O3  1  0.00000000  0.00000000  0.00000000  1
  O  O4  1  0.71890700  0.28109300  0.71890700  1
  O  O5  1  0.96890700  0.53109300  0.53109300  1
  O  O6  1  0.28109300  0.71890700  0.71890700  1
  O  O7  1  0.53109300  0.96890700  0.53109300  1
  O  O8  1  0.25000000  0.25000000  0.25000000  1
  O  O9  1  0.96890700  0.53109300  0.96890700  1
  O  O10  1  0.53109300  0.53109300  0.96890700  1
  O  O11  1  0.96890700  0.96890700  0.53109300  1
  O  O12  1  0.53109300  0.96890700  0.96890700  1
  O  O13  1  0.28109300  0.28109300  0.71890700  1
loop_
_geom_bond_atom_site_label_1
_geom_bond_atom_site_label_2
_geom_bond_distance
_geom_bond_site_symmetry_2
O0 Zr2 2.102962 1_555
O0 Zr0 2.102962 1_555
O0 Tm0 2.477569 1_555
O0 Tm1 2.477569 1_655
O1 Zr0 2.102962 1_555
O1 Zr1 2.102962 1_555
O1 Tm0 2.477569 1_565
O1 Tm2 2.477569 1_655
O2 Zr3 2.102962 1_555
O2 Zr0 2.102962 1_555
O2 Tm2 2.477569 1_555
O2 Tm1 2.477569 1_565
O3 Tm0 2.274575 1_455
O3 Tm1 2.274575 1_555
O3 Tm2 2.274575 1_545
O3 Tm3 2.274575 1_554
O4 Zr2 2.102962 1_555
O4 Zr1 2.102962 1_555
O4 Tm3 2.477569 1_655
O4 Tm0 2.477569 1_556
O5 Zr1 2.102962 1_555
O5 Zr3 2.102962 1_655
O5 Tm2 2.477569 1_655
O5 Tm3 2.477569 1_655
O6 Zr3 2.102962 1_555
O6 Zr1 2.102962 1_555
O6 Tm2 2.477569 1_556
O6 Tm3 2.477569 1_565
O7 Zr1 2.102962 1_555
O7 Zr2 2.102962 1_565
O7 Tm0 2.477569 1_565
O7 Tm3 2.477569 1_565
O8 Tm1 2.274575 1_555
O8 Tm3 2.274575 1_555
O8 Tm0 2.274575 1_555
O8 Tm2 2.274575 1_555
O9 Zr3 2.102962 1_655
O9 Zr0 2.102962 1_556
O9 Tm1 2.477569 1_656
O9 Tm2 2.477569 1_656
O10 Zr1 2.102962 1_555
O10 Zr0 2.102962 1_556
O10 Tm0 2.477569 1_556
O10 Tm2 2.477569 1_556
O11 Zr3 2.102962 1_655
O11 Zr2 2.102962 1_565
O11 Tm1 2.477569 1_665
O11 Tm3 2.477569 1_665
O12 Zr0 2.102962 1_556
O12 Zr2 2.102962 1_565
O12 Tm1 2.477569 1_566
O12 Tm0 2.477569 1_566
O13 Zr2 2.102962 1_555
O13 Zr3 2.102962 1_555
O13 Tm3 2.477569 1_555
O13 Tm1 2.477569 1_556
