# generated using pymatgen
data_Dy3Ni2
_symmetry_space_group_name_H-M   'P 1'
_cell_length_a   3.63900163
_cell_length_b   6.84507404
_cell_length_c   9.53261978
_cell_angle_alpha   104.44003165
_cell_angle_beta   90.00000000
_cell_angle_gamma   105.41519017
_symmetry_Int_Tables_number   1
_chemical_formula_structural   Dy3Ni2
_chemical_formula_sum   'Dy6 Ni4'
_cell_volume   221.11713759
_cell_formula_units_Z   2
loop_
 _symmetry_equiv_pos_site_id
 _symmetry_equiv_pos_as_xyz
  1  'x, y, z'
loop_
 _atom_site_type_symbol
 _atom_site_label
 _atom_site_symmetry_multiplicity
 _atom_site_fract_x
 _atom_site_fract_y
 _atom_site_fract_z
 _atom_site_occupancy
  Dy  Dy0  1  0.14470307  0.28940714  0.36379803  1
  Dy  Dy1  1  0.85529693  0.71059286  0.63620197  1
  Dy  Dy2  1  0.59716439  0.19432977  0.67402172  1
  Dy  Dy3  1  0.40283561  0.80567023  0.32597828  1
  Dy  Dy4  1  0.86878060  0.73756220  0.00186865  1
  Dy  Dy5  1  0.13121940  0.26243780  0.99813135  1
  Ni  Ni0  1  0.25667602  0.51335303  0.77499282  1
  Ni  Ni1  1  0.74332398  0.48664697  0.22500718  1
  Ni  Ni2  1  0.46537921  0.93075943  0.85666039  1
  Ni  Ni3  1  0.53462079  0.06924057  0.14333961  1
loop_
_geom_bond_atom_site_label_1
_geom_bond_atom_site_label_2
_geom_bond_distance
_geom_bond_site_symmetry_2
Dy0 Ni1 2.765124 1_455
Dy0 Ni1 2.765129 1_555
Dy0 Ni3 2.873717 1_455
Dy0 Ni3 2.873722 1_555
Dy1 Ni0 2.765124 1_655
Dy1 Ni0 2.765129 1_555
Dy1 Ni2 2.873717 1_655
Dy1 Ni2 2.873722 1_555
Dy2 Ni0 2.760529 1_655
Dy2 Ni0 2.760529 1_555
Dy2 Ni2 2.760930 1_545
Dy3 Ni1 2.760529 1_455
Dy3 Ni1 2.760529 1_555
Dy3 Ni3 2.760930 1_565
Dy4 Ni2 2.786556 1_654
Dy4 Ni2 2.786556 1_554
Dy4 Ni3 2.896998 1_565
Dy4 Ni3 2.897002 1_665
Dy4 Ni0 2.919165 1_554
Dy4 Ni0 2.919165 1_654
Dy4 Ni1 3.014643 1_555
Dy5 Ni3 2.786556 1_456
Dy5 Ni3 2.786556 1_556
Dy5 Ni2 2.896998 1_545
Dy5 Ni2 2.897002 1_445
Dy5 Ni1 2.919165 1_556
Dy5 Ni1 2.919165 1_456
Dy5 Ni0 3.014643 1_555
Ni0 Ni2 2.661464 1_555
Ni1 Ni3 2.661464 1_555
Ni2 Ni3 2.647890 1_566
