# generated using pymatgen
data_LiVOF3
_symmetry_space_group_name_H-M   'P 1'
_cell_length_a   7.83467074
_cell_length_b   7.33599667
_cell_length_c   5.15196704
_cell_angle_alpha   90.01234363
_cell_angle_beta   90.01179410
_cell_angle_gamma   74.27535713
_symmetry_Int_Tables_number   1
_chemical_formula_structural   LiVOF3
_chemical_formula_sum   'Li4 V4 O4 F12'
_cell_volume   285.02807351
_cell_formula_units_Z   4
loop_
 _symmetry_equiv_pos_site_id
 _symmetry_equiv_pos_as_xyz
  1  'x, y, z'
loop_
 _atom_site_type_symbol
 _atom_site_label
 _atom_site_symmetry_multiplicity
 _atom_site_fract_x
 _atom_site_fract_y
 _atom_site_fract_z
 _atom_site_occupancy
  Li  Li0  1  0.13751000  0.01281600  0.19985600  1
  Li  Li1  1  0.13765000  0.51276200  0.30010200  1
  Li  Li2  1  0.86234000  0.48724400  0.69990000  1
  Li  Li3  1  0.86247800  0.98718600  0.80013800  1
  V  V0  1  0.34848400  0.76511400  0.71935800  1
  V  V1  1  0.34822800  0.26524600  0.78060600  1
  V  V2  1  0.65174200  0.73476100  0.21942300  1
  V  V3  1  0.65153000  0.23486800  0.28067900  1
  O  O0  1  0.45682200  0.81568500  0.04999900  1
  O  O1  1  0.45655500  0.31589600  0.44998500  1
  O  O2  1  0.54346000  0.68411400  0.54998600  1
  O  O3  1  0.54316700  0.18433200  0.94997500  1
  F  F0  1  0.12075500  0.88353100  0.87514800  1
  F  F1  1  0.12054100  0.38352400  0.62484400  1
  F  F2  1  0.20036400  0.74804800  0.41856400  1
  F  F3  1  0.20022200  0.24812200  0.08147900  1
  F  F4  1  0.32281100  0.53255500  0.88951900  1
  F  F5  1  0.32292100  0.03247800  0.61047800  1
  F  F6  1  0.67709100  0.96751400  0.38953900  1
  F  F7  1  0.67718500  0.46743000  0.11048000  1
  F  F8  1  0.79977500  0.75188900  0.91853000  1
  F  F9  1  0.79965700  0.25195000  0.58143700  1
  F  F10  1  0.87945500  0.61646600  0.37514600  1
  F  F11  1  0.87925600  0.11646900  0.12482900  1
loop_
_geom_bond_atom_site_label_1
_geom_bond_atom_site_label_2
_geom_bond_distance
_geom_bond_site_symmetry_2
O0 V2 1.718935 1_555
O0 V0 1.982332 1_554
O1 V3 1.719238 1_555
O1 V1 1.982816 1_555
O2 V0 1.719396 1_555
O2 V2 1.982384 1_555
O3 V1 1.718902 1_555
O3 V3 1.982627 1_556
F0 V0 1.934514 1_555
F0 Li0 1.944740 1_566
F0 Li3 1.996989 1_455
F1 V1 1.933838 1_555
F1 Li1 1.945670 1_555
F1 Li2 1.996642 1_455
F2 V0 1.960052 1_555
F2 Li1 2.013029 1_555
F2 Li0 2.183362 1_565
F3 V1 1.960346 1_554
F3 Li0 2.013311 1_555
F3 Li1 2.182065 1_555
F4 V0 1.976443 1_555
F4 V1 1.996961 1_555
F5 V1 1.976410 1_555
F5 V0 1.997322 1_545
F6 V2 1.976395 1_555
F6 V3 1.997226 1_565
F7 V3 1.976502 1_555
F7 V2 1.997124 1_555
F8 V2 1.960563 1_556
F8 Li3 2.013239 1_555
F8 Li2 2.182115 1_555
F9 V3 1.959965 1_555
F9 Li2 2.012969 1_555
F9 Li3 2.183323 1_545
F10 V2 1.933943 1_555
F10 Li2 1.945673 1_555
F10 Li1 1.996574 1_655
F11 V3 1.934597 1_555
F11 Li3 1.944693 1_544
F11 Li0 1.996840 1_655
