# generated using pymatgen
data_Li3Co3CuO8
_symmetry_space_group_name_H-M   'P 1'
_cell_length_a   5.91809365
_cell_length_b   5.82668677
_cell_length_c   5.82668748
_cell_angle_alpha   59.99999545
_cell_angle_beta   60.50962339
_cell_angle_gamma   90.00000175
_symmetry_Int_Tables_number   1
_chemical_formula_structural   Li3Co3CuO8
_chemical_formula_sum   'Li3 Co3 Cu1 O8'
_cell_volume   143.15711803
_cell_formula_units_Z   1
loop_
 _symmetry_equiv_pos_site_id
 _symmetry_equiv_pos_as_xyz
  1  'x, y, z'
loop_
 _atom_site_type_symbol
 _atom_site_label
 _atom_site_symmetry_multiplicity
 _atom_site_fract_x
 _atom_site_fract_y
 _atom_site_fract_z
 _atom_site_occupancy
  Li  Li0  1  0.50000000  0.00000000  0.00000000  1
  Li  Li1  1  0.50000000  0.00000000  0.50000000  1
  Li  Li2  1  0.50000000  0.50000000  0.50000000  1
  Co  Co0  1  0.00000000  0.00000000  0.50000000  1
  Co  Co1  1  0.00000000  0.50000000  0.00000000  1
  Co  Co2  1  0.00000000  0.50000000  0.50000000  1
  Cu  Cu0  1  0.00000000  0.00000000  0.00000000  1
  O  O0  1  0.21876300  0.23621300  0.01745000  1
  O  O1  1  0.21876300  0.23621300  0.52757600  1
  O  O2  1  0.21876300  0.74633900  0.01745000  1
  O  O3  1  0.23277700  0.74425900  0.51148200  1
  O  O4  1  0.76722300  0.25574100  0.48851800  1
  O  O5  1  0.78123700  0.25366100  0.98255000  1
  O  O6  1  0.78123700  0.76378800  0.47242400  1
  O  O7  1  0.78123700  0.76378800  0.98255000  1
loop_
_geom_bond_atom_site_label_1
_geom_bond_atom_site_label_2
_geom_bond_distance
_geom_bond_site_symmetry_2
Li0 O4 2.126515 1_554
Li0 O3 2.126515 1_545
Li0 O5 2.155951 1_554
Li0 O2 2.155951 1_545
Li0 O7 2.155955 1_544
Li0 O0 2.155959 1_555
Li1 O4 2.126515 1_555
Li1 O3 2.126515 1_545
Li1 O6 2.155955 1_545
Li1 O2 2.155959 1_546
Li1 O5 2.155959 1_554
Li1 O1 2.155959 1_555
Li2 O3 2.126515 1_555
Li2 O4 2.126515 1_555
Li2 O1 2.155951 1_555
Li2 O6 2.155955 1_555
Li2 O0 2.155959 1_556
Li2 O7 2.155959 1_554
Co0 O0 2.005540 1_555
Co0 O7 2.005540 1_445
Co0 O6 2.005544 1_445
Co0 O1 2.005549 1_555
Co0 O4 2.028241 1_455
Co0 O3 2.028241 1_545
Co1 O0 2.005540 1_555
Co1 O7 2.005544 1_454
Co1 O5 2.005549 1_454
Co1 O2 2.005549 1_555
Co1 O3 2.028241 1_554
Co1 O4 2.028241 1_455
Co2 O2 2.005540 1_555
Co2 O5 2.005540 1_455
Co2 O1 2.005540 1_555
Co2 O6 2.005544 1_455
Co2 O3 2.028241 1_555
Co2 O4 2.028241 1_455
Cu0 O6 1.962218 1_445
Cu0 O1 1.962218 1_554
Cu0 O5 1.962218 1_454
Cu0 O2 1.962218 1_545
Cu0 O7 1.962223 1_444
Cu0 O0 1.962227 1_555
