# generated using pymatgen
data_Li2VCoO4
_symmetry_space_group_name_H-M   'P 1'
_cell_length_a   5.93283076
_cell_length_b   5.93955698
_cell_length_c   5.93724150
_cell_angle_alpha   60.31497009
_cell_angle_beta   89.60648839
_cell_angle_gamma   119.85967265
_symmetry_Int_Tables_number   1
_chemical_formula_structural   Li2VCoO4
_chemical_formula_sum   'Li4 V2 Co2 O8'
_cell_volume   148.44654922
_cell_formula_units_Z   2
loop_
 _symmetry_equiv_pos_site_id
 _symmetry_equiv_pos_as_xyz
  1  'x, y, z'
loop_
 _atom_site_type_symbol
 _atom_site_label
 _atom_site_symmetry_multiplicity
 _atom_site_fract_x
 _atom_site_fract_y
 _atom_site_fract_z
 _atom_site_occupancy
  Li  Li0  1  0.00000000  0.00000000  0.50000000  1
  Li  Li1  1  0.50000000  0.50000000  0.50000000  1
  Li  Li2  1  0.50000000  0.50000000  0.00000000  1
  Li  Li3  1  0.50000000  0.00000000  0.50000000  1
  V  V0  1  0.50000000  0.00000000  0.00000000  1
  V  V1  1  0.00000000  0.50000000  0.00000000  1
  Co  Co0  1  0.00000000  0.50000000  0.50000000  1
  Co  Co1  1  0.00000000  0.00000000  0.00000000  1
  O  O0  1  0.25268800  0.98213600  0.76504500  1
  O  O1  1  0.25307700  0.51811400  0.22943500  1
  O  O2  1  0.74692300  0.48188600  0.77056500  1
  O  O3  1  0.74731100  0.01786400  0.23495400  1
  O  O4  1  0.26781400  0.99546400  0.22787300  1
  O  O5  1  0.77748600  0.50523100  0.22754300  1
  O  O6  1  0.22251400  0.49476900  0.77245700  1
  O  O7  1  0.73218600  0.00453600  0.77212700  1
loop_
_geom_bond_atom_site_label_1
_geom_bond_atom_site_label_2
_geom_bond_distance
_geom_bond_site_symmetry_2
Li0 O0 2.181851 1_545
Li0 O3 2.181860 1_455
Li0 O2 2.185108 1_445
Li0 O1 2.185108 1_555
Li0 O7 2.277329 1_455
Li0 O4 2.277329 1_545
Li1 O2 2.180894 1_555
Li1 O1 2.180894 1_555
Li1 O0 2.184125 1_545
Li1 O3 2.184125 1_565
Li1 O6 2.278304 1_555
Li1 O5 2.278304 1_555
Li2 O1 2.070742 1_555
Li2 O2 2.070742 1_554
Li2 O7 2.134597 1_564
Li2 O4 2.134597 1_545
Li2 O6 2.134837 1_554
Li2 O5 2.134837 1_555
Li3 O0 2.070828 1_545
Li3 O3 2.070828 1_555
Li3 O7 2.132007 1_555
Li3 O4 2.132007 1_545
Li3 O5 2.137345 1_555
Li3 O6 2.137345 1_545
Co0 O6 2.093058 1_555
Co0 O5 2.093058 1_455
Co0 O4 2.096351 1_555
Co0 O7 2.096351 1_455
Co0 O2 2.116920 1_455
Co0 O1 2.116920 1_555
Co1 O6 2.093828 1_554
Co1 O5 2.093828 1_445
Co1 O7 2.095663 1_454
Co1 O4 2.095663 1_545
Co1 O0 2.116831 1_544
Co1 O3 2.116831 1_455
O0 V0 2.032188 1_566
O0 V1 2.033175 1_556
O1 V0 2.032123 1_565
O1 V1 2.033221 1_555
O2 V0 2.032123 1_556
O2 V1 2.033221 1_656
O3 V0 2.032180 1_555
O3 V1 2.033175 1_655
O4 V0 1.905274 1_565
O5 V1 1.904413 1_655
O6 V1 1.904413 1_556
O7 V0 1.905274 1_556
