# generated using pymatgen
data_V3Cu2Ni(PO4)6
_symmetry_space_group_name_H-M   'P 1'
_cell_length_a   8.57733042
_cell_length_b   8.57733042
_cell_length_c   8.57733055
_cell_angle_alpha   60.26208675
_cell_angle_beta   60.26208675
_cell_angle_gamma   60.26208265
_symmetry_Int_Tables_number   1
_chemical_formula_structural   V3Cu2Ni(PO4)6
_chemical_formula_sum   'V3 Cu2 Ni1 P6 O24'
_cell_volume   448.85922418
_cell_formula_units_Z   1
loop_
 _symmetry_equiv_pos_site_id
 _symmetry_equiv_pos_as_xyz
  1  'x, y, z'
loop_
 _atom_site_type_symbol
 _atom_site_label
 _atom_site_symmetry_multiplicity
 _atom_site_fract_x
 _atom_site_fract_y
 _atom_site_fract_z
 _atom_site_occupancy
  V  V0  1  0.64271500  0.64271500  0.64271500  1
  V  V1  1  0.85850200  0.85850200  0.85850200  1
  V  V2  1  0.35654800  0.35654800  0.35654800  1
  Cu  Cu0  1  0.00280200  0.00280200  0.00280200  1
  Cu  Cu1  1  0.49970400  0.49970400  0.49970400  1
  Ni  Ni0  1  0.14166000  0.14166000  0.14166000  1
  P  P0  1  0.54029200  0.95900300  0.24842700  1
  P  P1  1  0.24842700  0.54029200  0.95900300  1
  P  P2  1  0.95900300  0.24842700  0.54029200  1
  P  P3  1  0.04029600  0.75055100  0.45846800  1
  P  P4  1  0.75055100  0.45846800  0.04029600  1
  P  P5  1  0.45846800  0.04029600  0.75055100  1
  O  O0  1  0.30588100  0.50512000  0.12232900  1
  O  O1  1  0.12232900  0.30588100  0.50512000  1
  O  O2  1  0.50512000  0.12232900  0.30588100  1
  O  O3  1  0.73907500  0.94020400  0.08510600  1
  O  O4  1  0.38374000  0.98219200  0.19941800  1
  O  O5  1  0.57064600  0.76324000  0.41750700  1
  O  O6  1  0.08510600  0.73907500  0.94020400  1
  O  O7  1  0.41750700  0.57064600  0.76324000  1
  O  O8  1  0.00283100  0.80699800  0.62251700  1
  O  O9  1  0.76324000  0.41750700  0.57064600  1
  O  O10  1  0.04677300  0.91024300  0.26756900  1
  O  O11  1  0.80699800  0.62251700  0.00283100  1
  O  O12  1  0.19941800  0.38374000  0.98219200  1
  O  O13  1  0.94020400  0.08510600  0.73907500  1
  O  O14  1  0.23175600  0.57991200  0.44702200  1
  O  O15  1  0.98219200  0.19941800  0.38374000  1
  O  O16  1  0.57991200  0.44702200  0.23175600  1
  O  O17  1  0.91024300  0.26756900  0.04677300  1
  O  O18  1  0.44702200  0.23175600  0.57991200  1
  O  O19  1  0.62251700  0.00283100  0.80699800  1
  O  O20  1  0.26756900  0.04677300  0.91024300  1
  O  O21  1  0.51280700  0.87488500  0.68326200  1
  O  O22  1  0.87488500  0.68326200  0.51280700  1
  O  O23  1  0.68326200  0.51280700  0.87488500  1
loop_
_geom_bond_atom_site_label_1
_geom_bond_atom_site_label_2
_geom_bond_distance
_geom_bond_site_symmetry_2
Cu0 O17 2.166555 1_455
Cu0 O20 2.166555 1_554
Cu0 O10 2.166555 1_545
Cu0 O6 2.268982 1_544
Cu0 O13 2.268982 1_454
Cu0 O3 2.268982 1_445
Cu1 O14 2.261161 1_555
Cu1 O16 2.261161 1_555
Cu1 O18 2.261161 1_555
Cu1 O9 2.309721 1_555
Cu1 O7 2.309721 1_555
Cu1 O5 2.309721 1_555
Ni0 O4 1.989583 1_545
Ni0 O15 1.989583 1_455
Ni0 O12 1.989583 1_554
Ni0 O17 2.091111 1_455
Ni0 O20 2.091111 1_554
Ni0 O10 2.091111 1_545
O0 P1 1.553871 1_554
O0 V2 1.904130 1_555
O1 P2 1.553871 1_455
O1 V2 1.904130 1_555
O2 P0 1.553871 1_545
O2 V2 1.904130 1_555
O3 P0 1.573948 1_555
O3 V1 1.995526 1_554
O4 P0 1.493805 1_555
O5 P0 1.586042 1_555
O5 V0 1.936949 1_555
O6 P1 1.573948 1_555
O6 V1 1.995526 1_455
O7 P1 1.586042 1_555
O7 V0 1.936949 1_555
O8 P3 1.546139 1_555
O8 V1 1.919222 1_455
O9 P2 1.586042 1_555
O9 V0 1.936949 1_555
O10 P3 1.523344 1_555
O11 P4 1.546139 1_555
O11 V1 1.919222 1_554
O12 P1 1.493805 1_555
O13 P2 1.573948 1_555
O13 V1 1.995526 1_545
O14 P3 1.564224 1_555
O14 V2 2.008719 1_555
O15 P2 1.493805 1_555
O16 P4 1.564224 1_555
O16 V2 2.008719 1_555
O17 P4 1.523344 1_555
O18 P5 1.564224 1_555
O18 V2 2.008719 1_555
O19 P5 1.546139 1_555
O19 V1 1.919222 1_545
O20 P5 1.523344 1_555
O21 P5 1.566132 1_565
O21 V0 1.851891 1_555
O22 P3 1.566132 1_655
O22 V0 1.851891 1_555
O23 P4 1.566132 1_556
O23 V0 1.851891 1_555
