# generated using pymatgen
data_Na2FePCO7
_symmetry_space_group_name_H-M   'P 1'
_cell_length_a   6.53492300
_cell_length_b   8.95327000
_cell_length_c   10.47406207
_cell_angle_alpha   89.75332361
_cell_angle_beta   90.00000000
_cell_angle_gamma   90.00000000
_symmetry_Int_Tables_number   1
_chemical_formula_structural   Na2FePCO7
_chemical_formula_sum   'Na8 Fe4 P4 C4 O28'
_cell_volume   612.82048551
_cell_formula_units_Z   4
loop_
 _symmetry_equiv_pos_site_id
 _symmetry_equiv_pos_as_xyz
  1  'x, y, z'
loop_
 _atom_site_type_symbol
 _atom_site_label
 _atom_site_symmetry_multiplicity
 _atom_site_fract_x
 _atom_site_fract_y
 _atom_site_fract_z
 _atom_site_occupancy
  Na  Na0  1  0.75974900  0.91969200  0.61751600  1
  Na  Na1  1  0.74025100  0.91969200  0.11751600  1
  Na  Na2  1  0.98722400  0.73687900  0.87419700  1
  Na  Na3  1  0.51277600  0.73687900  0.37419700  1
  Na  Na4  1  0.48722400  0.26312100  0.62580300  1
  Na  Na5  1  0.01277600  0.26312100  0.12580300  1
  Na  Na6  1  0.25974900  0.08030800  0.88248400  1
  Na  Na7  1  0.24025100  0.08030800  0.38248400  1
  Fe  Fe0  1  0.24448500  0.65358100  0.60757500  1
  Fe  Fe1  1  0.25551500  0.65358100  0.10757500  1
  Fe  Fe2  1  0.74448500  0.34641900  0.89242500  1
  Fe  Fe3  1  0.75551500  0.34641900  0.39242500  1
  P  P0  1  0.74805000  0.57621200  0.64580900  1
  P  P1  1  0.75195000  0.57621200  0.14580900  1
  P  P2  1  0.24805000  0.42378800  0.85419100  1
  P  P3  1  0.25195000  0.42378800  0.35419100  1
  C  C0  1  0.25551100  0.93541100  0.63519800  1
  C  C1  1  0.24448900  0.93541100  0.13519800  1
  C  C2  1  0.75551100  0.06458900  0.86480200  1
  C  C3  1  0.74448900  0.06458900  0.36480200  1
  O  O0  1  0.76202600  0.92356700  0.85132500  1
  O  O1  1  0.73797400  0.92356700  0.35132500  1
  O  O2  1  0.26513200  0.87157600  0.52242700  1
  O  O3  1  0.23486800  0.87157600  0.02242700  1
  O  O4  1  0.23732600  0.84335600  0.73199300  1
  O  O5  1  0.26267400  0.84335600  0.23199300  1
  O  O6  1  0.93808500  0.67639900  0.62125400  1
  O  O7  1  0.56120200  0.67585400  0.61099700  1
  O  O8  1  0.93879800  0.67585400  0.11099700  1
  O  O9  1  0.56191500  0.67639900  0.12125400  1
  O  O10  1  0.24689300  0.56866300  0.93399600  1
  O  O11  1  0.25310700  0.56866300  0.43399600  1
  O  O12  1  0.74890900  0.53190300  0.78991700  1
  O  O13  1  0.75109100  0.53190300  0.28991700  1
  O  O14  1  0.24890900  0.46809700  0.71008300  1
  O  O15  1  0.25109100  0.46809700  0.21008300  1
  O  O16  1  0.74689300  0.43133700  0.56600400  1
  O  O17  1  0.75310700  0.43133700  0.06600400  1
  O  O18  1  0.43808500  0.32360100  0.87874600  1
  O  O19  1  0.06120200  0.32414600  0.88900300  1
  O  O20  1  0.43879800  0.32414600  0.38900300  1
  O  O21  1  0.06191500  0.32360100  0.37874600  1
  O  O22  1  0.73732600  0.15664400  0.76800700  1
  O  O23  1  0.76267400  0.15664400  0.26800700  1
  O  O24  1  0.76513200  0.12842400  0.97757300  1
  O  O25  1  0.73486800  0.12842400  0.47757300  1
  O  O26  1  0.26202600  0.07643300  0.64867500  1
  O  O27  1  0.23797400  0.07643300  0.14867500  1
loop_
_geom_bond_atom_site_label_1
_geom_bond_atom_site_label_2
_geom_bond_distance
_geom_bond_site_symmetry_2
Na0 O25 2.375685 1_565
Na0 O0 2.449370 1_555
Na0 O6 2.470594 1_555
Na0 O7 2.540779 1_555
Na0 O22 2.652466 1_565
Na0 O1 2.791796 1_555
Na1 O24 2.375685 1_564
Na1 O1 2.449370 1_555
Na1 O9 2.470594 1_555
Na1 O8 2.540779 1_555
Na1 O23 2.652466 1_565
Na1 O0 2.791796 1_554
Na2 O0 2.239086 1_555
Na2 O10 2.352019 1_655
Na2 O4 2.405476 1_655
Na2 O3 2.549507 1_656
Na2 O8 2.557085 1_556
Na2 O12 2.566434 1_555
Na2 O6 2.725379 1_555
Na3 O1 2.239086 1_555
Na3 O11 2.352019 1_555
Na3 O5 2.405476 1_555
Na3 O2 2.549507 1_555
Na3 O7 2.557085 1_555
Na3 O13 2.566434 1_555
Na3 O9 2.725379 1_555
Na4 O26 2.239086 1_555
Na4 O16 2.352019 1_555
Na4 O22 2.405476 1_555
Na4 O25 2.549507 1_555
Na4 O20 2.557085 1_555
Na4 O14 2.566434 1_555
Na4 O18 2.725379 1_555
Na5 O27 2.239086 1_555
Na5 O17 2.352019 1_455
Na5 O23 2.405476 1_455
Na5 O24 2.549507 1_454
Na5 O19 2.557085 1_554
Na5 O15 2.566434 1_555
Na5 O21 2.725379 1_555
Na6 O3 2.375685 1_546
Na6 O26 2.449370 1_555
Na6 O18 2.470594 1_555
Na6 O19 2.540779 1_555
Na6 O4 2.652466 1_545
Na6 O27 2.791796 1_556
Na7 O2 2.375685 1_545
Na7 O27 2.449370 1_555
Na7 O21 2.470594 1_555
Na7 O20 2.540779 1_555
Na7 O5 2.652466 1_545
Na7 O26 2.791796 1_555
Fe0 O14 1.973866 1_555
Fe0 O11 1.974469 1_555
Fe0 O6 2.017851 1_455
Fe0 O7 2.079630 1_555
Fe0 O4 2.146264 1_555
Fe0 O2 2.146626 1_555
Fe1 O15 1.973866 1_555
Fe1 O10 1.974469 1_554
Fe1 O9 2.017851 1_555
Fe1 O8 2.079630 1_455
Fe1 O5 2.146264 1_555
Fe1 O3 2.146626 1_555
Fe2 O12 1.973866 1_555
Fe2 O17 1.974469 1_556
Fe2 O18 2.017851 1_555
Fe2 O19 2.079630 1_655
Fe2 O22 2.146264 1_555
Fe2 O24 2.146626 1_555
Fe3 O13 1.973866 1_555
Fe3 O16 1.974469 1_555
Fe3 O21 2.017851 1_655
Fe3 O20 2.079630 1_555
Fe3 O23 2.146264 1_555
Fe3 O25 2.146626 1_555
C0 O26 1.271791 1_565
C0 O4 1.309231 1_555
C0 O2 1.315894 1_555
C1 O27 1.271791 1_565
C1 O5 1.309231 1_555
C1 O3 1.315894 1_555
C2 O0 1.271791 1_545
C2 O22 1.309231 1_555
C2 O24 1.315894 1_555
C3 O1 1.271791 1_545
C3 O23 1.309231 1_555
C3 O25 1.315894 1_555
O6 P0 1.552739 1_555
O7 P0 1.554658 1_555
O8 P1 1.554658 1_555
O9 P1 1.552739 1_555
O10 P2 1.546148 1_555
O11 P3 1.546148 1_555
O12 P0 1.559016 1_555
O13 P1 1.559016 1_555
O14 P2 1.559016 1_555
O15 P3 1.559016 1_555
O16 P0 1.546148 1_555
O17 P1 1.546148 1_555
O18 P2 1.552739 1_555
O19 P2 1.554658 1_555
O20 P3 1.554658 1_555
O21 P3 1.552739 1_555
