# generated using pymatgen
data_LiFeP2O7
_symmetry_space_group_name_H-M   'P 1'
_cell_length_a   6.26930775
_cell_length_b   6.26930775
_cell_length_c   13.95699430
_cell_angle_alpha   77.66384696
_cell_angle_beta   77.66384696
_cell_angle_gamma   80.91071438
_symmetry_Int_Tables_number   1
_chemical_formula_structural   LiFeP2O7
_chemical_formula_sum   'Li4 Fe4 P8 O28'
_cell_volume   519.89035646
_cell_formula_units_Z   4
loop_
 _symmetry_equiv_pos_site_id
 _symmetry_equiv_pos_as_xyz
  1  'x, y, z'
loop_
 _atom_site_type_symbol
 _atom_site_label
 _atom_site_symmetry_multiplicity
 _atom_site_fract_x
 _atom_site_fract_y
 _atom_site_fract_z
 _atom_site_occupancy
  Li  Li0  1  0.21405900  0.22130000  0.65566000  1
  Li  Li1  1  0.77870000  0.78594100  0.84434000  1
  Li  Li2  1  0.22130000  0.21405900  0.15566000  1
  Li  Li3  1  0.78594100  0.77870000  0.34434000  1
  Fe  Fe0  1  0.41290000  0.15419800  0.35258300  1
  Fe  Fe1  1  0.15419800  0.41290000  0.85258300  1
  Fe  Fe2  1  0.84580200  0.58710000  0.14741700  1
  Fe  Fe3  1  0.58710000  0.84580200  0.64741700  1
  P  P0  1  0.27805700  0.86824300  0.86630100  1
  P  P1  1  0.34525500  0.73595300  0.08730400  1
  P  P2  1  0.26404700  0.65474500  0.41269600  1
  P  P3  1  0.86824300  0.27805700  0.36630100  1
  P  P4  1  0.13175700  0.72194300  0.63369900  1
  P  P5  1  0.73595300  0.34525500  0.58730400  1
  P  P6  1  0.65474500  0.26404700  0.91269600  1
  P  P7  1  0.72194300  0.13175700  0.13369900  1
  O  O0  1  0.09413500  0.72227900  0.87909100  1
  O  O1  1  0.17679000  0.56416000  0.11178900  1
  O  O2  1  0.27772100  0.90586500  0.62090900  1
  O  O3  1  0.48494100  0.79636000  0.79222700  1
  O  O4  1  0.08148200  0.71794400  0.35667200  1
  O  O5  1  0.19463900  0.10964900  0.83236900  1
  O  O6  1  0.35330500  0.84482800  0.96880400  1
  O  O7  1  0.37860000  0.41741000  0.41249900  1
  O  O8  1  0.58259000  0.62140000  0.08750100  1
  O  O9  1  0.28205600  0.91851800  0.14332800  1
  O  O10  1  0.15517200  0.64669500  0.53119600  1
  O  O11  1  0.56416000  0.17679000  0.61178900  1
  O  O12  1  0.89035100  0.80536100  0.66763100  1
  O  O13  1  0.20364000  0.51505900  0.70777300  1
  O  O14  1  0.79636000  0.48494100  0.29222700  1
  O  O15  1  0.10964900  0.19463900  0.33236900  1
  O  O16  1  0.43584000  0.82321000  0.38821000  1
  O  O17  1  0.84482800  0.35330500  0.46880400  1
  O  O18  1  0.71794400  0.08148200  0.85667200  1
  O  O19  1  0.41741000  0.37860000  0.91249900  1
  O  O20  1  0.62140000  0.58259000  0.58750100  1
  O  O21  1  0.64669500  0.15517200  0.03119600  1
  O  O22  1  0.80536100  0.89035100  0.16763100  1
  O  O23  1  0.91851800  0.28205600  0.64332800  1
  O  O24  1  0.51505900  0.20364000  0.20777300  1
  O  O25  1  0.72227900  0.09413500  0.37909100  1
  O  O26  1  0.82321000  0.43584000  0.88821100  1
  O  O27  1  0.90586500  0.27772100  0.12090900  1
loop_
_geom_bond_atom_site_label_1
_geom_bond_atom_site_label_2
_geom_bond_distance
_geom_bond_site_symmetry_2
Li0 O23 1.868955 1_455
Li0 O2 2.093570 1_545
Li0 O13 2.106913 1_555
Li0 O11 2.139058 1_555
Li0 O5 2.397605 1_555
Li1 O18 1.868955 1_565
Li1 O0 2.093570 1_655
Li1 O3 2.106913 1_555
Li1 O26 2.139058 1_555
Li1 O12 2.397605 1_555
Li2 O9 1.868955 1_545
Li2 O27 2.093570 1_455
Li2 O24 2.106913 1_555
Li2 O1 2.139058 1_555
Li2 O15 2.397605 1_555
Li3 O4 1.868955 1_655
Li3 O25 2.093570 1_565
Li3 O14 2.106913 1_555
Li3 O16 2.139057 1_555
Li3 O22 2.397605 1_555
Fe0 O15 1.950556 1_555
Fe0 O24 1.957828 1_555
Fe0 O7 1.967043 1_555
Fe0 O25 2.014207 1_555
Fe0 O16 2.017229 1_545
Fe1 O5 1.950556 1_555
Fe1 O13 1.957828 1_555
Fe1 O19 1.967043 1_555
Fe1 O0 2.014207 1_555
Fe1 O26 2.017230 1_455
Fe2 O22 1.950556 1_555
Fe2 O14 1.957828 1_555
Fe2 O8 1.967043 1_555
Fe2 O27 2.014207 1_555
Fe2 O1 2.017230 1_655
Fe3 O12 1.950556 1_555
Fe3 O3 1.957828 1_555
Fe3 O20 1.967043 1_555
Fe3 O2 2.014207 1_555
Fe3 O11 2.017230 1_565
O0 P0 1.540922 1_555
O1 P1 1.562093 1_555
O2 P4 1.540922 1_555
O3 P0 1.547784 1_555
O4 P2 1.478227 1_555
O5 P0 1.528990 1_545
O6 P0 1.570853 1_555
O6 P1 1.642160 1_556
O7 P2 1.546928 1_555
O8 P1 1.546928 1_555
O9 P1 1.478227 1_555
O10 P4 1.570853 1_555
O10 P2 1.642160 1_555
O11 P5 1.562093 1_555
O12 P4 1.528990 1_655
O13 P4 1.547784 1_555
O14 P3 1.547784 1_555
O15 P3 1.528990 1_455
O16 P2 1.562092 1_555
O17 P3 1.570853 1_555
O17 P5 1.642160 1_555
O18 P6 1.478227 1_555
O19 P6 1.546928 1_555
O20 P5 1.546928 1_555
O21 P7 1.570853 1_555
O21 P6 1.642160 1_554
O22 P7 1.528990 1_565
O23 P5 1.478227 1_555
O24 P7 1.547784 1_555
O25 P3 1.540922 1_555
O26 P6 1.562093 1_555
O27 P7 1.540922 1_555
