# generated using pymatgen
data_Li2CuSiO4
_symmetry_space_group_name_H-M   'P 1'
_cell_length_a   5.45632300
_cell_length_b   5.01094000
_cell_length_c   7.75101997
_cell_angle_alpha   52.06232081
_cell_angle_beta   90.00000000
_cell_angle_gamma   90.00000000
_symmetry_Int_Tables_number   1
_chemical_formula_structural   Li2CuSiO4
_chemical_formula_sum   'Li4 Cu2 Si2 O8'
_cell_volume   167.13943401
_cell_formula_units_Z   2
loop_
 _symmetry_equiv_pos_site_id
 _symmetry_equiv_pos_as_xyz
  1  'x, y, z'
loop_
 _atom_site_type_symbol
 _atom_site_label
 _atom_site_symmetry_multiplicity
 _atom_site_fract_x
 _atom_site_fract_y
 _atom_site_fract_z
 _atom_site_occupancy
  Li  Li0  1  0.82502400  0.49342000  0.99913000  1
  Li  Li1  1  0.34743600  0.24647500  0.25296200  1
  Li  Li2  1  0.17497600  0.49342000  0.49913000  1
  Li  Li3  1  0.65256400  0.24647500  0.75296200  1
  Cu  Cu0  1  0.16932300  0.98570500  0.01449500  1
  Cu  Cu1  1  0.83067700  0.98570500  0.51449500  1
  Si  Si0  1  0.68086000  0.73927700  0.25263500  1
  Si  Si1  1  0.31914000  0.73927700  0.75263500  1
  O  O0  1  0.82037600  0.06457700  0.03103000  1
  O  O1  1  0.39518800  0.85039000  0.25039000  1
  O  O2  1  0.68143700  0.41173800  0.25471300  1
  O  O3  1  0.82259300  0.62575800  0.47787600  1
  O  O4  1  0.17962400  0.06457700  0.53103000  1
  O  O5  1  0.60481200  0.85039000  0.75039000  1
  O  O6  1  0.31856300  0.41173800  0.75471300  1
  O  O7  1  0.17740700  0.62575800  0.97787600  1
loop_
_geom_bond_atom_site_label_1
_geom_bond_atom_site_label_2
_geom_bond_distance
_geom_bond_site_symmetry_2
Li0 O2 1.925822 1_556
Li0 O0 2.006551 1_556
Li0 O7 2.007336 1_655
Li0 O5 2.029767 1_555
Li1 O4 1.974578 1_555
Li1 O2 2.005242 1_555
Li1 O7 2.009045 1_554
Li1 O1 2.014001 1_545
Li2 O6 1.925822 1_555
Li2 O4 2.006551 1_555
Li2 O3 2.007336 1_455
Li2 O1 2.029767 1_555
Li3 O0 1.974578 1_556
Li3 O6 2.005242 1_555
Li3 O3 2.009045 1_555
Li3 O5 2.014001 1_545
Cu0 O1 1.948655 1_555
Cu0 O0 1.964689 1_465
Cu0 O7 1.991290 1_554
Cu0 O6 1.997354 1_564
Cu1 O5 1.948655 1_555
Cu1 O4 1.964689 1_665
Cu1 O3 1.991290 1_555
Cu1 O2 1.997354 1_565
O0 Si0 1.656558 1_545
O1 Si0 1.651665 1_555
O2 Si0 1.631428 1_555
O3 Si0 1.657857 1_555
O4 Si1 1.656558 1_545
O5 Si1 1.651665 1_555
O6 Si1 1.631428 1_555
O7 Si1 1.657857 1_555
