# generated using pymatgen
data_Li8(NiO2)5
_symmetry_space_group_name_H-M   'P 1'
_cell_length_a   7.95598662
_cell_length_b   5.31599487
_cell_length_c   5.91238684
_cell_angle_alpha   63.51173868
_cell_angle_beta   110.64372000
_cell_angle_gamma   90.28982737
_symmetry_Int_Tables_number   1
_chemical_formula_structural   Li8(NiO2)5
_chemical_formula_sum   'Li8 Ni5 O10'
_cell_volume   205.95170419
_cell_formula_units_Z   1
loop_
 _symmetry_equiv_pos_site_id
 _symmetry_equiv_pos_as_xyz
  1  'x, y, z'
loop_
 _atom_site_type_symbol
 _atom_site_label
 _atom_site_symmetry_multiplicity
 _atom_site_fract_x
 _atom_site_fract_y
 _atom_site_fract_z
 _atom_site_occupancy
  Li  Li0  1  0.69960000  0.02445000  0.31279900  1
  Li  Li1  1  0.13021200  0.58766700  0.48662300  1
  Li  Li2  1  0.26959900  0.21254600  0.91318500  1
  Li  Li3  1  0.05990200  0.84506100  0.67253200  1
  Li  Li4  1  0.70063600  0.77549700  0.08713100  1
  Li  Li5  1  0.52252100  0.40690200  0.90689100  1
  Li  Li6  1  0.87759900  0.39290400  0.49323300  1
  Li  Li7  1  0.34011000  0.95492700  0.72763100  1
  Ni  Ni0  1  0.99289500  0.00434200  0.00868300  1
  Ni  Ni1  1  0.19996800  0.39997700  0.20001800  1
  Ni  Ni2  1  0.59544600  0.20782000  0.58884400  1
  Ni  Ni3  1  0.40705300  0.79559600  0.39129200  1
  Ni  Ni4  1  0.80447300  0.59214600  0.81115200  1
  O  O0  1  0.45331000  0.21557400  0.22071600  1
  O  O1  1  0.23271000  0.83150000  0.01573200  1
  O  O2  1  0.04495200  0.43314200  0.80609700  1
  O  O3  1  0.35495900  0.36706900  0.59377800  1
  O  O4  1  0.84482700  0.01537300  0.64172100  1
  O  O5  1  0.16747300  0.96847400  0.38442400  1
  O  O6  1  0.65198100  0.62530700  0.42622900  1
  O  O7  1  0.94672300  0.58410300  0.17946400  1
  O  O8  1  0.74775000  0.17462100  0.97354700  1
  O  O9  1  0.55513600  0.78466500  0.75811200  1
loop_
_geom_bond_atom_site_label_1
_geom_bond_atom_site_label_2
_geom_bond_distance
_geom_bond_site_symmetry_2
Li0 O4 1.857886 1_555
Li0 O8 1.979289 1_554
Li0 O0 1.985637 1_555
Li0 O6 1.999293 1_545
Li1 O3 1.879774 1_555
Li1 O5 1.892129 1_555
Li1 O7 1.894879 1_455
Li1 O2 2.053388 1_555
Li2 O2 1.879214 1_555
Li2 O1 1.892316 1_546
Li2 O0 1.895929 1_556
Li2 O3 2.053567 1_555
Li3 O4 1.851927 1_465
Li3 O1 1.978945 1_556
Li3 O2 1.988435 1_555
Li3 O5 2.022334 1_555
Li4 O9 1.858692 1_554
Li4 O6 1.980671 1_555
Li4 O7 1.984316 1_555
Li4 O8 1.997925 1_564
Li5 O9 1.858448 1_555
Li5 O0 1.952365 1_556
Li5 O3 1.963623 1_555
Li5 O8 1.995340 1_555
Li6 O4 1.857684 1_555
Li6 O7 1.951604 1_555
Li6 O2 1.963072 1_655
Li6 O6 1.997449 1_555
Li7 O9 1.852329 1_555
Li7 O5 1.978555 1_555
Li7 O3 1.989250 1_565
Li7 O1 2.021318 1_556
Ni0 O4 2.045355 1_554
Ni0 O8 2.056921 1_554
Ni0 O5 2.085629 1_645
Ni0 O7 2.094341 1_545
Ni0 O1 2.100909 1_645
Ni0 O2 2.169565 1_654
Ni1 O5 2.116412 1_545
Ni1 O1 2.117037 1_555
Ni1 O3 2.141428 1_555
Ni1 O2 2.141727 1_554
Ni1 O7 2.184839 1_455
Ni1 O0 2.185768 1_555
Ni2 O0 2.050041 1_555
Ni2 O8 2.091310 1_555
Ni2 O9 2.091758 1_545
Ni2 O4 2.092551 1_555
Ni2 O6 2.108000 1_555
Ni2 O3 2.110938 1_555
Ni3 O9 2.044904 1_555
Ni3 O6 2.055869 1_555
Ni3 O1 2.084168 1_555
Ni3 O0 2.093308 1_565
Ni3 O5 2.099834 1_555
Ni3 O3 2.168422 1_555
Ni4 O7 2.050444 1_556
Ni4 O9 2.092012 1_555
Ni4 O4 2.092250 1_565
Ni4 O6 2.092784 1_555
Ni4 O8 2.108643 1_555
Ni4 O2 2.110710 1_655
