# generated using pymatgen
data_Na3CoO3
_symmetry_space_group_name_H-M   'P 1'
_cell_length_a   9.18138900
_cell_length_b   9.18138900
_cell_length_c   4.50147100
_cell_angle_alpha   90.00000000
_cell_angle_beta   90.00000000
_cell_angle_gamma   90.00000000
_symmetry_Int_Tables_number   1
_chemical_formula_structural   Na3CoO3
_chemical_formula_sum   'Na12 Co4 O12'
_cell_volume   379.46457008
_cell_formula_units_Z   4
loop_
 _symmetry_equiv_pos_site_id
 _symmetry_equiv_pos_as_xyz
  1  'x, y, z'
loop_
 _atom_site_type_symbol
 _atom_site_label
 _atom_site_symmetry_multiplicity
 _atom_site_fract_x
 _atom_site_fract_y
 _atom_site_fract_z
 _atom_site_occupancy
  Na  Na0  1  0.62883800  0.12928800  0.00000000  1
  Na  Na1  1  0.37071200  0.12883800  0.50000000  1
  Na  Na2  1  0.85429600  0.14570400  0.50000000  1
  Na  Na3  1  0.35429600  0.35429600  0.00000000  1
  Na  Na4  1  0.87071200  0.37116200  0.00000000  1
  Na  Na5  1  0.12883800  0.37071200  0.50000000  1
  Na  Na6  1  0.87116200  0.62928800  0.50000000  1
  Na  Na7  1  0.12928800  0.62883800  0.00000000  1
  Na  Na8  1  0.64570400  0.64570400  0.00000000  1
  Na  Na9  1  0.14570400  0.85429600  0.50000000  1
  Na  Na10  1  0.62928800  0.87116200  0.50000000  1
  Na  Na11  1  0.37116200  0.87071200  0.00000000  1
  Co  Co0  1  0.11424100  0.11424100  0.00000000  1
  Co  Co1  1  0.61424100  0.38575900  0.50000000  1
  Co  Co2  1  0.38575900  0.61424100  0.50000000  1
  Co  Co3  1  0.88575900  0.88575900  0.00000000  1
  O  O0  1  0.90460600  0.09539400  0.00000000  1
  O  O1  1  0.30940500  0.10465900  0.00000000  1
  O  O2  1  0.60465900  0.19059500  0.50000000  1
  O  O3  1  0.10465900  0.30940500  0.00000000  1
  O  O4  1  0.80940500  0.39534100  0.50000000  1
  O  O5  1  0.40460600  0.40460600  0.50000000  1
  O  O6  1  0.59539400  0.59539400  0.50000000  1
  O  O7  1  0.19059500  0.60465900  0.50000000  1
  O  O8  1  0.89534100  0.69059500  0.00000000  1
  O  O9  1  0.39534100  0.80940500  0.50000000  1
  O  O10  1  0.69059500  0.89534100  0.00000000  1
  O  O11  1  0.09539400  0.90460600  0.00000000  1
loop_
_geom_bond_atom_site_label_1
_geom_bond_atom_site_label_2
_geom_bond_distance
_geom_bond_site_symmetry_2
Na0 O10 2.221538 1_545
Na0 O2 2.330650 1_554
Na0 O2 2.330650 1_555
Na0 O0 2.550986 1_555
Na0 O1 2.941543 1_555
Na1 O2 2.221538 1_555
Na1 O1 2.330650 1_556
Na1 O1 2.330650 1_555
Na1 O5 2.550986 1_555
Na1 O9 2.941543 1_545
Na2 O4 2.328778 1_555
Na2 O2 2.328778 1_555
Na2 O0 2.343617 1_556
Na2 O0 2.343617 1_555
Na3 O1 2.328778 1_555
Na3 O3 2.328778 1_555
Na3 O5 2.343617 1_554
Na3 O5 2.343617 1_555
Na4 O3 2.221538 1_655
Na4 O4 2.330650 1_554
Na4 O4 2.330650 1_555
Na4 O0 2.550986 1_555
Na4 O8 2.941543 1_555
Na5 O7 2.221538 1_555
Na5 O3 2.330650 1_556
Na5 O3 2.330650 1_555
Na5 O5 2.550986 1_555
Na5 O4 2.941543 1_455
Na6 O4 2.221538 1_555
Na6 O8 2.330650 1_555
Na6 O8 2.330650 1_556
Na6 O6 2.550986 1_555
Na6 O7 2.941543 1_655
Na7 O8 2.221538 1_455
Na7 O7 2.330650 1_555
Na7 O7 2.330650 1_554
Na7 O11 2.550986 1_555
Na7 O3 2.941543 1_555
Na8 O8 2.328778 1_555
Na8 O10 2.328778 1_555
Na8 O6 2.343617 1_555
Na8 O6 2.343617 1_554
Na9 O9 2.328778 1_555
Na9 O7 2.328778 1_555
Na9 O11 2.343617 1_556
Na9 O11 2.343617 1_555
Na10 O9 2.221538 1_555
Na10 O10 2.330650 1_555
Na10 O10 2.330650 1_556
Na10 O6 2.550986 1_555
Na10 O2 2.941543 1_565
Na11 O1 2.221538 1_565
Na11 O9 2.330650 1_555
Na11 O9 2.330650 1_554
Na11 O11 2.550986 1_555
Na11 O10 2.941543 1_555
Co0 O3 1.794035 1_555
Co0 O1 1.794035 1_555
Co0 O0 1.932503 1_455
Co0 O11 1.932503 1_545
Co1 O4 1.794035 1_555
Co1 O2 1.794035 1_555
Co1 O6 1.932503 1_555
Co1 O5 1.932503 1_555
Co2 O9 1.794035 1_555
Co2 O7 1.794035 1_555
Co2 O6 1.932503 1_555
Co2 O5 1.932503 1_555
Co3 O8 1.794035 1_555
Co3 O10 1.794035 1_555
Co3 O0 1.932503 1_565
Co3 O11 1.932503 1_655
