# generated using pymatgen
data_Li4Nb3Fe3(TeO8)2
_symmetry_space_group_name_H-M   'P 1'
_cell_length_a   6.26615062
_cell_length_b   6.26615062
_cell_length_c   10.50071958
_cell_angle_alpha   89.58766892
_cell_angle_beta   89.58766892
_cell_angle_gamma   58.03314120
_symmetry_Int_Tables_number   1
_chemical_formula_structural   Li4Nb3Fe3(TeO8)2
_chemical_formula_sum   'Li4 Nb3 Fe3 Te2 O16'
_cell_volume   349.77065295
_cell_formula_units_Z   1
loop_
 _symmetry_equiv_pos_site_id
 _symmetry_equiv_pos_as_xyz
  1  'x, y, z'
loop_
 _atom_site_type_symbol
 _atom_site_label
 _atom_site_symmetry_multiplicity
 _atom_site_fract_x
 _atom_site_fract_y
 _atom_site_fract_z
 _atom_site_occupancy
  Li  Li0  1  0.66964500  0.66964500  0.09619700  1
  Li  Li1  1  0.00233800  0.00233800  0.00333700  1
  Li  Li2  1  0.99907500  0.99907500  0.51621000  1
  Li  Li3  1  0.33954100  0.33954100  0.59651300  1
  Nb  Nb0  1  0.81896500  0.81896500  0.76507300  1
  Nb  Nb1  1  0.16440500  0.64936800  0.27926300  1
  Nb  Nb2  1  0.64936800  0.16440500  0.27926300  1
  Fe  Fe0  1  0.34257100  0.83011000  0.78611300  1
  Fe  Fe1  1  0.83011000  0.34257100  0.78611300  1
  Fe  Fe2  1  0.16636700  0.16636700  0.29373000  1
  Te  Te0  1  0.64408600  0.64408600  0.50408700  1
  Te  Te1  1  0.32987500  0.32987500  0.98273600  1
  O  O0  1  0.31837700  0.82569100  0.40869800  1
  O  O1  1  0.52335400  0.52335400  0.64558700  1
  O  O2  1  0.68585300  0.68585300  0.89652400  1
  O  O3  1  0.98889000  0.98889000  0.69921700  1
  O  O4  1  0.99917000  0.99917000  0.18889300  1
  O  O5  1  0.82569100  0.31837700  0.40869800  1
  O  O6  1  0.52123800  0.98811300  0.66469200  1
  O  O7  1  0.98811300  0.52123800  0.66469200  1
  O  O8  1  0.16761200  0.16761200  0.90164800  1
  O  O9  1  0.86069100  0.86069100  0.39526300  1
  O  O10  1  0.01772700  0.50531400  0.18281400  1
  O  O11  1  0.50531400  0.01772700  0.18281400  1
  O  O12  1  0.34224400  0.34224400  0.40309900  1
  O  O13  1  0.16539800  0.66002200  0.89576800  1
  O  O14  1  0.49617000  0.49617000  0.17387300  1
  O  O15  1  0.66002200  0.16539800  0.89576800  1
loop_
_geom_bond_atom_site_label_1
_geom_bond_atom_site_label_2
_geom_bond_distance
_geom_bond_site_symmetry_2
Li0 O14 2.062561 1_555
Li0 O10 2.069265 1_655
Li0 O11 2.069265 1_565
Li0 O2 2.102764 1_554
Li1 O4 1.948495 1_445
Li1 O8 2.095019 1_554
Li1 O15 2.149071 1_454
Li1 O13 2.149071 1_544
Li2 O3 1.924027 1_555
Li2 O9 1.986128 1_555
Li2 O0 2.035074 1_655
Li2 O5 2.035074 1_565
Li3 O7 1.998092 1_455
Li3 O6 1.998092 1_545
Li3 O12 2.030958 1_555
Li3 O1 2.083421 1_555
Nb0 O6 1.906153 1_555
Nb0 O7 1.906153 1_555
Nb0 O3 1.981160 1_555
Nb0 O2 2.000071 1_555
Nb0 O15 2.306880 1_565
Nb0 O13 2.306880 1_655
Nb1 O10 1.894814 1_555
Nb1 O9 2.044625 1_455
Nb1 O14 2.082569 1_555
Nb1 O12 2.085771 1_555
Nb1 O4 2.087621 1_455
Nb1 O0 2.273351 1_555
Nb2 O11 1.894814 1_555
Nb2 O9 2.044625 1_545
Nb2 O14 2.082569 1_555
Nb2 O12 2.085771 1_555
Nb2 O4 2.087621 1_545
Nb2 O5 2.273351 1_555
Fe0 O3 2.101282 1_455
Fe0 O8 2.170045 1_565
Fe0 O2 2.179516 1_555
Fe0 O1 2.206046 1_555
Fe0 O13 2.216105 1_555
Fe0 O6 2.234782 1_555
Fe1 O3 2.101282 1_545
Fe1 O8 2.170045 1_655
Fe1 O2 2.179516 1_555
Fe1 O1 2.206046 1_555
Fe1 O15 2.216105 1_555
Fe1 O7 2.234782 1_555
Fe2 O4 2.145371 1_445
Fe2 O10 2.149496 1_555
Fe2 O11 2.149496 1_555
Fe2 O5 2.179039 1_455
Fe2 O0 2.179039 1_545
Fe2 O12 2.251788 1_555
O0 Te0 2.004374 1_555
O1 Te0 1.981432 1_555
O5 Te0 2.004374 1_555
O6 Te0 2.521987 1_555
O7 Te0 2.521987 1_555
O8 Te1 1.977933 1_555
O9 Te0 2.626069 1_555
O13 Te1 1.976021 1_555
O15 Te1 1.976021 1_555
