# generated using pymatgen
data_Si6Bi9O26
_symmetry_space_group_name_H-M   'P 1'
_cell_length_a   9.74509180
_cell_length_b   9.74509180
_cell_length_c   7.08298800
_cell_angle_alpha   90.00000000
_cell_angle_beta   90.00000000
_cell_angle_gamma   119.99999862
_symmetry_Int_Tables_number   1
_chemical_formula_structural   Si6Bi9O26
_chemical_formula_sum   'Si6 Bi9 O26'
_cell_volume   582.53096097
_cell_formula_units_Z   1
loop_
 _symmetry_equiv_pos_site_id
 _symmetry_equiv_pos_as_xyz
  1  'x, y, z'
loop_
 _atom_site_type_symbol
 _atom_site_label
 _atom_site_symmetry_multiplicity
 _atom_site_fract_x
 _atom_site_fract_y
 _atom_site_fract_z
 _atom_site_occupancy
  Si  Si0  1  0.40471300  0.02462200  0.24715700  1
  Si  Si1  1  0.02504400  0.62952900  0.75372200  1
  Si  Si2  1  0.37047100  0.39551500  0.75372200  1
  Si  Si3  1  0.61990900  0.59528700  0.24715700  1
  Si  Si4  1  0.97537800  0.38009100  0.24715700  1
  Si  Si5  1  0.60448500  0.97495600  0.75372200  1
  Bi  Bi0  1  0.00603700  0.23953600  0.73397700  1
  Bi  Bi1  1  0.25047500  0.22680400  0.24027500  1
  Bi  Bi2  1  0.77319600  0.02367100  0.24027500  1
  Bi  Bi3  1  0.33333300  0.66666700  0.99950000  1
  Bi  Bi4  1  0.66666700  0.33333300  0.95479900  1
  Bi  Bi5  1  0.33333300  0.66666700  0.48810100  1
  Bi  Bi6  1  0.23349900  0.99396300  0.73397700  1
  Bi  Bi7  1  0.76046400  0.76650100  0.73397700  1
  Bi  Bi8  1  0.97632900  0.74952500  0.24027500  1
  O  O0  1  0.32427700  0.07257500  0.42240200  1
  O  O1  1  0.34172500  0.08784700  0.06681400  1
  O  O2  1  0.24398400  0.34164400  0.93407400  1
  O  O3  1  0.24890500  0.34306400  0.56883900  1
  O  O4  1  0.12100600  0.52892300  0.75323000  1
  O  O5  1  0.17011900  0.49936600  0.24912600  1
  O  O6  1  0.59668600  0.11146500  0.23116000  1
  O  O7  1  0.47742600  0.31191700  0.75677700  1
  O  O8  1  0.09766000  0.75601600  0.93407400  1
  O  O9  1  0.68808300  0.16550800  0.75677700  1
  O  O10  1  0.09415800  0.75109500  0.56883900  1
  O  O11  1  0.51477900  0.40331400  0.23116000  1
  O  O12  1  0.00000000  0.00000000  0.71151300  1
  O  O13  1  0.00000000  0.00000000  0.20945500  1
  O  O14  1  0.47107700  0.59208300  0.75323000  1
  O  O15  1  0.91215300  0.25387800  0.06681400  1
  O  O16  1  0.50063400  0.67075300  0.24912600  1
  O  O17  1  0.32924700  0.82988100  0.24912600  1
  O  O18  1  0.92742500  0.25170200  0.42240200  1
  O  O19  1  0.40791700  0.87899400  0.75323000  1
  O  O20  1  0.83449200  0.52257400  0.75677700  1
  O  O21  1  0.88853500  0.48522100  0.23116000  1
  O  O22  1  0.74612200  0.65827500  0.06681400  1
  O  O23  1  0.74829800  0.67572300  0.42240200  1
  O  O24  1  0.65693600  0.90584200  0.56883900  1
  O  O25  1  0.65835600  0.90234000  0.93407400  1
loop_
_geom_bond_atom_site_label_1
_geom_bond_atom_site_label_2
_geom_bond_distance
_geom_bond_site_symmetry_2
Bi0 O12 2.310932 1_555
Bi0 O18 2.358408 1_455
Bi0 O3 2.366386 1_555
Bi0 O4 2.463177 1_555
Bi0 O2 2.463410 1_555
Bi0 O15 2.557768 1_456
Bi0 O9 2.812806 1_455
Bi1 O11 2.273010 1_555
Bi1 O1 2.310442 1_555
Bi1 O13 2.344314 1_555
Bi1 O0 2.349735 1_555
Bi1 O2 2.455811 1_554
Bi1 O3 2.591738 1_555
Bi2 O6 2.273010 1_555
Bi2 O15 2.310442 1_555
Bi2 O13 2.344314 1_655
Bi2 O18 2.349735 1_555
Bi2 O25 2.455811 1_544
Bi2 O24 2.591736 1_545
Bi3 O17 2.391839 1_556
Bi3 O5 2.391842 1_556
Bi3 O16 2.391845 1_556
Bi3 O19 2.519605 1_555
Bi3 O4 2.519606 1_555
Bi3 O14 2.519612 1_555
Bi4 O9 2.242074 1_555
Bi4 O7 2.242074 1_555
Bi4 O20 2.242074 1_555
Bi4 O6 2.738068 1_556
Bi4 O21 2.738069 1_556
Bi4 O11 2.738074 1_556
Bi5 O17 2.336623 1_555
Bi5 O5 2.336627 1_555
Bi5 O16 2.336630 1_555
Bi5 O19 2.613859 1_555
Bi5 O4 2.613860 1_555
Bi5 O14 2.613866 1_555
Bi6 O12 2.310932 1_565
Bi6 O0 2.358408 1_565
Bi6 O10 2.366386 1_555
Bi6 O19 2.463177 1_555
Bi6 O8 2.463410 1_555
Bi6 O1 2.557768 1_566
Bi6 O7 2.812809 1_565
Bi7 O12 2.310932 1_665
Bi7 O23 2.358408 1_555
Bi7 O24 2.366393 1_555
Bi7 O14 2.463177 1_555
Bi7 O25 2.463410 1_555
Bi7 O22 2.557768 1_556
Bi7 O20 2.812815 1_555
Bi8 O21 2.273010 1_555
Bi8 O22 2.310442 1_555
Bi8 O13 2.344314 1_665
Bi8 O23 2.349735 1_555
Bi8 O8 2.455811 1_654
Bi8 O10 2.591734 1_655
O0 Si0 1.655243 1_555
O1 Si0 1.663209 1_555
O2 Si2 1.667243 1_555
O3 Si2 1.665542 1_555
O4 Si1 1.659093 1_555
O5 Si4 1.657379 1_455
O6 Si0 1.626555 1_555
O7 Si2 1.612339 1_555
O8 Si1 1.667243 1_555
O9 Si5 1.612330 1_545
O10 Si1 1.665542 1_555
O11 Si3 1.626555 1_555
O14 Si2 1.659093 1_555
O15 Si4 1.663209 1_555
O16 Si3 1.657379 1_555
O17 Si0 1.657379 1_565
O18 Si4 1.655243 1_555
O19 Si5 1.659093 1_555
O20 Si1 1.612331 1_655
O21 Si4 1.626555 1_555
O22 Si3 1.663209 1_555
O23 Si3 1.655243 1_555
O24 Si5 1.665537 1_555
O25 Si5 1.667243 1_555
