# generated using pymatgen
data_LiVPO5
_symmetry_space_group_name_H-M   'P 1'
_cell_length_a   9.12418200
_cell_length_b   5.16209400
_cell_length_c   17.74307757
_cell_angle_alpha   88.65788700
_cell_angle_beta   90.00000000
_cell_angle_gamma   90.00000000
_symmetry_Int_Tables_number   1
_chemical_formula_structural   LiVPO5
_chemical_formula_sum   'Li8 V8 P8 O40'
_cell_volume   835.46765389
_cell_formula_units_Z   8
loop_
 _symmetry_equiv_pos_site_id
 _symmetry_equiv_pos_as_xyz
  1  'x, y, z'
loop_
 _atom_site_type_symbol
 _atom_site_label
 _atom_site_symmetry_multiplicity
 _atom_site_fract_x
 _atom_site_fract_y
 _atom_site_fract_z
 _atom_site_occupancy
  Li  Li0  1  0.27318400  0.63431800  0.60922200  1
  Li  Li1  1  0.94966200  0.58741600  0.71018000  1
  Li  Li2  1  0.44966200  0.41258400  0.78982000  1
  Li  Li3  1  0.77318400  0.36568200  0.89077800  1
  Li  Li4  1  0.22681600  0.63431800  0.10922200  1
  Li  Li5  1  0.55033800  0.58741600  0.21018000  1
  Li  Li6  1  0.05033800  0.41258400  0.28982000  1
  Li  Li7  1  0.72681600  0.36568200  0.39077800  1
  V  V0  1  0.62351900  0.50169700  0.62457000  1
  V  V1  1  0.08081800  0.10688900  0.63378500  1
  V  V2  1  0.58081800  0.89311100  0.86621500  1
  V  V3  1  0.12351900  0.49830300  0.87543000  1
  V  V4  1  0.87648100  0.50169700  0.12457000  1
  V  V5  1  0.41918200  0.10688900  0.13378500  1
  V  V6  1  0.91918200  0.89311100  0.36621500  1
  V  V7  1  0.37648100  0.49830300  0.37543000  1
  P  P0  1  0.76861900  0.00467900  0.53256100  1
  P  P1  1  0.41286800  0.00249300  0.69609500  1
  P  P2  1  0.91286800  0.99750700  0.80390500  1
  P  P3  1  0.26861900  0.99532100  0.96743900  1
  P  P4  1  0.73138100  0.00467900  0.03256100  1
  P  P5  1  0.08713200  0.00249300  0.19609500  1
  P  P6  1  0.58713200  0.99750700  0.30390500  1
  P  P7  1  0.23138100  0.99532100  0.46743900  1
  O  O0  1  0.68053800  0.75443700  0.54644300  1
  O  O1  1  0.68163100  0.24993500  0.55069300  1
  O  O2  1  0.20667600  0.96909700  0.55474600  1
  O  O3  1  0.91507400  0.99059500  0.57471600  1
  O  O4  1  0.09054700  0.43110700  0.63677500  1
  O  O5  1  0.46048300  0.25911400  0.65705900  1
  O  O6  1  0.46742400  0.75227500  0.65902900  1
  O  O7  1  0.74951200  0.50032600  0.69055300  1
  O  O8  1  0.24325000  0.98135000  0.69684000  1
  O  O9  1  0.96155200  0.98120800  0.72048800  1
  O  O10  1  0.46155200  0.01879200  0.77951200  1
  O  O11  1  0.74325000  0.01865000  0.80316000  1
  O  O12  1  0.24951200  0.49967400  0.80944700  1
  O  O13  1  0.96742400  0.24772500  0.84097100  1
  O  O14  1  0.96048300  0.74088600  0.84294100  1
  O  O15  1  0.59054700  0.56889300  0.86322500  1
  O  O16  1  0.41507400  0.00940500  0.92528400  1
  O  O17  1  0.70667600  0.03090300  0.94525400  1
  O  O18  1  0.18163100  0.75006500  0.94930700  1
  O  O19  1  0.18053800  0.24556300  0.95355700  1
  O  O20  1  0.81946200  0.75443700  0.04644300  1
  O  O21  1  0.81836900  0.24993500  0.05069300  1
  O  O22  1  0.29332400  0.96909700  0.05474600  1
  O  O23  1  0.58492600  0.99059500  0.07471600  1
  O  O24  1  0.40945300  0.43110700  0.13677500  1
  O  O25  1  0.03951700  0.25911400  0.15705900  1
  O  O26  1  0.03257600  0.75227500  0.15902900  1
  O  O27  1  0.75048800  0.50032600  0.19055300  1
  O  O28  1  0.25675000  0.98135000  0.19684000  1
  O  O29  1  0.53844800  0.98120800  0.22048800  1
  O  O30  1  0.03844800  0.01879200  0.27951200  1
  O  O31  1  0.75675000  0.01865000  0.30316000  1
  O  O32  1  0.25048800  0.49967400  0.30944700  1
  O  O33  1  0.53257600  0.24772500  0.34097100  1
  O  O34  1  0.53951700  0.74088600  0.34294100  1
  O  O35  1  0.90945300  0.56889300  0.36322500  1
  O  O36  1  0.08492600  0.00940500  0.42528400  1
  O  O37  1  0.79332400  0.03090300  0.44525400  1
  O  O38  1  0.31836900  0.75006500  0.44930700  1
  O  O39  1  0.31946200  0.24556300  0.45355700  1
loop_
_geom_bond_atom_site_label_1
_geom_bond_atom_site_label_2
_geom_bond_distance
_geom_bond_site_symmetry_2
Li0 O4 2.022943 1_555
Li0 O2 2.052022 1_555
Li0 O6 2.077963 1_555
Li0 O8 2.414753 1_555
Li1 O7 1.914613 1_555
Li1 O4 2.012218 1_655
Li1 O9 2.048140 1_555
Li1 O14 2.504713 1_555
Li2 O12 1.914613 1_555
Li2 O15 2.012218 1_555
Li2 O10 2.048140 1_555
Li2 O5 2.504713 1_555
Li3 O15 2.022943 1_555
Li3 O17 2.052022 1_555
Li3 O13 2.077963 1_555
Li3 O11 2.414753 1_555
Li4 O24 2.022943 1_555
Li4 O22 2.052022 1_555
Li4 O26 2.077963 1_555
Li4 O28 2.414753 1_555
Li5 O27 1.914613 1_555
Li5 O24 2.012218 1_555
Li5 O29 2.048140 1_555
Li5 O34 2.504713 1_555
Li6 O32 1.914613 1_555
Li6 O35 2.012218 1_455
Li6 O30 2.048140 1_555
Li6 O25 2.504713 1_555
Li7 O35 2.022943 1_555
Li7 O37 2.052022 1_555
Li7 O33 2.077963 1_555
Li7 O31 2.414753 1_555
O0 P0 1.536334 1_565
O0 V0 1.951842 1_555
O1 P0 1.534723 1_555
O1 V0 1.941175 1_555
O2 P7 1.568122 1_555
O2 V1 1.959105 1_565
O3 P0 1.532264 1_565
O3 V1 1.943010 1_665
O4 V1 1.678075 1_555
O5 P1 1.542829 1_555
O5 V0 2.019764 1_555
O6 P1 1.545463 1_565
O6 V0 2.027927 1_555
O7 V0 1.640682 1_555
O8 P1 1.551504 1_565
O8 V1 1.958108 1_565
O9 P2 1.549467 1_555
O9 V1 1.981150 1_665
O10 P1 1.549467 1_555
O10 V2 1.981150 1_545
O11 P2 1.551504 1_545
O11 V2 1.958108 1_545
O12 V3 1.640682 1_555
O13 P2 1.545463 1_545
O13 V3 2.027927 1_655
O14 P2 1.542829 1_555
O14 V3 2.019764 1_655
O15 V2 1.678075 1_555
O16 P3 1.532264 1_545
O16 V2 1.943010 1_545
O17 P4 1.568122 1_556
O17 V2 1.959105 1_545
O18 P3 1.534723 1_555
O18 V3 1.941175 1_555
O19 P3 1.536334 1_545
O19 V3 1.951842 1_555
O20 P4 1.536334 1_565
O20 V4 1.951842 1_555
O21 P4 1.534723 1_555
O21 V4 1.941175 1_555
O22 P3 1.568122 1_554
O22 V5 1.959105 1_565
O23 P4 1.532264 1_565
O23 V5 1.943010 1_565
O24 V5 1.678075 1_555
O25 P5 1.542829 1_555
O25 V4 2.019764 1_455
O26 P5 1.545463 1_565
O26 V4 2.027927 1_455
O27 V4 1.640682 1_555
O28 P5 1.551504 1_565
O28 V5 1.958108 1_565
O29 P6 1.549467 1_555
O29 V5 1.981150 1_565
O30 P5 1.549467 1_555
O30 V6 1.981150 1_445
O31 P6 1.551504 1_545
O31 V6 1.958108 1_545
O32 V7 1.640682 1_555
O33 P6 1.545463 1_545
O33 V7 2.027927 1_555
O34 P6 1.542829 1_555
O34 V7 2.019764 1_555
O35 V6 1.678075 1_555
O36 P7 1.532264 1_545
O36 V6 1.943010 1_445
O37 P0 1.568122 1_555
O37 V6 1.959105 1_545
O38 P7 1.534723 1_555
O38 V7 1.941175 1_555
O39 P7 1.536334 1_545
O39 V7 1.951842 1_555
