# generated using pymatgen
data_Li2CrO3
_symmetry_space_group_name_H-M   'P 1'
_cell_length_a   5.09403766
_cell_length_b   5.01523100
_cell_length_c   9.76136757
_cell_angle_alpha   94.72906505
_cell_angle_beta   80.65368135
_cell_angle_gamma   120.52256415
_symmetry_Int_Tables_number   1
_chemical_formula_structural   Li2CrO3
_chemical_formula_sum   'Li8 Cr4 O12'
_cell_volume   211.97242982
_cell_formula_units_Z   4
loop_
 _symmetry_equiv_pos_site_id
 _symmetry_equiv_pos_as_xyz
  1  'x, y, z'
loop_
 _atom_site_type_symbol
 _atom_site_label
 _atom_site_symmetry_multiplicity
 _atom_site_fract_x
 _atom_site_fract_y
 _atom_site_fract_z
 _atom_site_occupancy
  Li  Li0  1  0.16768200  0.84298100  0.49901300  1
  Li  Li1  1  0.99912400  0.49884000  0.99984100  1
  Li  Li2  1  0.08424400  0.16793000  0.74978000  1
  Li  Li3  1  0.49974300  0.50069600  0.50001500  1
  Li  Li4  1  0.32393100  0.15745100  0.99895500  1
  Li  Li5  1  0.67613700  0.84198100  0.00100500  1
  Li  Li6  1  0.91538300  0.83205300  0.25036100  1
  Li  Li7  1  0.83316100  0.15748900  0.50086100  1
  Cr  Cr0  1  0.41289200  0.82543000  0.75022000  1
  Cr  Cr1  1  0.24573400  0.49191600  0.24982000  1
  Cr  Cr2  1  0.75430700  0.50830400  0.75001700  1
  Cr  Cr3  1  0.58702300  0.17460200  0.25003600  1
  O  O0  1  0.03757300  0.80600900  0.86448400  1
  O  O1  1  0.12916000  0.53124900  0.63745700  1
  O  O2  1  0.40197400  0.53049400  0.86256700  1
  O  O3  1  0.31030300  0.83185600  0.13872100  1
  O  O4  1  0.23163700  0.19438600  0.36448600  1
  O  O5  1  0.52172500  0.83207700  0.36124900  1
  O  O6  1  0.47847100  0.16807400  0.63884900  1
  O  O7  1  0.76860500  0.80616500  0.63585400  1
  O  O8  1  0.68987400  0.16800900  0.86127800  1
  O  O9  1  0.59787500  0.46852500  0.13710400  1
  O  O10  1  0.87124700  0.46966400  0.36240500  1
  O  O11  1  0.96219400  0.19382000  0.13562400  1
loop_
_geom_bond_atom_site_label_1
_geom_bond_atom_site_label_2
_geom_bond_distance
_geom_bond_site_symmetry_2
Li0 O1 2.063894 1_555
Li0 O5 2.089100 1_555
Li0 O4 2.143818 1_565
Li0 O7 2.174505 1_455
Li0 O6 2.177369 1_565
Li0 O10 2.221356 1_455
Li1 O11 2.023188 1_556
Li1 O0 2.025441 1_655
Li1 O8 2.175108 1_555
Li1 O3 2.185275 1_656
Li1 O9 2.196503 1_556
Li1 O2 2.200685 1_655
Li2 O2 2.096994 1_555
Li2 O7 2.097303 1_445
Li2 O1 2.097406 1_555
Li2 O0 2.101224 1_545
Li2 O6 2.120798 1_555
Li2 O8 2.123898 1_455
Li3 O4 2.023863 1_555
Li3 O7 2.025992 1_555
Li3 O5 2.177686 1_555
Li3 O6 2.184629 1_555
Li3 O1 2.196449 1_555
Li3 O10 2.202042 1_555
Li4 O9 2.062219 1_556
Li4 O8 2.093239 1_555
Li4 O0 2.141566 1_545
Li4 O11 2.170575 1_456
Li4 O3 2.180381 1_546
Li4 O2 2.216764 1_555
Li5 O2 2.065386 1_554
Li5 O3 2.093813 1_555
Li5 O11 2.142808 1_565
Li5 O0 2.167757 1_654
Li5 O8 2.181575 1_564
Li5 O9 2.216233 1_555
Li6 O10 2.093500 1_555
Li6 O11 2.100463 1_565
Li6 O4 2.100962 1_665
Li6 O9 2.101273 1_555
Li6 O5 2.118515 1_555
Li6 O3 2.127072 1_655
Li7 O10 2.066553 1_555
Li7 O6 2.092083 1_555
Li7 O7 2.145365 1_545
Li7 O4 2.169808 1_655
Li7 O5 2.177881 1_545
Li7 O1 2.221504 1_655
Cr0 O2 1.886215 1_555
Cr0 O1 1.886872 1_555
Cr0 O8 1.960933 1_565
Cr0 O6 1.963023 1_565
Cr0 O7 2.010479 1_555
Cr0 O0 2.011216 1_555
Cr1 O11 1.902271 1_455
Cr1 O4 1.903952 1_555
Cr1 O3 1.951997 1_555
Cr1 O5 1.955641 1_555
Cr1 O10 1.995592 1_455
Cr1 O9 1.998385 1_555
Cr2 O7 1.901667 1_555
Cr2 O0 1.902652 1_655
Cr2 O6 1.953982 1_555
Cr2 O8 1.954684 1_555
Cr2 O1 1.995724 1_655
Cr2 O2 1.995736 1_555
Cr3 O9 1.885895 1_555
Cr3 O10 1.887091 1_555
Cr3 O5 1.962124 1_545
Cr3 O3 1.962337 1_545
Cr3 O4 2.010618 1_555
Cr3 O11 2.011566 1_555
