# generated using pymatgen
data_Rb(WO3)4
_symmetry_space_group_name_H-M   'P 1'
_cell_length_a   7.51587230
_cell_length_b   7.51587282
_cell_length_c   46.48754290
_cell_angle_alpha   90.00000000
_cell_angle_beta   90.00000000
_cell_angle_gamma   120.00000227
_symmetry_Int_Tables_number   1
_chemical_formula_structural   Rb(WO3)4
_chemical_formula_sum   'Rb9 W36 O108'
_cell_volume   2274.18624789
_cell_formula_units_Z   9
loop_
 _symmetry_equiv_pos_site_id
 _symmetry_equiv_pos_as_xyz
  1  'x, y, z'
loop_
 _atom_site_type_symbol
 _atom_site_label
 _atom_site_symmetry_multiplicity
 _atom_site_fract_x
 _atom_site_fract_y
 _atom_site_fract_z
 _atom_site_occupancy
  Rb  Rb0  1  0.00000000  0.00000000  0.41255069  1
  Rb  Rb1  1  0.00000000  0.00000000  0.74987007  1
  Rb  Rb2  1  0.00000000  0.00000000  0.83365608  1
  Rb  Rb3  1  0.00000000  0.00000000  0.24994005  1
  Rb  Rb4  1  0.00000000  0.00000000  0.49967690  1
  Rb  Rb5  1  0.00000000  0.00000000  0.58346350  1
  Rb  Rb6  1  0.00000000  0.00000000  0.66666669  1
  Rb  Rb7  1  0.00000000  0.00000000  0.92078504  1
  Rb  Rb8  1  0.00000000  0.00000000  0.08339199  1
  W  W0  1  1.00000000  0.50390082  0.12509329  1
  W  W1  1  1.00000000  0.50370500  0.29164235  1
  W  W2  1  1.00000000  0.50130919  0.45830508  1
  W  W3  1  -0.00000000  0.50046636  0.62508741  1
  W  W4  1  -0.00000000  0.50072635  0.79150550  1
  W  W5  1  1.00000000  0.50306772  0.95856001  1
  W  W6  1  0.49607264  1.00000000  0.20823777  1
  W  W7  1  0.49688160  1.00000000  0.37477889  1
  W  W8  1  0.49609918  0.49609918  0.12509329  1
  W  W9  1  0.49629500  0.49629500  0.29164235  1
  W  W10  1  0.49869081  0.49869081  0.45830508  1
  W  W11  1  0.49953364  0.49953364  0.62508741  1
  W  W12  1  0.49927365  0.49927365  0.79150550  1
  W  W13  1  0.49693228  0.49693228  0.95856001  1
  W  W14  1  0.50366584  0.50366584  0.04168797  1
  W  W15  1  0.50392736  0.50392736  0.20823777  1
  W  W16  1  0.50311840  0.50311840  0.37477889  1
  W  W17  1  0.50071118  0.50071118  0.54182939  1
  W  W18  1  0.50051224  0.50051224  0.70824538  1
  W  W19  1  0.50132692  0.50132692  0.87503055  1
  W  W20  1  0.49633416  1.00000000  0.04168797  1
  W  W21  1  0.49928882  0.00000000  0.54182939  1
  W  W22  1  0.49948776  0.00000000  0.70824538  1
  W  W23  1  0.49867308  1.00000000  0.87503055  1
  W  W24  1  0.50390082  0.00000000  0.12509329  1
  W  W25  1  0.50370500  0.00000000  0.29164235  1
  W  W26  1  0.50130919  0.00000000  0.45830508  1
  W  W27  1  0.50046636  1.00000000  0.62508741  1
  W  W28  1  0.50306772  0.00000000  0.95856001  1
  W  W29  1  0.50072635  1.00000000  0.79150550  1
  W  W30  1  0.00000000  0.49633416  0.04168797  1
  W  W31  1  0.00000000  0.49607264  0.20823777  1
  W  W32  1  0.00000000  0.49688160  0.37477889  1
  W  W33  1  0.00000000  0.49928882  0.54182939  1
  W  W34  1  0.00000000  0.49948776  0.70824538  1
  W  W35  1  0.00000000  0.49867308  0.87503055  1
  O  O0  1  0.21125365  0.78712819  0.04195061  1
  O  O1  1  0.21121848  0.78711863  0.20859900  1
  O  O2  1  0.21108359  0.78739443  0.37533095  1
  O  O3  1  0.20984133  0.78982743  0.54145464  1
  O  O4  1  0.20967121  0.79011052  0.70842699  1
  O  O5  1  0.20998907  0.78948295  0.87505812  1
  O  O6  1  0.21288550  0.78877702  0.12473412  1
  O  O7  1  0.21286878  0.78875147  0.29138380  1
  O  O8  1  0.21051583  0.79001067  0.45827297  1
  O  O9  1  0.20989500  0.79032649  0.62490595  1
  O  O10  1  0.21016740  0.79016242  0.79188039  1
  O  O11  1  0.21260708  0.78891653  0.95800180  1
  O  O12  1  0.21122298  0.42410848  0.12473412  1
  O  O13  1  0.21124853  0.42411731  0.29138380  1
  O  O14  1  0.20998933  0.42050517  0.45827297  1
  O  O15  1  0.20967351  0.41956852  0.62490595  1
  O  O16  1  0.20983758  0.42000498  0.79188039  1
  O  O17  1  0.21108347  0.42369054  0.95800180  1
  O  O18  1  0.49949717  1.00000000  0.41670960  1
  O  O19  1  0.50006991  0.00000000  0.75024947  1
  O  O20  1  0.49991806  1.00000000  0.83365591  1
  O  O21  1  0.21287181  0.42412546  0.04195061  1
  O  O22  1  0.21288137  0.42409986  0.20859900  1
  O  O23  1  0.21260557  0.42368916  0.37533095  1
  O  O24  1  0.21017257  0.42001389  0.54145464  1
  O  O25  1  0.20988948  0.41956070  0.70842699  1
  O  O26  1  0.21051705  0.42050612  0.87505812  1
  O  O27  1  0.57590014  0.78878152  0.20859900  1
  O  O28  1  0.57587454  0.78874635  0.04195061  1
  O  O29  1  0.57631084  0.78891641  0.37533095  1
  O  O30  1  0.57998611  0.79015867  0.54145464  1
  O  O31  1  0.57949388  0.79001093  0.87505812  1
  O  O32  1  0.58043930  0.79032879  0.70842699  1
  O  O33  1  0.57589152  0.78711450  0.12473412  1
  O  O34  1  0.57588269  0.78713122  0.29138380  1
  O  O35  1  0.57949483  0.78948417  0.45827297  1
  O  O36  1  0.58043148  0.79010500  0.62490595  1
  O  O37  1  0.57630946  0.78739292  0.95800180  1
  O  O38  1  0.57999502  0.78983260  0.79188039  1
  O  O39  1  0.50000328  0.50000328  0.08337925  1
  O  O40  1  0.50050283  0.50050283  0.41670960  1
  O  O41  1  0.49999583  0.49999583  0.24995521  1
  O  O42  1  0.49996601  0.49996601  -0.00002071  1
  O  O43  1  0.49993009  0.49993009  0.75024947  1
  O  O44  1  0.50000005  0.50000005  0.16666681  1
  O  O45  1  0.50003401  0.50003401  0.33335270  1
  O  O46  1  0.50007171  0.50007171  0.58308517  1
  O  O47  1  0.49991743  0.49991743  0.49967524  1
  O  O48  1  0.50008194  0.50008194  0.83365591  1
  O  O49  1  0.49950025  0.49950025  0.91662051  1
  O  O50  1  0.49999984  0.49999984  0.66666825  1
  O  O51  1  0.42412546  0.21287181  0.04195061  1
  O  O52  1  0.42409986  0.21288137  0.20859900  1
  O  O53  1  0.42368916  0.21260557  0.37533095  1
  O  O54  1  0.42001389  0.21017257  0.54145464  1
  O  O55  1  0.41956070  0.20988948  0.70842699  1
  O  O56  1  0.42050612  0.21051705  0.87505812  1
  O  O57  1  0.42410848  0.21122298  0.12473412  1
  O  O58  1  0.42411731  0.21124853  0.29138380  1
  O  O59  1  0.42050517  0.20998933  0.45827297  1
  O  O60  1  0.41956852  0.20967351  0.62490595  1
  O  O61  1  0.42369054  0.21108347  0.95800180  1
  O  O62  1  0.42000498  0.20983758  0.79188039  1
  O  O63  1  0.78711450  0.57589152  0.12473412  1
  O  O64  1  0.78713122  0.57588269  0.29138380  1
  O  O65  1  0.78948417  0.57949483  0.45827297  1
  O  O66  1  0.79010500  0.58043148  0.62490595  1
  O  O67  1  0.78983260  0.57999502  0.79188039  1
  O  O68  1  0.78739292  0.57630946  0.95800180  1
  O  O69  1  0.50003399  0.00000000  -0.00002071  1
  O  O70  1  0.49999672  1.00000000  0.08337925  1
  O  O71  1  0.50000417  0.00000000  0.24995521  1
  O  O72  1  0.49996599  1.00000000  0.33335270  1
  O  O73  1  0.49999995  0.00000000  0.16666681  1
  O  O74  1  0.50000016  -0.00000000  0.66666825  1
  O  O75  1  0.49992829  1.00000000  0.58308517  1
  O  O76  1  0.50008257  0.00000000  0.49967524  1
  O  O77  1  0.50049975  0.00000000  0.91662051  1
  O  O78  1  0.78874635  0.57587454  0.04195061  1
  O  O79  1  0.78878152  0.57590014  0.20859900  1
  O  O80  1  0.78891641  0.57631084  0.37533095  1
  O  O81  1  0.79015867  0.57998611  0.54145464  1
  O  O82  1  0.79032879  0.58043930  0.70842699  1
  O  O83  1  0.79001093  0.57949388  0.87505812  1
  O  O84  1  0.78712819  0.21125365  0.04195061  1
  O  O85  1  0.78711863  0.21121848  0.20859900  1
  O  O86  1  0.78739443  0.21108359  0.37533095  1
  O  O87  1  0.78982743  0.20984133  0.54145464  1
  O  O88  1  0.79011052  0.20967121  0.70842699  1
  O  O89  1  0.78948295  0.20998907  0.87505812  1
  O  O90  1  0.78877702  0.21288550  0.12473412  1
  O  O91  1  0.78875147  0.21286878  0.29138380  1
  O  O92  1  0.79001067  0.21051583  0.45827297  1
  O  O93  1  0.79032649  0.20989500  0.62490595  1
  O  O94  1  0.79016242  0.21016740  0.79188039  1
  O  O95  1  0.78891653  0.21260708  0.95800180  1
  O  O96  1  0.00000000  0.49999672  0.08337925  1
  O  O97  1  -0.00000000  0.50003399  -0.00002071  1
  O  O98  1  -0.00000000  0.49949717  0.41670960  1
  O  O99  1  -0.00000000  0.50000417  0.24995521  1
  O  O100  1  -0.00000000  0.49999995  0.16666681  1
  O  O101  1  0.00000000  0.49996599  0.33335270  1
  O  O102  1  0.00000000  0.49992829  0.58308517  1
  O  O103  1  0.00000000  0.50008257  0.49967524  1
  O  O104  1  -0.00000000  0.50006991  0.75024947  1
  O  O105  1  0.00000000  0.50000016  0.66666825  1
  O  O106  1  -0.00000000  0.49991806  0.83365591  1
  O  O107  1  0.00000000  0.50049975  0.91662051  1
loop_
_geom_bond_atom_site_label_1
_geom_bond_atom_site_label_2
_geom_bond_distance
_geom_bond_site_symmetry_2
O0 W20 1.929433 1_555
O0 W30 1.956447 1_555
O0 Rb8 3.366365 1_565
O1 W6 1.928304 1_555
O1 W31 1.957762 1_555
O1 Rb3 3.363562 1_565
O2 W7 1.932778 1_555
O2 W32 1.954750 1_555
O2 Rb0 3.255624 1_565
O3 W21 1.947232 1_565
O3 W33 1.952456 1_555
O3 Rb4 3.353480 1_565
O3 Rb5 3.359714 1_565
O4 W22 1.948613 1_565
O4 W34 1.952531 1_555
O4 Rb1 3.342083 1_565
O4 Rb6 3.350606 1_565
O5 W23 1.943736 1_555
O5 W35 1.954111 1_555
O5 Rb2 3.346016 1_565
O5 Rb7 3.465569 1_565
O6 W0 1.928427 1_455
O6 W24 1.957605 1_565
O6 Rb8 3.363636 1_565
O7 W1 1.929248 1_455
O7 W25 1.956661 1_565
O7 Rb3 3.366385 1_565
O8 W2 1.943827 1_455
O8 W26 1.954023 1_565
O8 Rb4 3.346062 1_565
O8 Rb0 3.465432 1_565
O9 W3 1.948857 1_555
O9 W27 1.952259 1_555
O9 Rb5 3.342108 1_565
O9 Rb6 3.350659 1_565
O10 W4 1.947161 1_555
O10 W29 1.952558 1_555
O10 Rb2 3.353378 1_565
O10 Rb1 3.359706 1_565
O11 W5 1.933052 1_455
O11 W28 1.954475 1_565
O11 Rb7 3.255558 1_565
O12 W8 1.928427 1_555
O12 W0 1.957605 1_455
O12 Rb8 3.363636 1_555
O13 W9 1.929248 1_555
O13 W1 1.956662 1_455
O13 Rb3 3.366385 1_555
O14 W10 1.943827 1_555
O14 W2 1.954023 1_455
O14 Rb4 3.346062 1_555
O14 Rb0 3.465432 1_555
O15 W11 1.948857 1_555
O15 W3 1.952259 1_555
O15 Rb5 3.342108 1_555
O15 Rb6 3.350659 1_555
O16 W12 1.947161 1_555
O16 W4 1.952558 1_555
O16 Rb2 3.353378 1_555
O16 Rb1 3.359706 1_555
O17 W13 1.933052 1_555
O17 W5 1.954475 1_455
O17 Rb7 3.255558 1_555
O18 W26 1.933720 1_565
O18 W7 1.949355 1_555
O19 W29 1.917898 1_545
O19 W22 1.952672 1_555
O20 W23 1.923428 1_555
O20 W29 1.959478 1_555
O21 W30 1.929434 1_555
O21 W14 1.956447 1_555
O21 Rb8 3.366365 1_555
O22 W31 1.928304 1_555
O22 W15 1.957762 1_555
O22 Rb3 3.363562 1_555
O23 W32 1.932778 1_555
O23 W16 1.954750 1_555
O23 Rb0 3.255624 1_555
O24 W33 1.947232 1_555
O24 W17 1.952456 1_555
O24 Rb4 3.353480 1_555
O24 Rb5 3.359714 1_555
O25 W34 1.948613 1_555
O25 W18 1.952531 1_555
O25 Rb1 3.342083 1_555
O25 Rb6 3.350606 1_555
O26 W35 1.943736 1_555
O26 W19 1.954111 1_555
O26 Rb2 3.346016 1_555
O26 Rb7 3.465569 1_555
O27 W15 1.928304 1_555
O27 W6 1.957762 1_555
O27 Rb3 3.363561 1_665
O28 W14 1.929434 1_555
O28 W20 1.956447 1_555
O28 Rb8 3.366365 1_665
O29 W16 1.932779 1_555
O29 W7 1.954751 1_555
O29 Rb0 3.255623 1_665
O30 W17 1.947232 1_555
O30 W21 1.952456 1_565
O30 Rb4 3.353480 1_665
O30 Rb5 3.359714 1_665
O31 W19 1.943736 1_555
O31 W23 1.954111 1_555
O31 Rb2 3.346016 1_665
O31 Rb7 3.465569 1_665
O32 W18 1.948613 1_555
O32 W22 1.952531 1_565
O32 Rb1 3.342083 1_665
O32 Rb6 3.350606 1_665
O33 W24 1.928427 1_565
O33 W8 1.957605 1_555
O33 Rb8 3.363636 1_665
O34 W25 1.929248 1_565
O34 W9 1.956662 1_555
O34 Rb3 3.366384 1_665
O35 W26 1.943827 1_565
O35 W10 1.954023 1_555
O35 Rb4 3.346061 1_665
O35 Rb0 3.465432 1_665
O36 W27 1.948857 1_555
O36 W11 1.952259 1_555
O36 Rb5 3.342108 1_665
O36 Rb6 3.350659 1_665
O37 W28 1.933052 1_565
O37 W13 1.954475 1_555
O37 Rb7 3.255557 1_665
O38 W29 1.947161 1_555
O38 W12 1.952558 1_555
O38 Rb2 3.353377 1_665
O38 Rb1 3.359706 1_665
O39 W14 1.938321 1_555
O39 W8 1.939405 1_555
O40 W10 1.933720 1_555
O40 W16 1.949355 1_555
O41 W9 1.938132 1_555
O41 W15 1.939566 1_555
O42 W13 1.925616 1_554
O42 W14 1.939133 1_555
O43 W12 1.917898 1_555
O43 W18 1.952672 1_555
O44 W15 1.932757 1_555
O44 W8 1.932873 1_555
O45 W16 1.925941 1_555
O45 W9 1.939215 1_555
O46 W17 1.917886 1_555
O46 W11 1.952585 1_555
O47 W10 1.923219 1_555
O47 W17 1.959652 1_555
O48 W19 1.923428 1_555
O48 W12 1.959478 1_555
O49 W19 1.933464 1_555
O49 W13 1.949760 1_555
O50 W18 1.932822 1_555
O50 W11 1.932994 1_555
O51 W20 1.929434 1_545
O51 W14 1.956447 1_555
O51 Rb8 3.366365 1_555
O52 W6 1.928304 1_545
O52 W15 1.957762 1_555
O52 Rb3 3.363561 1_555
O53 W7 1.932779 1_545
O53 W16 1.954751 1_555
O53 Rb0 3.255623 1_555
O54 W21 1.947232 1_555
O54 W17 1.952456 1_555
O54 Rb4 3.353480 1_555
O54 Rb5 3.359714 1_555
O55 W22 1.948613 1_555
O55 W18 1.952531 1_555
O55 Rb1 3.342083 1_555
O55 Rb6 3.350606 1_555
O56 W23 1.943736 1_545
O56 W19 1.954111 1_555
O56 Rb2 3.346016 1_555
O56 Rb7 3.465569 1_555
O57 W8 1.928427 1_555
O57 W24 1.957605 1_555
O57 Rb8 3.363636 1_555
O58 W9 1.929248 1_555
O58 W25 1.956662 1_555
O58 Rb3 3.366384 1_555
O59 W10 1.943827 1_555
O59 W26 1.954023 1_555
O59 Rb4 3.346061 1_555
O59 Rb0 3.465432 1_555
O60 W11 1.948857 1_555
O60 W27 1.952259 1_545
O60 Rb5 3.342108 1_555
O60 Rb6 3.350659 1_555
O61 W13 1.933052 1_555
O61 W28 1.954475 1_555
O61 Rb7 3.255557 1_555
O62 W12 1.947161 1_555
O62 W29 1.952558 1_545
O62 Rb2 3.353377 1_555
O62 Rb1 3.359706 1_555
O63 W0 1.928427 1_555
O63 W8 1.957605 1_555
O63 Rb8 3.363636 1_665
O64 W1 1.929248 1_555
O64 W9 1.956661 1_555
O64 Rb3 3.366385 1_665
O65 W2 1.943827 1_555
O65 W10 1.954023 1_555
O65 Rb4 3.346062 1_665
O65 Rb0 3.465432 1_665
O66 W3 1.948857 1_655
O66 W11 1.952259 1_555
O66 Rb5 3.342108 1_665
O66 Rb6 3.350659 1_665
O67 W4 1.947161 1_655
O67 W12 1.952558 1_555
O67 Rb2 3.353378 1_665
O67 Rb1 3.359706 1_665
O68 W5 1.933052 1_555
O68 W13 1.954475 1_555
O68 Rb7 3.255558 1_665
O69 W28 1.925616 1_554
O69 W20 1.939133 1_545
O70 W20 1.938321 1_555
O70 W24 1.939405 1_565
O71 W25 1.938132 1_555
O71 W6 1.939566 1_545
O72 W7 1.925941 1_555
O72 W25 1.939215 1_565
O73 W6 1.932757 1_545
O73 W24 1.932873 1_555
O74 W22 1.932822 1_555
O74 W27 1.932994 1_545
O75 W21 1.917886 1_565
O75 W27 1.952585 1_555
O76 W26 1.923219 1_555
O76 W21 1.959652 1_555
O77 W23 1.933464 1_545
O77 W28 1.949760 1_555
O78 W14 1.929433 1_555
O78 W30 1.956447 1_655
O78 Rb8 3.366365 1_665
O79 W15 1.928304 1_555
O79 W31 1.957762 1_655
O79 Rb3 3.363562 1_665
O80 W16 1.932778 1_555
O80 W32 1.954750 1_655
O80 Rb0 3.255624 1_665
O81 W17 1.947232 1_555
O81 W33 1.952456 1_655
O81 Rb4 3.353480 1_665
O81 Rb5 3.359714 1_665
O82 W18 1.948613 1_555
O82 W34 1.952531 1_655
O82 Rb1 3.342083 1_665
O82 Rb6 3.350606 1_665
O83 W19 1.943736 1_555
O83 W35 1.954111 1_655
O83 Rb2 3.346016 1_665
O83 Rb7 3.465569 1_665
O84 W30 1.929434 1_655
O84 W20 1.956447 1_545
O84 Rb8 3.366365 1_655
O85 W31 1.928304 1_655
O85 W6 1.957762 1_545
O85 Rb3 3.363562 1_655
O86 W32 1.932778 1_655
O86 W7 1.954750 1_545
O86 Rb0 3.255624 1_655
O87 W33 1.947232 1_655
O87 W21 1.952456 1_555
O87 Rb4 3.353480 1_655
O87 Rb5 3.359714 1_655
O88 W34 1.948613 1_655
O88 W22 1.952531 1_555
O88 Rb1 3.342083 1_655
O88 Rb6 3.350606 1_655
O89 W35 1.943736 1_655
O89 W23 1.954111 1_545
O89 Rb2 3.346016 1_655
O89 Rb7 3.465569 1_655
O90 W24 1.928427 1_555
O90 W0 1.957605 1_555
O90 Rb8 3.363636 1_655
O91 W25 1.929248 1_555
O91 W1 1.956662 1_555
O91 Rb3 3.366385 1_655
O92 W26 1.943827 1_555
O92 W2 1.954023 1_555
O92 Rb4 3.346062 1_655
O92 Rb0 3.465432 1_655
O93 W27 1.948857 1_545
O93 W3 1.952259 1_655
O93 Rb5 3.342108 1_655
O93 Rb6 3.350659 1_655
O94 W29 1.947161 1_545
O94 W4 1.952558 1_655
O94 Rb2 3.353378 1_655
O94 Rb1 3.359706 1_655
O95 W28 1.933052 1_555
O95 W5 1.954475 1_555
O95 Rb7 3.255558 1_655
O96 W30 1.938321 1_555
O96 W0 1.939405 1_455
O97 W5 1.925616 1_454
O97 W30 1.939133 1_555
O98 W2 1.933720 1_455
O98 W32 1.949355 1_555
O99 W1 1.938132 1_455
O99 W31 1.939566 1_555
O100 W31 1.932757 1_555
O100 W0 1.932873 1_455
O101 W32 1.925941 1_555
O101 W1 1.939215 1_455
O102 W33 1.917886 1_555
O102 W3 1.952585 1_555
O103 W2 1.923219 1_455
O103 W33 1.959652 1_555
O104 W4 1.917898 1_555
O104 W34 1.952672 1_555
O105 W34 1.932822 1_555
O105 W3 1.932994 1_555
O106 W35 1.923428 1_555
O106 W4 1.959478 1_555
O107 W35 1.933464 1_555
O107 W5 1.949760 1_455
