# generated using pymatgen
data_ZnH8(O2F)2
_symmetry_space_group_name_H-M   'P 1'
_cell_length_a   5.34735000
_cell_length_b   7.59004600
_cell_length_c   12.70037600
_cell_angle_alpha   90.00000000
_cell_angle_beta   90.00000000
_cell_angle_gamma   90.00000000
_symmetry_Int_Tables_number   1
_chemical_formula_structural   ZnH8(O2F)2
_chemical_formula_sum   'Zn4 H32 O16 F8'
_cell_volume   515.46549305
_cell_formula_units_Z   4
loop_
 _symmetry_equiv_pos_site_id
 _symmetry_equiv_pos_as_xyz
  1  'x, y, z'
loop_
 _atom_site_type_symbol
 _atom_site_label
 _atom_site_symmetry_multiplicity
 _atom_site_fract_x
 _atom_site_fract_y
 _atom_site_fract_z
 _atom_site_occupancy
  Zn  Zn0  1  0.79454100  0.24730900  0.62427100  1
  Zn  Zn1  1  0.20545900  0.74730900  0.37572900  1
  Zn  Zn2  1  0.79454100  0.74730900  0.87572900  1
  Zn  Zn3  1  0.20545900  0.24730900  0.12427100  1
  H  H0  1  0.06598100  0.01379400  0.73326000  1
  H  H1  1  0.93401900  0.51379400  0.26674000  1
  H  H2  1  0.06598100  0.51379400  0.76674000  1
  H  H3  1  0.93401900  0.01379400  0.23326000  1
  H  H4  1  0.35375000  0.42647500  0.61787300  1
  H  H5  1  0.64625000  0.92647500  0.38212700  1
  H  H6  1  0.35375000  0.92647500  0.88212700  1
  H  H7  1  0.64625000  0.42647500  0.11787300  1
  H  H8  1  0.05282600  0.13665600  0.92356700  1
  H  H9  1  0.94717400  0.63665600  0.07643300  1
  H  H10  1  0.05282600  0.63665600  0.57643300  1
  H  H11  1  0.94717400  0.13665600  0.42356700  1
  H  H12  1  0.06889500  0.34811900  0.92249100  1
  H  H13  1  0.93110500  0.84811900  0.07750900  1
  H  H14  1  0.06889500  0.84811900  0.57750900  1
  H  H15  1  0.93110500  0.34811900  0.42249100  1
  H  H16  1  0.63089400  0.36351800  0.82530200  1
  H  H17  1  0.36910600  0.86351800  0.17469800  1
  H  H18  1  0.63089400  0.86351800  0.67469800  1
  H  H19  1  0.36910600  0.36351800  0.32530200  1
  H  H20  1  0.61424800  0.15326500  0.82593300  1
  H  H21  1  0.38575200  0.65326500  0.17406700  1
  H  H22  1  0.61424800  0.65326500  0.67406700  1
  H  H23  1  0.38575200  0.15326500  0.32593300  1
  H  H24  1  0.50698000  0.48448400  0.51745400  1
  H  H25  1  0.49302000  0.98448400  0.48254600  1
  H  H26  1  0.50698000  0.98448400  0.98254600  1
  H  H27  1  0.49302000  0.48448400  0.01745400  1
  H  H28  1  0.24850000  0.07663000  0.63986000  1
  H  H29  1  0.75150000  0.57663000  0.36014000  1
  H  H30  1  0.24850000  0.57663000  0.86014000  1
  H  H31  1  0.75150000  0.07663000  0.13986000  1
  O  O0  1  0.06969200  0.05136600  0.65711700  1
  O  O1  1  0.93030800  0.55136600  0.34288300  1
  O  O2  1  0.06969200  0.55136600  0.84288300  1
  O  O3  1  0.93030800  0.05136600  0.15711700  1
  O  O4  1  0.66386500  0.25606900  0.78332800  1
  O  O5  1  0.33613500  0.75606900  0.21667200  1
  O  O6  1  0.66386500  0.75606900  0.71667200  1
  O  O7  1  0.33613500  0.25606900  0.28332800  1
  O  O8  1  0.08336300  0.24224300  0.96724800  1
  O  O9  1  0.91663700  0.74224300  0.03275200  1
  O  O10  1  0.08336300  0.74224300  0.53275200  1
  O  O11  1  0.91663700  0.24224300  0.46724800  1
  O  O12  1  0.52793000  0.45039300  0.59339400  1
  O  O13  1  0.47207000  0.95039300  0.40660600  1
  O  O14  1  0.52793000  0.95039300  0.90660600  1
  O  O15  1  0.47207000  0.45039300  0.09339400  1
  F  F0  1  0.54119400  0.04325800  0.60268800  1
  F  F1  1  0.45880600  0.54325800  0.39731200  1
  F  F2  1  0.54119400  0.54325800  0.89731200  1
  F  F3  1  0.45880600  0.04325800  0.10268800  1
  F  F4  1  0.05689600  0.44842100  0.65008900  1
  F  F5  1  0.94310400  0.94842100  0.34991100  1
  F  F6  1  0.05689600  0.94842100  0.84991100  1
  F  F7  1  0.94310400  0.44842100  0.15008900  1
loop_
_geom_bond_atom_site_label_1
_geom_bond_atom_site_label_2
_geom_bond_distance
_geom_bond_site_symmetry_2
H0 O0 1.008411 1_555
H1 O1 1.008411 1_555
H2 O2 1.008411 1_555
H3 O3 1.008411 1_555
H4 O12 0.998558 1_555
H5 O13 0.998558 1_555
H6 O14 0.998558 1_555
H7 O15 0.998558 1_555
H8 O8 0.988275 1_555
H9 O9 0.988275 1_555
H10 O10 0.988275 1_555
H11 O11 0.988275 1_555
H12 O8 0.987359 1_555
H13 O9 0.987359 1_555
H14 O10 0.987359 1_555
H15 O11 0.987359 1_555
H16 O4 0.990139 1_555
H17 O5 0.990139 1_555
H18 O6 0.990139 1_555
H19 O7 0.990139 1_555
H20 O4 0.985916 1_555
H21 O5 0.985916 1_555
H22 O6 0.985916 1_555
H23 O7 0.985916 1_555
H24 O12 1.004838 1_555
H25 O13 1.004838 1_555
H26 O14 1.004838 1_555
H27 O15 1.004838 1_555
H28 O0 0.999513 1_555
H29 O1 0.999513 1_555
H30 O2 0.999513 1_555
H31 O3 0.999513 1_555
O0 Zn0 2.133223 1_455
O1 Zn1 2.133223 1_655
O2 Zn2 2.133223 1_455
O3 Zn3 2.133223 1_655
O4 Zn0 2.138560 1_555
O5 Zn1 2.138560 1_555
O6 Zn2 2.138560 1_555
O7 Zn3 2.138560 1_555
O8 Zn3 2.098757 1_556
O9 Zn2 2.098757 1_554
O10 Zn1 2.098757 1_555
O11 Zn0 2.098757 1_555
O12 Zn0 2.135945 1_555
O13 Zn1 2.135945 1_555
O14 Zn2 2.135945 1_555
O15 Zn3 2.135945 1_555
F0 H25 1.610458 1_545
F0 H28 1.654294 1_555
F0 H18 1.711028 1_545
F0 Zn0 2.075835 1_555
F1 H24 1.610458 1_555
F1 H29 1.654294 1_555
F1 H19 1.711028 1_555
F1 Zn1 2.075835 1_555
F2 H27 1.610458 1_556
F2 H30 1.654294 1_555
F2 H16 1.711028 1_555
F2 Zn2 2.075835 1_555
F3 H26 1.610458 1_544
F3 H31 1.654294 1_555
F3 H17 1.711028 1_545
F3 Zn3 2.075835 1_555
F4 H2 1.563149 1_555
F4 H4 1.647706 1_555
F4 H10 1.707857 1_555
F4 Zn0 2.098977 1_455
F5 H3 1.563149 1_565
F5 H5 1.647706 1_555
F5 H11 1.707857 1_565
F5 Zn1 2.098977 1_655
F6 H0 1.563149 1_565
F6 H6 1.647706 1_555
F6 H8 1.707857 1_565
F6 Zn2 2.098977 1_455
F7 H1 1.563149 1_555
F7 H7 1.647706 1_555
F7 H9 1.707857 1_555
F7 Zn3 2.098977 1_655
