# generated using pymatgen
data_YbV4O8
_symmetry_space_group_name_H-M   'P 1'
_cell_length_a   9.17125200
_cell_length_b   5.87740500
_cell_length_c   11.16700034
_cell_angle_alpha   75.13461932
_cell_angle_beta   90.00000000
_cell_angle_gamma   90.00000000
_symmetry_Int_Tables_number   1
_chemical_formula_structural   YbV4O8
_chemical_formula_sum   'Yb4 V16 O32'
_cell_volume   581.79057667
_cell_formula_units_Z   4
loop_
 _symmetry_equiv_pos_site_id
 _symmetry_equiv_pos_as_xyz
  1  'x, y, z'
loop_
 _atom_site_type_symbol
 _atom_site_label
 _atom_site_symmetry_multiplicity
 _atom_site_fract_x
 _atom_site_fract_y
 _atom_site_fract_z
 _atom_site_occupancy
  Yb  Yb0  1  0.74342200  0.79547400  0.15687100  1
  Yb  Yb1  1  0.25657800  0.20452600  0.84312900  1
  Yb  Yb2  1  0.24342200  0.20452600  0.34312900  1
  Yb  Yb3  1  0.75657800  0.79547400  0.65687100  1
  V  V0  1  0.07369100  0.81694000  0.11764000  1
  V  V1  1  0.92630900  0.18306000  0.88236000  1
  V  V2  1  0.57369100  0.18306000  0.38236000  1
  V  V3  1  0.42630900  0.81694000  0.61764000  1
  V  V4  1  0.09085800  0.57227700  0.60114000  1
  V  V5  1  0.90914200  0.42772300  0.39886000  1
  V  V6  1  0.59085800  0.42772300  0.89886000  1
  V  V7  1  0.40914200  0.57227700  0.10114000  1
  V  V8  1  0.04747400  0.31524500  0.11168800  1
  V  V9  1  0.95252600  0.68475500  0.88831200  1
  V  V10  1  0.54747400  0.68475500  0.38831200  1
  V  V11  1  0.45252600  0.31524500  0.61168800  1
  V  V12  1  0.07932800  0.07889400  0.60361500  1
  V  V13  1  0.92067200  0.92110600  0.39638500  1
  V  V14  1  0.57932800  0.92110600  0.89638500  1
  V  V15  1  0.42067200  0.07889400  0.10361500  1
  O  O0  1  0.29989200  0.52644800  0.65325900  1
  O  O1  1  0.70010800  0.47355200  0.34674100  1
  O  O2  1  0.79989200  0.47355200  0.84674100  1
  O  O3  1  0.20010800  0.52644800  0.15325900  1
  O  O4  1  0.38915200  0.37114600  0.97796600  1
  O  O5  1  0.61084800  0.62885400  0.02203400  1
  O  O6  1  0.88915200  0.62885400  0.52203400  1
  O  O7  1  0.11084800  0.37114600  0.47796600  1
  O  O8  1  0.96493400  0.74474700  0.27809700  1
  O  O9  1  0.03506600  0.25525300  0.72190300  1
  O  O10  1  0.46493400  0.25525300  0.22190300  1
  O  O11  1  0.53506600  0.74474700  0.77809700  1
  O  O12  1  0.07896100  0.41027600  0.92892600  1
  O  O13  1  0.92103900  0.58972400  0.07107400  1
  O  O14  1  0.57896100  0.58972400  0.57107400  1
  O  O15  1  0.42103900  0.41027600  0.42892600  1
  O  O16  1  0.29186300  0.06889800  0.64886400  1
  O  O17  1  0.70813700  0.93110200  0.35113600  1
  O  O18  1  0.79186300  0.93110200  0.85113600  1
  O  O19  1  0.20813700  0.06889800  0.14886400  1
  O  O20  1  0.38170400  0.89814400  0.97961700  1
  O  O21  1  0.61829600  0.10185600  0.02038300  1
  O  O22  1  0.88170400  0.10185600  0.52038300  1
  O  O23  1  0.11829600  0.89814400  0.47961700  1
  O  O24  1  0.98220500  0.22295700  0.28668400  1
  O  O25  1  0.01779500  0.77704300  0.71331600  1
  O  O26  1  0.48220500  0.77704300  0.21331600  1
  O  O27  1  0.51779500  0.22295700  0.78668400  1
  O  O28  1  0.08010900  0.90847200  0.92886300  1
  O  O29  1  0.91989100  0.09152800  0.07113700  1
  O  O30  1  0.58010900  0.09152800  0.57113700  1
  O  O31  1  0.41989100  0.90847200  0.42886300  1
loop_
_geom_bond_atom_site_label_1
_geom_bond_atom_site_label_2
_geom_bond_distance
_geom_bond_site_symmetry_2
O0 V4 2.001534 1_555
O0 V11 2.002906 1_555
O0 V3 2.017172 1_555
O0 Yb1 2.484934 1_555
O1 V5 2.001534 1_555
O1 V10 2.002906 1_555
O1 V2 2.017172 1_555
O1 Yb0 2.484934 1_555
O2 V6 2.001534 1_555
O2 V9 2.002906 1_555
O2 V1 2.017172 1_555
O2 Yb3 2.484934 1_555
O3 V7 2.001534 1_555
O3 V8 2.002906 1_555
O3 V0 2.017172 1_555
O3 Yb2 2.484934 1_555
O4 V15 1.940651 1_556
O4 V7 2.038944 1_556
O4 V6 2.040178 1_555
O4 Yb1 2.336910 1_555
O5 V14 1.940651 1_554
O5 V6 2.038944 1_554
O5 V7 2.040178 1_555
O5 Yb0 2.336910 1_555
O6 V13 1.940651 1_555
O6 V5 2.038944 1_555
O6 V4 2.040178 1_655
O6 Yb3 2.336910 1_555
O7 V12 1.940651 1_555
O7 V4 2.038944 1_555
O7 V5 2.040178 1_455
O7 Yb2 2.336910 1_555
O8 V13 1.920038 1_555
O8 V0 1.998862 1_655
O8 V5 2.064693 1_555
O8 Yb0 2.416930 1_555
O9 V12 1.920038 1_555
O9 V1 1.998862 1_455
O9 V4 2.064693 1_555
O9 Yb1 2.416930 1_555
O10 V15 1.920038 1_555
O10 V2 1.998862 1_555
O10 V7 2.064693 1_555
O10 Yb2 2.416930 1_555
O11 V14 1.920038 1_555
O11 V3 1.998862 1_555
O11 V6 2.064693 1_555
O11 Yb3 2.416930 1_555
O12 V9 1.943546 1_455
O12 V8 1.993928 1_556
O12 V1 2.090489 1_455
O12 Yb1 2.372407 1_555
O13 V8 1.943546 1_655
O13 V9 1.993928 1_554
O13 V0 2.090489 1_655
O13 Yb0 2.372407 1_555
O14 V11 1.943546 1_555
O14 V10 1.993928 1_555
O14 V3 2.090489 1_555
O14 Yb3 2.372407 1_555
O15 V10 1.943546 1_555
O15 V11 1.993928 1_555
O15 V2 2.090489 1_555
O15 Yb2 2.372407 1_555
O16 V12 2.010714 1_555
O16 V3 2.024806 1_545
O16 V11 2.032594 1_555
O16 Yb1 2.516656 1_555
O17 V13 2.010714 1_555
O17 V2 2.024806 1_565
O17 V10 2.032594 1_555
O17 Yb0 2.516656 1_555
O18 V14 2.010714 1_555
O18 V1 2.024806 1_565
O18 V9 2.032594 1_555
O18 Yb3 2.516656 1_555
O19 V15 2.010714 1_555
O19 V0 2.024806 1_545
O19 V8 2.032594 1_555
O19 Yb2 2.516656 1_555
O20 V15 1.982024 1_566
O20 V14 2.025523 1_555
O20 V7 2.059006 1_556
O20 Yb1 2.339733 1_565
O21 V14 1.982024 1_544
O21 V15 2.025523 1_555
O21 V6 2.059006 1_554
O21 Yb0 2.339733 1_545
O22 V13 1.982024 1_545
O22 V12 2.025523 1_655
O22 V5 2.059006 1_555
O22 Yb3 2.339733 1_545
O23 V12 1.982024 1_565
O23 V13 2.025523 1_455
O23 V4 2.059006 1_555
O23 Yb2 2.339733 1_565
O24 V13 1.962518 1_545
O24 V8 1.981788 1_655
O24 V5 2.059154 1_555
O24 Yb2 2.472513 1_655
O25 V12 1.962518 1_565
O25 V9 1.981788 1_455
O25 V4 2.059154 1_555
O25 Yb3 2.472513 1_455
O26 V15 1.962518 1_565
O26 V10 1.981788 1_555
O26 V7 2.059154 1_555
O26 Yb0 2.472513 1_555
O27 V14 1.962518 1_545
O27 V11 1.981788 1_555
O27 V6 2.059154 1_555
O27 Yb1 2.472513 1_555
O28 V9 1.899628 1_455
O28 V0 2.038370 1_556
O28 V1 2.105667 1_465
O28 Yb1 2.389328 1_565
O29 V8 1.899628 1_655
O29 V1 2.038370 1_554
O29 V0 2.105667 1_645
O29 Yb0 2.389328 1_545
O30 V11 1.899628 1_555
O30 V2 2.038370 1_555
O30 V3 2.105667 1_545
O30 Yb3 2.389328 1_545
O31 V10 1.899628 1_555
O31 V3 2.038370 1_555
O31 V2 2.105667 1_565
O31 Yb2 2.389328 1_565
