# generated using pymatgen
data_BaCaI4
_symmetry_space_group_name_H-M   'P 1'
_cell_length_a   7.40914600
_cell_length_b   9.66306000
_cell_length_c   19.05512269
_cell_angle_alpha   60.51436152
_cell_angle_beta   90.00000000
_cell_angle_gamma   90.00000000
_symmetry_Int_Tables_number   1
_chemical_formula_structural   BaCaI4
_chemical_formula_sum   'Ba4 Ca4 I16'
_cell_volume   1187.55279284
_cell_formula_units_Z   4
loop_
 _symmetry_equiv_pos_site_id
 _symmetry_equiv_pos_as_xyz
  1  'x, y, z'
loop_
 _atom_site_type_symbol
 _atom_site_label
 _atom_site_symmetry_multiplicity
 _atom_site_fract_x
 _atom_site_fract_y
 _atom_site_fract_z
 _atom_site_occupancy
  Ba  Ba0  1  0.64935400  0.99492000  0.62657400  1
  Ba  Ba1  1  0.85064600  0.99492000  0.12657400  1
  Ba  Ba2  1  0.14935400  0.00508000  0.87342600  1
  Ba  Ba3  1  0.35064600  0.00508000  0.37342600  1
  Ca  Ca0  1  0.91619600  0.50227300  0.87310600  1
  Ca  Ca1  1  0.58380400  0.50227300  0.37310600  1
  Ca  Ca2  1  0.41619600  0.49772700  0.62689400  1
  Ca  Ca3  1  0.08380400  0.49772700  0.12689400  1
  I  I0  1  0.76085000  0.59977600  0.69489500  1
  I  I1  1  0.73915000  0.59977600  0.19489500  1
  I  I2  1  0.27031600  0.84395500  0.57871300  1
  I  I3  1  0.22968400  0.84395500  0.07871300  1
  I  I4  1  0.77409700  0.84665300  0.82574500  1
  I  I5  1  0.74269400  0.39768200  0.54953700  1
  I  I6  1  0.72590300  0.84665300  0.32574500  1
  I  I7  1  0.24269400  0.60231800  0.95046300  1
  I  I8  1  0.75730600  0.39768200  0.04953700  1
  I  I9  1  0.27409700  0.15334700  0.67425500  1
  I  I10  1  0.25730600  0.60231800  0.45046300  1
  I  I11  1  0.22590300  0.15334700  0.17425500  1
  I  I12  1  0.77031600  0.15604500  0.92128700  1
  I  I13  1  0.72968400  0.15604500  0.42128700  1
  I  I14  1  0.26085000  0.40022400  0.80510500  1
  I  I15  1  0.23915000  0.40022400  0.30510500  1
loop_
_geom_bond_atom_site_label_1
_geom_bond_atom_site_label_2
_geom_bond_distance
_geom_bond_site_symmetry_2
Ba0 I4 3.458024 1_555
Ba0 I0 3.473223 1_555
Ba0 I13 3.476316 1_565
Ba0 I5 3.486555 1_565
Ba0 I2 3.486585 1_555
Ba0 I9 3.502657 1_565
Ba1 I6 3.458024 1_555
Ba1 I1 3.473223 1_555
Ba1 I12 3.476316 1_564
Ba1 I8 3.486555 1_565
Ba1 I3 3.486585 1_655
Ba1 I11 3.502657 1_665
Ba2 I9 3.458024 1_555
Ba2 I14 3.473223 1_555
Ba2 I3 3.476316 1_546
Ba2 I7 3.486555 1_545
Ba2 I12 3.486585 1_455
Ba2 I4 3.502657 1_445
Ba3 I11 3.458024 1_555
Ba3 I15 3.473223 1_555
Ba3 I2 3.476316 1_545
Ba3 I10 3.486555 1_545
Ba3 I13 3.486585 1_555
Ba3 I6 3.502657 1_545
Ca0 I4 3.168680 1_555
Ca0 I12 3.190705 1_555
Ca0 I7 3.219024 1_655
Ca0 I8 3.219472 1_556
Ca0 I14 3.229565 1_655
Ca0 I0 3.254925 1_555
Ca1 I6 3.168680 1_555
Ca1 I13 3.190705 1_555
Ca1 I10 3.219024 1_555
Ca1 I5 3.219472 1_555
Ca1 I15 3.229565 1_555
Ca1 I1 3.254925 1_555
Ca2 I9 3.168680 1_555
Ca2 I2 3.190705 1_555
Ca2 I5 3.219024 1_555
Ca2 I10 3.219472 1_555
Ca2 I0 3.229565 1_555
Ca2 I14 3.254925 1_555
Ca3 I11 3.168680 1_555
Ca3 I3 3.190705 1_555
Ca3 I8 3.219024 1_455
Ca3 I7 3.219472 1_554
Ca3 I1 3.229565 1_455
Ca3 I15 3.254925 1_555
