# generated using pymatgen
data_Li2VSn(PO4)2
_symmetry_space_group_name_H-M   'P 1'
_cell_length_a   8.04515177
_cell_length_b   8.04363830
_cell_length_c   11.18936142
_cell_angle_alpha   89.72499506
_cell_angle_beta   89.72229993
_cell_angle_gamma   105.51160197
_symmetry_Int_Tables_number   1
_chemical_formula_structural   Li2VSn(PO4)2
_chemical_formula_sum   'Li8 V4 Sn4 P8 O32'
_cell_volume   697.69305957
_cell_formula_units_Z   4
loop_
 _symmetry_equiv_pos_site_id
 _symmetry_equiv_pos_as_xyz
  1  'x, y, z'
loop_
 _atom_site_type_symbol
 _atom_site_label
 _atom_site_symmetry_multiplicity
 _atom_site_fract_x
 _atom_site_fract_y
 _atom_site_fract_z
 _atom_site_occupancy
  Li  Li0  1  0.00000000  0.00000000  0.99999900  1
  Li  Li1  1  0.50000000  0.50000100  0.00000000  1
  Li  Li2  1  0.25000700  0.75000000  0.99999600  1
  Li  Li3  1  0.74999300  0.24999900  0.00000300  1
  Li  Li4  1  0.25004700  0.25001300  0.50002100  1
  Li  Li5  1  0.74995100  0.74998600  0.49997800  1
  Li  Li6  1  0.49999900  0.99999700  0.49999900  1
  Li  Li7  1  0.99999800  0.49999800  0.49999900  1
  V  V0  1  0.09536800  0.34534200  0.21215200  1
  V  V1  1  0.90463200  0.65464700  0.78785200  1
  V  V2  1  0.59534800  0.84534500  0.21215700  1
  V  V3  1  0.40465700  0.15465900  0.78784000  1
  Sn  Sn0  1  0.60973100  0.35977800  0.27648800  1
  Sn  Sn1  1  0.10973100  0.85977700  0.27649200  1
  Sn  Sn2  1  0.39026900  0.64022400  0.72351000  1
  Sn  Sn3  1  0.89027300  0.14022200  0.72350900  1
  P  P0  1  0.32930600  0.07930800  0.07540600  1
  P  P1  1  0.82930800  0.57932200  0.07540300  1
  P  P2  1  0.67069400  0.92069100  0.92459500  1
  P  P3  1  0.17069000  0.42067800  0.92459600  1
  P  P4  1  0.80027400  0.05031800  0.39047100  1
  P  P5  1  0.30027700  0.55030700  0.39047400  1
  P  P6  1  0.19972800  0.94968400  0.60953100  1
  P  P7  1  0.69972000  0.44969500  0.60952600  1
  O  O0  1  0.72775800  0.97790000  0.05389200  1
  O  O1  1  0.22775500  0.47787500  0.05388800  1
  O  O2  1  0.27224100  0.02209800  0.94610900  1
  O  O3  1  0.77224300  0.52212100  0.94611200  1
  O  O4  1  0.48758400  0.23762500  0.08260400  1
  O  O5  1  0.98759000  0.73764100  0.08260700  1
  O  O6  1  0.51241600  0.76237800  0.91739400  1
  O  O7  1  0.01241200  0.26235600  0.91739200  1
  O  O8  1  0.45661200  0.70663400  0.37364300  1
  O  O9  1  0.95659500  0.20664300  0.37363600  1
  O  O10  1  0.54338400  0.29336800  0.62635900  1
  O  O11  1  0.04340800  0.79336000  0.62636900  1
  O  O12  1  0.24855900  0.99852500  0.47721400  1
  O  O13  1  0.74854900  0.49852000  0.47721400  1
  O  O14  1  0.75144400  0.00147800  0.52278800  1
  O  O15  1  0.25144800  0.50148100  0.52278500  1
  O  O16  1  0.16566200  0.11217300  0.13961100  1
  O  O17  1  0.66567100  0.61218700  0.13961400  1
  O  O18  1  0.36211300  0.91568900  0.13972100  1
  O  O19  1  0.86212100  0.41570800  0.13971100  1
  O  O20  1  0.63788800  0.08430900  0.86028100  1
  O  O21  1  0.13787700  0.58429100  0.86028700  1
  O  O22  1  0.83433500  0.88782500  0.86038700  1
  O  O23  1  0.33432900  0.38781600  0.86038700  1
  O  O24  1  0.63086300  0.07398900  0.32977900  1
  O  O25  1  0.13088600  0.57399100  0.32977800  1
  O  O26  1  0.82390500  0.88086500  0.32977400  1
  O  O27  1  0.32391400  0.38086100  0.32978100  1
  O  O28  1  0.17609700  0.11913800  0.67023000  1
  O  O29  1  0.67608600  0.61914200  0.67021800  1
  O  O30  1  0.36914000  0.92601300  0.67022100  1
  O  O31  1  0.86911300  0.42600800  0.67022000  1
loop_
_geom_bond_atom_site_label_1
_geom_bond_atom_site_label_2
_geom_bond_distance
_geom_bond_site_symmetry_2
Li0 O16 2.102686 1_556
Li0 O22 2.102703 1_445
Li0 O2 2.229395 1_555
Li0 O0 2.229409 1_446
Li0 O7 2.277139 1_555
Li0 O5 2.277168 1_446
Li1 O23 2.102757 1_554
Li1 O17 2.102768 1_555
Li1 O3 2.229372 1_554
Li1 O1 2.229379 1_555
Li1 O4 2.277265 1_555
Li1 O6 2.277282 1_554
Li2 O18 2.103502 1_556
Li2 O21 2.103503 1_555
Li2 O2 2.227705 1_565
Li2 O1 2.227902 1_556
Li2 O6 2.277890 1_555
Li2 O5 2.278021 1_456
Li3 O20 2.103479 1_554
Li3 O19 2.103490 1_555
Li3 O0 2.227717 1_545
Li3 O3 2.227878 1_554
Li3 O4 2.277892 1_555
Li3 O7 2.278039 1_654
Li4 O15 2.036952 1_555
Li4 O12 2.036992 1_545
Li4 O28 2.173516 1_555
Li4 O27 2.173637 1_555
Li5 O13 2.036934 1_555
Li5 O14 2.037018 1_565
Li5 O26 2.173485 1_555
Li5 O29 2.173622 1_555
Li6 O12 2.037001 1_555
Li6 O14 2.037028 1_565
Li6 O30 2.173675 1_555
Li6 O24 2.173681 1_565
Li7 O15 2.037059 1_655
Li7 O13 2.037060 1_555
Li7 O31 2.173757 1_555
Li7 O25 2.173770 1_655
O0 P2 1.554168 1_554
O0 V2 2.182596 1_555
O1 P3 1.554097 1_554
O1 V0 2.182459 1_555
O2 P0 1.554172 1_556
O2 V3 2.182666 1_555
O3 P1 1.554093 1_556
O3 V1 2.182409 1_555
O4 P0 1.544110 1_555
O4 Sn0 2.482387 1_555
O5 P1 1.544144 1_555
O5 Sn1 2.482342 1_655
O6 P2 1.544093 1_555
O6 Sn2 2.482389 1_555
O7 P3 1.544139 1_555
O7 Sn3 2.482313 1_455
O8 P5 1.532334 1_555
O8 V2 2.247367 1_555
O9 P4 1.532262 1_555
O9 V0 2.247422 1_655
O10 P7 1.532341 1_555
O10 V3 2.247291 1_555
O11 P6 1.532256 1_555
O11 V1 2.247462 1_455
O12 P6 1.551421 1_555
O12 Sn1 2.630391 1_555
O13 P7 1.551342 1_555
O13 Sn0 2.630389 1_555
O14 P4 1.551418 1_555
O14 Sn3 2.630374 1_555
O15 P5 1.551333 1_555
O15 Sn2 2.630389 1_555
O16 P0 1.580534 1_555
O16 V0 2.252495 1_555
O16 Sn1 2.478871 1_545
O17 P1 1.580515 1_555
O17 V2 2.252533 1_555
O17 Sn0 2.478900 1_555
O18 P0 1.580567 1_565
O18 V2 2.253047 1_555
O18 Sn1 2.478287 1_555
O19 P1 1.580515 1_555
O19 V0 2.253237 1_655
O19 Sn0 2.478372 1_555
O20 P2 1.580552 1_545
O20 V3 2.253061 1_555
O20 Sn3 2.478312 1_555
O21 P3 1.580513 1_555
O21 V1 2.253161 1_455
O21 Sn2 2.478383 1_555
O22 P2 1.580531 1_555
O22 V1 2.252547 1_555
O22 Sn3 2.478854 1_565
O23 P3 1.580509 1_555
O23 V3 2.252561 1_555
O23 Sn2 2.478915 1_555
O24 P4 1.581634 1_555
O24 V2 2.223064 1_545
O24 Sn0 2.421927 1_555
O25 P5 1.581545 1_555
O25 V0 2.223120 1_555
O25 Sn1 2.421951 1_555
O26 P4 1.581600 1_565
O26 V2 2.222793 1_555
O26 Sn1 2.422455 1_655
O27 P5 1.581547 1_555
O27 V0 2.222804 1_555
O27 Sn0 2.422402 1_555
O28 P6 1.581617 1_545
O28 V3 2.222765 1_555
O28 Sn3 2.422421 1_455
O29 P7 1.581541 1_555
O29 V1 2.222847 1_555
O29 Sn2 2.422396 1_555
O30 P6 1.581631 1_555
O30 V3 2.223055 1_565
O30 Sn2 2.421914 1_555
O31 P7 1.581558 1_555
O31 V1 2.223096 1_555
O31 Sn3 2.421972 1_555
