# generated using pymatgen
data_Li4Co3Ni3(SbO8)2
_symmetry_space_group_name_H-M   'P 1'
_cell_length_a   5.81685934
_cell_length_b   5.81685934
_cell_length_c   9.50161034
_cell_angle_alpha   88.43054952
_cell_angle_beta   88.43054952
_cell_angle_gamma   59.46268648
_symmetry_Int_Tables_number   1
_chemical_formula_structural   Li4Co3Ni3(SbO8)2
_chemical_formula_sum   'Li4 Co3 Ni3 Sb2 O16'
_cell_volume   276.76545131
_cell_formula_units_Z   1
loop_
 _symmetry_equiv_pos_site_id
 _symmetry_equiv_pos_as_xyz
  1  'x, y, z'
loop_
 _atom_site_type_symbol
 _atom_site_label
 _atom_site_symmetry_multiplicity
 _atom_site_fract_x
 _atom_site_fract_y
 _atom_site_fract_z
 _atom_site_occupancy
  Li  Li0  1  0.66296200  0.66296200  0.09917800  1
  Li  Li1  1  0.00275300  0.00275300  0.00821000  1
  Li  Li2  1  0.00458100  0.00458100  0.50804300  1
  Li  Li3  1  0.33338100  0.33338100  0.59951100  1
  Co  Co0  1  0.34002100  0.83104900  0.78516300  1
  Co  Co1  1  0.83104900  0.34002100  0.78516300  1
  Co  Co2  1  0.17127600  0.17127600  0.28482400  1
  Ni  Ni0  1  0.83190700  0.83190700  0.78679000  1
  Ni  Ni1  1  0.16870200  0.66342300  0.28589800  1
  Ni  Ni2  1  0.66342300  0.16870200  0.28589800  1
  Sb  Sb0  1  0.66927300  0.66927300  0.51366400  1
  Sb  Sb1  1  0.32959300  0.32959300  0.01046700  1
  O  O0  1  0.33214500  0.84335400  0.40524500  1
  O  O1  1  0.51663400  0.51663400  0.66636900  1
  O  O2  1  0.66612800  0.66612800  0.88306400  1
  O  O3  1  0.00142100  0.00142100  0.69694000  1
  O  O4  1  0.00641100  0.00641100  0.19792100  1
  O  O5  1  0.84335400  0.33214500  0.40524500  1
  O  O6  1  0.50912100  0.96960700  0.65826300  1
  O  O7  1  0.96960700  0.50912100  0.65826300  1
  O  O8  1  0.16220200  0.16220200  0.89695400  1
  O  O9  1  0.84396000  0.84396000  0.40592100  1
  O  O10  1  0.02531800  0.47294500  0.15609300  1
  O  O11  1  0.47294500  0.02531800  0.15609300  1
  O  O12  1  0.32879800  0.32879800  0.38180900  1
  O  O13  1  0.16450000  0.67814900  0.90637600  1
  O  O14  1  0.48002100  0.48002100  0.15860900  1
  O  O15  1  0.67814900  0.16450000  0.90637600  1
loop_
_geom_bond_atom_site_label_1
_geom_bond_atom_site_label_2
_geom_bond_distance
_geom_bond_site_symmetry_2
Li0 O11 1.902388 1_565
Li0 O10 1.902388 1_655
Li0 O14 1.915354 1_555
Li0 O2 2.052671 1_554
Li1 O4 1.804104 1_555
Li1 O8 1.898613 1_554
Li1 O15 1.905669 1_454
Li1 O13 1.905669 1_544
Li2 O3 1.794103 1_555
Li2 O0 1.896427 1_545
Li2 O5 1.896427 1_455
Li2 O9 1.916714 1_445
Li3 O6 1.898048 1_545
Li3 O7 1.898048 1_455
Li3 O1 1.976092 1_555
Li3 O12 2.070497 1_555
Co0 O2 1.892735 1_555
Co0 O3 1.904073 1_565
Co0 O6 1.938656 1_555
Co0 O1 1.953096 1_555
Co0 O8 1.983895 1_565
Co0 O13 1.990511 1_555
Co1 O2 1.892735 1_555
Co1 O3 1.904073 1_655
Co1 O7 1.938656 1_555
Co1 O1 1.953096 1_555
Co1 O8 1.983895 1_655
Co1 O15 1.990511 1_555
Co2 O12 1.863872 1_555
Co2 O4 1.882149 1_555
Co2 O10 1.929116 1_555
Co2 O11 1.929116 1_555
Co2 O5 1.987092 1_455
Co2 O0 1.987092 1_545
Ni0 O2 1.882792 1_555
Ni0 O3 1.889228 1_665
Ni0 O15 2.034764 1_565
Ni0 O13 2.034764 1_655
Ni0 O7 2.049891 1_555
Ni0 O6 2.049891 1_555
Ni1 O12 1.895720 1_555
Ni1 O4 1.899566 1_565
Ni1 O14 1.966657 1_555
Ni1 O9 1.975690 1_455
Ni1 O0 2.102498 1_555
Ni1 O10 2.124784 1_555
Ni2 O12 1.895720 1_555
Ni2 O4 1.899566 1_655
Ni2 O14 1.966657 1_555
Ni2 O9 1.975690 1_545
Ni2 O5 2.102498 1_555
Ni2 O11 2.124784 1_555
O0 Sb0 1.991939 1_555
O1 Sb0 2.083714 1_555
O5 Sb0 1.991939 1_555
O6 Sb0 2.053059 1_555
O7 Sb0 2.053059 1_555
O8 Sb1 2.034185 1_556
O9 Sb0 2.012051 1_555
O10 Sb1 2.042500 1_555
O11 Sb1 2.042500 1_555
O13 Sb1 1.993679 1_556
O14 Sb1 2.103714 1_555
O15 Sb1 1.993679 1_556
