# generated using pymatgen
data_Li2V3(OF)4
_symmetry_space_group_name_H-M   'P 1'
_cell_length_a   5.00985321
_cell_length_b   10.25265603
_cell_length_c   6.11310104
_cell_angle_alpha   72.66750636
_cell_angle_beta   89.99904703
_cell_angle_gamma   91.85465466
_symmetry_Int_Tables_number   1
_chemical_formula_structural   Li2V3(OF)4
_chemical_formula_sum   'Li4 V6 O8 F8'
_cell_volume   299.56490275
_cell_formula_units_Z   2
loop_
 _symmetry_equiv_pos_site_id
 _symmetry_equiv_pos_as_xyz
  1  'x, y, z'
loop_
 _atom_site_type_symbol
 _atom_site_label
 _atom_site_symmetry_multiplicity
 _atom_site_fract_x
 _atom_site_fract_y
 _atom_site_fract_z
 _atom_site_occupancy
  Li  Li0  1  0.06434300  0.54083200  0.10448300  1
  Li  Li1  1  0.06434200  0.54082800  0.60469700  1
  Li  Li2  1  0.96871100  0.14100900  0.05448300  1
  Li  Li3  1  0.96686600  0.14190000  0.55402300  1
  V  V0  1  0.03022300  0.85734800  0.94638300  1
  V  V1  1  0.03022300  0.85733900  0.44655600  1
  V  V2  1  0.46866200  0.36908700  0.19013200  1
  V  V3  1  0.46865100  0.36910400  0.69050700  1
  V  V4  1  0.52931900  0.64542800  0.30234700  1
  V  V5  1  0.52937100  0.64593200  0.80201000  1
  O  O0  1  0.29119800  0.47607400  0.88692900  1
  O  O1  1  0.29116600  0.47604900  0.38693000  1
  O  O2  1  0.30935900  0.71279900  0.01921300  1
  O  O3  1  0.30932400  0.71279700  0.51810300  1
  O  O4  1  0.69278000  0.54074000  0.10498400  1
  O  O5  1  0.69280300  0.54073000  0.60423800  1
  O  O6  1  0.81399200  0.76832300  0.74096200  1
  O  O7  1  0.81460300  0.76815900  0.24101600  1
  F  F0  1  0.16974700  0.23890200  0.25550600  1
  F  F1  1  0.16974800  0.23890500  0.75525100  1
  F  F2  1  0.22921700  0.94831500  0.65102000  1
  F  F3  1  0.22839300  0.94913300  0.15065700  1
  F  F4  1  0.66413300  0.27867300  0.98541700  1
  F  F5  1  0.66380900  0.27847700  0.48553600  1
  F  F6  1  0.83238500  0.02341400  0.36380200  1
  F  F7  1  0.83247000  0.02344700  0.86294600  1
loop_
_geom_bond_atom_site_label_1
_geom_bond_atom_site_label_2
_geom_bond_distance
_geom_bond_site_symmetry_2
Li0 O4 1.861448 1_455
Li0 O0 2.018934 1_554
Li0 O1 2.019727 1_555
Li0 O2 2.049228 1_555
Li1 O5 1.861326 1_455
Li1 O0 2.018800 1_555
Li1 O1 2.019948 1_555
Li1 O3 2.049147 1_555
O0 V5 2.013172 1_555
O0 V2 2.069038 1_556
O0 V3 2.069461 1_555
O1 V4 2.009341 1_555
O1 V3 2.070653 1_555
O1 V2 2.071196 1_555
O2 V4 2.006040 1_555
O2 V5 2.009764 1_554
O2 V0 2.022675 1_554
O3 V4 2.005849 1_555
O3 V5 2.009345 1_555
O3 V1 2.022500 1_555
O4 V2 1.988748 1_555
O4 V4 2.026512 1_555
O4 V5 2.032411 1_554
O5 V3 1.988620 1_555
O5 V4 2.026206 1_555
O5 V5 2.032131 1_555
O6 V5 1.830911 1_555
O6 V0 2.050004 1_655
O6 V1 2.050061 1_655
O7 V4 1.835513 1_555
O7 V0 2.049820 1_654
O7 V1 2.049947 1_655
F0 V2 1.933026 1_555
F0 Li2 2.049717 1_455
F0 Li3 2.050716 1_455
F1 V3 1.933067 1_555
F1 Li3 2.049151 1_455
F1 Li2 2.051450 1_456
F2 V0 2.015001 1_555
F2 V1 2.015108 1_555
F2 Li3 2.342225 1_465
F3 V1 2.017050 1_555
F3 V0 2.017505 1_554
F3 Li2 2.320508 1_465
F4 V3 2.032674 1_555
F4 V2 2.033304 1_556
F4 Li2 2.069559 1_556
F5 V2 2.034491 1_555
F5 V3 2.035133 1_555
F5 Li3 2.056583 1_555
F6 V1 1.932231 1_645
F6 Li3 2.017565 1_555
F6 Li2 2.020855 1_555
F7 V0 1.932203 1_645
F7 Li3 2.018687 1_555
F7 Li2 2.019237 1_556
