# generated using pymatgen
data_Li5(NiO2)4
_symmetry_space_group_name_H-M   'P 1'
_cell_length_a   5.97218675
_cell_length_b   5.74437141
_cell_length_c   9.62678342
_cell_angle_alpha   90.02511156
_cell_angle_beta   89.99074988
_cell_angle_gamma   61.42461119
_symmetry_Int_Tables_number   1
_chemical_formula_structural   Li5(NiO2)4
_chemical_formula_sum   'Li10 Ni8 O16'
_cell_volume   290.03123041
_cell_formula_units_Z   2
loop_
 _symmetry_equiv_pos_site_id
 _symmetry_equiv_pos_as_xyz
  1  'x, y, z'
loop_
 _atom_site_type_symbol
 _atom_site_label
 _atom_site_symmetry_multiplicity
 _atom_site_fract_x
 _atom_site_fract_y
 _atom_site_fract_z
 _atom_site_occupancy
  Li  Li0  1  0.97294900  0.01114500  0.48530800  1
  Li  Li1  1  0.02739300  0.98392600  0.98513600  1
  Li  Li2  1  0.19830200  0.18480100  0.55843900  1
  Li  Li3  1  0.35352300  0.32323100  0.78230700  1
  Li  Li4  1  0.59432500  0.20370200  0.54506000  1
  Li  Li5  1  0.20362400  0.61882500  0.55914400  1
  Li  Li6  1  0.80570300  0.38364600  0.05750500  1
  Li  Li7  1  0.64625400  0.67656800  0.28234400  1
  Li  Li8  1  0.40814400  0.79680700  0.04311800  1
  Li  Li9  1  0.80104100  0.81728400  0.05853700  1
  Ni  Ni0  1  0.33069900  0.33546500  0.03350300  1
  Ni  Ni1  1  0.66385400  0.66756500  0.53305400  1
  Ni  Ni2  1  0.15164700  0.17671800  0.28626800  1
  Ni  Ni3  1  0.64299100  0.17862600  0.28676300  1
  Ni  Ni4  1  0.15233700  0.67063100  0.28641200  1
  Ni  Ni5  1  0.84799000  0.32881900  0.78633000  1
  Ni  Ni6  1  0.35959300  0.81992600  0.78713200  1
  Ni  Ni7  1  0.84724200  0.82295200  0.78627500  1
  O  O0  1  0.01075300  0.98723200  0.68070700  1
  O  O1  1  0.98203000  0.00206200  0.18154200  1
  O  O2  1  0.18682900  0.16372200  0.91425900  1
  O  O3  1  0.47658600  0.02823500  0.15792800  1
  O  O4  1  0.70237600  0.14534500  0.90212400  1
  O  O5  1  0.01406000  0.50113600  0.16777400  1
  O  O6  1  0.31167300  0.35012800  0.39924200  1
  O  O7  1  0.48184900  0.49425400  0.15631500  1
  O  O8  1  0.80972500  0.34941900  0.41184600  1
  O  O9  1  0.19235900  0.64615700  0.91383900  1
  O  O10  1  0.52520600  0.50011700  0.65705200  1
  O  O11  1  0.98316000  0.51139000  0.66733800  1
  O  O12  1  0.69401100  0.65908100  0.90059600  1
  O  O13  1  0.29912300  0.84026600  0.40487800  1
  O  O14  1  0.51967000  0.97743600  0.65490600  1
  O  O15  1  0.80335200  0.84299800  0.41165600  1
loop_
_geom_bond_atom_site_label_1
_geom_bond_atom_site_label_2
_geom_bond_distance
_geom_bond_site_symmetry_2
Li0 O15 1.843125 1_545
Li0 O8 1.848151 1_555
Li0 O13 1.878109 1_645
Li0 O0 1.891808 1_645
Li1 O9 1.837478 1_555
Li1 O2 1.838504 1_565
Li1 O4 1.882949 1_465
Li1 O1 1.905748 1_466
Li2 O14 1.944076 1_545
Li2 O11 1.990323 1_455
Li2 O6 2.079700 1_555
Li2 O0 2.268223 1_545
Li2 O13 2.306957 1_545
Li2 O8 2.484777 1_455
Li3 O9 2.064058 1_555
Li3 O2 2.077852 1_555
Li3 O10 2.129560 1_555
Li3 O14 2.132236 1_545
Li3 O4 2.163435 1_555
Li3 O11 2.236162 1_455
Li4 O10 1.886228 1_555
Li4 O14 1.887273 1_545
Li4 O6 2.042318 1_555
Li4 O15 2.241353 1_545
Li4 O8 2.242902 1_555
Li4 O0 2.545712 1_645
Li5 O10 1.946842 1_555
Li5 O11 1.994176 1_455
Li5 O6 2.052594 1_555
Li5 O0 2.200079 1_555
Li5 O13 2.200967 1_555
Li5 O15 2.539007 1_455
Li6 O7 1.967897 1_555
Li6 O5 1.983418 1_655
Li6 O12 2.054945 1_554
Li6 O1 2.265831 1_555
Li6 O4 2.301896 1_554
Li6 O2 2.434165 1_654
Li7 O15 2.049716 1_555
Li7 O8 2.070343 1_555
Li7 O7 2.125035 1_555
Li7 O3 2.141604 1_565
Li7 O13 2.169545 1_555
Li7 O5 2.222102 1_655
Li8 O7 1.916192 1_555
Li8 O3 1.916942 1_565
Li8 O12 2.032060 1_554
Li8 O9 2.241649 1_554
Li8 O2 2.250784 1_564
Li9 O5 1.953041 1_655
Li9 O3 1.972501 1_565
Li9 O12 2.025109 1_554
Li9 O1 2.189529 1_565
Li9 O4 2.259726 1_564
Li9 O9 2.483634 1_654
Ni0 O9 1.945878 1_554
Ni0 O7 1.957483 1_555
Ni0 O2 1.959473 1_554
Ni0 O3 1.959531 1_555
Ni0 O5 2.104524 1_555
Ni0 O4 2.323431 1_554
Ni1 O10 1.948947 1_555
Ni1 O14 1.953848 1_555
Ni1 O15 1.969594 1_555
Ni1 O8 1.983719 1_555
Ni1 O11 2.116052 1_555
Ni1 O13 2.277323 1_555
Ni2 O5 1.996653 1_555
Ni2 O6 1.999644 1_555
Ni2 O1 2.005199 1_455
Ni2 O13 2.046633 1_545
Ni2 O3 2.105887 1_555
Ni2 O8 2.162339 1_455
Ni3 O3 2.023116 1_555
Ni3 O7 2.030678 1_555
Ni3 O1 2.046565 1_555
Ni3 O6 2.047397 1_555
Ni3 O15 2.077474 1_545
Ni3 O8 2.082787 1_555
Ni4 O5 1.924281 1_555
Ni4 O6 1.949627 1_555
Ni4 O1 1.956523 1_465
Ni4 O13 1.958362 1_555
Ni4 O7 2.135055 1_555
Ni4 O15 2.191341 1_455
Ni5 O11 1.968351 1_555
Ni5 O12 1.995935 1_555
Ni5 O4 1.996792 1_555
Ni5 O0 2.000580 1_645
Ni5 O10 2.102493 1_555
Ni5 O2 2.162646 1_655
Ni6 O10 2.044677 1_555
Ni6 O14 2.044751 1_555
Ni6 O12 2.066864 1_555
Ni6 O0 2.097563 1_555
Ni6 O9 2.106216 1_555
Ni6 O2 2.123843 1_565
Ni7 O0 1.938823 1_655
Ni7 O12 1.938923 1_555
Ni7 O11 1.944517 1_555
Ni7 O4 1.971581 1_565
Ni7 O14 2.134262 1_555
Ni7 O9 2.187942 1_655
