# generated using pymatgen
data_Na5Fe2P2(CO7)2
_symmetry_space_group_name_H-M   'P 1'
_cell_length_a   6.59535300
_cell_length_b   5.25901100
_cell_length_c   18.02590590
_cell_angle_alpha   89.48971297
_cell_angle_beta   90.00000000
_cell_angle_gamma   90.00000000
_symmetry_Int_Tables_number   1
_chemical_formula_structural   Na5Fe2P2(CO7)2
_chemical_formula_sum   'Na10 Fe4 P4 C4 O28'
_cell_volume   625.20436226
_cell_formula_units_Z   2
loop_
 _symmetry_equiv_pos_site_id
 _symmetry_equiv_pos_as_xyz
  1  'x, y, z'
loop_
 _atom_site_type_symbol
 _atom_site_label
 _atom_site_symmetry_multiplicity
 _atom_site_fract_x
 _atom_site_fract_y
 _atom_site_fract_z
 _atom_site_occupancy
  Na  Na0  1  0.51698700  0.76808300  0.04366700  1
  Na  Na1  1  0.26792200  0.24529200  0.13326500  1
  Na  Na2  1  0.74407900  0.74858000  0.37039800  1
  Na  Na3  1  0.25184300  0.74760400  0.36935300  1
  Na  Na4  1  0.01229000  0.24259300  0.46272400  1
  Na  Na5  1  0.48301300  0.76808300  0.54366700  1
  Na  Na6  1  0.73207800  0.24529200  0.63326500  1
  Na  Na7  1  0.74815700  0.74760400  0.86935300  1
  Na  Na8  1  0.25592100  0.74858000  0.87039800  1
  Na  Na9  1  0.98771000  0.24259300  0.96272400  1
  Fe  Fe0  1  0.98672600  0.78551200  0.17269600  1
  Fe  Fe1  1  0.49763800  0.22226900  0.32336300  1
  Fe  Fe2  1  0.01327400  0.78551200  0.67269600  1
  Fe  Fe3  1  0.50236200  0.22226900  0.82336300  1
  P  P0  1  0.49572100  0.70044200  0.20852300  1
  P  P1  1  0.99838800  0.28717700  0.28904300  1
  P  P2  1  0.50427900  0.70044200  0.70852300  1
  P  P3  1  0.00161200  0.28717700  0.78904300  1
  C  C0  1  0.00716100  0.73224000  0.03227000  1
  C  C1  1  0.50407500  0.27393600  0.46924300  1
  C  C2  1  0.99283900  0.73224000  0.53227000  1
  C  C3  1  0.49592500  0.27393600  0.96924300  1
  O  O0  1  0.48414300  0.29453100  0.03946900  1
  O  O1  1  0.00518700  0.95512100  0.06368000  1
  O  O2  1  0.00839300  0.53646400  0.07670200  1
  O  O3  1  0.30889200  0.78438100  0.15977500  1
  O  O4  1  0.68834500  0.76939000  0.16133000  1
  O  O5  1  0.00636200  0.12787900  0.21739500  1
  O  O6  1  0.48393200  0.41203500  0.22218500  1
  O  O7  1  0.99890700  0.57807400  0.26727600  1
  O  O8  1  0.49912100  0.84250800  0.28309000  1
  O  O9  1  0.81105200  0.22791600  0.33784600  1
  O  O10  1  0.18263000  0.23241000  0.34031400  1
  O  O11  1  0.49670000  0.47643300  0.42608100  1
  O  O12  1  0.49742200  0.04967800  0.43753500  1
  O  O13  1  0.99661600  0.70986800  0.46103400  1
  O  O14  1  0.51585700  0.29453100  0.53946900  1
  O  O15  1  0.99481300  0.95512100  0.56368000  1
  O  O16  1  0.99160700  0.53646400  0.57670200  1
  O  O17  1  0.31165500  0.76939000  0.66133000  1
  O  O18  1  0.69110800  0.78438100  0.65977500  1
  O  O19  1  0.99363800  0.12787900  0.71739500  1
  O  O20  1  0.51606800  0.41203500  0.72218500  1
  O  O21  1  0.00109300  0.57807400  0.76727600  1
  O  O22  1  0.50087900  0.84250800  0.78309000  1
  O  O23  1  0.81737000  0.23241000  0.84031400  1
  O  O24  1  0.18894800  0.22791600  0.83784600  1
  O  O25  1  0.50330000  0.47643300  0.92608100  1
  O  O26  1  0.50257800  0.04967800  0.93753500  1
  O  O27  1  0.00338400  0.70986800  0.96103400  1
loop_
_geom_bond_atom_site_label_1
_geom_bond_atom_site_label_2
_geom_bond_distance
_geom_bond_site_symmetry_2
Na0 O4 2.403362 1_555
Na0 O26 2.410750 1_564
Na0 O0 2.501634 1_555
Na0 O3 2.504922 1_555
Na0 O25 2.628925 1_554
Na0 O0 2.777416 1_565
Na1 O0 2.225207 1_555
Na1 O6 2.322247 1_555
Na1 O5 2.374938 1_555
Na1 O3 2.481170 1_545
Na1 O2 2.507279 1_555
Na1 O1 2.634171 1_545
Na1 O3 2.891912 1_555
Na2 O8 2.305891 1_555
Na2 O13 2.340713 1_555
Na2 O11 2.385846 1_555
Na2 O12 2.579259 1_565
Na2 O9 2.620624 1_565
Na2 O7 2.667175 1_555
Na2 O9 2.840010 1_555
Na3 O8 2.304993 1_555
Na3 O13 2.366068 1_455
Na3 O11 2.379365 1_555
Na3 O12 2.586962 1_565
Na3 O10 2.638005 1_565
Na3 O7 2.644373 1_455
Na3 O10 2.801527 1_555
Na4 O15 2.358311 1_445
Na4 O13 2.459495 1_455
Na4 O10 2.477092 1_555
Na4 O16 2.585508 1_455
Na4 O9 2.614916 1_455
Na4 O13 2.803950 1_445
Na5 O17 2.403362 1_555
Na5 O12 2.410750 1_565
Na5 O14 2.501634 1_555
Na5 O18 2.504922 1_555
Na5 O11 2.628925 1_555
Na5 O14 2.777416 1_565
Na6 O14 2.225207 1_555
Na6 O20 2.322247 1_555
Na6 O19 2.374938 1_555
Na6 O18 2.481170 1_545
Na6 O16 2.507279 1_555
Na6 O15 2.634171 1_545
Na6 O18 2.891912 1_555
Na7 O22 2.304993 1_555
Na7 O27 2.366068 1_655
Na7 O25 2.379365 1_555
Na7 O26 2.586962 1_565
Na7 O23 2.638005 1_565
Na7 O21 2.644373 1_655
Na7 O23 2.801527 1_555
Na8 O22 2.305891 1_555
Na8 O27 2.340713 1_555
Na8 O25 2.385846 1_555
Na8 O26 2.579259 1_565
Na8 O24 2.620624 1_565
Na8 O21 2.667175 1_555
Na8 O24 2.840010 1_555
Na9 O1 2.358311 1_646
Na9 O27 2.459495 1_655
Na9 O23 2.477092 1_555
Na9 O2 2.585508 1_656
Na9 O24 2.614916 1_655
Na9 O27 2.803950 1_645
Fe0 O4 1.980458 1_555
Fe0 O5 1.983349 1_665
Fe0 O7 2.017444 1_555
Fe0 O3 2.137540 1_655
Fe0 O1 2.154272 1_655
Fe0 O2 2.184133 1_655
Fe1 O6 2.073175 1_555
Fe1 O9 2.083742 1_555
Fe1 O10 2.100685 1_555
Fe1 O8 2.131106 1_545
Fe1 O12 2.241909 1_555
Fe1 O11 2.293278 1_555
Fe2 O17 1.980458 1_555
Fe2 O19 1.983349 1_465
Fe2 O21 2.017444 1_555
Fe2 O18 2.137540 1_455
Fe2 O15 2.154272 1_455
Fe2 O16 2.184133 1_455
Fe3 O20 2.073175 1_555
Fe3 O24 2.083742 1_555
Fe3 O23 2.100685 1_555
Fe3 O22 2.131106 1_545
Fe3 O26 2.241909 1_555
Fe3 O25 2.293278 1_555
C0 O27 1.290756 1_554
C0 O2 1.298812 1_555
C0 O1 1.306317 1_555
C1 O14 1.273845 1_555
C1 O11 1.314165 1_555
C1 O12 1.315882 1_555
C2 O13 1.290756 1_555
C2 O16 1.298812 1_555
C2 O15 1.306317 1_555
C3 O0 1.273845 1_556
C3 O25 1.314165 1_555
C3 O26 1.315882 1_555
O3 P0 1.574307 1_555
O4 P0 1.569600 1_555
O5 P1 1.546573 1_455
O6 P0 1.536401 1_555
O7 P1 1.575962 1_555
O8 P0 1.543792 1_555
O9 P1 1.546844 1_555
O10 P1 1.552076 1_455
O17 P2 1.569600 1_555
O18 P2 1.574307 1_555
O19 P3 1.546573 1_655
O20 P2 1.536401 1_555
O21 P3 1.575962 1_555
O22 P2 1.543792 1_555
O23 P3 1.552076 1_655
O24 P3 1.546844 1_555
