# generated using pymatgen
data_RbFeH4Cl3O2
_symmetry_space_group_name_H-M   'P 1'
_cell_length_a   7.04036300
_cell_length_b   8.98861400
_cell_length_c   11.43691500
_cell_angle_alpha   90.00000000
_cell_angle_beta   90.00000000
_cell_angle_gamma   90.00000000
_symmetry_Int_Tables_number   1
_chemical_formula_structural   RbFeH4Cl3O2
_chemical_formula_sum   'Rb4 Fe4 H16 Cl12 O8'
_cell_volume   723.76349770
_cell_formula_units_Z   4
loop_
 _symmetry_equiv_pos_site_id
 _symmetry_equiv_pos_as_xyz
  1  'x, y, z'
loop_
 _atom_site_type_symbol
 _atom_site_label
 _atom_site_symmetry_multiplicity
 _atom_site_fract_x
 _atom_site_fract_y
 _atom_site_fract_z
 _atom_site_occupancy
  Rb  Rb0  1  0.00000000  0.25000000  0.65031200  1
  Rb  Rb1  1  0.00000000  0.75000000  0.84968800  1
  Rb  Rb2  1  0.00000000  0.75000000  0.34968800  1
  Rb  Rb3  1  0.00000000  0.25000000  0.15031200  1
  Fe  Fe0  1  0.53126700  0.00000000  0.75000000  1
  Fe  Fe1  1  0.46873300  0.50000000  0.75000000  1
  Fe  Fe2  1  0.46873300  0.00000000  0.25000000  1
  Fe  Fe3  1  0.53126700  0.50000000  0.25000000  1
  H  H0  1  0.30418500  0.02466600  0.94814800  1
  H  H1  1  0.69581500  0.47533400  0.94814800  1
  H  H2  1  0.69581500  0.52466600  0.55185200  1
  H  H3  1  0.30418500  0.97533400  0.55185200  1
  H  H4  1  0.69581500  0.97533400  0.05185200  1
  H  H5  1  0.30418500  0.52466600  0.05185200  1
  H  H6  1  0.30418500  0.47533400  0.44814800  1
  H  H7  1  0.69581500  0.02466600  0.44814800  1
  H  H8  1  0.29841500  0.18240800  0.88475800  1
  H  H9  1  0.70158500  0.31759200  0.88475800  1
  H  H10  1  0.70158500  0.68240800  0.61524200  1
  H  H11  1  0.29841500  0.81759200  0.61524200  1
  H  H12  1  0.70158500  0.81759200  0.11524200  1
  H  H13  1  0.29841500  0.68240800  0.11524200  1
  H  H14  1  0.29841500  0.31759200  0.38475800  1
  H  H15  1  0.70158500  0.18240800  0.38475800  1
  Cl  Cl0  1  0.50000000  0.25000000  0.64978500  1
  Cl  Cl1  1  0.50000000  0.75000000  0.85021500  1
  Cl  Cl2  1  0.50000000  0.75000000  0.35021500  1
  Cl  Cl3  1  0.50000000  0.25000000  0.14978500  1
  Cl  Cl4  1  0.79182300  0.08680700  0.88865500  1
  Cl  Cl5  1  0.20817700  0.41319300  0.88865500  1
  Cl  Cl6  1  0.20817700  0.58680700  0.61134500  1
  Cl  Cl7  1  0.79182300  0.91319300  0.61134500  1
  Cl  Cl8  1  0.20817700  0.91319300  0.11134500  1
  Cl  Cl9  1  0.79182300  0.58680700  0.11134500  1
  Cl  Cl10  1  0.79182300  0.41319300  0.38865500  1
  Cl  Cl11  1  0.20817700  0.08680700  0.38865500  1
  O  O0  1  0.31830400  0.07426300  0.87141000  1
  O  O1  1  0.68169600  0.42573700  0.87141000  1
  O  O2  1  0.68169600  0.57426300  0.62859000  1
  O  O3  1  0.31830400  0.92573700  0.62859000  1
  O  O4  1  0.68169600  0.92573700  0.12859000  1
  O  O5  1  0.31830400  0.57426300  0.12859000  1
  O  O6  1  0.31830400  0.42573700  0.37141000  1
  O  O7  1  0.68169600  0.07426300  0.37141000  1
loop_
_geom_bond_atom_site_label_1
_geom_bond_atom_site_label_2
_geom_bond_distance
_geom_bond_site_symmetry_2
Fe0 O0 2.149810 1_555
Fe0 O3 2.149810 1_545
Fe1 O2 2.149810 1_555
Fe1 O1 2.149810 1_555
Fe2 O7 2.149810 1_555
Fe2 O4 2.149810 1_545
Fe3 O5 2.149810 1_555
Fe3 O6 2.149810 1_555
H0 O0 0.989388 1_555
H1 O1 0.989388 1_555
H2 O2 0.989388 1_555
H3 O3 0.989388 1_555
H4 O4 0.989388 1_555
H5 O5 0.989388 1_555
H6 O6 0.989388 1_555
H7 O7 0.989388 1_555
H8 O0 0.993901 1_555
H9 O1 0.993901 1_555
H10 O2 0.993901 1_555
H11 O3 0.993901 1_555
H12 O4 0.993901 1_555
H13 O5 0.993901 1_555
H14 O6 0.993901 1_555
H15 O7 0.993901 1_555
Cl0 Fe0 2.532157 1_555
Cl0 Fe1 2.532157 1_555
Cl0 Rb0 3.520187 1_655
Cl0 Rb0 3.520187 1_555
Cl1 Fe0 2.532157 1_565
Cl1 Fe1 2.532157 1_555
Cl1 Rb1 3.520187 1_655
Cl1 Rb1 3.520187 1_555
Cl2 Fe3 2.532157 1_555
Cl2 Fe2 2.532157 1_565
Cl2 Rb2 3.520187 1_655
Cl2 Rb2 3.520187 1_555
Cl3 Fe3 2.532157 1_555
Cl3 Fe2 2.532157 1_555
Cl3 Rb3 3.520187 1_555
Cl3 Rb3 3.520187 1_655
Cl4 Fe0 2.547273 1_555
Cl4 Rb1 3.392940 1_645
Cl4 Rb0 3.424970 1_655
Cl4 Rb3 3.640767 1_656
Cl5 Fe1 2.547273 1_555
Cl5 Rb1 3.392940 1_555
Cl5 Rb0 3.424970 1_555
Cl5 Rb3 3.640767 1_556
Cl6 Fe1 2.547273 1_555
Cl6 Rb0 3.392940 1_555
Cl6 Rb1 3.424970 1_555
Cl6 Rb2 3.640767 1_555
Cl7 Fe0 2.547273 1_565
Cl7 Rb0 3.392940 1_665
Cl7 Rb1 3.424970 1_655
Cl7 Rb2 3.640767 1_655
Cl8 Fe2 2.547273 1_565
Cl8 Rb3 3.392940 1_565
Cl8 Rb2 3.424970 1_555
Cl8 Rb1 3.640767 1_554
Cl9 Fe3 2.547273 1_555
Cl9 Rb3 3.392940 1_655
Cl9 Rb2 3.424970 1_655
Cl9 Rb1 3.640767 1_654
Cl10 Fe3 2.547273 1_555
Cl10 Rb2 3.392940 1_655
Cl10 Rb3 3.424970 1_655
Cl10 Rb0 3.640767 1_655
Cl11 Fe2 2.547273 1_555
Cl11 Rb2 3.392940 1_545
Cl11 Rb3 3.424970 1_555
Cl11 Rb0 3.640767 1_555
