# generated using pymatgen
data_Na3LiMnBPO7
_symmetry_space_group_name_H-M   'P 1'
_cell_length_a   5.27072285
_cell_length_b   6.83866104
_cell_length_c   9.63223728
_cell_angle_alpha   89.98835159
_cell_angle_beta   93.41949983
_cell_angle_gamma   90.00177346
_symmetry_Int_Tables_number   1
_chemical_formula_structural   Na3LiMnBPO7
_chemical_formula_sum   'Na6 Li2 Mn2 B2 P2 O14'
_cell_volume   346.57282692
_cell_formula_units_Z   2
loop_
 _symmetry_equiv_pos_site_id
 _symmetry_equiv_pos_as_xyz
  1  'x, y, z'
loop_
 _atom_site_type_symbol
 _atom_site_label
 _atom_site_symmetry_multiplicity
 _atom_site_fract_x
 _atom_site_fract_y
 _atom_site_fract_z
 _atom_site_occupancy
  Na  Na0  1  0.74940600  0.25000900  0.93145900  1
  Na  Na1  1  0.21569700  0.98650000  0.78192600  1
  Na  Na2  1  0.21569400  0.51350200  0.78195400  1
  Na  Na3  1  0.78426900  0.48661200  0.21814100  1
  Na  Na4  1  0.78425100  0.01346700  0.21816500  1
  Na  Na5  1  0.25059100  0.75003700  0.06856800  1
  Li  Li0  1  0.00025400  0.00013900  0.50010800  1
  Li  Li1  1  0.00027800  0.49985200  0.50009400  1
  Mn  Mn0  1  0.70709900  0.74985700  0.68012100  1
  Mn  Mn1  1  0.29270600  0.25000400  0.31978200  1
  B  B0  1  0.72646100  0.75000300  0.94339700  1
  B  B1  1  0.27355300  0.25002900  0.05649400  1
  P  P0  1  0.67983100  0.24994400  0.57792500  1
  P  P1  1  0.32012800  0.75004000  0.42207400  1
  O  O0  1  0.27670500  0.24996300  0.91489700  1
  O  O1  1  0.94987500  0.74993200  0.87169500  1
  O  O2  1  0.50027300  0.74996600  0.85785200  1
  O  O3  1  0.78014900  0.06561300  0.65976900  1
  O  O4  1  0.78022300  0.43420200  0.65979100  1
  O  O5  1  0.18620300  0.74995800  0.56482900  1
  O  O6  1  0.38694200  0.25002800  0.55133700  1
  O  O7  1  0.61297900  0.74997300  0.44858600  1
  O  O8  1  0.81387900  0.25003300  0.43520800  1
  O  O9  1  0.21968800  0.56573000  0.34021800  1
  O  O10  1  0.21970100  0.93438600  0.34022100  1
  O  O11  1  0.49973600  0.25006200  0.14210700  1
  O  O12  1  0.05008400  0.25006800  0.12821300  1
  O  O13  1  0.72335200  0.75009000  0.08506800  1
loop_
_geom_bond_atom_site_label_1
_geom_bond_atom_site_label_2
_geom_bond_distance
_geom_bond_site_symmetry_2
Na0 O12 2.396869 1_656
Na0 O11 2.483366 1_556
Na0 O0 2.487064 1_555
Na0 O0 2.793305 1_655
Na0 O4 2.917173 1_555
Na0 O3 2.918385 1_555
Na1 O0 2.223035 1_565
Na1 O2 2.295644 1_555
Na1 O1 2.339185 1_455
Na1 O3 2.573872 1_465
Na1 O5 2.641269 1_555
Na2 O0 2.222899 1_555
Na2 O2 2.295385 1_555
Na2 O1 2.338717 1_455
Na2 O4 2.573884 1_455
Na2 O5 2.640606 1_555
Na3 O13 2.223217 1_555
Na3 O11 2.296013 1_555
Na3 O12 2.339973 1_655
Na3 O9 2.573050 1_655
Na3 O8 2.640688 1_555
Na4 O13 2.223185 1_545
Na4 O11 2.296090 1_555
Na4 O12 2.340092 1_655
Na4 O10 2.572986 1_645
Na4 O8 2.640967 1_555
Na5 O1 2.397854 1_454
Na5 O2 2.483959 1_554
Na5 O13 2.487377 1_555
Na5 O13 2.792920 1_455
Na5 O9 2.917403 1_555
Na5 O10 2.918010 1_555
Li0 O3 2.030912 1_455
Li0 O10 2.030923 1_545
Li0 O8 2.050038 1_455
Li0 O5 2.050165 1_545
Li1 O9 2.030754 1_555
Li1 O4 2.031136 1_455
Li1 O8 2.049793 1_455
Li1 O5 2.049877 1_555
Mn0 O2 2.083689 1_555
Mn0 O1 2.181924 1_555
Mn0 O4 2.203616 1_555
Mn0 O3 2.204142 1_565
Mn0 O7 2.255639 1_555
Mn1 O11 2.083844 1_555
Mn1 O12 2.181450 1_555
Mn1 O10 2.203258 1_545
Mn1 O9 2.204092 1_555
Mn1 O6 2.255926 1_555
B0 O13 1.365684 1_556
B0 O1 1.400231 1_555
B0 O2 1.408209 1_555
B1 O0 1.364988 1_554
B1 O12 1.400573 1_555
B1 O11 1.408538 1_555
O3 P0 1.562057 1_555
O4 P0 1.562110 1_555
O5 P1 1.582662 1_555
O6 P0 1.549693 1_555
O7 P1 1.549418 1_555
O8 P0 1.582657 1_555
O9 P1 1.562428 1_555
O10 P1 1.562359 1_555
