# generated using pymatgen
data_Li2MnF4
_symmetry_space_group_name_H-M   'P 1'
_cell_length_a   9.74078583
_cell_length_b   9.74078583
_cell_length_c   9.74078539
_cell_angle_alpha   101.03763053
_cell_angle_beta   101.03763053
_cell_angle_gamma   128.10413014
_symmetry_Int_Tables_number   1
_chemical_formula_structural   Li2MnF4
_chemical_formula_sum   'Li16 Mn8 F32'
_cell_volume   653.95634193
_cell_formula_units_Z   8
loop_
 _symmetry_equiv_pos_site_id
 _symmetry_equiv_pos_as_xyz
  1  'x, y, z'
loop_
 _atom_site_type_symbol
 _atom_site_label
 _atom_site_symmetry_multiplicity
 _atom_site_fract_x
 _atom_site_fract_y
 _atom_site_fract_z
 _atom_site_occupancy
  Li  Li0  1  0.76794100  0.37500000  0.89294100  1
  Li  Li1  1  0.13063100  0.86936900  0.00000000  1
  Li  Li2  1  0.38063100  0.88063100  0.76126300  1
  Li  Li3  1  0.12500000  0.51794100  0.89294100  1
  Li  Li4  1  0.62500000  0.23205900  0.10705900  1
  Li  Li5  1  0.86936900  0.13063100  0.00000000  1
  Li  Li6  1  0.11936900  0.61936900  0.23873700  1
  Li  Li7  1  0.48205900  0.87500000  0.10705900  1
  Li  Li8  1  0.76794100  0.87500000  0.39294100  1
  Li  Li9  1  0.13063100  0.13063100  0.26126300  1
  Li  Li10  1  0.38063100  0.61936900  0.50000000  1
  Li  Li11  1  0.62500000  0.51794100  0.39294100  1
  Li  Li12  1  0.12500000  0.23205900  0.60705900  1
  Li  Li13  1  0.86936900  0.86936900  0.73873700  1
  Li  Li14  1  0.11936900  0.88063100  0.50000000  1
  Li  Li15  1  0.48205900  0.37500000  0.60705900  1
  Mn  Mn0  1  0.51454500  0.65030100  0.86424500  1
  Mn  Mn1  1  0.46394400  0.09969900  0.36424500  1
  Mn  Mn2  1  0.34969900  0.48545500  0.13575500  1
  Mn  Mn3  1  0.90030100  0.53605600  0.63575500  1
  Mn  Mn4  1  0.34969900  0.21394400  0.86424500  1
  Mn  Mn5  1  0.90030100  0.26454500  0.36424500  1
  Mn  Mn6  1  0.78605600  0.65030100  0.13575500  1
  Mn  Mn7  1  0.73545500  0.09969900  0.63575500  1
  F  F0  1  0.51744400  0.14521700  0.88434200  1
  F  F1  1  0.98912500  0.60478300  0.87222700  1
  F  F2  1  0.85478300  0.48255600  0.11565800  1
  F  F3  1  0.88310200  0.26744400  0.87222700  1
  F  F4  1  0.39521700  0.01087500  0.12777300  1
  F  F5  1  0.36689800  0.73912500  0.88434200  1
  F  F6  1  0.75477300  0.88797500  0.86679800  1
  F  F7  1  0.22882300  0.86202500  0.36679800  1
  F  F8  1  0.73255600  0.11689800  0.12777300  1
  F  F9  1  0.26087500  0.63310200  0.11565800  1
  F  F10  1  0.74396200  0.36273500  0.38122700  1
  F  F11  1  0.26849200  0.38726500  0.88122700  1
  F  F12  1  0.11202500  0.97882300  0.86679800  1
  F  F13  1  0.61273500  0.49396200  0.88122700  1
  F  F14  1  0.61273500  0.73150800  0.11877300  1
  F  F15  1  0.63726500  0.25603800  0.61877300  1
  F  F16  1  0.11202500  0.24522700  0.13320200  1
  F  F17  1  0.63726500  0.01849200  0.38122700  1
  F  F18  1  0.13797500  0.77117700  0.63320200  1
  F  F19  1  0.13797500  0.50477300  0.36679800  1
  F  F20  1  0.50603800  0.38726500  0.11877300  1
  F  F21  1  0.98150800  0.36273500  0.61877300  1
  F  F22  1  0.51744400  0.63310200  0.37222700  1
  F  F23  1  0.98912500  0.11689800  0.38434200  1
  F  F24  1  0.02117700  0.88797500  0.13320200  1
  F  F25  1  0.49522700  0.86202500  0.63320200  1
  F  F26  1  0.85478300  0.73912500  0.37222700  1
  F  F27  1  0.88310200  0.01087500  0.61565800  1
  F  F28  1  0.36689800  0.48255600  0.62777300  1
  F  F29  1  0.39521700  0.26744400  0.38434200  1
  F  F30  1  0.26087500  0.14521700  0.62777300  1
  F  F31  1  0.73255600  0.60478300  0.61565800  1
loop_
_geom_bond_atom_site_label_1
_geom_bond_atom_site_label_2
_geom_bond_distance
_geom_bond_site_symmetry_2
F0 Li2 1.954937 1_545
F0 Li4 1.962875 1_556
F0 Li0 2.019937 1_555
F0 Mn4 2.105726 1_555
F1 Li1 1.954939 1_656
F1 Li3 1.962875 1_655
F1 Li0 2.019937 1_555
F1 Mn3 2.105726 1_555
F2 Li6 1.954937 1_655
F2 Li0 1.962875 1_554
F2 Li4 2.019937 1_555
F2 Mn6 2.105726 1_555
F3 Li5 1.954939 1_556
F3 Li0 1.962875 1_555
F3 Li3 2.019937 1_655
F3 Mn7 2.105726 1_555
F4 Li1 1.954939 1_545
F4 Li7 1.962875 1_545
F4 Li4 2.019937 1_555
F4 Mn1 2.105726 1_555
F5 Li2 1.954931 1_555
F5 Li7 1.962875 1_556
F5 Li3 2.019937 1_555
F5 Mn0 2.105717 1_555
F6 Li5 1.879143 1_566
F6 Li13 1.879150 1_555
F6 Mn0 2.026242 1_555
F7 Li14 1.879143 1_555
F7 Li6 1.879146 1_555
F7 Mn1 2.026238 1_565
F8 Li5 1.954939 1_555
F8 Li4 1.962875 1_555
F8 Li7 2.019937 1_545
F8 Mn5 2.105726 1_555
F9 Li6 1.954931 1_555
F9 Li3 1.962875 1_554
F9 Li7 2.019937 1_555
F9 Mn2 2.105717 1_555
F10 Mn1 2.252029 1_555
F10 Mn3 2.257156 1_555
F10 Mn5 2.257164 1_555
F10 Li4 2.405856 1_555
F10 Li11 2.405856 1_555
F11 Mn0 2.252025 1_555
F11 Mn2 2.257156 1_556
F11 Mn4 2.257156 1_555
F11 Li3 2.405856 1_555
F11 Li12 2.405856 1_555
F12 Li1 1.879143 1_556
F12 Li13 1.879146 1_455
F12 Mn4 2.026238 1_565
F13 Mn4 2.252029 1_555
F13 Mn6 2.257156 1_556
F13 Mn0 2.257164 1_555
F13 Li15 2.405856 1_555
F13 Li0 2.405856 1_555
F14 Mn2 2.252025 1_555
F14 Mn0 2.257156 1_554
F14 Mn6 2.257156 1_555
F14 Li7 2.405856 1_555
F14 Li8 2.405856 1_555
F15 Mn3 2.252029 1_555
F15 Mn1 2.257156 1_555
F15 Mn7 2.257164 1_555
F15 Li0 2.405856 1_555
F15 Li15 2.405856 1_555
F16 Li5 1.879143 1_455
F16 Li9 1.879150 1_555
F16 Mn2 2.026242 1_555
F17 Mn5 2.252025 1_555
F17 Mn7 2.257156 1_555
F17 Mn1 2.257156 1_555
F17 Li8 2.405856 1_545
F17 Li7 2.405856 1_545
F18 Li14 1.879143 1_555
F18 Li2 1.879146 1_555
F18 Mn3 2.026238 1_455
F19 Li10 1.879143 1_555
F19 Li6 1.879150 1_555
F19 Mn5 2.026242 1_455
F20 Mn6 2.252029 1_555
F20 Mn4 2.257156 1_554
F20 Mn2 2.257164 1_555
F20 Li11 2.405856 1_555
F20 Li4 2.405856 1_555
F21 Mn7 2.252025 1_555
F21 Mn5 2.257156 1_555
F21 Mn3 2.257156 1_555
F21 Li12 2.405856 1_655
F21 Li3 2.405856 1_655
F22 Li10 1.954939 1_555
F22 Li11 1.962875 1_555
F22 Li8 2.019937 1_555
F22 Mn2 2.105726 1_555
F23 Li9 1.954931 1_655
F23 Li12 1.962875 1_655
F23 Li8 2.019937 1_545
F23 Mn5 2.105717 1_555
F24 Li1 1.879143 1_555
F24 Li9 1.879146 1_565
F24 Mn6 2.026238 1_455
F25 Li10 1.879143 1_555
F25 Li2 1.879150 1_555
F25 Mn7 2.026242 1_565
F26 Li14 1.954939 1_655
F26 Li8 1.962875 1_555
F26 Li11 2.019937 1_555
F26 Mn6 2.105726 1_555
F27 Li13 1.954931 1_545
F27 Li8 1.962875 1_545
F27 Li12 2.019937 1_655
F27 Mn7 2.105717 1_555
F28 Li10 1.954939 1_555
F28 Li15 1.962875 1_555
F28 Li12 2.019937 1_555
F28 Mn0 2.105726 1_555
F29 Li9 1.954937 1_555
F29 Li15 1.962875 1_555
F29 Li11 2.019937 1_555
F29 Mn1 2.105726 1_555
F30 Li14 1.954939 1_545
F30 Li12 1.962875 1_555
F30 Li15 2.019937 1_555
F30 Mn4 2.105726 1_555
F31 Li13 1.954937 1_555
F31 Li11 1.962875 1_555
F31 Li15 2.019937 1_555
F31 Mn3 2.105726 1_555
