# generated using pymatgen
data_Li2Hf2O5
_symmetry_space_group_name_H-M   'P 1'
_cell_length_a   3.89635700
_cell_length_b   10.26480800
_cell_length_c   12.94654217
_cell_angle_alpha   57.27274906
_cell_angle_beta   90.00000000
_cell_angle_gamma   90.00000000
_symmetry_Int_Tables_number   1
_chemical_formula_structural   Li2Hf2O5
_chemical_formula_sum   'Li8 Hf8 O20'
_cell_volume   435.60250617
_cell_formula_units_Z   4
loop_
 _symmetry_equiv_pos_site_id
 _symmetry_equiv_pos_as_xyz
  1  'x, y, z'
loop_
 _atom_site_type_symbol
 _atom_site_label
 _atom_site_symmetry_multiplicity
 _atom_site_fract_x
 _atom_site_fract_y
 _atom_site_fract_z
 _atom_site_occupancy
  Li  Li0  1  0.26012600  0.04907000  0.04585000  1
  Li  Li1  1  0.29870900  0.92519900  0.32836300  1
  Li  Li2  1  0.79870900  0.07480100  0.17163700  1
  Li  Li3  1  0.76012600  0.95093000  0.45415000  1
  Li  Li4  1  0.23987400  0.04907000  0.54585000  1
  Li  Li5  1  0.20129100  0.92519900  0.82836300  1
  Li  Li6  1  0.70129100  0.07480100  0.67163700  1
  Li  Li7  1  0.73987400  0.95093000  0.95415000  1
  Hf  Hf0  1  0.67831900  0.33135300  0.85266600  1
  Hf  Hf1  1  0.86813500  0.66637500  0.36642200  1
  Hf  Hf2  1  0.17831900  0.66864700  0.64733400  1
  Hf  Hf3  1  0.63186500  0.66637500  0.86642200  1
  Hf  Hf4  1  0.36813500  0.33362500  0.13357800  1
  Hf  Hf5  1  0.82168100  0.33135300  0.35266600  1
  Hf  Hf6  1  0.13186500  0.33362500  0.63357800  1
  Hf  Hf7  1  0.32168100  0.66864700  0.14733400  1
  O  O0  1  0.74615000  0.11894000  0.98347200  1
  O  O1  1  0.16923100  0.38404400  0.78704700  1
  O  O2  1  0.34746300  0.69869700  0.29813500  1
  O  O3  1  0.11830500  0.58603200  0.53509200  1
  O  O4  1  0.61830500  0.41396800  0.96490800  1
  O  O5  1  0.80692100  0.87437800  0.33658900  1
  O  O6  1  0.66923100  0.61595600  0.71295300  1
  O  O7  1  0.24615000  0.88106000  0.51652800  1
  O  O8  1  0.30692100  0.12562200  0.16341100  1
  O  O9  1  0.15253700  0.69869700  0.79813500  1
  O  O10  1  0.84746300  0.30130300  0.20186500  1
  O  O11  1  0.69307900  0.87437800  0.83658900  1
  O  O12  1  0.75385000  0.11894000  0.48347200  1
  O  O13  1  0.33076900  0.38404400  0.28704700  1
  O  O14  1  0.19307900  0.12562200  0.66341100  1
  O  O15  1  0.38169500  0.58603200  0.03509200  1
  O  O16  1  0.88169500  0.41396800  0.46490800  1
  O  O17  1  0.65253700  0.30130300  0.70186500  1
  O  O18  1  0.83076900  0.61595600  0.21295300  1
  O  O19  1  0.25385000  0.88106000  0.01652800  1
loop_
_geom_bond_atom_site_label_1
_geom_bond_atom_site_label_2
_geom_bond_distance
_geom_bond_site_symmetry_2
Li0 O19 1.956226 1_545
Li0 O0 2.031373 1_554
Li0 O8 2.064077 1_555
Li0 O0 2.133268 1_454
Li1 O5 1.973616 1_455
Li1 O8 2.010853 1_565
Li1 O5 2.035805 1_555
Li1 O7 2.233446 1_555
Li1 O2 2.564898 1_555
Li2 O8 1.973616 1_555
Li2 O5 2.010853 1_545
Li2 O8 2.035805 1_655
Li2 O0 2.233446 1_554
Li2 O10 2.564898 1_555
Li3 O12 1.956226 1_565
Li3 O7 2.031373 1_655
Li3 O5 2.064077 1_555
Li3 O7 2.133268 1_555
Li4 O7 1.956226 1_545
Li4 O12 2.031373 1_455
Li4 O14 2.064077 1_555
Li4 O12 2.133268 1_555
Li5 O11 1.973616 1_555
Li5 O14 2.010853 1_565
Li5 O11 2.035805 1_455
Li5 O19 2.233446 1_556
Li5 O9 2.564898 1_555
Li6 O14 1.973616 1_655
Li6 O11 2.010853 1_545
Li6 O14 2.035805 1_555
Li6 O12 2.233446 1_555
Li6 O17 2.564898 1_555
Li7 O0 1.956226 1_565
Li7 O19 2.031373 1_556
Li7 O11 2.064077 1_555
Li7 O19 2.133268 1_656
Hf0 O0 1.923338 1_555
Hf0 O1 2.043551 1_655
Hf0 O4 2.053760 1_555
Hf0 O1 2.109986 1_555
Hf0 O17 2.137307 1_555
Hf0 O6 2.468569 1_555
Hf1 O5 1.968015 1_555
Hf1 O2 2.015581 1_655
Hf1 O3 2.109861 1_655
Hf1 O2 2.165695 1_555
Hf1 O16 2.183873 1_555
Hf1 O18 2.312719 1_555
Hf2 O7 1.923338 1_555
Hf2 O6 2.043551 1_555
Hf2 O3 2.053760 1_555
Hf2 O6 2.109986 1_455
Hf2 O9 2.137307 1_555
Hf2 O1 2.468569 1_555
Hf3 O11 1.968015 1_555
Hf3 O9 2.015581 1_555
Hf3 O15 2.109861 1_556
Hf3 O9 2.165695 1_655
Hf3 O4 2.183873 1_555
Hf3 O6 2.312719 1_555
Hf4 O8 1.968015 1_555
Hf4 O10 2.015581 1_555
Hf4 O4 2.109861 1_554
Hf4 O10 2.165695 1_455
Hf4 O15 2.183873 1_555
Hf4 O13 2.312719 1_555
Hf5 O12 1.923338 1_555
Hf5 O13 2.043551 1_555
Hf5 O16 2.053760 1_555
Hf5 O13 2.109986 1_655
Hf5 O10 2.137307 1_555
Hf5 O18 2.468569 1_555
Hf6 O14 1.968015 1_555
Hf6 O17 2.015581 1_455
Hf6 O16 2.109861 1_455
Hf6 O17 2.165695 1_555
Hf6 O3 2.183873 1_555
Hf6 O1 2.312719 1_555
Hf7 O19 1.923338 1_555
Hf7 O18 2.043551 1_455
Hf7 O15 2.053760 1_555
Hf7 O18 2.109986 1_555
Hf7 O2 2.137307 1_555
Hf7 O13 2.468569 1_555
