# generated using pymatgen
data_Li2Fe3(P2O7)2
_symmetry_space_group_name_H-M   'P 1'
_cell_length_a   5.29361400
_cell_length_b   6.60912760
_cell_length_c   16.03158097
_cell_angle_alpha   81.54987872
_cell_angle_beta   82.37726256
_cell_angle_gamma   72.01886541
_symmetry_Int_Tables_number   1
_chemical_formula_structural   Li2Fe3(P2O7)2
_chemical_formula_sum   'Li4 Fe6 P8 O28'
_cell_volume   525.42166344
_cell_formula_units_Z   2
loop_
 _symmetry_equiv_pos_site_id
 _symmetry_equiv_pos_as_xyz
  1  'x, y, z'
loop_
 _atom_site_type_symbol
 _atom_site_label
 _atom_site_symmetry_multiplicity
 _atom_site_fract_x
 _atom_site_fract_y
 _atom_site_fract_z
 _atom_site_occupancy
  Li  Li0  1  0.06810000  0.23345900  0.99100200  1
  Li  Li1  1  0.36255100  0.69638700  0.12044300  1
  Li  Li2  1  0.63744900  0.30361300  0.87955700  1
  Li  Li3  1  0.93190000  0.76654100  0.00899800  1
  Fe  Fe0  1  0.16237400  0.28819000  0.57608600  1
  Fe  Fe1  1  0.03499500  0.62396500  0.81214600  1
  Fe  Fe2  1  0.25314300  0.97073300  0.33316500  1
  Fe  Fe3  1  0.74685700  0.02926700  0.66683500  1
  Fe  Fe4  1  0.96500500  0.37603500  0.18785400  1
  Fe  Fe5  1  0.83762600  0.71181000  0.42391400  1
  P  P0  1  0.16566200  0.09343000  0.78843000  1
  P  P1  1  0.36851800  0.44254600  0.31839300  1
  P  P2  1  0.56345900  0.24804400  0.07455200  1
  P  P3  1  0.28103800  0.78198400  0.53841100  1
  P  P4  1  0.71896200  0.21801600  0.46158900  1
  P  P5  1  0.43654100  0.75195600  0.92544800  1
  P  P6  1  0.63148200  0.55745400  0.68160700  1
  P  P7  1  0.83433800  0.90657000  0.21157000  1
  O  O0  1  0.02941000  0.03252500  0.22111500  1
  O  O1  1  0.25617200  0.32870800  0.07684600  1
  O  O2  1  0.21605100  0.30330400  0.29043300  1
  O  O3  1  0.02292700  0.28428000  0.83965600  1
  O  O4  1  0.18075000  0.65984900  0.34057400  1
  O  O5  1  0.13660300  0.61582900  0.53434200  1
  O  O6  1  0.32953400  0.14229400  0.70638900  1
  O  O7  1  0.60619200  0.06082200  0.15354200  1
  O  O8  1  0.10691800  0.97531000  0.58128300  1
  O  O9  1  0.70784600  0.14285600  0.99516200  1
  O  O10  1  0.46362200  0.32055300  0.40843700  1
  O  O11  1  0.31484300  0.57916700  0.90950200  1
  O  O12  1  0.57440900  0.15877000  0.54820700  1
  O  O13  1  0.60245400  0.46899600  0.25748900  1
  O  O14  1  0.39754600  0.53100400  0.74251100  1
  O  O15  1  0.42559100  0.84123000  0.45179300  1
  O  O16  1  0.68515700  0.42083300  0.09049800  1
  O  O17  1  0.53637800  0.67944700  0.59156300  1
  O  O18  1  0.29215400  0.85714400  0.00483800  1
  O  O19  1  0.89308200  0.02469000  0.41871700  1
  O  O20  1  0.39380800  0.93917800  0.84645800  1
  O  O21  1  0.67046600  0.85770600  0.29361100  1
  O  O22  1  0.86339700  0.38417100  0.46565800  1
  O  O23  1  0.81925000  0.34015100  0.65942600  1
  O  O24  1  0.97707300  0.71572000  0.16034400  1
  O  O25  1  0.78394900  0.69669600  0.70956700  1
  O  O26  1  0.74382800  0.67129200  0.92315400  1
  O  O27  1  0.97059000  0.96747500  0.77888500  1
loop_
_geom_bond_atom_site_label_1
_geom_bond_atom_site_label_2
_geom_bond_distance
_geom_bond_site_symmetry_2
Li0 O1 2.070385 1_556
Li0 O9 2.158567 1_455
Li0 O18 2.393337 1_546
Li0 O3 2.433481 1_555
Li0 O16 2.521899 1_456
Li1 O18 2.015590 1_555
Li1 O24 2.026374 1_455
Li1 O16 2.140744 1_555
Li2 O9 2.015590 1_555
Li2 O3 2.026374 1_655
Li2 O11 2.140744 1_555
Li3 O26 2.070385 1_554
Li3 O18 2.158567 1_655
Li3 O9 2.393337 1_564
Li3 O24 2.433481 1_555
Li3 O11 2.521899 1_654
Fe0 O23 2.075598 1_455
Fe0 O12 2.095395 1_555
Fe0 O5 2.138083 1_555
Fe0 O8 2.164914 1_545
Fe0 O6 2.334130 1_555
Fe0 O22 2.415523 1_455
Fe1 O14 2.052374 1_555
Fe1 O25 2.157454 1_455
Fe1 O27 2.183893 1_455
Fe1 O26 2.186056 1_455
Fe1 O11 2.219241 1_555
Fe1 O3 2.242496 1_555
Fe2 O21 2.142229 1_555
Fe2 O2 2.160039 1_565
Fe2 O19 2.161424 1_465
Fe2 O15 2.163914 1_555
Fe2 O4 2.187461 1_555
Fe2 O0 2.201479 1_565
Fe3 O6 2.142229 1_555
Fe3 O25 2.160039 1_545
Fe3 O8 2.161424 1_645
Fe3 O12 2.163914 1_555
Fe3 O23 2.187461 1_555
Fe3 O27 2.201479 1_545
Fe4 O13 2.052374 1_555
Fe4 O2 2.157454 1_655
Fe4 O0 2.183893 1_655
Fe4 O1 2.186056 1_655
Fe4 O16 2.219241 1_555
Fe4 O24 2.242496 1_555
Fe5 O4 2.075598 1_655
Fe5 O15 2.095395 1_555
Fe5 O22 2.138083 1_555
Fe5 O19 2.164914 1_565
Fe5 O21 2.334130 1_555
Fe5 O5 2.415523 1_655
O0 P7 1.546876 1_445
O1 P2 1.544688 1_555
O2 P1 1.541110 1_555
O3 P0 1.545229 1_555
O4 P1 1.533626 1_555
O5 P3 1.532131 1_555
O6 P0 1.527129 1_555
O7 P7 1.619410 1_545
O7 P2 1.621275 1_555
O8 P3 1.522310 1_555
O9 P2 1.536647 1_556
O10 P4 1.607067 1_555
O10 P1 1.608566 1_555
O11 P5 1.538901 1_555
O12 P4 1.552555 1_555
O13 P1 1.510019 1_555
O14 P6 1.510019 1_555
O15 P3 1.552555 1_555
O16 P2 1.538901 1_555
O17 P3 1.607067 1_555
O17 P6 1.608566 1_555
O18 P5 1.536647 1_554
O19 P4 1.522310 1_555
O20 P0 1.619410 1_565
O20 P5 1.621275 1_555
O21 P7 1.527129 1_555
O22 P4 1.532131 1_555
O23 P6 1.533626 1_555
O24 P7 1.545229 1_555
O25 P6 1.541110 1_555
O26 P5 1.544688 1_555
O27 P0 1.546876 1_665
