# generated using pymatgen
data_Ba4Li4Ti19O44
_symmetry_space_group_name_H-M   'P 1'
_cell_length_a   5.86255000
_cell_length_b   10.03204456
_cell_length_c   14.24870259
_cell_angle_alpha   89.92202218
_cell_angle_beta   89.91305525
_cell_angle_gamma   89.96806825
_symmetry_Int_Tables_number   1
_chemical_formula_structural   Ba4Li4Ti19O44
_chemical_formula_sum   'Ba4 Li4 Ti19 O44'
_cell_volume   838.01224476
_cell_formula_units_Z   1
loop_
 _symmetry_equiv_pos_site_id
 _symmetry_equiv_pos_as_xyz
  1  'x, y, z'
loop_
 _atom_site_type_symbol
 _atom_site_label
 _atom_site_symmetry_multiplicity
 _atom_site_fract_x
 _atom_site_fract_y
 _atom_site_fract_z
 _atom_site_occupancy
  Ba  Ba0  1  0.25448300  0.91152000  0.59069400  1
  Ba  Ba1  1  0.24867200  0.60612900  0.09239700  1
  Ba  Ba2  1  0.75294500  0.39755000  0.90043100  1
  Ba  Ba3  1  0.74415500  0.09888400  0.40934400  1
  Li  Li0  1  0.25070400  0.59664300  0.66735600  1
  Li  Li1  1  0.25200800  0.56905800  0.51816600  1
  Li  Li2  1  0.74790900  0.42387500  0.46417900  1
  Li  Li3  1  0.75076900  0.07424300  0.96090700  1
  Ti  Ti0  1  0.00135300  0.16577100  0.17073700  1
  Ti  Ti1  1  0.99923200  0.83611300  0.82816400  1
  Ti  Ti2  1  0.99770900  0.66827200  0.32890100  1
  Ti  Ti3  1  0.25218200  0.10838700  0.82366700  1
  Ti  Ti4  1  0.24814200  0.93769300  0.33356700  1
  Ti  Ti5  1  0.24246500  0.56972000  0.84448400  1
  Ti  Ti6  1  0.25081100  0.25562300  0.99629000  1
  Ti  Ti7  1  0.22763300  0.24740500  0.51342000  1
  Ti  Ti8  1  0.25856900  0.38665500  0.33443700  1
  Ti  Ti9  1  0.50284000  0.66785300  0.32796400  1
  Ti  Ti10  1  0.50195500  0.83993700  0.82523400  1
  Ti  Ti11  1  0.49847900  0.16511700  0.17024800  1
  Ti  Ti12  1  0.49388700  0.33530900  0.67154200  1
  Ti  Ti13  1  0.74242700  0.76476900  0.51051100  1
  Ti  Ti14  1  0.76975000  0.58560500  0.67126800  1
  Ti  Ti15  1  0.75258100  0.43388100  0.16740200  1
  Ti  Ti16  1  0.75210200  0.89206500  0.16555600  1
  Ti  Ti17  1  0.74329100  0.73477700  0.00243300  1
  Ti  Ti18  1  0.77167600  0.09104200  0.66665700  1
  O  O0  1  0.00739800  0.52510000  0.75721600  1
  O  O1  1  0.00201800  0.00178300  0.25171600  1
  O  O2  1  0.00969300  0.67496500  0.91509100  1
  O  O3  1  0.00718000  0.82326700  0.40976300  1
  O  O4  1  0.03266500  0.17781500  0.91710300  1
  O  O5  1  0.03043600  0.32448300  0.41786300  1
  O  O6  1  0.24817100  0.92312800  0.89042000  1
  O  O7  1  0.24950700  0.57100100  0.39052800  1
  O  O8  1  0.25342600  0.74524600  0.76132300  1
  O  O9  1  0.24764000  0.43262400  0.93176100  1
  O  O10  1  0.27056900  0.25106400  0.74964900  1
  O  O11  1  0.25435300  0.06423600  0.42382900  1
  O  O12  1  0.24939200  0.10985300  0.09019600  1
  O  O13  1  0.25105300  0.75208400  0.26202200  1
  O  O14  1  0.26375800  0.39991000  0.58344600  1
  O  O15  1  0.24894700  0.24269400  0.24657800  1
  O  O16  1  0.46907600  0.17653800  0.91888900  1
  O  O17  1  0.46914200  0.32215700  0.41475500  1
  O  O18  1  0.49583200  0.67189100  0.91424100  1
  O  O19  1  0.49589700  0.82250100  0.41100700  1
  O  O20  1  0.49641000  0.00166200  0.25122700  1
  O  O21  1  0.49099300  0.50424600  0.75025200  1
  O  O22  1  0.50099200  0.99906100  0.74968600  1
  O  O23  1  0.50415500  0.49963200  0.24750200  1
  O  O24  1  0.50024100  0.17392200  0.58585000  1
  O  O25  1  0.50584900  0.32417200  0.08966500  1
  O  O26  1  0.52446900  0.67749500  0.58458400  1
  O  O27  1  0.53688600  0.81782400  0.08587300  1
  O  O28  1  0.72842000  0.43353100  0.60320600  1
  O  O29  1  0.74305600  0.92734600  0.56857600  1
  O  O30  1  0.75099300  0.89192200  0.91222800  1
  O  O31  1  0.75045300  0.75836700  0.75481200  1
  O  O32  1  0.74964500  0.74424400  0.25398500  1
  O  O33  1  0.74979500  0.60491300  0.40981800  1
  O  O34  1  0.75023200  0.56429300  0.06991700  1
  O  O35  1  0.73354100  0.23894000  0.73634500  1
  O  O36  1  0.74956700  0.25350800  0.23724100  1
  O  O37  1  0.75053100  0.07282700  0.10375100  1
  O  O38  1  0.97857800  0.67224300  0.58421500  1
  O  O39  1  0.96076600  0.81776000  0.08566800  1
  O  O40  1  0.99238600  0.32478200  0.08993400  1
  O  O41  1  0.99856100  0.15155800  0.57786800  1
  O  O42  1  0.99042800  0.50168300  0.24587900  1
  O  O43  1  0.99823000  0.00214400  0.74851800  1
loop_
_geom_bond_atom_site_label_1
_geom_bond_atom_site_label_2
_geom_bond_distance
_geom_bond_site_symmetry_2
Ba0 O11 2.826713 1_565
Ba0 O22 2.829968 1_555
Ba0 O26 2.832098 1_555
Ba0 O41 2.842338 1_465
Ba0 O43 2.852064 1_465
Ba0 O29 2.885529 1_555
Ba0 O38 2.896953 1_455
Ba0 O8 2.946583 1_555
Ba0 O24 3.002281 1_565
Ba0 O29 3.019326 1_455
Ba0 O19 3.057710 1_555
Ba0 O3 3.090484 1_555
Ba1 O39 2.713215 1_455
Ba1 O27 2.716036 1_555
Ba1 O13 2.827630 1_555
Ba1 O42 2.856238 1_455
Ba1 O23 2.875922 1_555
Ba1 O9 2.877414 1_554
Ba1 O34 2.970212 1_455
Ba1 O2 2.971072 1_554
Ba1 O34 2.986796 1_555
Ba1 O18 2.994009 1_554
Ba1 O40 3.198482 1_455
Ba1 O25 3.204854 1_555
Ba2 O4 2.756934 1_655
Ba2 O16 2.784942 1_555
Ba2 O0 2.830651 1_655
Ba2 O35 2.832356 1_555
Ba2 O21 2.843413 1_555
Ba2 O34 2.939606 1_556
Ba2 O9 2.956281 1_655
Ba2 O9 3.015628 1_555
Ba2 O40 3.130385 1_556
Ba2 O18 3.143461 1_555
Ba2 O25 3.145559 1_556
Ba2 O2 3.172029 1_655
Ba3 O17 2.760169 1_555
Ba3 O5 2.821225 1_655
Ba3 O29 2.845782 1_545
Ba3 O20 2.855543 1_555
Ba3 O1 2.876240 1_655
Ba3 O41 2.878352 1_555
Ba3 O11 2.899652 1_555
Ba3 O36 2.900031 1_555
Ba3 O24 2.988250 1_555
Ba3 O11 3.018341 1_655
Ba3 O19 3.132224 1_545
Ba3 O3 3.165163 1_645
Li0 O8 2.005222 1_555
Li0 O0 2.045047 1_555
Li0 O21 2.058982 1_555
Li0 O38 2.127368 1_455
Li0 O26 2.148924 1_555
Li0 O14 2.310096 1_555
Li1 O7 1.818835 1_555
Li1 O14 1.935245 1_555
Li1 O38 2.126750 1_455
Li1 O26 2.154012 1_555
Li2 O33 1.973517 1_555
Li2 O28 1.986565 1_555
Li2 O5 2.042009 1_655
Li2 O17 2.053151 1_555
Li3 O30 1.957034 1_545
Li3 O16 2.034276 1_555
Li3 O37 2.035370 1_556
Li3 O4 2.048748 1_655
O0 Ti5 1.911307 1_555
O0 Ti14 1.952301 1_455
O1 Ti4 1.964080 1_545
O1 Ti0 2.008154 1_555
O1 Ti16 2.208231 1_445
O2 Ti5 1.996564 1_555
O2 Ti1 2.036195 1_455
O2 Ti17 2.084021 1_456
O3 Ti2 1.937403 1_455
O3 Ti4 2.117974 1_555
O3 Ti13 2.192305 1_455
O4 Ti6 1.877721 1_555
O4 Ti3 1.977398 1_555
O5 Ti8 1.893380 1_555
O5 Ti7 1.946587 1_555
O6 Ti1 1.919965 1_455
O6 Ti10 1.941484 1_555
O6 Ti3 2.086748 1_565
O7 Ti2 1.975451 1_455
O7 Ti9 1.984875 1_555
O7 Ti8 2.016315 1_555
O8 Ti10 1.965322 1_555
O8 Ti1 1.988807 1_455
O8 Ti5 2.122059 1_555
O9 Ti5 1.853222 1_555
O9 Ti6 1.998589 1_555
O10 Ti3 1.779996 1_555
O10 Ti12 1.913417 1_555
O11 Ti4 1.808771 1_545
O11 Ti7 2.244151 1_555
O12 Ti0 1.934423 1_555
O12 Ti11 1.936114 1_555
O12 Ti6 1.980808 1_554
O13 Ti9 1.943305 1_555
O13 Ti2 1.953434 1_455
O13 Ti4 2.124095 1_555
O14 Ti7 1.840185 1_555
O14 Ti12 1.953921 1_555
O15 Ti8 1.913474 1_555
O15 Ti0 1.969394 1_555
O15 Ti11 1.981118 1_555
O16 Ti6 1.865498 1_555
O16 Ti3 1.983404 1_555
O17 Ti8 1.803813 1_555
O17 Ti7 2.129721 1_555
O18 Ti17 2.022489 1_556
O18 Ti5 2.062478 1_555
O18 Ti10 2.108528 1_555
O19 Ti9 1.952814 1_555
O19 Ti13 2.106545 1_555
O19 Ti4 2.159208 1_555
O20 Ti4 1.974983 1_545
O20 Ti11 2.003807 1_555
O20 Ti16 2.223118 1_545
O21 Ti12 2.033583 1_555
O21 Ti5 2.086266 1_555
O21 Ti14 2.144026 1_555
O22 Ti10 1.924170 1_555
O22 Ti3 2.106769 1_565
O22 Ti18 2.182272 1_565
O23 Ti15 1.963357 1_555
O23 Ti9 2.041493 1_555
O23 Ti8 2.210084 1_555
O24 Ti12 2.029458 1_555
O24 Ti7 2.040669 1_555
O24 Ti18 2.133248 1_555
O25 Ti11 1.965010 1_555
O25 Ti6 2.118558 1_554
O25 Ti15 2.130840 1_555
O26 Ti13 1.872942 1_555
O26 Ti14 2.108064 1_555
O27 Ti16 1.855645 1_555
O27 Ti17 1.889198 1_555
O28 Ti14 1.825338 1_555
O28 Ti12 1.950486 1_555
O29 Ti13 1.829838 1_555
O29 Ti18 2.164564 1_565
O30 Ti1 1.965136 1_555
O30 Ti10 1.986998 1_555
O30 Ti17 2.033160 1_556
O31 Ti10 1.948159 1_555
O31 Ti1 1.958566 1_555
O31 Ti14 2.106811 1_555
O32 Ti16 1.944690 1_555
O32 Ti9 1.945864 1_555
O32 Ti2 1.958713 1_555
O33 Ti2 1.959510 1_555
O33 Ti9 1.963965 1_555
O33 Ti13 2.153637 1_555
O34 Ti15 1.906920 1_555
O34 Ti17 1.961365 1_555
O35 Ti18 1.800097 1_555
O35 Ti12 1.939387 1_555
O36 Ti0 1.961665 1_655
O36 Ti11 1.967831 1_555
O36 Ti15 2.063970 1_555
O37 Ti11 1.983702 1_555
O37 Ti0 1.987676 1_655
O37 Ti16 2.014879 1_545
O38 Ti14 1.945886 1_555
O38 Ti13 1.970156 1_555
O39 Ti16 1.828916 1_555
O39 Ti17 1.932250 1_555
O40 Ti0 1.966752 1_655
O40 Ti15 2.095148 1_555
O40 Ti6 2.133604 1_654
O41 Ti7 1.888554 1_655
O41 Ti18 1.931852 1_555
O42 Ti15 1.914473 1_555
O42 Ti2 2.049347 1_555
O42 Ti8 2.322726 1_655
O43 Ti18 1.980025 1_555
O43 Ti1 2.014228 1_545
O43 Ti3 2.123399 1_655
