# generated using pymatgen
data_Li3VFe3O8
_symmetry_space_group_name_H-M   'P 1'
_cell_length_a   5.88038987
_cell_length_b   5.88038987
_cell_length_c   5.87695009
_cell_angle_alpha   60.22500965
_cell_angle_beta   60.22500965
_cell_angle_gamma   59.45532179
_symmetry_Int_Tables_number   1
_chemical_formula_structural   Li3VFe3O8
_chemical_formula_sum   'Li3 V1 Fe3 O8'
_cell_volume   143.57748833
_cell_formula_units_Z   1
loop_
 _symmetry_equiv_pos_site_id
 _symmetry_equiv_pos_as_xyz
  1  'x, y, z'
loop_
 _atom_site_type_symbol
 _atom_site_label
 _atom_site_symmetry_multiplicity
 _atom_site_fract_x
 _atom_site_fract_y
 _atom_site_fract_z
 _atom_site_occupancy
  Li  Li0  1  0.50000000  -0.00000000  0.50000000  1
  Li  Li1  1  0.00000000  0.50000000  0.50000000  1
  Li  Li2  1  0.50000000  0.50000000  0.50000000  1
  V  V0  1  0.00000000  -0.00000000  -0.00000000  1
  Fe  Fe0  1  0.50000000  0.50000000  -0.00000000  1
  Fe  Fe1  1  0.00000000  0.50000000  -0.00000000  1
  Fe  Fe2  1  0.50000000  -0.00000000  -0.00000000  1
  O  O0  1  0.24828576  0.76495643  0.22126270  1
  O  O1  1  0.76495643  0.24828576  0.22126270  1
  O  O2  1  0.26575370  0.26575370  0.21860069  1
  O  O3  1  0.76031014  0.76031014  0.23170435  1
  O  O4  1  0.23968986  0.23968986  0.76829565  1
  O  O5  1  0.73424630  0.73424630  0.78139931  1
  O  O6  1  0.23504357  0.75171424  0.77873730  1
  O  O7  1  0.75171424  0.23504357  0.77873730  1
loop_
_geom_bond_atom_site_label_1
_geom_bond_atom_site_label_2
_geom_bond_distance
_geom_bond_site_symmetry_2
Li0 O4 2.105486 1_555
Li0 O3 2.105486 1_545
Li0 O5 2.140613 1_545
Li0 O2 2.140613 1_555
Li0 O1 2.155097 1_555
Li0 O6 2.155097 1_545
Li1 O4 2.105486 1_555
Li1 O3 2.105486 1_455
Li1 O5 2.140613 1_455
Li1 O2 2.140613 1_555
Li1 O0 2.155097 1_555
Li1 O7 2.155097 1_455
Li2 O3 2.181675 1_555
Li2 O4 2.181675 1_555
Li2 O0 2.197987 1_555
Li2 O7 2.197987 1_555
Li2 O1 2.197987 1_555
Li2 O6 2.197987 1_555
Fe0 O2 1.964345 1_555
Fe0 O5 1.964345 1_554
Fe0 O7 2.016398 1_554
Fe0 O1 2.016398 1_555
Fe0 O0 2.016398 1_555
Fe0 O6 2.016398 1_554
Fe1 O5 2.009591 1_454
Fe1 O2 2.009591 1_555
Fe1 O4 2.038393 1_554
Fe1 O3 2.038393 1_455
Fe1 O6 2.043259 1_554
Fe1 O1 2.043259 1_455
Fe2 O5 2.009591 1_544
Fe2 O2 2.009591 1_555
Fe2 O3 2.038393 1_545
Fe2 O4 2.038393 1_554
Fe2 O7 2.043259 1_554
Fe2 O0 2.043259 1_545
O0 V0 1.944830 1_565
O1 V0 1.944830 1_655
O3 V0 2.008545 1_665
O4 V0 2.008545 1_556
O6 V0 1.944830 1_566
O7 V0 1.944830 1_656
