# generated using pymatgen
data_Li2Mn3O6
_symmetry_space_group_name_H-M   'P 1'
_cell_length_a   6.55275600
_cell_length_b   6.63409452
_cell_length_c   15.96365720
_cell_angle_alpha   82.94172191
_cell_angle_beta   84.46109185
_cell_angle_gamma   82.29566871
_symmetry_Int_Tables_number   1
_chemical_formula_structural   Li2Mn3O6
_chemical_formula_sum   'Li12 Mn18 O36'
_cell_volume   680.22523810
_cell_formula_units_Z   6
loop_
 _symmetry_equiv_pos_site_id
 _symmetry_equiv_pos_as_xyz
  1  'x, y, z'
loop_
 _atom_site_type_symbol
 _atom_site_label
 _atom_site_symmetry_multiplicity
 _atom_site_fract_x
 _atom_site_fract_y
 _atom_site_fract_z
 _atom_site_occupancy
  Li  Li0  1  0.91253200  0.58657500  0.41619400  1
  Li  Li1  1  0.75582500  0.74650600  0.91714800  1
  Li  Li2  1  0.74979600  0.75026000  0.58315700  1
  Li  Li3  1  0.74810800  0.74954900  0.24902900  1
  Li  Li4  1  0.58727000  0.91336500  0.75047900  1
  Li  Li5  1  0.57814800  0.92111500  0.08339900  1
  Li  Li6  1  0.41121600  0.08711200  0.91560900  1
  Li  Li7  1  0.41482500  0.08730600  0.57962300  1
  Li  Li8  1  0.41401000  0.08270400  0.25425700  1
  Li  Li9  1  0.08346900  0.41674800  0.91634300  1
  Li  Li10  1  0.08558000  0.41271000  0.58637100  1
  Li  Li11  1  0.08457000  0.41606800  0.24642600  1
  Mn  Mn0  1  0.99565300  0.99614700  0.66615500  1
  Mn  Mn1  1  0.99618200  0.99714400  0.33475700  1
  Mn  Mn2  1  0.84838900  0.18034000  0.83193900  1
  Mn  Mn3  1  0.84001600  0.17626200  0.49842700  1
  Mn  Mn4  1  0.84042200  0.17568400  0.16493100  1
  Mn  Mn5  1  0.65993600  0.32378200  0.66792800  1
  Mn  Mn6  1  0.65452800  0.32198300  0.33423500  1
  Mn  Mn7  1  0.50267100  0.50257400  0.83210800  1
  Mn  Mn8  1  0.66420500  0.32884600  0.00171100  1
  Mn  Mn9  1  0.50399400  0.50471300  0.50009300  1
  Mn  Mn10  1  0.50490000  0.50911300  0.16586500  1
  Mn  Mn11  1  0.32510900  0.65747800  0.66828800  1
  Mn  Mn12  1  0.33033300  0.65608500  0.33517100  1
  Mn  Mn13  1  0.16981600  0.84491300  0.83158600  1
  Mn  Mn14  1  0.31763500  0.65282500  0.00177200  1
  Mn  Mn15  1  0.17468500  0.84156600  0.49855100  1
  Mn  Mn16  1  0.17287500  0.83950800  0.16720500  1
  Mn  Mn17  1  0.99730100  0.98812800  0.00164500  1
  O  O0  1  0.89067800  0.90189100  0.79932300  1
  O  O1  1  0.93646100  0.27143800  0.69804000  1
  O  O2  1  0.90598900  0.89640500  0.45337500  1
  O  O3  1  0.93544700  0.27081200  0.36588100  1
  O  O4  1  0.89179500  0.90299800  0.13295800  1
  O  O5  1  0.77166100  0.43883600  0.88708500  1
  O  O6  1  0.93066200  0.26700500  0.04512700  1
  O  O7  1  0.78464400  0.45805000  0.53625800  1
  O  O8  1  0.71384500  0.05119900  0.96943300  1
  O  O9  1  0.77940900  0.44173700  0.20449300  1
  O  O10  1  0.71417600  0.04231100  0.62993300  1
  O  O11  1  0.59394700  0.60284400  0.71331100  1
  O  O12  1  0.72941700  0.06012000  0.28103700  1
  O  O13  1  0.60960600  0.60123600  0.36775700  1
  O  O14  1  0.56637600  0.22876500  0.80126300  1
  O  O15  1  0.45406500  0.78081000  0.86369900  1
  O  O16  1  0.59736300  0.60144100  0.03553200  1
  O  O17  1  0.56457100  0.22937900  0.46702300  1
  O  O18  1  0.43797900  0.77135600  0.55233300  1
  O  O19  1  0.39490000  0.39541800  0.94646600  1
  O  O20  1  0.57500500  0.22457700  0.11848400  1
  O  O21  1  0.45075600  0.79965900  0.20355700  1
  O  O22  1  0.38645800  0.39096600  0.62807100  1
  O  O23  1  0.27713100  0.92933900  0.70103800  1
  O  O24  1  0.38859200  0.38971900  0.28703900  1
  O  O25  1  0.23624400  0.56630000  0.78819700  1
  O  O26  1  0.26519700  0.93074200  0.37824600  1
  O  O27  1  0.27667900  0.93201900  0.03310300  1
  O  O28  1  0.22063600  0.56865100  0.46801500  1
  O  O29  1  0.05496900  0.71616400  0.95367700  1
  O  O30  1  0.11172000  0.11665700  0.87927800  1
  O  O31  1  0.22889900  0.56452800  0.13565200  1
  O  O32  1  0.06158400  0.73070600  0.61403400  1
  O  O33  1  0.11416200  0.10885500  0.53797500  1
  O  O34  1  0.04611700  0.71946300  0.30221400  1
  O  O35  1  0.10535500  0.10299200  0.22055600  1
loop_
_geom_bond_atom_site_label_1
_geom_bond_atom_site_label_2
_geom_bond_distance
_geom_bond_site_symmetry_2
Li0 O34 2.087914 1_655
Li0 O7 2.140738 1_555
Li0 O13 2.184862 1_555
Li0 O2 2.202330 1_555
Li0 O28 2.237954 1_655
Li0 O3 2.315536 1_555
Li1 O29 2.075823 1_655
Li1 O5 2.140457 1_555
Li1 O0 2.197318 1_555
Li1 O15 2.201609 1_555
Li1 O16 2.240092 1_556
Li1 O8 2.253764 1_565
Li2 O18 2.130052 1_555
Li2 O32 2.131092 1_655
Li2 O10 2.136961 1_565
Li2 O7 2.139071 1_555
Li2 O2 2.375490 1_555
Li2 O11 2.382255 1_555
Li3 O21 2.115197 1_555
Li3 O12 2.167981 1_565
Li3 O34 2.178978 1_655
Li3 O4 2.193803 1_555
Li3 O13 2.198439 1_555
Li3 O9 2.221229 1_555
Li4 O15 2.076671 1_555
Li4 O10 2.145625 1_565
Li4 O0 2.193318 1_555
Li4 O11 2.206554 1_555
Li4 O23 2.235084 1_555
Li4 O14 2.317915 1_565
Li5 O8 2.086365 1_564
Li5 O21 2.125281 1_555
Li5 O20 2.151938 1_565
Li5 O27 2.192238 1_555
Li5 O4 2.255815 1_555
Li5 O16 2.324954 1_555
Li6 O30 2.077244 1_555
Li6 O19 2.148549 1_555
Li6 O14 2.173751 1_555
Li6 O27 2.191704 1_546
Li6 O8 2.208954 1_555
Li6 O15 2.260673 1_545
Li7 O33 2.120856 1_555
Li7 O17 2.138541 1_555
Li7 O10 2.161043 1_555
Li7 O18 2.175451 1_545
Li7 O22 2.223894 1_555
Li7 O23 2.255173 1_545
Li8 O21 2.110360 1_545
Li8 O35 2.125439 1_555
Li8 O12 2.132747 1_555
Li8 O24 2.145737 1_555
Li8 O26 2.299025 1_545
Li8 O20 2.453578 1_555
Li9 O5 2.121656 1_455
Li9 O29 2.122656 1_555
Li9 O19 2.123944 1_555
Li9 O30 2.125398 1_555
Li9 O25 2.354469 1_555
Li9 O6 2.362933 1_456
Li10 O22 2.122399 1_555
Li10 O1 2.123602 1_455
Li10 O7 2.169203 1_455
Li10 O32 2.190165 1_555
Li10 O28 2.205808 1_555
Li10 O33 2.224632 1_555
Li11 O31 2.119064 1_555
Li11 O24 2.132555 1_555
Li11 O9 2.148201 1_455
Li11 O35 2.151052 1_555
Li11 O3 2.227336 1_455
Li11 O34 2.273547 1_555
Mn0 O1 1.935287 1_565
Mn0 O23 1.956268 1_655
Mn0 O10 1.959861 1_565
Mn0 O32 2.016589 1_655
Mn0 O33 2.195923 1_665
Mn0 O0 2.211280 1_555
Mn1 O3 1.921254 1_565
Mn1 O26 1.932961 1_655
Mn1 O34 1.952249 1_655
Mn1 O35 1.974019 1_665
Mn1 O2 1.990082 1_555
Mn1 O12 1.992776 1_565
Mn2 O30 1.924807 1_655
Mn2 O14 1.932572 1_555
Mn2 O0 1.957426 1_545
Mn2 O5 2.005742 1_555
Mn2 O1 2.192075 1_555
Mn2 O8 2.386569 1_555
Mn3 O17 1.895779 1_555
Mn3 O33 1.939023 1_655
Mn3 O7 2.011056 1_555
Mn3 O2 2.050369 1_545
Mn3 O3 2.187504 1_555
Mn3 O10 2.297957 1_555
Mn4 O4 1.917518 1_545
Mn4 O9 1.926137 1_555
Mn4 O20 1.928321 1_555
Mn4 O6 1.991827 1_555
Mn4 O35 2.000696 1_655
Mn4 O12 2.022939 1_555
Mn5 O1 1.895631 1_555
Mn5 O22 1.936784 1_555
Mn5 O10 2.009931 1_555
Mn5 O11 2.047865 1_555
Mn5 O14 2.196759 1_555
Mn5 O7 2.298434 1_555
Mn6 O3 1.931010 1_555
Mn6 O24 1.940764 1_555
Mn6 O13 1.967772 1_555
Mn6 O12 2.008359 1_555
Mn6 O17 2.180413 1_555
Mn6 O9 2.243489 1_555
Mn7 O25 1.919258 1_555
Mn7 O14 1.921749 1_555
Mn7 O15 1.950139 1_555
Mn7 O19 1.975747 1_555
Mn7 O11 1.993584 1_555
Mn7 O5 2.015807 1_555
Mn8 O6 1.915450 1_555
Mn8 O16 1.932784 1_555
Mn8 O8 1.950460 1_554
Mn8 O20 1.968824 1_555
Mn8 O5 1.984310 1_554
Mn8 O19 2.020569 1_554
Mn9 O17 1.942891 1_555
Mn9 O28 1.951605 1_555
Mn9 O7 1.954371 1_555
Mn9 O18 2.024709 1_555
Mn9 O22 2.193093 1_555
Mn9 O13 2.203643 1_555
Mn10 O31 1.893471 1_555
Mn10 O9 1.935588 1_555
Mn10 O21 2.064866 1_555
Mn10 O20 2.097050 1_555
Mn10 O24 2.109686 1_555
Mn10 O16 2.148044 1_555
Mn11 O23 1.916491 1_555
Mn11 O22 1.933497 1_555
Mn11 O11 1.939197 1_555
Mn11 O32 1.982018 1_555
Mn11 O25 1.990927 1_555
Mn11 O18 2.021401 1_555
Mn12 O13 1.926303 1_555
Mn12 O34 1.961361 1_555
Mn12 O24 1.988702 1_555
Mn12 O26 2.004447 1_555
Mn12 O28 2.205819 1_555
Mn12 O21 2.309532 1_555
Mn13 O0 1.924180 1_455
Mn13 O15 1.957384 1_555
Mn13 O30 2.017896 1_565
Mn13 O25 2.031335 1_555
Mn13 O29 2.138843 1_555
Mn13 O23 2.164993 1_555
Mn14 O29 1.926246 1_554
Mn14 O16 1.935076 1_555
Mn14 O27 1.954815 1_555
Mn14 O19 2.001088 1_554
Mn14 O31 2.189217 1_555
Mn14 O15 2.396166 1_554
Mn15 O28 1.910171 1_555
Mn15 O33 1.932667 1_565
Mn15 O2 1.939434 1_455
Mn15 O18 1.975586 1_555
Mn15 O26 1.996267 1_555
Mn15 O32 2.009465 1_555
Mn16 O31 1.930521 1_555
Mn16 O21 1.938941 1_555
Mn16 O4 1.948972 1_455
Mn16 O35 2.015514 1_565
Mn16 O27 2.220389 1_555
Mn16 O34 2.319303 1_555
Mn17 O27 1.921202 1_655
Mn17 O8 1.952594 1_564
Mn17 O29 2.021212 1_654
Mn17 O6 2.033676 1_565
Mn17 O30 2.141121 1_664
Mn17 O4 2.173731 1_555
