# generated using pymatgen
data_Na3Fe2(PO4)3
_symmetry_space_group_name_H-M   'P 1'
_cell_length_a   9.03714500
_cell_length_b   8.85236700
_cell_length_c   15.33479921
_cell_angle_alpha   55.07295816
_cell_angle_beta   90.00000000
_cell_angle_gamma   90.00000000
_symmetry_Int_Tables_number   1
_chemical_formula_structural   Na3Fe2(PO4)3
_chemical_formula_sum   'Na12 Fe8 P12 O48'
_cell_volume   1005.81932118
_cell_formula_units_Z   4
loop_
 _symmetry_equiv_pos_site_id
 _symmetry_equiv_pos_as_xyz
  1  'x, y, z'
loop_
 _atom_site_type_symbol
 _atom_site_label
 _atom_site_symmetry_multiplicity
 _atom_site_fract_x
 _atom_site_fract_y
 _atom_site_fract_z
 _atom_site_occupancy
  Na  Na0  1  0.97086200  0.37011000  0.69315900  1
  Na  Na1  1  0.20858300  0.04812700  0.17104700  1
  Na  Na2  1  0.28084300  0.36113900  0.82082400  1
  Na  Na3  1  0.78084300  0.63886100  0.67917600  1
  Na  Na4  1  0.70858300  0.95187300  0.32895300  1
  Na  Na5  1  0.47086200  0.62989000  0.80684100  1
  Na  Na6  1  0.52913800  0.37011000  0.19315900  1
  Na  Na7  1  0.29141700  0.04812700  0.67104700  1
  Na  Na8  1  0.21915700  0.36113900  0.32082400  1
  Na  Na9  1  0.71915700  0.63886100  0.17917600  1
  Na  Na10  1  0.79141700  0.95187300  0.82895300  1
  Na  Na11  1  0.02913800  0.62989000  0.30684100  1
  Fe  Fe0  1  0.46217600  0.63817600  0.59968900  1
  Fe  Fe1  1  0.96217600  0.36182400  0.90031100  1
  Fe  Fe2  1  0.53937900  0.13439600  0.10329400  1
  Fe  Fe3  1  0.03937900  0.86560400  0.39670600  1
  Fe  Fe4  1  0.96062100  0.13439600  0.60329400  1
  Fe  Fe5  1  0.46062100  0.86560400  0.89670600  1
  Fe  Fe6  1  0.03782400  0.63817600  0.09968900  1
  Fe  Fe7  1  0.53782400  0.36182400  0.40031100  1
  P  P0  1  0.75261600  0.53226100  0.50041700  1
  P  P1  1  0.61696900  0.25615500  0.85036100  1
  P  P2  1  0.89253300  0.97050700  0.14532300  1
  P  P3  1  0.39253300  0.02949300  0.35467700  1
  P  P4  1  0.11696900  0.74384500  0.64963900  1
  P  P5  1  0.25261600  0.46773900  0.99958300  1
  P  P6  1  0.74738400  0.53226100  0.00041700  1
  P  P7  1  0.88303100  0.25615500  0.35036100  1
  P  P8  1  0.60746700  0.97050700  0.64532300  1
  P  P9  1  0.10746700  0.02949300  0.85467700  1
  P  P10  1  0.38303100  0.74384500  0.14963900  1
  P  P11  1  0.24738400  0.46773900  0.49958300  1
  O  O0  1  0.15167500  0.64154200  0.42756900  1
  O  O1  1  0.33309400  0.47555300  0.58431400  1
  O  O2  1  0.08403000  0.19364100  0.86420900  1
  O  O3  1  0.40899000  0.90901800  0.15659600  1
  O  O4  1  0.65082900  0.55223100  0.57490200  1
  O  O5  1  0.56975800  0.20112000  0.96123500  1
  O  O6  1  0.78348800  0.31524800  0.82769300  1
  O  O7  1  0.98678700  0.92877300  0.24205700  1
  O  O8  1  0.85167100  0.70690200  0.44013200  1
  O  O9  1  0.72586000  0.97991700  0.16707100  1
  O  O10  1  0.94962200  0.15053900  0.04608800  1
  O  O11  1  0.51848700  0.42461000  0.76782500  1
  O  O12  1  0.01848700  0.57539000  0.73217500  1
  O  O13  1  0.44962200  0.84946100  0.45391200  1
  O  O14  1  0.22586000  0.02008300  0.33292900  1
  O  O15  1  0.35167100  0.29309800  0.05986800  1
  O  O16  1  0.48678700  0.07122700  0.25794300  1
  O  O17  1  0.28348800  0.68475200  0.67230700  1
  O  O18  1  0.06975800  0.79888000  0.53876500  1
  O  O19  1  0.15082900  0.44776900  0.92509800  1
  O  O20  1  0.58403000  0.80635900  0.63579100  1
  O  O21  1  0.90899000  0.09098200  0.34340400  1
  O  O22  1  0.83309400  0.52444700  0.91568600  1
  O  O23  1  0.65167500  0.35845800  0.07243100  1
  O  O24  1  0.34832500  0.64154200  0.92756900  1
  O  O25  1  0.16690600  0.47555300  0.08431400  1
  O  O26  1  0.09101000  0.90901800  0.65659600  1
  O  O27  1  0.41597000  0.19364100  0.36420900  1
  O  O28  1  0.84917100  0.55223100  0.07490200  1
  O  O29  1  0.93024200  0.20112000  0.46123500  1
  O  O30  1  0.71651200  0.31524800  0.32769300  1
  O  O31  1  0.51321300  0.92877300  0.74205700  1
  O  O32  1  0.64832900  0.70690200  0.94013200  1
  O  O33  1  0.77414000  0.97991700  0.66707100  1
  O  O34  1  0.55037800  0.15053900  0.54608800  1
  O  O35  1  0.98151300  0.42461000  0.26782500  1
  O  O36  1  0.48151300  0.57539000  0.23217500  1
  O  O37  1  0.05037800  0.84946100  0.95391200  1
  O  O38  1  0.27414000  0.02008300  0.83292900  1
  O  O39  1  0.14832900  0.29309800  0.55986800  1
  O  O40  1  0.01321300  0.07122700  0.75794300  1
  O  O41  1  0.21651200  0.68475200  0.17230700  1
  O  O42  1  0.43024200  0.79888000  0.03876500  1
  O  O43  1  0.34917100  0.44776900  0.42509800  1
  O  O44  1  0.59101000  0.09098200  0.84340400  1
  O  O45  1  0.91597000  0.80635900  0.13579100  1
  O  O46  1  0.66690600  0.52444700  0.41568600  1
  O  O47  1  0.84832500  0.35845800  0.57243100  1
loop_
_geom_bond_atom_site_label_1
_geom_bond_atom_site_label_2
_geom_bond_distance
_geom_bond_site_symmetry_2
Na0 O47 2.209765 1_555
Na0 O12 2.256200 1_655
Na0 O40 2.263627 1_655
Na0 O2 2.382126 1_655
Na0 O6 2.492411 1_555
Na1 O7 2.236581 1_445
Na1 O15 2.246773 1_555
Na1 O3 2.271156 1_545
Na1 O14 2.354311 1_555
Na2 O2 2.162202 1_555
Na2 O11 2.250693 1_555
Na2 O17 2.433797 1_555
Na2 O19 2.435085 1_555
Na3 O20 2.162202 1_555
Na3 O12 2.250693 1_655
Na3 O6 2.433797 1_555
Na3 O4 2.435085 1_555
Na4 O16 2.236581 1_565
Na4 O8 2.246773 1_555
Na4 O21 2.271156 1_565
Na4 O9 2.354311 1_555
Na5 O24 2.209765 1_555
Na5 O11 2.256200 1_555
Na5 O31 2.263627 1_555
Na5 O20 2.382126 1_555
Na5 O17 2.492411 1_555
Na6 O23 2.209765 1_555
Na6 O36 2.256200 1_555
Na6 O16 2.263627 1_555
Na6 O27 2.382126 1_555
Na6 O30 2.492411 1_555
Na7 O31 2.236581 1_545
Na7 O39 2.246773 1_555
Na7 O26 2.271156 1_545
Na7 O38 2.354311 1_555
Na8 O27 2.162202 1_555
Na8 O35 2.250693 1_455
Na8 O41 2.433797 1_555
Na8 O43 2.435085 1_555
Na9 O45 2.162202 1_555
Na9 O36 2.250693 1_555
Na9 O30 2.433797 1_555
Na9 O28 2.435085 1_555
Na10 O40 2.236581 1_665
Na10 O32 2.246773 1_555
Na10 O44 2.271156 1_565
Na10 O33 2.354311 1_555
Na11 O0 2.209765 1_555
Na11 O35 2.256200 1_455
Na11 O7 2.263627 1_455
Na11 O45 2.382126 1_455
Na11 O41 2.492411 1_555
Fe0 O13 1.928928 1_555
Fe0 O1 1.969134 1_555
Fe0 O4 1.990249 1_555
Fe0 O17 2.131544 1_555
Fe0 O20 2.163225 1_555
Fe0 O11 2.213453 1_555
Fe1 O10 1.928928 1_556
Fe1 O22 1.969134 1_555
Fe1 O19 1.990249 1_655
Fe1 O6 2.131544 1_555
Fe1 O2 2.163225 1_655
Fe1 O12 2.213453 1_655
Fe2 O5 1.922626 1_554
Fe2 O23 2.028092 1_555
Fe2 O9 2.033522 1_545
Fe2 O3 2.042008 1_545
Fe2 O15 2.055112 1_555
Fe2 O16 2.155027 1_555
Fe3 O18 1.922626 1_555
Fe3 O0 2.028092 1_555
Fe3 O14 2.033522 1_565
Fe3 O21 2.042008 1_465
Fe3 O8 2.055112 1_455
Fe3 O7 2.155027 1_455
Fe4 O29 1.922626 1_555
Fe4 O47 2.028092 1_555
Fe4 O33 2.033522 1_545
Fe4 O26 2.042008 1_645
Fe4 O39 2.055112 1_655
Fe4 O40 2.155027 1_655
Fe5 O42 1.922626 1_556
Fe5 O24 2.028092 1_555
Fe5 O38 2.033522 1_565
Fe5 O44 2.042008 1_565
Fe5 O32 2.055112 1_555
Fe5 O31 2.155027 1_555
Fe6 O37 1.928928 1_554
Fe6 O25 1.969134 1_555
Fe6 O28 1.990249 1_455
Fe6 O41 2.131544 1_555
Fe6 O45 2.163225 1_455
Fe6 O35 2.213453 1_455
Fe7 O34 1.928928 1_555
Fe7 O46 1.969134 1_555
Fe7 O43 1.990249 1_555
Fe7 O30 2.131544 1_555
Fe7 O27 2.163225 1_555
Fe7 O36 2.213453 1_555
O0 P11 1.545730 1_555
O1 P11 1.547880 1_555
O2 P9 1.555935 1_555
O3 P10 1.543691 1_555
O4 P0 1.553469 1_555
O5 P1 1.536773 1_555
O6 P1 1.565521 1_555
O7 P2 1.560436 1_555
O8 P0 1.552258 1_555
O9 P2 1.555235 1_555
O10 P2 1.531261 1_545
O11 P1 1.567346 1_555
O12 P4 1.567346 1_555
O13 P3 1.531261 1_565
O14 P3 1.555235 1_555
O15 P5 1.552258 1_554
O16 P3 1.560436 1_555
O17 P4 1.565521 1_555
O18 P4 1.536773 1_555
O19 P5 1.553469 1_555
O20 P8 1.555935 1_555
O21 P7 1.543691 1_555
O22 P6 1.547880 1_556
O23 P6 1.545730 1_555
O24 P5 1.545730 1_555
O25 P5 1.547880 1_554
O26 P4 1.543691 1_555
O27 P3 1.555935 1_555
O28 P6 1.553469 1_555
O29 P7 1.536773 1_555
O30 P7 1.565521 1_555
O31 P8 1.560436 1_555
O32 P6 1.552258 1_556
O33 P8 1.555235 1_555
O34 P8 1.531261 1_545
O35 P7 1.567346 1_555
O36 P10 1.567346 1_555
O37 P9 1.531261 1_565
O38 P9 1.555235 1_555
O39 P11 1.552258 1_555
O40 P9 1.560436 1_555
O41 P10 1.565521 1_555
O42 P10 1.536773 1_555
O43 P11 1.553469 1_555
O44 P1 1.543691 1_555
O45 P2 1.555935 1_555
O46 P0 1.547880 1_555
O47 P0 1.545730 1_555
