# generated using pymatgen
data_Li3Cu3(PO4)2
_symmetry_space_group_name_H-M   'P 1'
_cell_length_a   5.43902100
_cell_length_b   6.22688240
_cell_length_c   10.17685344
_cell_angle_alpha   89.98918266
_cell_angle_beta   89.68960481
_cell_angle_gamma   89.53917258
_symmetry_Int_Tables_number   1
_chemical_formula_structural   Li3Cu3(PO4)2
_chemical_formula_sum   'Li6 Cu6 P4 O16'
_cell_volume   344.65493017
_cell_formula_units_Z   2
loop_
 _symmetry_equiv_pos_site_id
 _symmetry_equiv_pos_as_xyz
  1  'x, y, z'
loop_
 _atom_site_type_symbol
 _atom_site_label
 _atom_site_symmetry_multiplicity
 _atom_site_fract_x
 _atom_site_fract_y
 _atom_site_fract_z
 _atom_site_occupancy
  Li  Li0  1  0.15484100  0.99974500  0.25374800  1
  Li  Li1  1  0.15560100  0.99859700  0.75265000  1
  Li  Li2  1  0.32985100  0.24495600  0.50451600  1
  Li  Li3  1  0.32671200  0.24957700  0.00209500  1
  Li  Li4  1  0.67148100  0.25254900  0.75370100  1
  Li  Li5  1  0.84612100  0.50057000  0.50485100  1
  Cu  Cu0  1  0.66163400  0.26167800  0.24974000  1
  Cu  Cu1  1  0.82147100  0.50274600  0.00435300  1
  Cu  Cu2  1  0.66209000  0.73803600  0.25292400  1
  Cu  Cu3  1  0.66203200  0.74241800  0.75517500  1
  Cu  Cu4  1  0.33577300  0.75815200  0.50419700  1
  Cu  Cu5  1  0.33162400  0.75130800  0.00034900  1
  P  P0  1  0.83273400  0.00772900  0.99744100  1
  P  P1  1  0.83054500  0.00601000  0.50319900  1
  P  P2  1  0.17495100  0.49040600  0.74815000  1
  P  P3  1  0.17726400  0.49523100  0.25377100  1
  O  O0  1  0.84143000  0.00447500  0.34994800  1
  O  O1  1  0.09804800  0.01227400  0.55844500  1
  O  O2  1  0.83509200  0.00891600  0.84442400  1
  O  O3  1  0.09633700  0.01493100  0.05393800  1
  O  O4  1  0.68435300  0.20451800  0.55486100  1
  O  O5  1  0.67711000  0.20535600  0.04581900  1
  O  O6  1  0.31620400  0.29259000  0.80289600  1
  O  O7  1  0.30582700  0.29014900  0.31027300  1
  O  O8  1  0.18070900  0.48632500  0.10112800  1
  O  O9  1  0.91154600  0.49946800  0.31157000  1
  O  O10  1  0.17674900  0.48787500  0.59465000  1
  O  O11  1  0.90179200  0.48437300  0.79565900  1
  O  O12  1  0.30214900  0.70890700  0.29853500  1
  O  O13  1  0.29386500  0.70539700  0.79627200  1
  O  O14  1  0.70467900  0.79248300  0.54940000  1
  O  O15  1  0.69938500  0.80225600  0.04873100  1
loop_
_geom_bond_atom_site_label_1
_geom_bond_atom_site_label_2
_geom_bond_distance
_geom_bond_site_symmetry_2
Li0 O0 1.961195 1_465
Li0 O12 2.027255 1_555
Li0 O3 2.061921 1_565
Li0 O7 2.074776 1_565
Li1 O2 1.973816 1_465
Li1 O1 2.004394 1_565
Li1 O13 2.019183 1_555
Li1 O6 2.099226 1_565
Li2 O10 1.948041 1_555
Li2 O7 2.001483 1_555
Li2 O1 2.002906 1_555
Li2 O4 2.011590 1_555
Li3 O8 1.947484 1_555
Li3 O5 1.976533 1_555
Li3 O3 2.001313 1_555
Li3 O6 2.045831 1_554
Li4 O11 1.967340 1_555
Li4 O2 1.983053 1_555
Li4 O6 2.007148 1_555
Li4 O4 2.046345 1_555
Li5 O9 1.997027 1_555
Li5 O14 2.018781 1_555
Li5 O10 2.022562 1_655
Li5 O4 2.110091 1_555
Cu0 O7 2.034133 1_555
Cu0 O5 2.105885 1_555
Cu0 O9 2.116130 1_555
Cu0 O0 2.132216 1_555
Cu1 O15 2.024926 1_555
Cu1 O5 2.059928 1_555
Cu1 O11 2.168850 1_554
Cu1 O8 2.194482 1_655
Cu2 O12 2.019130 1_555
Cu2 O9 2.092830 1_555
Cu2 O15 2.125028 1_555
Cu2 O0 2.171653 1_565
Cu3 O13 2.058217 1_555
Cu3 O11 2.103340 1_555
Cu3 O2 2.121250 1_565
Cu3 O14 2.128867 1_555
Cu4 O14 2.073705 1_555
Cu4 O1 2.107189 1_565
Cu4 O10 2.107633 1_555
Cu4 O12 2.124472 1_555
Cu5 O15 2.089272 1_555
Cu5 O13 2.107855 1_554
Cu5 O8 2.111925 1_555
Cu5 O3 2.142150 1_565
O0 P1 1.560444 1_555
O1 P1 1.563426 1_455
O2 P0 1.557232 1_555
O3 P0 1.548607 1_454
O4 P1 1.554504 1_555
O5 P0 1.565948 1_554
O6 P2 1.551480 1_555
O7 P3 1.562082 1_555
O8 P3 1.554432 1_555
O9 P3 1.557436 1_655
O10 P2 1.562206 1_555
O11 P2 1.560654 1_655
O12 P3 1.567597 1_555
O13 P2 1.570969 1_555
O14 P1 1.571148 1_565
O15 P0 1.563994 1_564
