# generated using pymatgen
data_SrO
_symmetry_space_group_name_H-M   'P 1'
_cell_length_a   3.55329251
_cell_length_b   3.55328367
_cell_length_c   6.21730398
_cell_angle_alpha   90.00000000
_cell_angle_beta   90.00000000
_cell_angle_gamma   119.99993003
_symmetry_Int_Tables_number   1
_chemical_formula_structural   SrO
_chemical_formula_sum   'Sr2 O2'
_cell_volume   67.98199105
_cell_formula_units_Z   2
loop_
 _symmetry_equiv_pos_site_id
 _symmetry_equiv_pos_as_xyz
  1  'x, y, z'
loop_
 _atom_site_type_symbol
 _atom_site_label
 _atom_site_symmetry_multiplicity
 _atom_site_fract_x
 _atom_site_fract_y
 _atom_site_fract_z
 _atom_site_occupancy
  Sr  Sr0  1  0.33332572  0.66669022  0.25000000  1
  Sr  Sr1  1  0.66667428  0.33336550  0.75000000  1
  O  O0  1  -0.00000000  0.00002164  -0.00000000  1
  O  O1  1  -0.00000000  0.00002164  0.50000000  1
loop_
_geom_bond_atom_site_label_1
_geom_bond_atom_site_label_2
_geom_bond_distance
_geom_bond_site_symmetry_2
O0 Sr1 2.573793 1_444
O0 Sr0 2.573796 1_545
O0 Sr0 2.573824 1_555
O0 Sr1 2.573826 1_454
O0 Sr0 2.573842 1_445
O0 Sr1 2.573842 1_554
O1 Sr1 2.573793 1_445
O1 Sr0 2.573796 1_545
O1 Sr0 2.573824 1_555
O1 Sr1 2.573826 1_455
O1 Sr0 2.573842 1_445
O1 Sr1 2.573842 1_555
