# generated using pymatgen
data_P2Pt
_symmetry_space_group_name_H-M   'P 1'
_cell_length_a   5.72261378
_cell_length_b   5.72261378
_cell_length_c   5.72261378
_cell_angle_alpha   90.00000000
_cell_angle_beta   90.00000000
_cell_angle_gamma   90.00000000
_symmetry_Int_Tables_number   1
_chemical_formula_structural   P2Pt
_chemical_formula_sum   'P8 Pt4'
_cell_volume   187.40592135
_cell_formula_units_Z   4
loop_
 _symmetry_equiv_pos_site_id
 _symmetry_equiv_pos_as_xyz
  1  'x, y, z'
loop_
 _atom_site_type_symbol
 _atom_site_label
 _atom_site_symmetry_multiplicity
 _atom_site_fract_x
 _atom_site_fract_y
 _atom_site_fract_z
 _atom_site_occupancy
  P  P0  1  0.39023907  0.39023907  0.39023907  1
  P  P1  1  0.10976093  0.60976093  0.89023907  1
  P  P2  1  0.89023907  0.10976093  0.60976093  1
  P  P3  1  0.60976093  0.89023907  0.10976093  1
  P  P4  1  0.60976093  0.60976093  0.60976093  1
  P  P5  1  0.89023907  0.39023907  0.10976093  1
  P  P6  1  0.10976093  0.89023907  0.39023907  1
  P  P7  1  0.39023907  0.10976093  0.89023907  1
  Pt  Pt0  1  0.00000000  0.00000000  0.00000000  1
  Pt  Pt1  1  0.50000000  0.00000000  0.50000000  1
  Pt  Pt2  1  0.50000000  0.50000000  0.00000000  1
  Pt  Pt3  1  -0.00000000  0.50000000  0.50000000  1
loop_
_geom_bond_atom_site_label_1
_geom_bond_atom_site_label_2
_geom_bond_distance
_geom_bond_site_symmetry_2
P0 P4 2.175869 1_555
P0 Pt1 2.403371 1_555
P0 Pt2 2.403371 1_555
P0 Pt3 2.403371 1_555
P1 P5 2.175869 1_456
P1 Pt2 2.403371 1_556
P1 Pt3 2.403371 1_555
P1 Pt0 2.403371 1_566
P2 P6 2.175869 1_645
P2 Pt1 2.403371 1_555
P2 Pt3 2.403371 1_655
P2 Pt0 2.403371 1_656
P3 P7 2.175869 1_564
P3 Pt2 2.403371 1_555
P3 Pt0 2.403371 1_665
P3 Pt1 2.403371 1_565
P4 Pt2 2.403371 1_556
P4 Pt3 2.403371 1_655
P4 Pt1 2.403371 1_565
P5 Pt3 2.403371 1_655
P5 Pt2 2.403371 1_555
P5 Pt0 2.403371 1_655
P6 Pt0 2.403371 1_565
P6 Pt3 2.403371 1_555
P6 Pt1 2.403371 1_565
P7 Pt2 2.403371 1_556
P7 Pt1 2.403371 1_555
P7 Pt0 2.403371 1_556
