# generated using pymatgen
data_VFe(PO4)2
_symmetry_space_group_name_H-M   'P 1'
_cell_length_a   8.49849453
_cell_length_b   8.49849453
_cell_length_c   8.49849522
_cell_angle_alpha   61.12677982
_cell_angle_beta   61.12677982
_cell_angle_gamma   61.12678360
_symmetry_Int_Tables_number   1
_chemical_formula_structural   VFe(PO4)2
_chemical_formula_sum   'V3 Fe3 P6 O24'
_cell_volume   445.02752331
_cell_formula_units_Z   3
loop_
 _symmetry_equiv_pos_site_id
 _symmetry_equiv_pos_as_xyz
  1  'x, y, z'
loop_
 _atom_site_type_symbol
 _atom_site_label
 _atom_site_symmetry_multiplicity
 _atom_site_fract_x
 _atom_site_fract_y
 _atom_site_fract_z
 _atom_site_occupancy
  V  V0  1  0.00133700  0.00133700  0.00133700  1
  V  V1  1  0.85543100  0.85543100  0.85543100  1
  V  V2  1  0.50078100  0.50078100  0.50078100  1
  Fe  Fe0  1  0.35440100  0.35440100  0.35440100  1
  Fe  Fe1  1  0.14614400  0.14614400  0.14614400  1
  Fe  Fe2  1  0.64557000  0.64557000  0.64557000  1
  P  P0  1  0.74872400  0.04517000  0.45488300  1
  P  P1  1  0.04517000  0.45488300  0.74872400  1
  P  P2  1  0.45488300  0.74872400  0.04517000  1
  P  P3  1  0.54606800  0.24897400  0.95357000  1
  P  P4  1  0.95357000  0.54606800  0.24897400  1
  P  P5  1  0.24897400  0.95357000  0.54606800  1
  O  O0  1  0.89384200  0.49969100  0.67300800  1
  O  O1  1  0.49969100  0.67300800  0.89384200  1
  O  O2  1  0.67300800  0.89384200  0.49969100  1
  O  O3  1  0.90630900  0.06050600  0.25691400  1
  O  O4  1  0.82332500  0.99609600  0.61297500  1
  O  O5  1  0.59305000  0.24532600  0.44443000  1
  O  O6  1  0.06050600  0.25691400  0.90630900  1
  O  O7  1  0.24532600  0.44443000  0.59305000  1
  O  O8  1  0.39277300  0.17600900  0.99731900  1
  O  O9  1  0.44443000  0.59305000  0.24532600  1
  O  O10  1  0.74785600  0.09004800  0.93356800  1
  O  O11  1  0.99731900  0.39277300  0.17600900  1
  O  O12  1  0.99609600  0.61297500  0.82332500  1
  O  O13  1  0.25691400  0.90630900  0.06050600  1
  O  O14  1  0.56337000  0.40600600  0.75341200  1
  O  O15  1  0.61297500  0.82332500  0.99609600  1
  O  O16  1  0.75341200  0.56337000  0.40600600  1
  O  O17  1  0.93356800  0.74785600  0.09004800  1
  O  O18  1  0.40600600  0.75341200  0.56337000  1
  O  O19  1  0.17600900  0.99731900  0.39277300  1
  O  O20  1  0.09004800  0.93356800  0.74785600  1
  O  O21  1  0.31558700  0.10995000  0.50757900  1
  O  O22  1  0.50757900  0.31558700  0.10995000  1
  O  O23  1  0.10995000  0.50757900  0.31558700  1
loop_
_geom_bond_atom_site_label_1
_geom_bond_atom_site_label_2
_geom_bond_distance
_geom_bond_site_symmetry_2
Fe0 O21 1.937689 1_555
Fe0 O23 1.937689 1_555
Fe0 O22 1.937689 1_555
Fe0 O9 2.134506 1_555
Fe0 O5 2.134506 1_555
Fe0 O7 2.134506 1_555
Fe1 O8 1.923745 1_554
Fe1 O11 1.923745 1_455
Fe1 O19 1.923745 1_545
Fe1 O3 2.118537 1_455
Fe1 O13 2.118537 1_545
Fe1 O6 2.118538 1_554
Fe2 O2 1.926904 1_555
Fe2 O0 1.926904 1_555
Fe2 O1 1.926904 1_555
Fe2 O14 2.103857 1_555
Fe2 O18 2.103857 1_555
Fe2 O16 2.103857 1_555
O0 P1 1.517437 1_655
O1 P2 1.517437 1_556
O2 P0 1.517437 1_565
O3 P0 1.556258 1_555
O3 V0 2.142733 1_655
O4 P0 1.551492 1_565
O4 V1 1.896929 1_555
O5 P0 1.563937 1_555
O5 V2 2.134185 1_555
O6 P1 1.556258 1_555
O6 V0 2.142733 1_556
O7 P1 1.563937 1_555
O7 V2 2.134184 1_555
O8 P3 1.519774 1_555
O9 P2 1.563937 1_555
O9 V2 2.134185 1_555
O10 P3 1.580289 1_555
O10 V1 2.045564 1_545
O10 V0 2.179701 1_656
O11 P4 1.519774 1_555
O12 P1 1.551492 1_655
O12 V1 1.896929 1_555
O13 P2 1.556258 1_555
O13 V0 2.142733 1_565
O14 P3 1.565811 1_555
O14 V2 2.135487 1_555
O15 P2 1.551492 1_556
O15 V1 1.896929 1_555
O16 P4 1.565810 1_555
O16 V2 2.135487 1_555
O17 P4 1.580289 1_555
O17 V1 2.045564 1_554
O17 V0 2.179701 1_665
O18 P5 1.565811 1_555
O18 V2 2.135487 1_555
O19 P5 1.519774 1_555
O20 P5 1.580289 1_555
O20 V1 2.045564 1_455
O20 V0 2.179701 1_566
O21 P5 1.523691 1_545
O22 P3 1.523691 1_554
O23 P4 1.523691 1_455
