# generated using pymatgen
data_Ce2Nd2O7
_symmetry_space_group_name_H-M   'P 1'
_cell_length_a   7.85175188
_cell_length_b   7.85175188
_cell_length_c   7.85175188
_cell_angle_alpha   60.00000000
_cell_angle_beta   60.00000000
_cell_angle_gamma   60.00000000
_symmetry_Int_Tables_number   1
_chemical_formula_structural   Ce2Nd2O7
_chemical_formula_sum   'Ce4 Nd4 O14'
_cell_volume   342.28250684
_cell_formula_units_Z   2
loop_
 _symmetry_equiv_pos_site_id
 _symmetry_equiv_pos_as_xyz
  1  'x, y, z'
loop_
 _atom_site_type_symbol
 _atom_site_label
 _atom_site_symmetry_multiplicity
 _atom_site_fract_x
 _atom_site_fract_y
 _atom_site_fract_z
 _atom_site_occupancy
  Ce  Ce0  1  0.12500000  0.12500000  0.12500000  1
  Ce  Ce1  1  0.62500000  0.12500000  0.12500000  1
  Ce  Ce2  1  0.12500000  0.62500000  0.12500000  1
  Ce  Ce3  1  0.12500000  0.12500000  0.62500000  1
  Nd  Nd0  1  0.62500000  0.62500000  0.12500000  1
  Nd  Nd1  1  0.62500000  0.62500000  0.62500000  1
  Nd  Nd2  1  0.62500000  0.12500000  0.62500000  1
  Nd  Nd3  1  0.12500000  0.62500000  0.62500000  1
  O  O0  1  0.02735700  0.47264300  0.47264300  1
  O  O1  1  0.77735700  0.77735700  0.22264300  1
  O  O2  1  0.77735700  0.22264300  0.22264300  1
  O  O3  1  0.47264300  0.02735700  0.47264300  1
  O  O4  1  0.02735700  0.47264300  0.02735700  1
  O  O5  1  0.02735700  0.02735700  0.47264300  1
  O  O6  1  0.75000000  0.75000000  0.75000000  1
  O  O7  1  0.22264300  0.77735700  0.22264300  1
  O  O8  1  0.22264300  0.22264300  0.77735700  1
  O  O9  1  0.50000000  0.50000000  0.50000000  1
  O  O10  1  0.77735700  0.22264300  0.77735700  1
  O  O11  1  0.47264300  0.02735700  0.02735700  1
  O  O12  1  0.47264300  0.47264300  0.02735700  1
  O  O13  1  0.22264300  0.77735700  0.77735700  1
loop_
_geom_bond_atom_site_label_1
_geom_bond_atom_site_label_2
_geom_bond_distance
_geom_bond_site_symmetry_2
Ce0 O5 2.242473 1_555
Ce0 O11 2.242473 1_555
Ce0 O4 2.242473 1_555
Ce0 O7 2.242473 1_545
Ce0 O8 2.242473 1_554
Ce0 O2 2.242473 1_455
Ce1 O2 2.242473 1_555
Ce1 O3 2.242473 1_555
Ce1 O12 2.242473 1_555
Ce1 O1 2.242473 1_545
Ce1 O10 2.242473 1_554
Ce1 O11 2.242473 1_555
Ce2 O7 2.242473 1_555
Ce2 O0 2.242473 1_555
Ce2 O12 2.242473 1_555
Ce2 O1 2.242473 1_455
Ce2 O4 2.242473 1_555
Ce2 O13 2.242473 1_554
Ce3 O8 2.242473 1_555
Ce3 O5 2.242473 1_555
Ce3 O3 2.242473 1_555
Ce3 O0 2.242473 1_555
Ce3 O13 2.242473 1_545
Ce3 O10 2.242473 1_455
Nd0 O6 2.404098 1_554
Nd0 O9 2.404098 1_555
Nd0 O1 2.591379 1_555
Nd0 O12 2.591379 1_555
Nd0 O4 2.591379 1_655
Nd0 O11 2.591379 1_565
Nd0 O7 2.591379 1_555
Nd0 O2 2.591379 1_555
Nd1 O6 2.404098 1_555
Nd1 O9 2.404098 1_555
Nd1 O12 2.591379 1_556
Nd1 O3 2.591379 1_565
Nd1 O0 2.591379 1_655
Nd1 O1 2.591379 1_555
Nd1 O13 2.591379 1_555
Nd1 O10 2.591379 1_555
Nd2 O9 2.404098 1_555
Nd2 O6 2.404098 1_545
Nd2 O10 2.591379 1_555
Nd2 O3 2.591379 1_555
Nd2 O11 2.591379 1_556
Nd2 O5 2.591379 1_655
Nd2 O2 2.591379 1_555
Nd2 O8 2.591379 1_555
Nd3 O6 2.404098 1_455
Nd3 O9 2.404098 1_555
Nd3 O13 2.591379 1_555
Nd3 O0 2.591379 1_555
Nd3 O4 2.591379 1_556
Nd3 O5 2.591379 1_565
Nd3 O7 2.591379 1_555
Nd3 O8 2.591379 1_555
