# generated using pymatgen
data_LiCuS
_symmetry_space_group_name_H-M   'P 1'
_cell_length_a   4.91038000
_cell_length_b   12.76607700
_cell_length_c   21.81819000
_cell_angle_alpha   90.00000000
_cell_angle_beta   90.00000000
_cell_angle_gamma   90.00000000
_symmetry_Int_Tables_number   1
_chemical_formula_structural   LiCuS
_chemical_formula_sum   'Li24 Cu24 S24'
_cell_volume   1367.70136771
_cell_formula_units_Z   24
loop_
 _symmetry_equiv_pos_site_id
 _symmetry_equiv_pos_as_xyz
  1  'x, y, z'
loop_
 _atom_site_type_symbol
 _atom_site_label
 _atom_site_symmetry_multiplicity
 _atom_site_fract_x
 _atom_site_fract_y
 _atom_site_fract_z
 _atom_site_occupancy
  Li  Li0  1  0.11587500  0.08894100  0.86382200  1
  Li  Li1  1  0.88412500  0.08894100  0.36382200  1
  Li  Li2  1  0.46931400  0.07552800  0.19840700  1
  Li  Li3  1  0.53068600  0.07552800  0.69840700  1
  Li  Li4  1  0.16768900  0.08119200  0.53750100  1
  Li  Li5  1  0.83231100  0.08119200  0.03750100  1
  Li  Li6  1  0.33231100  0.41880800  0.03750100  1
  Li  Li7  1  0.66768900  0.41880800  0.53750100  1
  Li  Li8  1  0.96931400  0.42447200  0.19840700  1
  Li  Li9  1  0.03068600  0.42447200  0.69840700  1
  Li  Li10  1  0.38412500  0.41105900  0.36382200  1
  Li  Li11  1  0.61587500  0.41105900  0.86382200  1
  Li  Li12  1  0.61587500  0.58894100  0.63617800  1
  Li  Li13  1  0.38412500  0.58894100  0.13617800  1
  Li  Li14  1  0.03068600  0.57552800  0.80159300  1
  Li  Li15  1  0.96931400  0.57552800  0.30159300  1
  Li  Li16  1  0.33231100  0.58119200  0.46249900  1
  Li  Li17  1  0.66768900  0.58119200  0.96249900  1
  Li  Li18  1  0.83231100  0.91880800  0.46249900  1
  Li  Li19  1  0.16768900  0.91880800  0.96249900  1
  Li  Li20  1  0.46931400  0.92447200  0.30159300  1
  Li  Li21  1  0.53068600  0.92447200  0.80159300  1
  Li  Li22  1  0.11587500  0.91105900  0.63617800  1
  Li  Li23  1  0.88412500  0.91105900  0.13617800  1
  Cu  Cu0  1  0.19290100  0.24720100  0.14610900  1
  Cu  Cu1  1  0.80709900  0.24720100  0.64610900  1
  Cu  Cu2  1  0.82893600  0.24771200  0.79320100  1
  Cu  Cu3  1  0.17106400  0.24771200  0.29320100  1
  Cu  Cu4  1  0.48696100  0.24473500  0.47055900  1
  Cu  Cu5  1  0.51303900  0.24473500  0.97055900  1
  Cu  Cu6  1  0.98696100  0.25526500  0.47055900  1
  Cu  Cu7  1  0.01303900  0.25526500  0.97055900  1
  Cu  Cu8  1  0.67106400  0.25228800  0.29320100  1
  Cu  Cu9  1  0.32893600  0.25228800  0.79320100  1
  Cu  Cu10  1  0.69290100  0.25279900  0.14610900  1
  Cu  Cu11  1  0.30709900  0.25279900  0.64610900  1
  Cu  Cu12  1  0.69290100  0.74720100  0.35389100  1
  Cu  Cu13  1  0.30709900  0.74720100  0.85389100  1
  Cu  Cu14  1  0.32893600  0.74771200  0.70679900  1
  Cu  Cu15  1  0.67106400  0.74771200  0.20679900  1
  Cu  Cu16  1  0.98696100  0.74473500  0.02944100  1
  Cu  Cu17  1  0.01303900  0.74473500  0.52944100  1
  Cu  Cu18  1  0.51303900  0.75526500  0.52944100  1
  Cu  Cu19  1  0.48696100  0.75526500  0.02944100  1
  Cu  Cu20  1  0.82893600  0.75228800  0.70679900  1
  Cu  Cu21  1  0.17106400  0.75228800  0.20679900  1
  Cu  Cu22  1  0.19290100  0.75279900  0.35389100  1
  Cu  Cu23  1  0.80709900  0.75279900  0.85389100  1
  S  S0  1  0.93183500  0.10974000  0.14616100  1
  S  S1  1  0.06816500  0.10974000  0.64616100  1
  S  S2  1  0.42760500  0.11254400  0.30644000  1
  S  S3  1  0.57239500  0.11254400  0.80644000  1
  S  S4  1  0.24450100  0.11058600  0.97278300  1
  S  S5  1  0.75549900  0.11058600  0.47278300  1
  S  S6  1  0.74450100  0.38941400  0.97278300  1
  S  S7  1  0.25549900  0.38941400  0.47278300  1
  S  S8  1  0.92760500  0.38745600  0.30644000  1
  S  S9  1  0.07239500  0.38745600  0.80644000  1
  S  S10  1  0.43183500  0.39026000  0.14616100  1
  S  S11  1  0.56816500  0.39026000  0.64616100  1
  S  S12  1  0.56816500  0.60974000  0.85383900  1
  S  S13  1  0.43183500  0.60974000  0.35383900  1
  S  S14  1  0.92760500  0.61254400  0.19356000  1
  S  S15  1  0.07239500  0.61254400  0.69356000  1
  S  S16  1  0.25549900  0.61058600  0.02721700  1
  S  S17  1  0.74450100  0.61058600  0.52721700  1
  S  S18  1  0.24450100  0.88941400  0.52721700  1
  S  S19  1  0.75549900  0.88941400  0.02721700  1
  S  S20  1  0.57239500  0.88745600  0.69356000  1
  S  S21  1  0.42760500  0.88745600  0.19356000  1
  S  S22  1  0.93183500  0.89026000  0.35383900  1
  S  S23  1  0.06816500  0.89026000  0.85383900  1
loop_
_geom_bond_atom_site_label_1
_geom_bond_atom_site_label_2
_geom_bond_distance
_geom_bond_site_symmetry_2
Li0 S4 2.475274 1_555
Li0 S23 2.556469 1_545
Li0 S3 2.585224 1_555
Li0 S3 2.963132 1_455
Li1 S5 2.475274 1_555
Li1 S22 2.556469 1_545
Li1 S2 2.585224 1_555
Li1 S2 2.963132 1_655
Li2 S21 2.411981 1_545
Li2 S2 2.412695 1_555
Li2 S0 2.578429 1_555
Li2 S0 2.907863 1_455
Li3 S20 2.411981 1_545
Li3 S3 2.412695 1_555
Li3 S1 2.578429 1_555
Li3 S1 2.907863 1_655
Li4 S1 2.447892 1_555
Li4 S18 2.487277 1_545
Li4 S5 2.496248 1_455
Li5 S0 2.447892 1_555
Li5 S19 2.487277 1_545
Li5 S4 2.496248 1_654
Li6 S10 2.447892 1_555
Li6 S16 2.487277 1_555
Li6 S6 2.496248 1_554
Li7 S11 2.447892 1_555
Li7 S17 2.487277 1_555
Li7 S7 2.496248 1_555
Li8 S14 2.411981 1_555
Li8 S8 2.412695 1_555
Li8 S10 2.578429 1_655
Li8 S10 2.907863 1_555
Li9 S15 2.411981 1_555
Li9 S9 2.412695 1_555
Li9 S11 2.578429 1_455
Li9 S11 2.907863 1_555
Li10 S7 2.475274 1_555
Li10 S13 2.556469 1_555
Li10 S8 2.585224 1_455
Li10 S8 2.963132 1_555
Li11 S6 2.475274 1_555
Li11 S12 2.556469 1_555
Li11 S9 2.585224 1_655
Li11 S9 2.963132 1_555
Li12 S17 2.475274 1_555
Li12 S11 2.556469 1_555
Li12 S15 2.585224 1_655
Li12 S15 2.963132 1_555
Li13 S16 2.475274 1_555
Li13 S10 2.556469 1_555
Li13 S14 2.585224 1_455
Li13 S14 2.963132 1_555
Li14 S9 2.411981 1_555
Li14 S15 2.412695 1_555
Li14 S12 2.578429 1_455
Li14 S12 2.907863 1_555
Li15 S8 2.411981 1_555
Li15 S14 2.412695 1_555
Li15 S13 2.578429 1_655
Li15 S13 2.907863 1_555
Li16 S13 2.447892 1_555
Li16 S7 2.487277 1_555
Li16 S17 2.496248 1_555
Li17 S12 2.447892 1_555
Li17 S6 2.487277 1_555
Li17 S16 2.496248 1_556
Li18 S22 2.447892 1_555
Li18 S5 2.487277 1_565
Li18 S18 2.496248 1_655
Li19 S23 2.447892 1_555
Li19 S4 2.487277 1_565
Li19 S19 2.496248 1_456
Li20 S2 2.411981 1_565
Li20 S21 2.412695 1_555
Li20 S22 2.578429 1_555
Li20 S22 2.907863 1_455
Li21 S3 2.411981 1_565
Li21 S20 2.412695 1_555
Li21 S23 2.578429 1_555
Li21 S23 2.907863 1_655
Li22 S18 2.475274 1_555
Li22 S1 2.556469 1_565
Li22 S20 2.585224 1_555
Li22 S20 2.963132 1_455
Li23 S19 2.475274 1_555
Li23 S0 2.556469 1_565
Li23 S21 2.585224 1_555
Li23 S21 2.963132 1_655
Cu0 S10 2.170694 1_555
Cu0 S0 2.173203 1_455
Cu0 Li8 2.762026 1_455
Cu0 Li2 2.819096 1_555
Cu1 S11 2.170694 1_555
Cu1 S1 2.173203 1_655
Cu1 Li9 2.762026 1_655
Cu1 Li3 2.819096 1_555
Cu2 S3 2.155896 1_555
Cu2 S9 2.166839 1_655
Cu3 S2 2.155896 1_555
Cu3 S8 2.166839 1_455
Cu4 S5 2.161937 1_555
Cu4 S7 2.169213 1_555
Cu5 S4 2.161937 1_555
Cu5 S6 2.169213 1_555
Cu6 S7 2.161937 1_655
Cu6 S5 2.169213 1_555
Cu7 S6 2.161937 1_455
Cu7 S4 2.169213 1_555
Cu8 S8 2.155896 1_555
Cu8 S2 2.166839 1_555
Cu9 S9 2.155896 1_555
Cu9 S3 2.166839 1_555
Cu10 S0 2.170694 1_555
Cu10 S10 2.173203 1_555
Cu10 Li2 2.762026 1_555
Cu10 Li8 2.819096 1_555
Cu11 S1 2.170694 1_555
Cu11 S11 2.173203 1_555
Cu11 Li3 2.762026 1_555
Cu11 Li9 2.819096 1_555
Cu12 S22 2.170694 1_555
Cu12 S13 2.173203 1_555
Cu12 Li20 2.762026 1_555
Cu12 Li15 2.819096 1_555
Cu13 S23 2.170694 1_555
Cu13 S12 2.173203 1_555
Cu13 Li21 2.762026 1_555
Cu13 Li14 2.819096 1_555
Cu14 S15 2.155896 1_555
Cu14 S20 2.166839 1_555
Cu15 S14 2.155896 1_555
Cu15 S21 2.166839 1_555
Cu16 S16 2.161937 1_655
Cu16 S19 2.169213 1_555
Cu17 S17 2.161937 1_455
Cu17 S18 2.169213 1_555
Cu18 S18 2.161937 1_555
Cu18 S17 2.169213 1_555
Cu19 S19 2.161937 1_555
Cu19 S16 2.169213 1_555
Cu20 S20 2.155896 1_555
Cu20 S15 2.166839 1_655
Cu21 S21 2.155896 1_555
Cu21 S14 2.166839 1_455
Cu22 S13 2.170694 1_555
Cu22 S22 2.173203 1_455
Cu22 Li15 2.762026 1_455
Cu22 Li20 2.819096 1_555
Cu23 S12 2.170694 1_555
Cu23 S23 2.173203 1_655
Cu23 Li14 2.762026 1_655
Cu23 Li21 2.819096 1_555
