# generated using pymatgen
data_Li4V3P8O29
_symmetry_space_group_name_H-M   'P 1'
_cell_length_a   9.75166700
_cell_length_b   9.78572065
_cell_length_c   14.07993313
_cell_angle_alpha   90.17160137
_cell_angle_beta   90.08720153
_cell_angle_gamma   119.86104522
_symmetry_Int_Tables_number   1
_chemical_formula_structural   Li4V3P8O29
_chemical_formula_sum   'Li8 V6 P16 O58'
_cell_volume   1165.21141206
_cell_formula_units_Z   2
loop_
 _symmetry_equiv_pos_site_id
 _symmetry_equiv_pos_as_xyz
  1  'x, y, z'
loop_
 _atom_site_type_symbol
 _atom_site_label
 _atom_site_symmetry_multiplicity
 _atom_site_fract_x
 _atom_site_fract_y
 _atom_site_fract_z
 _atom_site_occupancy
  Li  Li0  1  0.31313200  0.08693400  0.94190000  1
  Li  Li1  1  0.91293400  0.22549500  0.93874400  1
  Li  Li2  1  0.77265000  0.67593900  0.93898500  1
  Li  Li3  1  0.09690800  0.33479400  0.56069600  1
  Li  Li4  1  0.89848500  0.66675900  0.44420700  1
  Li  Li5  1  0.23438500  0.90634200  0.56111500  1
  Li  Li6  1  0.68311300  0.90885600  0.05774500  1
  Li  Li7  1  0.96245200  0.00513000  0.50244000  1
  V  V0  1  0.00024600  0.43249900  0.75305200  1
  V  V1  1  0.00190800  0.56644500  0.24373900  1
  V  V2  1  0.43336800  0.43085800  0.25161800  1
  V  V3  1  0.56222200  0.56654100  0.74399800  1
  V  V4  1  0.43509100  0.00081000  0.74798400  1
  V  V5  1  0.56691600  0.00398000  0.25845400  1
  P  P0  1  0.31737600  0.08766800  0.15961500  1
  P  P1  1  0.30619700  0.22468400  0.65723700  1
  P  P2  1  0.77746500  0.08536000  0.65810300  1
  P  P3  1  0.66484500  0.33508500  0.86982000  1
  P  P4  1  0.67052600  0.33956400  0.36999800  1
  P  P5  1  0.90850500  0.22551100  0.15851200  1
  P  P6  1  0.08731700  0.31497900  0.34111900  1
  P  P7  1  0.76752100  0.68101700  0.15646100  1
  P  P8  1  0.23305700  0.31566200  0.84442400  1
  P  P9  1  0.91319700  0.68395300  0.65843300  1
  P  P10  1  0.08782600  0.77154100  0.84040300  1
  P  P11  1  0.32941300  0.66390000  0.62746500  1
  P  P12  1  0.34086100  0.66987600  0.13173500  1
  P  P13  1  0.22165200  0.90956700  0.34172800  1
  P  P14  1  0.69167200  0.77522000  0.34066800  1
  P  P15  1  0.68069400  0.91091900  0.84045800  1
  O  O0  1  0.21628500  0.98370000  0.43296900  1
  O  O1  1  0.33931800  0.08543900  0.65857200  1
  O  O2  1  0.24713700  0.23712900  0.93032700  1
  O  O3  1  0.34301300  0.25676400  0.16903400  1
  O  O4  1  0.47668600  0.09385800  0.18320900  1
  O  O5  1  0.51389800  0.18580200  0.82838400  1
  O  O6  1  0.61793400  0.08057300  0.66751200  1
  O  O7  1  0.75479000  0.99609200  0.93186800  1
  O  O8  1  0.73982300  0.07947100  0.16400300  1
  O  O9  1  0.52058000  0.33353900  0.32405200  1
  O  O10  1  0.46594300  0.38296100  0.66967200  1
  O  O11  1  0.67167000  0.18860400  0.32720700  1
  O  O12  1  0.66432300  0.34306000  0.97568700  1
  O  O13  1  0.67071400  0.34180200  0.47516600  1
  O  O14  1  0.81383500  0.32780100  0.83276200  1
  O  O15  1  0.61724600  0.52255900  0.17619700  1
  O  O16  1  0.66762400  0.48441100  0.82418500  1
  O  O17  1  0.91649800  0.25928700  0.66585800  1
  O  O18  1  0.99739300  0.20560600  0.24972400  1
  O  O19  1  0.01371400  0.23357900  0.43172400  1
  O  O20  1  0.98797500  0.23543900  0.06733100  1
  O  O21  1  0.89970800  0.37873800  0.17854500  1
  O  O22  1  0.81820900  0.49036900  0.32884200  1
  O  O23  1  0.08610600  0.33747500  0.84305100  1
  O  O24  1  0.91051300  0.52821300  0.67088100  1
  O  O25  1  0.74290300  0.65807500  0.66706700  1
  O  O26  1  0.20769700  0.20544400  0.75237100  1
  O  O27  1  0.20820000  0.21777600  0.57397800  1
  O  O28  1  0.79784700  0.79223600  0.42175300  1
  O  O29  1  0.25899400  0.34636500  0.33166700  1
  O  O30  1  0.08621700  0.47096400  0.32489300  1
  O  O31  1  0.91270200  0.65642800  0.16409200  1
  O  O32  1  0.18651600  0.51008100  0.66750800  1
  O  O33  1  0.09647100  0.61908900  0.82168200  1
  O  O34  1  0.99208900  0.76076400  0.92432500  1
  O  O35  1  0.99152000  0.77025100  0.56796400  1
  O  O36  1  0.00966100  0.79849400  0.74505600  1
  O  O37  1  0.08003300  0.73823800  0.33521500  1
  O  O38  1  0.34430600  0.52667400  0.17948000  1
  O  O39  1  0.38347900  0.47607300  0.82140000  1
  O  O40  1  0.18573700  0.66230500  0.17607500  1
  O  O41  1  0.33998400  0.66739600  0.02672700  1
  O  O42  1  0.33539700  0.66068700  0.52195200  1
  O  O43  1  0.32154200  0.81023800  0.66644400  1
  O  O44  1  0.53741700  0.61621900  0.33167900  1
  O  O45  1  0.48213700  0.66983600  0.67542700  1
  O  O46  1  0.25680000  0.91611400  0.83988800  1
  O  O47  1  0.20346600  0.99558200  0.24930800  1
  O  O48  1  0.24898400  0.00808700  0.06838500  1
  O  O49  1  0.38012800  0.90807500  0.32766000  1
  O  O50  1  0.48711100  0.82145200  0.17352700  1
  O  O51  1  0.51987300  0.89928400  0.82070200  1
  O  O52  1  0.66203400  0.74377500  0.83800400  1
  O  O53  1  0.75775800  0.75480000  0.06567900  1
  O  O54  1  0.78889500  0.79802800  0.24252200  1
  O  O55  1  0.65475400  0.91246900  0.33619700  1
  O  O56  1  0.80060200  0.00696100  0.57482700  1
  O  O57  1  0.79695200  0.00552900  0.75504100  1
loop_
_geom_bond_atom_site_label_1
_geom_bond_atom_site_label_2
_geom_bond_distance
_geom_bond_site_symmetry_2
Li0 O2 1.882541 1_555
Li0 O48 1.920739 1_556
Li0 O46 2.056171 1_545
Li0 O5 2.335847 1_555
Li1 O20 1.935682 1_556
Li1 O7 1.994476 1_545
Li1 O23 2.010211 1_655
Li1 O14 2.265140 1_555
Li2 O34 1.882644 1_555
Li2 O53 1.975567 1_556
Li2 O52 2.083219 1_555
Li2 O16 2.289042 1_555
Li3 O27 1.939660 1_555
Li3 O19 2.030104 1_555
Li3 O32 2.110819 1_555
Li3 O17 2.133894 1_455
Li4 O28 1.942194 1_555
Li4 O35 1.988640 1_555
Li4 O37 2.181770 1_655
Li4 O22 2.205556 1_555
Li5 O0 1.999982 1_555
Li5 O1 2.048670 1_565
Li5 O35 2.062177 1_455
Li5 O43 2.146310 1_555
Li6 O7 1.943489 1_554
Li6 O53 1.977006 1_555
Li6 O8 2.096373 1_565
Li6 O50 2.330724 1_555
Li7 O56 1.887617 1_555
Li7 O28 2.204018 1_545
Li7 O19 2.267359 1_655
Li7 O27 2.470213 1_655
Li7 O35 2.622042 1_545
O0 P13 1.487215 1_555
O1 P1 1.549120 1_555
O1 V4 1.978846 1_555
O2 P8 1.477327 1_555
O3 P0 1.550756 1_555
O3 V2 1.876437 1_555
O4 P0 1.559522 1_555
O4 V5 1.855685 1_555
O5 P3 1.578656 1_555
O5 V4 1.936211 1_555
O6 P2 1.538838 1_555
O6 V4 1.922960 1_555
O7 P15 1.504761 1_555
O8 P5 1.553792 1_555
O8 V5 1.982334 1_555
O9 P4 1.571979 1_555
O9 V2 1.865491 1_555
O10 P1 1.565635 1_555
O10 V3 1.873532 1_555
O11 P4 1.598905 1_555
O11 V5 1.842119 1_555
O12 P3 1.492557 1_555
O13 P4 1.480840 1_555
O14 P3 1.579070 1_555
O14 V0 1.942222 1_655
O15 P7 1.539540 1_555
O15 V2 1.886107 1_555
O16 P3 1.585913 1_555
O16 V3 1.949773 1_555
O17 P2 1.564446 1_555
O17 V0 1.911346 1_655
O18 P5 1.613957 1_555
O18 P6 1.619924 1_655
O19 P6 1.488845 1_555
O20 P5 1.478855 1_555
O21 P5 1.568712 1_555
O21 V1 1.836852 1_655
O22 P4 1.574465 1_555
O22 V1 1.970508 1_655
O23 P8 1.550489 1_555
O23 V0 1.987606 1_555
O24 P9 1.521827 1_555
O24 V0 1.949642 1_655
O25 P9 1.555216 1_555
O25 V3 1.876189 1_555
O26 P1 1.605500 1_555
O26 P8 1.621534 1_555
O27 P1 1.491253 1_555
O28 P14 1.492227 1_555
O29 P6 1.550379 1_555
O29 V2 1.859249 1_555
O30 P6 1.549410 1_555
O30 V1 1.903435 1_555
O31 P7 1.553297 1_555
O31 V1 1.885582 1_655
O32 P11 1.563383 1_555
O32 V0 1.991344 1_555
O33 P10 1.557293 1_555
O33 V0 1.851688 1_555
O34 P10 1.478174 1_655
O35 P9 1.512016 1_555
O36 P9 1.602228 1_455
O36 P10 1.628506 1_555
O37 P13 1.555500 1_555
O37 V1 1.942710 1_555
O38 P12 1.571380 1_555
O38 V2 1.865212 1_555
O39 P8 1.559628 1_555
O39 V3 1.866703 1_555
O40 P12 1.604714 1_555
O40 V1 1.826794 1_555
O41 P12 1.478574 1_555
O42 P11 1.487703 1_555
O43 P11 1.569286 1_555
O43 V4 1.987206 1_565
O44 P14 1.538597 1_555
O44 V2 1.934414 1_555
O45 P11 1.608732 1_555
O45 V3 1.831239 1_555
O46 P10 1.547723 1_555
O46 V4 1.990615 1_565
O47 P13 1.608646 1_555
O47 P0 1.629445 1_565
O48 P0 1.474938 1_555
O49 P13 1.565601 1_555
O49 V5 1.859221 1_565
O50 P12 1.570365 1_555
O50 V5 1.956032 1_565
O51 P15 1.539640 1_555
O51 V4 1.881582 1_565
O52 P15 1.553331 1_555
O52 V3 2.002152 1_555
O53 P7 1.495925 1_555
O54 P7 1.605027 1_555
O54 P14 1.628932 1_555
O55 P14 1.555431 1_555
O55 V5 1.871006 1_565
O56 P2 1.477186 1_555
O57 P15 1.598271 1_545
O57 P2 1.631783 1_555
