# generated using pymatgen
data_Li2VCoO4
_symmetry_space_group_name_H-M   'P 1'
_cell_length_a   5.18371500
_cell_length_b   5.90049116
_cell_length_c   7.84577946
_cell_angle_alpha   101.87753604
_cell_angle_beta   109.00440294
_cell_angle_gamma   89.63893801
_symmetry_Int_Tables_number   1
_chemical_formula_structural   Li2VCoO4
_chemical_formula_sum   'Li6 V3 Co3 O12'
_cell_volume   221.55795480
_cell_formula_units_Z   3
loop_
 _symmetry_equiv_pos_site_id
 _symmetry_equiv_pos_as_xyz
  1  'x, y, z'
loop_
 _atom_site_type_symbol
 _atom_site_label
 _atom_site_symmetry_multiplicity
 _atom_site_fract_x
 _atom_site_fract_y
 _atom_site_fract_z
 _atom_site_occupancy
  Li  Li0  1  0.15924300  0.91985300  0.66284100  1
  Li  Li1  1  0.49864100  0.74774400  0.00203900  1
  Li  Li2  1  0.16687300  0.41671100  0.66450100  1
  Li  Li3  1  0.84075700  0.08014700  0.33715900  1
  Li  Li4  1  0.83312700  0.58328900  0.33549900  1
  Li  Li5  1  0.50135900  0.25225600  0.99796100  1
  V  V0  1  0.66813500  0.67577800  0.66971300  1
  V  V1  1  0.33186500  0.32422200  0.33028700  1
  V  V2  1  0.00000000  0.50000000  0.00000000  1
  Co  Co0  1  0.66263900  0.16509200  0.66323600  1
  Co  Co1  1  0.33736100  0.83490800  0.33676400  1
  Co  Co2  1  0.00000000  0.00000000  0.00000000  1
  O  O0  1  0.72238500  0.39109800  0.50320900  1
  O  O1  1  0.74562800  0.86224100  0.50672300  1
  O  O2  1  0.39189900  0.52853200  0.16434100  1
  O  O3  1  0.41662100  0.06438000  0.17608800  1
  O  O4  1  0.06011900  0.69556200  0.82902300  1
  O  O5  1  0.07127300  0.22863000  0.84546600  1
  O  O6  1  0.25437200  0.13775900  0.49327700  1
  O  O7  1  0.27761500  0.60890200  0.49679100  1
  O  O8  1  0.92872700  0.77137000  0.15453400  1
  O  O9  1  0.93988100  0.30443800  0.17097700  1
  O  O10  1  0.58337900  0.93562000  0.82391200  1
  O  O11  1  0.60810100  0.47146800  0.83565900  1
loop_
_geom_bond_atom_site_label_1
_geom_bond_atom_site_label_2
_geom_bond_distance
_geom_bond_site_symmetry_2
Li0 O1 2.083329 1_455
Li0 O10 2.141062 1_555
Li0 O6 2.192159 1_565
Li0 O4 2.206952 1_555
Li0 O5 2.218306 1_565
Li0 O7 2.227697 1_555
Li1 O11 2.068376 1_554
Li1 O10 2.102064 1_554
Li1 O8 2.149269 1_555
Li1 O2 2.178673 1_555
Li1 O3 2.203175 1_565
Li1 O4 2.220785 1_554
Li2 O6 2.048610 1_555
Li2 O4 2.063756 1_555
Li2 O7 2.112179 1_555
Li2 O5 2.146351 1_555
Li2 O0 2.227060 1_455
Li2 O11 2.229200 1_555
Li3 O6 2.083329 1_655
Li3 O3 2.141062 1_555
Li3 O1 2.192159 1_545
Li3 O9 2.206952 1_555
Li3 O8 2.218306 1_545
Li3 O0 2.227697 1_555
Li4 O1 2.048610 1_555
Li4 O9 2.063756 1_555
Li4 O0 2.112179 1_555
Li4 O8 2.146351 1_555
Li4 O7 2.227060 1_655
Li4 O2 2.229200 1_555
Li5 O2 2.068376 1_556
Li5 O3 2.102064 1_556
Li5 O5 2.149269 1_555
Li5 O11 2.178673 1_555
Li5 O10 2.203175 1_545
Li5 O9 2.220785 1_556
Co0 O1 2.077812 1_545
Co0 O6 2.088263 1_555
Co0 O0 2.097214 1_555
Co0 O11 2.100942 1_555
Co0 O5 2.118629 1_655
Co0 O10 2.153663 1_545
Co1 O6 2.077812 1_565
Co1 O1 2.088263 1_555
Co1 O7 2.097214 1_555
Co1 O2 2.100942 1_555
Co1 O8 2.118629 1_455
Co1 O3 2.153663 1_565
Co2 O4 2.096831 1_544
Co2 O9 2.096831 1_455
Co2 O8 2.097069 1_445
Co2 O5 2.097069 1_554
Co2 O3 2.137323 1_555
Co2 O10 2.137323 1_444
O0 V0 1.984246 1_555
O0 V1 2.023690 1_555
O1 V0 1.981521 1_555
O2 V2 2.006694 1_555
O2 V1 2.039607 1_555
O3 V1 1.892486 1_555
O4 V0 1.998375 1_455
O4 V2 2.035215 1_556
O5 V2 1.911946 1_556
O6 V1 1.981521 1_555
O7 V1 1.984246 1_555
O7 V0 2.023690 1_555
O8 V2 1.911946 1_655
O9 V1 1.998375 1_655
O9 V2 2.035215 1_655
O10 V0 1.892486 1_555
O11 V2 2.006694 1_656
O11 V0 2.039607 1_555
