# generated using pymatgen
data_Li4Cr3Ni(PO4)4
_symmetry_space_group_name_H-M   'P 1'
_cell_length_a   4.78394823
_cell_length_b   10.20198877
_cell_length_c   6.26996700
_cell_angle_alpha   90.00000000
_cell_angle_beta   90.00000000
_cell_angle_gamma   89.55667321
_symmetry_Int_Tables_number   1
_chemical_formula_structural   Li4Cr3Ni(PO4)4
_chemical_formula_sum   'Li4 Cr3 Ni1 P4 O16'
_cell_volume   306.00150824
_cell_formula_units_Z   1
loop_
 _symmetry_equiv_pos_site_id
 _symmetry_equiv_pos_as_xyz
  1  'x, y, z'
loop_
 _atom_site_type_symbol
 _atom_site_label
 _atom_site_symmetry_multiplicity
 _atom_site_fract_x
 _atom_site_fract_y
 _atom_site_fract_z
 _atom_site_occupancy
  Li  Li0  1  0.00575600  0.99817900  0.99800500  1
  Li  Li1  1  0.00575600  0.99817900  0.50199500  1
  Li  Li2  1  0.49756500  0.50248900  0.50469700  1
  Li  Li3  1  0.49756500  0.50248900  0.99530300  1
  Cr  Cr0  1  0.45242200  0.21637300  0.75000000  1
  Cr  Cr1  1  0.54755700  0.78195900  0.25000000  1
  Cr  Cr2  1  0.95489300  0.28491900  0.25000000  1
  Ni  Ni0  1  0.01612000  0.72143100  0.75000000  1
  P  P0  1  0.08324300  0.59603200  0.25000000  1
  P  P1  1  0.41967700  0.09425600  0.25000000  1
  P  P2  1  0.58373500  0.90382900  0.75000000  1
  P  P3  1  0.91534200  0.40708400  0.75000000  1
  O  O0  1  0.19496500  0.45169500  0.25000000  1
  O  O1  1  0.21287700  0.66262700  0.04810800  1
  O  O2  1  0.21287700  0.66262700  0.45189200  1
  O  O3  1  0.23916100  0.39822700  0.75000000  1
  O  O4  1  0.26229500  0.89756200  0.75000000  1
  O  O5  1  0.28431900  0.16074300  0.05153100  1
  O  O6  1  0.28431900  0.16074300  0.44846900  1
  O  O7  1  0.31181200  0.94979500  0.25000000  1
  O  O8  1  0.69445000  0.04723400  0.75000000  1
  O  O9  1  0.72601800  0.83397000  0.55537100  1
  O  O10  1  0.72601800  0.83397000  0.94462900  1
  O  O11  1  0.74331300  0.10132800  0.25000000  1
  O  O12  1  0.75947300  0.60254200  0.25000000  1
  O  O13  1  0.78344700  0.33917500  0.55170400  1
  O  O14  1  0.78344700  0.33917500  0.94829600  1
  O  O15  1  0.80158500  0.55136600  0.75000000  1
loop_
_geom_bond_atom_site_label_1
_geom_bond_atom_site_label_2
_geom_bond_distance
_geom_bond_site_symmetry_2
Li0 O5 2.161777 1_566
Li0 O10 2.178096 1_455
Li0 O7 2.207402 1_556
Li0 O8 2.207901 1_465
Li0 O4 2.226737 1_555
Li0 O11 2.271488 1_466
Li1 O6 2.161777 1_565
Li1 O9 2.178096 1_455
Li1 O7 2.207402 1_555
Li1 O8 2.207901 1_465
Li1 O4 2.226737 1_555
Li1 O11 2.271488 1_465
Li2 O2 2.144553 1_555
Li2 O13 2.167496 1_555
Li2 O15 2.177330 1_555
Li2 O0 2.219454 1_555
Li2 O3 2.246220 1_555
Li2 O12 2.276361 1_555
Li3 O1 2.144553 1_556
Li3 O14 2.167496 1_555
Li3 O15 2.177330 1_555
Li3 O0 2.219454 1_556
Li3 O3 2.246220 1_555
Li3 O12 2.276361 1_556
Cr0 O8 2.070564 1_555
Cr0 O3 2.110359 1_555
Cr0 O5 2.133125 1_556
Cr0 O6 2.133125 1_555
Cr0 O14 2.377793 1_555
Cr0 O13 2.377793 1_555
Cr1 O7 2.043005 1_555
Cr1 O12 2.085537 1_555
Cr1 O10 2.164115 1_554
Cr1 O9 2.164115 1_555
Cr1 O2 2.382891 1_555
Cr1 O1 2.382891 1_555
Cr2 O0 2.060144 1_655
Cr2 O13 2.133190 1_555
Cr2 O14 2.133190 1_554
Cr2 O11 2.135876 1_555
Cr2 O6 2.367731 1_655
Cr2 O5 2.367731 1_655
Ni0 O15 2.022653 1_455
Ni0 O4 2.156038 1_555
Ni0 O9 2.169972 1_455
Ni0 O10 2.169972 1_455
Ni0 O2 2.175040 1_555
Ni0 O1 2.175040 1_556
O0 P0 1.562629 1_555
O1 P0 1.566876 1_555
O2 P0 1.566876 1_555
O3 P3 1.551068 1_455
O4 P2 1.539575 1_555
O5 P1 1.555997 1_555
O6 P1 1.555997 1_555
O7 P1 1.565280 1_565
O8 P2 1.559789 1_545
O9 P2 1.566182 1_555
O10 P2 1.566182 1_555
O11 P1 1.550496 1_555
O12 P0 1.549809 1_655
O13 P3 1.559070 1_555
O14 P3 1.559070 1_555
O15 P3 1.565389 1_555
