# generated using pymatgen
data_LiFe2(BO3)2
_symmetry_space_group_name_H-M   'P 1'
_cell_length_a   5.23053400
_cell_length_b   9.15064025
_cell_length_c   10.12924086
_cell_angle_alpha   88.56661085
_cell_angle_beta   89.38312705
_cell_angle_gamma   89.46813689
_symmetry_Int_Tables_number   1
_chemical_formula_structural   LiFe2(BO3)2
_chemical_formula_sum   'Li4 Fe8 B8 O24'
_cell_volume   484.61367330
_cell_formula_units_Z   4
loop_
 _symmetry_equiv_pos_site_id
 _symmetry_equiv_pos_as_xyz
  1  'x, y, z'
loop_
 _atom_site_type_symbol
 _atom_site_label
 _atom_site_symmetry_multiplicity
 _atom_site_fract_x
 _atom_site_fract_y
 _atom_site_fract_z
 _atom_site_occupancy
  Li  Li0  1  0.15408100  0.16928300  0.64631900  1
  Li  Li1  1  0.33445200  0.31942700  0.90806900  1
  Li  Li2  1  0.67998300  0.67094700  0.13908000  1
  Li  Li3  1  0.82641300  0.83476100  0.40845000  1
  Fe  Fe0  1  0.16637500  0.83027700  0.63345200  1
  Fe  Fe1  1  0.18187300  0.48738200  0.13523600  1
  Fe  Fe2  1  0.33327100  0.98583300  0.88056700  1
  Fe  Fe3  1  0.33199100  0.65381500  0.38225900  1
  Fe  Fe4  1  0.64800400  0.35132100  0.62352700  1
  Fe  Fe5  1  0.68117200  0.00840100  0.12814100  1
  Fe  Fe6  1  0.82855000  0.17328500  0.37525700  1
  Fe  Fe7  1  0.83019000  0.50580200  0.87251000  1
  B  B0  1  0.15221300  0.49729800  0.63084800  1
  B  B1  1  0.17202100  0.82660500  0.13204500  1
  B  B2  1  0.33112800  0.99453600  0.38149300  1
  B  B3  1  0.33251400  0.66140600  0.88177900  1
  B  B4  1  0.67048800  0.00701700  0.62413500  1
  B  B5  1  0.66774100  0.33659000  0.12486300  1
  B  B6  1  0.83689400  0.50140500  0.37506100  1
  B  B7  1  0.82934900  0.16950700  0.87580800  1
  O  O0  1  0.09459200  0.50074000  0.34272300  1
  O  O1  1  0.09058200  0.15189800  0.85914900  1
  O  O2  1  0.21238800  0.79036000  0.84101400  1
  O  O3  1  0.23091200  0.85614000  0.41486600  1
  O  O4  1  0.17409200  0.11284800  0.38589100  1
  O  O5  1  0.18746400  0.53619600  0.91221100  1
  O  O6  1  0.27510000  0.36502600  0.63974200  1
  O  O7  1  0.31345900  0.94001600  0.07409000  1
  O  O8  1  0.27102600  0.62098200  0.57686200  1
  O  O9  1  0.31053900  0.70145000  0.17711400  1
  O  O10  1  0.41384300  0.32679800  0.09862200  1
  O  O11  1  0.41827400  0.00812100  0.67662000  1
  O  O12  1  0.59256100  0.00419400  0.34980300  1
  O  O13  1  0.59020000  0.65502000  0.89615500  1
  O  O14  1  0.70939300  0.30458100  0.84833700  1
  O  O15  1  0.72296400  0.37268000  0.41750700  1
  O  O16  1  0.69640500  0.62965200  0.36294300  1
  O  O17  1  0.67660600  0.05601300  0.91985000  1
  O  O18  1  0.80329000  0.46447700  0.08947600  1
  O  O19  1  0.80261400  0.88075500  0.60567200  1
  O  O20  1  0.78080300  0.14213600  0.58511400  1
  O  O21  1  0.79763600  0.21671800  0.18151900  1
  O  O22  1  0.91250200  0.83383500  0.14666400  1
  O  O23  1  0.90048000  0.51089000  0.67764500  1
loop_
_geom_bond_atom_site_label_1
_geom_bond_atom_site_label_2
_geom_bond_distance
_geom_bond_site_symmetry_2
Li0 O6 1.904625 1_555
Li0 O11 2.031568 1_555
Li0 O20 2.073853 1_455
Li0 O1 2.179800 1_555
Li1 O10 1.981612 1_556
Li1 O14 2.050420 1_555
Li1 O1 2.076204 1_555
Li1 O5 2.121928 1_555
Li2 O22 1.936004 1_555
Li2 O9 1.984892 1_555
Li2 O18 2.062984 1_555
Li2 O16 2.291883 1_555
Li2 O13 2.518065 1_554
Li3 O12 2.046266 1_565
Li3 O19 2.054071 1_555
Li3 O16 2.066710 1_555
Li3 O3 2.128416 1_655
Fe0 O19 1.975191 1_455
Fe0 O8 2.079623 1_555
Fe0 O2 2.140669 1_555
Fe0 O11 2.159485 1_565
Fe0 O3 2.243082 1_555
Fe1 O10 1.937384 1_555
Fe1 O18 2.052380 1_455
Fe1 O9 2.131239 1_555
Fe1 O0 2.152115 1_555
Fe1 O5 2.291752 1_554
Fe2 O2 1.955008 1_555
Fe2 O17 1.960946 1_565
Fe2 O1 1.980211 1_565
Fe2 O7 1.996090 1_556
Fe2 O11 2.113705 1_565
Fe3 O16 1.925258 1_555
Fe3 O0 1.932711 1_555
Fe3 O3 1.955751 1_555
Fe3 O8 2.009009 1_555
Fe3 O9 2.116440 1_555
Fe4 O6 1.958748 1_555
Fe4 O23 2.065897 1_555
Fe4 O20 2.074779 1_555
Fe4 O15 2.123716 1_555
Fe4 O14 2.331509 1_555
Fe5 O22 2.001230 1_545
Fe5 O21 2.092215 1_555
Fe5 O7 2.110145 1_545
Fe5 O17 2.143985 1_554
Fe5 O12 2.287165 1_555
Fe6 O4 1.888568 1_655
Fe6 O15 1.957692 1_555
Fe6 O21 2.000453 1_555
Fe6 O12 2.011584 1_555
Fe6 O20 2.149828 1_555
Fe7 O13 1.864289 1_555
Fe7 O5 1.939758 1_655
Fe7 O14 1.974093 1_555
Fe7 O23 2.003361 1_555
Fe7 O18 2.223834 1_556
B0 O6 1.366607 1_555
B0 O8 1.393183 1_555
B0 O23 1.400116 1_455
B1 O22 1.365063 1_455
B1 O7 1.394034 1_555
B1 O9 1.417919 1_555
B2 O4 1.354200 1_565
B2 O12 1.404314 1_565
B2 O3 1.407100 1_555
B3 O13 1.357799 1_555
B3 O2 1.387503 1_555
B3 O5 1.405990 1_555
B4 O19 1.356717 1_545
B4 O20 1.414848 1_555
B4 O11 1.417032 1_555
B5 O10 1.361368 1_555
B5 O21 1.399007 1_555
B5 O18 1.410525 1_555
B6 O15 1.381894 1_555
B6 O16 1.382379 1_555
B6 O0 1.383691 1_655
B7 O17 1.378558 1_555
B7 O1 1.383388 1_655
B7 O14 1.403918 1_555
