# generated using pymatgen
data_CaY2O4
_symmetry_space_group_name_H-M   'P 1'
_cell_length_a   3.38335400
_cell_length_b   9.97618500
_cell_length_c   11.82911500
_cell_angle_alpha   90.00000000
_cell_angle_beta   90.00000000
_cell_angle_gamma   90.00000000
_symmetry_Int_Tables_number   1
_chemical_formula_structural   CaY2O4
_chemical_formula_sum   'Ca4 Y8 O16'
_cell_volume   399.26770960
_cell_formula_units_Z   4
loop_
 _symmetry_equiv_pos_site_id
 _symmetry_equiv_pos_as_xyz
  1  'x, y, z'
loop_
 _atom_site_type_symbol
 _atom_site_label
 _atom_site_symmetry_multiplicity
 _atom_site_fract_x
 _atom_site_fract_y
 _atom_site_fract_z
 _atom_site_occupancy
  Ca  Ca0  1  0.75000000  0.24915400  0.64881500  1
  Ca  Ca1  1  0.25000000  0.25084600  0.14881500  1
  Ca  Ca2  1  0.75000000  0.74915400  0.85118500  1
  Ca  Ca3  1  0.25000000  0.75084600  0.35118500  1
  Y  Y0  1  0.75000000  0.07900500  0.38889100  1
  Y  Y1  1  0.75000000  0.07717900  0.88607900  1
  Y  Y2  1  0.25000000  0.42282100  0.38607900  1
  Y  Y3  1  0.25000000  0.42099500  0.88889100  1
  Y  Y4  1  0.75000000  0.57900500  0.11110900  1
  Y  Y5  1  0.75000000  0.57717900  0.61392100  1
  Y  Y6  1  0.25000000  0.92282100  0.11392100  1
  Y  Y7  1  0.25000000  0.92099500  0.61110900  1
  O  O0  1  0.25000000  0.02114600  0.28262700  1
  O  O1  1  0.75000000  0.07941700  0.07865200  1
  O  O2  1  0.25000000  0.13193000  0.52391300  1
  O  O3  1  0.25000000  0.21042300  0.81373200  1
  O  O4  1  0.75000000  0.28957700  0.31373200  1
  O  O5  1  0.75000000  0.36807000  0.02391300  1
  O  O6  1  0.25000000  0.42058300  0.57865200  1
  O  O7  1  0.75000000  0.47885400  0.78262700  1
  O  O8  1  0.25000000  0.52114600  0.21737300  1
  O  O9  1  0.75000000  0.57941700  0.42134800  1
  O  O10  1  0.25000000  0.63193000  0.97608700  1
  O  O11  1  0.25000000  0.71042300  0.68626800  1
  O  O12  1  0.75000000  0.78957700  0.18626800  1
  O  O13  1  0.75000000  0.86807000  0.47608700  1
  O  O14  1  0.25000000  0.92058300  0.92134800  1
  O  O15  1  0.75000000  0.97885400  0.71737300  1
loop_
_geom_bond_atom_site_label_1
_geom_bond_atom_site_label_2
_geom_bond_distance
_geom_bond_site_symmetry_2
Ca0 O2 2.532257 1_655
Ca0 O2 2.532257 1_555
Ca0 O6 2.544686 1_655
Ca0 O6 2.544686 1_555
Ca0 O3 2.610895 1_555
Ca0 O3 2.610895 1_655
Ca0 O7 2.785069 1_555
Ca0 O15 2.815873 1_545
Ca1 O5 2.532257 1_555
Ca1 O5 2.532257 1_455
Ca1 O1 2.544686 1_455
Ca1 O1 2.544686 1_555
Ca1 O4 2.610895 1_455
Ca1 O4 2.610895 1_555
Ca1 O0 2.785069 1_555
Ca1 O8 2.815873 1_555
Ca2 O10 2.532257 1_555
Ca2 O10 2.532257 1_655
Ca2 O14 2.544686 1_555
Ca2 O14 2.544686 1_655
Ca2 O11 2.610895 1_655
Ca2 O11 2.610895 1_555
Ca2 O15 2.785069 1_555
Ca2 O7 2.815873 1_555
Ca3 O13 2.532257 1_555
Ca3 O13 2.532257 1_455
Ca3 O9 2.544686 1_455
Ca3 O9 2.544686 1_555
Ca3 O12 2.610895 1_455
Ca3 O12 2.610895 1_555
Ca3 O8 2.785069 1_555
Ca3 O0 2.815873 1_565
O0 Y0 2.185181 1_555
O0 Y0 2.185181 1_455
O0 Y6 2.223684 1_545
O1 Y1 2.278078 1_554
O1 Y6 2.340169 1_545
O1 Y6 2.340169 1_645
O2 Y7 2.343519 1_545
O2 Y0 2.385700 1_455
O2 Y0 2.385700 1_555
O3 Y3 2.281096 1_555
O3 Y1 2.315409 1_455
O3 Y1 2.315409 1_555
O4 Y0 2.281096 1_555
O4 Y2 2.315409 1_655
O4 Y2 2.315409 1_555
O5 Y4 2.343519 1_555
O5 Y3 2.385700 1_554
O5 Y3 2.385700 1_654
O6 Y2 2.278078 1_555
O6 Y5 2.340169 1_455
O6 Y5 2.340169 1_555
O7 Y3 2.185181 1_655
O7 Y3 2.185181 1_555
O7 Y5 2.223684 1_555
O8 Y4 2.185181 1_455
O8 Y4 2.185181 1_555
O8 Y2 2.223684 1_555
O9 Y5 2.278078 1_555
O9 Y2 2.340169 1_555
O9 Y2 2.340169 1_655
O10 Y3 2.343519 1_555
O10 Y4 2.385700 1_456
O10 Y4 2.385700 1_556
O11 Y7 2.281096 1_555
O11 Y5 2.315409 1_455
O11 Y5 2.315409 1_555
O12 Y4 2.281096 1_555
O12 Y6 2.315409 1_655
O12 Y6 2.315409 1_555
O13 Y0 2.343519 1_565
O13 Y7 2.385700 1_555
O13 Y7 2.385700 1_655
O14 Y6 2.278078 1_556
O14 Y1 2.340169 1_565
O14 Y1 2.340169 1_465
O15 Y7 2.185181 1_655
O15 Y7 2.185181 1_555
O15 Y1 2.223684 1_565
