# generated using pymatgen
data_Li4Mn5V(PO4)6
_symmetry_space_group_name_H-M   'P 1'
_cell_length_a   8.57106600
_cell_length_b   8.64731626
_cell_length_c   8.71801386
_cell_angle_alpha   62.19515254
_cell_angle_beta   62.82200348
_cell_angle_gamma   62.94916419
_symmetry_Int_Tables_number   1
_chemical_formula_structural   Li4Mn5V(PO4)6
_chemical_formula_sum   'Li4 Mn5 V1 P6 O24'
_cell_volume   483.85946789
_cell_formula_units_Z   1
loop_
 _symmetry_equiv_pos_site_id
 _symmetry_equiv_pos_as_xyz
  1  'x, y, z'
loop_
 _atom_site_type_symbol
 _atom_site_label
 _atom_site_symmetry_multiplicity
 _atom_site_fract_x
 _atom_site_fract_y
 _atom_site_fract_z
 _atom_site_occupancy
  Li  Li0  1  0.74426400  0.14865300  0.35895600  1
  Li  Li1  1  0.26737200  0.85187800  0.64664500  1
  Li  Li2  1  0.64354000  0.26529800  0.85518100  1
  Li  Li3  1  0.85360200  0.64768000  0.26671800  1
  Mn  Mn0  1  0.01607700  0.00237700  0.99198400  1
  Mn  Mn1  1  0.34885700  0.35426200  0.35256600  1
  Mn  Mn2  1  0.49028700  0.50346500  0.49968700  1
  Mn  Mn3  1  0.14721700  0.14950500  0.14672900  1
  Mn  Mn4  1  0.65480400  0.65008500  0.65671700  1
  V  V0  1  0.85287800  0.84887500  0.85269600  1
  P  P0  1  0.05471100  0.75218200  0.44672600  1
  P  P1  1  0.44647300  0.05032300  0.74912400  1
  P  P2  1  0.75195500  0.44405500  0.05381800  1
  P  P3  1  0.24688200  0.54729000  0.95231600  1
  P  P4  1  0.55524600  0.95323200  0.24767000  1
  P  P5  1  0.94041200  0.24603800  0.55023100  1
  O  O0  1  0.46857900  0.90068700  0.68433900  1
  O  O1  1  0.68702500  0.46240900  0.90722600  1
  O  O2  1  0.90411400  0.68888300  0.46419800  1
  O  O3  1  0.05859200  0.92231200  0.26297500  1
  O  O4  1  0.00560600  0.81208700  0.60992000  1
  O  O5  1  0.24453700  0.60581400  0.43100000  1
  O  O6  1  0.25663800  0.07334100  0.89972000  1
  O  O7  1  0.45756800  0.23339100  0.58768300  1
  O  O8  1  0.18205700  0.38961200  0.99263000  1
  O  O9  1  0.60856300  0.42562500  0.24701500  1
  O  O10  1  0.09058100  0.74252800  0.92744800  1
  O  O11  1  0.38912400  0.00693400  0.18999000  1
  O  O12  1  0.60465300  0.99873800  0.82096200  1
  O  O13  1  0.90794500  0.25092800  0.07699100  1
  O  O14  1  0.39521400  0.57084200  0.75793200  1
  O  O15  1  0.81810300  0.60431300  0.00475400  1
  O  O16  1  0.57104700  0.75773200  0.39757500  1
  O  O17  1  0.74735900  0.92360700  0.08915000  1
  O  O18  1  0.74808000  0.39914700  0.58036400  1
  O  O19  1  0.95740100  0.18710600  0.40121300  1
  O  O20  1  0.92341400  0.08812900  0.74544200  1
  O  O21  1  0.10196000  0.30020600  0.51026600  1
  O  O22  1  0.30970300  0.51851300  0.10131000  1
  O  O23  1  0.54756300  0.09891900  0.30513200  1
loop_
_geom_bond_atom_site_label_1
_geom_bond_atom_site_label_2
_geom_bond_distance
_geom_bond_site_symmetry_2
Li0 O9 2.089041 1_555
Li0 O13 2.177835 1_555
Li0 O23 2.194987 1_555
Li0 O19 2.205696 1_555
Li0 O7 2.408453 1_555
Li0 O3 2.541974 1_645
Li1 O14 2.096975 1_555
Li1 O0 2.137611 1_555
Li1 O10 2.222199 1_555
Li1 O16 2.590616 1_555
Li1 O4 2.591499 1_555
Li2 O18 2.068290 1_555
Li2 O1 2.168836 1_555
Li2 O20 2.223726 1_555
Li2 O14 2.583313 1_555
Li3 O16 2.113029 1_555
Li3 O2 2.161453 1_555
Li3 O17 2.187320 1_555
Mn0 O6 2.109537 1_555
Mn0 O13 2.252639 1_456
Mn0 O3 2.285730 1_546
Mn0 O10 2.306386 1_545
Mn0 O20 2.310246 1_455
Mn0 O17 2.364872 1_446
Mn1 O21 2.056517 1_555
Mn1 O22 2.064835 1_555
Mn1 O23 2.176016 1_555
Mn1 O7 2.241055 1_555
Mn1 O9 2.242975 1_555
Mn1 O5 2.249179 1_555
Mn2 O5 2.130899 1_555
Mn2 O7 2.202059 1_555
Mn2 O9 2.248497 1_555
Mn2 O16 2.258623 1_555
Mn2 O14 2.277758 1_555
Mn2 O18 2.281540 1_555
Mn3 O8 1.949397 1_554
Mn3 O11 1.979068 1_555
Mn3 O3 2.064082 1_545
Mn3 O13 2.085728 1_455
Mn3 O19 2.137590 1_455
Mn3 O6 2.206125 1_554
Mn4 O0 2.071555 1_555
Mn4 O1 2.077595 1_555
Mn4 O2 2.084741 1_555
Mn4 O18 2.252632 1_555
Mn4 O14 2.286437 1_555
Mn4 O16 2.323293 1_555
O0 P1 1.546042 1_565
O1 P2 1.532420 1_556
O2 P0 1.540830 1_655
O3 P0 1.590237 1_555
O4 P0 1.553023 1_555
O4 V0 2.003208 1_455
O5 P0 1.533948 1_555
O6 P1 1.551938 1_555
O7 P1 1.559500 1_555
O8 P3 1.534587 1_555
O9 P2 1.552248 1_555
O10 P3 1.599586 1_555
O10 V0 2.090671 1_455
O11 P4 1.526645 1_545
O12 P1 1.547348 1_565
O12 V0 1.994457 1_555
O13 P2 1.586971 1_555
O14 P3 1.573218 1_555
O15 P2 1.537838 1_555
O15 V0 1.978768 1_554
O16 P4 1.573696 1_555
O17 P4 1.598331 1_555
O17 V0 2.119683 1_554
O18 P5 1.575802 1_555
O19 P5 1.531666 1_555
O20 P5 1.602670 1_555
O20 V0 2.082473 1_545
O21 P5 1.501660 1_455
O22 P3 1.501519 1_554
O23 P4 1.524982 1_545
