# generated using pymatgen
data_Li2TiCr3O8
_symmetry_space_group_name_H-M   'P 1'
_cell_length_a   5.90243418
_cell_length_b   5.90243418
_cell_length_c   9.43517400
_cell_angle_alpha   90.00000000
_cell_angle_beta   90.00000000
_cell_angle_gamma   120.00000206
_symmetry_Int_Tables_number   1
_chemical_formula_structural   Li2TiCr3O8
_chemical_formula_sum   'Li4 Ti2 Cr6 O16'
_cell_volume   284.67074800
_cell_formula_units_Z   2
loop_
 _symmetry_equiv_pos_site_id
 _symmetry_equiv_pos_as_xyz
  1  'x, y, z'
loop_
 _atom_site_type_symbol
 _atom_site_label
 _atom_site_symmetry_multiplicity
 _atom_site_fract_x
 _atom_site_fract_y
 _atom_site_fract_z
 _atom_site_occupancy
  Li  Li0  1  0.33333300  0.66666700  0.89085300  1
  Li  Li1  1  0.00000000  0.00000000  0.99472500  1
  Li  Li2  1  0.00000000  0.00000000  0.49472500  1
  Li  Li3  1  0.66666700  0.33333300  0.39085300  1
  Ti  Ti0  1  0.33333300  0.66666700  0.49780100  1
  Ti  Ti1  1  0.66666700  0.33333300  0.99780100  1
  Cr  Cr0  1  0.17187400  0.82812600  0.21687400  1
  Cr  Cr1  1  0.17187400  0.34374900  0.21687400  1
  Cr  Cr2  1  0.65625100  0.82812600  0.21687400  1
  Cr  Cr3  1  0.34374900  0.17187400  0.71687400  1
  Cr  Cr4  1  0.82812600  0.65625100  0.71687400  1
  Cr  Cr5  1  0.82812600  0.17187400  0.71687400  1
  O  O0  1  0.16747700  0.83252300  0.59618900  1
  O  O1  1  0.04019800  0.52009900  0.34207300  1
  O  O2  1  0.33333300  0.66666700  0.10413600  1
  O  O3  1  0.00000000  0.00000000  0.30146500  1
  O  O4  1  0.00000000  0.00000000  0.80146500  1
  O  O5  1  0.16747700  0.33495300  0.59618900  1
  O  O6  1  0.47990100  0.95980200  0.34207300  1
  O  O7  1  0.47990100  0.52009900  0.34207300  1
  O  O8  1  0.33495300  0.16747700  0.09618900  1
  O  O9  1  0.66504700  0.83252300  0.59618900  1
  O  O10  1  0.52009900  0.47990100  0.84207300  1
  O  O11  1  0.52009900  0.04019800  0.84207300  1
  O  O12  1  0.66666700  0.33333300  0.60413600  1
  O  O13  1  0.83252300  0.66504700  0.09618900  1
  O  O14  1  0.95980200  0.47990100  0.84207300  1
  O  O15  1  0.83252300  0.16747700  0.09618900  1
loop_
_geom_bond_atom_site_label_1
_geom_bond_atom_site_label_2
_geom_bond_distance
_geom_bond_site_symmetry_2
Li0 O14 1.964050 1_455
Li0 O11 1.964050 1_565
Li0 O10 1.964055 1_555
Li0 O2 2.012362 1_556
Li1 O4 1.823442 1_555
Li1 O8 1.961630 1_556
Li1 O13 1.961630 1_446
Li1 O15 1.961634 1_456
Li2 O3 1.823442 1_555
Li2 O9 1.961630 1_445
Li2 O5 1.961630 1_555
Li2 O0 1.961634 1_545
Li3 O1 1.964050 1_655
Li3 O6 1.964050 1_545
Li3 O7 1.964055 1_555
Li3 O12 2.012362 1_555
Cr0 O3 1.929894 1_565
Cr0 O2 1.963695 1_555
Cr0 O6 1.972798 1_555
Cr0 O1 1.972798 1_555
Cr0 O8 2.075359 1_565
Cr0 O13 2.075359 1_455
Cr1 O3 1.929899 1_555
Cr1 O2 1.963695 1_555
Cr1 O1 1.972794 1_555
Cr1 O7 1.972798 1_555
Cr1 O15 2.075359 1_455
Cr1 O8 2.075359 1_555
Cr2 O3 1.929899 1_665
Cr2 O2 1.963695 1_555
Cr2 O6 1.972794 1_555
Cr2 O7 1.972798 1_555
Cr2 O15 2.075359 1_565
Cr2 O13 2.075359 1_555
Cr3 O4 1.929899 1_555
Cr3 O12 1.963695 1_555
Cr3 O11 1.972794 1_555
Cr3 O10 1.972798 1_555
Cr3 O0 2.075359 1_545
Cr3 O5 2.075359 1_555
Cr4 O4 1.929899 1_665
Cr4 O12 1.963695 1_555
Cr4 O14 1.972794 1_555
Cr4 O10 1.972798 1_555
Cr4 O0 2.075359 1_655
Cr4 O9 2.075359 1_555
Cr5 O4 1.929894 1_655
Cr5 O12 1.963695 1_555
Cr5 O11 1.972798 1_555
Cr5 O14 1.972798 1_555
Cr5 O5 2.075359 1_655
Cr5 O9 2.075359 1_545
O0 Ti0 1.933083 1_555
O1 Ti0 2.098600 1_555
O5 Ti0 1.933092 1_555
O6 Ti0 2.098600 1_555
O7 Ti0 2.098604 1_555
O8 Ti1 1.933092 1_554
O9 Ti0 1.933092 1_555
O10 Ti1 2.098604 1_555
O11 Ti1 2.098600 1_555
O13 Ti1 1.933092 1_554
O14 Ti1 2.098600 1_555
O15 Ti1 1.933083 1_554
