# generated using pymatgen
data_Sr4(NiO3)3
_symmetry_space_group_name_H-M   'P 1'
_cell_length_a   9.54318866
_cell_length_b   9.54318866
_cell_length_c   7.83384200
_cell_angle_alpha   90.00000000
_cell_angle_beta   90.00000000
_cell_angle_gamma   120.00000456
_symmetry_Int_Tables_number   1
_chemical_formula_structural   Sr4(NiO3)3
_chemical_formula_sum   'Sr12 Ni9 O27'
_cell_volume   617.86335539
_cell_formula_units_Z   3
loop_
 _symmetry_equiv_pos_site_id
 _symmetry_equiv_pos_as_xyz
  1  'x, y, z'
loop_
 _atom_site_type_symbol
 _atom_site_label
 _atom_site_symmetry_multiplicity
 _atom_site_fract_x
 _atom_site_fract_y
 _atom_site_fract_z
 _atom_site_occupancy
  Sr  Sr0  1  0.02419400  0.69143300  0.25072300  1
  Sr  Sr1  1  0.00000000  0.35925200  0.00000000  1
  Sr  Sr2  1  0.00000000  0.33208600  0.50000000  1
  Sr  Sr3  1  0.30856700  0.33276100  0.25072300  1
  Sr  Sr4  1  0.33276100  0.30856700  0.74927700  1
  Sr  Sr5  1  0.66723900  0.97580600  0.25072300  1
  Sr  Sr6  1  0.64074800  0.64074800  0.00000000  1
  Sr  Sr7  1  0.33208600  0.00000000  0.50000000  1
  Sr  Sr8  1  0.66791400  0.66791400  0.50000000  1
  Sr  Sr9  1  0.35925200  0.00000000  0.00000000  1
  Sr  Sr10  1  0.97580600  0.66723900  0.74927700  1
  Sr  Sr11  1  0.69143300  0.02419400  0.74927700  1
  Ni  Ni0  1  0.33333300  0.66666700  0.42124300  1
  Ni  Ni1  1  0.33333300  0.66666700  0.10031600  1
  Ni  Ni2  1  0.00000000  0.00000000  0.00000000  1
  Ni  Ni3  1  0.00000000  0.00000000  0.34057700  1
  Ni  Ni4  1  0.00000000  0.00000000  0.65942300  1
  Ni  Ni5  1  0.33333300  0.66666700  0.75996700  1
  Ni  Ni6  1  0.66666700  0.33333300  0.57875700  1
  Ni  Ni7  1  0.66666700  0.33333300  0.89968400  1
  Ni  Ni8  1  0.66666700  0.33333300  0.24003300  1
  O  O0  1  0.00000000  0.84991600  0.50000000  1
  O  O1  1  0.15310500  0.98918600  0.80075800  1
  O  O2  1  0.18405800  0.68333700  0.95872100  1
  O  O3  1  0.18114700  0.67220700  0.56152400  1
  O  O4  1  0.17323500  0.51951300  0.25894100  1
  O  O5  1  0.01081400  0.16391900  0.80075800  1
  O  O6  1  0.34627800  0.82676500  0.25894100  1
  O  O7  1  0.31666300  0.50072100  0.95872100  1
  O  O8  1  0.32779300  0.50894000  0.56152400  1
  O  O9  1  0.15008400  0.15008400  0.50000000  1
  O  O10  1  0.49106000  0.81885300  0.56152400  1
  O  O11  1  0.49927900  0.81594200  0.95872100  1
  O  O12  1  0.48048700  0.65372200  0.25894100  1
  O  O13  1  0.16391900  0.01081400  0.19924200  1
  O  O14  1  0.50072100  0.31666300  0.04127900  1
  O  O15  1  0.50894000  0.32779300  0.43847600  1
  O  O16  1  0.65372200  0.48048700  0.74105900  1
  O  O17  1  0.83608100  0.84689500  0.80075800  1
  O  O18  1  0.84689500  0.83608100  0.19924200  1
  O  O19  1  0.51951300  0.17323500  0.74105900  1
  O  O20  1  0.81594200  0.49927900  0.04127900  1
  O  O21  1  0.81885300  0.49106000  0.43847600  1
  O  O22  1  0.67220700  0.18114700  0.43847600  1
  O  O23  1  0.68333700  0.18405800  0.04127900  1
  O  O24  1  0.82676500  0.34627800  0.74105900  1
  O  O25  1  0.84991600  0.00000000  0.50000000  1
  O  O26  1  0.98918600  0.15310500  0.19924200  1
loop_
_geom_bond_atom_site_label_1
_geom_bond_atom_site_label_2
_geom_bond_distance
_geom_bond_site_symmetry_2
Ni0 O3 1.842970 1_555
Ni0 O10 1.842974 1_555
Ni0 O8 1.842977 1_555
Ni0 O6 1.943556 1_555
Ni0 O4 1.943559 1_555
Ni0 O12 1.943563 1_555
Ni1 O2 1.873953 1_554
Ni1 O11 1.873958 1_554
Ni1 O7 1.873961 1_554
Ni1 O6 1.924835 1_555
Ni1 O4 1.924838 1_555
Ni1 O12 1.924842 1_555
Ni2 O17 2.175424 1_444
Ni2 O18 2.175424 1_445
Ni2 O13 2.175424 1_555
Ni2 O5 2.175424 1_554
Ni2 O1 2.175424 1_544
Ni2 O26 2.175424 1_455
Ni3 O18 1.876742 1_445
Ni3 O13 1.876742 1_555
Ni3 O26 1.876742 1_455
Ni3 O9 1.900306 1_555
Ni3 O0 1.900306 1_545
Ni3 O25 1.900306 1_455
Ni4 O17 1.876742 1_445
Ni4 O5 1.876742 1_555
Ni4 O1 1.876742 1_545
Ni4 O9 1.900306 1_555
Ni4 O0 1.900306 1_545
Ni4 O25 1.900306 1_455
Ni5 O3 2.146057 1_555
Ni5 O10 2.146061 1_555
Ni5 O8 2.146064 1_555
Ni5 O2 2.169234 1_555
Ni5 O11 2.169238 1_555
Ni5 O7 2.169241 1_555
Ni6 O22 1.842970 1_555
Ni6 O21 1.842974 1_555
Ni6 O15 1.842977 1_555
Ni6 O24 1.943556 1_555
Ni6 O19 1.943559 1_555
Ni6 O16 1.943563 1_555
Ni7 O23 1.873953 1_556
Ni7 O20 1.873958 1_556
Ni7 O14 1.873961 1_556
Ni7 O24 1.924835 1_555
Ni7 O19 1.924838 1_555
Ni7 O16 1.924842 1_555
Ni8 O22 2.146057 1_555
Ni8 O21 2.146061 1_555
Ni8 O15 2.146064 1_555
Ni8 O23 2.169234 1_555
Ni8 O20 2.169238 1_555
Ni8 O14 2.169241 1_555
O0 Sr10 2.550173 1_455
O0 Sr0 2.550173 1_555
O0 Sr8 2.748795 1_455
O0 Sr7 2.748795 1_565
O1 Sr9 2.472667 1_566
O1 Sr4 2.676991 1_565
O1 Sr10 2.695673 1_455
O1 Sr7 2.881488 1_565
O2 Sr10 2.521916 1_455
O2 Sr9 2.641915 1_566
O2 Sr1 2.706065 1_556
O2 Sr0 2.771999 1_556
O3 Sr10 2.431612 1_455
O3 Sr7 2.754408 1_565
O3 Sr2 2.853960 1_555
O3 Sr0 2.912056 1_555
O4 Sr2 2.557634 1_555
O4 Sr1 2.580423 1_555
O4 Sr0 2.655654 1_555
O4 Sr3 2.673968 1_555
O5 Sr1 2.472667 1_556
O5 Sr11 2.676991 1_455
O5 Sr4 2.695673 1_555
O5 Sr2 2.881488 1_555
O6 Sr7 2.557634 1_565
O6 Sr9 2.580423 1_565
O6 Sr5 2.655654 1_555
O6 Sr0 2.673968 1_555
O7 Sr4 2.521916 1_555
O7 Sr1 2.641915 1_556
O7 Sr6 2.706065 1_556
O7 Sr3 2.771999 1_556
O8 Sr4 2.431612 1_555
O8 Sr2 2.754408 1_555
O8 Sr8 2.853960 1_555
O8 Sr3 2.912056 1_555
O9 Sr4 2.550173 1_555
O9 Sr3 2.550173 1_555
O9 Sr2 2.748795 1_555
O9 Sr7 2.748795 1_555
O10 Sr11 2.431612 1_565
O10 Sr8 2.754409 1_555
O10 Sr7 2.853961 1_565
O10 Sr5 2.912056 1_555
O11 Sr11 2.521916 1_565
O11 Sr6 2.641915 1_556
O11 Sr9 2.706066 1_566
O11 Sr5 2.771999 1_556
O12 Sr8 2.557634 1_555
O12 Sr6 2.580423 1_555
O12 Sr3 2.655654 1_555
O12 Sr5 2.673968 1_555
O13 Sr9 2.472667 1_555
O13 Sr0 2.676991 1_545
O13 Sr3 2.695673 1_555
O13 Sr7 2.881488 1_555
O14 Sr3 2.521916 1_555
O14 Sr9 2.641915 1_555
O14 Sr6 2.706065 1_555
O14 Sr4 2.771999 1_554
O15 Sr3 2.431612 1_555
O15 Sr7 2.754408 1_555
O15 Sr8 2.853960 1_555
O15 Sr4 2.912056 1_555
O16 Sr8 2.557634 1_555
O16 Sr6 2.580423 1_556
O16 Sr4 2.655654 1_555
O16 Sr10 2.673968 1_555
O17 Sr6 2.472667 1_556
O17 Sr10 2.676991 1_555
O17 Sr11 2.695673 1_565
O17 Sr8 2.881488 1_555
O18 Sr6 2.472667 1_555
O18 Sr5 2.676991 1_555
O18 Sr0 2.695673 1_655
O18 Sr8 2.881488 1_555
O19 Sr7 2.557634 1_555
O19 Sr9 2.580423 1_556
O19 Sr11 2.655654 1_555
O19 Sr4 2.673968 1_555
O20 Sr0 2.521916 1_655
O20 Sr6 2.641915 1_555
O20 Sr1 2.706066 1_655
O20 Sr10 2.771999 1_554
O21 Sr0 2.431612 1_655
O21 Sr8 2.754409 1_555
O21 Sr2 2.853961 1_655
O21 Sr10 2.912056 1_555
O22 Sr5 2.431612 1_545
O22 Sr2 2.754408 1_655
O22 Sr7 2.853960 1_555
O22 Sr11 2.912056 1_555
O23 Sr5 2.521916 1_545
O23 Sr1 2.641915 1_655
O23 Sr9 2.706065 1_555
O23 Sr11 2.771999 1_554
O24 Sr2 2.557634 1_655
O24 Sr1 2.580423 1_656
O24 Sr10 2.655654 1_555
O24 Sr11 2.673968 1_555
O25 Sr5 2.550173 1_545
O25 Sr11 2.550173 1_555
O25 Sr8 2.748795 1_545
O25 Sr2 2.748795 1_655
O26 Sr1 2.472667 1_655
O26 Sr3 2.676991 1_655
O26 Sr5 2.695673 1_545
O26 Sr2 2.881488 1_655
