# generated using pymatgen
data_Li6MnS4
_symmetry_space_group_name_H-M   'P 1'
_cell_length_a   8.01416210
_cell_length_b   8.01416210
_cell_length_c   5.75655003
_cell_angle_alpha   90.00000000
_cell_angle_beta   90.00000000
_cell_angle_gamma   90.00000000
_symmetry_Int_Tables_number   1
_chemical_formula_structural   Li6MnS4
_chemical_formula_sum   'Li12 Mn2 S8'
_cell_volume   369.72475388
_cell_formula_units_Z   2
loop_
 _symmetry_equiv_pos_site_id
 _symmetry_equiv_pos_as_xyz
  1  'x, y, z'
loop_
 _atom_site_type_symbol
 _atom_site_label
 _atom_site_symmetry_multiplicity
 _atom_site_fract_x
 _atom_site_fract_y
 _atom_site_fract_z
 _atom_site_occupancy
  Li  Li0  1  0.27247952  0.27247952  0.50000000  1
  Li  Li1  1  0.72752048  0.27247952  0.50000000  1
  Li  Li2  1  -0.00000000  0.50000000  0.46040726  1
  Li  Li3  1  -0.00000000  0.50000000  0.96040726  1
  Li  Li4  1  0.27247952  0.72752048  0.50000000  1
  Li  Li5  1  0.72752048  0.72752048  0.50000000  1
  Li  Li6  1  0.77247952  0.77247952  0.00000000  1
  Li  Li7  1  0.22752048  0.77247952  0.00000000  1
  Li  Li8  1  0.50000000  0.00000000  0.03959274  1
  Li  Li9  1  0.50000000  0.00000000  0.53959274  1
  Li  Li10  1  0.77247952  0.22752048  0.00000000  1
  Li  Li11  1  0.22752048  0.22752048  0.00000000  1
  Mn  Mn0  1  0.50000000  0.50000000  0.00000000  1
  Mn  Mn1  1  -0.00000000  0.00000000  0.50000000  1
  S  S0  1  -0.00000000  0.25782938  0.71716699  1
  S  S1  1  0.75782938  0.50000000  0.21716699  1
  S  S2  1  0.24217062  0.50000000  0.21716699  1
  S  S3  1  -0.00000000  0.74217062  0.71716699  1
  S  S4  1  0.50000000  0.75782938  0.78283301  1
  S  S5  1  0.74217062  0.00000000  0.28283301  1
  S  S6  1  0.25782938  0.00000000  0.28283301  1
  S  S7  1  0.50000000  0.24217062  0.78283301  1
loop_
_geom_bond_atom_site_label_1
_geom_bond_atom_site_label_2
_geom_bond_distance
_geom_bond_site_symmetry_2
Li0 S2 2.456539 1_555
Li0 S7 2.456539 1_555
Li0 S6 2.518956 1_555
Li0 S0 2.518956 1_555
Li1 S1 2.456539 1_555
Li1 S7 2.456539 1_555
Li1 S5 2.518956 1_555
Li1 S0 2.518956 1_655
Li2 S2 2.393181 1_555
Li2 S1 2.393181 1_455
Li2 S3 2.439532 1_555
Li2 S0 2.439532 1_555
Li3 S3 2.393181 1_555
Li3 S0 2.393181 1_555
Li3 S1 2.439532 1_456
Li3 S2 2.439532 1_556
Li4 S2 2.456539 1_555
Li4 S4 2.456539 1_555
Li4 S6 2.518956 1_565
Li4 S3 2.518956 1_555
Li5 S4 2.456539 1_555
Li5 S1 2.456539 1_555
Li5 S5 2.518956 1_565
Li5 S3 2.518956 1_655
Li6 S5 2.456539 1_565
Li6 S3 2.456539 1_654
Li6 S4 2.518956 1_554
Li6 S1 2.518956 1_555
Li7 S3 2.456539 1_554
Li7 S6 2.456539 1_565
Li7 S4 2.518956 1_554
Li7 S2 2.518956 1_555
Li8 S5 2.393181 1_555
Li8 S6 2.393181 1_555
Li8 S7 2.439532 1_554
Li8 S4 2.439532 1_544
Li9 S4 2.393181 1_545
Li9 S7 2.393181 1_555
Li9 S6 2.439532 1_555
Li9 S5 2.439532 1_555
Li10 S0 2.456539 1_654
Li10 S5 2.456539 1_555
Li10 S7 2.518956 1_554
Li10 S1 2.518956 1_555
Li11 S0 2.456539 1_554
Li11 S6 2.456539 1_555
Li11 S7 2.518956 1_554
Li11 S2 2.518956 1_555
Mn0 S1 2.415030 1_555
Mn0 S7 2.415030 1_554
Mn0 S2 2.415030 1_555
Mn0 S4 2.415030 1_554
Mn1 S5 2.415030 1_455
Mn1 S3 2.415030 1_545
Mn1 S6 2.415030 1_555
Mn1 S0 2.415030 1_555
