# generated using pymatgen
data_Li2CoP2O7
_symmetry_space_group_name_H-M   'P 1'
_cell_length_a   18.12743400
_cell_length_b   7.89689400
_cell_length_c   8.25535941
_cell_angle_alpha   87.22201620
_cell_angle_beta   90.00000000
_cell_angle_gamma   90.00000000
_symmetry_Int_Tables_number   1
_chemical_formula_structural   Li2CoP2O7
_chemical_formula_sum   'Li16 Co8 P16 O56'
_cell_volume   1180.36944537
_cell_formula_units_Z   8
loop_
 _symmetry_equiv_pos_site_id
 _symmetry_equiv_pos_as_xyz
  1  'x, y, z'
loop_
 _atom_site_type_symbol
 _atom_site_label
 _atom_site_symmetry_multiplicity
 _atom_site_fract_x
 _atom_site_fract_y
 _atom_site_fract_z
 _atom_site_occupancy
  Li  Li0  1  0.45711500  0.64766300  0.98924100  1
  Li  Li1  1  0.69684400  0.15500800  0.99245700  1
  Li  Li2  1  0.21637000  0.38213500  0.94106800  1
  Li  Li3  1  0.89691500  0.66820300  0.88982600  1
  Li  Li4  1  0.42480100  0.09320200  0.87373700  1
  Li  Li5  1  0.63214600  0.38605400  0.74365800  1
  Li  Li6  1  0.05606300  0.11422400  0.73345400  1
  Li  Li7  1  0.81505500  0.81284300  0.48089500  1
  Li  Li8  1  0.31505500  0.18715700  0.51910500  1
  Li  Li9  1  0.55606300  0.88577600  0.26654600  1
  Li  Li10  1  0.13214600  0.61394600  0.25634200  1
  Li  Li11  1  0.92480100  0.90679800  0.12626300  1
  Li  Li12  1  0.39691500  0.33179700  0.11017400  1
  Li  Li13  1  0.71637000  0.61786500  0.05893200  1
  Li  Li14  1  0.19684400  0.84499200  0.00754300  1
  Li  Li15  1  0.95711500  0.35233700  0.01075900  1
  Co  Co0  1  0.46422000  0.88878200  0.57547700  1
  Co  Co1  1  0.20911500  0.57807400  0.58377300  1
  Co  Co2  1  0.70736100  0.09293400  0.59356400  1
  Co  Co3  1  0.95837300  0.41736000  0.60609700  1
  Co  Co4  1  0.45837300  0.58264000  0.39390300  1
  Co  Co5  1  0.20736100  0.90706600  0.40643600  1
  Co  Co6  1  0.70911500  0.42192600  0.41622700  1
  Co  Co7  1  0.96422000  0.11121800  0.42452300  1
  P  P0  1  0.58720200  0.93470500  0.86040100  1
  P  P1  1  0.08017400  0.55314500  0.86479100  1
  P  P2  1  0.36779800  0.55395200  0.74865600  1
  P  P3  1  0.79939100  0.38145900  0.78774400  1
  P  P4  1  0.30154400  0.89793300  0.75391600  1
  P  P5  1  0.86932200  0.04902800  0.76722900  1
  P  P6  1  0.62792700  0.73752800  0.57269900  1
  P  P7  1  0.04739400  0.76601800  0.57468300  1
  P  P8  1  0.54739400  0.23398200  0.42531700  1
  P  P9  1  0.12792700  0.26247200  0.42730100  1
  P  P10  1  0.36932200  0.95097200  0.23277100  1
  P  P11  1  0.80154400  0.10206700  0.24608400  1
  P  P12  1  0.29939100  0.61854100  0.21225600  1
  P  P13  1  0.86779800  0.44604800  0.25134400  1
  P  P14  1  0.58017400  0.44685500  0.13520900  1
  P  P15  1  0.08720200  0.06529500  0.13959900  1
  O  O0  1  0.59029200  0.88570300  0.03943700  1
  O  O1  1  0.08904800  0.59124300  0.04073100  1
  O  O2  1  0.40715700  0.45601400  0.88847400  1
  O  O3  1  0.75176800  0.45044000  0.91926300  1
  O  O4  1  0.90251500  0.92337200  0.89405900  1
  O  O5  1  0.34133800  0.72670500  0.83445000  1
  O  O6  1  0.26260700  0.98682600  0.88674200  1
  O  O7  1  0.83394200  0.20330500  0.86636400  1
  O  O8  1  0.50708900  0.96447200  0.79786700  1
  O  O9  1  0.15097200  0.48563600  0.78568900  1
  O  O10  1  0.01216500  0.44056200  0.83146000  1
  O  O11  1  0.64233900  0.07761900  0.80929700  1
  O  O12  1  0.61458200  0.77064800  0.76414600  1
  O  O13  1  0.06321000  0.73479000  0.76919200  1
  O  O14  1  0.80881300  0.96491600  0.66879000  1
  O  O15  1  0.86409300  0.49910600  0.73611500  1
  O  O16  1  0.36431100  0.01070700  0.67765800  1
  O  O17  1  0.30264000  0.45435100  0.68251800  1
  O  O18  1  0.42005600  0.63307500  0.61818600  1
  O  O19  1  0.75452200  0.31979600  0.64510300  1
  O  O20  1  0.24901200  0.82450800  0.62971700  1
  O  O21  1  0.92757500  0.14854700  0.66254300  1
  O  O22  1  0.66885300  0.57009800  0.58708600  1
  O  O23  1  0.02894800  0.95254800  0.56224900  1
  O  O24  1  0.48321800  0.34587300  0.47311800  1
  O  O25  1  0.55206000  0.72480600  0.48953800  1
  O  O26  1  0.61993200  0.27024100  0.51440600  1
  O  O27  1  0.67544700  0.87765000  0.49364900  1
  O  O28  1  0.17544700  0.12235000  0.50635100  1
  O  O29  1  0.11993200  0.72975900  0.48559400  1
  O  O30  1  0.05206000  0.27519400  0.51046200  1
  O  O31  1  0.98321800  0.65412700  0.52688200  1
  O  O32  1  0.52894800  0.04745200  0.43775100  1
  O  O33  1  0.16885300  0.42990200  0.41291400  1
  O  O34  1  0.42757500  0.85145300  0.33745700  1
  O  O35  1  0.74901200  0.17549200  0.37028300  1
  O  O36  1  0.25452200  0.68020400  0.35489700  1
  O  O37  1  0.92005600  0.36692500  0.38181400  1
  O  O38  1  0.80264000  0.54564900  0.31748200  1
  O  O39  1  0.86431100  0.98929300  0.32234200  1
  O  O40  1  0.36409300  0.50089400  0.26388500  1
  O  O41  1  0.30881300  0.03508400  0.33121000  1
  O  O42  1  0.56321000  0.26521000  0.23080800  1
  O  O43  1  0.11458200  0.22935200  0.23585400  1
  O  O44  1  0.14233900  0.92238100  0.19070300  1
  O  O45  1  0.51216500  0.55943800  0.16854000  1
  O  O46  1  0.65097200  0.51436400  0.21431100  1
  O  O47  1  0.00708900  0.03552800  0.20213300  1
  O  O48  1  0.33394200  0.79669500  0.13363600  1
  O  O49  1  0.76260700  0.01317400  0.11325800  1
  O  O50  1  0.84133800  0.27329500  0.16555000  1
  O  O51  1  0.40251500  0.07662800  0.10594100  1
  O  O52  1  0.25176800  0.54956000  0.08073700  1
  O  O53  1  0.90715700  0.54398600  0.11152600  1
  O  O54  1  0.58904800  0.40875700  0.95926900  1
  O  O55  1  0.09029200  0.11429700  0.96056300  1
loop_
_geom_bond_atom_site_label_1
_geom_bond_atom_site_label_2
_geom_bond_distance
_geom_bond_site_symmetry_2
Li0 O45 1.890025 1_556
Li0 O2 1.981072 1_555
Li1 O49 1.887298 1_556
Li1 O11 1.930173 1_555
Li2 O9 1.901884 1_555
Li2 O52 1.907095 1_556
Li3 O15 1.977774 1_555
Li3 O4 2.019591 1_555
Li3 O53 2.042633 1_556
Li4 O8 1.926785 1_545
Li4 O51 1.957199 1_556
Li4 O16 2.085469 1_555
Li5 O54 1.960011 1_555
Li5 O22 2.010890 1_555
Li5 O26 2.152904 1_555
Li5 O19 2.428606 1_555
Li5 O11 2.476361 1_555
Li6 O55 1.974900 1_555
Li6 O23 2.011008 1_545
Li6 O30 2.187037 1_555
Li6 O21 2.413659 1_455
Li7 O14 2.010367 1_555
Li7 O39 2.067677 1_555
Li7 O38 2.568767 1_555
Li7 O27 2.585119 1_555
Li8 O41 2.010367 1_555
Li8 O16 2.067677 1_555
Li8 O17 2.568767 1_555
Li8 O28 2.585119 1_555
Li9 O0 1.974900 1_555
Li9 O32 2.011008 1_565
Li9 O25 2.187037 1_555
Li9 O34 2.413659 1_555
Li10 O1 1.960011 1_555
Li10 O33 2.010890 1_555
Li10 O29 2.152904 1_555
Li10 O36 2.428606 1_555
Li10 O44 2.476361 1_555
Li11 O47 1.926785 1_665
Li11 O4 1.957199 1_554
Li11 O39 2.085469 1_555
Li12 O40 1.977774 1_555
Li12 O51 2.019591 1_555
Li12 O2 2.042633 1_554
Li13 O46 1.901884 1_555
Li13 O3 1.907095 1_554
Li14 O6 1.887298 1_554
Li14 O44 1.930173 1_555
Li15 O10 1.890025 1_654
Li15 O53 1.981072 1_555
Co0 O32 2.025189 1_565
Co0 O8 2.106677 1_555
Co0 O34 2.108389 1_555
Co0 O18 2.184895 1_555
Co0 O25 2.191942 1_555
Co0 O16 2.235484 1_565
Co1 O33 2.012785 1_555
Co1 O9 2.074685 1_555
Co1 O17 2.101468 1_555
Co1 O20 2.127352 1_555
Co1 O29 2.147374 1_555
Co1 O36 2.179517 1_555
Co2 O27 2.010278 1_545
Co2 O19 2.048236 1_555
Co2 O35 2.067908 1_555
Co2 O11 2.134206 1_555
Co2 O14 2.174621 1_545
Co2 O26 2.193313 1_555
Co3 O31 2.001958 1_555
Co3 O37 2.034883 1_555
Co3 O10 2.116303 1_655
Co3 O15 2.134671 1_555
Co3 O30 2.203147 1_655
Co3 O21 2.222424 1_555
Co4 O24 2.001958 1_555
Co4 O18 2.034883 1_555
Co4 O45 2.116303 1_555
Co4 O40 2.134671 1_555
Co4 O25 2.203147 1_555
Co4 O34 2.222424 1_555
Co5 O28 2.010278 1_565
Co5 O36 2.048236 1_555
Co5 O20 2.067908 1_555
Co5 O44 2.134206 1_555
Co5 O41 2.174621 1_565
Co5 O29 2.193313 1_555
Co6 O22 2.012785 1_555
Co6 O46 2.074685 1_555
Co6 O38 2.101468 1_555
Co6 O35 2.127352 1_555
Co6 O26 2.147374 1_555
Co6 O19 2.179517 1_555
Co7 O23 2.025189 1_645
Co7 O47 2.106677 1_655
Co7 O21 2.108389 1_555
Co7 O37 2.184895 1_555
Co7 O30 2.191942 1_655
Co7 O39 2.235484 1_545
O0 P0 1.510610 1_554
O1 P1 1.506105 1_554
O2 P2 1.533937 1_555
O3 P3 1.509353 1_555
O4 P5 1.530441 1_565
O5 P2 1.639033 1_555
O5 P4 1.644262 1_555
O6 P4 1.505971 1_555
O7 P5 1.631571 1_555
O7 P3 1.644470 1_555
O8 P0 1.555316 1_555
O9 P1 1.546435 1_555
O10 P1 1.552325 1_555
O11 P0 1.550646 1_545
O12 P0 1.629717 1_555
O12 P6 1.632440 1_555
O13 P1 1.632565 1_555
O13 P7 1.637997 1_555
O14 P5 1.535267 1_565
O15 P3 1.543390 1_555
O16 P4 1.558742 1_545
O17 P2 1.534108 1_555
O18 P2 1.543584 1_555
O19 P3 1.529994 1_555
O20 P4 1.533591 1_555
O21 P5 1.553627 1_555
O22 P6 1.515727 1_555
O23 P7 1.509119 1_555
O24 P8 1.524345 1_555
O25 P6 1.542554 1_555
O26 P8 1.540240 1_555
O27 P6 1.523915 1_555
O28 P9 1.523915 1_555
O29 P7 1.540240 1_555
O30 P9 1.542554 1_555
O31 P7 1.524345 1_655
O32 P8 1.509119 1_555
O33 P9 1.515727 1_555
O34 P10 1.553627 1_555
O35 P11 1.533591 1_555
O36 P12 1.529994 1_555
O37 P13 1.543584 1_555
O38 P13 1.534108 1_555
O39 P11 1.558742 1_565
O40 P12 1.543390 1_555
O41 P10 1.535267 1_545
O42 P14 1.632565 1_555
O42 P8 1.637997 1_555
O43 P15 1.629717 1_555
O43 P9 1.632440 1_555
O44 P15 1.550646 1_565
O45 P14 1.552325 1_555
O46 P14 1.546435 1_555
O47 P15 1.555316 1_555
O48 P10 1.631571 1_555
O48 P12 1.644470 1_555
O49 P11 1.505971 1_555
O50 P13 1.639033 1_555
O50 P11 1.644262 1_555
O51 P10 1.530441 1_545
O52 P12 1.509353 1_555
O53 P13 1.533937 1_555
O54 P14 1.506105 1_556
O55 P15 1.510610 1_556
