# generated using pymatgen
data_LiV2(PO4)3
_symmetry_space_group_name_H-M   'P 1'
_cell_length_a   8.63004500
_cell_length_b   8.68360800
_cell_length_c   14.63168873
_cell_angle_alpha   54.80450556
_cell_angle_beta   90.00000000
_cell_angle_gamma   90.00000000
_symmetry_Int_Tables_number   1
_chemical_formula_structural   LiV2(PO4)3
_chemical_formula_sum   'Li4 V8 P12 O48'
_cell_volume   896.04719936
_cell_formula_units_Z   4
loop_
 _symmetry_equiv_pos_site_id
 _symmetry_equiv_pos_as_xyz
  1  'x, y, z'
loop_
 _atom_site_type_symbol
 _atom_site_label
 _atom_site_symmetry_multiplicity
 _atom_site_fract_x
 _atom_site_fract_y
 _atom_site_fract_z
 _atom_site_occupancy
  Li  Li0  1  0.70743400  0.32409900  0.76180500  1
  Li  Li1  1  0.20743400  0.67590100  0.73819500  1
  Li  Li2  1  0.79256600  0.32409900  0.26180500  1
  Li  Li3  1  0.29256600  0.67590100  0.23819500  1
  V  V0  1  0.02735200  0.36543000  0.88602800  1
  V  V1  1  0.96474100  0.86882300  0.38326200  1
  V  V2  1  0.46474100  0.13117700  0.11673800  1
  V  V3  1  0.52735200  0.63457000  0.61397200  1
  V  V4  1  0.47264800  0.36543000  0.38602800  1
  V  V5  1  0.53525900  0.86882300  0.88326200  1
  V  V6  1  0.03525900  0.13117700  0.61673800  1
  V  V7  1  0.97264800  0.63457000  0.11397200  1
  P  P0  1  0.24663400  0.53659000  0.49519800  1
  P  P1  1  0.38633700  0.24919300  0.85481400  1
  P  P2  1  0.10661300  0.96414500  0.14629000  1
  P  P3  1  0.60661300  0.03585500  0.35371000  1
  P  P4  1  0.88633700  0.75080700  0.64518600  1
  P  P5  1  0.74663400  0.46341000  0.00480200  1
  P  P6  1  0.25336600  0.53659000  0.99519800  1
  P  P7  1  0.11366300  0.24919300  0.35481400  1
  P  P8  1  0.39338700  0.96414500  0.64629000  1
  P  P9  1  0.89338700  0.03585500  0.85371000  1
  P  P10  1  0.61366300  0.75080700  0.14518600  1
  P  P11  1  0.75336600  0.46341000  0.50480200  1
  O  O0  1  0.84294800  0.64491500  0.42520400  1
  O  O1  1  0.66426500  0.46614500  0.59551100  1
  O  O2  1  0.90397300  0.21901000  0.84993800  1
  O  O3  1  0.59915200  0.91496700  0.15556500  1
  O  O4  1  0.36365300  0.55580800  0.57089400  1
  O  O5  1  0.43003200  0.18252300  0.97536200  1
  O  O6  1  0.21804200  0.32663900  0.82866200  1
  O  O7  1  0.99498100  0.93905300  0.23639200  1
  O  O8  1  0.15127200  0.71728200  0.43427200  1
  O  O9  1  0.27819500  0.96082600  0.17677000  1
  O  O10  1  0.06156200  0.14216700  0.03395400  1
  O  O11  1  0.50229900  0.40830900  0.77472900  1
  O  O12  1  0.00229900  0.59169100  0.72527100  1
  O  O13  1  0.56156200  0.85783300  0.46604600  1
  O  O14  1  0.77819500  0.03917400  0.32323000  1
  O  O15  1  0.65127200  0.28271800  0.06572800  1
  O  O16  1  0.49498100  0.06094700  0.26360800  1
  O  O17  1  0.71804200  0.67336100  0.67133800  1
  O  O18  1  0.93003200  0.81747700  0.52463800  1
  O  O19  1  0.86365300  0.44419200  0.92910600  1
  O  O20  1  0.09915200  0.08503300  0.34443500  1
  O  O21  1  0.40397300  0.78099000  0.65006200  1
  O  O22  1  0.16426500  0.53385500  0.90448900  1
  O  O23  1  0.34294800  0.35508500  0.07479600  1
  O  O24  1  0.65705200  0.64491500  0.92520400  1
  O  O25  1  0.83573500  0.46614500  0.09551100  1
  O  O26  1  0.59602700  0.21901000  0.34993800  1
  O  O27  1  0.90084800  0.91496700  0.65556500  1
  O  O28  1  0.13634700  0.55580800  0.07089400  1
  O  O29  1  0.06996800  0.18252300  0.47536200  1
  O  O30  1  0.28195800  0.32663900  0.32866200  1
  O  O31  1  0.50501900  0.93905300  0.73639200  1
  O  O32  1  0.34872800  0.71728200  0.93427200  1
  O  O33  1  0.22180500  0.96082600  0.67677000  1
  O  O34  1  0.43843800  0.14216700  0.53395400  1
  O  O35  1  0.99770100  0.40830900  0.27472900  1
  O  O36  1  0.49770100  0.59169100  0.22527100  1
  O  O37  1  0.93843800  0.85783300  0.96604600  1
  O  O38  1  0.72180500  0.03917400  0.82323000  1
  O  O39  1  0.84872800  0.28271800  0.56572800  1
  O  O40  1  0.00501900  0.06094700  0.76360800  1
  O  O41  1  0.78195800  0.67336100  0.17133800  1
  O  O42  1  0.56996800  0.81747700  0.02463800  1
  O  O43  1  0.63634700  0.44419200  0.42910600  1
  O  O44  1  0.40084800  0.08503300  0.84443500  1
  O  O45  1  0.09602700  0.78099000  0.15006200  1
  O  O46  1  0.33573500  0.53385500  0.40448900  1
  O  O47  1  0.15705200  0.35508500  0.57479600  1
loop_
_geom_bond_atom_site_label_1
_geom_bond_atom_site_label_2
_geom_bond_distance
_geom_bond_site_symmetry_2
Li0 O11 1.965687 1_555
Li0 O2 2.004006 1_555
Li0 O1 2.029998 1_555
Li0 O38 2.093175 1_555
Li0 O17 2.516152 1_555
Li1 O12 1.965687 1_555
Li1 O21 2.004006 1_555
Li1 O22 2.029998 1_555
Li1 O33 2.093175 1_555
Li1 O6 2.516152 1_555
Li2 O35 1.965687 1_555
Li2 O26 2.004006 1_555
Li2 O25 2.029998 1_555
Li2 O14 2.093175 1_555
Li2 O41 2.516152 1_555
Li3 O36 1.965687 1_555
Li3 O45 2.004006 1_555
Li3 O46 2.029998 1_555
Li3 O9 2.093175 1_555
Li3 O30 2.516152 1_555
O0 P11 1.523892 1_555
O0 V1 1.971381 1_555
O1 P11 1.545867 1_555
O1 V3 2.015804 1_555
O2 P9 1.561962 1_555
O2 V0 1.950158 1_655
O3 P10 1.523267 1_555
O3 V2 1.990906 1_565
O4 P0 1.577167 1_555
O4 V3 1.832428 1_555
O5 P1 1.552844 1_555
O5 V2 1.871984 1_556
O6 P1 1.552900 1_555
O6 V0 1.962682 1_555
O7 P2 1.543535 1_655
O7 V1 1.883435 1_555
O8 P0 1.523662 1_555
O8 V1 1.935951 1_455
O9 P2 1.541933 1_555
O9 V2 2.013388 1_565
O10 P2 1.521031 1_545
O10 V0 1.921817 1_554
O11 P1 1.554781 1_555
O11 V3 2.027897 1_555
O12 P4 1.554781 1_455
O12 V0 2.027897 1_555
O13 P3 1.521031 1_565
O13 V3 1.921817 1_555
O14 P3 1.541933 1_555
O14 V1 2.013388 1_545
O15 P5 1.523662 1_555
O15 V2 1.935951 1_555
O16 P3 1.543535 1_555
O16 V2 1.883435 1_555
O17 P4 1.552900 1_555
O17 V3 1.962682 1_555
O18 P4 1.552844 1_555
O18 V1 1.871984 1_555
O19 P5 1.577167 1_556
O19 V0 1.832428 1_655
O20 P7 1.523267 1_555
O20 V1 1.990906 1_445
O21 P8 1.561962 1_555
O21 V3 1.950158 1_555
O22 P6 1.545867 1_555
O22 V0 2.015804 1_555
O23 P6 1.523892 1_554
O23 V2 1.971381 1_555
O24 P5 1.523892 1_556
O24 V5 1.971381 1_555
O25 P5 1.545867 1_555
O25 V7 2.015804 1_555
O26 P3 1.561962 1_555
O26 V4 1.950158 1_555
O27 P4 1.523267 1_555
O27 V6 1.990906 1_665
O28 P6 1.577167 1_554
O28 V7 1.832428 1_455
O29 P7 1.552844 1_555
O29 V6 1.871984 1_555
O30 P7 1.552900 1_555
O30 V4 1.962682 1_555
O31 P8 1.543535 1_555
O31 V5 1.883435 1_555
O32 P6 1.523662 1_555
O32 V5 1.935951 1_555
O33 P8 1.541933 1_555
O33 V6 2.013388 1_565
O34 P8 1.521031 1_545
O34 V4 1.921817 1_555
O35 P7 1.554781 1_655
O35 V7 2.027897 1_555
O36 P10 1.554781 1_555
O36 V4 2.027897 1_555
O37 P9 1.521031 1_565
O37 V7 1.921817 1_556
O38 P9 1.541933 1_555
O38 V5 2.013388 1_545
O39 P11 1.523662 1_555
O39 V6 1.935951 1_655
O40 P9 1.543535 1_455
O40 V6 1.883435 1_555
O41 P10 1.552900 1_555
O41 V7 1.962682 1_555
O42 P10 1.552844 1_555
O42 V5 1.871984 1_554
O43 P11 1.577167 1_555
O43 V4 1.832428 1_555
O44 P1 1.523267 1_555
O44 V5 1.990906 1_545
O45 P2 1.561962 1_555
O45 V7 1.950158 1_455
O46 P0 1.545867 1_555
O46 V4 2.015804 1_555
O47 P0 1.523892 1_555
O47 V6 1.971381 1_555
