# generated using pymatgen
data_Fe4O7F
_symmetry_space_group_name_H-M   'P 1'
_cell_length_a   5.54287530
_cell_length_b   5.54287530
_cell_length_c   8.94174260
_cell_angle_alpha   84.80813468
_cell_angle_beta   84.80813468
_cell_angle_gamma   71.08745362
_symmetry_Int_Tables_number   1
_chemical_formula_structural   Fe4O7F
_chemical_formula_sum   'Fe8 O14 F2'
_cell_volume   258.27812095
_cell_formula_units_Z   2
loop_
 _symmetry_equiv_pos_site_id
 _symmetry_equiv_pos_as_xyz
  1  'x, y, z'
loop_
 _atom_site_type_symbol
 _atom_site_label
 _atom_site_symmetry_multiplicity
 _atom_site_fract_x
 _atom_site_fract_y
 _atom_site_fract_z
 _atom_site_occupancy
  Fe  Fe0  1  0.86269800  0.86269800  0.61284800  1
  Fe  Fe1  1  0.63041900  0.63041900  0.87731400  1
  Fe  Fe2  1  0.50000000  0.50000000  0.50000000  1
  Fe  Fe3  1  0.73363600  0.73363600  0.24516600  1
  Fe  Fe4  1  0.26636400  0.26636400  0.75483400  1
  Fe  Fe5  1  0.36958100  0.36958100  0.12268600  1
  Fe  Fe6  1  0.13730200  0.13730200  0.38715200  1
  Fe  Fe7  1  0.00000000  0.00000000  0.00000000  1
  O  O0  1  0.94820500  0.55963500  0.74995700  1
  O  O1  1  0.81282000  0.18718000  0.50000000  1
  O  O2  1  0.55963500  0.94820500  0.74995700  1
  O  O3  1  0.71149100  0.71149100  0.46691200  1
  O  O4  1  0.48398300  0.48398300  0.71487900  1
  O  O5  1  0.21858800  0.21858800  0.96960300  1
  O  O6  1  0.51601700  0.51601700  0.28512100  1
  O  O7  1  0.78141200  0.78141200  0.03039700  1
  O  O8  1  0.28850900  0.28850900  0.53308800  1
  O  O9  1  0.44036500  0.05179500  0.25004300  1
  O  O10  1  0.18718000  0.81282000  0.50000000  1
  O  O11  1  0.69253900  0.30746100  0.00000000  1
  O  O12  1  0.05179500  0.44036500  0.25004300  1
  O  O13  1  0.30746100  0.69253900  0.00000000  1
  F  F0  1  0.97260800  0.97260800  0.22662900  1
  F  F1  1  0.02739200  0.02739200  0.77337100  1
loop_
_geom_bond_atom_site_label_1
_geom_bond_atom_site_label_2
_geom_bond_distance
_geom_bond_site_symmetry_2
Fe0 O10 1.931102 1_655
Fe0 O1 1.931102 1_565
Fe0 O2 1.940586 1_555
Fe0 O0 1.940586 1_555
Fe0 O3 1.989712 1_555
Fe1 O2 1.955328 1_555
Fe1 O0 1.955328 1_555
Fe1 O13 1.959572 1_556
Fe1 O11 1.959572 1_556
Fe1 O7 2.035525 1_556
Fe1 O4 2.069072 1_555
Fe2 O8 1.897697 1_555
Fe2 O3 1.897697 1_555
Fe2 O6 1.910727 1_555
Fe2 O4 1.910727 1_555
Fe2 O10 2.015942 1_555
Fe2 O1 2.015942 1_555
Fe3 O7 1.920835 1_555
Fe3 O6 1.955725 1_555
Fe3 O3 1.970605 1_555
Fe3 O12 1.974107 1_655
Fe3 O9 1.974107 1_565
Fe4 O5 1.920835 1_555
Fe4 O4 1.955725 1_555
Fe4 O8 1.970605 1_555
Fe4 O0 1.974107 1_455
Fe4 O2 1.974107 1_545
Fe5 O9 1.955328 1_555
Fe5 O12 1.955328 1_555
Fe5 O11 1.959572 1_555
Fe5 O13 1.959572 1_555
Fe5 O5 2.035525 1_554
Fe5 O6 2.069072 1_555
Fe6 O10 1.931102 1_545
Fe6 O1 1.931102 1_455
Fe6 O12 1.940586 1_555
Fe6 O9 1.940586 1_555
Fe6 O8 1.989712 1_555
Fe7 O7 1.960173 1_445
Fe7 O5 1.960173 1_554
Fe7 O11 1.981406 1_455
Fe7 O13 1.981406 1_545
F0 Fe7 2.014004 1_665
F0 Fe3 2.143472 1_555
F0 Fe6 2.177485 1_665
F1 Fe7 2.014004 1_556
F1 Fe4 2.143472 1_555
F1 Fe0 2.177485 1_445
