# generated using pymatgen
data_Mn3Cr2Cu(PO4)6
_symmetry_space_group_name_H-M   'P 1'
_cell_length_a   8.40978172
_cell_length_b   8.40978172
_cell_length_c   8.40978122
_cell_angle_alpha   61.64823861
_cell_angle_beta   61.64823861
_cell_angle_gamma   61.64823504
_symmetry_Int_Tables_number   1
_chemical_formula_structural   Mn3Cr2Cu(PO4)6
_chemical_formula_sum   'Mn3 Cr2 Cu1 P6 O24'
_cell_volume   436.11516600
_cell_formula_units_Z   1
loop_
 _symmetry_equiv_pos_site_id
 _symmetry_equiv_pos_as_xyz
  1  'x, y, z'
loop_
 _atom_site_type_symbol
 _atom_site_label
 _atom_site_symmetry_multiplicity
 _atom_site_fract_x
 _atom_site_fract_y
 _atom_site_fract_z
 _atom_site_occupancy
  Mn  Mn0  1  0.85658600  0.85658600  0.85658600  1
  Mn  Mn1  1  0.64412100  0.64412100  0.64412100  1
  Mn  Mn2  1  0.35547900  0.35547900  0.35547900  1
  Cr  Cr0  1  0.00195400  0.00195400  0.00195400  1
  Cr  Cr1  1  0.50006100  0.50006100  0.50006100  1
  Cu  Cu0  1  0.14602700  0.14602700  0.14602700  1
  P  P0  1  0.95257000  0.24891900  0.54740100  1
  P  P1  1  0.54740100  0.95257000  0.24891900  1
  P  P2  1  0.24891900  0.54740100  0.95257000  1
  P  P3  1  0.75085600  0.45375300  0.04478000  1
  P  P4  1  0.45375300  0.04478000  0.75085600  1
  P  P5  1  0.04478000  0.75085600  0.45375300  1
  O  O0  1  0.88955400  0.67882500  0.49410800  1
  O  O1  1  0.67882500  0.49410800  0.88955400  1
  O  O2  1  0.93732900  0.09530200  0.75267600  1
  O  O3  1  0.49410800  0.88955400  0.67882500  1
  O  O4  1  0.98096600  0.18234500  0.39492700  1
  O  O5  1  0.74881100  0.40911600  0.56366600  1
  O  O6  1  0.75267600  0.93732900  0.09530200  1
  O  O7  1  0.56366600  0.74881100  0.40911600  1
  O  O8  1  0.81705800  0.60941300  0.01114900  1
  O  O9  1  0.40911600  0.56366600  0.74881100  1
  O  O10  1  0.90346200  0.25058600  0.05881900  1
  O  O11  1  0.60941300  0.01114900  0.81705800  1
  O  O12  1  0.39492700  0.98096600  0.18234500  1
  O  O13  1  0.09530200  0.75267600  0.93732900  1
  O  O14  1  0.59254900  0.44029100  0.24907400  1
  O  O15  1  0.18234500  0.39492700  0.98096600  1
  O  O16  1  0.44029100  0.24907400  0.59254900  1
  O  O17  1  0.25058600  0.05881900  0.90346200  1
  O  O18  1  0.24907400  0.59254900  0.44029100  1
  O  O19  1  0.01114900  0.81705800  0.60941300  1
  O  O20  1  0.51122100  0.10894200  0.31730300  1
  O  O21  1  0.05881900  0.90346200  0.25058600  1
  O  O22  1  0.31730300  0.51122100  0.10894200  1
  O  O23  1  0.10894200  0.31730300  0.51122100  1
loop_
_geom_bond_atom_site_label_1
_geom_bond_atom_site_label_2
_geom_bond_distance
_geom_bond_site_symmetry_2
Mn0 O19 1.949524 1_655
Mn0 O11 1.949524 1_565
Mn0 O8 1.949524 1_556
Mn0 O6 2.078441 1_556
Mn0 O13 2.078441 1_655
Mn0 O2 2.078441 1_565
Mn1 O1 1.919975 1_555
Mn1 O3 1.919975 1_555
Mn1 O0 1.919975 1_555
Mn1 O7 2.047076 1_555
Mn1 O5 2.047076 1_555
Mn1 O9 2.047076 1_555
Mn2 O22 1.941879 1_555
Mn2 O20 1.941879 1_555
Mn2 O23 1.941879 1_555
Mn2 O16 2.081897 1_555
Mn2 O18 2.081897 1_555
Mn2 O14 2.081897 1_555
Cr0 O21 2.053139 1_545
Cr0 O10 2.053139 1_455
Cr0 O17 2.053139 1_554
Cr0 O2 2.102443 1_454
Cr0 O13 2.102443 1_544
Cr0 O6 2.102443 1_445
Cr1 O14 2.095223 1_555
Cr1 O18 2.095223 1_555
Cr1 O16 2.095223 1_555
Cr1 O9 2.098067 1_555
Cr1 O5 2.098067 1_555
Cr1 O7 2.098067 1_555
Cu0 O4 1.961253 1_455
Cu0 O12 1.961253 1_545
Cu0 O15 1.961253 1_554
Cu0 O17 2.139425 1_554
Cu0 O10 2.139425 1_455
Cu0 O21 2.139425 1_545
O0 P5 1.523570 1_655
O1 P3 1.523570 1_556
O2 P0 1.579402 1_555
O3 P4 1.523570 1_565
O4 P0 1.509550 1_555
O5 P0 1.590550 1_555
O6 P1 1.579402 1_555
O7 P1 1.590550 1_555
O8 P3 1.514800 1_555
O9 P2 1.590550 1_555
O10 P3 1.565243 1_555
O11 P4 1.514800 1_555
O12 P1 1.509550 1_555
O13 P2 1.579402 1_555
O14 P3 1.588399 1_555
O15 P2 1.509550 1_555
O16 P4 1.588399 1_555
O17 P4 1.565243 1_555
O18 P5 1.588399 1_555
O19 P5 1.514800 1_555
O20 P1 1.524713 1_545
O21 P5 1.565243 1_555
O22 P2 1.524713 1_554
O23 P0 1.524714 1_455
