# generated using pymatgen
data_Zr2Fe2F3
_symmetry_space_group_name_H-M   'P 1'
_cell_length_a   6.62505018
_cell_length_b   6.62505018
_cell_length_c   5.77572734
_cell_angle_alpha   79.02802760
_cell_angle_beta   79.02802760
_cell_angle_gamma   76.83498167
_symmetry_Int_Tables_number   1
_chemical_formula_structural   Zr2Fe2F3
_chemical_formula_sum   'Zr4 Fe4 F6'
_cell_volume   239.44774770
_cell_formula_units_Z   2
loop_
 _symmetry_equiv_pos_site_id
 _symmetry_equiv_pos_as_xyz
  1  'x, y, z'
loop_
 _atom_site_type_symbol
 _atom_site_label
 _atom_site_symmetry_multiplicity
 _atom_site_fract_x
 _atom_site_fract_y
 _atom_site_fract_z
 _atom_site_occupancy
  Zr  Zr0  1  0.11568600  0.11568600  0.85076600  1
  Zr  Zr1  1  0.32782300  0.69038800  0.52873000  1
  Zr  Zr2  1  0.69038800  0.32782300  0.52873000  1
  Zr  Zr3  1  0.71803900  0.71803900  0.88280500  1
  Fe  Fe0  1  0.04774300  0.40151100  0.21069700  1
  Fe  Fe1  1  0.75175400  0.75175400  0.38365100  1
  Fe  Fe2  1  0.01986000  0.01986000  0.42949300  1
  Fe  Fe3  1  0.40151100  0.04774300  0.21069700  1
  F  F0  1  0.33777400  0.33777400  0.70312300  1
  F  F1  1  0.56055500  0.24707700  0.26562800  1
  F  F2  1  0.24707700  0.56055500  0.26562800  1
  F  F3  1  0.35342200  0.77369000  0.86598500  1
  F  F4  1  0.77369000  0.35342200  0.86598500  1
  F  F5  1  0.90267700  0.90267700  0.00808200  1
loop_
_geom_bond_atom_site_label_1
_geom_bond_atom_site_label_2
_geom_bond_distance
_geom_bond_site_symmetry_2
Fe2 Zr1 2.682538 1_545
Fe2 Zr2 2.682538 1_455
Fe2 Zr0 2.843575 1_555
F0 Zr0 2.255614 1_555
F0 Zr2 2.352790 1_555
F0 Zr1 2.352790 1_555
F1 Fe3 1.968615 1_555
F1 Zr2 2.086101 1_555
F2 Fe0 1.968615 1_555
F2 Zr1 2.086101 1_555
F3 Zr1 2.169150 1_555
F3 Zr3 2.377085 1_555
F3 Zr0 2.444040 1_565
F4 Zr2 2.169150 1_555
F4 Zr3 2.377085 1_555
F4 Zr0 2.444040 1_655
F5 Zr0 2.177035 1_664
F5 Zr3 2.207166 1_554
F5 Fe1 2.347131 1_555
