# generated using pymatgen
data_Li2MnO2F
_symmetry_space_group_name_H-M   'P 1'
_cell_length_a   4.88985800
_cell_length_b   5.62695200
_cell_length_c   8.56331800
_cell_angle_alpha   90.00000000
_cell_angle_beta   90.00000000
_cell_angle_gamma   90.00000000
_symmetry_Int_Tables_number   1
_chemical_formula_structural   Li2MnO2F
_chemical_formula_sum   'Li8 Mn4 O8 F4'
_cell_volume   235.61966268
_cell_formula_units_Z   4
loop_
 _symmetry_equiv_pos_site_id
 _symmetry_equiv_pos_as_xyz
  1  'x, y, z'
loop_
 _atom_site_type_symbol
 _atom_site_label
 _atom_site_symmetry_multiplicity
 _atom_site_fract_x
 _atom_site_fract_y
 _atom_site_fract_z
 _atom_site_occupancy
  Li  Li0  1  0.70194300  0.12750400  0.42289300  1
  Li  Li1  1  0.70194300  0.12750400  0.07710700  1
  Li  Li2  1  0.20194300  0.37249600  0.57710700  1
  Li  Li3  1  0.20194300  0.37249600  0.92289300  1
  Li  Li4  1  0.79805700  0.62750400  0.07710700  1
  Li  Li5  1  0.79805700  0.62750400  0.42289300  1
  Li  Li6  1  0.29805700  0.87249600  0.57710700  1
  Li  Li7  1  0.29805700  0.87249600  0.92289300  1
  Mn  Mn0  1  0.74583900  0.12638500  0.75000000  1
  Mn  Mn1  1  0.24583900  0.37361500  0.25000000  1
  Mn  Mn2  1  0.75416100  0.62638500  0.75000000  1
  Mn  Mn3  1  0.25416100  0.87361500  0.25000000  1
  O  O0  1  0.27712400  0.12432900  0.09619200  1
  O  O1  1  0.27712400  0.12432900  0.40380800  1
  O  O2  1  0.77712400  0.37567100  0.90380800  1
  O  O3  1  0.77712400  0.37567100  0.59619200  1
  O  O4  1  0.22287600  0.62432900  0.09619200  1
  O  O5  1  0.22287600  0.62432900  0.40380800  1
  O  O6  1  0.72287600  0.87567100  0.59619200  1
  O  O7  1  0.72287600  0.87567100  0.90380800  1
  F  F0  1  0.26261600  0.13411200  0.75000000  1
  F  F1  1  0.76261600  0.36588800  0.25000000  1
  F  F2  1  0.23738400  0.63411200  0.75000000  1
  F  F3  1  0.73738400  0.86588800  0.25000000  1
loop_
_geom_bond_atom_site_label_1
_geom_bond_atom_site_label_2
_geom_bond_distance
_geom_bond_site_symmetry_2
Li0 O6 2.054462 1_545
Li0 O3 2.070615 1_555
Li0 O1 2.083800 1_555
Li1 O7 2.054462 1_544
Li1 O2 2.070615 1_554
Li1 O0 2.083800 1_555
Li2 O5 2.054462 1_555
Li2 O1 2.070615 1_555
Li2 O3 2.083800 1_455
Li3 O4 2.054462 1_556
Li3 O0 2.070615 1_556
Li3 O2 2.083800 1_455
Li4 O2 2.054462 1_554
Li4 O7 2.070615 1_554
Li4 O4 2.083800 1_655
Li5 O3 2.054462 1_555
Li5 O6 2.070615 1_555
Li5 O5 2.083800 1_655
Li6 O1 2.054462 1_565
Li6 O5 2.070615 1_555
Li6 O6 2.083800 1_555
Li7 O0 2.054462 1_566
Li7 O4 2.070615 1_556
Li7 O7 2.083800 1_555
Mn0 O2 1.930232 1_555
Mn0 O3 1.930232 1_555
Mn0 O7 1.933290 1_545
Mn0 O6 1.933290 1_545
Mn1 O0 1.930232 1_555
Mn1 O1 1.930232 1_555
Mn1 O4 1.933290 1_555
Mn1 O5 1.933290 1_555
Mn2 O7 1.930232 1_555
Mn2 O6 1.930232 1_555
Mn2 O2 1.933290 1_555
Mn2 O3 1.933290 1_555
Mn3 O4 1.930232 1_555
Mn3 O5 1.930232 1_555
Mn3 O0 1.933290 1_565
Mn3 O1 1.933290 1_565
F0 Li3 2.019728 1_555
F0 Li2 2.019728 1_555
F0 Li7 2.095019 1_545
F0 Li6 2.095019 1_545
F0 Mn0 2.363292 1_555
F0 Mn0 2.527340 1_455
F1 Li0 2.019728 1_555
F1 Li1 2.019728 1_555
F1 Li5 2.095019 1_555
F1 Li4 2.095019 1_555
F1 Mn1 2.363292 1_655
F1 Mn1 2.527340 1_555
F2 Li7 2.019728 1_555
F2 Li6 2.019728 1_555
F2 Li3 2.095019 1_555
F2 Li2 2.095019 1_555
F2 Mn2 2.363292 1_455
F2 Mn2 2.527340 1_555
F3 Li5 2.019728 1_555
F3 Li4 2.019728 1_555
F3 Li0 2.095019 1_565
F3 Li1 2.095019 1_565
F3 Mn3 2.363292 1_555
F3 Mn3 2.527340 1_655
