# generated using pymatgen
data_K2ZrSi3(HO5)2
_symmetry_space_group_name_H-M   'P 1'
_cell_length_a   7.29170500
_cell_length_b   10.44431200
_cell_length_c   13.50854500
_cell_angle_alpha   90.00000000
_cell_angle_beta   90.00000000
_cell_angle_gamma   90.00000000
_symmetry_Int_Tables_number   1
_chemical_formula_structural   K2ZrSi3(HO5)2
_chemical_formula_sum   'K8 Zr4 Si12 H8 O40'
_cell_volume   1028.76812765
_cell_formula_units_Z   4
loop_
 _symmetry_equiv_pos_site_id
 _symmetry_equiv_pos_as_xyz
  1  'x, y, z'
loop_
 _atom_site_type_symbol
 _atom_site_label
 _atom_site_symmetry_multiplicity
 _atom_site_fract_x
 _atom_site_fract_y
 _atom_site_fract_z
 _atom_site_occupancy
  K  K0  1  0.77825200  0.92934400  0.07764400  1
  K  K1  1  0.27825200  0.57065600  0.92235600  1
  K  K2  1  0.22174800  0.42934400  0.42235600  1
  K  K3  1  0.72174800  0.07065600  0.57764400  1
  K  K4  1  0.85920400  0.78152000  0.36854200  1
  K  K5  1  0.35920400  0.71848000  0.63145800  1
  K  K6  1  0.14079600  0.28152000  0.13145800  1
  K  K7  1  0.64079600  0.21848000  0.86854200  1
  Zr  Zr0  1  0.23986700  0.94762000  0.20714600  1
  Zr  Zr1  1  0.73986700  0.55238000  0.79285400  1
  Zr  Zr2  1  0.76013300  0.44762000  0.29285400  1
  Zr  Zr3  1  0.26013300  0.05238000  0.70714600  1
  Si  Si0  1  0.27037100  0.96869800  0.94842700  1
  Si  Si1  1  0.77037100  0.53130200  0.05157300  1
  Si  Si2  1  0.72962900  0.46869800  0.55157300  1
  Si  Si3  1  0.22962900  0.03130200  0.44842700  1
  Si  Si4  1  0.99494600  0.82687600  0.82591500  1
  Si  Si5  1  0.49494600  0.67312400  0.17408500  1
  Si  Si6  1  0.00505400  0.32687600  0.67408500  1
  Si  Si7  1  0.50505400  0.17312400  0.32591500  1
  Si  Si8  1  0.58280600  0.86357200  0.83260900  1
  Si  Si9  1  0.08280600  0.63642800  0.16739100  1
  Si  Si10  1  0.41719400  0.36357200  0.66739100  1
  Si  Si11  1  0.91719400  0.13642800  0.33260900  1
  H  H0  1  0.82916700  0.72891700  0.59149900  1
  H  H1  1  0.32916700  0.77108300  0.40850100  1
  H  H2  1  0.17083300  0.22891700  0.90850100  1
  H  H3  1  0.67083300  0.27108300  0.09149900  1
  H  H4  1  0.95928300  0.84288500  0.61973700  1
  H  H5  1  0.45928300  0.65711500  0.38026300  1
  H  H6  1  0.04071700  0.34288500  0.88026300  1
  H  H7  1  0.54071700  0.15711500  0.11973700  1
  O  O0  1  0.25373200  0.91861300  0.36549900  1
  O  O1  1  0.75373200  0.58138700  0.63450100  1
  O  O2  1  0.74626800  0.41861300  0.13450100  1
  O  O3  1  0.24626800  0.08138700  0.86549900  1
  O  O4  1  0.08847500  0.88895600  0.72759700  1
  O  O5  1  0.58847500  0.61104400  0.27240300  1
  O  O6  1  0.91152500  0.38895600  0.77240300  1
  O  O7  1  0.41152500  0.11104400  0.22759700  1
  O  O8  1  0.50040700  0.94347100  0.73937600  1
  O  O9  1  0.00040700  0.55652900  0.26062400  1
  O  O10  1  0.49959300  0.44347100  0.76062400  1
  O  O11  1  0.99959300  0.05652900  0.23937600  1
  O  O12  1  0.22787400  0.01326500  0.06051600  1
  O  O13  1  0.72787400  0.48673500  0.93948400  1
  O  O14  1  0.77212600  0.51326500  0.43948400  1
  O  O15  1  0.27212600  0.98673500  0.56051600  1
  O  O16  1  0.13067600  0.84740700  0.92240200  1
  O  O17  1  0.63067600  0.65259300  0.07759800  1
  O  O18  1  0.86932400  0.34740700  0.57759800  1
  O  O19  1  0.36932400  0.15259300  0.42240200  1
  O  O20  1  0.06202900  0.79000200  0.18482100  1
  O  O21  1  0.56202900  0.70999800  0.81517900  1
  O  O22  1  0.93797100  0.29000200  0.31517900  1
  O  O23  1  0.43797100  0.20999800  0.68482100  1
  O  O24  1  0.80034200  0.90184800  0.85303800  1
  O  O25  1  0.30034200  0.59815200  0.14696200  1
  O  O26  1  0.19965800  0.40184800  0.64696200  1
  O  O27  1  0.69965800  0.09815200  0.35303800  1
  O  O28  1  0.48223700  0.91070600  0.93717600  1
  O  O29  1  0.98223700  0.58929400  0.06282400  1
  O  O30  1  0.51776300  0.41070600  0.56282400  1
  O  O31  1  0.01776300  0.08929400  0.43717600  1
  O  O32  1  0.46116600  0.82569900  0.18650200  1
  O  O33  1  0.96116600  0.67430100  0.81349800  1
  O  O34  1  0.53883400  0.32569900  0.31349800  1
  O  O35  1  0.03883400  0.17430100  0.68650200  1
  O  O36  1  0.87416500  0.81361300  0.56692800  1
  O  O37  1  0.37416500  0.68638700  0.43307200  1
  O  O38  1  0.12583500  0.31361300  0.93307200  1
  O  O39  1  0.62583500  0.18638700  0.06692800  1
loop_
_geom_bond_atom_site_label_1
_geom_bond_atom_site_label_2
_geom_bond_distance
_geom_bond_site_symmetry_2
K0 O28 2.880519 1_554
K0 O39 2.909192 1_565
K0 O20 2.914754 1_655
K0 O32 2.946186 1_555
K0 O11 3.023670 1_565
K0 O24 3.051914 1_554
K0 O17 3.084281 1_555
K1 O29 2.880519 1_456
K1 O38 2.909192 1_555
K1 O21 2.914754 1_555
K1 O33 2.946186 1_455
K1 O10 3.023670 1_555
K1 O25 3.051914 1_556
K1 O16 3.084281 1_555
K2 O30 2.880519 1_555
K2 O37 2.909192 1_555
K2 O22 2.914754 1_455
K2 O34 2.946186 1_555
K2 O9 3.023670 1_555
K2 O26 3.051914 1_555
K2 O19 3.084281 1_555
K3 O31 2.880519 1_655
K3 O36 2.909192 1_545
K3 O23 2.914754 1_555
K3 O35 2.946186 1_655
K3 O8 3.023670 1_545
K3 O27 3.051914 1_555
K3 O18 3.084281 1_555
K4 O36 2.702989 1_555
K4 O20 2.890408 1_655
K4 O9 2.950803 1_655
K4 O5 2.958680 1_555
K4 O14 3.028412 1_555
K4 O0 3.213679 1_655
K5 O37 2.702989 1_555
K5 O21 2.890408 1_555
K5 O8 2.950803 1_555
K5 O4 2.958680 1_555
K5 O15 3.028412 1_555
K5 O1 3.213679 1_555
K6 O38 2.702989 1_554
K6 O22 2.890408 1_455
K6 O11 2.950803 1_455
K6 O7 2.958680 1_555
K6 O12 3.028412 1_555
K6 O2 3.213679 1_455
K7 O39 2.702989 1_556
K7 O23 2.890408 1_555
K7 O10 2.950803 1_555
K7 O6 2.958680 1_555
K7 O13 3.028412 1_555
K7 O3 3.213679 1_555
H0 O36 1.000165 1_555
H1 O37 1.000165 1_555
H2 O38 1.000165 1_555
H3 O39 1.000165 1_555
H4 O36 0.993772 1_555
H5 O37 0.993772 1_555
H6 O38 0.993772 1_555
H7 O39 0.993772 1_555
O0 Si3 1.634335 1_565
O0 Zr0 2.162830 1_555
O1 Si2 1.634335 1_555
O1 Zr1 2.162830 1_555
O2 Si1 1.634335 1_555
O2 Zr2 2.162830 1_555
O3 Si0 1.634335 1_545
O3 Zr3 2.162830 1_555
O4 Si4 1.627711 1_455
O4 Zr3 2.134564 1_565
O5 Si5 1.627711 1_555
O5 Zr2 2.134564 1_555
O6 Si6 1.627711 1_655
O6 Zr1 2.134564 1_555
O7 Si7 1.627711 1_555
O7 Zr0 2.134564 1_545
O8 Si8 1.625904 1_555
O8 Zr3 2.133763 1_565
O9 Si9 1.625904 1_555
O9 Zr2 2.133763 1_455
O10 Si10 1.625904 1_555
O10 Zr1 2.133763 1_555
O11 Si11 1.625904 1_555
O11 Zr0 2.133763 1_645
O12 Si0 1.614114 1_544
O12 Zr0 2.097885 1_545
O13 Si1 1.614114 1_556
O13 Zr1 2.097885 1_555
O14 Si2 1.614114 1_555
O14 Zr2 2.097885 1_555
O15 Si3 1.614114 1_565
O15 Zr3 2.097885 1_565
O16 Si4 1.650558 1_455
O16 Si0 1.663116 1_555
O17 Si5 1.650558 1_555
O17 Si1 1.663116 1_555
O18 Si6 1.650558 1_655
O18 Si2 1.663116 1_555
O19 Si7 1.650558 1_555
O19 Si3 1.663116 1_555
O20 Si9 1.628228 1_555
O20 Zr0 2.117192 1_555
O21 Si8 1.628228 1_555
O21 Zr1 2.117192 1_555
O22 Si11 1.628228 1_555
O22 Zr2 2.117192 1_555
O23 Si10 1.628228 1_555
O23 Zr3 2.117192 1_555
O24 Si8 1.658924 1_555
O24 Si4 1.661604 1_555
O25 Si9 1.658924 1_555
O25 Si5 1.661604 1_555
O26 Si10 1.658924 1_555
O26 Si6 1.661604 1_555
O27 Si11 1.658924 1_555
O27 Si7 1.661604 1_555
O28 Si8 1.665951 1_555
O28 Si0 1.666302 1_555
O29 Si9 1.665951 1_655
O29 Si1 1.666302 1_555
O30 Si10 1.665951 1_555
O30 Si2 1.666302 1_555
O31 Si11 1.665951 1_455
O31 Si3 1.666302 1_555
O32 Si5 1.621166 1_555
O32 Zr0 2.074397 1_555
O33 Si4 1.621166 1_555
O33 Zr1 2.074397 1_555
O34 Si7 1.621166 1_555
O34 Zr2 2.074397 1_555
O35 Si6 1.621166 1_555
O35 Zr3 2.074397 1_555
