# generated using pymatgen
data_Na4Mn2P(CO4)4
_symmetry_space_group_name_H-M   'P 1'
_cell_length_a   10.08192316
_cell_length_b   9.89652960
_cell_length_c   9.85657265
_cell_angle_alpha   61.38015313
_cell_angle_beta   59.50519587
_cell_angle_gamma   59.11465101
_symmetry_Int_Tables_number   1
_chemical_formula_structural   Na4Mn2P(CO4)4
_chemical_formula_sum   'Na8 Mn4 P2 C8 O32'
_cell_volume   694.77474549
_cell_formula_units_Z   2
loop_
 _symmetry_equiv_pos_site_id
 _symmetry_equiv_pos_as_xyz
  1  'x, y, z'
loop_
 _atom_site_type_symbol
 _atom_site_label
 _atom_site_symmetry_multiplicity
 _atom_site_fract_x
 _atom_site_fract_y
 _atom_site_fract_z
 _atom_site_occupancy
  Na  Na0  1  0.53947500  0.96052500  0.96052500  1
  Na  Na1  1  0.95616800  0.95616800  0.54383200  1
  Na  Na2  1  0.70616800  0.70616800  0.29383200  1
  Na  Na3  1  0.28947500  0.71052500  0.71052500  1
  Na  Na4  1  0.96052500  0.53947500  0.53947500  1
  Na  Na5  1  0.54383200  0.54383200  0.95616800  1
  Na  Na6  1  0.29383200  0.29383200  0.70616800  1
  Na  Na7  1  0.71052500  0.28947500  0.28947500  1
  Mn  Mn0  1  0.12500000  0.12500000  0.12500000  1
  Mn  Mn1  1  0.12500000  0.62500000  0.12500000  1
  Mn  Mn2  1  0.62500000  0.12500000  0.12500000  1
  Mn  Mn3  1  0.12500000  0.12500000  0.62500000  1
  P  P0  1  0.50000000  0.50000000  0.50000000  1
  P  P1  1  0.75000000  0.75000000  0.75000000  1
  C  C0  1  0.91297600  0.90036500  0.91880800  1
  C  C1  1  0.33119200  0.98214900  0.33702400  1
  C  C2  1  0.26785100  0.91880800  0.90036500  1
  C  C3  1  0.90036500  0.91297600  0.26785100  1
  C  C4  1  0.34963500  0.33702400  0.98214900  1
  C  C5  1  0.98214900  0.33119200  0.34963500  1
  C  C6  1  0.91880800  0.26785100  0.91297600  1
  C  C7  1  0.33702400  0.34963500  0.33119200  1
  O  O0  1  0.76609100  0.01469800  0.94607700  1
  O  O1  1  0.56643200  0.55940100  0.30954900  1
  O  O2  1  0.94003200  0.76488800  0.03763500  1
  O  O3  1  0.21236500  0.99255500  0.30996800  1
  O  O4  1  0.25744500  0.03763500  0.76488800  1
  O  O5  1  0.47452200  0.97047800  0.22696000  1
  O  O6  1  0.56461800  0.30954900  0.55940100  1
  O  O7  1  0.30954900  0.56461800  0.56643200  1
  O  O8  1  0.97047800  0.47452200  0.32804000  1
  O  O9  1  0.76488800  0.94003200  0.25744500  1
  O  O10  1  0.30392300  0.97686600  0.48390900  1
  O  O11  1  0.55940100  0.56643200  0.56461800  1
  O  O12  1  0.27313400  0.94607700  0.01469800  1
  O  O13  1  0.01469800  0.76609100  0.27313400  1
  O  O14  1  0.02304000  0.92196000  0.77547800  1
  O  O15  1  0.32804000  0.22696000  0.97047800  1
  O  O16  1  0.92196000  0.02304000  0.27952200  1
  O  O17  1  0.22696000  0.32804000  0.47452200  1
  O  O18  1  0.23530200  0.48390900  0.97686600  1
  O  O19  1  0.97686600  0.30392300  0.23530200  1
  O  O20  1  0.69059900  0.68356800  0.68538200  1
  O  O21  1  0.94607700  0.27313400  0.76609100  1
  O  O22  1  0.48511200  0.30996800  0.99255500  1
  O  O23  1  0.27952200  0.77547800  0.92196000  1
  O  O24  1  0.94045100  0.68538200  0.68356800  1
  O  O25  1  0.68538200  0.94045100  0.69059900  1
  O  O26  1  0.77547800  0.27952200  0.02304000  1
  O  O27  1  0.99255500  0.21236500  0.48511200  1
  O  O28  1  0.03763500  0.25744500  0.94003200  1
  O  O29  1  0.30996800  0.48511200  0.21236500  1
  O  O30  1  0.68356800  0.69059900  0.94045100  1
  O  O31  1  0.48390900  0.23530200  0.30392300  1
loop_
_geom_bond_atom_site_label_1
_geom_bond_atom_site_label_2
_geom_bond_distance
_geom_bond_site_symmetry_2
Na0 O30 2.348634 1_555
Na0 O25 2.348634 1_555
Na0 O15 2.402358 1_565
Na0 O5 2.402358 1_556
Na0 O12 2.526233 1_556
Na0 O0 2.526233 1_565
Na1 O24 2.404615 1_555
Na1 O25 2.404615 1_555
Na1 O3 2.496343 1_655
Na1 O27 2.496343 1_565
Na1 O16 2.523850 1_565
Na1 O14 2.523850 1_655
Na2 O11 2.404615 1_555
Na2 O1 2.404615 1_555
Na2 O9 2.496343 1_555
Na2 O2 2.496343 1_555
Na2 O5 2.523850 1_555
Na2 O8 2.523850 1_555
Na3 O11 2.348634 1_555
Na3 O7 2.348634 1_555
Na3 O14 2.402358 1_555
Na3 O23 2.402358 1_555
Na3 O10 2.526233 1_555
Na3 O18 2.526233 1_555
Na4 O24 2.348634 1_555
Na4 O20 2.348634 1_555
Na4 O8 2.402358 1_555
Na4 O17 2.402358 1_655
Na4 O21 2.526233 1_555
Na4 O13 2.526233 1_655
Na5 O30 2.404615 1_555
Na5 O20 2.404615 1_555
Na5 O22 2.496343 1_555
Na5 O29 2.496343 1_556
Na5 O23 2.523850 1_555
Na5 O26 2.523850 1_556
Na6 O6 2.404615 1_555
Na6 O7 2.404615 1_555
Na6 O28 2.496343 1_555
Na6 O4 2.496343 1_555
Na6 O17 2.523850 1_555
Na6 O15 2.523850 1_555
Na7 O1 2.348634 1_555
Na7 O6 2.348634 1_555
Na7 O26 2.402358 1_555
Na7 O16 2.402358 1_555
Na7 O19 2.526233 1_555
Na7 O31 2.526233 1_555
Mn0 O3 1.993234 1_545
Mn0 O28 1.993234 1_554
Mn0 O19 2.007299 1_455
Mn0 O12 2.007299 1_545
Mn0 O16 2.238812 1_455
Mn0 O15 2.238812 1_554
Mn1 O29 1.993234 1_555
Mn1 O2 1.993234 1_455
Mn1 O13 2.007299 1_555
Mn1 O18 2.007299 1_554
Mn1 O23 2.238812 1_554
Mn1 O8 2.238812 1_455
Mn2 O22 1.993234 1_554
Mn2 O9 1.993234 1_545
Mn2 O31 2.007299 1_555
Mn2 O0 2.007299 1_554
Mn2 O26 2.238812 1_555
Mn2 O5 2.238812 1_545
Mn3 O4 1.993234 1_555
Mn3 O27 1.993234 1_455
Mn3 O21 2.007299 1_455
Mn3 O10 2.007299 1_545
Mn3 O14 2.238812 1_545
Mn3 O17 2.238812 1_555
C0 O14 1.279075 1_655
C0 O2 1.299314 1_556
C0 O0 1.308688 1_565
C1 O5 1.279075 1_555
C1 O3 1.299314 1_555
C1 O10 1.308688 1_555
C2 O23 1.279075 1_555
C2 O4 1.299314 1_565
C2 O12 1.308688 1_556
C3 O16 1.279075 1_565
C3 O9 1.299314 1_555
C3 O13 1.308688 1_655
C4 O15 1.279075 1_555
C4 O22 1.299314 1_555
C4 O18 1.308688 1_555
C5 O8 1.279075 1_555
C5 O27 1.299314 1_555
C5 O19 1.308688 1_555
C6 O26 1.279075 1_556
C6 O28 1.299314 1_655
C6 O21 1.308688 1_555
C7 O17 1.279075 1_555
C7 O29 1.299314 1_555
C7 O31 1.308688 1_555
O1 P0 1.545650 1_555
O6 P0 1.545650 1_555
O7 P0 1.545650 1_555
O11 P0 1.545650 1_555
O20 P1 1.545650 1_555
O24 P1 1.545650 1_555
O25 P1 1.545650 1_555
O30 P1 1.545650 1_555
