# generated using pymatgen
data_Cr4OF11
_symmetry_space_group_name_H-M   'P 1'
_cell_length_a   5.06494076
_cell_length_b   5.33361746
_cell_length_c   16.90602164
_cell_angle_alpha   91.03389967
_cell_angle_beta   97.96394963
_cell_angle_gamma   62.08000428
_symmetry_Int_Tables_number   1
_chemical_formula_structural   Cr4OF11
_chemical_formula_sum   'Cr8 O2 F22'
_cell_volume   399.08259406
_cell_formula_units_Z   2
loop_
 _symmetry_equiv_pos_site_id
 _symmetry_equiv_pos_as_xyz
  1  'x, y, z'
loop_
 _atom_site_type_symbol
 _atom_site_label
 _atom_site_symmetry_multiplicity
 _atom_site_fract_x
 _atom_site_fract_y
 _atom_site_fract_z
 _atom_site_occupancy
  Cr  Cr0  1  0.74384300  0.61493900  0.12899700  1
  Cr  Cr1  1  0.75615700  0.13506100  0.62100300  1
  Cr  Cr2  1  0.50192800  0.75330800  0.74961400  1
  Cr  Cr3  1  0.50792300  0.25992500  0.24731000  1
  Cr  Cr4  1  0.25000000  0.87500000  0.37500000  1
  Cr  Cr5  1  0.25000000  0.37500000  0.87500000  1
  Cr  Cr6  1  0.99207700  0.49007500  0.50269000  1
  Cr  Cr7  1  0.99807200  0.99669200  0.00038600  1
  O  O0  1  0.68627600  0.46772500  0.21814800  1
  O  O1  1  0.81372400  0.28227500  0.53185200  1
  F  F0  1  0.81395900  0.77882700  0.03491400  1
  F  F1  1  0.74329300  0.93703900  0.18695400  1
  F  F2  1  0.75670700  0.81296100  0.56304600  1
  F  F3  1  0.75181900  0.31222700  0.06250300  1
  F  F4  1  0.68604100  0.97117300  0.71508600  1
  F  F5  1  0.68516200  0.65886600  0.40865000  1
  F  F6  1  0.81436300  0.59240000  0.84258800  1
  F  F7  1  0.81483800  0.09113400  0.34135000  1
  F  F8  1  0.31466300  0.84163100  0.09304600  1
  F  F9  1  0.74818100  0.43777300  0.68749700  1
  F  F10  1  0.25739200  0.56128100  0.31190200  1
  F  F11  1  0.68563700  0.15760000  0.90741200  1
  F  F12  1  0.18533700  0.90836900  0.65695400  1
  F  F13  1  0.18307900  0.40827700  0.15676200  1
  F  F14  1  0.18109900  0.71322200  0.46764400  1
  F  F15  1  0.31406800  0.53309500  0.78146000  1
  F  F16  1  0.31692100  0.34172300  0.59323800  1
  F  F17  1  0.31890100  0.03677700  0.28235600  1
  F  F18  1  0.24483900  0.68769600  0.93737300  1
  F  F19  1  0.24260800  0.18871900  0.43809800  1
  F  F20  1  0.25516100  0.06230400  0.81262700  1
  F  F21  1  0.18593200  0.21690500  0.96854000  1
loop_
_geom_bond_atom_site_label_1
_geom_bond_atom_site_label_2
_geom_bond_distance
_geom_bond_site_symmetry_2
Cr0 O0 1.830853 1_555
Cr0 F8 1.937957 1_555
Cr0 F3 1.938587 1_555
Cr0 F13 1.953841 1_655
Cr0 F1 1.961369 1_555
Cr0 F0 1.979271 1_555
Cr1 O1 1.830853 1_555
Cr1 F12 1.937957 1_645
Cr1 F9 1.938587 1_555
Cr1 F16 1.953841 1_555
Cr1 F2 1.961369 1_545
Cr1 F4 1.979271 1_545
Cr2 F4 1.936668 1_555
Cr2 F15 1.945787 1_555
Cr2 F20 1.946722 1_565
Cr2 F6 1.949093 1_555
Cr2 F12 1.953967 1_555
Cr2 F9 1.955559 1_555
Cr3 O0 1.835270 1_555
Cr3 F1 1.944017 1_545
Cr3 F10 1.948515 1_555
Cr3 F13 1.950165 1_555
Cr3 F7 1.952132 1_555
Cr3 F17 1.983403 1_555
Cr4 F17 1.949780 1_565
Cr4 F14 1.949783 1_555
Cr4 F5 1.951223 1_555
Cr4 F7 1.951223 1_465
Cr4 F10 1.956298 1_555
Cr4 F19 1.956298 1_565
Cr5 F15 1.940018 1_555
Cr5 F21 1.940018 1_555
Cr5 F18 1.948721 1_555
Cr5 F20 1.948721 1_555
Cr5 F11 1.950705 1_555
Cr5 F6 1.950705 1_455
Cr6 O1 1.835270 1_555
Cr6 F2 1.944017 1_555
Cr6 F19 1.948515 1_655
Cr6 F16 1.950165 1_655
Cr6 F5 1.952132 1_555
Cr6 F14 1.983398 1_655
Cr7 F0 1.936668 1_555
Cr7 F21 1.945787 1_664
Cr7 F18 1.946722 1_654
Cr7 F11 1.949093 1_564
Cr7 F8 1.953967 1_655
Cr7 F3 1.955559 1_565
