# generated using pymatgen
data_Li3Cu2SbO6
_symmetry_space_group_name_H-M   'P 1'
_cell_length_a   5.17544842
_cell_length_b   5.17544842
_cell_length_c   9.90253500
_cell_angle_alpha   88.22180317
_cell_angle_beta   91.77819683
_cell_angle_gamma   65.17541729
_symmetry_Int_Tables_number   1
_chemical_formula_structural   Li3Cu2SbO6
_chemical_formula_sum   'Li6 Cu4 Sb2 O12'
_cell_volume   240.33311554
_cell_formula_units_Z   2
loop_
 _symmetry_equiv_pos_site_id
 _symmetry_equiv_pos_as_xyz
  1  'x, y, z'
loop_
 _atom_site_type_symbol
 _atom_site_label
 _atom_site_symmetry_multiplicity
 _atom_site_fract_x
 _atom_site_fract_y
 _atom_site_fract_z
 _atom_site_occupancy
  Li  Li0  1  0.32012300  0.84495900  0.99859600  1
  Li  Li1  1  0.15504100  0.67987700  0.49859600  1
  Li  Li2  1  0.91052600  0.91052600  0.75000000  1
  Li  Li3  1  0.08947400  0.08947400  0.25000000  1
  Li  Li4  1  0.84495900  0.32012300  0.50140400  1
  Li  Li5  1  0.67987700  0.15504100  0.00140400  1
  Cu  Cu0  1  0.00000000  0.50000000  0.00000000  1
  Cu  Cu1  1  0.58773600  0.58773600  0.75000000  1
  Cu  Cu2  1  0.41226400  0.41226400  0.25000000  1
  Cu  Cu3  1  0.50000000  0.00000000  0.50000000  1
  Sb  Sb0  1  0.24890200  0.24890200  0.75000000  1
  Sb  Sb1  1  0.75109800  0.75109800  0.25000000  1
  O  O0  1  0.57177600  0.92013300  0.85141700  1
  O  O1  1  0.30140800  0.53454000  0.87008500  1
  O  O2  1  0.07986700  0.42822400  0.35141700  1
  O  O3  1  0.98753700  0.20810100  0.88578100  1
  O  O4  1  0.46546000  0.69859200  0.37008500  1
  O  O5  1  0.79189900  0.01246300  0.38578100  1
  O  O6  1  0.20810100  0.98753700  0.61421900  1
  O  O7  1  0.53454000  0.30140800  0.62991500  1
  O  O8  1  0.01246300  0.79189900  0.11421900  1
  O  O9  1  0.92013300  0.57177600  0.64858300  1
  O  O10  1  0.69859200  0.46546000  0.12991500  1
  O  O11  1  0.42822400  0.07986700  0.14858300  1
loop_
_geom_bond_atom_site_label_1
_geom_bond_atom_site_label_2
_geom_bond_distance
_geom_bond_site_symmetry_2
Li0 O8 2.093438 1_556
Li0 O1 2.111818 1_555
Li0 O0 2.116577 1_555
Li0 O11 2.151434 1_566
Li0 O3 2.185645 1_465
Li0 O10 2.416268 1_556
Li1 O6 2.093438 1_555
Li1 O4 2.111818 1_555
Li1 O2 2.116577 1_555
Li1 O9 2.151434 1_455
Li1 O5 2.185645 1_465
Li1 O7 2.416268 1_555
Li2 O0 2.030736 1_555
Li2 O9 2.030736 1_555
Li2 O3 2.224696 1_565
Li2 O6 2.224696 1_655
Li2 O1 2.386363 1_655
Li2 O7 2.386363 1_565
Li3 O2 2.030736 1_555
Li3 O11 2.030736 1_555
Li3 O5 2.224696 1_455
Li3 O8 2.224696 1_545
Li3 O4 2.386363 1_545
Li3 O10 2.386363 1_455
Li4 O5 2.093438 1_555
Li4 O7 2.111818 1_555
Li4 O9 2.116577 1_555
Li4 O2 2.151434 1_655
Li4 O6 2.185645 1_645
Li4 O4 2.416268 1_555
Li5 O3 2.093438 1_554
Li5 O10 2.111818 1_555
Li5 O11 2.116577 1_555
Li5 O0 2.151434 1_544
Li5 O8 2.185645 1_645
Li5 O1 2.416268 1_554
Cu0 O8 1.936241 1_555
Cu0 O3 1.936241 1_454
Cu0 O10 2.113003 1_455
Cu0 O1 2.113003 1_554
Cu1 O9 1.991961 1_555
Cu1 O0 1.991961 1_555
Cu1 O7 2.029147 1_555
Cu1 O1 2.029147 1_555
Cu1 O3 2.489849 1_555
Cu1 O6 2.489849 1_555
Cu2 O2 1.991961 1_555
Cu2 O11 1.991961 1_555
Cu2 O4 2.029147 1_555
Cu2 O10 2.029147 1_555
Cu2 O8 2.489849 1_555
Cu2 O5 2.489849 1_555
Cu3 O5 1.936241 1_555
Cu3 O6 1.936241 1_545
Cu3 O4 2.113003 1_545
Cu3 O7 2.113003 1_555
O0 Sb0 2.024458 1_565
O1 Sb0 2.024761 1_555
O2 Sb1 2.024458 1_455
O3 Sb0 2.004325 1_655
O4 Sb1 2.024761 1_555
O5 Sb1 2.004325 1_545
O6 Sb0 2.004325 1_565
O7 Sb0 2.024761 1_555
O8 Sb1 2.004325 1_455
O9 Sb0 2.024458 1_655
O10 Sb1 2.024761 1_555
O11 Sb1 2.024458 1_545
