# generated using pymatgen
data_Li2Fe3CuO8
_symmetry_space_group_name_H-M   'P 1'
_cell_length_a   5.89414891
_cell_length_b   5.86246753
_cell_length_c   5.97364767
_cell_angle_alpha   60.90324016
_cell_angle_beta   61.35359617
_cell_angle_gamma   90.51701625
_symmetry_Int_Tables_number   1
_chemical_formula_structural   Li2Fe3CuO8
_chemical_formula_sum   'Li2 Fe3 Cu1 O8'
_cell_volume   150.18872698
_cell_formula_units_Z   1
loop_
 _symmetry_equiv_pos_site_id
 _symmetry_equiv_pos_as_xyz
  1  'x, y, z'
loop_
 _atom_site_type_symbol
 _atom_site_label
 _atom_site_symmetry_multiplicity
 _atom_site_fract_x
 _atom_site_fract_y
 _atom_site_fract_z
 _atom_site_occupancy
  Li  Li0  1  0.50002400  0.00003500  0.00000200  1
  Li  Li1  1  0.49996200  0.49995800  0.49999900  1
  Fe  Fe0  1  0.99999400  0.99998700  0.50000800  1
  Fe  Fe1  1  0.00000900  0.50000600  0.99999600  1
  Fe  Fe2  1  0.99999500  0.50003100  0.49997700  1
  Cu  Cu0  1  0.00000100  0.99996500  0.00003200  1
  O  O0  1  0.21211500  0.22297700  0.02381600  1
  O  O1  1  0.21044400  0.75528000  0.02429500  1
  O  O2  1  0.21600100  0.26115900  0.51374000  1
  O  O3  1  0.21583800  0.72622600  0.52296500  1
  O  O4  1  0.78416200  0.27377700  0.47703500  1
  O  O5  1  0.78398400  0.73884000  0.48625600  1
  O  O6  1  0.78957900  0.24474200  0.97568400  1
  O  O7  1  0.78789000  0.77701900  0.97619400  1
loop_
_geom_bond_atom_site_label_1
_geom_bond_atom_site_label_2
_geom_bond_distance
_geom_bond_site_symmetry_2
Li0 O6 2.123045 1_554
Li0 O1 2.123433 1_545
Li0 O0 2.144199 1_555
Li0 O7 2.144287 1_544
Li0 O4 2.280094 1_554
Li0 O3 2.280110 1_545
Li1 O2 2.117104 1_555
Li1 O5 2.117680 1_555
Li1 O3 2.140025 1_555
Li1 O4 2.140029 1_555
Li1 O0 2.285808 1_556
Li1 O7 2.285816 1_554
Fe0 O5 2.039376 1_555
Fe0 O2 2.039393 1_665
Fe0 O3 2.050163 1_655
Fe0 O4 2.050243 1_565
Fe0 O7 2.075488 1_555
Fe0 O0 2.075504 1_665
Fe1 O6 2.037028 1_455
Fe1 O1 2.037035 1_556
Fe1 O7 2.050169 1_455
Fe1 O0 2.050189 1_556
Fe1 O3 2.077433 1_555
Fe1 O4 2.077462 1_456
Fe2 O5 1.899582 1_555
Fe2 O2 1.899829 1_655
Fe2 O3 1.926130 1_655
Fe2 O4 1.926139 1_555
Fe2 O1 2.074559 1_655
Fe2 O6 2.074693 1_555
Cu0 O7 1.901004 1_454
Cu0 O0 1.901061 1_565
Cu0 O1 1.902499 1_555
Cu0 O6 1.902814 1_464
Cu0 O5 2.120259 1_455
Cu0 O2 2.120582 1_564
