# generated using pymatgen
data_Li3V(TeO3)4
_symmetry_space_group_name_H-M   'P 1'
_cell_length_a   5.51790600
_cell_length_b   6.22886306
_cell_length_c   8.07051917
_cell_angle_alpha   95.29923221
_cell_angle_beta   91.94101846
_cell_angle_gamma   95.98252425
_symmetry_Int_Tables_number   1
_chemical_formula_structural   Li3V(TeO3)4
_chemical_formula_sum   'Li3 V1 Te4 O12'
_cell_volume   274.43108461
_cell_formula_units_Z   1
loop_
 _symmetry_equiv_pos_site_id
 _symmetry_equiv_pos_as_xyz
  1  'x, y, z'
loop_
 _atom_site_type_symbol
 _atom_site_label
 _atom_site_symmetry_multiplicity
 _atom_site_fract_x
 _atom_site_fract_y
 _atom_site_fract_z
 _atom_site_occupancy
  Li  Li0  1  0.46730000  0.98545800  0.77369000  1
  Li  Li1  1  0.99203400  0.40891200  0.77772800  1
  Li  Li2  1  0.47716000  0.99298800  0.27489200  1
  V  V0  1  0.00491600  0.37131400  0.29349700  1
  Te  Te0  1  0.01226900  0.98131400  0.98970200  1
  Te  Te1  1  0.49399800  0.49920200  0.50354500  1
  Te  Te2  1  0.94856600  0.00464300  0.51746100  1
  Te  Te3  1  0.53730400  0.50518000  0.94929900  1
  O  O0  1  0.32547800  0.22819600  0.39874700  1
  O  O1  1  0.11559000  0.05401500  0.77179200  1
  O  O2  1  0.31530600  0.89246300  0.04741900  1
  O  O3  1  0.22850400  0.61824500  0.39419200  1
  O  O4  1  0.82503100  0.67307800  0.87537600  1
  O  O5  1  0.33855900  0.53444300  0.74535300  1
  O  O6  1  0.76080600  0.52090500  0.27156500  1
  O  O7  1  0.11443400  0.33162100  0.09167600  1
  O  O8  1  0.90805900  0.31088400  0.54532800  1
  O  O9  1  0.66011300  0.24804400  0.87267200  1
  O  O10  1  0.85241700  0.08072800  0.27640400  1
  O  O11  1  0.62215400  0.89916700  0.55926100  1
loop_
_geom_bond_atom_site_label_1
_geom_bond_atom_site_label_2
_geom_bond_distance
_geom_bond_site_symmetry_2
Li0 O9 1.945159 1_565
Li0 O11 2.009459 1_555
Li0 O1 2.029991 1_565
Li0 O2 2.485925 1_556
Li1 O8 1.943189 1_555
Li1 O5 2.023780 1_655
Li1 O4 2.074485 1_555
Li1 O9 2.190879 1_555
Li1 O1 2.377118 1_655
Li2 O0 1.971773 1_565
Li2 O2 2.029773 1_555
Li2 O10 2.085071 1_565
Li2 O11 2.543519 1_555
O0 Te1 1.945598 1_555
O0 V0 2.238698 1_555
O0 Te2 2.638197 1_455
O1 Te0 1.945289 1_545
O1 Te2 2.203006 1_455
O2 Te0 1.872712 1_554
O3 Te1 1.932502 1_555
O3 V0 1.963139 1_555
O4 Te3 1.950280 1_555
O4 Te0 2.190823 1_655
O5 Te3 1.979859 1_555
O5 Te1 2.160035 1_555
O6 V0 1.729112 1_655
O6 Te1 2.425452 1_555
O7 V0 1.761461 1_555
O7 Te0 2.266439 1_544
O8 Te2 1.937075 1_555
O8 V0 2.175076 1_655
O8 Te1 2.699864 1_555
O9 Te3 1.865115 1_555
O10 V0 1.905731 1_655
O10 Te2 2.108002 1_555
O10 Te0 2.550047 1_644
O11 Te2 1.903912 1_565
O11 Te1 2.512621 1_555
