# generated using pymatgen
data_Na5Mn2P2(CO7)2
_symmetry_space_group_name_H-M   'P 1'
_cell_length_a   6.73180500
_cell_length_b   9.00593521
_cell_length_c   15.68195613
_cell_angle_alpha   90.68923374
_cell_angle_beta   90.12285279
_cell_angle_gamma   90.20423343
_symmetry_Int_Tables_number   1
_chemical_formula_structural   Na5Mn2P2(CO7)2
_chemical_formula_sum   'Na15 Mn6 P6 C6 O42'
_cell_volume   950.66030278
_cell_formula_units_Z   3
loop_
 _symmetry_equiv_pos_site_id
 _symmetry_equiv_pos_as_xyz
  1  'x, y, z'
loop_
 _atom_site_type_symbol
 _atom_site_label
 _atom_site_symmetry_multiplicity
 _atom_site_fract_x
 _atom_site_fract_y
 _atom_site_fract_z
 _atom_site_occupancy
  Na  Na0  1  0.25965900  0.07236400  0.74568400  1
  Na  Na1  1  0.00953900  0.25021400  0.25073700  1
  Na  Na2  1  0.49058600  0.25014300  0.25055300  1
  Na  Na3  1  0.00514900  0.25661500  0.57858400  1
  Na  Na4  1  0.49377900  0.25667100  0.57723000  1
  Na  Na5  1  0.00583400  0.25250000  0.92459000  1
  Na  Na6  1  0.49348700  0.25338000  0.92562000  1
  Na  Na7  1  0.50261600  0.74929000  0.08083000  1
  Na  Na8  1  0.99871700  0.74952400  0.07936300  1
  Na  Na9  1  0.50222300  0.74827800  0.41999200  1
  Na  Na10  1  0.00091000  0.74945500  0.41905200  1
  Na  Na11  1  0.98567600  0.73588700  0.74856600  1
  Na  Na12  1  0.75038300  0.92130100  0.25380300  1
  Na  Na13  1  0.73981500  0.91521600  0.59342000  1
  Na  Na14  1  0.74005600  0.91647500  0.91601500  1
  Mn  Mn0  1  0.75005500  0.35964100  0.07682400  1
  Mn  Mn1  1  0.75162500  0.35798300  0.40460100  1
  Mn  Mn2  1  0.74741500  0.35749300  0.74009100  1
  Mn  Mn3  1  0.25044600  0.64621600  0.26101600  1
  Mn  Mn4  1  0.25816300  0.64688000  0.59810400  1
  Mn  Mn5  1  0.25535200  0.64802100  0.92248700  1
  P  P0  1  0.25005400  0.42401600  0.09913000  1
  P  P1  1  0.25107400  0.42113600  0.43121900  1
  P  P2  1  0.24713900  0.41589800  0.76579000  1
  P  P3  1  0.75039000  0.58602400  0.23404800  1
  P  P4  1  0.75198300  0.58461000  0.56453000  1
  P  P5  1  0.75205300  0.58028000  0.90161800  1
  C  C0  1  0.75006700  0.06145500  0.08945400  1
  C  C1  1  0.75022000  0.06316200  0.42316400  1
  C  C2  1  0.75374600  0.06556000  0.75693400  1
  C  C3  1  0.25019400  0.92472900  0.24260100  1
  C  C4  1  0.24651300  0.93486200  0.57744500  1
  C  C5  1  0.24588500  0.93403900  0.90689900  1
  O  O0  1  0.24930300  0.06392100  0.24257200  1
  O  O1  1  0.24874200  0.07664300  0.58058800  1
  O  O2  1  0.25078900  0.07581000  0.90482800  1
  O  O3  1  0.74924200  0.12334200  0.01478500  1
  O  O4  1  0.74979000  0.13096900  0.34933600  1
  O  O5  1  0.74640000  0.13501600  0.68327600  1
  O  O6  1  0.74986900  0.14660400  0.15756900  1
  O  O7  1  0.74980600  0.14423200  0.49210000  1
  O  O8  1  0.74479700  0.14688700  0.82628600  1
  O  O9  1  0.06314600  0.33266500  0.07711700  1
  O  O10  1  0.43650500  0.33311500  0.07737200  1
  O  O11  1  0.06347000  0.33019800  0.40623400  1
  O  O12  1  0.43962900  0.33193600  0.40691100  1
  O  O13  1  0.06423100  0.31583400  0.74366600  1
  O  O14  1  0.43229100  0.32213300  0.74087500  1
  O  O15  1  0.25006900  0.45409000  0.20019000  1
  O  O16  1  0.75005900  0.42907300  0.27301500  1
  O  O17  1  0.25068000  0.44912600  0.53053700  1
  O  O18  1  0.74802800  0.43141900  0.60803200  1
  O  O19  1  0.25064100  0.44463400  0.86563900  1
  O  O20  1  0.75119300  0.42742800  0.94533200  1
  O  O21  1  0.25042400  0.57661100  0.05488700  1
  O  O22  1  0.75027000  0.57244700  0.13511700  1
  O  O23  1  0.25104500  0.57525600  0.38695200  1
  O  O24  1  0.76024700  0.56112100  0.46499000  1
  O  O25  1  0.23864000  0.56603300  0.72131100  1
  O  O26  1  0.75792700  0.55509500  0.80344800  1
  O  O27  1  0.56611100  0.67905200  0.26275800  1
  O  O28  1  0.93518900  0.67931500  0.26308500  1
  O  O29  1  0.56543400  0.67993700  0.58370500  1
  O  O30  1  0.93522500  0.67930400  0.59233400  1
  O  O31  1  0.56810500  0.67504500  0.92849900  1
  O  O32  1  0.93631700  0.67721500  0.92789600  1
  O  O33  1  0.25018300  0.83866900  0.17525800  1
  O  O34  1  0.25065700  0.85546100  0.50846900  1
  O  O35  1  0.23205100  0.85340100  0.83825300  1
  O  O36  1  0.25126100  0.84874300  0.31492300  1
  O  O37  1  0.24205500  0.86200300  0.64964200  1
  O  O38  1  0.25736600  0.86050400  0.97911000  1
  O  O39  1  0.75101400  0.91922500  0.09651700  1
  O  O40  1  0.75098000  0.92064400  0.42592000  1
  O  O41  1  0.76791400  0.92482600  0.75876800  1
loop_
_geom_bond_atom_site_label_1
_geom_bond_atom_site_label_2
_geom_bond_distance
_geom_bond_site_symmetry_2
Na0 O37 2.408437 1_545
Na0 O35 2.469399 1_545
Na0 O2 2.496354 1_555
Na0 O14 2.530189 1_555
Na0 O13 2.561570 1_555
Na0 O1 2.590667 1_555
Na1 O0 2.334819 1_555
Na1 O16 2.403548 1_455
Na1 O6 2.450645 1_455
Na1 O11 2.559108 1_555
Na1 O4 2.576779 1_455
Na1 O15 2.576958 1_555
Na1 O9 2.854059 1_555
Na2 O0 2.332649 1_555
Na2 O16 2.394884 1_555
Na2 O6 2.456040 1_555
Na2 O12 2.575760 1_555
Na2 O4 2.576457 1_555
Na2 O15 2.582538 1_555
Na2 O10 2.848349 1_555
Na3 O1 2.310194 1_555
Na3 O18 2.385988 1_455
Na3 O7 2.400628 1_455
Na3 O17 2.514336 1_555
Na3 O5 2.640199 1_455
Na3 O13 2.665597 1_555
Na3 O11 2.818532 1_555
Na4 O1 2.309935 1_555
Na4 O18 2.366106 1_555
Na4 O7 2.401657 1_555
Na4 O17 2.502801 1_555
Na4 O5 2.627354 1_555
Na4 O14 2.659804 1_555
Na4 O12 2.787001 1_555
Na5 O2 2.314378 1_555
Na5 O20 2.352750 1_455
Na5 O8 2.512035 1_455
Na5 O9 2.518706 1_556
Na5 O3 2.524485 1_456
Na5 O19 2.566965 1_555
Na5 O13 2.927787 1_555
Na6 O2 2.302072 1_555
Na6 O20 2.351337 1_555
Na6 O8 2.489059 1_555
Na6 O10 2.508158 1_556
Na6 O3 2.516818 1_556
Na6 O19 2.564469 1_555
Na7 O39 2.273717 1_555
Na7 O21 2.330058 1_555
Na7 O33 2.391722 1_555
Na7 O22 2.467008 1_555
Na7 O38 2.512447 1_554
Na7 O31 2.513211 1_554
Na8 O39 2.280095 1_555
Na8 O21 2.334671 1_655
Na8 O33 2.392072 1_655
Na8 O22 2.475017 1_555
Na8 O32 2.489805 1_554
Na8 O38 2.557241 1_654
Na9 O40 2.280327 1_555
Na9 O23 2.348114 1_555
Na9 O34 2.390467 1_555
Na9 O24 2.529867 1_555
Na9 O36 2.534264 1_555
Na9 O27 2.573516 1_555
Na9 O29 2.680730 1_555
Na10 O40 2.287904 1_455
Na10 O23 2.356579 1_555
Na10 O34 2.377081 1_555
Na10 O24 2.456691 1_455
Na10 O36 2.518441 1_555
Na10 O28 2.556016 1_455
Na10 O30 2.832559 1_455
Na11 O41 2.254360 1_555
Na11 O25 2.329912 1_655
Na11 O26 2.400819 1_555
Na11 O35 2.406378 1_655
Na11 O30 2.518491 1_555
Na11 O37 2.591376 1_655
Na11 O32 2.887358 1_555
Na12 O4 2.396244 1_565
Na12 O39 2.466411 1_555
Na12 O27 2.511387 1_555
Na12 O28 2.518828 1_555
Na12 O6 2.543287 1_565
Na12 O40 2.699203 1_555
Na13 O5 2.416199 1_565
Na13 O29 2.421725 1_555
Na13 O30 2.502767 1_555
Na13 O41 2.599846 1_555
Na13 O7 2.619417 1_565
Na13 O40 2.629001 1_555
Na14 O3 2.408976 1_566
Na14 O31 2.469634 1_555
Na14 O41 2.475486 1_555
Na14 O8 2.521295 1_565
Na14 O32 2.540108 1_555
Na14 O39 2.831236 1_556
Mn0 O22 2.113417 1_555
Mn0 O9 2.122485 1_655
Mn0 O10 2.123434 1_555
Mn0 O20 2.157575 1_554
Mn0 O6 2.311453 1_555
Mn0 O3 2.329252 1_555
Mn1 O24 2.050467 1_555
Mn1 O12 2.112960 1_555
Mn1 O11 2.115163 1_655
Mn1 O16 2.167922 1_555
Mn1 O4 2.210944 1_555
Mn1 O7 2.377424 1_555
Mn2 O26 2.028640 1_555
Mn2 O14 2.144083 1_555
Mn2 O13 2.167532 1_655
Mn2 O18 2.182949 1_555
Mn2 O5 2.182950 1_555
Mn2 O8 2.342317 1_555
Mn3 O15 1.965700 1_555
Mn3 O36 2.001066 1_555
Mn3 O23 2.083047 1_555
Mn3 O28 2.144393 1_455
Mn3 O27 2.144499 1_555
Mn3 O33 2.206529 1_555
Mn4 O17 2.061747 1_555
Mn4 O25 2.077203 1_555
Mn4 O37 2.093473 1_555
Mn4 O29 2.101783 1_555
Mn4 O30 2.196328 1_455
Mn4 O34 2.360285 1_555
Mn5 O19 2.027566 1_555
Mn5 O38 2.099866 1_555
Mn5 O31 2.120316 1_555
Mn5 O32 2.166363 1_455
Mn5 O21 2.181272 1_556
Mn5 O35 2.291429 1_555
C0 O39 1.287058 1_545
C0 O3 1.302883 1_555
C0 O6 1.307426 1_555
C1 O40 1.284783 1_545
C1 O7 1.297220 1_555
C1 O4 1.315429 1_555
C2 O41 1.272029 1_545
C2 O8 1.305499 1_555
C2 O5 1.321111 1_555
C3 O0 1.253595 1_565
C3 O33 1.302419 1_555
C3 O36 1.331661 1_555
C4 O1 1.277262 1_565
C4 O34 1.289887 1_555
C4 O37 1.315745 1_555
C5 O2 1.277895 1_565
C5 O35 1.294299 1_555
C5 O38 1.320959 1_555
O9 P0 1.537228 1_555
O10 P0 1.537679 1_555
O11 P1 1.549834 1_555
O12 P1 1.550415 1_555
O13 P2 1.559268 1_555
O14 P2 1.555932 1_555
O15 P0 1.604581 1_555
O16 P3 1.546655 1_555
O17 P1 1.574781 1_555
O18 P4 1.546588 1_555
O19 P2 1.584107 1_555
O20 P5 1.545185 1_555
O21 P0 1.546901 1_555
O22 P3 1.554774 1_555
O23 P1 1.559364 1_555
O24 P4 1.573855 1_555
O25 P2 1.530054 1_555
O26 P5 1.554022 1_555
O27 P3 1.563415 1_555
O28 P3 1.562616 1_555
O29 P4 1.551649 1_555
O30 P4 1.555728 1_555
O31 P5 1.562237 1_555
O32 P5 1.565895 1_555
