# generated using pymatgen
data_Li4Ti3V3(CoO8)2
_symmetry_space_group_name_H-M   'P 1'
_cell_length_a   5.85120882
_cell_length_b   5.85269614
_cell_length_c   9.72125565
_cell_angle_alpha   90.10384517
_cell_angle_beta   89.56768176
_cell_angle_gamma   119.89205009
_symmetry_Int_Tables_number   1
_chemical_formula_structural   Li4Ti3V3(CoO8)2
_chemical_formula_sum   'Li4 Ti3 V3 Co2 O16'
_cell_volume   288.61074733
_cell_formula_units_Z   1
loop_
 _symmetry_equiv_pos_site_id
 _symmetry_equiv_pos_as_xyz
  1  'x, y, z'
loop_
 _atom_site_type_symbol
 _atom_site_label
 _atom_site_symmetry_multiplicity
 _atom_site_fract_x
 _atom_site_fract_y
 _atom_site_fract_z
 _atom_site_occupancy
  Li  Li0  1  0.33487600  0.66783000  0.88972700  1
  Li  Li1  1  0.99826600  0.99888900  0.99710900  1
  Li  Li2  1  0.99420700  0.99808300  0.49953400  1
  Li  Li3  1  0.66770100  0.33386200  0.39111000  1
  Ti  Ti0  1  0.17160400  0.83284400  0.21572300  1
  Ti  Ti1  1  0.17169100  0.33890100  0.21587800  1
  Ti  Ti2  1  0.33793100  0.16648300  0.71963900  1
  V  V0  1  0.66434400  0.83245600  0.21250900  1
  V  V1  1  0.83629000  0.18111100  0.71238700  1
  V  V2  1  0.83286900  0.65545600  0.71317200  1
  Co  Co0  1  0.33969300  0.66916000  0.49151500  1
  Co  Co1  1  0.66960600  0.33366500  0.99219300  1
  O  O0  1  0.15086900  0.83037200  0.60597900  1
  O  O1  1  0.03419400  0.51750300  0.33128100  1
  O  O2  1  0.33346600  0.66626200  0.10272500  1
  O  O3  1  0.99859500  0.99984800  0.31591700  1
  O  O4  1  0.99420600  0.99769600  0.81280000  1
  O  O5  1  0.15401200  0.32174200  0.60584800  1
  O  O6  1  0.48587900  0.96380900  0.33129700  1
  O  O7  1  0.48656500  0.52283000  0.33106800  1
  O  O8  1  0.32154900  0.16043500  0.10455800  1
  O  O9  1  0.67912400  0.84232800  0.61033800  1
  O  O10  1  0.52523600  0.48770600  0.82911400  1
  O  O11  1  0.52058800  0.03669100  0.83004700  1
  O  O12  1  0.66436000  0.33202400  0.60101000  1
  O  O13  1  0.83294400  0.67862800  0.10596000  1
  O  O14  1  0.96680600  0.48047300  0.83313900  1
  O  O15  1  0.83253000  0.15321200  0.10626200  1
loop_
_geom_bond_atom_site_label_1
_geom_bond_atom_site_label_2
_geom_bond_distance
_geom_bond_site_symmetry_2
Li0 O14 1.950661 1_455
Li0 O11 1.958250 1_565
Li0 O10 1.964031 1_555
Li0 O2 2.070581 1_556
Li1 O4 1.792006 1_555
Li1 O15 1.932919 1_566
Li1 O13 1.937343 1_556
Li1 O8 1.951087 1_666
Li2 O3 1.784953 1_555
Li2 O9 1.920582 1_555
Li2 O5 1.942361 1_665
Li2 O0 1.946617 1_655
Li3 O1 1.943753 1_655
Li3 O7 1.966521 1_555
Li3 O6 1.966924 1_545
Li3 O12 2.040434 1_555
Co0 O9 2.080873 1_555
Co0 O5 2.082841 1_555
Co0 O0 2.089449 1_555
Co0 O7 2.147865 1_555
Co0 O6 2.156564 1_555
Co0 O1 2.205686 1_555
Co1 O15 2.068232 1_556
Co1 O8 2.069070 1_556
Co1 O13 2.073005 1_556
Co1 O14 2.151281 1_555
Co1 O11 2.183142 1_555
Co1 O10 2.196394 1_555
O0 V2 1.916253 1_455
O0 Ti2 2.037850 1_565
O1 Ti1 1.954187 1_555
O1 Ti0 1.956901 1_555
O2 Ti0 1.988705 1_555
O2 Ti1 1.990248 1_555
O2 V0 1.995937 1_555
O3 Ti0 1.974013 1_655
O3 Ti1 1.974384 1_665
O3 V0 1.977797 1_555
O4 Ti2 1.958688 1_665
O4 V2 1.990814 1_555
O4 V1 1.991237 1_565
O5 V1 1.911830 1_455
O5 Ti2 2.050306 1_555
O6 V0 1.947733 1_555
O6 Ti0 1.963286 1_555
O7 V0 1.950613 1_555
O7 Ti1 1.963949 1_555
O8 Ti1 1.981268 1_555
O8 Ti0 1.982458 1_545
O9 V1 1.987586 1_565
O9 V2 2.000756 1_555
O10 V2 1.919968 1_555
O10 Ti2 1.955722 1_555
O11 Ti2 1.923737 1_555
O11 V1 1.962234 1_555
O12 V1 1.967231 1_555
O12 V2 1.972996 1_555
O12 Ti2 2.010735 1_555
O13 V0 1.929532 1_555
O13 Ti0 2.031149 1_655
O14 V1 1.924407 1_555
O14 V2 1.959896 1_555
O15 V0 1.926066 1_545
O15 Ti1 2.032952 1_655
