# generated using pymatgen
data_GdAsO4
_symmetry_space_group_name_H-M   'P 1'
_cell_length_a   7.07727600
_cell_length_b   6.70887200
_cell_length_c   8.24131622
_cell_angle_alpha   53.74643772
_cell_angle_beta   90.00000000
_cell_angle_gamma   90.00000000
_symmetry_Int_Tables_number   1
_chemical_formula_structural   GdAsO4
_chemical_formula_sum   'Gd4 As4 O16'
_cell_volume   315.54910850
_cell_formula_units_Z   4
loop_
 _symmetry_equiv_pos_site_id
 _symmetry_equiv_pos_as_xyz
  1  'x, y, z'
loop_
 _atom_site_type_symbol
 _atom_site_label
 _atom_site_symmetry_multiplicity
 _atom_site_fract_x
 _atom_site_fract_y
 _atom_site_fract_z
 _atom_site_occupancy
  Gd  Gd0  1  0.85283000  0.80988300  0.78171500  1
  Gd  Gd1  1  0.35283000  0.19011700  0.71828500  1
  Gd  Gd2  1  0.64717000  0.80988300  0.28171500  1
  Gd  Gd3  1  0.14717000  0.19011700  0.21828500  1
  As  As0  1  0.83870400  0.31099500  0.80114800  1
  As  As1  1  0.33870400  0.68900500  0.69885200  1
  As  As2  1  0.66129600  0.31099500  0.30114800  1
  As  As3  1  0.16129600  0.68900500  0.19885200  1
  O  O0  1  0.89471700  0.35551400  0.98177800  1
  O  O1  1  0.65249900  0.10740700  0.89536300  1
  O  O2  1  0.28745500  0.38498700  0.88776100  1
  O  O3  1  0.50633700  0.83392000  0.74594000  1
  O  O4  1  0.78745500  0.61501300  0.61223900  1
  O  O5  1  0.00633700  0.16608000  0.75406000  1
  O  O6  1  0.15249900  0.89259300  0.60463700  1
  O  O7  1  0.39471700  0.64448600  0.51822200  1
  O  O8  1  0.60528300  0.35551400  0.48177800  1
  O  O9  1  0.84750100  0.10740700  0.39536300  1
  O  O10  1  0.99366300  0.83392000  0.24594000  1
  O  O11  1  0.21254500  0.38498700  0.38776100  1
  O  O12  1  0.49366300  0.16608000  0.25406000  1
  O  O13  1  0.71254500  0.61501300  0.11223900  1
  O  O14  1  0.34750100  0.89259300  0.10463700  1
  O  O15  1  0.10528300  0.64448600  0.01822200  1
loop_
_geom_bond_atom_site_label_1
_geom_bond_atom_site_label_2
_geom_bond_distance
_geom_bond_site_symmetry_2
Gd0 O15 2.380043 1_656
Gd0 O13 2.429598 1_556
Gd0 O6 2.444962 1_655
Gd0 O4 2.456355 1_555
Gd0 O3 2.463760 1_555
Gd0 O0 2.480762 1_555
Gd0 O5 2.509711 1_665
Gd0 O9 2.570410 1_565
Gd1 O8 2.380043 1_555
Gd1 O11 2.429598 1_555
Gd1 O1 2.444962 1_555
Gd1 O2 2.456355 1_555
Gd1 O5 2.463760 1_555
Gd1 O7 2.480762 1_555
Gd1 O3 2.509711 1_545
Gd1 O14 2.570410 1_546
Gd2 O7 2.380043 1_555
Gd2 O4 2.429598 1_555
Gd2 O14 2.444962 1_555
Gd2 O13 2.456355 1_555
Gd2 O10 2.463760 1_555
Gd2 O8 2.480762 1_555
Gd2 O12 2.509711 1_565
Gd2 O1 2.570410 1_564
Gd3 O0 2.380043 1_454
Gd3 O2 2.429598 1_554
Gd3 O9 2.444962 1_455
Gd3 O11 2.456355 1_555
Gd3 O12 2.463760 1_555
Gd3 O15 2.480762 1_555
Gd3 O10 2.509711 1_445
Gd3 O6 2.570410 1_545
As0 O5 1.717420 1_655
As0 O1 1.717784 1_555
As0 O4 1.720407 1_555
As0 O0 1.728647 1_555
As1 O3 1.717420 1_555
As1 O6 1.717784 1_555
As1 O2 1.720407 1_555
As1 O7 1.728647 1_555
As2 O12 1.717420 1_555
As2 O9 1.717784 1_555
As2 O13 1.720407 1_555
As2 O8 1.728647 1_555
As3 O10 1.717420 1_455
As3 O14 1.717784 1_555
As3 O11 1.720407 1_555
As3 O15 1.728647 1_555
