# generated using pymatgen
data_Li2Mn2CoO6
_symmetry_space_group_name_H-M   'P 1'
_cell_length_a   6.00101996
_cell_length_b   6.56885414
_cell_length_c   6.03287231
_cell_angle_alpha   76.84753947
_cell_angle_beta   91.58776223
_cell_angle_gamma   105.22606287
_symmetry_Int_Tables_number   1
_chemical_formula_structural   Li2Mn2CoO6
_chemical_formula_sum   'Li4 Mn4 Co2 O12'
_cell_volume   223.31738150
_cell_formula_units_Z   2
loop_
 _symmetry_equiv_pos_site_id
 _symmetry_equiv_pos_as_xyz
  1  'x, y, z'
loop_
 _atom_site_type_symbol
 _atom_site_label
 _atom_site_symmetry_multiplicity
 _atom_site_fract_x
 _atom_site_fract_y
 _atom_site_fract_z
 _atom_site_occupancy
  Li  Li0  1  0.83327800  0.33326900  0.16670000  1
  Li  Li1  1  0.83324900  0.33321300  0.66671000  1
  Li  Li2  1  0.48487700  0.98887200  0.48944100  1
  Li  Li3  1  0.18174300  0.67774300  0.84390300  1
  Mn  Mn0  1  0.99933800  0.99987700  0.49868700  1
  Mn  Mn1  1  0.66736800  0.66680200  0.83462600  1
  Mn  Mn2  1  0.00838700  0.99976900  0.99919800  1
  Mn  Mn3  1  0.65831200  0.66693400  0.33412600  1
  Co  Co0  1  0.33333500  0.33336600  0.16665300  1
  Co  Co1  1  0.33333000  0.33335200  0.66665400  1
  O  O0  1  0.57188700  0.35239300  0.41124400  1
  O  O1  1  0.09479600  0.31431300  0.92205800  1
  O  O2  1  0.58111600  0.35937100  0.91333900  1
  O  O3  1  0.08555100  0.30729600  0.42002000  1
  O  O4  1  0.90599600  0.68634500  0.05485300  1
  O  O5  1  0.76068000  0.98033000  0.27850000  1
  O  O6  1  0.88469600  0.67888700  0.59303500  1
  O  O7  1  0.78200100  0.98777500  0.74030700  1
  O  O8  1  0.45072600  0.65241700  0.07088100  1
  O  O9  1  0.21596800  0.01430900  0.26242800  1
  O  O10  1  0.42858100  0.64922200  0.61504000  1
  O  O11  1  0.23811600  0.01747800  0.71826900  1
loop_
_geom_bond_atom_site_label_1
_geom_bond_atom_site_label_2
_geom_bond_distance
_geom_bond_site_symmetry_2
Li0 O2 2.131759 1_554
Li0 O3 2.131977 1_655
Li0 O5 2.189487 1_545
Li0 O4 2.190299 1_555
Li0 O0 2.229110 1_555
Li0 O1 2.229650 1_654
Li1 O7 2.150162 1_545
Li1 O6 2.151500 1_555
Li1 O0 2.175459 1_555
Li1 O1 2.175617 1_655
Li1 O2 2.215923 1_555
Li1 O3 2.216267 1_655
Li2 O9 2.103020 1_565
Li2 O11 2.124000 1_565
Li2 O10 2.124867 1_555
Li2 O5 2.135406 1_555
Li2 O0 2.245755 1_565
Li2 O7 2.306959 1_555
Li3 O8 2.103137 1_556
Li3 O10 2.124253 1_555
Li3 O11 2.125361 1_565
Li3 O4 2.135316 1_456
Li3 O1 2.245206 1_555
Li3 O6 2.306635 1_455
Mn0 O3 1.897243 1_665
Mn0 O11 1.923266 1_665
Mn0 O9 1.925353 1_665
Mn0 O5 1.925565 1_555
Mn0 O7 1.957118 1_555
Mn0 O6 1.989168 1_555
Mn1 O2 1.897322 1_555
Mn1 O10 1.923318 1_555
Mn1 O8 1.925476 1_556
Mn1 O4 1.925602 1_556
Mn1 O6 1.956984 1_555
Mn1 O7 1.989053 1_555
Mn2 O4 1.939448 1_456
Mn2 O1 1.941040 1_565
Mn2 O9 1.994904 1_566
Mn2 O7 2.042901 1_455
Mn2 O11 2.177611 1_565
Mn2 O5 2.237490 1_456
Mn3 O5 1.939280 1_555
Mn3 O0 1.941020 1_555
Mn3 O8 1.994983 1_555
Mn3 O6 2.042966 1_555
Mn3 O10 2.177542 1_555
Mn3 O4 2.237318 1_555
Co0 O8 1.979512 1_555
Co0 O9 1.979536 1_555
Co0 O1 2.028572 1_554
Co0 O0 2.028599 1_555
Co0 O2 2.109337 1_554
Co0 O3 2.109467 1_555
Co1 O10 1.954939 1_555
Co1 O11 1.954960 1_555
Co1 O3 2.076955 1_555
Co1 O2 2.077189 1_555
Co1 O1 2.092679 1_555
Co1 O0 2.092797 1_555
