# generated using pymatgen
data_LiMnP2HO7
_symmetry_space_group_name_H-M   'P 1'
_cell_length_a   7.45438764
_cell_length_b   10.57033577
_cell_length_c   7.22202515
_cell_angle_alpha   91.56015506
_cell_angle_beta   103.82967688
_cell_angle_gamma   88.36583940
_symmetry_Int_Tables_number   1
_chemical_formula_structural   LiMnP2HO7
_chemical_formula_sum   'Li4 Mn4 P8 H4 O28'
_cell_volume   552.21858674
_cell_formula_units_Z   4
loop_
 _symmetry_equiv_pos_site_id
 _symmetry_equiv_pos_as_xyz
  1  'x, y, z'
loop_
 _atom_site_type_symbol
 _atom_site_label
 _atom_site_symmetry_multiplicity
 _atom_site_fract_x
 _atom_site_fract_y
 _atom_site_fract_z
 _atom_site_occupancy
  Li  Li0  1  0.10427700  0.28529400  0.11308700  1
  Li  Li1  1  0.10391700  0.78539800  0.61273800  1
  Li  Li2  1  0.89569600  0.71473200  0.88688400  1
  Li  Li3  1  0.89609900  0.21457100  0.38730800  1
  Mn  Mn0  1  0.69677800  0.00969200  0.71929000  1
  Mn  Mn1  1  0.30322200  0.99030600  0.28071000  1
  Mn  Mn2  1  0.69635100  0.50983400  0.21921500  1
  Mn  Mn3  1  0.30375600  0.49011500  0.78081400  1
  P  P0  1  0.68041000  0.28412100  0.96355100  1
  P  P1  1  0.67987800  0.78418500  0.46317600  1
  P  P2  1  0.31956700  0.71587900  0.03645700  1
  P  P3  1  0.32012600  0.21580900  0.53680300  1
  P  P4  1  0.13944500  0.58270700  0.29862200  1
  P  P5  1  0.13954000  0.08279200  0.79860700  1
  P  P6  1  0.86059000  0.41729400  0.70142300  1
  P  P7  1  0.86042700  0.91721500  0.20135700  1
  H  H0  1  0.69459500  0.58652300  0.61813800  1
  H  H1  1  0.69462500  0.08653200  0.11822700  1
  H  H2  1  0.30543200  0.41347800  0.38186100  1
  H  H3  1  0.30534100  0.91347700  0.88176600  1
  O  O0  1  0.62707200  0.14375600  0.93638700  1
  O  O1  1  0.62686300  0.64374100  0.43619700  1
  O  O2  1  0.37290400  0.85625100  0.06360600  1
  O  O3  1  0.37316500  0.35625100  0.56379300  1
  O  O4  1  0.17163600  0.10464400  0.01276500  1
  O  O5  1  0.17171100  0.60465500  0.51278000  1
  O  O6  1  0.82830800  0.89537000  0.98719900  1
  O  O7  1  0.82833800  0.39533600  0.48725700  1
  O  O8  1  0.84424800  0.30770900  0.13235000  1
  O  O9  1  0.84362500  0.80803300  0.63204000  1
  O  O10  1  0.15571700  0.69230100  0.86768300  1
  O  O11  1  0.15638600  0.19197200  0.36792800  1
  O  O12  1  0.52379400  0.37720700  0.98352200  1
  O  O13  1  0.52310100  0.87718200  0.48287200  1
  O  O14  1  0.47618200  0.62279500  0.01648200  1
  O  O15  1  0.47689900  0.12280600  0.51711600  1
  O  O16  1  0.23280200  0.45272100  0.25187900  1
  O  O17  1  0.23273500  0.95280400  0.75179400  1
  O  O18  1  0.76722200  0.54728700  0.74812900  1
  O  O19  1  0.76723400  0.04720000  0.24819100  1
  O  O20  1  0.74346200  0.31052500  0.77014300  1
  O  O21  1  0.74316100  0.81043600  0.26981900  1
  O  O22  1  0.25654300  0.68948200  0.22989000  1
  O  O23  1  0.25682200  0.18956600  0.73014700  1
  O  O24  1  0.05755100  0.40693600  0.82113200  1
  O  O25  1  0.05735200  0.90673700  0.32111100  1
  O  O26  1  0.94246500  0.59306500  0.17892600  1
  O  O27  1  0.94262700  0.09327400  0.67882900  1
loop_
_geom_bond_atom_site_label_1
_geom_bond_atom_site_label_2
_geom_bond_distance
_geom_bond_site_symmetry_2
Li0 O8 1.983342 1_455
Li0 O11 2.060706 1_555
Li0 O4 2.113593 1_555
Li0 O16 2.143754 1_555
Li0 O24 2.447728 1_554
Li1 O9 1.985579 1_455
Li1 O10 2.060261 1_555
Li1 O5 2.114435 1_555
Li1 O17 2.145000 1_555
Li1 O25 2.444084 1_555
Li2 O10 1.983164 1_655
Li2 O9 2.060625 1_555
Li2 O6 2.113525 1_555
Li2 O18 2.143684 1_555
Li2 O26 2.448376 1_556
Li3 O11 1.985677 1_655
Li3 O8 2.060542 1_555
Li3 O7 2.114545 1_555
Li3 O19 2.144970 1_555
Li3 O27 2.443220 1_555
Mn0 O27 2.141725 1_555
Mn0 O0 2.227762 1_555
Mn0 O15 2.255479 1_555
Mn0 O6 2.306089 1_545
Mn0 O13 2.338741 1_545
Mn0 O9 2.502517 1_545
Mn1 O25 2.141652 1_555
Mn1 O2 2.227673 1_555
Mn1 O13 2.255492 1_555
Mn1 O4 2.306462 1_565
Mn1 O15 2.338628 1_565
Mn1 O11 2.502462 1_565
Mn2 O26 2.141434 1_555
Mn2 O1 2.225510 1_555
Mn2 O14 2.257804 1_555
Mn2 O7 2.308522 1_555
Mn2 O12 2.333135 1_554
Mn2 O8 2.509402 1_555
Mn3 O24 2.141878 1_555
Mn3 O3 2.225217 1_555
Mn3 O12 2.256877 1_555
Mn3 O5 2.308807 1_555
Mn3 O14 2.332980 1_556
Mn3 O10 2.510451 1_555
H0 O18 1.054450 1_555
H0 O1 1.433863 1_555
H1 O19 1.054669 1_555
H1 O0 1.433114 1_554
H2 O16 1.054435 1_555
H2 O3 1.433851 1_555
H3 O17 1.054686 1_555
H3 O2 1.433133 1_556
O0 P0 1.542226 1_555
O1 P1 1.542369 1_555
O2 P2 1.542291 1_555
O3 P3 1.542397 1_555
O4 P5 1.519713 1_554
O5 P4 1.519741 1_555
O6 P7 1.519689 1_556
O7 P6 1.519819 1_555
O8 P0 1.526084 1_554
O9 P1 1.526406 1_555
O10 P2 1.526013 1_556
O11 P3 1.526402 1_555
O12 P0 1.535974 1_555
O13 P1 1.535800 1_555
O14 P2 1.535963 1_555
O15 P3 1.535800 1_555
O16 P4 1.587024 1_555
O17 P5 1.586630 1_565
O18 P6 1.587047 1_555
O19 P7 1.586641 1_545
O20 P6 1.605058 1_555
O20 P0 1.610101 1_555
O21 P7 1.604938 1_555
O21 P1 1.610292 1_555
O22 P4 1.605001 1_555
O22 P2 1.610150 1_555
O23 P5 1.604969 1_555
O23 P3 1.610265 1_555
O24 P6 1.517975 1_455
O25 P7 1.517940 1_455
O26 P4 1.518061 1_655
O27 P5 1.517928 1_655
