# generated using pymatgen
data_Li4MnCu3(PO4)4
_symmetry_space_group_name_H-M   'P 1'
_cell_length_a   4.76839059
_cell_length_b   10.07679575
_cell_length_c   6.15863400
_cell_angle_alpha   90.00000000
_cell_angle_beta   90.00000000
_cell_angle_gamma   89.07953538
_symmetry_Int_Tables_number   1
_chemical_formula_structural   Li4MnCu3(PO4)4
_chemical_formula_sum   'Li4 Mn1 Cu3 P4 O16'
_cell_volume   295.88478139
_cell_formula_units_Z   1
loop_
 _symmetry_equiv_pos_site_id
 _symmetry_equiv_pos_as_xyz
  1  'x, y, z'
loop_
 _atom_site_type_symbol
 _atom_site_label
 _atom_site_symmetry_multiplicity
 _atom_site_fract_x
 _atom_site_fract_y
 _atom_site_fract_z
 _atom_site_occupancy
  Li  Li0  1  0.99768300  0.99300900  0.99989600  1
  Li  Li1  1  0.99768300  0.99300900  0.50010400  1
  Li  Li2  1  0.50112900  0.50425000  0.49856300  1
  Li  Li3  1  0.50112900  0.50425000  0.00143700  1
  Mn  Mn0  1  0.97021900  0.28143600  0.25000000  1
  Cu  Cu0  1  0.05324000  0.71339500  0.75000000  1
  Cu  Cu1  1  0.44188400  0.21231600  0.75000000  1
  Cu  Cu2  1  0.55296200  0.78586800  0.25000000  1
  P  P0  1  0.08500300  0.60120700  0.25000000  1
  P  P1  1  0.42165000  0.08966300  0.25000000  1
  P  P2  1  0.57524900  0.90413700  0.75000000  1
  P  P3  1  0.91703000  0.40520000  0.75000000  1
  O  O0  1  0.20469200  0.45612400  0.25000000  1
  O  O1  1  0.21785600  0.66894400  0.04713000  1
  O  O2  1  0.21785600  0.66894400  0.45287000  1
  O  O3  1  0.24177300  0.39300300  0.75000000  1
  O  O4  1  0.25055300  0.89714300  0.75000000  1
  O  O5  1  0.28009400  0.16174100  0.05086700  1
  O  O6  1  0.28009400  0.16174100  0.44913300  1
  O  O7  1  0.30595200  0.94513400  0.25000000  1
  O  O8  1  0.68003100  0.05109600  0.75000000  1
  O  O9  1  0.71505200  0.83675500  0.54832400  1
  O  O10  1  0.71505200  0.83675500  0.95167600  1
  O  O11  1  0.74193200  0.09342200  0.25000000  1
  O  O12  1  0.75991000  0.60620700  0.25000000  1
  O  O13  1  0.78016900  0.34068900  0.54655200  1
  O  O14  1  0.78016900  0.34068900  0.95344800  1
  O  O15  1  0.81395600  0.55386800  0.75000000  1
loop_
_geom_bond_atom_site_label_1
_geom_bond_atom_site_label_2
_geom_bond_distance
_geom_bond_site_symmetry_2
Li0 O10 2.109935 1_555
Li0 O4 2.172156 1_655
Li0 O7 2.177893 1_656
Li0 O11 2.200893 1_566
Li0 O5 2.208281 1_666
Li0 O8 2.230916 1_565
Li1 O9 2.109935 1_555
Li1 O4 2.172156 1_655
Li1 O7 2.177893 1_655
Li1 O11 2.200893 1_565
Li1 O6 2.208281 1_665
Li1 O8 2.230916 1_565
Li2 O13 2.122210 1_555
Li2 O2 2.141481 1_555
Li2 O0 2.144444 1_555
Li2 O15 2.212904 1_555
Li2 O12 2.227630 1_555
Li2 O3 2.286601 1_555
Li3 O14 2.122210 1_554
Li3 O1 2.141481 1_555
Li3 O0 2.144444 1_555
Li3 O15 2.212904 1_554
Li3 O12 2.227630 1_555
Li3 O3 2.286601 1_554
Mn0 O0 2.100459 1_655
Mn0 O14 2.120366 1_554
Mn0 O13 2.120366 1_555
Mn0 O11 2.200149 1_555
Mn0 O5 2.254964 1_655
Mn0 O6 2.254964 1_655
Cu0 O15 1.986186 1_455
Cu0 O1 2.038156 1_556
Cu0 O2 2.038156 1_555
Cu0 O4 2.090356 1_555
Cu0 O9 2.371504 1_455
Cu0 O10 2.371504 1_455
Cu1 O8 1.967112 1_555
Cu1 O3 2.042011 1_555
Cu1 O5 2.073858 1_556
Cu1 O6 2.073858 1_555
Cu1 O13 2.431530 1_555
Cu1 O14 2.431530 1_555
Cu2 O7 1.975411 1_555
Cu2 O12 2.047918 1_555
Cu2 O9 2.061217 1_555
Cu2 O10 2.061217 1_554
Cu2 O1 2.358608 1_555
Cu2 O2 2.358608 1_555
O0 P0 1.560859 1_555
O1 P0 1.562728 1_555
O2 P0 1.562728 1_555
O3 P3 1.551402 1_455
O4 P2 1.551011 1_555
O5 P1 1.572077 1_555
O6 P1 1.572077 1_555
O7 P1 1.565647 1_565
O8 P2 1.570480 1_545
O9 P2 1.559993 1_555
O10 P2 1.559993 1_555
O11 P1 1.528308 1_555
O12 P0 1.550180 1_655
O13 P3 1.559494 1_555
O14 P3 1.559494 1_555
O15 P3 1.569142 1_555
