# generated using pymatgen
data_Fe10O11F9
_symmetry_space_group_name_H-M   'P 1'
_cell_length_a   4.70241300
_cell_length_b   4.71009149
_cell_length_c   15.47620782
_cell_angle_alpha   89.87613255
_cell_angle_beta   89.78419914
_cell_angle_gamma   89.48469382
_symmetry_Int_Tables_number   1
_chemical_formula_structural   Fe10O11F9
_chemical_formula_sum   'Fe10 O11 F9'
_cell_volume   342.76229094
_cell_formula_units_Z   1
loop_
 _symmetry_equiv_pos_site_id
 _symmetry_equiv_pos_as_xyz
  1  'x, y, z'
loop_
 _atom_site_type_symbol
 _atom_site_label
 _atom_site_symmetry_multiplicity
 _atom_site_fract_x
 _atom_site_fract_y
 _atom_site_fract_z
 _atom_site_occupancy
  Fe  Fe0  1  0.03908200  0.01413400  0.99374100  1
  Fe  Fe1  1  0.01009600  0.98570000  0.80596800  1
  Fe  Fe2  1  0.02673900  0.98362900  0.60195400  1
  Fe  Fe3  1  0.99892300  0.95830000  0.40062300  1
  Fe  Fe4  1  0.99433700  0.95336100  0.19741900  1
  Fe  Fe5  1  0.50251300  0.48027400  0.90418000  1
  Fe  Fe6  1  0.49592400  0.52317000  0.50436500  1
  Fe  Fe7  1  0.48340300  0.52175900  0.68929500  1
  Fe  Fe8  1  0.50427800  0.54020300  0.30169000  1
  Fe  Fe9  1  0.47712200  0.51912000  0.10127200  1
  O  O0  1  0.21266300  0.79629400  0.89772400  1
  O  O1  1  0.19111900  0.81340600  0.70460600  1
  O  O2  1  0.19260600  0.80721300  0.50063600  1
  O  O3  1  0.18001100  0.79822600  0.29931700  1
  O  O4  1  0.18998800  0.81347000  0.09674700  1
  O  O5  1  0.70308400  0.70546000  0.60046500  1
  O  O6  1  0.68511600  0.69198600  0.40256200  1
  O  O7  1  0.68021600  0.69032700  0.19814100  1
  O  O8  1  0.31979400  0.31544600  0.00181200  1
  O  O9  1  0.30454000  0.30522200  0.59872400  1
  O  O10  1  0.81358700  0.19485100  0.89814500  1
  F  F0  1  0.70679900  0.70166400  0.99993700  1
  F  F1  1  0.69318300  0.68671900  0.79917300  1
  F  F2  1  0.31279900  0.30708000  0.79730500  1
  F  F3  1  0.29686900  0.29846600  0.39944300  1
  F  F4  1  0.28981100  0.29872400  0.20128500  1
  F  F5  1  0.80443600  0.19743500  0.49868600  1
  F  F6  1  0.79994200  0.20246200  0.70457200  1
  F  F7  1  0.80008900  0.20203200  0.10020400  1
  F  F8  1  0.79093100  0.19387000  0.30000800  1
loop_
_geom_bond_atom_site_label_1
_geom_bond_atom_site_label_2
_geom_bond_distance
_geom_bond_site_symmetry_2
Fe0 O8 1.951389 1_556
Fe0 O0 1.977261 1_545
Fe0 O4 1.981943 1_546
Fe0 O10 2.006954 1_455
Fe1 O0 1.925918 1_555
Fe1 O1 1.956277 1_555
Fe1 O10 1.959382 1_465
Fe2 O2 1.934492 1_555
Fe2 O1 1.938241 1_555
Fe2 O9 2.009527 1_565
Fe2 O5 2.017370 1_455
Fe3 O2 1.930256 1_655
Fe3 O3 1.932668 1_655
Fe3 O6 1.945423 1_555
Fe4 O4 1.921138 1_655
Fe4 O7 1.936406 1_555
Fe4 O3 1.943471 1_655
Fe5 O8 1.902938 1_556
Fe5 O10 1.979891 1_555
Fe5 O0 2.011768 1_555
Fe6 O2 1.947715 1_555
Fe6 O6 1.975542 1_555
Fe6 O5 1.982323 1_555
Fe6 O9 1.999131 1_555
Fe7 O5 1.925094 1_555
Fe7 O9 1.934654 1_555
Fe7 O1 1.948649 1_555
Fe8 O6 1.922779 1_555
Fe8 O7 1.936041 1_555
Fe8 O3 1.941741 1_555
Fe9 O4 1.927894 1_555
Fe9 O7 1.959522 1_555
Fe9 O8 1.965884 1_555
F0 Fe5 2.059564 1_555
F0 Fe9 2.088864 1_556
F0 Fe0 2.157872 1_665
F1 Fe1 2.062667 1_655
F1 Fe5 2.094822 1_555
F1 Fe7 2.121471 1_555
F2 Fe5 2.056004 1_555
F2 Fe1 2.090923 1_545
F2 Fe7 2.111261 1_555
F3 Fe8 2.130208 1_555
F3 Fe3 2.137864 1_445
F3 Fe6 2.160958 1_555
F4 Fe9 2.061174 1_555
F4 Fe4 2.149873 1_445
F4 Fe8 2.182979 1_555
F5 Fe3 2.094451 1_545
F5 Fe6 2.103779 1_555
F5 Fe2 2.155886 1_645
F6 Fe1 2.113777 1_645
F6 Fe7 2.119939 1_555
F6 Fe2 2.167147 1_645
F7 Fe4 2.110281 1_545
F7 Fe9 2.120495 1_555
F7 Fe0 2.176115 1_654
F8 Fe8 2.106906 1_555
F8 Fe3 2.144035 1_545
F8 Fe4 2.166973 1_545
