# generated using pymatgen
data_Mn3VCr2(PO4)6
_symmetry_space_group_name_H-M   'P 1'
_cell_length_a   8.48393447
_cell_length_b   8.48393447
_cell_length_c   8.48393423
_cell_angle_alpha   61.58363160
_cell_angle_beta   61.58363160
_cell_angle_gamma   61.58362956
_symmetry_Int_Tables_number   1
_chemical_formula_structural   Mn3VCr2(PO4)6
_chemical_formula_sum   'Mn3 V1 Cr2 P6 O24'
_cell_volume   447.13490074
_cell_formula_units_Z   1
loop_
 _symmetry_equiv_pos_site_id
 _symmetry_equiv_pos_as_xyz
  1  'x, y, z'
loop_
 _atom_site_type_symbol
 _atom_site_label
 _atom_site_symmetry_multiplicity
 _atom_site_fract_x
 _atom_site_fract_y
 _atom_site_fract_z
 _atom_site_occupancy
  Mn  Mn0  1  0.35514200  0.35514200  0.35514200  1
  Mn  Mn1  1  0.14549000  0.14549000  0.14549000  1
  Mn  Mn2  1  0.64507700  0.64507700  0.64507700  1
  V  V0  1  0.85492700  0.85492700  0.85492700  1
  Cr  Cr0  1  0.00002300  0.00002300  0.00002300  1
  Cr  Cr1  1  0.50113300  0.50113300  0.50113300  1
  P  P0  1  0.74927000  0.04740200  0.45325900  1
  P  P1  1  0.04740200  0.45325900  0.74927000  1
  P  P2  1  0.45325900  0.74927000  0.04740200  1
  P  P3  1  0.54784100  0.25011000  0.95040300  1
  P  P4  1  0.95040300  0.54784100  0.25011000  1
  P  P5  1  0.25011000  0.95040300  0.54784100  1
  O  O0  1  0.89816900  0.48869000  0.67686200  1
  O  O1  1  0.48869000  0.67686200  0.89816900  1
  O  O2  1  0.67686200  0.89816900  0.48869000  1
  O  O3  1  0.90524200  0.06400900  0.25105800  1
  O  O4  1  0.82897300  0.99162900  0.61050100  1
  O  O5  1  0.59858800  0.24743000  0.44856300  1
  O  O6  1  0.06400900  0.25105800  0.90524200  1
  O  O7  1  0.24743000  0.44856300  0.59858800  1
  O  O8  1  0.39588800  0.17756600  0.99170100  1
  O  O9  1  0.44856300  0.59858800  0.24743000  1
  O  O10  1  0.75337000  0.09022800  0.92937300  1
  O  O11  1  0.99170100  0.39588800  0.17756600  1
  O  O12  1  0.99162900  0.61050100  0.82897300  1
  O  O13  1  0.25105800  0.90524200  0.06400900  1
  O  O14  1  0.56633000  0.40111200  0.74715800  1
  O  O15  1  0.61050100  0.82897300  0.99162900  1
  O  O16  1  0.74715800  0.56633000  0.40111200  1
  O  O17  1  0.92937300  0.75337000  0.09022800  1
  O  O18  1  0.40111200  0.74715800  0.56633000  1
  O  O19  1  0.17756600  0.99170100  0.39588800  1
  O  O20  1  0.09022800  0.92937300  0.75337000  1
  O  O21  1  0.31608400  0.10173700  0.51965000  1
  O  O22  1  0.51965000  0.31608400  0.10173700  1
  O  O23  1  0.10173700  0.51965000  0.31608400  1
loop_
_geom_bond_atom_site_label_1
_geom_bond_atom_site_label_2
_geom_bond_distance
_geom_bond_site_symmetry_2
Mn0 O22 2.015382 1_555
Mn0 O23 2.015382 1_555
Mn0 O21 2.015382 1_555
Mn0 O7 2.191206 1_555
Mn0 O5 2.191206 1_555
Mn0 O9 2.191206 1_555
Mn1 O19 1.965600 1_545
Mn1 O11 1.965600 1_455
Mn1 O8 1.965600 1_554
Mn1 O6 2.109217 1_554
Mn1 O13 2.109217 1_545
Mn1 O3 2.109217 1_455
Mn2 O1 1.985632 1_555
Mn2 O0 1.985632 1_555
Mn2 O2 1.985632 1_555
Mn2 O16 2.130664 1_555
Mn2 O18 2.130664 1_555
Mn2 O14 2.130664 1_555
Cr0 O3 2.128885 1_455
Cr0 O13 2.128885 1_545
Cr0 O6 2.128885 1_554
Cr0 O20 2.134683 1_544
Cr0 O10 2.134683 1_454
Cr0 O17 2.134683 1_445
Cr1 O14 2.085435 1_555
Cr1 O18 2.085435 1_555
Cr1 O16 2.085435 1_555
Cr1 O9 2.093869 1_555
Cr1 O5 2.093870 1_555
Cr1 O7 2.093870 1_555
O0 P1 1.507636 1_655
O1 P2 1.507636 1_556
O2 P0 1.507636 1_565
O3 P0 1.581329 1_555
O4 P0 1.553712 1_565
O4 V0 1.896396 1_555
O5 P0 1.560477 1_555
O6 P1 1.581329 1_555
O7 P1 1.560477 1_555
O8 P3 1.511125 1_555
O9 P2 1.560477 1_555
O10 P3 1.611013 1_555
O10 V0 2.042416 1_545
O11 P4 1.511125 1_555
O12 P1 1.553712 1_655
O12 V0 1.896396 1_555
O13 P2 1.581329 1_555
O14 P3 1.571774 1_555
O15 P2 1.553712 1_556
O15 V0 1.896396 1_555
O16 P4 1.571774 1_555
O17 P4 1.611013 1_555
O17 V0 2.042416 1_554
O18 P5 1.571774 1_555
O19 P5 1.511125 1_555
O20 P5 1.611013 1_555
O20 V0 2.042417 1_455
O21 P5 1.511025 1_545
O22 P3 1.511025 1_554
O23 P4 1.511025 1_455
