# generated using pymatgen
data_Na2BSbSO7
_symmetry_space_group_name_H-M   'P 1'
_cell_length_a   6.90616500
_cell_length_b   5.57077100
_cell_length_c   9.50845880
_cell_angle_alpha   87.72130904
_cell_angle_beta   90.00000000
_cell_angle_gamma   90.00000000
_symmetry_Int_Tables_number   1
_chemical_formula_structural   Na2BSbSO7
_chemical_formula_sum   'Na4 B2 Sb2 S2 O14'
_cell_volume   365.52646948
_cell_formula_units_Z   2
loop_
 _symmetry_equiv_pos_site_id
 _symmetry_equiv_pos_as_xyz
  1  'x, y, z'
loop_
 _atom_site_type_symbol
 _atom_site_label
 _atom_site_symmetry_multiplicity
 _atom_site_fract_x
 _atom_site_fract_y
 _atom_site_fract_z
 _atom_site_occupancy
  Na  Na0  1  0.49772400  0.24412200  0.80299700  1
  Na  Na1  1  0.00227600  0.24412200  0.80299700  1
  Na  Na2  1  0.50227600  0.75587800  0.19700300  1
  Na  Na3  1  0.99772400  0.75587800  0.19700300  1
  B  B0  1  0.75000000  0.74126500  0.91268100  1
  B  B1  1  0.25000000  0.25873500  0.08731900  1
  Sb  Sb0  1  0.75000000  0.77262800  0.64486400  1
  Sb  Sb1  1  0.25000000  0.22737200  0.35513600  1
  S  S0  1  0.25000000  0.72318700  0.60465300  1
  S  S1  1  0.75000000  0.27681300  0.39534700  1
  O  O0  1  0.25000000  0.26867100  0.95041300  1
  O  O1  1  0.75000000  0.95916400  0.82296500  1
  O  O2  1  0.75000000  0.54191800  0.81835600  1
  O  O3  1  0.07732100  0.85007000  0.66544400  1
  O  O4  1  0.42267900  0.85007000  0.66544400  1
  O  O5  1  0.75000000  0.24401800  0.55230300  1
  O  O6  1  0.25000000  0.46705900  0.64698900  1
  O  O7  1  0.75000000  0.53294100  0.35301100  1
  O  O8  1  0.25000000  0.75598200  0.44769700  1
  O  O9  1  0.57732100  0.14993000  0.33455600  1
  O  O10  1  0.92267900  0.14993000  0.33455600  1
  O  O11  1  0.25000000  0.45808200  0.18164400  1
  O  O12  1  0.25000000  0.04083600  0.17703500  1
  O  O13  1  0.75000000  0.73132900  0.04958700  1
loop_
_geom_bond_atom_site_label_1
_geom_bond_atom_site_label_2
_geom_bond_distance
_geom_bond_site_symmetry_2
Na0 O0 2.219374 1_555
Na0 O1 2.359556 1_545
Na0 O2 2.414164 1_555
Na0 O6 2.554070 1_555
Na0 O4 2.650727 1_545
Na0 O5 2.952570 1_555
Na1 O0 2.219374 1_555
Na1 O1 2.359556 1_445
Na1 O2 2.414164 1_455
Na1 O6 2.554070 1_555
Na1 O3 2.650727 1_545
Na1 O5 2.952570 1_455
Na2 O13 2.219374 1_555
Na2 O12 2.359556 1_565
Na2 O11 2.414164 1_555
Na2 O7 2.554070 1_555
Na2 O9 2.650727 1_565
Na2 O8 2.952570 1_555
Na3 O13 2.219374 1_555
Na3 O12 2.359556 1_665
Na3 O11 2.414164 1_655
Na3 O7 2.554070 1_555
Na3 O10 2.650727 1_565
Na3 O8 2.952570 1_655
B0 O13 1.300741 1_556
B0 O2 1.454941 1_555
B0 O1 1.455623 1_555
B1 O0 1.300741 1_554
B1 O11 1.454941 1_555
B1 O12 1.455623 1_555
O1 Sb0 2.021780 1_555
O2 Sb0 2.050498 1_555
O3 S0 1.512746 1_555
O3 Sb0 2.311089 1_455
O4 S0 1.512746 1_555
O4 Sb0 2.311089 1_555
O5 S1 1.496323 1_555
O6 S0 1.467044 1_555
O7 S1 1.467044 1_555
O8 S0 1.496323 1_555
O9 S1 1.512746 1_555
O9 Sb1 2.311089 1_555
O10 S1 1.512746 1_555
O10 Sb1 2.311089 1_655
O11 Sb1 2.050498 1_555
O12 Sb1 2.021780 1_555
