# generated using pymatgen
data_Li4Mn3V2Ni3O16
_symmetry_space_group_name_H-M   'P 1'
_cell_length_a   5.87388646
_cell_length_b   5.87388646
_cell_length_c   9.41674710
_cell_angle_alpha   88.79136238
_cell_angle_beta   88.79136238
_cell_angle_gamma   59.11995164
_symmetry_Int_Tables_number   1
_chemical_formula_structural   Li4Mn3V2Ni3O16
_chemical_formula_sum   'Li4 Mn3 V2 Ni3 O16'
_cell_volume   278.76284473
_cell_formula_units_Z   1
loop_
 _symmetry_equiv_pos_site_id
 _symmetry_equiv_pos_as_xyz
  1  'x, y, z'
loop_
 _atom_site_type_symbol
 _atom_site_label
 _atom_site_symmetry_multiplicity
 _atom_site_fract_x
 _atom_site_fract_y
 _atom_site_fract_z
 _atom_site_occupancy
  Li  Li0  1  0.66802900  0.66802900  0.09812200  1
  Li  Li1  1  0.99919600  0.99919600  0.01132100  1
  Li  Li2  1  0.00293900  0.00293900  0.50348400  1
  Li  Li3  1  0.32901300  0.32901300  0.59839200  1
  Mn  Mn0  1  0.34040800  0.83496800  0.78352500  1
  Mn  Mn1  1  0.83496800  0.34040800  0.78352500  1
  Mn  Mn2  1  0.17577500  0.17577500  0.28047700  1
  V  V0  1  0.66940300  0.66940300  0.50201600  1
  V  V1  1  0.35493200  0.35493200  0.01831200  1
  Ni  Ni0  1  0.82851900  0.82851900  0.78625000  1
  Ni  Ni1  1  0.16883400  0.66173700  0.28919300  1
  Ni  Ni2  1  0.66173700  0.16883400  0.28919300  1
  O  O0  1  0.35191100  0.83510600  0.40855400  1
  O  O1  1  0.51907200  0.51907200  0.66441400  1
  O  O2  1  0.65612800  0.65612800  0.89176300  1
  O  O3  1  0.00506400  0.00506400  0.69287000  1
  O  O4  1  0.00930900  0.00930900  0.19930500  1
  O  O5  1  0.83510600  0.35191100  0.40855400  1
  O  O6  1  0.50479300  0.95561000  0.65509100  1
  O  O7  1  0.95561000  0.50479300  0.65509100  1
  O  O8  1  0.15998500  0.15998500  0.89519900  1
  O  O9  1  0.82576000  0.82576000  0.42235900  1
  O  O10  1  0.04159000  0.46737700  0.15117100  1
  O  O11  1  0.46737700  0.04159000  0.15117100  1
  O  O12  1  0.32542300  0.32542300  0.39205000  1
  O  O13  1  0.17596300  0.65433300  0.90960100  1
  O  O14  1  0.48154900  0.48154900  0.14143400  1
  O  O15  1  0.65433300  0.17596300  0.90960100  1
loop_
_geom_bond_atom_site_label_1
_geom_bond_atom_site_label_2
_geom_bond_distance
_geom_bond_site_symmetry_2
Li0 O14 1.939043 1_555
Li0 O2 1.949973 1_554
Li0 O11 1.954524 1_565
Li0 O10 1.954524 1_655
Li1 O4 1.775712 1_665
Li1 O8 1.951462 1_664
Li1 O15 1.994972 1_564
Li1 O13 1.994972 1_654
Li2 O3 1.784059 1_555
Li2 O0 1.964262 1_545
Li2 O5 1.964262 1_455
Li2 O9 1.982098 1_445
Li3 O12 1.944306 1_555
Li3 O6 1.952197 1_545
Li3 O7 1.952197 1_455
Li3 O1 2.053544 1_555
Mn0 O6 1.874614 1_555
Mn0 O2 1.901689 1_555
Mn0 O3 1.903103 1_565
Mn0 O8 1.958207 1_565
Mn0 O1 1.960028 1_555
Mn0 O13 2.102098 1_555
Mn1 O7 1.874614 1_555
Mn1 O2 1.901689 1_555
Mn1 O3 1.903103 1_655
Mn1 O8 1.958207 1_655
Mn1 O1 1.960028 1_555
Mn1 O15 2.102098 1_555
Mn2 O12 1.876237 1_555
Mn2 O4 1.881740 1_555
Mn2 O10 1.898529 1_555
Mn2 O11 1.898529 1_555
Mn2 O5 2.086843 1_455
Mn2 O0 2.086843 1_545
Ni0 O3 1.987691 1_665
Ni0 O2 2.001398 1_555
Ni0 O6 2.074033 1_555
Ni0 O7 2.074033 1_555
Ni0 O15 2.113670 1_565
Ni0 O13 2.113670 1_655
Ni1 O4 1.938939 1_565
Ni1 O12 1.943801 1_555
Ni1 O14 2.094982 1_555
Ni1 O9 2.124403 1_455
Ni1 O10 2.128550 1_555
Ni1 O0 2.163380 1_555
Ni2 O4 1.938939 1_655
Ni2 O12 1.943801 1_555
Ni2 O14 2.094982 1_555
Ni2 O9 2.124403 1_545
Ni2 O11 2.128550 1_555
Ni2 O5 2.163380 1_555
O0 V0 1.835677 1_555
O1 V0 2.141160 1_555
O5 V0 1.835677 1_555
O6 V0 2.052770 1_555
O7 V0 2.052770 1_555
O8 V1 2.329057 1_556
O9 V0 1.748537 1_555
O10 V1 2.019637 1_555
O11 V1 2.019637 1_555
O13 V1 1.821440 1_556
O14 V1 1.758139 1_555
O15 V1 1.821440 1_556
