# generated using pymatgen
data_Li2MnPO4F
_symmetry_space_group_name_H-M   'P 1'
_cell_length_a   7.40265900
_cell_length_b   7.68079152
_cell_length_c   7.99345226
_cell_angle_alpha   89.76532238
_cell_angle_beta   91.67690447
_cell_angle_gamma   117.29163415
_symmetry_Int_Tables_number   1
_chemical_formula_structural   Li2MnPO4F
_chemical_formula_sum   'Li8 Mn4 P4 O16 F4'
_cell_volume   403.70638198
_cell_formula_units_Z   4
loop_
 _symmetry_equiv_pos_site_id
 _symmetry_equiv_pos_as_xyz
  1  'x, y, z'
loop_
 _atom_site_type_symbol
 _atom_site_label
 _atom_site_symmetry_multiplicity
 _atom_site_fract_x
 _atom_site_fract_y
 _atom_site_fract_z
 _atom_site_occupancy
  Li  Li0  1  0.71879600  0.16629500  0.84824700  1
  Li  Li1  1  0.67561400  0.58400500  0.94200800  1
  Li  Li2  1  0.06429600  0.83777400  0.67004700  1
  Li  Li3  1  0.38798900  0.17479000  0.82037900  1
  Li  Li4  1  0.58361000  0.85598500  0.17479500  1
  Li  Li5  1  0.24974400  0.49605000  0.25389400  1
  Li  Li6  1  0.82570200  0.40480700  0.55326500  1
  Li  Li7  1  0.91477200  0.13855900  0.32530700  1
  Mn  Mn0  1  0.48160600  0.98402800  0.49275500  1
  Mn  Mn1  1  0.50696300  0.50749200  0.50832000  1
  Mn  Mn2  1  0.01855400  0.51675500  0.99688100  1
  Mn  Mn3  1  0.01582700  0.00754600  0.00958000  1
  P  P0  1  0.47625200  0.76794300  0.85563700  1
  P  P1  1  0.02786100  0.23076300  0.64323800  1
  P  P2  1  0.98188000  0.76022900  0.34874900  1
  P  P3  1  0.51923500  0.23650300  0.15061200  1
  O  O0  1  0.68530000  0.92143200  0.93878800  1
  O  O1  1  0.34240200  0.66617000  0.00777100  1
  O  O2  1  0.51310800  0.61515700  0.75725700  1
  O  O3  1  0.11546600  0.11945700  0.75466400  1
  O  O4  1  0.38918600  0.88063200  0.74529600  1
  O  O5  1  0.97682300  0.36864800  0.75618900  1
  O  O6  1  0.16952800  0.34677100  0.50086400  1
  O  O7  1  0.81931800  0.08920200  0.55810900  1
  O  O8  1  0.17656200  0.91613400  0.43916900  1
  O  O9  1  0.83742600  0.64803700  0.49531500  1
  O  O10  1  0.02344400  0.61397400  0.24500400  1
  O  O11  1  0.61653000  0.13147200  0.26235200  1
  O  O12  1  0.88072400  0.86332100  0.23776500  1
  O  O13  1  0.48646100  0.39055300  0.24907600  1
  O  O14  1  0.66613900  0.33778400  0.99882700  1
  O  O15  1  0.32217600  0.08414300  0.05932900  1
  F  F0  1  0.94682400  0.72926000  0.88101800  1
  F  F1  1  0.45796300  0.72504700  0.37224000  1
  F  F2  1  0.55578800  0.26875600  0.62805800  1
  F  F3  1  0.03861600  0.27210500  0.12581000  1
loop_
_geom_bond_atom_site_label_1
_geom_bond_atom_site_label_2
_geom_bond_distance
_geom_bond_site_symmetry_2
Li0 O0 1.922020 1_545
Li0 O14 1.961366 1_555
Li0 O5 1.988974 1_555
Li0 O4 2.536279 1_545
Li0 O7 2.607564 1_555
Li1 O14 1.913352 1_555
Li1 O2 1.960211 1_555
Li1 O0 2.559667 1_555
Li2 O8 2.020099 1_555
Li2 O3 2.127760 1_565
Li2 O9 2.128397 1_455
Li2 O4 2.333530 1_555
Li3 O3 1.918327 1_555
Li3 O15 2.025549 1_556
Li3 O14 2.306615 1_555
Li3 O4 2.344099 1_545
Li4 O0 2.026479 1_554
Li4 O11 2.134427 1_565
Li4 O1 2.141374 1_555
Li4 O12 2.217168 1_555
Li5 O6 2.233875 1_555
Li5 O10 2.239589 1_555
Li5 O13 2.243897 1_555
Li5 O1 2.298783 1_555
Li6 O9 1.886491 1_555
Li6 O5 2.033405 1_555
Li6 O7 2.402969 1_555
Li7 O7 1.982792 1_555
Li7 O12 2.129683 1_545
Li7 O11 2.226096 1_555
Li7 O6 2.276198 1_655
Mn0 O8 2.102364 1_555
Mn0 O11 2.173781 1_565
Mn0 O4 2.177900 1_555
Mn0 O7 2.291365 1_565
Mn1 O2 2.149226 1_555
Mn1 O9 2.180090 1_555
Mn1 O6 2.220621 1_555
Mn1 O13 2.235138 1_555
Mn2 O10 2.115598 1_556
Mn2 O1 2.130129 1_556
Mn2 O5 2.179912 1_455
Mn2 O14 2.325789 1_455
Mn3 O15 2.091121 1_555
Mn3 O12 2.151402 1_445
Mn3 O3 2.219719 1_554
Mn3 O0 2.276478 1_444
O0 P0 1.581012 1_555
O1 P0 1.556957 1_554
O2 P0 1.543933 1_555
O3 P1 1.553429 1_555
O4 P0 1.553884 1_555
O5 P1 1.572982 1_655
O6 P1 1.547109 1_555
O7 P1 1.560061 1_655
O8 P2 1.548170 1_455
O9 P2 1.574375 1_555
O10 P2 1.543965 1_455
O11 P3 1.567358 1_555
O12 P2 1.572854 1_555
O13 P3 1.536365 1_555
O14 P3 1.597978 1_556
O15 P3 1.552122 1_555
F0 Li1 1.874008 1_555
F0 Li2 1.924693 1_655
F0 Mn2 2.134812 1_655
F0 Mn3 2.207202 1_666
F1 Li4 1.892773 1_555
F1 Li5 1.951026 1_555
F1 Mn0 2.145236 1_555
F1 Mn1 2.150546 1_555
F2 Li6 1.895205 1_555
F2 Li3 1.925543 1_555
F2 Mn1 2.232096 1_555
F2 Mn0 2.266556 1_545
F2 Li0 2.430742 1_555
F3 Li7 1.909291 1_455
F3 Li5 1.976121 1_555
F3 Mn3 2.170874 1_555
F3 Mn2 2.201432 1_554
