# generated using pymatgen
data_Fe5P4(H3O10)2
_symmetry_space_group_name_H-M   'P 1'
_cell_length_a   9.91548444
_cell_length_b   9.91548444
_cell_length_c   9.24728722
_cell_angle_alpha   83.98813249
_cell_angle_beta   83.98813249
_cell_angle_gamma   53.18157933
_symmetry_Int_Tables_number   1
_chemical_formula_structural   Fe5P4(H3O10)2
_chemical_formula_sum   'Fe10 P8 H12 O40'
_cell_volume   722.81170207
_cell_formula_units_Z   2
loop_
 _symmetry_equiv_pos_site_id
 _symmetry_equiv_pos_as_xyz
  1  'x, y, z'
loop_
 _atom_site_type_symbol
 _atom_site_label
 _atom_site_symmetry_multiplicity
 _atom_site_fract_x
 _atom_site_fract_y
 _atom_site_fract_z
 _atom_site_occupancy
  Fe  Fe0  1  0.10372400  0.89627600  0.75000000  1
  Fe  Fe1  1  0.89627600  0.10372400  0.25000000  1
  Fe  Fe2  1  0.76215400  0.61296400  0.68282900  1
  Fe  Fe3  1  0.38703600  0.23784600  0.81717100  1
  Fe  Fe4  1  0.23784600  0.38703600  0.31717100  1
  Fe  Fe5  1  0.61296400  0.76215400  0.18282900  1
  Fe  Fe6  1  0.15195400  0.17934500  0.61419900  1
  Fe  Fe7  1  0.82065500  0.84804600  0.88580100  1
  Fe  Fe8  1  0.84804600  0.82065500  0.38580100  1
  Fe  Fe9  1  0.17934500  0.15195400  0.11419900  1
  P  P0  1  0.88414600  0.27843800  0.88962000  1
  P  P1  1  0.72156200  0.11585400  0.61038000  1
  P  P2  1  0.11585400  0.72156200  0.11038100  1
  P  P3  1  0.27843800  0.88414600  0.38962000  1
  P  P4  1  0.41196400  0.89916200  0.85813100  1
  P  P5  1  0.10083800  0.58803600  0.64186900  1
  P  P6  1  0.58803600  0.10083800  0.14186900  1
  P  P7  1  0.89916200  0.41196400  0.35813100  1
  H  H0  1  0.62573900  0.45776500  0.62763400  1
  H  H1  1  0.54223500  0.37426100  0.87236600  1
  H  H2  1  0.37426100  0.54223500  0.37236600  1
  H  H3  1  0.45776500  0.62573900  0.12763400  1
  H  H4  1  0.48769000  0.64476600  0.70564000  1
  H  H5  1  0.35523400  0.51231000  0.79436000  1
  H  H6  1  0.51231000  0.35523400  0.29436000  1
  H  H7  1  0.64476600  0.48769000  0.20564000  1
  H  H8  1  0.40176100  0.16979300  0.52104800  1
  H  H9  1  0.83020700  0.59823900  0.97895200  1
  H  H10  1  0.59823900  0.83020700  0.47895200  1
  H  H11  1  0.16979300  0.40176100  0.02104800  1
  O  O0  1  0.33613600  0.81286700  0.82019700  1
  O  O1  1  0.18713300  0.66386400  0.67980300  1
  O  O2  1  0.66386400  0.18713300  0.17980300  1
  O  O3  1  0.81286700  0.33613600  0.32019700  1
  O  O4  1  0.01257500  0.14992800  0.77071400  1
  O  O5  1  0.85007200  0.98742500  0.72928600  1
  O  O6  1  0.98742500  0.85007200  0.22928600  1
  O  O7  1  0.14992800  0.01257500  0.27071400  1
  O  O8  1  0.72117100  0.30115700  0.90626800  1
  O  O9  1  0.69884300  0.27882900  0.59373200  1
  O  O10  1  0.27882900  0.69884300  0.09373200  1
  O  O11  1  0.30115700  0.72117100  0.40626800  1
  O  O12  1  0.97801200  0.19983000  0.03825800  1
  O  O13  1  0.80017000  0.02198800  0.46174200  1
  O  O14  1  0.02198800  0.80017000  0.96174200  1
  O  O15  1  0.19983000  0.97801200  0.53825800  1
  O  O16  1  0.86987600  0.44278000  0.84457800  1
  O  O17  1  0.55722000  0.13012400  0.65542200  1
  O  O18  1  0.13012400  0.55722000  0.15542200  1
  O  O19  1  0.44278000  0.86987600  0.34457800  1
  O  O20  1  0.39034300  0.93749300  0.02440100  1
  O  O21  1  0.06250700  0.60965700  0.47559900  1
  O  O22  1  0.60965700  0.06250700  0.97559900  1
  O  O23  1  0.93749300  0.39034300  0.52440100  1
  O  O24  1  0.59285300  0.57593700  0.64332200  1
  O  O25  1  0.42406300  0.40714700  0.85667800  1
  O  O26  1  0.40714700  0.42406300  0.35667800  1
  O  O27  1  0.57593700  0.59285300  0.14332200  1
  O  O28  1  0.32746200  0.07554000  0.77083600  1
  O  O29  1  0.92446000  0.67253800  0.72916400  1
  O  O30  1  0.67253800  0.92446000  0.22916400  1
  O  O31  1  0.07554000  0.32746200  0.27083600  1
  O  O32  1  0.29939100  0.20601200  0.47376500  1
  O  O33  1  0.79398800  0.70060900  0.02623500  1
  O  O34  1  0.70060900  0.79398800  0.52623500  1
  O  O35  1  0.20601200  0.29939100  0.97376500  1
  O  O36  1  0.60155000  0.79317200  0.81546900  1
  O  O37  1  0.20682800  0.39845000  0.68453100  1
  O  O38  1  0.39845000  0.20682800  0.18453100  1
  O  O39  1  0.79317200  0.60155000  0.31546900  1
loop_
_geom_bond_atom_site_label_1
_geom_bond_atom_site_label_2
_geom_bond_distance
_geom_bond_site_symmetry_2
Fe0 O0 2.081476 1_555
Fe0 O1 2.081476 1_555
Fe0 O4 2.125879 1_565
Fe0 O5 2.125879 1_455
Fe0 O14 2.366696 1_555
Fe0 O15 2.366696 1_555
Fe1 O2 2.081476 1_555
Fe1 O3 2.081476 1_555
Fe1 O7 2.125879 1_655
Fe1 O6 2.125879 1_545
Fe1 O13 2.366696 1_555
Fe1 O12 2.366696 1_555
Fe2 O16 1.967558 1_555
Fe2 O36 1.967909 1_555
Fe2 O24 1.995384 1_555
Fe2 O34 2.004724 1_555
Fe2 O29 2.111723 1_555
Fe2 O23 2.363402 1_555
Fe3 O17 1.967558 1_555
Fe3 O37 1.967909 1_555
Fe3 O25 1.995384 1_555
Fe3 O35 2.004724 1_555
Fe3 O28 2.111723 1_555
Fe3 O22 2.363402 1_555
Fe4 O18 1.967558 1_555
Fe4 O38 1.967909 1_555
Fe4 O26 1.995384 1_555
Fe4 O32 2.004724 1_555
Fe4 O31 2.111723 1_555
Fe4 O21 2.363402 1_555
Fe5 O19 1.967558 1_555
Fe5 O39 1.967909 1_555
Fe5 O27 1.995384 1_555
Fe5 O33 2.004724 1_555
Fe5 O30 2.111723 1_555
Fe5 O20 2.363402 1_555
Fe6 O15 1.947242 1_545
Fe6 O32 1.971611 1_555
Fe6 O4 2.016323 1_555
Fe6 O28 2.062713 1_555
Fe6 O23 2.064517 1_455
Fe7 O14 1.947242 1_655
Fe7 O33 1.971611 1_556
Fe7 O5 2.016323 1_555
Fe7 O29 2.062713 1_555
Fe7 O22 2.064517 1_565
Fe8 O13 1.947242 1_565
Fe8 O34 1.971611 1_555
Fe8 O6 2.016323 1_555
Fe8 O30 2.062713 1_555
Fe8 O21 2.064517 1_655
Fe9 O12 1.947242 1_455
Fe9 O35 1.971611 1_554
Fe9 O7 2.016323 1_555
Fe9 O31 2.062713 1_555
Fe9 O20 2.064517 1_545
H0 O24 1.033481 1_555
H0 O9 1.516276 1_555
H1 O25 1.033481 1_555
H1 O8 1.516276 1_555
H2 O26 1.033481 1_555
H2 O11 1.516276 1_555
H3 O27 1.033481 1_555
H3 O10 1.516276 1_555
H4 O24 0.994351 1_555
H5 O25 0.994351 1_555
H6 O26 0.994351 1_555
H7 O27 0.994351 1_555
H8 O32 0.986729 1_555
H9 O33 0.986729 1_556
H10 O34 0.986729 1_555
H11 O35 0.986729 1_554
O0 P4 1.519775 1_555
O1 P5 1.519775 1_555
O2 P6 1.519775 1_555
O3 P7 1.519775 1_555
O4 P0 1.584196 1_455
O5 P1 1.584196 1_565
O6 P2 1.584189 1_655
O7 P3 1.584196 1_545
O8 P0 1.484812 1_555
O9 P1 1.484812 1_555
O10 P2 1.484812 1_555
O11 P3 1.484812 1_555
O12 P0 1.592825 1_554
O13 P1 1.592825 1_555
O14 P2 1.592833 1_556
O15 P3 1.592825 1_555
O16 P0 1.562913 1_555
O17 P1 1.562913 1_555
O18 P2 1.562912 1_555
O19 P3 1.562913 1_555
O20 P4 1.584350 1_554
O21 P5 1.584350 1_555
O22 P6 1.584350 1_556
O23 P7 1.584350 1_555
O28 P4 1.581737 1_545
O29 P5 1.581737 1_655
O30 P6 1.581737 1_565
O31 P7 1.581737 1_455
O36 P4 1.535424 1_555
O37 P5 1.535424 1_555
O38 P6 1.535424 1_555
O39 P7 1.535424 1_555
