# generated using pymatgen
data_TiH2N2OF4
_symmetry_space_group_name_H-M   'P 1'
_cell_length_a   7.80956500
_cell_length_b   6.24676000
_cell_length_c   11.05202155
_cell_angle_alpha   89.74257818
_cell_angle_beta   90.00000000
_cell_angle_gamma   90.00000000
_symmetry_Int_Tables_number   1
_chemical_formula_structural   TiH2N2OF4
_chemical_formula_sum   'Ti4 H8 N8 O4 F16'
_cell_volume   539.16166312
_cell_formula_units_Z   4
loop_
 _symmetry_equiv_pos_site_id
 _symmetry_equiv_pos_as_xyz
  1  'x, y, z'
loop_
 _atom_site_type_symbol
 _atom_site_label
 _atom_site_symmetry_multiplicity
 _atom_site_fract_x
 _atom_site_fract_y
 _atom_site_fract_z
 _atom_site_occupancy
  Ti  Ti0  1  0.50000000  0.00000000  0.00000000  1
  Ti  Ti1  1  0.00000000  0.00000000  0.00000000  1
  Ti  Ti2  1  0.00000000  0.50000000  0.50000000  1
  Ti  Ti3  1  0.50000000  0.50000000  0.50000000  1
  H  H0  1  0.35951300  0.42978100  0.25095200  1
  H  H1  1  0.85951300  0.57021900  0.74904800  1
  H  H2  1  0.64048700  0.57021900  0.74904800  1
  H  H3  1  0.14048700  0.42978100  0.25095200  1
  H  H4  1  0.25000000  0.55130600  0.14012800  1
  H  H5  1  0.75000000  0.44869400  0.85987200  1
  H  H6  1  0.25000000  0.28407900  0.14813700  1
  H  H7  1  0.75000000  0.71592100  0.85186300  1
  N  N0  1  0.25000000  0.42357300  0.19864700  1
  N  N1  1  0.75000000  0.57642700  0.80135300  1
  N  N2  1  0.25000000  0.91128900  0.31083100  1
  N  N3  1  0.75000000  0.08871100  0.68916900  1
  N  N4  1  0.25000000  0.50910800  0.85932200  1
  N  N5  1  0.75000000  0.49089200  0.14067800  1
  N  N6  1  0.25000000  0.00222000  0.63894200  1
  N  N7  1  0.75000000  0.99778000  0.36105800  1
  O  O0  1  0.25000000  0.07988200  0.01599100  1
  O  O1  1  0.75000000  0.92011800  0.98400900  1
  O  O2  1  0.25000000  0.58006100  0.48568200  1
  O  O3  1  0.75000000  0.41993900  0.51431800  1
  F  F0  1  0.44803000  0.23442000  0.43618700  1
  F  F1  1  0.94803000  0.76558000  0.56381300  1
  F  F2  1  0.55197000  0.76558000  0.56381300  1
  F  F3  1  0.05197000  0.23442000  0.43618700  1
  F  F4  1  0.44917300  0.73105700  0.06393600  1
  F  F5  1  0.94917300  0.26894300  0.93606400  1
  F  F6  1  0.55082700  0.26894300  0.93606400  1
  F  F7  1  0.05082700  0.73105700  0.06393600  1
  F  F8  1  0.46911000  0.89613800  0.84363200  1
  F  F9  1  0.96911000  0.10386200  0.15636800  1
  F  F10  1  0.53089000  0.10386200  0.15636800  1
  F  F11  1  0.03089000  0.89613800  0.84363200  1
  F  F12  1  0.03309200  0.39921900  0.65773800  1
  F  F13  1  0.53309200  0.60078100  0.34226200  1
  F  F14  1  0.96690800  0.60078100  0.34226200  1
  F  F15  1  0.46690800  0.39921900  0.65773800  1
loop_
_geom_bond_atom_site_label_1
_geom_bond_atom_site_label_2
_geom_bond_distance
_geom_bond_site_symmetry_2
H0 N0 1.033116 1_555
H1 N1 1.033116 1_555
H2 N1 1.033116 1_555
H3 N0 1.033116 1_555
H4 N0 1.024854 1_555
H5 N1 1.024854 1_555
H6 N0 1.036973 1_555
H7 N1 1.036973 1_555
O0 Ti0 2.023083 1_555
O0 Ti1 2.023083 1_555
O1 Ti1 2.023083 1_666
O1 Ti0 2.023083 1_566
O2 Ti3 2.021456 1_555
O2 Ti2 2.021456 1_555
O3 Ti2 2.021456 1_655
O3 Ti3 2.021456 1_555
F0 Ti3 1.850666 1_555
F1 Ti2 1.850666 1_655
F2 Ti3 1.850666 1_555
F3 Ti2 1.850666 1_555
F4 Ti0 1.862440 1_565
F5 Ti1 1.862440 1_656
F6 Ti0 1.862440 1_556
F7 Ti1 1.862440 1_565
F8 Ti0 1.864357 1_566
F9 Ti1 1.864357 1_655
F10 Ti0 1.864357 1_555
F11 Ti1 1.864357 1_566
F12 Ti2 1.868808 1_555
F13 Ti3 1.868808 1_555
F14 Ti2 1.868808 1_655
F15 Ti3 1.868808 1_555
