# generated using pymatgen
data_ZrCoO3
_symmetry_space_group_name_H-M   'P 1'
_cell_length_a   5.41993689
_cell_length_b   5.70362677
_cell_length_c   7.81571876
_cell_angle_alpha   93.83185020
_cell_angle_beta   89.65627050
_cell_angle_gamma   89.69350544
_symmetry_Int_Tables_number   1
_chemical_formula_structural   ZrCoO3
_chemical_formula_sum   'Zr4 Co4 O12'
_cell_volume   241.06116989
_cell_formula_units_Z   4
loop_
 _symmetry_equiv_pos_site_id
 _symmetry_equiv_pos_as_xyz
  1  'x, y, z'
loop_
 _atom_site_type_symbol
 _atom_site_label
 _atom_site_symmetry_multiplicity
 _atom_site_fract_x
 _atom_site_fract_y
 _atom_site_fract_z
 _atom_site_occupancy
  Zr  Zr0  1  0.99939800  0.28360700  0.85818900  1
  Zr  Zr1  1  0.49938900  0.78361100  0.35817100  1
  Zr  Zr2  1  0.00061100  0.71638600  0.14182700  1
  Zr  Zr3  1  0.50060300  0.21639200  0.64180900  1
  Co  Co0  1  0.99957100  0.70678000  0.64931700  1
  Co  Co1  1  0.50044400  0.79323100  0.85068400  1
  Co  Co2  1  0.49960800  0.20689900  0.14930200  1
  Co  Co3  1  0.00039400  0.29310000  0.35070100  1
  O  O0  1  0.14686900  0.35186600  0.09848300  1
  O  O1  1  0.64697400  0.85188400  0.59845000  1
  O  O2  1  0.69824800  0.50424000  0.25065400  1
  O  O3  1  0.19826300  0.00426700  0.75064300  1
  O  O4  1  0.65395500  0.15054500  0.89834300  1
  O  O5  1  0.15396900  0.65055700  0.39835300  1
  O  O6  1  0.34603200  0.84944500  0.10164700  1
  O  O7  1  0.84604100  0.34945700  0.60165500  1
  O  O8  1  0.30173000  0.49572400  0.74935900  1
  O  O9  1  0.80174900  0.99575700  0.24934400  1
  O  O10  1  0.85302300  0.64811800  0.90155000  1
  O  O11  1  0.35312800  0.14813400  0.40151700  1
loop_
_geom_bond_atom_site_label_1
_geom_bond_atom_site_label_2
_geom_bond_distance
_geom_bond_site_symmetry_2
Co0 O3 2.125096 1_665
Co0 O1 2.128687 1_555
Co0 O5 2.131624 1_655
Co0 O10 2.168270 1_555
Co0 O8 2.205118 1_655
Co0 O7 2.214764 1_555
Co1 O8 2.125243 1_555
Co1 O10 2.128618 1_555
Co1 O6 2.131641 1_556
Co1 O1 2.168230 1_555
Co1 O3 2.205139 1_565
Co1 O4 2.214676 1_565
Co2 O2 2.124370 1_555
Co2 O0 2.128985 1_555
Co2 O4 2.131546 1_554
Co2 O11 2.168135 1_555
Co2 O9 2.205323 1_545
Co2 O6 2.215534 1_545
Co3 O9 2.124406 1_445
Co3 O11 2.128954 1_555
Co3 O7 2.131525 1_455
Co3 O0 2.168148 1_555
Co3 O2 2.205352 1_455
Co3 O5 2.215545 1_555
O0 Zr0 2.059415 1_454
O0 Zr2 2.225029 1_555
O1 Zr1 2.059563 1_555
O1 Zr3 2.225191 1_565
O2 Zr1 2.049050 1_555
O2 Zr2 2.239472 1_655
O3 Zr0 2.049016 1_455
O3 Zr3 2.239335 1_555
O4 Zr0 2.054237 1_555
O4 Zr3 2.229168 1_555
O5 Zr1 2.054144 1_555
O5 Zr2 2.229100 1_555
O6 Zr2 2.054157 1_555
O6 Zr1 2.229090 1_555
O7 Zr3 2.054219 1_555
O7 Zr0 2.229182 1_555
O8 Zr3 2.049015 1_555
O8 Zr0 2.239264 1_455
O9 Zr2 2.049059 1_655
O9 Zr1 2.239460 1_555
O10 Zr2 2.059552 1_656
O10 Zr0 2.225216 1_555
O11 Zr3 2.059408 1_555
O11 Zr1 2.225052 1_545
