# generated using pymatgen
data_Li3CrSiBO7
_symmetry_space_group_name_H-M   'P 1'
_cell_length_a   8.35564251
_cell_length_b   6.28526000
_cell_length_c   5.09787164
_cell_angle_alpha   90.00054949
_cell_angle_beta   84.72077564
_cell_angle_gamma   89.99863748
_symmetry_Int_Tables_number   1
_chemical_formula_structural   Li3CrSiBO7
_chemical_formula_sum   'Li6 Cr2 Si2 B2 O14'
_cell_volume   266.59122697
_cell_formula_units_Z   2
loop_
 _symmetry_equiv_pos_site_id
 _symmetry_equiv_pos_as_xyz
  1  'x, y, z'
loop_
 _atom_site_type_symbol
 _atom_site_label
 _atom_site_symmetry_multiplicity
 _atom_site_fract_x
 _atom_site_fract_y
 _atom_site_fract_z
 _atom_site_occupancy
  Li  Li0  1  0.10196700  0.25003800  0.76641200  1
  Li  Li1  1  0.24930100  0.00268000  0.26026100  1
  Li  Li2  1  0.24934500  0.49734900  0.26030000  1
  Li  Li3  1  0.75052800  0.50283900  0.73975600  1
  Li  Li4  1  0.75057400  0.99730400  0.73972700  1
  Li  Li5  1  0.89800900  0.75002200  0.23344900  1
  Cr  Cr0  1  0.31702300  0.74984600  0.79882800  1
  Cr  Cr1  1  0.68299600  0.24983700  0.20134500  1
  Si  Si0  1  0.42762800  0.24992400  0.72274400  1
  Si  Si1  1  0.57238400  0.74993300  0.27730800  1
  B  B0  1  0.03845900  0.75006500  0.70903300  1
  B  B1  1  0.96161900  0.25005000  0.29089300  1
  O  O0  1  0.11143800  0.25005600  0.36736900  1
  O  O1  1  0.08496900  0.75004100  0.96480800  1
  O  O2  1  0.17670600  0.75003600  0.52299100  1
  O  O3  1  0.30513400  0.05240700  0.81860400  1
  O  O4  1  0.30509100  0.44747100  0.81864400  1
  O  O5  1  0.47015700  0.25002700  0.40289000  1
  O  O6  1  0.40593900  0.75003600  0.13386700  1
  O  O7  1  0.59406200  0.25002200  0.86622500  1
  O  O8  1  0.52990900  0.75001200  0.59715500  1
  O  O9  1  0.69486400  0.55241900  0.18131800  1
  O  O10  1  0.69490400  0.94747000  0.18130500  1
  O  O11  1  0.82335300  0.25004500  0.47702600  1
  O  O12  1  0.91505500  0.25000300  0.03515700  1
  O  O13  1  0.88858500  0.75006900  0.63258400  1
loop_
_geom_bond_atom_site_label_1
_geom_bond_atom_site_label_2
_geom_bond_distance
_geom_bond_site_symmetry_2
Li0 O12 1.980495 1_456
Li0 O0 2.028520 1_555
Li0 O4 2.138838 1_555
Li0 O3 2.139766 1_555
Li1 O0 1.981595 1_555
Li1 O6 2.119997 1_545
Li1 O2 2.129307 1_545
Li1 O3 2.278455 1_554
Li1 O5 2.568676 1_555
Li1 O1 2.656323 1_544
Li2 O0 1.981397 1_555
Li2 O6 2.120088 1_555
Li2 O2 2.129432 1_555
Li2 O4 2.278489 1_554
Li2 O5 2.568193 1_555
Li2 O1 2.656832 1_554
Li3 O13 1.981901 1_555
Li3 O7 2.120116 1_555
Li3 O11 2.130406 1_555
Li3 O9 2.277690 1_556
Li3 O8 2.566445 1_555
Li3 O12 2.657806 1_556
Li4 O13 1.981628 1_555
Li4 O7 2.119856 1_565
Li4 O11 2.130022 1_565
Li4 O10 2.278003 1_556
Li4 O8 2.567177 1_555
Li4 O12 2.657185 1_566
Li5 O1 1.980458 1_654
Li5 O13 2.029009 1_555
Li5 O10 2.138633 1_555
Li5 O9 2.139498 1_555
Cr0 O4 1.905315 1_555
Cr0 O3 1.906448 1_565
Cr0 O2 1.911896 1_555
Cr0 O6 1.924241 1_556
Cr0 O8 1.970937 1_555
Cr0 O1 2.042944 1_555
Cr1 O10 1.905304 1_545
Cr1 O9 1.906640 1_555
Cr1 O11 1.911494 1_555
Cr1 O7 1.924692 1_554
Cr1 O5 1.970315 1_555
Cr1 O12 2.043329 1_555
B0 O13 1.345339 1_455
B0 O1 1.394435 1_555
B0 O2 1.425569 1_555
B1 O0 1.344951 1_655
B1 O12 1.394409 1_555
B1 O11 1.425962 1_555
O3 Si0 1.653969 1_555
O4 Si0 1.654328 1_555
O5 Si0 1.636590 1_555
O6 Si1 1.629743 1_555
O7 Si0 1.629768 1_555
O8 Si1 1.636498 1_555
O9 Si1 1.654000 1_555
O10 Si1 1.654366 1_555
