# generated using pymatgen
data_LiTiVO4
_symmetry_space_group_name_H-M   'P 1'
_cell_length_a   5.99546900
_cell_length_b   6.03039294
_cell_length_c   10.31462542
_cell_angle_alpha   89.15761934
_cell_angle_beta   106.89721795
_cell_angle_gamma   119.80996050
_symmetry_Int_Tables_number   1
_chemical_formula_structural   LiTiVO4
_chemical_formula_sum   'Li4 Ti4 V4 O16'
_cell_volume   305.80325038
_cell_formula_units_Z   4
loop_
 _symmetry_equiv_pos_site_id
 _symmetry_equiv_pos_as_xyz
  1  'x, y, z'
loop_
 _atom_site_type_symbol
 _atom_site_label
 _atom_site_symmetry_multiplicity
 _atom_site_fract_x
 _atom_site_fract_y
 _atom_site_fract_z
 _atom_site_occupancy
  Li  Li0  1  0.37166300  0.68255700  0.56077400  1
  Li  Li1  1  0.37154400  0.18224900  0.06083200  1
  Li  Li2  1  0.62836500  0.81747900  0.93922500  1
  Li  Li3  1  0.62849400  0.31778600  0.43916200  1
  Ti  Ti0  1  0.00003000  0.75003500  0.75000100  1
  Ti  Ti1  1  0.99996800  0.24997400  0.24998400  1
  Ti  Ti2  1  0.00056900  0.00104500  0.50007000  1
  Ti  Ti3  1  0.99946900  0.49901100  0.99992900  1
  V  V0  1  0.99992100  0.24998200  0.75001700  1
  V  V1  1  0.50011500  0.24998200  0.75000100  1
  V  V2  1  0.99998000  0.74994500  0.24997800  1
  V  V3  1  0.49978900  0.74981900  0.25005200  1
  O  O0  1  0.78545100  0.88370100  0.62807700  1
  O  O1  1  0.78501400  0.38292700  0.12779200  1
  O  O2  1  0.22633600  0.88369500  0.62809500  1
  O  O3  1  0.22565300  0.38289400  0.12778900  1
  O  O4  1  0.77370100  0.61633900  0.87189600  1
  O  O5  1  0.77434100  0.11709100  0.37220900  1
  O  O6  1  0.21457300  0.61633400  0.87191500  1
  O  O7  1  0.21500200  0.11710000  0.37219500  1
  O  O8  1  0.23125900  0.10721700  0.85530400  1
  O  O9  1  0.23116700  0.60734500  0.35505700  1
  O  O10  1  0.23095700  0.33563300  0.62624600  1
  O  O11  1  0.23080200  0.83519900  0.12638900  1
  O  O12  1  0.76878000  0.39282300  0.64468500  1
  O  O13  1  0.76877600  0.89265300  0.14495800  1
  O  O14  1  0.76906900  0.16438000  0.87375600  1
  O  O15  1  0.76921400  0.66480500  0.37361100  1
loop_
_geom_bond_atom_site_label_1
_geom_bond_atom_site_label_2
_geom_bond_distance
_geom_bond_site_symmetry_2
Li0 O9 2.006768 1_555
Li0 O10 2.019763 1_555
Li0 O0 2.034592 1_555
Li0 O2 2.034653 1_555
Li1 O8 2.004903 1_554
Li1 O11 2.020775 1_545
Li1 O1 2.033054 1_555
Li1 O3 2.033240 1_555
Li2 O13 2.006916 1_556
Li2 O14 2.019635 1_565
Li2 O6 2.034612 1_555
Li2 O4 2.034746 1_555
Li3 O12 2.004855 1_555
Li3 O15 2.020594 1_555
Li3 O7 2.033162 1_555
Li3 O5 2.033249 1_555
O0 Ti0 1.986730 1_655
O0 Ti2 1.990601 1_665
O0 V0 2.105213 1_565
O1 Ti1 1.986355 1_555
O1 Ti3 1.986533 1_554
O1 V2 2.109419 1_555
O2 Ti0 1.986537 1_555
O2 Ti2 1.990629 1_565
O2 V1 2.105103 1_565
O3 Ti1 1.986272 1_455
O3 Ti3 1.986429 1_454
O3 V3 2.109285 1_555
O4 Ti0 1.986547 1_655
O4 Ti3 1.990580 1_555
O4 V1 2.105244 1_555
O5 Ti1 1.986284 1_555
O5 Ti2 1.986317 1_655
O5 V3 2.110476 1_545
O6 Ti0 1.986693 1_555
O6 Ti3 1.990604 1_455
O6 V0 2.105255 1_455
O7 Ti1 1.986418 1_455
O7 Ti2 1.986547 1_555
O7 V2 2.110153 1_445
O8 Ti0 1.991407 1_545
O8 V0 2.031854 1_455
O8 V1 2.032172 1_555
O9 Ti1 1.991404 1_455
O9 V3 2.028767 1_555
O9 V2 2.029727 1_455
O10 Ti2 1.983445 1_555
O10 V1 2.027856 1_555
O10 V0 2.027946 1_455
O11 Ti3 1.991387 1_454
O11 V3 2.025676 1_555
O11 V2 2.025676 1_455
O12 Ti0 1.991590 1_655
O12 V1 2.031439 1_555
O12 V0 2.031482 1_555
O13 Ti1 1.991007 1_565
O13 V2 2.030094 1_555
O13 V3 2.031125 1_555
O14 Ti3 1.983607 1_555
O14 V1 2.026762 1_555
O14 V0 2.026886 1_555
O15 Ti2 1.991596 1_665
O15 V3 2.025783 1_555
O15 V2 2.025867 1_555
