# generated using pymatgen
data_MnVP2(O4F)2
_symmetry_space_group_name_H-M   'P 1'
_cell_length_a   7.03656170
_cell_length_b   7.55290575
_cell_length_c   7.37279031
_cell_angle_alpha   91.97087778
_cell_angle_beta   115.31281071
_cell_angle_gamma   89.06769043
_symmetry_Int_Tables_number   1
_chemical_formula_structural   MnVP2(O4F)2
_chemical_formula_sum   'Mn2 V2 P4 O16 F4'
_cell_volume   354.00628970
_cell_formula_units_Z   2
loop_
 _symmetry_equiv_pos_site_id
 _symmetry_equiv_pos_as_xyz
  1  'x, y, z'
loop_
 _atom_site_type_symbol
 _atom_site_label
 _atom_site_symmetry_multiplicity
 _atom_site_fract_x
 _atom_site_fract_y
 _atom_site_fract_z
 _atom_site_occupancy
  Mn  Mn0  1  0.49994700  0.00006200  0.49998600  1
  Mn  Mn1  1  0.00012100  0.49992100  0.50014800  1
  V  V0  1  0.50003400  0.50001900  0.00005100  1
  V  V1  1  0.99996500  0.99995000  0.99993300  1
  P  P0  1  0.27115800  0.84497000  0.75218600  1
  P  P1  1  0.77115500  0.34498100  0.75219300  1
  P  P2  1  0.72889000  0.15500700  0.24783900  1
  P  P3  1  0.22880500  0.65503700  0.24777800  1
  O  O0  1  0.19887300  0.93700200  0.90568100  1
  O  O1  1  0.69891500  0.43697600  0.90573300  1
  O  O2  1  0.80109600  0.06300600  0.09429000  1
  O  O3  1  0.30113200  0.56298200  0.09432700  1
  O  O4  1  0.58715500  0.24086800  0.59348300  1
  O  O5  1  0.08716600  0.74068500  0.59367400  1
  O  O6  1  0.41274300  0.75938700  0.40624700  1
  O  O7  1  0.91289000  0.25912300  0.40652900  1
  O  O8  1  0.35016100  0.99368300  0.66688100  1
  O  O9  1  0.85021800  0.49370200  0.66694000  1
  O  O10  1  0.64979600  0.00633100  0.33309400  1
  O  O11  1  0.14981900  0.50634600  0.33311400  1
  O  O12  1  0.54212700  0.28091900  0.12671300  1
  O  O13  1  0.04190600  0.78073200  0.12645400  1
  O  O14  1  0.45804300  0.71926000  0.87349400  1
  O  O15  1  0.95795500  0.21910800  0.87330500  1
  F  F0  1  0.21169000  0.09434900  0.23218000  1
  F  F1  1  0.71182200  0.59435800  0.23218400  1
  F  F2  1  0.78822400  0.90557000  0.76772700  1
  F  F3  1  0.28819600  0.40566600  0.76783700  1
loop_
_geom_bond_atom_site_label_1
_geom_bond_atom_site_label_2
_geom_bond_distance
_geom_bond_site_symmetry_2
Mn0 O8 1.934429 1_545
Mn0 O10 1.934726 1_555
Mn0 O6 1.935406 1_545
Mn0 O4 1.935996 1_555
Mn1 O9 1.934374 1_455
Mn1 O11 1.934834 1_555
Mn1 O5 1.935535 1_555
Mn1 O7 1.936139 1_455
O0 P0 1.564996 1_555
O0 V1 1.858817 1_455
O1 P1 1.564963 1_555
O1 V0 1.859144 1_556
O2 P2 1.564888 1_555
O2 V1 1.859288 1_544
O3 P3 1.564979 1_555
O3 V0 1.858927 1_555
O4 P1 1.529124 1_555
O5 P0 1.529185 1_555
O6 P3 1.529109 1_555
O7 P2 1.529079 1_555
O8 P0 1.527775 1_555
O9 P1 1.527826 1_555
O10 P2 1.527699 1_555
O11 P3 1.527718 1_555
O12 P2 1.563053 1_555
O12 V0 1.884710 1_555
O13 P3 1.562949 1_555
O13 V1 1.885103 1_454
O14 P0 1.562933 1_555
O14 V0 1.885355 1_556
O15 P1 1.563001 1_555
O15 V1 1.885026 1_545
F0 V1 1.851773 1_444
F0 Mn0 2.268236 1_555
F1 V0 1.851314 1_555
F1 Mn1 2.269343 1_655
F2 V1 1.851596 1_555
F2 Mn0 2.268580 1_565
F3 V0 1.851838 1_556
F3 Mn1 2.267064 1_555
