# generated using pymatgen
data_KLi4CrO5
_symmetry_space_group_name_H-M   'P 1'
_cell_length_a   5.60833377
_cell_length_b   9.37070111
_cell_length_c   10.29271998
_cell_angle_alpha   116.75702670
_cell_angle_beta   81.10515206
_cell_angle_gamma   99.96644042
_symmetry_Int_Tables_number   1
_chemical_formula_structural   KLi4CrO5
_chemical_formula_sum   'K4 Li16 Cr4 O20'
_cell_volume   473.90202361
_cell_formula_units_Z   4
loop_
 _symmetry_equiv_pos_site_id
 _symmetry_equiv_pos_as_xyz
  1  'x, y, z'
loop_
 _atom_site_type_symbol
 _atom_site_label
 _atom_site_symmetry_multiplicity
 _atom_site_fract_x
 _atom_site_fract_y
 _atom_site_fract_z
 _atom_site_occupancy
  K  K0  1  0.52607800  0.91646600  0.32926100  1
  K  K1  1  0.02607700  0.41651300  0.82925300  1
  K  K2  1  0.97395900  0.58347100  0.17071400  1
  K  K3  1  0.47397000  0.08352800  0.67074700  1
  Li  Li0  1  0.33872300  0.77873500  0.86368700  1
  Li  Li1  1  0.83870100  0.27875200  0.36369700  1
  Li  Li2  1  0.16128900  0.72126300  0.63631000  1
  Li  Li3  1  0.66128600  0.22126000  0.13629900  1
  Li  Li4  1  0.60669600  0.93956000  0.06429500  1
  Li  Li5  1  0.10671900  0.43957000  0.56430300  1
  Li  Li6  1  0.89327900  0.56043500  0.43570200  1
  Li  Li7  1  0.39330000  0.06044100  0.93569700  1
  Li  Li8  1  0.36398700  0.26519900  0.35211000  1
  Li  Li9  1  0.86397200  0.76517800  0.85210500  1
  Li  Li10  1  0.13602700  0.23481800  0.14788700  1
  Li  Li11  1  0.63601800  0.73479600  0.64789100  1
  Li  Li12  1  0.52817100  0.65023600  0.02545200  1
  Li  Li13  1  0.02818100  0.15024100  0.52544900  1
  Li  Li14  1  0.97181900  0.84975800  0.47454600  1
  Li  Li15  1  0.47182900  0.34976000  0.97455000  1
  Cr  Cr0  1  0.57096000  0.43862000  0.65897700  1
  Cr  Cr1  1  0.42901100  0.56138300  0.34112100  1
  Cr  Cr2  1  0.07095800  0.93863300  0.15892400  1
  Cr  Cr3  1  0.92904400  0.06139300  0.84106700  1
  O  O0  1  0.36777200  0.59140500  0.67900600  1
  O  O1  1  0.86775400  0.09141200  0.17901800  1
  O  O2  1  0.13223800  0.90859200  0.82097600  1
  O  O3  1  0.63224200  0.40860300  0.32099400  1
  O  O4  1  0.33727600  0.08657400  0.14676500  1
  O  O5  1  0.83726500  0.58654500  0.64673700  1
  O  O6  1  0.16270200  0.41342900  0.35325000  1
  O  O7  1  0.66272100  0.91343200  0.85322900  1
  O  O8  1  0.28829500  0.78467100  0.05669300  1
  O  O9  1  0.78831200  0.28464900  0.55667800  1
  O  O10  1  0.21167900  0.71534000  0.44331300  1
  O  O11  1  0.71170400  0.21533600  0.94331800  1
  O  O12  1  0.33169700  0.28404800  0.55424500  1
  O  O13  1  0.83174800  0.78405800  0.05426700  1
  O  O14  1  0.16826400  0.21593900  0.94573300  1
  O  O15  1  0.66824600  0.71594600  0.44574300  1
  O  O16  1  0.03938600  0.95093300  0.33184900  1
  O  O17  1  0.53943700  0.45094200  0.83176900  1
  O  O18  1  0.46059800  0.54907000  0.16821900  1
  O  O19  1  0.96061100  0.04906900  0.66815200  1
loop_
_geom_bond_atom_site_label_1
_geom_bond_atom_site_label_2
_geom_bond_distance
_geom_bond_site_symmetry_2
K0 O16 2.798265 1_555
K0 O16 2.843705 1_655
K0 O10 2.870698 1_555
K0 O15 2.906279 1_555
K1 O17 2.798019 1_455
K1 O17 2.843933 1_555
K1 O11 2.871067 1_455
K1 O14 2.906757 1_555
K2 O18 2.797982 1_655
K2 O18 2.843931 1_555
K2 O8 2.870859 1_655
K2 O13 2.906671 1_555
K3 O19 2.797946 1_555
K3 O19 2.844002 1_455
K3 O9 2.870631 1_555
K3 O12 2.906698 1_555
Li0 O0 1.928738 1_555
Li0 O8 1.939508 1_556
Li0 O2 2.035168 1_555
Li0 O7 2.043164 1_555
Li1 O1 1.928773 1_555
Li1 O9 1.939404 1_555
Li1 O3 2.034973 1_555
Li1 O6 2.043064 1_655
Li2 O2 1.928647 1_555
Li2 O10 1.939468 1_555
Li2 O0 2.035079 1_555
Li2 O5 2.043311 1_455
Li3 O3 1.928875 1_555
Li3 O11 1.939300 1_554
Li3 O1 2.035081 1_555
Li3 O4 2.043182 1_555
Li4 O1 1.965525 1_565
Li4 O4 2.042658 1_565
Li4 O13 2.046448 1_555
Li4 O7 2.052996 1_554
Li4 O8 2.084533 1_555
Li5 O0 1.965373 1_555
Li5 O5 2.042585 1_455
Li5 O12 2.046181 1_555
Li5 O6 2.052822 1_555
Li5 O9 2.084684 1_455
Li6 O3 1.965320 1_555
Li6 O6 2.042626 1_655
Li6 O15 2.046388 1_555
Li6 O5 2.052739 1_555
Li6 O10 2.084595 1_655
Li7 O2 1.965524 1_545
Li7 O7 2.042634 1_545
Li7 O14 2.046323 1_555
Li7 O4 2.053001 1_556
Li7 O11 2.084548 1_555
Li8 O3 1.926263 1_555
Li8 O6 1.930766 1_555
Li8 O12 1.989027 1_555
Li8 O4 2.029034 1_555
Li9 O2 1.926410 1_655
Li9 O7 1.930882 1_555
Li9 O13 1.989216 1_556
Li9 O5 2.029219 1_555
Li10 O1 1.926395 1_455
Li10 O4 1.930806 1_555
Li10 O14 1.989134 1_554
Li10 O6 2.029096 1_555
Li11 O0 1.926150 1_555
Li11 O5 1.930717 1_555
Li11 O15 1.989175 1_555
Li11 O7 2.029016 1_555
Li12 O8 1.894287 1_555
Li12 O13 1.908260 1_555
Li12 O17 2.028661 1_554
Li12 O18 2.039456 1_555
Li13 O9 1.894105 1_455
Li13 O12 1.907925 1_555
Li13 O16 2.028230 1_545
Li13 O19 2.038905 1_455
Li14 O10 1.894122 1_655
Li14 O15 1.908202 1_555
Li14 O19 2.028279 1_565
Li14 O16 2.038871 1_655
Li15 O11 1.894231 1_555
Li15 O14 1.908202 1_555
Li15 O18 2.028644 1_556
Li15 O17 2.039698 1_555
Cr0 O17 1.712476 1_555
Cr0 O12 1.851834 1_555
Cr0 O9 1.876239 1_555
Cr0 O5 1.884246 1_555
Cr0 O0 1.901883 1_555
Cr1 O18 1.713616 1_555
Cr1 O15 1.851307 1_555
Cr1 O10 1.875953 1_555
Cr1 O6 1.884117 1_555
Cr1 O3 1.901692 1_555
Cr2 O16 1.713901 1_555
Cr2 O13 1.851379 1_455
Cr2 O8 1.876047 1_555
Cr2 O4 1.884159 1_565
Cr2 O1 1.901686 1_465
Cr3 O19 1.713714 1_555
Cr3 O14 1.851342 1_655
Cr3 O11 1.875971 1_555
Cr3 O7 1.884304 1_545
Cr3 O2 1.901822 1_645
