# generated using pymatgen
data_TeC4S4N8(ClO)2
_symmetry_space_group_name_H-M   'P 1'
_cell_length_a   13.90314200
_cell_length_b   6.82078000
_cell_length_c   9.76500281
_cell_angle_alpha   78.71264664
_cell_angle_beta   90.00000000
_cell_angle_gamma   90.00000000
_symmetry_Int_Tables_number   1
_chemical_formula_structural   TeC4S4N8(ClO)2
_chemical_formula_sum   'Te2 C8 S8 N16 Cl4 O4'
_cell_volume   908.10673665
_cell_formula_units_Z   2
loop_
 _symmetry_equiv_pos_site_id
 _symmetry_equiv_pos_as_xyz
  1  'x, y, z'
loop_
 _atom_site_type_symbol
 _atom_site_label
 _atom_site_symmetry_multiplicity
 _atom_site_fract_x
 _atom_site_fract_y
 _atom_site_fract_z
 _atom_site_occupancy
  Te  Te0  1  0.50000000  0.00000000  0.50000000  1
  Te  Te1  1  0.00000000  0.00000000  0.00000000  1
  C  C0  1  0.69877600  0.92956100  0.57951800  1
  C  C1  1  0.19877600  0.07043900  0.92048200  1
  C  C2  1  0.30122400  0.07043900  0.42048200  1
  C  C3  1  0.80122400  0.92956100  0.07951800  1
  C  C4  1  0.54092900  0.82100000  0.84347700  1
  C  C5  1  0.04092900  0.17900000  0.65652300  1
  C  C6  1  0.45907100  0.17900000  0.15652300  1
  C  C7  1  0.95907100  0.82100000  0.34347700  1
  S  S0  1  0.69129300  0.21066100  0.51541300  1
  S  S1  1  0.19129300  0.78933900  0.98458700  1
  S  S2  1  0.30870700  0.78933900  0.48458700  1
  S  S3  1  0.80870700  0.21066100  0.01541300  1
  S  S4  1  0.55105000  0.18488700  0.69990800  1
  S  S5  1  0.05105000  0.81511300  0.80009200  1
  S  S6  1  0.44895000  0.81511300  0.30009200  1
  S  S7  1  0.94895000  0.18488700  0.19990800  1
  N  N0  1  0.62729800  0.83898800  0.53074600  1
  N  N1  1  0.12729800  0.16101200  0.96925400  1
  N  N2  1  0.37270200  0.16101200  0.46925400  1
  N  N3  1  0.87270200  0.83898800  0.03074600  1
  N  N4  1  0.77907600  0.89041400  0.64996700  1
  N  N5  1  0.27907600  0.10958600  0.85003300  1
  N  N6  1  0.22092400  0.10958600  0.35003300  1
  N  N7  1  0.72092400  0.89041400  0.14996700  1
  N  N8  1  0.55177300  0.01333100  0.83435900  1
  N  N9  1  0.05177300  0.98666900  0.66564100  1
  N  N10  1  0.44822700  0.98666900  0.16564100  1
  N  N11  1  0.94822700  0.01333100  0.33435900  1
  N  N12  1  0.52960600  0.64675800  0.85581700  1
  N  N13  1  0.02960600  0.35324200  0.64418300  1
  N  N14  1  0.47039400  0.35324200  0.14418300  1
  N  N15  1  0.97039400  0.64675800  0.35581700  1
  Cl  Cl0  1  0.79605100  0.65235700  0.73649700  1
  Cl  Cl1  1  0.29605100  0.34764300  0.76350300  1
  Cl  Cl2  1  0.20394900  0.34764300  0.26350300  1
  Cl  Cl3  1  0.70394900  0.65235700  0.23649700  1
  O  O0  1  0.72443500  0.31887100  0.05514700  1
  O  O1  1  0.22443500  0.68112900  0.44485300  1
  O  O2  1  0.27556500  0.68112900  0.94485300  1
  O  O3  1  0.77556500  0.31887100  0.55514700  1
loop_
_geom_bond_atom_site_label_1
_geom_bond_atom_site_label_2
_geom_bond_distance
_geom_bond_site_symmetry_2
C0 N0 1.308138 1_555
C0 N4 1.311123 1_555
C1 N1 1.308138 1_555
C1 N5 1.311123 1_555
C2 N2 1.308138 1_555
C2 N6 1.311123 1_555
C3 N3 1.308138 1_555
C3 N7 1.311123 1_555
C4 N12 1.181395 1_555
C4 N8 1.306093 1_565
C5 N13 1.181395 1_555
C5 N9 1.306093 1_545
C6 N14 1.181395 1_555
C6 N10 1.306093 1_545
C7 N15 1.181395 1_555
C7 N11 1.306093 1_565
N0 Te0 2.073526 1_565
N1 Te1 2.073526 1_556
N2 Te0 2.073526 1_555
N3 Te1 2.073526 1_665
N8 S4 1.578508 1_555
N9 S5 1.578508 1_555
N10 S6 1.578508 1_555
N11 S7 1.578508 1_555
Cl0 N4 1.693841 1_555
Cl1 N5 1.693841 1_555
Cl2 N6 1.693841 1_555
Cl3 N7 1.693841 1_555
O0 S3 1.476537 1_555
O1 S2 1.476537 1_555
O2 S1 1.476537 1_555
O3 S0 1.476537 1_555
