# generated using pymatgen
data_FeOF
_symmetry_space_group_name_H-M   'P 1'
_cell_length_a   3.09526100
_cell_length_b   9.49412900
_cell_length_c   14.29420869
_cell_angle_alpha   89.58514716
_cell_angle_beta   90.00000000
_cell_angle_gamma   90.00000000
_symmetry_Int_Tables_number   1
_chemical_formula_structural   FeOF
_chemical_formula_sum   'Fe12 O12 F12'
_cell_volume   420.05014423
_cell_formula_units_Z   12
loop_
 _symmetry_equiv_pos_site_id
 _symmetry_equiv_pos_as_xyz
  1  'x, y, z'
loop_
 _atom_site_type_symbol
 _atom_site_label
 _atom_site_symmetry_multiplicity
 _atom_site_fract_x
 _atom_site_fract_y
 _atom_site_fract_z
 _atom_site_occupancy
  Fe  Fe0  1  0.00000000  0.98025500  0.99877100  1
  Fe  Fe1  1  0.00000000  0.99373700  0.33636000  1
  Fe  Fe2  1  0.00000000  0.98657100  0.66108600  1
  Fe  Fe3  1  0.50000000  0.74442300  0.14734600  1
  Fe  Fe4  1  0.50000000  0.76813200  0.49658100  1
  Fe  Fe5  1  0.50000000  0.74206600  0.85199400  1
  Fe  Fe6  1  0.00000000  0.48204100  0.32805700  1
  Fe  Fe7  1  0.00000000  0.49736000  0.00045900  1
  Fe  Fe8  1  0.00000000  0.48183100  0.66927200  1
  Fe  Fe9  1  0.50000000  0.27208200  0.16071600  1
  Fe  Fe10  1  0.50000000  0.27970300  0.50008000  1
  Fe  Fe11  1  0.50000000  0.27520400  0.83848000  1
  O  O0  1  0.50000000  0.90155000  0.60185700  1
  O  O1  1  0.50000000  0.90645600  0.93356600  1
  O  O2  1  0.00000000  0.85089000  0.10554500  1
  O  O3  1  0.00000000  0.85032500  0.43228600  1
  O  O4  1  0.00000000  0.64766000  0.89656500  1
  O  O5  1  0.50000000  0.59207900  0.06548800  1
  O  O6  1  0.50000000  0.40215500  0.26835700  1
  O  O7  1  0.50000000  0.40095200  0.93879500  1
  O  O8  1  0.50000000  0.40679900  0.60322400  1
  O  O9  1  0.00000000  0.34205500  0.10106400  1
  O  O10  1  0.00000000  0.34861000  0.43464300  1
  O  O11  1  0.00000000  0.34581700  0.76908100  1
  F  F0  1  0.50000000  0.90302100  0.26872500  1
  F  F1  1  0.00000000  0.84797700  0.76768000  1
  F  F2  1  0.00000000  0.65676300  0.23742500  1
  F  F3  1  0.00000000  0.65555300  0.56311000  1
  F  F4  1  0.50000000  0.59976100  0.39990700  1
  F  F5  1  0.50000000  0.60468600  0.72755000  1
  F  F6  1  0.00000000  0.14352400  0.23592500  1
  F  F7  1  0.00000000  0.15071400  0.89879200  1
  F  F8  1  0.00000000  0.15232900  0.56516400  1
  F  F9  1  0.50000000  0.09616200  0.06672700  1
  F  F10  1  0.50000000  0.09949600  0.39923800  1
  F  F11  1  0.50000000  0.09125800  0.73008700  1
loop_
_geom_bond_atom_site_label_1
_geom_bond_atom_site_label_2
_geom_bond_distance
_geom_bond_site_symmetry_2
Fe0 O1 1.940171 1_455
Fe0 O1 1.940171 1_555
Fe0 O2 1.952124 1_556
Fe1 O3 1.925356 1_555
Fe2 O0 1.942528 1_555
Fe2 O0 1.942528 1_455
Fe3 O5 1.866983 1_555
Fe3 O2 1.940406 1_555
Fe3 O2 1.940406 1_655
Fe4 O3 1.959175 1_555
Fe4 O3 1.959175 1_655
Fe4 O0 1.973990 1_555
Fe5 O4 1.896353 1_555
Fe5 O4 1.896353 1_655
Fe5 O1 1.954951 1_555
Fe6 O6 1.925619 1_455
Fe6 O6 1.925619 1_555
Fe6 O10 1.974362 1_555
Fe7 O7 2.005385 1_554
Fe7 O7 2.005385 1_454
Fe7 O5 2.019901 1_555
Fe7 O5 2.019901 1_455
Fe7 O4 2.052077 1_554
Fe7 O9 2.052180 1_555
Fe8 O11 1.917371 1_555
Fe8 O8 1.950306 1_555
Fe8 O8 1.950306 1_455
Fe9 O9 1.885565 1_555
Fe9 O9 1.885565 1_655
Fe9 O6 1.979896 1_555
Fe10 O8 1.911949 1_555
Fe10 O10 1.920731 1_655
Fe10 O10 1.920731 1_555
Fe11 O7 1.872498 1_555
Fe11 O11 1.954239 1_655
Fe11 O11 1.954239 1_555
F0 Fe1 2.020813 1_655
F0 Fe1 2.020813 1_555
F0 Fe3 2.305515 1_555
F1 Fe2 2.005982 1_555
F1 Fe5 2.200277 1_455
F1 Fe5 2.200277 1_555
F2 Fe6 2.097370 1_555
F2 Fe3 2.174908 1_555
F2 Fe3 2.174908 1_455
F3 Fe4 2.104096 1_455
F3 Fe4 2.104096 1_555
F3 Fe8 2.233134 1_555
F4 Fe4 2.120588 1_555
F4 Fe6 2.171573 1_555
F4 Fe6 2.171573 1_655
F5 Fe8 2.112741 1_555
F5 Fe8 2.112741 1_655
F5 Fe5 2.213377 1_555
F6 Fe1 2.013419 1_545
F6 Fe9 2.240900 1_555
F6 Fe9 2.240900 1_455
F7 Fe11 2.126167 1_555
F7 Fe11 2.126167 1_455
F7 Fe0 2.151275 1_545
F8 Fe2 2.079752 1_545
F8 Fe10 2.169514 1_555
F8 Fe10 2.169514 1_455
F9 Fe0 2.136626 1_644
F9 Fe0 2.136626 1_544
F9 Fe9 2.151063 1_555
F10 Fe1 2.055298 1_545
F10 Fe1 2.055298 1_645
F10 Fe10 2.245154 1_555
F11 Fe2 2.090463 1_645
F11 Fe2 2.090463 1_545
F11 Fe11 2.343019 1_555
