# generated using pymatgen
data_Li14Mn2S9
_symmetry_space_group_name_H-M   'P 1'
_cell_length_a   7.02945681
_cell_length_b   7.02938865
_cell_length_c   9.84367172
_cell_angle_alpha   90.00209627
_cell_angle_beta   89.99927375
_cell_angle_gamma   120.00112895
_symmetry_Int_Tables_number   1
_chemical_formula_structural   Li14Mn2S9
_chemical_formula_sum   'Li14 Mn2 S9'
_cell_volume   421.23275599
_cell_formula_units_Z   1
loop_
 _symmetry_equiv_pos_site_id
 _symmetry_equiv_pos_as_xyz
  1  'x, y, z'
loop_
 _atom_site_type_symbol
 _atom_site_label
 _atom_site_symmetry_multiplicity
 _atom_site_fract_x
 _atom_site_fract_y
 _atom_site_fract_z
 _atom_site_occupancy
  Li  Li0  1  0.02186414  0.67681037  0.41165032  1
  Li  Li1  1  0.32323182  0.96178947  0.08978435  1
  Li  Li2  1  0.03821118  0.36146691  0.08978627  1
  Li  Li3  1  -0.00002596  -0.00002708  0.75279402  1
  Li  Li4  1  0.00002575  0.00002697  0.24720634  1
  Li  Li5  1  0.32312688  0.34498341  0.41164075  1
  Li  Li6  1  0.65495172  0.97814081  0.41164966  1
  Li  Li7  1  0.36146385  0.32325600  0.91020764  1
  Li  Li8  1  0.63853532  0.67674315  0.08979227  1
  Li  Li9  1  0.34504722  0.02185877  0.58835043  1
  Li  Li10  1  0.67687170  0.65501599  0.58835931  1
  Li  Li11  1  0.96178777  0.63853211  0.91021382  1
  Li  Li12  1  0.67676808  0.03821066  0.91021582  1
  Li  Li13  1  0.97813852  0.32319110  0.58834939  1
  Mn  Mn0  1  0.33336645  0.66669870  0.75587633  1
  Mn  Mn1  1  0.66663288  0.33330016  0.24412176  1
  S  S0  1  0.31167419  0.97436283  0.83846387  1
  S  S1  1  0.02565484  0.33731918  0.83846485  1
  S  S2  1  0.33333419  0.66666408  0.51335968  1
  S  S3  1  -0.00000057  -0.00000021  0.50000026  1
  S  S4  1  0.33731014  0.31167584  0.16153485  1
  S  S5  1  0.66269069  0.68832410  0.83846536  1
  S  S6  1  0.66666460  0.33333549  0.48663984  1
  S  S7  1  0.97434314  0.66267895  0.16153540  1
  S  S8  1  0.68833144  0.02564025  0.16153741  1
loop_
_geom_bond_atom_site_label_1
_geom_bond_atom_site_label_2
_geom_bond_distance
_geom_bond_site_symmetry_2
Li0 S2 2.440790 1_555
Li0 S7 2.479911 1_455
Li0 S3 2.508027 1_565
Li0 S6 2.565158 1_455
Li1 S7 2.403690 1_455
Li1 S8 2.476910 1_565
Li1 S0 2.478281 1_554
Li1 S4 2.512804 1_565
Li2 S4 2.403705 1_555
Li2 S7 2.476693 1_455
Li2 S1 2.478286 1_554
Li2 S8 2.512856 1_455
Li3 S5 2.436709 1_445
Li3 S1 2.436961 1_555
Li3 S0 2.436993 1_545
Li3 S3 2.488419 1_555
Li4 S4 2.436713 1_555
Li4 S8 2.436963 1_455
Li4 S7 2.436967 1_445
Li4 S3 2.488420 1_555
Li5 S2 2.440987 1_555
Li5 S4 2.479779 1_555
Li5 S3 2.507640 1_555
Li5 S6 2.565382 1_555
Li6 S2 2.440781 1_555
Li6 S8 2.479878 1_565
Li6 S3 2.508059 1_665
Li6 S6 2.565149 1_565
Li7 S0 2.403647 1_545
Li7 S5 2.476661 1_555
Li7 S4 2.478352 1_556
Li7 S1 2.512795 1_555
Li8 S8 2.403660 1_565
Li8 S4 2.476655 1_555
Li8 S5 2.478349 1_554
Li8 S7 2.512791 1_555
Li9 S6 2.440783 1_555
Li9 S0 2.479886 1_545
Li9 S3 2.508058 1_555
Li9 S2 2.565150 1_545
Li10 S6 2.440989 1_555
Li10 S5 2.479779 1_555
Li10 S3 2.507640 1_665
Li10 S2 2.565383 1_555
Li11 S5 2.403695 1_555
Li11 S1 2.476695 1_655
Li11 S7 2.478288 1_556
Li11 S0 2.512889 1_655
Li12 S1 2.403677 1_655
Li12 S0 2.476876 1_545
Li12 S8 2.478293 1_556
Li12 S5 2.512808 1_545
Li13 S6 2.440809 1_555
Li13 S1 2.479913 1_655
Li13 S3 2.508023 1_655
Li13 S2 2.565139 1_655
Mn0 S0 2.385592 1_555
Mn0 S5 2.385635 1_555
Mn0 S1 2.385837 1_555
Mn0 S2 2.387254 1_555
Mn1 S8 2.385577 1_555
Mn1 S4 2.385621 1_555
Mn1 S7 2.385824 1_555
Mn1 S6 2.387268 1_555
