# generated using pymatgen
data_SbPO4
_symmetry_space_group_name_H-M   'P 1'
_cell_length_a   4.78709000
_cell_length_b   7.25783400
_cell_length_c   9.98405300
_cell_angle_alpha   90.00000000
_cell_angle_beta   90.00000000
_cell_angle_gamma   90.00000000
_symmetry_Int_Tables_number   1
_chemical_formula_structural   SbPO4
_chemical_formula_sum   'Sb4 P4 O16'
_cell_volume   346.88498458
_cell_formula_units_Z   4
loop_
 _symmetry_equiv_pos_site_id
 _symmetry_equiv_pos_as_xyz
  1  'x, y, z'
loop_
 _atom_site_type_symbol
 _atom_site_label
 _atom_site_symmetry_multiplicity
 _atom_site_fract_x
 _atom_site_fract_y
 _atom_site_fract_z
 _atom_site_occupancy
  Sb  Sb0  1  0.89131100  0.25000000  0.70546700  1
  Sb  Sb1  1  0.60868900  0.25000000  0.20546700  1
  Sb  Sb2  1  0.39131100  0.75000000  0.79453300  1
  Sb  Sb3  1  0.10868900  0.75000000  0.29453300  1
  P  P0  1  0.31820400  0.25000000  0.90347900  1
  P  P1  1  0.18179600  0.25000000  0.40347900  1
  P  P2  1  0.81820400  0.75000000  0.59652100  1
  P  P3  1  0.68179600  0.75000000  0.09652100  1
  O  O0  1  0.17711300  0.08470500  0.82383900  1
  O  O1  1  0.32288700  0.08470500  0.32383900  1
  O  O2  1  0.63915300  0.25000000  0.88734000  1
  O  O3  1  0.25222400  0.25000000  0.55257800  1
  O  O4  1  0.24777600  0.25000000  0.05257800  1
  O  O5  1  0.86084700  0.25000000  0.38734000  1
  O  O6  1  0.17711300  0.41529500  0.82383900  1
  O  O7  1  0.32288700  0.41529500  0.32383900  1
  O  O8  1  0.82288700  0.58470500  0.17616100  1
  O  O9  1  0.67711300  0.58470500  0.67616100  1
  O  O10  1  0.74777600  0.75000000  0.44742200  1
  O  O11  1  0.75222400  0.75000000  0.94742200  1
  O  O12  1  0.13915300  0.75000000  0.61266000  1
  O  O13  1  0.36084700  0.75000000  0.11266000  1
  O  O14  1  0.67711300  0.91529500  0.67616100  1
  O  O15  1  0.82288700  0.91529500  0.17616100  1
loop_
_geom_bond_atom_site_label_1
_geom_bond_atom_site_label_2
_geom_bond_distance
_geom_bond_site_symmetry_2
O0 P0 1.589861 1_555
O0 Sb0 2.169753 1_455
O0 Sb2 2.652961 1_545
O1 P1 1.589861 1_555
O1 Sb1 2.169753 1_555
O1 Sb3 2.652961 1_545
O2 P0 1.544838 1_555
O2 Sb0 2.180444 1_555
O3 P1 1.526314 1_555
O3 Sb0 2.305446 1_455
O4 P0 1.526314 1_554
O4 Sb1 2.305446 1_555
O5 P1 1.544838 1_655
O5 Sb1 2.180444 1_555
O6 P0 1.589861 1_555
O6 Sb0 2.169753 1_455
O6 Sb2 2.652961 1_555
O7 P1 1.589861 1_555
O7 Sb1 2.169753 1_555
O7 Sb3 2.652961 1_555
O8 P3 1.589861 1_555
O8 Sb3 2.169753 1_655
O8 Sb1 2.652961 1_555
O9 P2 1.589861 1_555
O9 Sb2 2.169753 1_555
O9 Sb0 2.652961 1_555
O10 P2 1.526314 1_555
O10 Sb3 2.305446 1_655
O11 P3 1.526314 1_556
O11 Sb2 2.305446 1_555
O12 P2 1.544838 1_455
O12 Sb2 2.180444 1_555
O13 P3 1.544838 1_555
O13 Sb3 2.180444 1_555
O14 P2 1.589861 1_555
O14 Sb2 2.169753 1_555
O14 Sb0 2.652961 1_565
O15 P3 1.589861 1_555
O15 Sb3 2.169753 1_655
O15 Sb1 2.652961 1_565
