# generated using pymatgen
data_Li4Cr3FeO8
_symmetry_space_group_name_H-M   'P 1'
_cell_length_a   5.89702449
_cell_length_b   5.89702449
_cell_length_c   5.89702457
_cell_angle_alpha   59.79657911
_cell_angle_beta   59.79657911
_cell_angle_gamma   59.79658362
_symmetry_Int_Tables_number   1
_chemical_formula_structural   Li4Cr3FeO8
_chemical_formula_sum   'Li4 Cr3 Fe1 O8'
_cell_volume   144.33565677
_cell_formula_units_Z   1
loop_
 _symmetry_equiv_pos_site_id
 _symmetry_equiv_pos_as_xyz
  1  'x, y, z'
loop_
 _atom_site_type_symbol
 _atom_site_label
 _atom_site_symmetry_multiplicity
 _atom_site_fract_x
 _atom_site_fract_y
 _atom_site_fract_z
 _atom_site_occupancy
  Li  Li0  1  0.00000000  0.50000000  0.00000000  1
  Li  Li1  1  0.50000000  0.00000000  0.00000000  1
  Li  Li2  1  0.00000000  0.00000000  0.50000000  1
  Li  Li3  1  0.50000000  0.50000000  0.50000000  1
  Cr  Cr0  1  0.00000000  0.50000000  0.50000000  1
  Cr  Cr1  1  0.50000000  0.00000000  0.50000000  1
  Cr  Cr2  1  0.50000000  0.50000000  0.00000000  1
  Fe  Fe0  1  0.00000000  0.00000000  0.00000000  1
  O  O0  1  0.74208700  0.74208700  0.74208700  1
  O  O1  1  0.76031400  0.25492800  0.76031400  1
  O  O2  1  0.23968600  0.23968600  0.74507200  1
  O  O3  1  0.74507200  0.23968600  0.23968600  1
  O  O4  1  0.25492800  0.76031400  0.76031400  1
  O  O5  1  0.76031400  0.76031400  0.25492800  1
  O  O6  1  0.23968600  0.74507200  0.23968600  1
  O  O7  1  0.25791300  0.25791300  0.25791300  1
loop_
_geom_bond_atom_site_label_1
_geom_bond_atom_site_label_2
_geom_bond_distance
_geom_bond_site_symmetry_2
Li0 O4 2.148291 1_554
Li0 O3 2.148291 1_455
Li0 O5 2.148291 1_455
Li0 O2 2.148291 1_554
Li0 O7 2.150031 1_555
Li0 O0 2.150031 1_454
Li1 O1 2.148291 1_554
Li1 O6 2.148291 1_545
Li1 O5 2.148291 1_545
Li1 O2 2.148291 1_554
Li1 O7 2.150031 1_555
Li1 O0 2.150031 1_544
Li2 O1 2.148291 1_455
Li2 O4 2.148291 1_545
Li2 O3 2.148291 1_455
Li2 O6 2.148291 1_545
Li2 O7 2.150031 1_555
Li2 O0 2.150031 1_445
Li3 O5 2.169845 1_555
Li3 O2 2.169845 1_555
Li3 O4 2.169845 1_555
Li3 O1 2.169845 1_555
Li3 O3 2.169845 1_555
Li3 O6 2.169845 1_555
Cr0 O0 2.017572 1_455
Cr0 O7 2.017572 1_555
Cr0 O6 2.020621 1_555
Cr0 O1 2.020621 1_455
Cr0 O2 2.020622 1_555
Cr0 O5 2.020622 1_455
Cr1 O0 2.017572 1_545
Cr1 O7 2.017572 1_555
Cr1 O3 2.020621 1_555
Cr1 O4 2.020621 1_545
Cr1 O2 2.020622 1_555
Cr1 O5 2.020622 1_545
Cr2 O0 2.017572 1_554
Cr2 O7 2.017572 1_555
Cr2 O3 2.020622 1_555
Cr2 O6 2.020622 1_555
Cr2 O4 2.020622 1_554
Cr2 O1 2.020622 1_554
Fe0 O2 1.997458 1_554
Fe0 O5 1.997458 1_445
Fe0 O6 1.997458 1_545
Fe0 O3 1.997458 1_455
Fe0 O1 1.997458 1_454
Fe0 O4 1.997458 1_544
