# generated using pymatgen
data_Na4Zr(SiO3)6
_symmetry_space_group_name_H-M   'P 1'
_cell_length_a   7.63179700
_cell_length_b   14.20338600
_cell_length_c   14.97374300
_cell_angle_alpha   90.00000000
_cell_angle_beta   90.00000000
_cell_angle_gamma   90.00000000
_symmetry_Int_Tables_number   1
_chemical_formula_structural   Na4Zr(SiO3)6
_chemical_formula_sum   'Na16 Zr4 Si24 O72'
_cell_volume   1623.11419052
_cell_formula_units_Z   4
loop_
 _symmetry_equiv_pos_site_id
 _symmetry_equiv_pos_as_xyz
  1  'x, y, z'
loop_
 _atom_site_type_symbol
 _atom_site_label
 _atom_site_symmetry_multiplicity
 _atom_site_fract_x
 _atom_site_fract_y
 _atom_site_fract_z
 _atom_site_occupancy
  Na  Na0  1  0.02249800  0.75520100  0.50306200  1
  Na  Na1  1  0.02249800  0.24479900  0.49693800  1
  Na  Na2  1  0.52249800  0.24479900  0.00306200  1
  Na  Na3  1  0.52249800  0.75520100  0.99693800  1
  Na  Na4  1  0.47347300  0.20461000  0.26562800  1
  Na  Na5  1  0.47347300  0.79539000  0.73437200  1
  Na  Na6  1  0.97347300  0.79539000  0.76562800  1
  Na  Na7  1  0.97347300  0.20461000  0.23437200  1
  Na  Na8  1  0.41311400  0.00000000  0.50000000  1
  Na  Na9  1  0.91311400  0.00000000  0.00000000  1
  Na  Na10  1  0.57979200  0.50000000  0.50000000  1
  Na  Na11  1  0.07979200  0.50000000  0.00000000  1
  Na  Na12  1  0.50795900  0.70469700  0.27179000  1
  Na  Na13  1  0.50795900  0.29530300  0.72821000  1
  Na  Na14  1  0.00795900  0.29530300  0.77179000  1
  Na  Na15  1  0.00795900  0.70469700  0.22821000  1
  Zr  Zr0  1  0.50274000  0.25018500  0.49979100  1
  Zr  Zr1  1  0.50274000  0.74981500  0.50020900  1
  Zr  Zr2  1  0.00274000  0.74981500  0.99979100  1
  Zr  Zr3  1  0.00274000  0.25018500  0.00020900  1
  Si  Si0  1  0.25086600  0.58230100  0.37161000  1
  Si  Si1  1  0.25086600  0.41769900  0.62839000  1
  Si  Si2  1  0.75086600  0.41769900  0.87161000  1
  Si  Si3  1  0.75086600  0.58230100  0.12839000  1
  Si  Si4  1  0.80389700  0.38960700  0.36132100  1
  Si  Si5  1  0.80389700  0.61039300  0.63867900  1
  Si  Si6  1  0.30389700  0.61039300  0.86132100  1
  Si  Si7  1  0.30389700  0.38960700  0.13867900  1
  Si  Si8  1  0.21753500  0.36583000  0.34619400  1
  Si  Si9  1  0.21753500  0.63417000  0.65380600  1
  Si  Si10  1  0.71753500  0.63417000  0.84619400  1
  Si  Si11  1  0.71753500  0.36583000  0.15380600  1
  Si  Si12  1  0.78403900  0.86524200  0.34566200  1
  Si  Si13  1  0.78403900  0.13475800  0.65433800  1
  Si  Si14  1  0.28403900  0.13475800  0.84566200  1
  Si  Si15  1  0.28403900  0.86524200  0.15433800  1
  Si  Si16  1  0.19885800  0.88897400  0.36055500  1
  Si  Si17  1  0.19885800  0.11102600  0.63944500  1
  Si  Si18  1  0.69885800  0.11102600  0.86055500  1
  Si  Si19  1  0.69885800  0.88897400  0.13944500  1
  Si  Si20  1  0.73866100  0.08323600  0.36793900  1
  Si  Si21  1  0.73866100  0.91676400  0.63206100  1
  Si  Si22  1  0.23866100  0.91676400  0.86793900  1
  Si  Si23  1  0.23866100  0.08323600  0.13206100  1
  O  O0  1  0.78547500  0.50388700  0.37264900  1
  O  O1  1  0.78547500  0.49611300  0.62735100  1
  O  O2  1  0.28547500  0.49611300  0.87264900  1
  O  O3  1  0.28547500  0.50388700  0.12735100  1
  O  O4  1  0.28726100  0.46849200  0.37951000  1
  O  O5  1  0.28726100  0.53150800  0.62049000  1
  O  O6  1  0.78726100  0.53150800  0.87951000  1
  O  O7  1  0.78726100  0.46849200  0.12049000  1
  O  O8  1  0.99306100  0.85157700  0.36911700  1
  O  O9  1  0.99306100  0.14842300  0.63088300  1
  O  O10  1  0.49306100  0.14842300  0.86911700  1
  O  O11  1  0.49306100  0.85157700  0.13088300  1
  O  O12  1  0.00833600  0.35122500  0.36893500  1
  O  O13  1  0.00833600  0.64877500  0.63106500  1
  O  O14  1  0.50833600  0.64877500  0.86893500  1
  O  O15  1  0.50833600  0.35122500  0.13106500  1
  O  O16  1  0.73611400  0.35207400  0.26241600  1
  O  O17  1  0.73611400  0.64792600  0.73758400  1
  O  O18  1  0.23611400  0.64792600  0.76241600  1
  O  O19  1  0.23611400  0.35207400  0.23758400  1
  O  O20  1  0.26894300  0.84921100  0.26287900  1
  O  O21  1  0.26894300  0.15078900  0.73712100  1
  O  O22  1  0.76894300  0.15078900  0.76287900  1
  O  O23  1  0.76894300  0.84921100  0.23712100  1
  O  O24  1  0.23577500  0.11637100  0.23658600  1
  O  O25  1  0.23577500  0.88362900  0.76341400  1
  O  O26  1  0.73577500  0.88362900  0.73658600  1
  O  O27  1  0.73577500  0.11637100  0.26341400  1
  O  O28  1  0.32623000  0.28342100  0.39539900  1
  O  O29  1  0.32623000  0.71657900  0.60460100  1
  O  O30  1  0.82623000  0.71657900  0.89539900  1
  O  O31  1  0.82623000  0.28342100  0.10460100  1
  O  O32  1  0.69153700  0.33660900  0.43840700  1
  O  O33  1  0.69153700  0.66339100  0.56159300  1
  O  O34  1  0.19153700  0.66339100  0.93840700  1
  O  O35  1  0.19153700  0.33660900  0.06159300  1
  O  O36  1  0.67234600  0.78451200  0.39484600  1
  O  O37  1  0.67234600  0.21548800  0.60515400  1
  O  O38  1  0.17234600  0.21548800  0.89484600  1
  O  O39  1  0.17234600  0.78451200  0.10515400  1
  O  O40  1  0.30730200  0.83642100  0.43936500  1
  O  O41  1  0.30730200  0.16357900  0.56063500  1
  O  O42  1  0.80730200  0.16357900  0.93936500  1
  O  O43  1  0.80730200  0.83642100  0.06063500  1
  O  O44  1  0.71473500  0.96865600  0.37632500  1
  O  O45  1  0.71473500  0.03134400  0.62367500  1
  O  O46  1  0.21473500  0.03134400  0.87632500  1
  O  O47  1  0.21473500  0.96865600  0.12367500  1
  O  O48  1  0.22026200  0.00272600  0.37070100  1
  O  O49  1  0.22026200  0.99727400  0.62929900  1
  O  O50  1  0.72026200  0.99727400  0.87070100  1
  O  O51  1  0.72026200  0.00272600  0.12929900  1
  O  O52  1  0.23964100  0.61664900  0.26813100  1
  O  O53  1  0.23964100  0.38335100  0.73186900  1
  O  O54  1  0.73964100  0.38335100  0.76813100  1
  O  O55  1  0.73964100  0.61664900  0.23186900  1
  O  O56  1  0.41084000  0.63361700  0.42533300  1
  O  O57  1  0.41084000  0.36638300  0.57466700  1
  O  O58  1  0.91084000  0.36638300  0.92533300  1
  O  O59  1  0.91084000  0.63361700  0.07466700  1
  O  O60  1  0.06370300  0.61914000  0.41231900  1
  O  O61  1  0.06370300  0.38086000  0.58768100  1
  O  O62  1  0.56370300  0.38086000  0.91231900  1
  O  O63  1  0.56370300  0.61914000  0.08768100  1
  O  O64  1  0.58081000  0.13055500  0.42612500  1
  O  O65  1  0.58081000  0.86944500  0.57387500  1
  O  O66  1  0.08081000  0.86944500  0.92612500  1
  O  O67  1  0.08081000  0.13055500  0.07387500  1
  O  O68  1  0.92325100  0.12603700  0.40418300  1
  O  O69  1  0.92325100  0.87396300  0.59581700  1
  O  O70  1  0.42325100  0.87396300  0.90418300  1
  O  O71  1  0.42325100  0.12603700  0.09581700  1
loop_
_geom_bond_atom_site_label_1
_geom_bond_atom_site_label_2
_geom_bond_distance
_geom_bond_site_symmetry_2
Na0 O69 2.312594 1_455
Na0 O60 2.383230 1_555
Na0 O8 2.438632 1_455
Na0 O13 2.443424 1_555
Na0 O40 2.639106 1_555
Na0 O29 2.825919 1_555
Na0 O33 2.974622 1_455
Na1 O68 2.312594 1_455
Na1 O61 2.383230 1_555
Na1 O9 2.438632 1_455
Na1 O12 2.443424 1_555
Na1 O41 2.639106 1_555
Na1 O28 2.825919 1_555
Na1 O32 2.974622 1_455
Na2 O71 2.312594 1_555
Na2 O62 2.383230 1_554
Na2 O10 2.438632 1_554
Na2 O15 2.443424 1_555
Na2 O42 2.639106 1_554
Na2 O31 2.825919 1_555
Na2 O35 2.974622 1_555
Na3 O70 2.312594 1_555
Na3 O63 2.383230 1_556
Na3 O11 2.438632 1_556
Na3 O14 2.443424 1_555
Na3 O43 2.639106 1_556
Na3 O30 2.825919 1_555
Na3 O34 2.974622 1_555
Na4 O24 2.247371 1_555
Na4 O27 2.362030 1_555
Na4 O28 2.508315 1_555
Na4 O64 2.748265 1_555
Na4 O19 2.800832 1_555
Na4 O71 2.803163 1_555
Na4 O16 2.899466 1_555
Na4 O15 2.909841 1_555
Na5 O25 2.247371 1_555
Na5 O26 2.362030 1_555
Na5 O29 2.508315 1_555
Na5 O65 2.748265 1_555
Na5 O18 2.800832 1_555
Na5 O70 2.803163 1_555
Na5 O17 2.899466 1_555
Na5 O14 2.909841 1_555
Na6 O26 2.247371 1_555
Na6 O25 2.362030 1_655
Na6 O30 2.508315 1_555
Na6 O66 2.748265 1_655
Na6 O17 2.800832 1_555
Na6 O69 2.803163 1_555
Na6 O18 2.899466 1_655
Na6 O13 2.909841 1_655
Na7 O27 2.247371 1_555
Na7 O24 2.362030 1_655
Na7 O31 2.508315 1_555
Na7 O67 2.748265 1_655
Na7 O16 2.800832 1_555
Na7 O68 2.803163 1_555
Na7 O19 2.899466 1_655
Na7 O12 2.909841 1_655
Na8 O48 2.432316 1_555
Na8 O49 2.432316 1_545
Na8 O65 2.510001 1_545
Na8 O64 2.510001 1_555
Na8 O41 2.621933 1_555
Na8 O40 2.621933 1_545
Na8 O45 2.987714 1_555
Na8 O44 2.987714 1_545
Na9 O51 2.432316 1_555
Na9 O50 2.432316 1_544
Na9 O66 2.510001 1_644
Na9 O67 2.510001 1_655
Na9 O42 2.621933 1_554
Na9 O43 2.621933 1_545
Na9 O47 2.987714 1_645
Na9 O46 2.987714 1_654
Na10 O1 2.470516 1_555
Na10 O0 2.470516 1_555
Na10 O56 2.552311 1_555
Na10 O57 2.552311 1_555
Na10 O33 2.638857 1_555
Na10 O32 2.638857 1_555
Na10 O4 2.905096 1_555
Na10 O5 2.905096 1_555
Na11 O2 2.470516 1_554
Na11 O3 2.470516 1_555
Na11 O59 2.552311 1_455
Na11 O58 2.552311 1_454
Na11 O34 2.638857 1_554
Na11 O35 2.638857 1_555
Na11 O7 2.905096 1_455
Na11 O6 2.905096 1_454
Na12 O55 2.246693 1_555
Na12 O52 2.400047 1_555
Na12 O36 2.500859 1_555
Na12 O56 2.618116 1_555
Na12 O20 2.749244 1_555
Na13 O54 2.246693 1_555
Na13 O53 2.400047 1_555
Na13 O37 2.500859 1_555
Na13 O57 2.618116 1_555
Na13 O21 2.749244 1_555
Na14 O53 2.246693 1_555
Na14 O54 2.400047 1_455
Na14 O38 2.500859 1_555
Na14 O58 2.618116 1_455
Na14 O22 2.749244 1_455
Na15 O52 2.246693 1_555
Na15 O55 2.400047 1_455
Na15 O39 2.500859 1_555
Na15 O59 2.618116 1_455
Na15 O23 2.749244 1_455
O0 Si4 1.638046 1_555
O1 Si5 1.638046 1_555
O2 Si6 1.638046 1_555
O3 Si7 1.638046 1_555
O4 Si8 1.630408 1_555
O4 Si0 1.644424 1_555
O5 Si9 1.630408 1_555
O5 Si1 1.644424 1_555
O6 Si10 1.630408 1_555
O6 Si2 1.644424 1_555
O7 Si11 1.630408 1_555
O7 Si3 1.644424 1_555
O8 Si12 1.644909 1_555
O8 Si16 1.662937 1_655
O9 Si13 1.644909 1_555
O9 Si17 1.662937 1_655
O10 Si14 1.644909 1_555
O10 Si18 1.662937 1_555
O11 Si15 1.644909 1_555
O11 Si19 1.662937 1_555
O12 Si8 1.645601 1_555
O12 Si4 1.656663 1_455
O13 Si9 1.645601 1_555
O13 Si5 1.656663 1_455
O14 Si10 1.645601 1_555
O14 Si6 1.656663 1_555
O15 Si11 1.645601 1_555
O15 Si7 1.656663 1_555
O16 Si11 1.644118 1_555
O16 Si4 1.656832 1_555
O17 Si10 1.644118 1_555
O17 Si5 1.656832 1_555
O18 Si9 1.644118 1_555
O18 Si6 1.656832 1_555
O19 Si8 1.644118 1_555
O19 Si7 1.656832 1_555
O20 Si15 1.645176 1_555
O20 Si16 1.656557 1_555
O21 Si14 1.645176 1_555
O21 Si17 1.656557 1_555
O22 Si13 1.645176 1_555
O22 Si18 1.656557 1_555
O23 Si12 1.645176 1_555
O23 Si19 1.656557 1_555
O24 Si23 1.634506 1_555
O25 Si22 1.634506 1_555
O26 Si21 1.634506 1_555
O27 Si20 1.634506 1_555
O28 Si8 1.612769 1_555
O28 Zr0 2.116812 1_555
O29 Si9 1.612769 1_555
O29 Zr1 2.116812 1_555
O30 Si10 1.612769 1_555
O30 Zr2 2.116812 1_655
O31 Si11 1.612769 1_555
O31 Zr3 2.116812 1_655
O32 Si4 1.623048 1_555
O32 Zr0 2.104210 1_555
O33 Si5 1.623048 1_555
O33 Zr1 2.104210 1_555
O34 Si6 1.623048 1_555
O34 Zr2 2.104210 1_555
O35 Si7 1.623048 1_555
O35 Zr3 2.104210 1_555
O36 Si12 1.607416 1_555
O36 Zr1 2.099382 1_555
O37 Si13 1.607416 1_555
O37 Zr0 2.099382 1_555
O38 Si14 1.607416 1_555
O38 Zr3 2.099382 1_556
O39 Si15 1.607416 1_555
O39 Zr2 2.099382 1_554
O40 Si16 1.623178 1_555
O40 Zr1 2.137259 1_555
O41 Si17 1.623178 1_555
O41 Zr0 2.137259 1_555
O42 Si18 1.623178 1_555
O42 Zr3 2.137259 1_656
O43 Si19 1.623178 1_555
O43 Zr2 2.137259 1_654
O44 Si12 1.627273 1_555
O44 Si20 1.642443 1_565
O45 Si13 1.627273 1_555
O45 Si21 1.642443 1_545
O46 Si14 1.627273 1_555
O46 Si22 1.642443 1_545
O47 Si15 1.627273 1_555
O47 Si23 1.642443 1_565
O48 Si16 1.630991 1_545
O49 Si17 1.630991 1_565
O50 Si18 1.630991 1_565
O51 Si19 1.630991 1_545
O52 Si0 1.626713 1_555
O53 Si1 1.626713 1_555
O54 Si2 1.626713 1_555
O55 Si3 1.626713 1_555
O56 Si0 1.633684 1_555
O56 Zr1 2.114894 1_555
O57 Si1 1.633684 1_555
O57 Zr0 2.114894 1_555
O58 Si2 1.633684 1_555
O58 Zr3 2.114894 1_656
O59 Si3 1.633684 1_555
O59 Zr2 2.114894 1_654
O60 Si0 1.638795 1_555
O61 Si1 1.638795 1_555
O62 Si2 1.638795 1_555
O63 Si3 1.638795 1_555
O64 Si20 1.631586 1_555
O64 Zr0 2.111597 1_555
O65 Si21 1.631586 1_555
O65 Zr1 2.111597 1_555
O66 Si22 1.631586 1_555
O66 Zr2 2.111597 1_555
O67 Si23 1.631586 1_555
O67 Zr3 2.111597 1_555
O68 Si20 1.627478 1_555
O69 Si21 1.627478 1_555
O70 Si22 1.627478 1_555
O71 Si23 1.627478 1_555
