# generated using pymatgen
data_Zr2N2O
_symmetry_space_group_name_H-M   'P 1'
_cell_length_a   7.10033958
_cell_length_b   7.10033958
_cell_length_c   16.64631408
_cell_angle_alpha   80.02155783
_cell_angle_beta   80.02155783
_cell_angle_gamma   27.11869738
_symmetry_Int_Tables_number   1
_chemical_formula_structural   Zr2N2O
_chemical_formula_sum   'Zr12 N12 O6'
_cell_volume   376.42051144
_cell_formula_units_Z   6
loop_
 _symmetry_equiv_pos_site_id
 _symmetry_equiv_pos_as_xyz
  1  'x, y, z'
loop_
 _atom_site_type_symbol
 _atom_site_label
 _atom_site_symmetry_multiplicity
 _atom_site_fract_x
 _atom_site_fract_y
 _atom_site_fract_z
 _atom_site_occupancy
  Zr  Zr0  1  0.02907300  0.02907300  0.09927500  1
  Zr  Zr1  1  0.03063500  0.03063500  0.59584800  1
  Zr  Zr2  1  0.63495300  0.63495300  0.26209200  1
  Zr  Zr3  1  0.69728800  0.69728800  0.43185300  1
  Zr  Zr4  1  0.62974600  0.62974600  0.76360200  1
  Zr  Zr5  1  0.30768400  0.30768400  0.06368100  1
  Zr  Zr6  1  0.69419200  0.69419200  0.93554600  1
  Zr  Zr7  1  0.36416400  0.36416400  0.23951200  1
  Zr  Zr8  1  0.30183200  0.30183200  0.56828200  1
  Zr  Zr9  1  0.37095800  0.37095800  0.73773800  1
  Zr  Zr10  1  0.96245900  0.96245900  0.40526800  1
  Zr  Zr11  1  0.97044200  0.97044200  0.90421700  1
  N  N0  1  0.53288200  0.53288200  0.17648000  1
  N  N1  1  0.17110800  0.17110800  0.01888300  1
  N  N2  1  0.53476300  0.53476300  0.67037600  1
  N  N3  1  0.12175700  0.12175700  0.35467100  1
  N  N4  1  0.17145400  0.17145400  0.51536900  1
  N  N5  1  0.12785100  0.12785100  0.85618600  1
  N  N6  1  0.80030400  0.80030400  0.31371200  1
  N  N7  1  0.87270400  0.87270400  0.13724300  1
  N  N8  1  0.82798500  0.82798500  0.48621000  1
  N  N9  1  0.87341600  0.87341600  0.64361900  1
  N  N10  1  0.82785000  0.82785000  0.97902900  1
  N  N11  1  0.46714700  0.46714700  0.82767500  1
  O  O0  1  0.21364200  0.21364200  0.19129800  1
  O  O1  1  0.20832600  0.20832600  0.68993200  1
  O  O2  1  0.78982100  0.78982100  0.80793800  1
  O  O3  1  0.46840200  0.46840200  0.32996400  1
  O  O4  1  0.49714800  0.49714800  0.49437900  1
  O  O5  1  0.50003500  0.50003500  0.00012600  1
loop_
_geom_bond_atom_site_label_1
_geom_bond_atom_site_label_2
_geom_bond_distance
_geom_bond_site_symmetry_2
N0 Zr0 2.109441 1_655
N0 Zr0 2.109441 1_565
N0 Zr2 2.175397 1_555
N0 Zr7 2.377933 1_555
N1 Zr5 2.147583 1_555
N1 Zr6 2.153979 1_454
N1 Zr6 2.153979 1_544
N1 Zr0 2.167966 1_555
N2 Zr1 2.082974 1_655
N2 Zr1 2.082974 1_565
N2 Zr4 2.202958 1_555
N2 Zr9 2.338150 1_555
N3 Zr10 2.210224 1_445
N3 Zr2 2.253728 1_455
N3 Zr2 2.253728 1_545
N3 Zr3 2.446771 1_545
N3 Zr3 2.446771 1_455
N4 Zr8 2.140196 1_555
N4 Zr1 2.155322 1_555
N4 Zr3 2.157403 1_545
N4 Zr3 2.157403 1_455
N5 Zr11 2.177583 1_445
N5 Zr4 2.265558 1_545
N5 Zr4 2.265558 1_455
N5 Zr6 2.405499 1_455
N5 Zr6 2.405499 1_545
N6 Zr7 2.164674 1_655
N6 Zr7 2.164674 1_565
N6 Zr3 2.212007 1_555
N6 Zr2 2.578389 1_555
N7 Zr0 2.138428 1_665
N7 Zr5 2.338417 1_565
N7 Zr5 2.338417 1_655
N7 Zr7 2.368907 1_565
N7 Zr7 2.368907 1_655
N8 Zr10 2.090447 1_555
N8 Zr8 2.142942 1_655
N8 Zr8 2.142942 1_565
N8 Zr3 2.157794 1_555
N9 Zr1 2.174321 1_665
N9 Zr9 2.282116 1_565
N9 Zr9 2.282116 1_655
N9 Zr8 2.400474 1_565
N9 Zr8 2.400474 1_655
N10 Zr6 2.098704 1_555
N10 Zr11 2.133501 1_555
N10 Zr5 2.166688 1_656
N10 Zr5 2.166688 1_566
N11 Zr11 2.101754 1_455
N11 Zr11 2.101754 1_545
N11 Zr9 2.171019 1_555
N11 Zr4 2.307077 1_555
O0 Zr2 2.209894 1_545
O0 Zr2 2.209894 1_455
O0 Zr5 2.283664 1_555
O0 Zr7 2.357222 1_555
O1 Zr8 2.198892 1_555
O1 Zr4 2.231056 1_455
O1 Zr4 2.231056 1_545
O1 Zr9 2.512120 1_555
O2 Zr9 2.219175 1_655
O2 Zr9 2.219175 1_565
O2 Zr6 2.292450 1_555
O2 Zr4 2.451403 1_555
O3 Zr10 2.076684 1_545
O3 Zr10 2.076684 1_455
O3 Zr7 2.260578 1_555
O3 Zr2 2.374200 1_555
O4 Zr10 2.335411 1_455
O4 Zr10 2.335411 1_545
O4 Zr1 2.473110 1_565
O4 Zr1 2.473110 1_655
O4 Zr8 2.756996 1_555
O4 Zr3 2.773411 1_555
O5 Zr11 2.391552 1_454
O5 Zr11 2.391552 1_544
O5 Zr0 2.427301 1_655
O5 Zr0 2.427301 1_565
O5 Zr5 2.677468 1_555
O5 Zr6 2.704173 1_554
