# generated using pymatgen
data_Li2Fe2SnO6
_symmetry_space_group_name_H-M   'P 1'
_cell_length_a   5.17346654
_cell_length_b   5.17346654
_cell_length_c   10.12327100
_cell_angle_alpha   90.00000000
_cell_angle_beta   90.00000000
_cell_angle_gamma   119.66349307
_symmetry_Int_Tables_number   1
_chemical_formula_structural   Li2Fe2SnO6
_chemical_formula_sum   'Li4 Fe4 Sn2 O12'
_cell_volume   235.43848475
_cell_formula_units_Z   2
loop_
 _symmetry_equiv_pos_site_id
 _symmetry_equiv_pos_as_xyz
  1  'x, y, z'
loop_
 _atom_site_type_symbol
 _atom_site_label
 _atom_site_symmetry_multiplicity
 _atom_site_fract_x
 _atom_site_fract_y
 _atom_site_fract_z
 _atom_site_occupancy
  Li  Li0  1  0.66046400  0.16046400  0.75000000  1
  Li  Li1  1  0.83953600  0.33953600  0.25000000  1
  Li  Li2  1  0.16046400  0.66046400  0.75000000  1
  Li  Li3  1  0.33953600  0.83953600  0.25000000  1
  Fe  Fe0  1  0.83644300  0.16355700  0.50000000  1
  Fe  Fe1  1  0.66355700  0.33644300  0.00000000  1
  Fe  Fe2  1  0.33644300  0.66355700  0.00000000  1
  Fe  Fe3  1  0.16355700  0.83644300  0.50000000  1
  Sn  Sn0  1  0.00000000  0.00000000  0.00000000  1
  Sn  Sn1  1  0.50000000  0.50000000  0.50000000  1
  O  O0  1  0.65122700  0.00920800  0.10506500  1
  O  O1  1  0.34877300  0.99079200  0.89493500  1
  O  O2  1  0.50920800  0.15122700  0.39493500  1
  O  O3  1  0.84877300  0.49079200  0.60506500  1
  O  O4  1  0.15453800  0.15453800  0.59975200  1
  O  O5  1  0.34546200  0.34546200  0.09975200  1
  O  O6  1  0.65453800  0.65453800  0.90024800  1
  O  O7  1  0.99079200  0.34877300  0.89493500  1
  O  O8  1  0.84546200  0.84546200  0.40024800  1
  O  O9  1  0.15122700  0.50920800  0.39493500  1
  O  O10  1  0.49079200  0.84877300  0.60506500  1
  O  O11  1  0.00920800  0.65122700  0.10506500  1
loop_
_geom_bond_atom_site_label_1
_geom_bond_atom_site_label_2
_geom_bond_distance
_geom_bond_site_symmetry_2
Li0 O1 2.030378 1_545
Li0 O10 2.030378 1_545
Li0 O7 2.091503 1_555
Li0 O3 2.091503 1_555
Li1 O9 2.030378 1_655
Li1 O11 2.030378 1_655
Li1 O2 2.091503 1_555
Li1 O0 2.091503 1_555
Li2 O7 2.030378 1_455
Li2 O3 2.030378 1_455
Li2 O1 2.091503 1_555
Li2 O10 2.091503 1_555
Li3 O2 2.030378 1_565
Li3 O0 2.030378 1_565
Li3 O9 2.091503 1_555
Li3 O11 2.091503 1_555
Fe0 O4 1.950919 1_655
Fe0 O8 1.950919 1_545
Fe0 O2 1.973441 1_555
Fe0 O3 1.973441 1_555
Fe0 O10 2.024493 1_545
Fe0 O9 2.024493 1_655
Fe1 O5 1.950919 1_555
Fe1 O6 1.950919 1_554
Fe1 O0 1.973441 1_555
Fe1 O7 1.973441 1_554
Fe1 O11 2.024493 1_655
Fe1 O1 2.024493 1_544
Fe2 O5 1.950919 1_555
Fe2 O6 1.950919 1_554
Fe2 O11 1.973441 1_555
Fe2 O1 1.973441 1_554
Fe2 O0 2.024493 1_565
Fe2 O7 2.024493 1_454
Fe3 O4 1.950919 1_565
Fe3 O8 1.950919 1_455
Fe3 O10 1.973441 1_555
Fe3 O9 1.973441 1_555
Fe3 O3 2.024493 1_455
Fe3 O2 2.024493 1_565
O0 Sn0 2.115262 1_655
O1 Sn0 2.115262 1_566
O2 Sn1 2.115262 1_555
O3 Sn1 2.115262 1_555
O4 Sn1 2.060701 1_555
O5 Sn0 2.060701 1_555
O6 Sn0 2.060701 1_666
O7 Sn0 2.115262 1_656
O8 Sn1 2.060701 1_555
O9 Sn1 2.115262 1_555
O10 Sn1 2.115262 1_555
O11 Sn0 2.115262 1_565
