# generated using pymatgen
data_Mn6OF11
_symmetry_space_group_name_H-M   'P 1'
_cell_length_a   5.28476500
_cell_length_b   5.26070400
_cell_length_c   15.76515735
_cell_angle_alpha   87.18516615
_cell_angle_beta   90.00000000
_cell_angle_gamma   90.00000000
_symmetry_Int_Tables_number   1
_chemical_formula_structural   Mn6OF11
_chemical_formula_sum   'Mn12 O2 F22'
_cell_volume   437.76752858
_cell_formula_units_Z   2
loop_
 _symmetry_equiv_pos_site_id
 _symmetry_equiv_pos_as_xyz
  1  'x, y, z'
loop_
 _atom_site_type_symbol
 _atom_site_label
 _atom_site_symmetry_multiplicity
 _atom_site_fract_x
 _atom_site_fract_y
 _atom_site_fract_z
 _atom_site_occupancy
  Mn  Mn0  1  0.04613900  0.00000000  0.00000000  1
  Mn  Mn1  1  0.98412700  0.51504900  0.16736000  1
  Mn  Mn2  1  0.98285500  0.00479500  0.33223900  1
  Mn  Mn3  1  0.99291500  0.50000000  0.50000000  1
  Mn  Mn4  1  0.98285500  0.99520500  0.66776100  1
  Mn  Mn5  1  0.98412700  0.48495100  0.83264000  1
  Mn  Mn6  1  0.49006100  0.02479500  0.15953400  1
  Mn  Mn7  1  0.45788400  0.50000000  0.00000000  1
  Mn  Mn8  1  0.47233900  0.49434600  0.66769300  1
  Mn  Mn9  1  0.49686100  0.00000000  0.50000000  1
  Mn  Mn10  1  0.47233900  0.50565400  0.33230700  1
  Mn  Mn11  1  0.49006100  0.97520500  0.84046600  1
  O  O0  1  0.25823500  0.21608600  0.06057200  1
  O  O1  1  0.25823500  0.78391400  0.93942800  1
  F  F0  1  0.21861100  0.77773900  0.26049400  1
  F  F1  1  0.22294600  0.76828600  0.59205900  1
  F  F2  1  0.22294600  0.23171400  0.40794100  1
  F  F3  1  0.21861100  0.22226100  0.73950600  1
  F  F4  1  0.31402600  0.69621900  0.10642000  1
  F  F5  1  0.26478300  0.28147200  0.23774900  1
  F  F6  1  0.27454400  0.27354000  0.57246100  1
  F  F7  1  0.31402600  0.30378100  0.89358000  1
  F  F8  1  0.26478300  0.71852800  0.76225100  1
  F  F9  1  0.27454400  0.72646000  0.42753900  1
  F  F10  1  0.73075000  0.65495800  0.92713100  1
  F  F11  1  0.72300700  0.73147100  0.58905600  1
  F  F12  1  0.71891900  0.71734700  0.24934300  1
  F  F13  1  0.73075000  0.34504200  0.07286900  1
  F  F14  1  0.72300700  0.26852900  0.41094400  1
  F  F15  1  0.71891900  0.28265300  0.75065700  1
  F  F16  1  0.76961200  0.77000800  0.42087000  1
  F  F17  1  0.81366000  0.84593900  0.09089700  1
  F  F18  1  0.76462600  0.78398600  0.76145700  1
  F  F19  1  0.76961200  0.22999200  0.57913000  1
  F  F20  1  0.81366000  0.15406100  0.90910300  1
  F  F21  1  0.76462600  0.21601400  0.23854300  1
loop_
_geom_bond_atom_site_label_1
_geom_bond_atom_site_label_2
_geom_bond_distance
_geom_bond_site_symmetry_2
Mn0 O0 1.888677 1_555
Mn0 O1 1.888677 1_544
Mn6 O0 2.189416 1_555
Mn7 O0 2.028753 1_555
Mn7 O1 2.028753 1_554
Mn11 O1 2.189416 1_555
F0 Mn2 2.095493 1_465
F0 Mn10 2.229208 1_555
F0 Mn1 2.408413 1_455
F0 Mn6 2.465217 1_565
F1 Mn4 2.144580 1_455
F1 Mn8 2.250978 1_555
F1 Mn9 2.348185 1_565
F1 Mn3 2.403608 1_455
F2 Mn2 2.144580 1_455
F2 Mn10 2.250978 1_555
F2 Mn9 2.348185 1_555
F2 Mn3 2.403608 1_455
F3 Mn4 2.095493 1_445
F3 Mn8 2.229208 1_555
F3 Mn5 2.408413 1_455
F3 Mn11 2.465217 1_545
F4 Mn7 2.151371 1_555
F4 Mn6 2.167172 1_565
F4 Mn1 2.186552 1_455
F5 Mn1 2.192551 1_455
F5 Mn6 2.219167 1_555
F5 Mn10 2.233598 1_555
F5 Mn2 2.518829 1_455
F6 Mn3 2.192207 1_455
F6 Mn8 2.206192 1_555
F6 Mn9 2.217560 1_555
F6 Mn4 2.561530 1_445
F7 Mn7 2.151371 1_556
F7 Mn11 2.167172 1_545
F7 Mn5 2.186552 1_455
F8 Mn5 2.192551 1_455
F8 Mn11 2.219167 1_555
F8 Mn8 2.233598 1_555
F8 Mn4 2.518829 1_455
F9 Mn3 2.192207 1_455
F9 Mn10 2.206192 1_555
F9 Mn9 2.217560 1_565
F9 Mn2 2.561530 1_465
F10 Mn7 1.992921 1_556
F10 Mn5 2.223253 1_555
F10 Mn11 2.469192 1_555
F11 Mn8 2.167033 1_555
F11 Mn9 2.280413 1_565
F11 Mn4 2.349337 1_555
F11 Mn3 2.378338 1_555
F12 Mn10 2.122731 1_555
F12 Mn1 2.214170 1_555
F12 Mn6 2.420430 1_565
F12 Mn2 2.476745 1_565
F13 Mn7 1.992921 1_555
F13 Mn1 2.223253 1_555
F13 Mn6 2.469192 1_555
F14 Mn10 2.167033 1_555
F14 Mn9 2.280413 1_555
F14 Mn2 2.349337 1_555
F14 Mn3 2.378338 1_555
F15 Mn8 2.122731 1_555
F15 Mn5 2.214170 1_555
F15 Mn11 2.420430 1_545
F15 Mn4 2.476745 1_545
F16 Mn2 2.139735 1_565
F16 Mn3 2.189174 1_555
F16 Mn9 2.290438 1_565
F16 Mn10 2.557776 1_555
F17 Mn0 2.026264 1_665
F17 Mn6 2.254059 1_565
F17 Mn1 2.255812 1_555
F18 Mn4 2.141370 1_555
F18 Mn11 2.189046 1_555
F18 Mn5 2.215027 1_555
F18 Mn8 2.667208 1_555
F19 Mn4 2.139735 1_545
F19 Mn3 2.189174 1_555
F19 Mn9 2.290438 1_555
F19 Mn8 2.557776 1_555
F20 Mn0 2.026264 1_656
F20 Mn11 2.254059 1_545
F20 Mn5 2.255812 1_555
F21 Mn2 2.141370 1_555
F21 Mn6 2.189046 1_555
F21 Mn1 2.215027 1_555
F21 Mn10 2.667208 1_555
