# generated using pymatgen
data_MnPO4
_symmetry_space_group_name_H-M   'P 1'
_cell_length_a   8.49476007
_cell_length_b   8.49476007
_cell_length_c   6.88497549
_cell_angle_alpha   70.29863028
_cell_angle_beta   70.29863028
_cell_angle_gamma   90.19222279
_symmetry_Int_Tables_number   1
_chemical_formula_structural   MnPO4
_chemical_formula_sum   'Mn6 P6 O24'
_cell_volume   436.50922447
_cell_formula_units_Z   6
loop_
 _symmetry_equiv_pos_site_id
 _symmetry_equiv_pos_as_xyz
  1  'x, y, z'
loop_
 _atom_site_type_symbol
 _atom_site_label
 _atom_site_symmetry_multiplicity
 _atom_site_fract_x
 _atom_site_fract_y
 _atom_site_fract_z
 _atom_site_occupancy
  Mn  Mn0  1  0.38088300  0.06407800  0.86328800  1
  Mn  Mn1  1  0.72678200  0.27321800  0.25000000  1
  Mn  Mn2  1  0.06407800  0.38088300  0.36328800  1
  Mn  Mn3  1  0.93592200  0.61911700  0.63671200  1
  Mn  Mn4  1  0.27321800  0.72678200  0.75000000  1
  Mn  Mn5  1  0.61911700  0.93592200  0.13671200  1
  P  P0  1  0.12080200  0.34723600  0.87954000  1
  P  P1  1  0.29296400  0.70703600  0.25000000  1
  P  P2  1  0.34723600  0.12080200  0.37954000  1
  P  P3  1  0.65276400  0.87919800  0.62046000  1
  P  P4  1  0.70703600  0.29296400  0.75000000  1
  P  P5  1  0.87919800  0.65276400  0.12046000  1
  O  O0  1  0.18504800  0.17940200  0.88245700  1
  O  O1  1  0.17095600  0.73454100  0.46110800  1
  O  O2  1  0.04153900  0.40826200  0.69543700  1
  O  O3  1  0.47244200  0.72965800  0.25297400  1
  O  O4  1  0.73647300  0.51752600  0.16519300  1
  O  O5  1  0.98054500  0.31768700  0.11035200  1
  O  O6  1  0.68231300  0.01945500  0.38964800  1
  O  O7  1  0.48247400  0.26352700  0.33480700  1
  O  O8  1  0.27034200  0.52755800  0.24702600  1
  O  O9  1  0.59173800  0.95846100  0.80456300  1
  O  O10  1  0.26545900  0.82904400  0.03889200  1
  O  O11  1  0.17940200  0.18504800  0.38245700  1
  O  O12  1  0.82059800  0.81495200  0.61754300  1
  O  O13  1  0.73454100  0.17095600  0.96110800  1
  O  O14  1  0.40826200  0.04153900  0.19543700  1
  O  O15  1  0.72965800  0.47244200  0.75297400  1
  O  O16  1  0.51752600  0.73647300  0.66519300  1
  O  O17  1  0.31768700  0.98054500  0.61035200  1
  O  O18  1  0.01945500  0.68231300  0.88964800  1
  O  O19  1  0.26352700  0.48247400  0.83480700  1
  O  O20  1  0.52755800  0.27034200  0.74702600  1
  O  O21  1  0.95846100  0.59173800  0.30456300  1
  O  O22  1  0.82904400  0.26545900  0.53889200  1
  O  O23  1  0.81495200  0.82059800  0.11754300  1
loop_
_geom_bond_atom_site_label_1
_geom_bond_atom_site_label_2
_geom_bond_distance
_geom_bond_site_symmetry_2
Mn0 O20 1.905391 1_555
Mn0 O0 1.922155 1_555
Mn0 O9 1.985893 1_545
Mn0 O10 1.992342 1_546
Mn0 O17 2.298985 1_545
Mn0 O14 2.320360 1_556
Mn1 O7 1.950425 1_555
Mn1 O4 1.950425 1_555
Mn1 O5 2.016485 1_555
Mn1 O6 2.016485 1_555
Mn1 O22 2.406680 1_555
Mn1 O13 2.406680 1_554
Mn2 O8 1.905391 1_555
Mn2 O11 1.922155 1_555
Mn2 O21 1.985893 1_455
Mn2 O22 1.992342 1_455
Mn2 O5 2.298985 1_455
Mn2 O2 2.320360 1_555
Mn3 O15 1.905391 1_555
Mn3 O12 1.922155 1_555
Mn3 O2 1.985893 1_655
Mn3 O1 1.992342 1_655
Mn3 O18 2.298985 1_655
Mn3 O21 2.320360 1_555
Mn4 O19 1.950425 1_555
Mn4 O16 1.950425 1_555
Mn4 O17 2.016485 1_555
Mn4 O18 2.016485 1_555
Mn4 O10 2.406680 1_556
Mn4 O1 2.406680 1_555
Mn5 O3 1.905391 1_555
Mn5 O23 1.922155 1_555
Mn5 O14 1.985893 1_565
Mn5 O13 1.992342 1_564
Mn5 O6 2.298985 1_565
Mn5 O9 2.320360 1_554
O0 P0 1.524534 1_555
O1 P1 1.567251 1_555
O2 P0 1.569557 1_555
O3 P1 1.543877 1_555
O4 P5 1.544316 1_555
O5 P0 1.568558 1_654
O6 P3 1.568558 1_545
O7 P2 1.544316 1_555
O8 P1 1.543877 1_555
O9 P3 1.569557 1_555
O10 P1 1.567251 1_555
O11 P2 1.524534 1_555
O12 P3 1.524534 1_555
O13 P4 1.567251 1_555
O14 P2 1.569557 1_555
O15 P4 1.543877 1_555
O16 P3 1.544316 1_555
O17 P2 1.568558 1_565
O18 P5 1.568558 1_456
O19 P0 1.544316 1_555
O20 P4 1.543877 1_555
O21 P5 1.569557 1_555
O22 P4 1.567251 1_555
O23 P5 1.524534 1_555
