# generated using pymatgen
data_Li4TiNi3O8
_symmetry_space_group_name_H-M   'P 1'
_cell_length_a   10.24077481
_cell_length_b   10.24079296
_cell_length_c   14.54001758
_cell_angle_alpha   19.23360519
_cell_angle_beta   19.23361274
_cell_angle_gamma   33.04975065
_symmetry_Int_Tables_number   1
_chemical_formula_structural   Li4TiNi3O8
_chemical_formula_sum   'Li4 Ti1 Ni3 O8'
_cell_volume   144.15310520
_cell_formula_units_Z   1
loop_
 _symmetry_equiv_pos_site_id
 _symmetry_equiv_pos_as_xyz
  1  'x, y, z'
loop_
 _atom_site_type_symbol
 _atom_site_label
 _atom_site_symmetry_multiplicity
 _atom_site_fract_x
 _atom_site_fract_y
 _atom_site_fract_z
 _atom_site_occupancy
  Li  Li0  1  0.99999500  0.49999700  0.50000400  1
  Li  Li1  1  0.99999600  0.00000100  0.50000200  1
  Li  Li2  1  0.49999900  0.50000500  0.49999600  1
  Li  Li3  1  0.49999200  0.00000000  0.50000400  1
  Ti  Ti0  1  0.99999700  0.00000200  0.00000100  1
  Ni  Ni0  1  0.00009300  0.49993000  0.99999100  1
  Ni  Ni1  1  0.49999900  0.50000200  0.99999800  1
  Ni  Ni2  1  0.49995200  0.00006800  0.99998900  1
  O  O0  1  0.00535100  0.52408100  0.23487500  1
  O  O1  1  0.99464500  0.47591700  0.76512900  1
  O  O2  1  0.99510100  0.99513000  0.26803600  1
  O  O3  1  0.51134500  0.51138100  0.72761200  1
  O  O4  1  0.00489400  0.00487100  0.73196600  1
  O  O5  1  0.48864800  0.48862000  0.27239000  1
  O  O6  1  0.52409800  0.00536000  0.23485700  1
  O  O7  1  0.47589300  0.99463600  0.76515000  1
loop_
_geom_bond_atom_site_label_1
_geom_bond_atom_site_label_2
_geom_bond_distance
_geom_bond_site_symmetry_2
Li0 O7 2.102943 1_654
Li0 O6 2.102948 1_556
Li0 O3 2.117787 1_555
Li0 O5 2.117791 1_655
Li0 O4 2.164957 1_655
Li0 O2 2.164987 1_555
Li1 O0 2.166360 1_655
Li1 O1 2.166376 1_545
Li1 O6 2.166402 1_655
Li1 O7 2.166411 1_545
Li1 O5 2.197558 1_546
Li1 O3 2.197576 1_654
Li2 O1 2.091708 1_455
Li2 O6 2.091722 1_565
Li2 O0 2.091741 1_655
Li2 O7 2.091742 1_545
Li2 O4 2.218827 1_664
Li2 O2 2.218861 1_446
Li3 O1 2.102978 1_554
Li3 O0 2.102988 1_546
Li3 O5 2.117666 1_555
Li3 O3 2.117670 1_545
Li3 O4 2.164840 1_555
Li3 O2 2.164886 1_545
Ni0 O2 1.984184 1_446
Ni0 O4 1.984756 1_565
Ni0 O3 2.026553 1_555
Ni0 O5 2.027406 1_456
Ni0 O7 2.108089 1_446
Ni0 O6 2.108096 1_565
Ni1 O2 1.995150 1_555
Ni1 O4 1.995174 1_556
Ni1 O0 2.052384 1_556
Ni1 O7 2.052406 1_555
Ni1 O1 2.052409 1_555
Ni1 O6 2.052410 1_556
Ni2 O2 1.984369 1_446
Ni2 O4 1.984780 1_655
Ni2 O3 2.026843 1_555
Ni2 O5 2.027398 1_546
Ni2 O0 2.108028 1_655
Ni2 O1 2.108074 1_446
O0 Ti0 1.973474 1_465
O1 Ti0 1.973449 1_556
O3 Ti0 2.010750 1_565
O5 Ti0 2.010766 1_456
O6 Ti0 1.973418 1_555
O7 Ti0 1.973401 1_466
