# generated using pymatgen
data_LiVF5
_symmetry_space_group_name_H-M   'P 1'
_cell_length_a   8.94225200
_cell_length_b   5.26554600
_cell_length_c   9.49580214
_cell_angle_alpha   58.40592567
_cell_angle_beta   90.00000000
_cell_angle_gamma   90.00000000
_symmetry_Int_Tables_number   1
_chemical_formula_structural   LiVF5
_chemical_formula_sum   'Li4 V4 F20'
_cell_volume   380.84651247
_cell_formula_units_Z   4
loop_
 _symmetry_equiv_pos_site_id
 _symmetry_equiv_pos_as_xyz
  1  'x, y, z'
loop_
 _atom_site_type_symbol
 _atom_site_label
 _atom_site_symmetry_multiplicity
 _atom_site_fract_x
 _atom_site_fract_y
 _atom_site_fract_z
 _atom_site_occupancy
  Li  Li0  1  0.59282500  0.16956100  0.71081500  1
  Li  Li1  1  0.09282500  0.83043900  0.78918500  1
  Li  Li2  1  0.90717500  0.16956100  0.21081500  1
  Li  Li3  1  0.40717500  0.83043900  0.28918500  1
  V  V0  1  0.12904600  0.49179800  0.37576300  1
  V  V1  1  0.62904600  0.50820200  0.12423700  1
  V  V2  1  0.37095400  0.49179800  0.87576300  1
  V  V3  1  0.87095400  0.50820200  0.62423700  1
  F  F0  1  0.71357700  0.81185900  0.12176600  1
  F  F1  1  0.71843700  0.45282700  0.50835000  1
  F  F2  1  0.80006700  0.15968700  0.80066600  1
  F  F3  1  0.01911400  0.23299700  0.59264000  1
  F  F4  1  0.47608600  0.52549900  0.25381100  1
  F  F5  1  0.97608600  0.47450100  0.24618900  1
  F  F6  1  0.51911400  0.76700300  0.90736000  1
  F  F7  1  0.21357700  0.18814100  0.37823400  1
  F  F8  1  0.78156300  0.45282700  0.00835000  1
  F  F9  1  0.30006700  0.84031300  0.69933400  1
  F  F10  1  0.69993300  0.15968700  0.30066600  1
  F  F11  1  0.21843700  0.54717300  0.99165000  1
  F  F12  1  0.78642300  0.81185900  0.62176600  1
  F  F13  1  0.48088600  0.23299700  0.09264000  1
  F  F14  1  0.02391400  0.52549900  0.75381100  1
  F  F15  1  0.52391400  0.47450100  0.74618900  1
  F  F16  1  0.98088600  0.76700300  0.40736000  1
  F  F17  1  0.19993300  0.84031300  0.19933400  1
  F  F18  1  0.28156300  0.54717300  0.49165000  1
  F  F19  1  0.28642300  0.18814100  0.87823400  1
loop_
_geom_bond_atom_site_label_1
_geom_bond_atom_site_label_2
_geom_bond_distance
_geom_bond_site_symmetry_2
F0 V1 1.757602 1_555
F1 V3 1.868760 1_555
F1 Li0 2.044021 1_555
F2 V3 1.831624 1_555
F2 Li0 2.029427 1_555
F3 V0 2.030774 1_555
F3 Li1 2.065345 1_545
F3 V3 2.097812 1_455
F4 V1 1.873637 1_555
F4 Li3 1.906800 1_555
F5 V0 1.873637 1_655
F5 Li2 1.906800 1_555
F6 V1 2.030774 1_556
F6 Li0 2.065345 1_565
F6 V2 2.097812 1_555
F7 V0 1.757602 1_555
F8 V1 1.868760 1_555
F8 Li2 2.044021 1_555
F9 V2 1.831624 1_555
F9 Li1 2.029427 1_555
F10 V1 1.831624 1_555
F10 Li2 2.029427 1_555
F11 V2 1.868760 1_555
F11 Li1 2.044021 1_555
F12 V3 1.757602 1_555
F13 V2 2.030774 1_554
F13 Li3 2.065345 1_545
F13 V1 2.097812 1_555
F14 V3 1.873637 1_455
F14 Li1 1.906800 1_555
F15 V2 1.873637 1_555
F15 Li0 1.906800 1_555
F16 V3 2.030774 1_555
F16 Li2 2.065345 1_565
F16 V0 2.097812 1_655
F17 V0 1.831624 1_555
F17 Li3 2.029427 1_555
F18 V0 1.868760 1_555
F18 Li3 2.044021 1_555
F19 V2 1.757602 1_555
