# generated using pymatgen
data_Li4Cr2Fe3Co3O16
_symmetry_space_group_name_H-M   'P 1'
_cell_length_a   5.75978862
_cell_length_b   5.75978862
_cell_length_c   9.38121656
_cell_angle_alpha   89.61496221
_cell_angle_beta   89.61496221
_cell_angle_gamma   60.04157817
_symmetry_Int_Tables_number   1
_chemical_formula_structural   Li4Cr2Fe3Co3O16
_chemical_formula_sum   'Li4 Cr2 Fe3 Co3 O16'
_cell_volume   269.63210752
_cell_formula_units_Z   1
loop_
 _symmetry_equiv_pos_site_id
 _symmetry_equiv_pos_as_xyz
  1  'x, y, z'
loop_
 _atom_site_type_symbol
 _atom_site_label
 _atom_site_symmetry_multiplicity
 _atom_site_fract_x
 _atom_site_fract_y
 _atom_site_fract_z
 _atom_site_occupancy
  Li  Li0  1  0.33251600  0.33251600  0.89513400  1
  Li  Li1  1  0.99674700  0.99674700  0.99825400  1
  Li  Li2  1  0.99392000  0.99392000  0.49533900  1
  Li  Li3  1  0.66658900  0.66658900  0.39215500  1
  Cr  Cr0  1  0.33687800  0.33687800  0.48789300  1
  Cr  Cr1  1  0.66789200  0.66789200  0.98853000  1
  Fe  Fe0  1  0.16987900  0.16987900  0.21504200  1
  Fe  Fe1  1  0.33761200  0.82946500  0.71442500  1
  Fe  Fe2  1  0.82946500  0.33761200  0.71442500  1
  Co  Co0  1  0.17085500  0.65966400  0.21303000  1
  Co  Co1  1  0.65966400  0.17085500  0.21303000  1
  Co  Co2  1  0.82953700  0.82953700  0.71494000  1
  O  O0  1  0.16229100  0.67670600  0.60260500  1
  O  O1  1  0.48080200  0.48080200  0.33164100  1
  O  O2  1  0.34013900  0.34013900  0.10611200  1
  O  O3  1  0.99291200  0.99291200  0.30799200  1
  O  O4  1  0.99703100  0.99703100  0.80957300  1
  O  O5  1  0.67670600  0.16229100  0.60260500  1
  O  O6  1  0.03829500  0.48902000  0.33959600  1
  O  O7  1  0.48902000  0.03829500  0.33959600  1
  O  O8  1  0.83606200  0.83606200  0.10645100  1
  O  O9  1  0.15984300  0.15984300  0.59962500  1
  O  O10  1  0.51941200  0.96266200  0.83666700  1
  O  O11  1  0.96266200  0.51941200  0.83666700  1
  O  O12  1  0.66726700  0.66726700  0.60998500  1
  O  O13  1  0.32598600  0.83010100  0.09815600  1
  O  O14  1  0.51898400  0.51898400  0.83863000  1
  O  O15  1  0.83010100  0.32598600  0.09815600  1
loop_
_geom_bond_atom_site_label_1
_geom_bond_atom_site_label_2
_geom_bond_distance
_geom_bond_site_symmetry_2
Li0 O11 1.927484 1_455
Li0 O10 1.927484 1_545
Li0 O14 1.929964 1_555
Li0 O2 1.981280 1_556
Li1 O4 1.770038 1_555
Li1 O8 1.890410 1_556
Li1 O13 1.894642 1_656
Li1 O15 1.894642 1_566
Li2 O3 1.757650 1_555
Li2 O5 1.873523 1_565
Li2 O0 1.873523 1_655
Li2 O9 1.929014 1_665
Li3 O6 1.917936 1_655
Li3 O7 1.917936 1_565
Li3 O1 1.942285 1_555
Li3 O12 2.043574 1_555
Cr0 O5 2.012067 1_555
Cr0 O0 2.012067 1_555
Cr0 O6 2.042452 1_555
Cr0 O7 2.042452 1_555
Cr0 O1 2.043704 1_555
Cr0 O9 2.046440 1_555
Cr1 O15 1.989178 1_556
Cr1 O13 1.989178 1_556
Cr1 O8 2.016455 1_556
Cr1 O10 2.043848 1_555
Cr1 O11 2.043848 1_555
Cr1 O14 2.053255 1_555
Fe0 O3 1.962659 1_445
Fe0 O2 1.975150 1_555
Fe0 O7 1.986004 1_555
Fe0 O6 1.986004 1_555
Fe0 O15 2.024604 1_455
Fe0 O13 2.024604 1_545
Fe1 O12 1.911448 1_555
Fe1 O4 1.916648 1_455
Fe1 O14 1.941535 1_555
Fe1 O0 1.951489 1_555
Fe1 O10 1.957155 1_555
Fe1 O9 1.967389 1_565
Fe2 O12 1.911448 1_555
Fe2 O4 1.916648 1_545
Fe2 O14 1.941535 1_555
Fe2 O5 1.951489 1_555
Fe2 O11 1.957155 1_555
Fe2 O9 1.967389 1_655
Co0 O2 1.887664 1_555
Co0 O3 1.890568 1_455
Co0 O1 1.913362 1_555
Co0 O6 1.918440 1_555
Co0 O13 1.942245 1_555
Co0 O8 1.950886 1_455
Co1 O2 1.887664 1_555
Co1 O3 1.890568 1_545
Co1 O1 1.913362 1_555
Co1 O7 1.918440 1_555
Co1 O15 1.942245 1_555
Co1 O8 1.950886 1_545
Co2 O4 1.897921 1_555
Co2 O12 1.900986 1_555
Co2 O11 1.923308 1_555
Co2 O10 1.923308 1_555
Co2 O5 1.964460 1_565
Co2 O0 1.964460 1_655
