# generated using pymatgen
data_ErP4HO12
_symmetry_space_group_name_H-M   'P 1'
_cell_length_a   7.22254900
_cell_length_b   9.68892200
_cell_length_c   13.79612954
_cell_angle_alpha   79.17798817
_cell_angle_beta   90.00000000
_cell_angle_gamma   90.00000000
_symmetry_Int_Tables_number   1
_chemical_formula_structural   ErP4HO12
_chemical_formula_sum   'Er4 P16 H4 O48'
_cell_volume   948.26531703
_cell_formula_units_Z   4
loop_
 _symmetry_equiv_pos_site_id
 _symmetry_equiv_pos_as_xyz
  1  'x, y, z'
loop_
 _atom_site_type_symbol
 _atom_site_label
 _atom_site_symmetry_multiplicity
 _atom_site_fract_x
 _atom_site_fract_y
 _atom_site_fract_z
 _atom_site_occupancy
  Er  Er0  1  0.05672200  0.94107400  0.72891700  1
  Er  Er1  1  0.55672200  0.55892600  0.27108300  1
  Er  Er2  1  0.94327800  0.05892600  0.27108300  1
  Er  Er3  1  0.44327800  0.44107400  0.72891700  1
  P  P0  1  0.78523900  0.70601700  0.61343300  1
  P  P1  1  0.28523900  0.79398300  0.38656700  1
  P  P2  1  0.21476100  0.29398300  0.38656700  1
  P  P3  1  0.71476100  0.20601700  0.61343300  1
  P  P4  1  0.39663100  0.78793600  0.59471200  1
  P  P5  1  0.89663100  0.71206400  0.40528800  1
  P  P6  1  0.60336900  0.21206400  0.40528800  1
  P  P7  1  0.10336900  0.28793600  0.59471200  1
  P  P8  1  0.68114400  0.87516600  0.90125500  1
  P  P9  1  0.18114400  0.62483400  0.09874500  1
  P  P10  1  0.31885600  0.12483400  0.09874500  1
  P  P11  1  0.81885600  0.37516600  0.90125500  1
  P  P12  1  0.34680700  0.69145100  0.89559200  1
  P  P13  1  0.84680700  0.80854900  0.10440800  1
  P  P14  1  0.65319300  0.30854900  0.10440800  1
  P  P15  1  0.15319300  0.19145100  0.89559200  1
  H  H0  1  0.85302200  0.56364000  0.79558100  1
  H  H1  1  0.35302200  0.93636000  0.20441900  1
  H  H2  1  0.14697800  0.43636000  0.20441900  1
  H  H3  1  0.64697800  0.06364000  0.79558100  1
  O  O0  1  0.36003200  0.63232700  0.61711300  1
  O  O1  1  0.86003200  0.86767300  0.38288700  1
  O  O2  1  0.63996800  0.36767300  0.38288700  1
  O  O3  1  0.13996800  0.13232700  0.61711300  1
  O  O4  1  0.94792400  0.79046400  0.63754300  1
  O  O5  1  0.44792400  0.70953600  0.36245700  1
  O  O6  1  0.05207600  0.20953600  0.36245700  1
  O  O7  1  0.55207600  0.29046400  0.63754300  1
  O  O8  1  0.77089600  0.90140900  0.00209800  1
  O  O9  1  0.27089600  0.59859100  0.99790200  1
  O  O10  1  0.22910400  0.09859100  0.99790200  1
  O  O11  1  0.72910400  0.40140900  0.00209800  1
  O  O12  1  0.81755100  0.82694900  0.83425100  1
  O  O13  1  0.31755100  0.67305100  0.16574900  1
  O  O14  1  0.18244900  0.17305100  0.16574900  1
  O  O15  1  0.68244900  0.32694900  0.83425100  1
  O  O16  1  0.72433000  0.58303200  0.69166400  1
  O  O17  1  0.22433000  0.91696800  0.30833600  1
  O  O18  1  0.27567000  0.41696800  0.30833600  1
  O  O19  1  0.77567000  0.08303200  0.69166400  1
  O  O20  1  0.82420300  0.64438700  0.51499900  1
  O  O21  1  0.32420300  0.85561300  0.48500100  1
  O  O22  1  0.17579700  0.35561300  0.48500100  1
  O  O23  1  0.67579700  0.14438700  0.51499900  1
  O  O24  1  0.32588300  0.88013000  0.66231600  1
  O  O25  1  0.82588300  0.61987000  0.33768400  1
  O  O26  1  0.67411700  0.11987000  0.33768400  1
  O  O27  1  0.17411700  0.38013000  0.66231600  1
  O  O28  1  0.41941800  0.58920300  0.83637000  1
  O  O29  1  0.91941800  0.91079700  0.16363000  1
  O  O30  1  0.58058200  0.41079700  0.16363000  1
  O  O31  1  0.08058200  0.08920300  0.83637000  1
  O  O32  1  0.52238600  0.76562700  0.94005800  1
  O  O33  1  0.02238600  0.73437300  0.05994200  1
  O  O34  1  0.47761400  0.23437300  0.05994200  1
  O  O35  1  0.97761400  0.26562700  0.94005800  1
  O  O36  1  0.20852500  0.80003400  0.85419000  1
  O  O37  1  0.70852500  0.69996600  0.14581000  1
  O  O38  1  0.79147500  0.19996600  0.14581000  1
  O  O39  1  0.29147500  0.30003400  0.85419000  1
  O  O40  1  0.61759500  0.81489700  0.58275200  1
  O  O41  1  0.11759500  0.68510300  0.41724800  1
  O  O42  1  0.38240500  0.18510300  0.41724800  1
  O  O43  1  0.88240500  0.31489700  0.58275200  1
  O  O44  1  0.91770500  0.51674000  0.85868600  1
  O  O45  1  0.41770500  0.98326000  0.14131400  1
  O  O46  1  0.08229500  0.48326000  0.14131400  1
  O  O47  1  0.58229500  0.01674000  0.85868600  1
loop_
_geom_bond_atom_site_label_1
_geom_bond_atom_site_label_2
_geom_bond_distance
_geom_bond_site_symmetry_2
Er0 O4 2.242052 1_455
Er0 O31 2.255237 1_565
Er0 O3 2.258564 1_565
Er0 O36 2.273671 1_555
Er0 O24 2.275064 1_555
Er0 O12 2.390619 1_455
Er0 O19 2.451737 1_465
Er1 O5 2.242052 1_555
Er1 O30 2.255237 1_555
Er1 O2 2.258564 1_555
Er1 O37 2.273671 1_555
Er1 O25 2.275064 1_555
Er1 O13 2.390619 1_555
Er1 O18 2.451737 1_555
Er2 O6 2.242052 1_655
Er2 O29 2.255237 1_545
Er2 O1 2.258564 1_545
Er2 O38 2.273671 1_555
Er2 O26 2.275064 1_555
Er2 O14 2.390619 1_655
Er2 O17 2.451737 1_645
Er3 O7 2.242052 1_555
Er3 O28 2.255237 1_555
Er3 O0 2.258564 1_555
Er3 O39 2.273671 1_555
Er3 O27 2.275064 1_555
Er3 O15 2.390619 1_555
Er3 O16 2.451737 1_555
H0 O44 1.016925 1_555
H0 O16 1.689216 1_555
H1 O45 1.016925 1_555
H1 O17 1.689216 1_555
H2 O46 1.016925 1_555
H2 O18 1.689216 1_555
H3 O47 1.016925 1_555
H3 O19 1.689216 1_555
O0 P4 1.504501 1_555
O1 P5 1.504501 1_555
O2 P6 1.504501 1_555
O3 P7 1.504501 1_555
O4 P0 1.504299 1_555
O5 P1 1.504299 1_555
O6 P2 1.504299 1_555
O7 P3 1.504299 1_555
O8 P8 1.597892 1_554
O8 P13 1.620335 1_555
O9 P9 1.597892 1_556
O9 P12 1.620335 1_555
O10 P10 1.597892 1_556
O10 P15 1.620335 1_555
O11 P11 1.597892 1_554
O11 P14 1.620335 1_555
O12 P8 1.485111 1_555
O13 P9 1.485111 1_555
O14 P10 1.485111 1_555
O15 P11 1.485111 1_555
O16 P0 1.515036 1_555
O17 P1 1.515036 1_555
O18 P2 1.515036 1_555
O19 P3 1.515036 1_555
O20 P0 1.607624 1_555
O20 P5 1.619217 1_555
O21 P1 1.607624 1_555
O21 P4 1.619217 1_555
O22 P2 1.607624 1_555
O22 P7 1.619217 1_555
O23 P3 1.607624 1_555
O23 P6 1.619217 1_555
O24 P4 1.497246 1_555
O25 P5 1.497246 1_555
O26 P6 1.497246 1_555
O27 P7 1.497246 1_555
O28 P12 1.492635 1_555
O29 P13 1.492635 1_555
O30 P14 1.492635 1_555
O31 P15 1.492635 1_555
O32 P8 1.585684 1_555
O32 P12 1.632957 1_555
O33 P9 1.585684 1_555
O33 P13 1.632957 1_455
O34 P10 1.585684 1_555
O34 P14 1.632957 1_555
O35 P11 1.585684 1_555
O35 P15 1.632957 1_655
O36 P12 1.484895 1_555
O37 P13 1.484895 1_555
O38 P14 1.484895 1_555
O39 P15 1.484895 1_555
O40 P0 1.609484 1_555
O40 P4 1.620570 1_555
O41 P1 1.609484 1_555
O41 P5 1.620570 1_455
O42 P2 1.609484 1_555
O42 P6 1.620570 1_555
O43 P3 1.609484 1_555
O43 P7 1.620570 1_655
O44 P11 1.560022 1_555
O45 P10 1.560022 1_565
O46 P9 1.560022 1_555
O47 P8 1.560022 1_545
