# generated using pymatgen
data_Li2SnP2O7
_symmetry_space_group_name_H-M   'P 1'
_cell_length_a   6.95627273
_cell_length_b   11.30364179
_cell_length_c   9.73514041
_cell_angle_alpha   65.72029940
_cell_angle_beta   106.61404850
_cell_angle_gamma   85.88122245
_symmetry_Int_Tables_number   1
_chemical_formula_structural   Li2SnP2O7
_chemical_formula_sum   'Li8 Sn4 P8 O28'
_cell_volume   652.74096144
_cell_formula_units_Z   4
loop_
 _symmetry_equiv_pos_site_id
 _symmetry_equiv_pos_as_xyz
  1  'x, y, z'
loop_
 _atom_site_type_symbol
 _atom_site_label
 _atom_site_symmetry_multiplicity
 _atom_site_fract_x
 _atom_site_fract_y
 _atom_site_fract_z
 _atom_site_occupancy
  Li  Li0  1  0.00747800  0.45810100  0.22012400  1
  Li  Li1  1  0.61263500  0.37845700  0.07455800  1
  Li  Li2  1  0.68755400  0.02989900  0.50260400  1
  Li  Li3  1  0.18907200  0.78786600  0.13807800  1
  Li  Li4  1  0.18971100  0.97708900  0.46664900  1
  Li  Li5  1  0.80692500  0.20356800  0.86210300  1
  Li  Li6  1  0.36422800  0.62096100  0.92035700  1
  Li  Li7  1  0.94813500  0.51150900  0.86674000  1
  Sn  Sn0  1  0.35371000  0.25325700  0.50834200  1
  Sn  Sn1  1  0.71477100  0.81232100  0.10342200  1
  Sn  Sn2  1  0.28226300  0.20415200  0.87547900  1
  Sn  Sn3  1  0.64850800  0.74332100  0.49684000  1
  P  P0  1  0.07245700  0.21784700  0.16788600  1
  P  P1  1  0.72127000  0.08077500  0.18663300  1
  P  P2  1  0.49031700  0.51996300  0.26890500  1
  P  P3  1  0.13658300  0.69246500  0.47340800  1
  P  P4  1  0.83570500  0.30118000  0.51574600  1
  P  P5  1  0.49729000  0.48198500  0.73070400  1
  P  P6  1  0.29747400  0.92410400  0.79712300  1
  P  P7  1  0.93573700  0.79999600  0.81614200  1
  O  O0  1  0.09002200  0.17901400  0.03647500  1
  O  O1  1  0.56077900  0.21006200  0.10175900  1
  O  O2  1  0.27031900  0.17896200  0.31181700  1
  O  O3  1  0.95048800  0.36167900  0.08989600  1
  O  O4  1  0.98740500  0.32986200  0.42397000  1
  O  O5  1  0.94339100  0.11521800  0.25974800  1
  O  O6  1  0.57677700  0.50651100  0.14667900  1
  O  O7  1  0.05109300  0.72138500  0.29468400  1
  O  O8  1  0.30922900  0.44851600  0.28632700  1
  O  O9  1  0.32422900  0.01898700  0.64134800  1
  O  O10  1  0.43779800  0.66275800  0.23876500  1
  O  O11  1  0.70357600  0.20394500  0.48811100  1
  O  O12  1  0.74365600  0.03088500  0.06437500  1
  O  O13  1  0.31529100  0.55612000  0.55504400  1
  O  O14  1  0.67606300  0.44312900  0.44482900  1
  O  O15  1  0.29828800  0.98250300  0.91672600  1
  O  O16  1  0.24136700  0.80050400  0.49531800  1
  O  O17  1  0.56710300  0.34156300  0.75636200  1
  O  O18  1  0.69776900  0.97824600  0.33800900  1
  O  O19  1  0.67217700  0.56024700  0.72043800  1
  O  O20  1  0.93831000  0.25856600  0.69627700  1
  O  O21  1  0.40846400  0.48600500  0.85532400  1
  O  O22  1  0.06602200  0.90245100  0.72829100  1
  O  O23  1  0.97749100  0.65572600  0.55696500  1
  O  O24  1  0.05391500  0.65733100  0.88874400  1
  O  O25  1  0.73548900  0.84012700  0.67349400  1
  O  O26  1  0.44403500  0.78884300  0.88464700  1
  O  O27  1  0.91648000  0.83727600  0.94954100  1
loop_
_geom_bond_atom_site_label_1
_geom_bond_atom_site_label_2
_geom_bond_distance
_geom_bond_site_symmetry_2
Li0 O3 1.965551 1_455
Li0 O4 1.969952 1_455
Li0 O8 1.992352 1_555
Li1 O6 1.880006 1_555
Li1 O1 1.887380 1_555
Li1 O21 1.983681 1_554
Li1 O3 2.300804 1_555
Li2 O11 1.927440 1_555
Li2 O18 1.934434 1_545
Li2 O25 2.031155 1_545
Li3 O10 1.868964 1_555
Li3 O7 1.951546 1_555
Li3 O27 2.071473 1_454
Li4 O16 1.890164 1_555
Li4 O9 1.951502 1_565
Li4 O5 2.118167 1_465
Li4 O2 2.373181 1_565
Li5 O17 1.897247 1_555
Li5 O20 1.981886 1_555
Li5 O0 2.111673 1_656
Li5 O12 2.310707 1_556
Li6 O21 1.913342 1_555
Li6 O26 1.936337 1_555
Li6 O6 2.057290 1_556
Li6 O24 2.076524 1_555
Li7 O19 1.912169 1_555
Li7 O24 1.918011 1_655
Li7 O3 2.130273 1_556
O0 P0 1.545228 1_555
O0 Sn2 2.283077 1_554
O1 P1 1.519843 1_555
O1 Sn2 2.511924 1_554
O2 P0 1.534507 1_555
O2 Sn0 2.336400 1_555
O3 P0 1.535563 1_655
O4 P4 1.538519 1_555
O4 Sn0 2.412188 1_655
O5 P0 1.645356 1_655
O5 P1 1.652589 1_555
O6 P2 1.531528 1_555
O7 P3 1.549327 1_555
O7 Sn1 2.363578 1_455
O8 P2 1.556763 1_555
O8 Sn0 2.288012 1_555
O9 P6 1.528784 1_545
O9 Sn0 2.478131 1_555
O10 P2 1.513077 1_555
O11 P4 1.540162 1_555
O11 Sn0 2.538151 1_555
O12 P1 1.550550 1_555
O12 Sn1 2.373024 1_545
O13 P5 1.631096 1_555
O13 P3 1.644631 1_555
O14 P4 1.636777 1_555
O14 P2 1.645322 1_555
O15 P6 1.555754 1_555
O15 Sn2 2.357504 1_565
O16 P3 1.523613 1_555
O17 P5 1.520375 1_555
O18 P1 1.517239 1_565
O18 Sn3 2.572348 1_555
O19 P5 1.556928 1_555
O19 Sn3 2.255975 1_555
O20 P4 1.538612 1_555
O20 Sn2 2.380273 1_655
O21 P5 1.525017 1_555
O22 P7 1.635088 1_455
O22 P6 1.635757 1_555
O23 P3 1.536848 1_655
O23 Sn3 2.234298 1_555
O24 P7 1.521810 1_455
O25 P7 1.536107 1_555
O25 Sn3 2.359815 1_555
O26 P6 1.520215 1_555
O26 Sn1 2.529084 1_556
O27 P7 1.556746 1_555
O27 Sn1 2.281204 1_556
