# generated using pymatgen
data_FeH12(SO7)2
_symmetry_space_group_name_H-M   'P 1'
_cell_length_a   12.55051000
_cell_length_b   6.28916900
_cell_length_c   9.03744163
_cell_angle_alpha   72.67358374
_cell_angle_beta   90.00000000
_cell_angle_gamma   90.00000000
_symmetry_Int_Tables_number   1
_chemical_formula_structural   FeH12(SO7)2
_chemical_formula_sum   'Fe2 H24 S4 O28'
_cell_volume   680.97678694
_cell_formula_units_Z   2
loop_
 _symmetry_equiv_pos_site_id
 _symmetry_equiv_pos_as_xyz
  1  'x, y, z'
loop_
 _atom_site_type_symbol
 _atom_site_label
 _atom_site_symmetry_multiplicity
 _atom_site_fract_x
 _atom_site_fract_y
 _atom_site_fract_z
 _atom_site_occupancy
  Fe  Fe0  1  0.00000000  0.00000000  0.00000000  1
  Fe  Fe1  1  0.50000000  0.00000000  0.50000000  1
  H  H0  1  0.06077000  0.33461300  0.10184500  1
  H  H1  1  0.86018800  0.67669400  0.03560000  1
  H  H2  1  0.40534000  0.06321600  0.22122300  1
  H  H3  1  0.63367200  0.08645200  0.25938800  1
  H  H4  1  0.31500200  0.00357400  0.35448400  1
  H  H5  1  0.09921800  0.67506200  0.21148100  1
  H  H6  1  0.59921800  0.32493800  0.28851900  1
  H  H7  1  0.81500200  0.99642600  0.14551600  1
  H  H8  1  0.13367200  0.91354800  0.24061200  1
  H  H9  1  0.90534000  0.93678400  0.27877700  1
  H  H10  1  0.36018800  0.32330600  0.46440000  1
  H  H11  1  0.56077000  0.66538700  0.39815500  1
  H  H12  1  0.43923000  0.33461300  0.60184500  1
  H  H13  1  0.63981200  0.67669400  0.53560000  1
  H  H14  1  0.09466000  0.06321600  0.72122300  1
  H  H15  1  0.86632800  0.08645200  0.75938800  1
  H  H16  1  0.18499800  0.00357400  0.85448400  1
  H  H17  1  0.40078200  0.67506200  0.71148100  1
  H  H18  1  0.90078200  0.32493800  0.78851900  1
  H  H19  1  0.68499800  0.99642600  0.64551600  1
  H  H20  1  0.36632800  0.91354800  0.74061200  1
  H  H21  1  0.59466000  0.93678400  0.77877700  1
  H  H22  1  0.13981200  0.32330600  0.96440000  1
  H  H23  1  0.93923000  0.66538700  0.89815500  1
  S  S0  1  0.64664700  0.74225300  0.10617900  1
  S  S1  1  0.14664700  0.25774700  0.39382100  1
  S  S2  1  0.85335300  0.74225300  0.60617900  1
  S  S3  1  0.35335300  0.25774700  0.89382100  1
  O  O0  1  0.06425100  0.29177800  0.00338300  1
  O  O1  1  0.41987500  0.19278900  0.03541500  1
  O  O2  1  0.89280300  0.01216400  0.16524700  1
  O  O3  1  0.73806800  0.60926800  0.07902700  1
  O  O4  1  0.68570900  0.94421100  0.14544600  1
  O  O5  1  0.10663500  0.84032400  0.16354700  1
  O  O6  1  0.08173500  0.39981000  0.26264700  1
  O  O7  1  0.58173500  0.60019000  0.23735300  1
  O  O8  1  0.60663500  0.15967600  0.33645300  1
  O  O9  1  0.18570900  0.05578900  0.35455400  1
  O  O10  1  0.23806800  0.39073200  0.42097300  1
  O  O11  1  0.39280300  0.98783600  0.33475300  1
  O  O12  1  0.43574900  0.29177800  0.50338300  1
  O  O13  1  0.08012500  0.19278900  0.53541500  1
  O  O14  1  0.91987500  0.80721100  0.46458500  1
  O  O15  1  0.56425100  0.70822200  0.49661700  1
  O  O16  1  0.60719700  0.01216400  0.66524700  1
  O  O17  1  0.76193200  0.60926800  0.57902700  1
  O  O18  1  0.81429100  0.94421100  0.64544600  1
  O  O19  1  0.39336500  0.84032400  0.66354700  1
  O  O20  1  0.41826500  0.39981000  0.76264700  1
  O  O21  1  0.91826500  0.60019000  0.73735300  1
  O  O22  1  0.89336500  0.15967600  0.83645300  1
  O  O23  1  0.31429100  0.05578900  0.85455400  1
  O  O24  1  0.26193200  0.39073200  0.92097300  1
  O  O25  1  0.10719700  0.98783600  0.83475300  1
  O  O26  1  0.58012500  0.80721100  0.96458500  1
  O  O27  1  0.93574900  0.70822200  0.99661700  1
loop_
_geom_bond_atom_site_label_1
_geom_bond_atom_site_label_2
_geom_bond_distance
_geom_bond_site_symmetry_2
Fe0 O0 2.012953 1_555
Fe0 O27 2.012953 1_444
Fe0 O22 2.024874 1_454
Fe0 O5 2.024874 1_545
Fe0 O2 2.028353 1_455
Fe0 O25 2.028353 1_544
Fe1 O12 2.012953 1_555
Fe1 O15 2.012953 1_545
Fe1 O8 2.024874 1_555
Fe1 O19 2.024874 1_545
Fe1 O16 2.028353 1_555
Fe1 O11 2.028353 1_545
H0 O0 1.004536 1_555
H0 O6 1.644441 1_555
H1 O27 1.010523 1_554
H1 O3 1.607419 1_555
H2 O11 1.006232 1_545
H2 O1 1.643804 1_555
H3 O8 1.001665 1_555
H3 O4 1.684000 1_545
H4 O11 1.002769 1_545
H4 O9 1.655626 1_555
H5 O5 1.004199 1_555
H5 O6 1.667905 1_555
H6 O8 1.004199 1_555
H6 O7 1.667905 1_555
H7 O2 1.002769 1_565
H7 O4 1.655626 1_555
H8 O5 1.001665 1_555
H8 O9 1.684000 1_565
H9 O2 1.006232 1_565
H9 O14 1.643804 1_555
H10 O12 1.010523 1_555
H10 O10 1.607419 1_555
H11 O15 1.004536 1_555
H11 O7 1.644441 1_555
H12 O12 1.004536 1_555
H12 O20 1.644441 1_555
H13 O15 1.010523 1_555
H13 O17 1.607419 1_555
H14 O25 1.006232 1_545
H14 O13 1.643804 1_555
H15 O22 1.001665 1_555
H15 O18 1.684000 1_545
H16 O25 1.002769 1_545
H16 O23 1.655626 1_555
H17 O19 1.004199 1_555
H17 O20 1.667905 1_555
H18 O22 1.004199 1_555
H18 O21 1.667905 1_555
H19 O16 1.002769 1_565
H19 O18 1.655626 1_555
H20 O19 1.001665 1_555
H20 O23 1.684000 1_565
H21 O16 1.006232 1_565
H21 O26 1.643804 1_555
H22 O0 1.010523 1_556
H22 O24 1.607419 1_555
H23 O27 1.004536 1_555
H23 O21 1.644441 1_555
O1 S3 1.479881 1_554
O3 S0 1.482715 1_555
O4 S0 1.499343 1_555
O6 S1 1.495476 1_555
O7 S0 1.495476 1_555
O9 S1 1.499343 1_555
O10 S1 1.482715 1_555
O13 S1 1.479881 1_555
O14 S2 1.479881 1_555
O17 S2 1.482715 1_555
O18 S2 1.499343 1_555
O20 S3 1.495476 1_555
O21 S2 1.495476 1_555
O23 S3 1.499343 1_555
O24 S3 1.482715 1_555
O26 S0 1.479881 1_556
