# generated using pymatgen
data_Li4V3P8O29
_symmetry_space_group_name_H-M   'P 1'
_cell_length_a   9.76059600
_cell_length_b   9.76946653
_cell_length_c   14.07588410
_cell_angle_alpha   90.03536990
_cell_angle_beta   90.06479411
_cell_angle_gamma   119.96212928
_symmetry_Int_Tables_number   1
_chemical_formula_structural   Li4V3P8O29
_chemical_formula_sum   'Li8 V6 P16 O58'
_cell_volume   1162.83587902
_cell_formula_units_Z   2
loop_
 _symmetry_equiv_pos_site_id
 _symmetry_equiv_pos_as_xyz
  1  'x, y, z'
loop_
 _atom_site_type_symbol
 _atom_site_label
 _atom_site_symmetry_multiplicity
 _atom_site_fract_x
 _atom_site_fract_y
 _atom_site_fract_z
 _atom_site_occupancy
  Li  Li0  1  0.90440900  0.66760100  0.05734800  1
  Li  Li1  1  0.76840800  0.09654700  0.05778200  1
  Li  Li2  1  0.33114900  0.23336700  0.05649500  1
  Li  Li3  1  0.68630400  0.91260600  0.44306600  1
  Li  Li4  1  0.32137600  0.09269800  0.56181300  1
  Li  Li5  1  0.08637400  0.77378200  0.44098800  1
  Li  Li6  1  0.22429700  0.31885200  0.44551800  1
  Li  Li7  1  0.00509700  0.00444700  0.99190300  1
  V  V0  1  0.56835800  0.00190600  0.24812100  1
  V  V1  1  0.43241600  0.99393900  0.75602000  1
  V  V2  1  0.56956600  0.56960100  0.74976900  1
  V  V3  1  0.43568700  0.43600400  0.24824600  1
  V  V4  1  0.99965300  0.56519900  0.25052900  1
  V  V5  1  0.00079400  0.43357200  0.74843700  1
  P  P0  1  0.91385200  0.68783300  0.84118400  1
  P  P1  1  0.76968800  0.68538800  0.34347600  1
  P  P2  1  0.91588800  0.23083900  0.34262700  1
  P  P3  1  0.66558400  0.33433300  0.12781800  1
  P  P4  1  0.66287200  0.33051100  0.63081200  1
  P  P5  1  0.77767100  0.08944000  0.84067400  1
  P  P6  1  0.68324300  0.91194500  0.65840400  1
  P  P7  1  0.31409400  0.22674500  0.84211800  1
  P  P8  1  0.69184400  0.77469600  0.15728700  1
  P  P9  1  0.32108200  0.08965900  0.34293900  1
  P  P10  1  0.22518200  0.91519100  0.15982000  1
  P  P11  1  0.33557800  0.66762900  0.37005200  1
  P  P12  1  0.33247200  0.66206600  0.87031600  1
  P  P13  1  0.08881100  0.77230600  0.65788000  1
  P  P14  1  0.22912000  0.31767300  0.66018400  1
  P  P15  1  0.08407900  0.30888500  0.15709400  1
  O  O0  1  0.00934400  0.76646300  0.56710500  1
  O  O1  1  0.91590700  0.66349000  0.34149300  1
  O  O2  1  0.78550400  0.77728900  0.07287200  1
  O  O3  1  0.74203400  0.65671700  0.83209500  1
  O  O4  1  0.91389500  0.53093700  0.82758400  1
  O  O5  1  0.81012300  0.48887000  0.16617400  1
  O  O6  1  0.90523700  0.38236200  0.32177500  1
  O  O7  1  0.99828100  0.20720100  0.07348500  1
  O  O8  1  0.91632300  0.26066000  0.83170000  1
  O  O9  1  0.65749100  0.47530000  0.67800500  1
  O  O10  1  0.61779200  0.52303400  0.32067300  1
  O  O11  1  0.81534500  0.33978400  0.67632900  1
  O  O12  1  0.65076600  0.33092000  0.02230600  1
  O  O13  1  0.66073300  0.33363900  0.52568400  1
  O  O14  1  0.67694800  0.18953300  0.16672300  1
  O  O15  1  0.46930900  0.38338000  0.82935600  1
  O  O16  1  0.50948500  0.32469900  0.17265000  1
  O  O17  1  0.74608800  0.08508500  0.33924500  1
  O  O18  1  0.79518500  0.00085700  0.74921200  1
  O  O19  1  0.75446800  0.99267400  0.56806800  1
  O  O20  1  0.78589700  0.01459700  0.93118600  1
  O  O21  1  0.61916200  0.08969800  0.82763100  1
  O  O22  1  0.51480400  0.17916700  0.67169700  1
  O  O23  1  0.66221600  0.91627900  0.15859100  1
  O  O24  1  0.48146100  0.10244800  0.32244800  1
  O  O25  1  0.33671600  0.25623100  0.33925800  1
  O  O26  1  0.79299000  0.79452900  0.25166400  1
  O  O27  1  0.75341300  0.76208400  0.42975200  1
  O  O28  1  0.23913600  0.23878800  0.57133300  1
  O  O29  1  0.65691600  0.74213400  0.66684900  1
  O  O30  1  0.52364400  0.90490100  0.68028900  1
  O  O31  1  0.34567800  0.08612300  0.83159300  1
  O  O32  1  0.48712900  0.81462800  0.32983300  1
  O  O33  1  0.38204400  0.91423000  0.17115600  1
  O  O34  1  0.21450000  0.00577000  0.07781900  1
  O  O35  1  0.24673700  0.00548000  0.43421000  1
  O  O36  1  0.20370400  0.99222400  0.25733800  1
  O  O37  1  0.25909300  0.91845000  0.66288600  1
  O  O38  1  0.48067000  0.66540600  0.82509100  1
  O  O39  1  0.53148200  0.61768300  0.17207000  1
  O  O40  1  0.33233100  0.81359200  0.82595500  1
  O  O41  1  0.33237400  0.66698400  0.97509700  1
  O  O42  1  0.33507200  0.65526400  0.47531900  1
  O  O43  1  0.18700700  0.67206600  0.33109800  1
  O  O44  1  0.38143700  0.47654300  0.67717400  1
  O  O45  1  0.33164600  0.51522700  0.32351900  1
  O  O46  1  0.08341400  0.74308500  0.16211400  1
  O  O47  1  0.00234100  0.79530300  0.74942300  1
  O  O48  1  0.98788300  0.77365700  0.93134400  1
  O  O49  1  0.09591000  0.61972200  0.67763200  1
  O  O50  1  0.18432800  0.51733200  0.82424900  1
  O  O51  1  0.08644500  0.46571900  0.16878900  1
  O  O52  1  0.25749400  0.33808200  0.16138600  1
  O  O53  1  0.22624300  0.21055000  0.93198500  1
  O  O54  1  0.20489200  0.20593700  0.75062800  1
  O  O55  1  0.08470700  0.34229900  0.66367300  1
  O  O56  1  0.00611100  0.24212000  0.42922200  1
  O  O57  1  0.00135500  0.20644200  0.25133500  1
loop_
_geom_bond_atom_site_label_1
_geom_bond_atom_site_label_2
_geom_bond_distance
_geom_bond_site_symmetry_2
Li0 O2 1.945649 1_555
Li0 O48 2.011318 1_554
Li0 O46 2.115899 1_655
Li0 O5 2.154926 1_555
Li1 O7 1.956404 1_555
Li1 O20 1.995218 1_554
Li1 O23 2.091046 1_545
Li1 O14 2.187463 1_555
Li2 O34 1.950199 1_555
Li2 O53 1.984236 1_554
Li2 O52 2.116223 1_555
Li2 O16 2.222528 1_555
Li3 O27 1.894377 1_555
Li3 O19 1.904267 1_555
Li3 O17 2.082851 1_565
Li3 O32 2.316976 1_555
Li4 O28 1.960511 1_555
Li4 O35 1.964165 1_555
Li4 O37 2.064641 1_545
Li4 O22 2.251469 1_555
Li5 O0 1.916049 1_555
Li5 O35 2.011081 1_565
Li5 O1 2.023089 1_455
Li5 O43 2.306799 1_555
Li6 O56 1.885191 1_555
Li6 O28 1.970626 1_555
Li6 O25 2.118610 1_555
Li6 O45 2.393246 1_555
Li7 O53 2.256047 1_555
Li7 O7 2.318548 1_456
Li7 O48 2.336110 1_445
Li7 O20 2.350679 1_455
Li7 O34 2.368164 1_556
Li7 O2 2.464824 1_446
O0 P13 1.480183 1_555
O1 P1 1.545463 1_555
O1 V4 2.003630 1_555
O2 P8 1.492508 1_555
O3 P0 1.552904 1_555
O3 V2 1.861262 1_555
O4 P0 1.544789 1_555
O4 V5 1.916259 1_655
O5 P3 1.559139 1_555
O5 V4 2.001044 1_555
O6 P2 1.562826 1_555
O6 V4 1.845438 1_555
O7 P15 1.496175 1_655
O8 P5 1.544332 1_555
O8 V5 1.876275 1_655
O9 P4 1.586820 1_555
O9 V2 1.842871 1_555
O10 P1 1.570442 1_555
O10 V3 1.845772 1_555
O11 P4 1.580069 1_555
O11 V5 1.866612 1_655
O12 P3 1.490775 1_555
O13 P4 1.480443 1_555
O14 P3 1.571906 1_555
O14 V0 1.964899 1_555
O15 P7 1.534409 1_555
O15 V2 1.936258 1_555
O16 P3 1.608574 1_555
O16 V3 1.901632 1_555
O17 P2 1.555362 1_555
O17 V0 1.974970 1_555
O18 P5 1.607006 1_555
O18 P6 1.621607 1_545
O19 P6 1.475722 1_555
O20 P5 1.491238 1_555
O21 P5 1.559043 1_555
O21 V1 1.872185 1_545
O22 P4 1.573063 1_555
O22 V1 1.970106 1_545
O23 P8 1.548129 1_555
O23 V0 1.973313 1_565
O24 P9 1.534591 1_555
O24 V0 1.900433 1_555
O25 P9 1.557633 1_555
O25 V3 1.992435 1_555
O26 P8 1.607046 1_555
O26 P1 1.618296 1_555
O27 P1 1.476364 1_555
O28 P14 1.497319 1_555
O29 P6 1.551394 1_555
O29 V2 1.870704 1_555
O30 P6 1.555747 1_555
O30 V1 1.860245 1_555
O31 P7 1.557946 1_555
O31 V1 1.849818 1_545
O32 P11 1.565887 1_555
O32 V0 1.963333 1_565
O33 P10 1.543866 1_555
O33 V0 1.911260 1_565
O34 P10 1.489746 1_545
O35 P9 1.503570 1_555
O36 P9 1.605189 1_565
O36 P10 1.628327 1_555
O37 P13 1.560509 1_555
O37 V1 1.967744 1_555
O38 P12 1.566406 1_555
O38 V2 1.888123 1_555
O39 P8 1.564965 1_555
O39 V3 1.876488 1_555
O40 P12 1.607622 1_555
O40 V1 1.820091 1_555
O41 P12 1.475655 1_555
O42 P11 1.486530 1_555
O43 P11 1.570495 1_555
O43 V4 1.951169 1_455
O44 P14 1.539585 1_555
O44 V2 1.889344 1_555
O45 P11 1.609017 1_555
O45 V3 1.881320 1_555
O46 P10 1.555334 1_555
O46 V4 1.955290 1_455
O47 P13 1.616995 1_555
O47 P0 1.617100 1_455
O48 P0 1.492366 1_555
O49 P13 1.551715 1_555
O49 V5 1.865574 1_555
O50 P12 1.570079 1_555
O50 V5 1.883575 1_555
O51 P15 1.529562 1_555
O51 V4 1.951706 1_455
O52 P15 1.570833 1_555
O52 V3 1.940836 1_555
O53 P7 1.492517 1_555
O54 P14 1.616415 1_555
O54 P7 1.617405 1_555
O55 P14 1.544672 1_555
O55 V5 1.902599 1_555
O56 P2 1.474395 1_455
O57 P2 1.613886 1_455
O57 P15 1.615594 1_555
