# generated using pymatgen
data_LiVF3
_symmetry_space_group_name_H-M   'P 1'
_cell_length_a   7.25661656
_cell_length_b   7.25661656
_cell_length_c   5.78220971
_cell_angle_alpha   70.99180186
_cell_angle_beta   70.99180186
_cell_angle_gamma   80.27012224
_symmetry_Int_Tables_number   1
_chemical_formula_structural   LiVF3
_chemical_formula_sum   'Li4 V4 F12'
_cell_volume   271.50698533
_cell_formula_units_Z   4
loop_
 _symmetry_equiv_pos_site_id
 _symmetry_equiv_pos_as_xyz
  1  'x, y, z'
loop_
 _atom_site_type_symbol
 _atom_site_label
 _atom_site_symmetry_multiplicity
 _atom_site_fract_x
 _atom_site_fract_y
 _atom_site_fract_z
 _atom_site_occupancy
  Li  Li0  1  0.77128000  0.62110400  0.32408500  1
  Li  Li1  1  0.62110400  0.77128000  0.82408500  1
  Li  Li2  1  0.37889600  0.22872000  0.17591500  1
  Li  Li3  1  0.22872000  0.37889600  0.67591500  1
  V  V0  1  0.90672200  0.09327800  0.25000000  1
  V  V1  1  0.26868600  0.73131400  0.25000000  1
  V  V2  1  0.73131400  0.26868600  0.75000000  1
  V  V3  1  0.09327800  0.90672200  0.75000000  1
  F  F0  1  0.97732200  0.81215300  0.16704000  1
  F  F1  1  0.81215300  0.97732200  0.66704000  1
  F  F2  1  0.85218500  0.35204000  0.34593500  1
  F  F3  1  0.56835000  0.71935400  0.18436500  1
  F  F4  1  0.35204000  0.85218500  0.84593500  1
  F  F5  1  0.71935400  0.56835000  0.68436500  1
  F  F6  1  0.28064600  0.43165000  0.31563500  1
  F  F7  1  0.64796000  0.14781500  0.15406500  1
  F  F8  1  0.43165000  0.28064600  0.81563500  1
  F  F9  1  0.14781500  0.64796000  0.65406500  1
  F  F10  1  0.18784700  0.02267800  0.33296000  1
  F  F11  1  0.02267800  0.18784700  0.83296000  1
loop_
_geom_bond_atom_site_label_1
_geom_bond_atom_site_label_2
_geom_bond_distance
_geom_bond_site_symmetry_2
F0 Li0 1.994563 1_555
F0 V0 2.185943 1_565
F0 V3 2.188456 1_654
F0 V1 2.258916 1_655
F1 Li1 1.994563 1_555
F1 V3 2.185943 1_655
F1 V0 2.188456 1_565
F1 V2 2.258916 1_565
F2 Li0 1.916520 1_555
F2 V0 2.067500 1_555
F2 V2 2.125499 1_555
F3 Li0 1.836954 1_555
F3 Li1 1.909515 1_554
F3 V1 2.073715 1_555
F4 Li1 1.916520 1_555
F4 V3 2.067500 1_555
F4 V1 2.125499 1_556
F5 Li1 1.836954 1_555
F5 Li0 1.909515 1_555
F5 V2 2.073715 1_555
F6 Li2 1.836954 1_555
F6 Li3 1.909515 1_555
F6 V1 2.073715 1_555
F7 Li2 1.916520 1_555
F7 V0 2.067500 1_555
F7 V2 2.125499 1_554
F8 Li3 1.836954 1_555
F8 Li2 1.909515 1_556
F8 V2 2.073715 1_555
F9 Li3 1.916520 1_555
F9 V3 2.067500 1_555
F9 V1 2.125499 1_555
F10 Li2 1.994563 1_555
F10 V0 2.185943 1_455
F10 V3 2.188456 1_545
F10 V1 2.258916 1_545
F11 Li3 1.994563 1_555
F11 V3 2.185943 1_545
F11 V0 2.188456 1_456
F11 V2 2.258916 1_455
