# generated using pymatgen
data_AlP2H5O9
_symmetry_space_group_name_H-M   'P 1'
_cell_length_a   9.36576400
_cell_length_b   7.96566700
_cell_length_c   9.32963324
_cell_angle_alpha   69.54393800
_cell_angle_beta   90.00000000
_cell_angle_gamma   90.00000000
_symmetry_Int_Tables_number   1
_chemical_formula_structural   AlP2H5O9
_chemical_formula_sum   'Al4 P8 H20 O36'
_cell_volume   652.14163672
_cell_formula_units_Z   4
loop_
 _symmetry_equiv_pos_site_id
 _symmetry_equiv_pos_as_xyz
  1  'x, y, z'
loop_
 _atom_site_type_symbol
 _atom_site_label
 _atom_site_symmetry_multiplicity
 _atom_site_fract_x
 _atom_site_fract_y
 _atom_site_fract_z
 _atom_site_occupancy
  Al  Al0  1  0.71212800  0.86762400  0.93290800  1
  Al  Al1  1  0.21212800  0.13237600  0.56709200  1
  Al  Al2  1  0.28787200  0.13237600  0.06709200  1
  Al  Al3  1  0.78787200  0.86762400  0.43290800  1
  P  P0  1  0.87865100  0.12687400  0.63312900  1
  P  P1  1  0.37865100  0.87312600  0.86687100  1
  P  P2  1  0.12134900  0.87312600  0.36687100  1
  P  P3  1  0.62134900  0.12687400  0.13312900  1
  P  P4  1  0.89103400  0.62584700  0.76646800  1
  P  P5  1  0.39103400  0.37415300  0.73353200  1
  P  P6  1  0.10896600  0.37415300  0.23353200  1
  P  P7  1  0.60896600  0.62584700  0.26646800  1
  H  H0  1  0.91174000  0.86729100  0.13717000  1
  H  H1  1  0.41174000  0.13270900  0.36283000  1
  H  H2  1  0.08826000  0.13270900  0.86283000  1
  H  H3  1  0.58826000  0.86729100  0.63717000  1
  H  H4  1  0.95999000  0.74808300  0.04345900  1
  H  H5  1  0.45999000  0.25191700  0.45654100  1
  H  H6  1  0.04001000  0.25191700  0.95654100  1
  H  H7  1  0.54001000  0.74808300  0.54345900  1
  H  H8  1  0.85720200  0.42588900  0.57668900  1
  H  H9  1  0.35720200  0.57411100  0.92331100  1
  H  H10  1  0.14279800  0.57411100  0.42331100  1
  H  H11  1  0.64279800  0.42588900  0.07668900  1
  H  H12  1  0.09858200  0.77645800  0.72407300  1
  H  H13  1  0.59858200  0.22354200  0.77592700  1
  H  H14  1  0.90141800  0.22354200  0.27592700  1
  H  H15  1  0.40141800  0.77645800  0.22407300  1
  H  H16  1  0.80089800  0.37753500  0.92031800  1
  H  H17  1  0.30089800  0.62246500  0.57968200  1
  H  H18  1  0.19910200  0.62246500  0.07968200  1
  H  H19  1  0.69910200  0.37753500  0.42031800  1
  O  O0  1  0.89464700  0.84584100  0.03986500  1
  O  O1  1  0.39464700  0.15415900  0.46013500  1
  O  O2  1  0.10535300  0.15415900  0.96013500  1
  O  O3  1  0.60535300  0.84584100  0.53986500  1
  O  O4  1  0.64546000  0.02905600  0.02165200  1
  O  O5  1  0.14546000  0.97094400  0.47834800  1
  O  O6  1  0.35454000  0.97094400  0.97834800  1
  O  O7  1  0.85454000  0.02905600  0.52165200  1
  O  O8  1  0.77826900  0.06856700  0.76982900  1
  O  O9  1  0.27826900  0.93143300  0.73017100  1
  O  O10  1  0.22173100  0.93143300  0.23017100  1
  O  O11  1  0.72173100  0.06856700  0.26982900  1
  O  O12  1  0.78583200  0.71051200  0.84298300  1
  O  O13  1  0.28583200  0.28948800  0.65701700  1
  O  O14  1  0.21416800  0.28948800  0.15701700  1
  O  O15  1  0.71416800  0.71051200  0.34298300  1
  O  O16  1  0.63897100  0.66287700  0.09762700  1
  O  O17  1  0.13897100  0.33712300  0.40237300  1
  O  O18  1  0.36102900  0.33712300  0.90237300  1
  O  O19  1  0.86102900  0.66287700  0.59762700  1
  O  O20  1  0.53686200  0.87872000  0.81868900  1
  O  O21  1  0.03686200  0.12128000  0.68131100  1
  O  O22  1  0.46313800  0.12128000  0.18131100  1
  O  O23  1  0.96313800  0.87872000  0.31868900  1
  O  O24  1  0.83753100  0.33162700  0.53244400  1
  O  O25  1  0.33753100  0.66837300  0.96755600  1
  O  O26  1  0.16246900  0.66837300  0.46755600  1
  O  O27  1  0.66246900  0.33162700  0.03244400  1
  O  O28  1  0.05091600  0.66953400  0.79558000  1
  O  O29  1  0.55091600  0.33046600  0.70442000  1
  O  O30  1  0.94908400  0.33046600  0.20442000  1
  O  O31  1  0.44908400  0.66953400  0.29558000  1
  O  O32  1  0.88870200  0.41501900  0.85331300  1
  O  O33  1  0.38870200  0.58498100  0.64668700  1
  O  O34  1  0.11129800  0.58498100  0.14668700  1
  O  O35  1  0.61129800  0.41501900  0.35331400  1
loop_
_geom_bond_atom_site_label_1
_geom_bond_atom_site_label_2
_geom_bond_distance
_geom_bond_site_symmetry_2
Al0 O4 1.863632 1_566
Al0 O12 1.865619 1_555
Al0 O8 1.886377 1_565
Al0 O16 1.933699 1_556
Al0 O20 1.942176 1_555
Al0 O0 1.956266 1_556
Al1 O5 1.863632 1_545
Al1 O13 1.865619 1_555
Al1 O9 1.886377 1_545
Al1 O17 1.933699 1_555
Al1 O21 1.942176 1_555
Al1 O1 1.956266 1_555
Al2 O6 1.863632 1_544
Al2 O14 1.865619 1_555
Al2 O10 1.886377 1_545
Al2 O18 1.933699 1_554
Al2 O22 1.942176 1_555
Al2 O2 1.956266 1_554
Al3 O7 1.863632 1_565
Al3 O15 1.865619 1_555
Al3 O11 1.886377 1_565
Al3 O19 1.933699 1_555
Al3 O23 1.942176 1_555
Al3 O3 1.956266 1_555
H0 O0 0.993670 1_555
H1 O1 0.993670 1_555
H2 O2 0.993670 1_555
H3 O3 0.993670 1_555
H4 O0 0.981727 1_555
H5 O1 0.981727 1_555
H6 O2 0.981727 1_555
H7 O3 0.981727 1_555
H8 O24 0.992358 1_555
H9 O25 0.992358 1_555
H10 O26 0.992358 1_555
H11 O27 0.992358 1_555
H12 O28 0.986219 1_555
H13 O29 0.986219 1_555
H14 O30 0.986219 1_555
H15 O31 0.986219 1_555
H16 O32 1.012787 1_555
H16 O27 1.625283 1_556
H17 O33 1.012787 1_555
H17 O26 1.625283 1_555
H18 O34 1.012787 1_555
H18 O25 1.625283 1_554
H19 O35 1.012782 1_555
H19 O24 1.625283 1_555
O4 P3 1.518633 1_555
O5 P2 1.518633 1_555
O6 P1 1.518633 1_555
O7 P0 1.518633 1_555
O8 P0 1.520564 1_555
O9 P1 1.520564 1_555
O10 P2 1.520564 1_555
O11 P3 1.520564 1_555
O12 P4 1.507232 1_555
O13 P5 1.507232 1_555
O14 P6 1.507232 1_555
O15 P7 1.507232 1_555
O16 P7 1.523987 1_555
O17 P6 1.523987 1_555
O18 P5 1.523987 1_555
O19 P4 1.523987 1_555
O20 P1 1.544567 1_555
O21 P0 1.544567 1_455
O22 P3 1.544567 1_555
O23 P2 1.544567 1_655
O24 P0 1.618627 1_555
O25 P1 1.618627 1_555
O26 P2 1.618627 1_555
O27 P3 1.618627 1_555
O28 P4 1.582148 1_455
O29 P5 1.582148 1_555
O30 P6 1.582148 1_655
O31 P7 1.582148 1_555
O32 P4 1.589401 1_555
O33 P5 1.589401 1_555
O34 P6 1.589401 1_555
O35 P7 1.589402 1_555
