# generated using pymatgen
data_Mn3(OF2)2
_symmetry_space_group_name_H-M   'P 1'
_cell_length_a   4.83564830
_cell_length_b   4.83564830
_cell_length_c   9.45642215
_cell_angle_alpha   89.93832056
_cell_angle_beta   89.93832056
_cell_angle_gamma   95.60686226
_symmetry_Int_Tables_number   1
_chemical_formula_structural   Mn3(OF2)2
_chemical_formula_sum   'Mn6 O4 F8'
_cell_volume   220.06598945
_cell_formula_units_Z   2
loop_
 _symmetry_equiv_pos_site_id
 _symmetry_equiv_pos_as_xyz
  1  'x, y, z'
loop_
 _atom_site_type_symbol
 _atom_site_label
 _atom_site_symmetry_multiplicity
 _atom_site_fract_x
 _atom_site_fract_y
 _atom_site_fract_z
 _atom_site_occupancy
  Mn  Mn0  1  0.00000000  0.00000000  0.00000000  1
  Mn  Mn1  1  0.02719500  0.02719500  0.33140700  1
  Mn  Mn2  1  0.97280500  0.97280500  0.66859300  1
  Mn  Mn3  1  0.50324700  0.50324700  0.84194300  1
  Mn  Mn4  1  0.49675300  0.49675300  0.15805700  1
  Mn  Mn5  1  0.50000000  0.50000000  0.50000000  1
  O  O0  1  0.69746700  0.69746700  0.00155200  1
  O  O1  1  0.67761100  0.67761100  0.67128700  1
  O  O2  1  0.30253300  0.30253300  0.99844800  1
  O  O3  1  0.32238900  0.32238900  0.32871300  1
  F  F0  1  0.19638600  0.81280000  0.16668000  1
  F  F1  1  0.19489900  0.80510100  0.50000000  1
  F  F2  1  0.18720000  0.80361400  0.83332000  1
  F  F3  1  0.71110100  0.71110100  0.32530400  1
  F  F4  1  0.28889900  0.28889900  0.67469600  1
  F  F5  1  0.81280000  0.19638600  0.16668000  1
  F  F6  1  0.80510100  0.19489900  0.50000000  1
  F  F7  1  0.80361400  0.18720000  0.83332000  1
loop_
_geom_bond_atom_site_label_1
_geom_bond_atom_site_label_2
_geom_bond_distance
_geom_bond_site_symmetry_2
Mn0 O2 1.965280 1_554
Mn0 O0 1.965280 1_445
Mn1 O3 1.917703 1_555
Mn2 O1 1.917703 1_555
Mn3 O0 1.968741 1_556
Mn3 O1 1.970128 1_555
Mn3 O2 1.970820 1_555
Mn4 O2 1.968741 1_554
Mn4 O3 1.970128 1_555
Mn4 O0 1.970820 1_555
Mn5 O1 1.990170 1_555
Mn5 O3 1.990170 1_555
F0 Mn1 2.082591 1_565
F0 Mn0 2.091367 1_565
F0 Mn4 2.210376 1_555
F1 Mn1 2.126521 1_565
F1 Mn2 2.126521 1_455
F1 Mn5 2.186027 1_555
F2 Mn2 2.082591 1_455
F2 Mn0 2.091367 1_566
F2 Mn3 2.210376 1_555
F3 Mn1 2.054244 1_665
F3 Mn4 2.108830 1_555
F3 Mn5 2.145303 1_555
F4 Mn2 2.054244 1_445
F4 Mn3 2.108830 1_555
F4 Mn5 2.145303 1_555
F5 Mn1 2.082591 1_655
F5 Mn0 2.091367 1_655
F5 Mn4 2.210376 1_555
F6 Mn2 2.126521 1_545
F6 Mn1 2.126521 1_655
F6 Mn5 2.186027 1_555
F7 Mn2 2.082591 1_545
F7 Mn0 2.091367 1_656
F7 Mn3 2.210376 1_555
