# generated using pymatgen
data_TmGaO3
_symmetry_space_group_name_H-M   'P 1'
_cell_length_a   5.95572878
_cell_length_b   5.95573263
_cell_length_c   11.59530603
_cell_angle_alpha   90.00002538
_cell_angle_beta   90.00003117
_cell_angle_gamma   120.00003251
_symmetry_Int_Tables_number   1
_chemical_formula_structural   TmGaO3
_chemical_formula_sum   'Tm6 Ga6 O18'
_cell_volume   356.19089172
_cell_formula_units_Z   6
loop_
 _symmetry_equiv_pos_site_id
 _symmetry_equiv_pos_as_xyz
  1  'x, y, z'
loop_
 _atom_site_type_symbol
 _atom_site_label
 _atom_site_symmetry_multiplicity
 _atom_site_fract_x
 _atom_site_fract_y
 _atom_site_fract_z
 _atom_site_occupancy
  Tm  Tm0  1  0.33333208  0.66666839  0.23383344  1
  Tm  Tm1  1  -0.00000129  0.00000138  0.27545976  1
  Tm  Tm2  1  0.00000122  -0.00000143  0.77545876  1
  Tm  Tm3  1  0.33333446  0.66666551  0.73383521  1
  Tm  Tm4  1  0.66666804  0.33333228  0.73383378  1
  Tm  Tm5  1  0.66666562  0.33333513  0.23383398  1
  Ga  Ga0  1  0.00000292  0.66596475  0.50085374  1
  Ga  Ga1  1  -0.00000303  0.33403472  0.00085334  1
  Ga  Ga2  1  0.33404559  0.33404588  0.50085410  1
  Ga  Ga3  1  0.33403496  -0.00000276  0.00085333  1
  Ga  Ga4  1  0.66595812  0.66595768  0.00085364  1
  Ga  Ga5  1  0.66596418  0.00000208  0.50085347  1
  O  O0  1  0.00000094  0.69450390  0.66458031  1
  O  O1  1  -0.00000032  0.63907356  0.33847776  1
  O  O2  1  0.00000030  0.36092708  0.83847890  1
  O  O3  1  -0.00000074  0.30549589  0.16457953  1
  O  O4  1  0.33333164  0.66666491  0.02079344  1
  O  O5  1  0.00000137  0.00000129  0.47744748  1
  O  O6  1  -0.00000190  -0.00000252  0.97744727  1
  O  O7  1  0.33333496  0.66666810  0.52079363  1
  O  O8  1  0.30549645  0.30549526  0.66458041  1
  O  O9  1  0.36092667  0.36092746  0.33847812  1
  O  O10  1  0.30549474  0.00000024  0.16457956  1
  O  O11  1  0.63907180  0.63907095  0.83847895  1
  O  O12  1  0.69450319  0.69450458  0.16457952  1
  O  O13  1  0.36092820  -0.00000061  0.83847899  1
  O  O14  1  0.66666851  0.33333514  0.52079368  1
  O  O15  1  0.66666447  0.33333154  0.02079347  1
  O  O16  1  0.63907289  0.00000076  0.33847797  1
  O  O17  1  0.69450497  -0.00000014  0.66458042  1
loop_
_geom_bond_atom_site_label_1
_geom_bond_atom_site_label_2
_geom_bond_distance
_geom_bond_site_symmetry_2
Ga0 O1 1.889598 1_555
Ga0 O0 1.906054 1_555
Ga0 O7 1.996576 1_555
Ga0 O14 1.996586 1_455
Ga0 O5 2.007864 1_565
Ga1 O2 1.889581 1_554
Ga1 O3 1.906050 1_555
Ga1 O15 1.996580 1_455
Ga1 O4 1.996589 1_555
Ga1 O6 2.007867 1_554
Ga2 O9 1.889594 1_555
Ga2 O8 1.906056 1_555
Ga2 O7 1.996561 1_555
Ga2 O14 1.996564 1_555
Ga2 O5 2.007905 1_555
Ga3 O13 1.889580 1_554
Ga3 O10 1.906051 1_555
Ga3 O4 1.996580 1_545
Ga3 O15 1.996585 1_555
Ga3 O6 2.007861 1_554
Ga4 O11 1.889581 1_554
Ga4 O12 1.906049 1_555
Ga4 O15 1.996572 1_555
Ga4 O4 1.996575 1_555
Ga4 O6 2.007878 1_664
Ga5 O16 1.889593 1_555
Ga5 O17 1.906059 1_555
Ga5 O14 1.996581 1_555
Ga5 O7 1.996584 1_545
Ga5 O5 2.007864 1_655
O0 Tm4 2.223209 1_455
O0 Tm3 2.223216 1_555
O0 Tm2 2.227851 1_565
O1 Tm0 2.261462 1_555
O1 Tm5 2.261463 1_455
O1 Tm1 2.270394 1_565
O2 Tm3 2.261465 1_555
O2 Tm4 2.261465 1_455
O2 Tm2 2.270406 1_555
O3 Tm0 2.223212 1_555
O3 Tm5 2.223219 1_455
O3 Tm1 2.227862 1_555
O4 Tm0 2.470264 1_555
O5 Tm1 2.342109 1_555
O6 Tm2 2.342119 1_555
O7 Tm3 2.470282 1_555
O8 Tm3 2.223209 1_555
O8 Tm4 2.223211 1_555
O8 Tm2 2.227857 1_555
O9 Tm5 2.261461 1_555
O9 Tm0 2.261481 1_555
O9 Tm1 2.270386 1_555
O10 Tm0 2.223201 1_545
O10 Tm5 2.223214 1_555
O10 Tm1 2.227873 1_555
O11 Tm3 2.261455 1_555
O11 Tm4 2.261477 1_555
O11 Tm2 2.270403 1_665
O12 Tm5 2.223205 1_555
O12 Tm0 2.223214 1_555
O12 Tm1 2.227869 1_665
O13 Tm3 2.261468 1_545
O13 Tm4 2.261474 1_555
O13 Tm2 2.270391 1_555
O14 Tm4 2.470265 1_555
O15 Tm5 2.470270 1_555
O16 Tm0 2.261468 1_545
O16 Tm5 2.261475 1_555
O16 Tm1 2.270378 1_655
O17 Tm4 2.223201 1_555
O17 Tm3 2.223214 1_545
O17 Tm2 2.227861 1_655
