# generated using pymatgen
data_LiSiBiO4
_symmetry_space_group_name_H-M   'P 1'
_cell_length_a   5.24969800
_cell_length_b   7.85119300
_cell_length_c   8.65702200
_cell_angle_alpha   90.00000000
_cell_angle_beta   90.00000000
_cell_angle_gamma   90.00000000
_symmetry_Int_Tables_number   1
_chemical_formula_structural   LiSiBiO4
_chemical_formula_sum   'Li4 Si4 Bi4 O16'
_cell_volume   356.81121395
_cell_formula_units_Z   4
loop_
 _symmetry_equiv_pos_site_id
 _symmetry_equiv_pos_as_xyz
  1  'x, y, z'
loop_
 _atom_site_type_symbol
 _atom_site_label
 _atom_site_symmetry_multiplicity
 _atom_site_fract_x
 _atom_site_fract_y
 _atom_site_fract_z
 _atom_site_occupancy
  Li  Li0  1  0.97468100  0.77918300  0.08153900  1
  Li  Li1  1  0.97468100  0.27918300  0.41846100  1
  Li  Li2  1  0.47468100  0.72081700  0.58153900  1
  Li  Li3  1  0.47468100  0.22081700  0.91846100  1
  Si  Si0  1  0.98634700  0.23651500  0.07921700  1
  Si  Si1  1  0.98634700  0.73651500  0.42078300  1
  Si  Si2  1  0.48634700  0.26348500  0.57921700  1
  Si  Si3  1  0.48634700  0.76348500  0.92078300  1
  Bi  Bi0  1  0.45272900  0.47538000  0.27139700  1
  Bi  Bi1  1  0.45272900  0.97538000  0.22860300  1
  Bi  Bi2  1  0.95272900  0.02462000  0.77139700  1
  Bi  Bi3  1  0.95272900  0.52462000  0.72860300  1
  O  O0  1  0.34575100  0.73146400  0.09133300  1
  O  O1  1  0.25912800  0.34331100  0.08074900  1
  O  O2  1  0.07173600  0.03283400  0.08176300  1
  O  O3  1  0.79296700  0.28038000  0.22105100  1
  O  O4  1  0.79296700  0.78038000  0.27894900  1
  O  O5  1  0.07173600  0.53283400  0.41823700  1
  O  O6  1  0.25912800  0.84331100  0.41925100  1
  O  O7  1  0.34575100  0.23146400  0.40866700  1
  O  O8  1  0.84575100  0.76853600  0.59133300  1
  O  O9  1  0.75912800  0.15668900  0.58074900  1
  O  O10  1  0.57173600  0.46716600  0.58176300  1
  O  O11  1  0.29296700  0.21962000  0.72105100  1
  O  O12  1  0.29296700  0.71962000  0.77894900  1
  O  O13  1  0.57173600  0.96716600  0.91823700  1
  O  O14  1  0.75912800  0.65668900  0.91925100  1
  O  O15  1  0.84575100  0.26853600  0.90866700  1
loop_
_geom_bond_atom_site_label_1
_geom_bond_atom_site_label_2
_geom_bond_distance
_geom_bond_site_symmetry_2
Li0 O4 1.957222 1_555
Li0 O0 1.985517 1_655
Li0 O14 2.044318 1_554
Li0 O2 2.055609 1_665
Li1 O3 1.957222 1_555
Li1 O7 1.985517 1_655
Li1 O9 2.044318 1_555
Li1 O5 2.055609 1_655
Li2 O12 1.957222 1_555
Li2 O8 1.985517 1_555
Li2 O6 2.044318 1_555
Li2 O10 2.055609 1_555
Li3 O11 1.957222 1_555
Li3 O15 1.985517 1_555
Li3 O1 2.044318 1_556
Li3 O13 2.055609 1_545
Bi0 O1 2.198201 1_555
Bi0 O7 2.322696 1_555
Bi0 O3 2.392528 1_555
Bi0 O5 2.412428 1_555
Bi0 O0 2.605318 1_555
Bi0 O10 2.759277 1_555
Bi1 O6 2.198201 1_555
Bi1 O0 2.322696 1_555
Bi1 O4 2.392528 1_555
Bi1 O2 2.412428 1_565
Bi1 O7 2.605318 1_565
Bi1 O13 2.759277 1_554
Bi2 O9 2.198201 1_555
Bi2 O15 2.322696 1_555
Bi2 O11 2.392528 1_655
Bi2 O13 2.412428 1_545
Bi2 O8 2.605318 1_545
Bi2 O2 2.759277 1_656
Bi3 O14 2.198201 1_555
Bi3 O8 2.322696 1_555
Bi3 O12 2.392528 1_655
Bi3 O10 2.412428 1_555
Bi3 O15 2.605318 1_555
Bi3 O5 2.759277 1_655
O0 Si3 1.669699 1_554
O1 Si0 1.659486 1_455
O2 Si0 1.660926 1_455
O3 Si0 1.629985 1_555
O4 Si1 1.629985 1_555
O5 Si1 1.660926 1_455
O6 Si1 1.659486 1_455
O7 Si2 1.669699 1_555
O8 Si1 1.669699 1_555
O9 Si2 1.659486 1_555
O10 Si2 1.660926 1_555
O11 Si2 1.629985 1_555
O12 Si3 1.629985 1_555
O13 Si3 1.660926 1_555
O14 Si3 1.659486 1_555
O15 Si0 1.669699 1_556
