# generated using pymatgen
data_LiCoH8(CO5)2
_symmetry_space_group_name_H-M   'P 1'
_cell_length_a   5.39143211
_cell_length_b   5.39143211
_cell_length_c   15.28126709
_cell_angle_alpha   81.55459418
_cell_angle_beta   81.55459418
_cell_angle_gamma   77.73296281
_symmetry_Int_Tables_number   1
_chemical_formula_structural   LiCoH8(CO5)2
_chemical_formula_sum   'Li2 Co2 H16 C4 O20'
_cell_volume   426.25544537
_cell_formula_units_Z   2
loop_
 _symmetry_equiv_pos_site_id
 _symmetry_equiv_pos_as_xyz
  1  'x, y, z'
loop_
 _atom_site_type_symbol
 _atom_site_label
 _atom_site_symmetry_multiplicity
 _atom_site_fract_x
 _atom_site_fract_y
 _atom_site_fract_z
 _atom_site_occupancy
  Li  Li0  1  0.73632500  0.42943900  0.53516500  1
  Li  Li1  1  0.42943900  0.73632500  0.03516500  1
  Co  Co0  1  0.93915000  0.06238000  0.75008500  1
  Co  Co1  1  0.06238000  0.93915000  0.25008500  1
  H  H0  1  0.14467800  0.22783400  0.05588500  1
  H  H1  1  0.16968200  0.13558300  0.45863300  1
  H  H2  1  0.52726200  0.23074900  0.10876500  1
  H  H3  1  0.22783400  0.14467800  0.55588500  1
  H  H4  1  0.61851900  0.27114300  0.38420100  1
  H  H5  1  0.13558300  0.16968200  0.95863300  1
  H  H6  1  0.72698500  0.38251500  0.12435000  1
  H  H7  1  0.81288300  0.44955400  0.37326300  1
  H  H8  1  0.23074900  0.52726200  0.60876500  1
  H  H9  1  0.27114300  0.61851900  0.88420100  1
  H  H10  1  0.89572200  0.82042700  0.04211400  1
  H  H11  1  0.38251500  0.72698500  0.62435000  1
  H  H12  1  0.77409800  0.85782900  0.44585800  1
  H  H13  1  0.44955400  0.81288300  0.87326300  1
  H  H14  1  0.82042700  0.89572200  0.54211400  1
  H  H15  1  0.85782900  0.77409800  0.94585800  1
  C  C0  1  0.51558900  0.04615700  0.71102100  1
  C  C1  1  0.04615700  0.51558900  0.21102100  1
  C  C2  1  0.96126300  0.48406200  0.78685300  1
  C  C3  1  0.48406200  0.96126300  0.28685300  1
  O  O0  1  0.20623800  0.09927700  0.01476500  1
  O  O1  1  0.30368500  0.02024200  0.68626700  1
  O  O2  1  0.02024200  0.30368500  0.18626700  1
  O  O3  1  0.72175200  0.04163200  0.65435200  1
  O  O4  1  0.54278400  0.07318700  0.79158900  1
  O  O5  1  0.09927700  0.20623800  0.51476500  1
  O  O6  1  0.55408800  0.40411500  0.10796000  1
  O  O7  1  0.07318700  0.54278400  0.29158900  1
  O  O8  1  0.66492100  0.40185800  0.41316900  1
  O  O9  1  0.98380500  0.27612500  0.84260100  1
  O  O10  1  0.04163200  0.72175200  0.15435200  1
  O  O11  1  0.40411500  0.55408800  0.60796000  1
  O  O12  1  0.91035400  0.46009400  0.70878500  1
  O  O13  1  0.40185800  0.66492100  0.91316900  1
  O  O14  1  0.82312400  0.76714300  0.50298100  1
  O  O15  1  0.46009400  0.91035400  0.20878500  1
  O  O16  1  0.27612500  0.98380500  0.34260100  1
  O  O17  1  0.99140500  0.69669500  0.80992900  1
  O  O18  1  0.69669500  0.99140500  0.30992900  1
  O  O19  1  0.76714300  0.82312400  0.00298100  1
loop_
_geom_bond_atom_site_label_1
_geom_bond_atom_site_label_2
_geom_bond_distance
_geom_bond_site_symmetry_2
Li0 O14 1.951228 1_555
Li0 O8 1.990557 1_555
Li0 O11 2.004975 1_555
Li0 O5 2.074812 1_655
Li0 O3 2.569865 1_555
Li1 O19 1.951228 1_555
Li1 O13 1.990557 1_554
Li1 O6 2.004975 1_555
Li1 O0 2.074812 1_565
Li1 O10 2.569865 1_555
Co0 O9 2.020178 1_555
Co0 O17 2.028001 1_545
Co0 O3 2.033194 1_555
Co0 O1 2.043938 1_655
Co0 O12 2.123683 1_555
Co0 O4 2.128889 1_555
Co1 O16 2.020178 1_555
Co1 O18 2.028001 1_455
Co1 O10 2.033194 1_555
Co1 O2 2.043938 1_565
Co1 O15 2.123683 1_555
Co1 O7 2.128889 1_555
H0 O0 0.976889 1_555
H1 O5 0.981761 1_555
H2 O6 0.973787 1_555
H3 O5 0.976889 1_555
H4 O8 0.976875 1_555
H5 O0 0.981761 1_556
H6 O6 0.979337 1_555
H7 O8 0.986197 1_555
H8 O11 0.973787 1_555
H9 O13 0.976875 1_555
H10 O19 0.976375 1_555
H11 O11 0.979337 1_555
H12 O14 0.978971 1_555
H13 O13 0.986197 1_555
H14 O14 0.976375 1_555
H15 O19 0.978971 1_556
C0 O4 1.293579 1_555
C0 O1 1.295429 1_555
C0 O3 1.303043 1_555
C1 O7 1.293579 1_555
C1 O2 1.295429 1_555
C1 O10 1.303043 1_555
C2 O12 1.292967 1_555
C2 O17 1.296041 1_555
C2 O9 1.299733 1_555
C3 O15 1.292967 1_555
C3 O18 1.296041 1_555
C3 O16 1.299733 1_555
