# generated using pymatgen
data_Li4Mn3Cu3(TeO8)2
_symmetry_space_group_name_H-M   'P 1'
_cell_length_a   5.97367093
_cell_length_b   5.94139176
_cell_length_c   9.89960721
_cell_angle_alpha   89.99007319
_cell_angle_beta   87.61940938
_cell_angle_gamma   119.78534684
_symmetry_Int_Tables_number   1
_chemical_formula_structural   Li4Mn3Cu3(TeO8)2
_chemical_formula_sum   'Li4 Mn3 Cu3 Te2 O16'
_cell_volume   304.58840074
_cell_formula_units_Z   1
loop_
 _symmetry_equiv_pos_site_id
 _symmetry_equiv_pos_as_xyz
  1  'x, y, z'
loop_
 _atom_site_type_symbol
 _atom_site_label
 _atom_site_symmetry_multiplicity
 _atom_site_fract_x
 _atom_site_fract_y
 _atom_site_fract_z
 _atom_site_occupancy
  Li  Li0  1  0.33578100  0.66790700  0.91782500  1
  Li  Li1  1  0.99570100  0.99781000  0.98412400  1
  Li  Li2  1  0.99905300  0.99956300  0.47789300  1
  Li  Li3  1  0.68261700  0.34125900  0.41140200  1
  Mn  Mn0  1  0.65631300  0.82824500  0.21229300  1
  Mn  Mn1  1  0.83178400  0.66204000  0.71156400  1
  Mn  Mn2  1  0.83179200  0.16974300  0.71158800  1
  Cu  Cu0  1  0.16713500  0.83040100  0.20986200  1
  Cu  Cu1  1  0.16705500  0.33673700  0.20986800  1
  Cu  Cu2  1  0.33943000  0.16970800  0.71063700  1
  Te  Te0  1  0.33857200  0.66942600  0.48038800  1
  Te  Te1  1  0.65977100  0.33009700  0.98322100  1
  O  O0  1  0.16176800  0.82659400  0.58469000  1
  O  O1  1  0.05175100  0.52581500  0.35309000  1
  O  O2  1  0.34068800  0.67027300  0.12162400  1
  O  O3  1  0.98774800  0.99395600  0.28984700  1
  O  O4  1  0.99114200  0.99564300  0.79364100  1
  O  O5  1  0.16170800  0.33516800  0.58471200  1
  O  O6  1  0.50630100  0.97424300  0.35878300  1
  O  O7  1  0.50617100  0.53183500  0.35870700  1
  O  O8  1  0.32105000  0.16061900  0.08340200  1
  O  O9  1  0.64562100  0.82281600  0.59282000  1
  O  O10  1  0.52795900  0.49089900  0.85422000  1
  O  O11  1  0.52798500  0.03696500  0.85422500  1
  O  O12  1  0.68083700  0.34035700  0.61959500  1
  O  O13  1  0.80667400  0.64768600  0.08915100  1
  O  O14  1  0.97069600  0.48537500  0.85941000  1
  O  O15  1  0.80689700  0.15911700  0.08925800  1
loop_
_geom_bond_atom_site_label_1
_geom_bond_atom_site_label_2
_geom_bond_distance
_geom_bond_site_symmetry_2
Li0 O10 1.989996 1_555
Li0 O11 1.990208 1_565
Li0 O14 2.005502 1_455
Li0 O2 2.018910 1_556
Li1 O4 1.886988 1_555
Li1 O8 1.992521 1_666
Li1 O15 2.061679 1_566
Li1 O13 2.061902 1_556
Li2 O3 1.865311 1_555
Li2 O0 2.048439 1_655
Li2 O5 2.049258 1_665
Li2 O9 2.109988 1_555
Li3 O1 1.972261 1_655
Li3 O7 1.973922 1_555
Li3 O6 1.974797 1_545
Li3 O12 2.060607 1_555
Mn0 O2 1.903739 1_555
Mn0 O3 1.915368 1_555
Mn0 O15 2.075694 1_565
Mn0 O13 2.076179 1_555
Mn0 O6 2.079251 1_555
Mn0 O7 2.080529 1_555
Mn1 O12 1.910885 1_555
Mn1 O4 1.919699 1_555
Mn1 O10 2.067720 1_555
Mn1 O0 2.073231 1_655
Mn1 O9 2.166710 1_555
Mn1 O14 2.213191 1_555
Mn2 O12 1.909488 1_555
Mn2 O4 1.917840 1_545
Mn2 O11 2.067414 1_555
Mn2 O5 2.072964 1_655
Mn2 O9 2.167926 1_545
Mn2 O14 2.214181 1_555
Cu0 O2 1.909976 1_555
Cu0 O3 1.919355 1_455
Cu0 O8 2.091231 1_565
Cu0 O1 2.106917 1_555
Cu0 O13 2.266038 1_455
Cu0 O6 2.353097 1_555
Cu1 O2 1.909982 1_555
Cu1 O3 1.919278 1_445
Cu1 O8 2.090381 1_555
Cu1 O1 2.105914 1_555
Cu1 O15 2.264117 1_455
Cu1 O7 2.352457 1_555
Cu2 O12 1.947378 1_555
Cu2 O4 1.947675 1_445
Cu2 O5 2.189512 1_555
Cu2 O0 2.190443 1_545
Cu2 O11 2.219564 1_555
Cu2 O10 2.220175 1_555
O0 Te0 1.985750 1_555
O1 Te0 1.994768 1_555
O5 Te0 1.987697 1_555
O6 Te0 1.956848 1_555
O7 Te0 1.958308 1_555
O8 Te1 1.974946 1_554
O9 Te0 1.985681 1_555
O10 Te1 1.998536 1_555
O11 Te1 2.001459 1_555
O13 Te1 1.965270 1_554
O14 Te1 1.977700 1_555
O15 Te1 1.967135 1_554
