# generated using pymatgen
data_CrH15S2O15
_symmetry_space_group_name_H-M   'P 1'
_cell_length_a   10.57477100
_cell_length_b   7.36364200
_cell_length_c   17.05316173
_cell_angle_alpha   70.83426486
_cell_angle_beta   90.00000000
_cell_angle_gamma   90.00000000
_symmetry_Int_Tables_number   1
_chemical_formula_structural   CrH15S2O15
_chemical_formula_sum   'Cr4 H60 S8 O60'
_cell_volume   1254.30749746
_cell_formula_units_Z   4
loop_
 _symmetry_equiv_pos_site_id
 _symmetry_equiv_pos_as_xyz
  1  'x, y, z'
loop_
 _atom_site_type_symbol
 _atom_site_label
 _atom_site_symmetry_multiplicity
 _atom_site_fract_x
 _atom_site_fract_y
 _atom_site_fract_z
 _atom_site_occupancy
  Cr  Cr0  1  0.32917300  0.10955900  0.13266100  1
  Cr  Cr1  1  0.82917300  0.89044100  0.36733900  1
  Cr  Cr2  1  0.17082700  0.10955900  0.63266100  1
  Cr  Cr3  1  0.67082700  0.89044100  0.86733900  1
  H  H0  1  0.26389400  0.76547400  0.69675800  1
  H  H1  1  0.11139200  0.73929500  0.69855900  1
  H  H2  1  0.71999700  0.52300500  0.94994900  1
  H  H3  1  0.58353100  0.53345200  0.89781400  1
  H  H4  1  0.10872500  0.46672500  0.92957900  1
  H  H5  1  0.24712700  0.22159400  0.25877800  1
  H  H6  1  0.49709300  0.70100700  0.56953000  1
  H  H7  1  0.04082300  0.47106900  0.83822200  1
  H  H8  1  0.85482000  0.97059200  0.50805000  1
  H  H9  1  0.54182700  0.17186500  0.20414500  1
  H  H10  1  0.63273700  0.97541200  0.44132700  1
  H  H11  1  0.54082300  0.52893100  0.66177800  1
  H  H12  1  0.99709300  0.29899300  0.93047000  1
  H  H13  1  0.31740800  0.01261300  0.29407700  1
  H  H14  1  0.39934000  0.24949900  0.97411400  1
  H  H15  1  0.60872500  0.53327500  0.57042100  1
  H  H16  1  0.07032000  0.12698400  0.11821900  1
  H  H17  1  0.57617500  0.10188400  0.12679100  1
  H  H18  1  0.07617500  0.89811600  0.37320900  1
  H  H19  1  0.57032000  0.87301600  0.38178100  1
  H  H20  1  0.89934000  0.75050100  0.52588600  1
  H  H21  1  0.81740800  0.98738700  0.20592300  1
  H  H22  1  0.08353100  0.46654800  0.60218600  1
  H  H23  1  0.21999700  0.47699500  0.55005100  1
  H  H24  1  0.13273700  0.02458800  0.05867300  1
  H  H25  1  0.04182700  0.82813500  0.29585500  1
  H  H26  1  0.61139200  0.26070500  0.80144100  1
  H  H27  1  0.76389400  0.23452600  0.80324200  1
  H  H28  1  0.35482000  0.02940800  0.99195000  1
  H  H29  1  0.25287300  0.22159400  0.75877800  1
  H  H30  1  0.74712700  0.77840600  0.24122200  1
  H  H31  1  0.64518000  0.97059200  0.00805000  1
  H  H32  1  0.23610600  0.76547400  0.19675800  1
  H  H33  1  0.38860800  0.73929500  0.19855900  1
  H  H34  1  0.95817300  0.17186500  0.70414500  1
  H  H35  1  0.86726300  0.97541200  0.94132700  1
  H  H36  1  0.78000300  0.52300500  0.44994900  1
  H  H37  1  0.91646900  0.53345200  0.39781400  1
  H  H38  1  0.18259200  0.01261300  0.79407700  1
  H  H39  1  0.10066000  0.24949900  0.47411400  1
  H  H40  1  0.42968000  0.12698400  0.61821900  1
  H  H41  1  0.92382500  0.10188400  0.62679100  1
  H  H42  1  0.42382500  0.89811600  0.87320900  1
  H  H43  1  0.92968000  0.87301600  0.88178100  1
  H  H44  1  0.39127500  0.46672500  0.42957900  1
  H  H45  1  0.60066000  0.75050100  0.02588600  1
  H  H46  1  0.68259200  0.98738700  0.70592300  1
  H  H47  1  0.00290700  0.70100700  0.06953000  1
  H  H48  1  0.45917700  0.47106900  0.33822200  1
  H  H49  1  0.36726300  0.02458800  0.55867300  1
  H  H50  1  0.45817300  0.82813500  0.79585500  1
  H  H51  1  0.14518000  0.02940800  0.49195000  1
  H  H52  1  0.95917700  0.52893100  0.16177800  1
  H  H53  1  0.50290700  0.29899300  0.43047000  1
  H  H54  1  0.75287300  0.77840600  0.74122200  1
  H  H55  1  0.89127500  0.53327500  0.07042100  1
  H  H56  1  0.41646900  0.46654800  0.10218600  1
  H  H57  1  0.28000300  0.47699500  0.05005100  1
  H  H58  1  0.88860800  0.26070500  0.30144100  1
  H  H59  1  0.73610600  0.23452600  0.30324200  1
  S  S0  1  0.40763000  0.48121300  0.79150900  1
  S  S1  1  0.90763000  0.51878700  0.70849100  1
  S  S2  1  0.82735500  0.20037400  0.04697100  1
  S  S3  1  0.32735500  0.79962600  0.45302900  1
  S  S4  1  0.67264500  0.20037400  0.54697100  1
  S  S5  1  0.17264500  0.79962600  0.95302900  1
  S  S6  1  0.09237000  0.48121300  0.29150900  1
  S  S7  1  0.59237000  0.51878700  0.20849100  1
  O  O0  1  0.18357500  0.82084100  0.66664100  1
  O  O1  1  0.39981900  0.69511700  0.74836000  1
  O  O2  1  0.39715900  0.85129900  0.51920800  1
  O  O3  1  0.33857200  0.39570100  0.09432600  1
  O  O4  1  0.82035700  0.41561900  0.02112800  1
  O  O5  1  0.00530500  0.59685800  0.75376200  1
  O  O6  1  0.78353200  0.60509400  0.71153800  1
  O  O7  1  0.45057900  0.44096300  0.87913600  1
  O  O8  1  0.56802800  0.61412600  0.60205300  1
  O  O9  1  0.06802800  0.38587400  0.89794700  1
  O  O10  1  0.27083800  0.10137800  0.24495500  1
  O  O11  1  0.95057900  0.55903700  0.62086400  1
  O  O12  1  0.88895600  0.87701800  0.48172400  1
  O  O13  1  0.28353200  0.39490600  0.78846200  1
  O  O14  1  0.89679600  0.12823700  0.12698300  1
  O  O15  1  0.51045800  0.09069600  0.16992200  1
  O  O16  1  0.19743300  0.88231100  0.44493300  1
  O  O17  1  0.50530500  0.40314200  0.74623800  1
  O  O18  1  0.14977800  0.12005500  0.08828100  1
  O  O19  1  0.64977800  0.87994500  0.41171900  1
  O  O20  1  0.69743300  0.11768900  0.05506700  1
  O  O21  1  0.01045800  0.90930400  0.33007800  1
  O  O22  1  0.39679600  0.87176300  0.37301700  1
  O  O23  1  0.89715900  0.14870100  0.98079200  1
  O  O24  1  0.38895600  0.12298200  0.01827600  1
  O  O25  1  0.89981900  0.30488300  0.75164000  1
  O  O26  1  0.77083800  0.89862200  0.25504500  1
  O  O27  1  0.16142800  0.39570100  0.59432600  1
  O  O28  1  0.67964300  0.41561900  0.52112800  1
  O  O29  1  0.68357500  0.17915900  0.83335900  1
  O  O30  1  0.31642500  0.82084100  0.16664100  1
  O  O31  1  0.32035700  0.58438100  0.47887200  1
  O  O32  1  0.83857200  0.60429900  0.40567400  1
  O  O33  1  0.22916200  0.10137800  0.74495500  1
  O  O34  1  0.10018100  0.69511700  0.24836000  1
  O  O35  1  0.61104400  0.87701800  0.98172400  1
  O  O36  1  0.10284100  0.85129900  0.01920800  1
  O  O37  1  0.60320400  0.12823700  0.62698300  1
  O  O38  1  0.98954200  0.09069600  0.66992200  1
  O  O39  1  0.30256700  0.88231100  0.94493300  1
  O  O40  1  0.35022200  0.12005500  0.58828100  1
  O  O41  1  0.85022200  0.87994500  0.91171900  1
  O  O42  1  0.49469500  0.59685800  0.25376200  1
  O  O43  1  0.80256700  0.11768900  0.55506700  1
  O  O44  1  0.48954200  0.90930400  0.83007800  1
  O  O45  1  0.10320400  0.87176300  0.87301700  1
  O  O46  1  0.71646800  0.60509400  0.21153800  1
  O  O47  1  0.11104400  0.12298200  0.51827600  1
  O  O48  1  0.04942100  0.44096300  0.37913600  1
  O  O49  1  0.72916200  0.89862200  0.75504500  1
  O  O50  1  0.93197200  0.61412600  0.10205300  1
  O  O51  1  0.43197200  0.38587400  0.39794700  1
  O  O52  1  0.54942100  0.55903700  0.12086400  1
  O  O53  1  0.21646800  0.39490600  0.28846200  1
  O  O54  1  0.99469500  0.40314200  0.24623800  1
  O  O55  1  0.17964300  0.58438100  0.97887200  1
  O  O56  1  0.66142800  0.60429900  0.90567400  1
  O  O57  1  0.60284100  0.14870100  0.48079200  1
  O  O58  1  0.60018100  0.30488300  0.25164000  1
  O  O59  1  0.81642500  0.17915900  0.33335900  1
loop_
_geom_bond_atom_site_label_1
_geom_bond_atom_site_label_2
_geom_bond_distance
_geom_bond_site_symmetry_2
Cr0 O3 1.993102 1_555
Cr0 O10 1.993872 1_555
Cr0 O15 2.010017 1_555
Cr0 O30 2.016183 1_545
Cr0 O24 2.021826 1_555
Cr0 O18 2.034498 1_555
Cr1 O32 1.993102 1_555
Cr1 O26 1.993872 1_555
Cr1 O21 2.010017 1_655
Cr1 O59 2.016183 1_565
Cr1 O12 2.021826 1_555
Cr1 O19 2.034498 1_555
Cr2 O27 1.993102 1_555
Cr2 O33 1.993872 1_555
Cr2 O38 2.010017 1_455
Cr2 O0 2.016183 1_545
Cr2 O47 2.021826 1_555
Cr2 O40 2.034498 1_555
Cr3 O56 1.993102 1_555
Cr3 O49 1.993872 1_555
Cr3 O44 2.010017 1_555
Cr3 O29 2.016183 1_565
Cr3 O35 2.021826 1_555
Cr3 O41 2.034498 1_555
H0 O0 1.006932 1_555
H0 O1 1.676148 1_555
H1 O0 1.012367 1_555
H1 O5 1.611374 1_555
H2 O56 1.007594 1_555
H2 O4 1.610825 1_556
H3 O56 1.007271 1_555
H3 O7 1.638410 1_555
H4 O9 1.020544 1_555
H4 O55 1.580450 1_555
H5 O10 1.019352 1_555
H5 O53 1.553784 1_555
H6 O8 1.023035 1_555
H6 O2 1.566651 1_555
H7 O9 1.046007 1_555
H7 O5 1.482414 1_555
H8 O12 1.004865 1_555
H8 O43 1.640637 1_565
H9 O15 1.018294 1_555
H9 O58 1.586540 1_555
H10 O19 1.007300 1_555
H10 O57 1.656813 1_565
H11 O8 1.046007 1_555
H11 O17 1.482414 1_555
H12 O9 1.023035 1_655
H12 O23 1.566651 1_555
H13 O10 1.005963 1_555
H13 O22 1.635827 1_545
H14 O24 0.993211 1_556
H15 O8 1.020544 1_555
H15 O28 1.580450 1_555
H16 O18 0.993165 1_555
H17 O15 0.995457 1_555
H17 O20 1.749381 1_555
H18 O21 0.995457 1_555
H18 O16 1.749381 1_555
H19 O19 0.993165 1_555
H20 O12 0.993211 1_555
H21 O26 1.005963 1_555
H21 O14 1.635827 1_565
H22 O27 1.007271 1_555
H22 O11 1.638410 1_455
H23 O27 1.007594 1_555
H23 O31 1.610825 1_555
H24 O18 1.007300 1_555
H24 O36 1.656813 1_545
H25 O21 1.018294 1_555
H25 O34 1.586540 1_555
H26 O29 1.012367 1_555
H26 O17 1.611374 1_555
H27 O29 1.006932 1_555
H27 O25 1.676148 1_555
H28 O24 1.004865 1_556
H28 O39 1.640637 1_545
H29 O33 1.019352 1_555
H29 O13 1.553784 1_555
H30 O26 1.019352 1_555
H30 O46 1.553784 1_555
H31 O35 1.004865 1_554
H31 O20 1.640637 1_565
H32 O30 1.006932 1_555
H32 O34 1.676148 1_555
H33 O30 1.012367 1_555
H33 O42 1.611374 1_555
H34 O38 1.018294 1_555
H34 O25 1.586540 1_555
H35 O41 1.007300 1_555
H35 O23 1.656813 1_565
H36 O32 1.007594 1_555
H36 O28 1.610825 1_555
H37 O32 1.007271 1_555
H37 O48 1.638410 1_655
H38 O33 1.005963 1_555
H38 O45 1.635827 1_545
H39 O47 0.993211 1_555
H40 O40 0.993165 1_555
H41 O38 0.995457 1_555
H41 O43 1.749381 1_555
H42 O44 0.995457 1_555
H42 O39 1.749381 1_555
H43 O41 0.993165 1_555
H44 O51 1.020544 1_555
H44 O31 1.580450 1_555
H45 O35 0.993211 1_554
H46 O49 1.005963 1_555
H46 O37 1.635827 1_565
H47 O50 1.023035 1_455
H47 O36 1.566651 1_555
H48 O51 1.046007 1_555
H48 O42 1.482414 1_555
H49 O40 1.007300 1_555
H49 O2 1.656813 1_545
H50 O44 1.018294 1_555
H50 O1 1.586540 1_555
H51 O47 1.004865 1_555
H51 O16 1.640637 1_545
H52 O50 1.046007 1_555
H52 O54 1.482414 1_555
H53 O51 1.023035 1_555
H53 O57 1.566651 1_555
H54 O49 1.019352 1_555
H54 O6 1.553784 1_555
H55 O50 1.020544 1_555
H55 O4 1.580450 1_555
H56 O3 1.007271 1_555
H56 O52 1.638410 1_555
H57 O3 1.007594 1_555
H57 O55 1.610825 1_554
H58 O59 1.012367 1_555
H58 O54 1.611374 1_555
H59 O59 1.006932 1_555
H59 O58 1.676148 1_555
O1 S0 1.506065 1_555
O2 S3 1.498423 1_555
O4 S2 1.501078 1_555
O5 S1 1.511548 1_455
O6 S1 1.466437 1_555
O7 S0 1.495426 1_555
O11 S1 1.495426 1_555
O13 S0 1.466437 1_555
O14 S2 1.485678 1_555
O16 S3 1.490694 1_555
O17 S0 1.511548 1_555
O20 S2 1.490694 1_555
O22 S3 1.485678 1_555
O23 S2 1.498423 1_556
O25 S1 1.506065 1_555
O28 S4 1.501078 1_555
O31 S3 1.501078 1_555
O34 S6 1.506065 1_555
O36 S5 1.498423 1_554
O37 S4 1.485678 1_555
O39 S5 1.490694 1_555
O42 S7 1.511548 1_555
O43 S4 1.490694 1_555
O45 S5 1.485678 1_555
O46 S7 1.466437 1_555
O48 S6 1.495426 1_555
O52 S7 1.495426 1_555
O53 S6 1.466437 1_555
O54 S6 1.511548 1_655
O55 S5 1.501078 1_555
O57 S4 1.498423 1_555
O58 S7 1.506065 1_555
