# generated using pymatgen
data_Li4V3CrO8
_symmetry_space_group_name_H-M   'P 1'
_cell_length_a   5.18463740
_cell_length_b   5.94699905
_cell_length_c   5.94836902
_cell_angle_alpha   119.98527032
_cell_angle_beta   90.01292192
_cell_angle_gamma   73.34443582
_symmetry_Int_Tables_number   1
_chemical_formula_structural   Li4V3CrO8
_chemical_formula_sum   'Li4 V3 Cr1 O8'
_cell_volume   149.91569113
_cell_formula_units_Z   1
loop_
 _symmetry_equiv_pos_site_id
 _symmetry_equiv_pos_as_xyz
  1  'x, y, z'
loop_
 _atom_site_type_symbol
 _atom_site_label
 _atom_site_symmetry_multiplicity
 _atom_site_fract_x
 _atom_site_fract_y
 _atom_site_fract_z
 _atom_site_occupancy
  Li  Li0  1  0.00114400  0.99614400  0.49764900  1
  Li  Li1  1  0.99884500  0.00387300  0.00235400  1
  Li  Li2  1  0.99980700  0.50006400  0.49487100  1
  Li  Li3  1  0.00020100  0.49989600  0.00510800  1
  V  V0  1  0.50000500  0.00003000  0.75002800  1
  V  V1  1  0.50001500  0.00004400  0.25001600  1
  V  V2  1  0.50001800  0.49996900  0.74998000  1
  Cr  Cr0  1  0.50004600  0.49979800  0.24986900  1
  O  O0  1  0.27320800  0.24226700  0.62077500  1
  O  O1  1  0.73053100  0.25622700  0.88077100  1
  O  O2  1  0.27000800  0.24569300  0.12420800  1
  O  O3  1  0.73100700  0.25932600  0.37872100  1
  O  O4  1  0.26942300  0.74384000  0.61929500  1
  O  O5  1  0.72681200  0.75772300  0.87922800  1
  O  O6  1  0.26892900  0.74073700  0.12130200  1
  O  O7  1  0.73000200  0.75436800  0.37582600  1
loop_
_geom_bond_atom_site_label_1
_geom_bond_atom_site_label_2
_geom_bond_distance
_geom_bond_site_symmetry_2
Li0 O4 2.144308 1_555
Li0 O6 2.154060 1_555
Li0 O7 2.164589 1_455
Li0 O3 2.182065 1_465
Li0 O0 2.186317 1_565
Li0 O1 2.188285 1_465
Li1 O1 2.144335 1_554
Li1 O3 2.154264 1_555
Li1 O2 2.164859 1_655
Li1 O6 2.181837 1_645
Li1 O5 2.186293 1_544
Li1 O4 2.187947 1_644
Li2 O2 2.136573 1_655
Li2 O7 2.145388 1_555
Li2 O3 2.150307 1_555
Li2 O4 2.166157 1_655
Li2 O0 2.195919 1_655
Li2 O5 2.198841 1_555
Li3 O7 2.136792 1_455
Li3 O2 2.145206 1_555
Li3 O6 2.150414 1_555
Li3 O1 2.165953 1_454
Li3 O5 2.195915 1_454
Li3 O0 2.198771 1_554
Cr0 O2 2.041683 1_555
Cr0 O7 2.043342 1_555
Cr0 O1 2.043681 1_554
Cr0 O3 2.044518 1_555
Cr0 O4 2.045372 1_555
Cr0 O6 2.045599 1_555
O0 V1 2.043608 1_555
O0 V2 2.043902 1_555
O0 V0 2.045658 1_555
O1 V0 2.052739 1_555
O1 V2 2.066033 1_555
O2 V1 2.051823 1_555
O2 V0 2.064608 1_554
O3 V2 2.054013 1_555
O3 V1 2.067894 1_555
O4 V0 2.052939 1_565
O4 V2 2.066291 1_555
O5 V1 2.043715 1_566
O5 V2 2.044062 1_555
O5 V0 2.045750 1_565
O6 V2 2.054479 1_554
O6 V1 2.068388 1_565
O7 V1 2.051909 1_565
O7 V0 2.064703 1_565
