# generated using pymatgen
data_Li2MnV(P2O7)2
_symmetry_space_group_name_H-M   'P 1'
_cell_length_a   8.30273600
_cell_length_b   7.05997600
_cell_length_c   9.71423845
_cell_angle_alpha   71.13278913
_cell_angle_beta   90.00000000
_cell_angle_gamma   90.00000000
_symmetry_Int_Tables_number   1
_chemical_formula_structural   Li2MnV(P2O7)2
_chemical_formula_sum   'Li4 Mn2 V2 P8 O28'
_cell_volume   538.82600639
_cell_formula_units_Z   2
loop_
 _symmetry_equiv_pos_site_id
 _symmetry_equiv_pos_as_xyz
  1  'x, y, z'
loop_
 _atom_site_type_symbol
 _atom_site_label
 _atom_site_symmetry_multiplicity
 _atom_site_fract_x
 _atom_site_fract_y
 _atom_site_fract_z
 _atom_site_occupancy
  Li  Li0  1  0.86079000  0.67260200  0.66364300  1
  Li  Li1  1  0.36079000  0.32739800  0.33635700  1
  Li  Li2  1  0.85962500  0.67555500  0.16036900  1
  Li  Li3  1  0.35962500  0.32444500  0.83963100  1
  Mn  Mn0  1  0.49790300  0.73041300  0.14355900  1
  Mn  Mn1  1  0.99790300  0.26958700  0.85644100  1
  V  V0  1  0.50025100  0.72698400  0.64295400  1
  V  V1  1  0.00025100  0.27301600  0.35704600  1
  P  P0  1  0.17958300  0.52158000  0.55017100  1
  P  P1  1  0.78471300  0.08670500  0.64388000  1
  P  P2  1  0.28471300  0.91329500  0.35612000  1
  P  P3  1  0.67958300  0.47842000  0.44982900  1
  P  P4  1  0.17826000  0.51755100  0.04964500  1
  P  P5  1  0.78700200  0.08933700  0.14280900  1
  P  P6  1  0.28700200  0.91066300  0.85719100  1
  P  P7  1  0.67826000  0.48244900  0.95035500  1
  O  O0  1  0.32811600  0.84644100  0.72552200  1
  O  O1  1  0.69567700  0.88703700  0.68170000  1
  O  O2  1  0.03704000  0.48094900  0.65651700  1
  O  O3  1  0.34327400  0.50701100  0.62568300  1
  O  O4  1  0.67680400  0.60486800  0.55190800  1
  O  O5  1  0.43377800  0.91442100  0.44817700  1
  O  O6  1  0.15303900  0.75200200  0.45153300  1
  O  O7  1  0.65303900  0.24799800  0.54846700  1
  O  O8  1  0.93377800  0.08557900  0.55182300  1
  O  O9  1  0.17680400  0.39513200  0.44809200  1
  O  O10  1  0.84327400  0.49298900  0.37431700  1
  O  O11  1  0.53704000  0.51905100  0.34348300  1
  O  O12  1  0.32430300  0.85596200  0.22123200  1
  O  O13  1  0.70475800  0.88678700  0.18767300  1
  O  O14  1  0.19567700  0.11296300  0.31830000  1
  O  O15  1  0.82811600  0.15355900  0.27447800  1
  O  O16  1  0.03584100  0.48318500  0.15573300  1
  O  O17  1  0.34034600  0.49356000  0.12615000  1
  O  O18  1  0.67200200  0.60790300  0.05395500  1
  O  O19  1  0.43702300  0.91002200  0.95105000  1
  O  O20  1  0.15545200  0.75068800  0.95176000  1
  O  O21  1  0.65545200  0.24931200  0.04824000  1
  O  O22  1  0.93702300  0.08997800  0.04895000  1
  O  O23  1  0.17200200  0.39209700  0.94604500  1
  O  O24  1  0.84034600  0.50644000  0.87385000  1
  O  O25  1  0.53584100  0.51681500  0.84426700  1
  O  O26  1  0.20475800  0.11321300  0.81232700  1
  O  O27  1  0.82430400  0.14403800  0.77876800  1
loop_
_geom_bond_atom_site_label_1
_geom_bond_atom_site_label_2
_geom_bond_distance
_geom_bond_site_symmetry_2
Li0 O24 2.006357 1_555
Li0 O2 2.009371 1_655
Li0 O4 2.018918 1_555
Li0 O1 2.091355 1_555
Li1 O17 2.006357 1_555
Li1 O11 2.009371 1_555
Li1 O9 2.018918 1_555
Li1 O14 2.091355 1_555
Li2 O16 2.006660 1_655
Li2 O18 2.010656 1_555
Li2 O13 2.050234 1_555
Li2 O10 2.065602 1_555
Li3 O25 2.006660 1_555
Li3 O23 2.010656 1_555
Li3 O26 2.050234 1_555
Li3 O3 2.065602 1_555
Mn0 O19 1.956259 1_554
Mn0 O12 1.965968 1_555
Mn0 O18 2.020424 1_555
Mn0 O11 2.056638 1_555
Mn0 O13 2.158264 1_555
Mn0 O17 2.172311 1_555
Mn1 O22 1.956259 1_556
Mn1 O27 1.965962 1_555
Mn1 O23 2.020424 1_655
Mn1 O2 2.056638 1_655
Mn1 O26 2.158264 1_655
Mn1 O24 2.172311 1_555
O0 P6 1.527476 1_555
O0 V0 1.958235 1_555
O1 P1 1.527620 1_565
O1 V0 2.079977 1_555
O2 P0 1.535749 1_555
O3 P0 1.531983 1_555
O3 V0 2.075374 1_555
O4 P3 1.534054 1_555
O4 V0 2.041435 1_555
O5 P2 1.528443 1_555
O5 V0 2.004108 1_555
O6 P0 1.613990 1_555
O6 P2 1.633514 1_555
O7 P3 1.613990 1_555
O7 P1 1.633514 1_555
O8 P1 1.528443 1_555
O8 V1 2.004108 1_655
O9 P0 1.534054 1_555
O9 V1 2.041435 1_555
O10 P3 1.531983 1_555
O10 V1 2.075374 1_655
O11 P3 1.535749 1_555
O12 P2 1.527052 1_555
O13 P5 1.515932 1_565
O14 P2 1.527620 1_545
O14 V1 2.079977 1_555
O15 P5 1.527476 1_555
O15 V1 1.958235 1_655
O16 P4 1.535397 1_555
O16 V1 2.058311 1_555
O17 P4 1.520088 1_555
O18 P7 1.541588 1_554
O19 P6 1.542775 1_555
O20 P4 1.623862 1_556
O20 P6 1.625253 1_555
O21 P7 1.623862 1_554
O21 P5 1.625253 1_555
O22 P5 1.542775 1_555
O23 P4 1.541588 1_556
O24 P7 1.520088 1_555
O25 P7 1.535397 1_555
O25 V0 2.058311 1_555
O26 P6 1.515932 1_545
O27 P1 1.527054 1_555
