# generated using pymatgen
data_VPO5
_symmetry_space_group_name_H-M   'P 1'
_cell_length_a   6.02499407
_cell_length_b   6.02499407
_cell_length_c   4.31084960
_cell_angle_alpha   90.00000000
_cell_angle_beta   90.00000000
_cell_angle_gamma   90.00000000
_symmetry_Int_Tables_number   1
_chemical_formula_structural   VPO5
_chemical_formula_sum   'V2 P2 O10'
_cell_volume   156.48622675
_cell_formula_units_Z   2
loop_
 _symmetry_equiv_pos_site_id
 _symmetry_equiv_pos_as_xyz
  1  'x, y, z'
loop_
 _atom_site_type_symbol
 _atom_site_label
 _atom_site_symmetry_multiplicity
 _atom_site_fract_x
 _atom_site_fract_y
 _atom_site_fract_z
 _atom_site_occupancy
  V  V0  1  0.00000000  0.50000000  0.20779974  1
  V  V1  1  0.50000000  0.00000000  0.79220026  1
  P  P0  1  0.50000000  0.50000000  0.50000000  1
  P  P1  1  0.00000000  0.00000000  0.50000000  1
  O  O0  1  0.45035946  0.30034549  0.70629468  1
  O  O1  1  0.69965451  0.45035946  0.29370532  1
  O  O2  1  0.00000000  0.50000000  0.83736945  1
  O  O3  1  0.30034549  0.54964054  0.29370532  1
  O  O4  1  0.54964054  0.69965451  0.70629468  1
  O  O5  1  0.95035946  0.80034549  0.29370532  1
  O  O6  1  0.19965451  0.95035946  0.70629468  1
  O  O7  1  0.50000000  0.00000000  0.16263055  1
  O  O8  1  0.80034549  0.04964054  0.70629468  1
  O  O9  1  0.04964054  0.19965451  0.29370532  1
loop_
_geom_bond_atom_site_label_1
_geom_bond_atom_site_label_2
_geom_bond_distance
_geom_bond_site_symmetry_2
O0 P0 1.525557 1_555
O0 V1 1.871142 1_555
O1 P0 1.525557 1_555
O1 V0 1.871142 1_655
O2 V0 1.596869 1_556
O3 P0 1.525557 1_555
O3 V0 1.871142 1_555
O4 P0 1.525557 1_555
O4 V1 1.871142 1_565
O5 P1 1.525557 1_665
O5 V0 1.871142 1_655
O6 P1 1.525557 1_565
O6 V1 1.871142 1_565
O7 V1 1.596869 1_554
O8 P1 1.525557 1_655
O8 V1 1.871142 1_555
O9 P1 1.525557 1_555
O9 V0 1.871142 1_555
