# generated using pymatgen
data_Li5Nb2V5O12
_symmetry_space_group_name_H-M   'P 1'
_cell_length_a   5.24921369
_cell_length_b   5.24921461
_cell_length_c   10.20038434
_cell_angle_alpha   84.60339220
_cell_angle_beta   95.39660196
_cell_angle_gamma   59.16424945
_symmetry_Int_Tables_number   1
_chemical_formula_structural   Li5Nb2V5O12
_chemical_formula_sum   'Li5 Nb2 V5 O12'
_cell_volume   236.91283812
_cell_formula_units_Z   1
loop_
 _symmetry_equiv_pos_site_id
 _symmetry_equiv_pos_as_xyz
  1  'x, y, z'
loop_
 _atom_site_type_symbol
 _atom_site_label
 _atom_site_symmetry_multiplicity
 _atom_site_fract_x
 _atom_site_fract_y
 _atom_site_fract_z
 _atom_site_occupancy
  Li  Li0  1  0.16478500  0.67945400  0.50481700  1
  Li  Li1  1  0.31802400  0.82470700  0.99207000  1
  Li  Li2  1  0.67945400  0.16478500  0.99518300  1
  Li  Li3  1  0.82470700  0.31802400  0.50793000  1
  Li  Li4  1  0.92308700  0.92308700  0.75000000  1
  Nb  Nb0  1  0.25178600  0.25178600  0.75000000  1
  Nb  Nb1  1  0.74329000  0.74329000  0.25000000  1
  V  V0  1  0.99781100  0.50378100  0.99342400  1
  V  V1  1  0.50378100  0.99781100  0.50657600  1
  V  V2  1  0.43125600  0.43125600  0.25000000  1
  V  V3  1  0.58167100  0.58167100  0.75000000  1
  V  V4  1  0.07806300  0.07806300  0.25000000  1
  O  O0  1  0.97479000  0.20304200  0.86976700  1
  O  O1  1  0.20304200  0.97479000  0.63023300  1
  O  O2  1  0.12274900  0.38200100  0.36814100  1
  O  O3  1  0.38200100  0.12274900  0.13185900  1
  O  O4  1  0.29184700  0.53260200  0.86935500  1
  O  O5  1  0.53260200  0.29184700  0.63064500  1
  O  O6  1  0.45728600  0.71038000  0.38244900  1
  O  O7  1  0.71038000  0.45728600  0.11755100  1
  O  O8  1  0.61429400  0.88755100  0.86852400  1
  O  O9  1  0.88755100  0.61429400  0.63147600  1
  O  O10  1  0.79008900  0.03565300  0.37584000  1
  O  O11  1  0.03565300  0.79008900  0.12416000  1
loop_
_geom_bond_atom_site_label_1
_geom_bond_atom_site_label_2
_geom_bond_distance
_geom_bond_site_symmetry_2
Li0 O10 2.091862 1_465
Li0 O6 2.125961 1_555
Li0 O5 2.128462 1_555
Li0 O9 2.164433 1_455
Li0 O1 2.173516 1_555
Li0 O2 2.266072 1_555
Li1 O0 2.046849 1_465
Li1 O4 2.116949 1_555
Li1 O7 2.137172 1_556
Li1 O11 2.156650 1_556
Li1 O8 2.220800 1_555
Li1 O3 2.337039 1_566
Li2 O11 2.091862 1_646
Li2 O7 2.125961 1_556
Li2 O4 2.128462 1_555
Li2 O8 2.164434 1_545
Li2 O0 2.173516 1_555
Li2 O3 2.266071 1_556
Li3 O1 2.046849 1_645
Li3 O5 2.116948 1_555
Li3 O6 2.137172 1_555
Li3 O10 2.156650 1_555
Li3 O9 2.220800 1_555
Li3 O2 2.337038 1_655
Li4 O1 2.099973 1_655
Li4 O0 2.099973 1_565
Li4 O5 2.109600 1_565
Li4 O4 2.109600 1_655
Li4 O8 2.181741 1_555
Li4 O9 2.181742 1_555
Nb0 O9 2.034919 1_455
Nb0 O8 2.034919 1_545
Nb0 O5 2.075210 1_555
Nb0 O4 2.075210 1_555
Nb0 O0 2.080580 1_455
Nb0 O1 2.080580 1_545
Nb1 O2 2.064566 1_655
Nb1 O3 2.064566 1_565
Nb1 O6 2.170832 1_555
Nb1 O7 2.170832 1_555
Nb1 O11 2.181964 1_655
Nb1 O10 2.181964 1_565
O0 V3 2.136707 1_555
O0 V0 2.153871 1_555
O1 V3 2.136707 1_555
O1 V1 2.153871 1_555
O2 V4 2.178254 1_555
O2 V1 2.204430 1_545
O2 V2 2.208914 1_555
O3 V4 2.178253 1_555
O3 V0 2.204430 1_454
O3 V2 2.208914 1_555
O4 V3 2.134056 1_555
O4 V0 2.139522 1_455
O5 V3 2.134057 1_555
O5 V1 2.139522 1_545
O6 V2 2.129217 1_555
O6 V4 2.139613 1_565
O6 V1 2.148914 1_555
O7 V2 2.129217 1_555
O7 V4 2.139613 1_655
O7 V0 2.148914 1_554
O8 V0 2.147422 1_555
O8 V3 2.162659 1_555
O9 V1 2.147422 1_555
O9 V3 2.162659 1_555
O10 V2 2.131155 1_555
O10 V4 2.153716 1_655
O10 V1 2.170189 1_545
O11 V2 2.131155 1_555
O11 V4 2.153716 1_565
O11 V0 2.170190 1_454
