# generated using pymatgen
data_Li4Nb2Cr3Ni3O16
_symmetry_space_group_name_H-M   'P 1'
_cell_length_a   5.92735200
_cell_length_b   5.93446495
_cell_length_c   9.65852779
_cell_angle_alpha   90.26550421
_cell_angle_beta   90.10343885
_cell_angle_gamma   119.77363985
_symmetry_Int_Tables_number   1
_chemical_formula_structural   Li4Nb2Cr3Ni3O16
_chemical_formula_sum   'Li4 Nb2 Cr3 Ni3 O16'
_cell_volume   294.89025719
_cell_formula_units_Z   1
loop_
 _symmetry_equiv_pos_site_id
 _symmetry_equiv_pos_as_xyz
  1  'x, y, z'
loop_
 _atom_site_type_symbol
 _atom_site_label
 _atom_site_symmetry_multiplicity
 _atom_site_fract_x
 _atom_site_fract_y
 _atom_site_fract_z
 _atom_site_occupancy
  Li  Li0  1  0.32204100  0.66158000  0.89903800  1
  Li  Li1  1  0.00702600  0.00196400  0.98976500  1
  Li  Li2  1  0.00293800  0.99898300  0.49467600  1
  Li  Li3  1  0.66747800  0.33803400  0.39955500  1
  Nb  Nb0  1  0.33533100  0.66060000  0.49975400  1
  Nb  Nb1  1  0.68325900  0.34324400  0.99519200  1
  Cr  Cr0  1  0.18659500  0.84015900  0.22122200  1
  Cr  Cr1  1  0.17505200  0.34230200  0.21598400  1
  Cr  Cr2  1  0.34842400  0.17074800  0.72598800  1
  Ni  Ni0  1  0.66183300  0.82967000  0.21178800  1
  Ni  Ni1  1  0.82703900  0.65838200  0.71186500  1
  Ni  Ni2  1  0.82634800  0.16771700  0.71202600  1
  O  O0  1  0.17731900  0.83958600  0.59259200  1
  O  O1  1  0.03928000  0.52383700  0.33948900  1
  O  O2  1  0.30970900  0.66275600  0.10733700  1
  O  O3  1  0.01500200  0.00107400  0.30435700  1
  O  O4  1  0.01537500  0.00707600  0.79862000  1
  O  O5  1  0.17412900  0.33357100  0.59367700  1
  O  O6  1  0.47266900  0.96594000  0.33874200  1
  O  O7  1  0.47541400  0.51682100  0.34030300  1
  O  O8  1  0.33718300  0.16721900  0.09848700  1
  O  O9  1  0.67104300  0.83632100  0.58824600  1
  O  O10  1  0.49896400  0.46522500  0.84629600  1
  O  O11  1  0.49880200  0.03246600  0.84479500  1
  O  O12  1  0.63503700  0.31858400  0.60846600  1
  O  O13  1  0.84342700  0.67280900  0.09312100  1
  O  O14  1  0.95347100  0.47640900  0.84434000  1
  O  O15  1  0.83981000  0.16721900  0.09212100  1
loop_
_geom_bond_atom_site_label_1
_geom_bond_atom_site_label_2
_geom_bond_distance
_geom_bond_site_symmetry_2
Li0 O14 1.966100 1_455
Li0 O10 1.981697 1_555
Li0 O11 1.984708 1_565
Li0 O2 2.013427 1_556
Li1 O4 1.846918 1_555
Li1 O15 1.970128 1_456
Li1 O13 1.973027 1_446
Li1 O8 1.992774 1_556
Li2 O3 1.839580 1_565
Li2 O9 1.935766 1_455
Li2 O0 1.957895 1_555
Li2 O5 1.965825 1_565
Li3 O7 1.988002 1_555
Li3 O1 2.001580 1_655
Li3 O6 2.001898 1_545
Li3 O12 2.025641 1_555
Nb0 O5 1.918376 1_555
Nb0 O9 1.924149 1_555
Nb0 O0 1.947230 1_555
Nb0 O7 2.117857 1_555
Nb0 O1 2.167531 1_555
Nb0 O6 2.220427 1_555
Nb1 O13 1.938200 1_556
Nb1 O15 1.948679 1_556
Nb1 O14 2.018587 1_555
Nb1 O8 2.045328 1_556
Nb1 O10 2.138883 1_555
Nb1 O11 2.161881 1_555
Cr0 O6 1.857144 1_555
Cr0 O3 1.884568 1_565
Cr0 O2 1.898940 1_555
Cr0 O1 1.996675 1_555
Cr0 O8 2.067302 1_565
Cr0 O13 2.151248 1_455
Cr1 O7 1.957950 1_555
Cr1 O3 1.959647 1_555
Cr1 O2 1.966933 1_555
Cr1 O1 2.020845 1_555
Cr1 O8 2.067768 1_555
Cr1 O15 2.094932 1_455
Cr2 O4 1.854623 1_555
Cr2 O12 1.865528 1_555
Cr2 O11 1.875145 1_555
Cr2 O10 1.905042 1_555
Cr2 O0 2.131473 1_545
Cr2 O5 2.152251 1_555
Ni0 O3 2.021449 1_665
Ni0 O7 2.048784 1_555
Ni0 O2 2.070039 1_555
Ni0 O6 2.076295 1_555
Ni0 O13 2.080496 1_555
Ni0 O15 2.094898 1_565
Ni1 O4 1.979068 1_665
Ni1 O12 2.014183 1_555
Ni1 O14 2.044033 1_555
Ni1 O9 2.091180 1_555
Ni1 O10 2.142534 1_555
Ni1 O0 2.144053 1_655
Ni2 O4 1.982047 1_655
Ni2 O12 2.024958 1_555
Ni2 O14 2.039805 1_555
Ni2 O9 2.078626 1_545
Ni2 O5 2.128076 1_655
Ni2 O11 2.128121 1_555
