# generated using pymatgen
data_H3PbS2N3
_symmetry_space_group_name_H-M   'P 1'
_cell_length_a   16.72274900
_cell_length_b   5.89749300
_cell_length_c   6.23977870
_cell_angle_alpha   88.51463578
_cell_angle_beta   90.00000000
_cell_angle_gamma   90.00000000
_symmetry_Int_Tables_number   1
_chemical_formula_structural   H3PbS2N3
_chemical_formula_sum   'H12 Pb4 S8 N12'
_cell_volume   615.17451537
_cell_formula_units_Z   4
loop_
 _symmetry_equiv_pos_site_id
 _symmetry_equiv_pos_as_xyz
  1  'x, y, z'
loop_
 _atom_site_type_symbol
 _atom_site_label
 _atom_site_symmetry_multiplicity
 _atom_site_fract_x
 _atom_site_fract_y
 _atom_site_fract_z
 _atom_site_occupancy
  H  H0  1  0.28123300  0.94399100  0.17480900  1
  H  H1  1  0.78123300  0.55600900  0.82519100  1
  H  H2  1  0.71876700  0.05600900  0.82519100  1
  H  H3  1  0.21876700  0.44399100  0.17480900  1
  H  H4  1  0.34731500  0.14543300  0.21741000  1
  H  H5  1  0.84731500  0.35456700  0.78259000  1
  H  H6  1  0.65268500  0.85456700  0.78259000  1
  H  H7  1  0.15268500  0.64543300  0.21741000  1
  H  H8  1  0.34131900  0.02921800  0.97794700  1
  H  H9  1  0.84131900  0.47078200  0.02205300  1
  H  H10  1  0.65868100  0.97078200  0.02205300  1
  H  H11  1  0.15868100  0.52921800  0.97794700  1
  Pb  Pb0  1  0.44185500  0.68752100  0.22309200  1
  Pb  Pb1  1  0.94185500  0.81247900  0.77690800  1
  Pb  Pb2  1  0.55814500  0.31247900  0.77690800  1
  Pb  Pb3  1  0.05814500  0.18752100  0.22309200  1
  S  S0  1  0.45558600  0.78627000  0.65411800  1
  S  S1  1  0.95558600  0.71373000  0.34588200  1
  S  S2  1  0.54441400  0.21373000  0.34588200  1
  S  S3  1  0.04441400  0.28627000  0.65411800  1
  S  S4  1  0.32555300  0.47576300  0.62036300  1
  S  S5  1  0.82555300  0.02423700  0.37963700  1
  S  S6  1  0.67444700  0.52423700  0.37963700  1
  S  S7  1  0.17444700  0.97576300  0.62036300  1
  N  N0  1  0.38090500  0.62797800  0.76623800  1
  N  N1  1  0.88090500  0.87202200  0.23376200  1
  N  N2  1  0.61909500  0.37202200  0.23376200  1
  N  N3  1  0.11909500  0.12797800  0.76623800  1
  N  N4  1  0.33878000  0.47526200  0.37821100  1
  N  N5  1  0.83878000  0.02473800  0.62178900  1
  N  N6  1  0.66122000  0.52473800  0.62178900  1
  N  N7  1  0.16122000  0.97526200  0.37821100  1
  N  N8  1  0.33849800  0.99600300  0.13899200  1
  N  N9  1  0.83849800  0.50399700  0.86100800  1
  N  N10  1  0.66150200  0.00399700  0.86100800  1
  N  N11  1  0.16150200  0.49600300  0.13899200  1
loop_
_geom_bond_atom_site_label_1
_geom_bond_atom_site_label_2
_geom_bond_distance
_geom_bond_site_symmetry_2
H0 N8 1.028365 1_555
H1 N9 1.028365 1_555
H2 N10 1.028365 1_555
H3 N11 1.028365 1_555
H4 N8 1.029633 1_545
H5 N9 1.029633 1_555
H6 N10 1.029633 1_565
H7 N11 1.029633 1_555
H8 N8 1.019895 1_546
H9 N9 1.019895 1_554
H10 N10 1.019895 1_564
H11 N11 1.019895 1_556
Pb0 S0 2.776064 1_555
Pb1 S1 2.776064 1_555
Pb2 S2 2.776064 1_555
Pb3 S3 2.776064 1_555
N0 S4 1.591704 1_555
N0 S0 1.699040 1_555
N1 S5 1.591704 1_565
N1 S1 1.699040 1_555
N2 S6 1.591704 1_555
N2 S2 1.699040 1_555
N3 S7 1.591704 1_545
N3 S3 1.699040 1_555
N4 S4 1.527158 1_555
N4 Pb0 2.326404 1_555
N5 S5 1.527158 1_555
N5 Pb1 2.326404 1_545
N6 S6 1.527158 1_555
N6 Pb2 2.326404 1_555
N7 S7 1.527158 1_555
N7 Pb3 2.326404 1_565
N8 Pb0 2.554025 1_555
N9 Pb1 2.554025 1_555
N10 Pb2 2.554025 1_555
N11 Pb3 2.554025 1_555
