# generated using pymatgen
data_Fe4O3F5
_symmetry_space_group_name_H-M   'P 1'
_cell_length_a   4.76258500
_cell_length_b   4.77035091
_cell_length_c   12.55993116
_cell_angle_alpha   91.25491314
_cell_angle_beta   90.40889047
_cell_angle_gamma   91.42142101
_symmetry_Int_Tables_number   1
_chemical_formula_structural   Fe4O3F5
_chemical_formula_sum   'Fe8 O6 F10'
_cell_volume   285.18696312
_cell_formula_units_Z   2
loop_
 _symmetry_equiv_pos_site_id
 _symmetry_equiv_pos_as_xyz
  1  'x, y, z'
loop_
 _atom_site_type_symbol
 _atom_site_label
 _atom_site_symmetry_multiplicity
 _atom_site_fract_x
 _atom_site_fract_y
 _atom_site_fract_z
 _atom_site_occupancy
  Fe  Fe0  1  0.00000000  0.00000000  0.00000000  1
  Fe  Fe1  1  0.98307700  0.96506700  0.75932700  1
  Fe  Fe2  1  0.00000000  0.00000000  0.50000000  1
  Fe  Fe3  1  0.01692300  0.03493300  0.24067300  1
  Fe  Fe4  1  0.48069700  0.53939200  0.86567900  1
  Fe  Fe5  1  0.48162700  0.48863100  0.38864800  1
  Fe  Fe6  1  0.51930300  0.46060800  0.13432100  1
  Fe  Fe7  1  0.51837300  0.51136900  0.61135200  1
  O  O0  1  0.81415700  0.19464100  0.12541600  1
  O  O1  1  0.28753200  0.28727800  0.50478100  1
  O  O2  1  0.31697000  0.30778800  0.25245800  1
  O  O3  1  0.68303000  0.69221200  0.74754200  1
  O  O4  1  0.71246800  0.71272200  0.49521900  1
  O  O5  1  0.18584300  0.80535900  0.87458400  1
  F  F0  1  0.78212300  0.21042100  0.86863100  1
  F  F1  1  0.80901300  0.18723900  0.63024400  1
  F  F2  1  0.81144500  0.19398900  0.37132500  1
  F  F3  1  0.31920200  0.32000400  0.99897200  1
  F  F4  1  0.28321000  0.29325600  0.75261100  1
  F  F5  1  0.68079800  0.67999600  0.00102800  1
  F  F6  1  0.71679000  0.70674400  0.24738900  1
  F  F7  1  0.18855500  0.80601100  0.62867500  1
  F  F8  1  0.19098700  0.81276100  0.36975600  1
  F  F9  1  0.21787700  0.78957900  0.13136900  1
loop_
_geom_bond_atom_site_label_1
_geom_bond_atom_site_label_2
_geom_bond_distance
_geom_bond_site_symmetry_2
Fe0 O5 2.030622 1_544
Fe0 O0 2.030622 1_455
Fe1 O3 1.911652 1_555
Fe1 O5 1.916625 1_655
Fe2 O1 1.912854 1_555
Fe2 O4 1.912854 1_445
Fe3 O2 1.911652 1_555
Fe3 O0 1.916625 1_455
Fe4 O5 1.917977 1_555
Fe4 O3 1.922135 1_555
Fe5 O1 1.985259 1_555
Fe5 O4 2.000272 1_555
Fe5 O2 2.041513 1_555
Fe6 O0 1.917977 1_555
Fe6 O2 1.922135 1_555
Fe7 O4 1.985259 1_555
Fe7 O1 2.000272 1_555
Fe7 O3 2.041513 1_555
F0 Fe1 2.043165 1_545
F0 Fe4 2.153720 1_555
F0 Fe0 2.215073 1_656
F1 Fe2 2.073337 1_655
F1 Fe7 2.116754 1_555
F1 Fe1 2.130419 1_545
F2 Fe3 2.057040 1_655
F2 Fe2 2.088238 1_655
F2 Fe5 2.142728 1_555
F3 Fe6 2.035490 1_556
F3 Fe0 2.127807 1_556
F3 Fe4 2.131858 1_555
F4 Fe4 2.033013 1_555
F4 Fe1 2.097102 1_445
F4 Fe7 2.352904 1_555
F5 Fe4 2.035490 1_554
F5 Fe0 2.127807 1_665
F5 Fe6 2.131858 1_555
F6 Fe6 2.033013 1_555
F6 Fe3 2.097102 1_665
F6 Fe5 2.352904 1_555
F7 Fe1 2.057040 1_455
F7 Fe2 2.088238 1_565
F7 Fe7 2.142728 1_555
F8 Fe2 2.073337 1_565
F8 Fe5 2.116754 1_555
F8 Fe3 2.130419 1_565
F9 Fe3 2.043165 1_565
F9 Fe6 2.153720 1_555
F9 Fe0 2.215073 1_565
