# generated using pymatgen
data_Ba2V3P6HO22
_symmetry_space_group_name_H-M   'P 1'
_cell_length_a   4.92131300
_cell_length_b   8.03351312
_cell_length_c   11.48356938
_cell_angle_alpha   88.70220173
_cell_angle_beta   89.22322106
_cell_angle_gamma   87.05730920
_symmetry_Int_Tables_number   1
_chemical_formula_structural   Ba2V3P6HO22
_chemical_formula_sum   'Ba2 V3 P6 H1 O22'
_cell_volume   453.25798453
_cell_formula_units_Z   1
loop_
 _symmetry_equiv_pos_site_id
 _symmetry_equiv_pos_as_xyz
  1  'x, y, z'
loop_
 _atom_site_type_symbol
 _atom_site_label
 _atom_site_symmetry_multiplicity
 _atom_site_fract_x
 _atom_site_fract_y
 _atom_site_fract_z
 _atom_site_occupancy
  Ba  Ba0  1  0.72919200  0.00577900  0.17697300  1
  Ba  Ba1  1  0.27080800  0.99422100  0.82302700  1
  V  V0  1  0.00000000  0.00000000  0.50000000  1
  V  V1  1  0.71761500  0.49427600  0.20299500  1
  V  V2  1  0.28238500  0.50572400  0.79700500  1
  P  P0  1  0.18208500  0.70598100  0.05093200  1
  P  P1  1  0.81791500  0.29401900  0.94906800  1
  P  P2  1  0.23364700  0.30246600  0.34301900  1
  P  P3  1  0.76635300  0.69753400  0.65698100  1
  P  P4  1  0.52783500  0.75653100  0.42561500  1
  P  P5  1  0.47216500  0.24346900  0.57438500  1
  H  H0  1  0.50000000  0.50000000  0.00000000  1
  O  O0  1  0.92091700  0.68129900  0.12474500  1
  O  O1  1  0.07908300  0.31870100  0.87525500  1
  O  O2  1  0.40876100  0.56638500  0.08611700  1
  O  O3  1  0.59123900  0.43361500  0.91388300  1
  O  O4  1  0.26976600  0.88466000  0.07075400  1
  O  O5  1  0.73023400  0.11534000  0.92924600  1
  O  O6  1  0.13590100  0.68189800  0.91955100  1
  O  O7  1  0.86409900  0.31810200  0.08044900  1
  O  O8  1  0.13567300  0.12337200  0.34705900  1
  O  O9  1  0.86432700  0.87662800  0.65294100  1
  O  O10  1  0.01568300  0.43462000  0.31015300  1
  O  O11  1  0.98431700  0.56538000  0.68984700  1
  O  O12  1  0.67697000  0.64608400  0.52811300  1
  O  O13  1  0.32303000  0.35391600  0.47188700  1
  O  O14  1  0.48923900  0.30484600  0.26288900  1
  O  O15  1  0.51076100  0.69515400  0.73711100  1
  O  O16  1  0.69531000  0.91399000  0.40709600  1
  O  O17  1  0.30469000  0.08601000  0.59290400  1
  O  O18  1  0.23604000  0.79713900  0.46464300  1
  O  O19  1  0.76396000  0.20286100  0.53535700  1
  O  O20  1  0.53978100  0.65885400  0.31478000  1
  O  O21  1  0.46021900  0.34114600  0.68522000  1
loop_
_geom_bond_atom_site_label_1
_geom_bond_atom_site_label_2
_geom_bond_distance
_geom_bond_site_symmetry_2
Ba0 O16 2.732666 1_545
Ba0 O0 2.801408 1_545
Ba0 O4 2.810879 1_545
Ba0 O14 2.815081 1_555
Ba0 O7 2.826635 1_555
Ba0 O5 2.958747 1_554
Ba0 O8 3.015399 1_655
Ba0 O4 3.035124 1_645
Ba1 O17 2.732666 1_565
Ba1 O1 2.801408 1_565
Ba1 O5 2.810879 1_565
Ba1 O15 2.815081 1_555
Ba1 O6 2.826635 1_555
Ba1 O4 2.958747 1_556
Ba1 O9 3.015399 1_455
Ba1 O5 3.035124 1_465
H0 O2 1.204689 1_555
H0 O3 1.204689 1_554
O0 P0 1.548802 1_655
O0 V1 2.033386 1_555
O1 P1 1.548802 1_455
O1 V2 2.033386 1_555
O2 P0 1.590152 1_555
O2 V1 2.092129 1_555
O3 P1 1.590152 1_555
O3 V2 2.092129 1_555
O4 P0 1.542563 1_555
O5 P1 1.542563 1_555
O6 P0 1.546729 1_556
O6 V2 2.112132 1_555
O7 P1 1.546729 1_554
O7 V1 2.112132 1_555
O8 P2 1.540208 1_555
O8 V0 2.114244 1_555
O9 P3 1.540208 1_555
O9 V0 2.114244 1_665
O10 P2 1.515285 1_555
O10 V1 1.961058 1_455
O11 P3 1.515285 1_555
O11 V2 1.961058 1_655
O12 P3 1.618134 1_555
O12 P4 1.618831 1_555
O13 P2 1.618134 1_555
O13 P5 1.618831 1_555
O14 P2 1.549053 1_555
O14 V1 2.039440 1_555
O15 P3 1.549053 1_555
O15 V2 2.039440 1_555
O16 P4 1.553940 1_555
O16 V0 2.011768 1_665
O17 P5 1.553940 1_555
O17 V0 2.011768 1_555
O18 P4 1.520033 1_555
O18 V0 1.998230 1_565
O19 P5 1.520033 1_555
O19 V0 1.998230 1_655
O20 P4 1.509186 1_555
O20 V1 2.022242 1_555
O21 P5 1.509186 1_555
O21 V2 2.022242 1_555
