# generated using pymatgen
data_Y4Ga2O9
_symmetry_space_group_name_H-M   'P 1'
_cell_length_a   6.09364400
_cell_length_b   11.10219700
_cell_length_c   11.53046500
_cell_angle_alpha   90.00000000
_cell_angle_beta   90.00000000
_cell_angle_gamma   90.00000000
_symmetry_Int_Tables_number   1
_chemical_formula_structural   Y4Ga2O9
_chemical_formula_sum   'Y16 Ga8 O36'
_cell_volume   780.06865922
_cell_formula_units_Z   4
loop_
 _symmetry_equiv_pos_site_id
 _symmetry_equiv_pos_as_xyz
  1  'x, y, z'
loop_
 _atom_site_type_symbol
 _atom_site_label
 _atom_site_symmetry_multiplicity
 _atom_site_fract_x
 _atom_site_fract_y
 _atom_site_fract_z
 _atom_site_occupancy
  Y  Y0  1  0.74888800  0.08460200  0.00249200  1
  Y  Y1  1  0.25111200  0.58460200  0.00249200  1
  Y  Y2  1  0.27454200  0.28982300  0.14212300  1
  Y  Y3  1  0.72545800  0.78982300  0.14212300  1
  Y  Y4  1  0.77454200  0.28982300  0.35787700  1
  Y  Y5  1  0.22545800  0.78982300  0.35787700  1
  Y  Y6  1  0.24888800  0.08460200  0.49750800  1
  Y  Y7  1  0.75111200  0.58460200  0.49750800  1
  Y  Y8  1  0.24888800  0.41539800  0.50249200  1
  Y  Y9  1  0.75111200  0.91539800  0.50249200  1
  Y  Y10  1  0.77454200  0.21017700  0.64212300  1
  Y  Y11  1  0.22545800  0.71017700  0.64212300  1
  Y  Y12  1  0.27454200  0.21017700  0.85787700  1
  Y  Y13  1  0.72545800  0.71017700  0.85787700  1
  Y  Y14  1  0.25111200  0.91539800  0.99750800  1
  Y  Y15  1  0.74888800  0.41539800  0.99750800  1
  Ga  Ga0  1  0.05972700  0.03735900  0.22518300  1
  Ga  Ga1  1  0.94027300  0.53735900  0.22518300  1
  Ga  Ga2  1  0.44027300  0.53735900  0.27481700  1
  Ga  Ga3  1  0.55972700  0.03735900  0.27481700  1
  Ga  Ga4  1  0.44027300  0.96264100  0.72518300  1
  Ga  Ga5  1  0.55972700  0.46264100  0.72518300  1
  Ga  Ga6  1  0.94027300  0.96264100  0.77481700  1
  Ga  Ga7  1  0.05972700  0.46264100  0.77481700  1
  O  O0  1  0.53338100  0.25000000  0.00000000  1
  O  O1  1  0.46661900  0.75000000  0.00000000  1
  O  O2  1  0.11678100  0.10917800  0.05680800  1
  O  O3  1  0.88321900  0.60917800  0.05680800  1
  O  O4  1  0.45603400  0.46699800  0.11799000  1
  O  O5  1  0.54396600  0.96699800  0.11799000  1
  O  O6  1  0.06463800  0.87332500  0.17396800  1
  O  O7  1  0.93536200  0.37332500  0.17396800  1
  O  O8  1  0.20089700  0.63325900  0.22192800  1
  O  O9  1  0.79910300  0.13325900  0.22192800  1
  O  O10  1  0.70089700  0.63325900  0.27807200  1
  O  O11  1  0.29910300  0.13325900  0.27807200  1
  O  O12  1  0.43536200  0.37332500  0.32603200  1
  O  O13  1  0.56463800  0.87332500  0.32603200  1
  O  O14  1  0.95603400  0.46699800  0.38201000  1
  O  O15  1  0.04396600  0.96699800  0.38201000  1
  O  O16  1  0.38321900  0.60917800  0.44319200  1
  O  O17  1  0.61678100  0.10917800  0.44319200  1
  O  O18  1  0.03338100  0.25000000  0.50000000  1
  O  O19  1  0.96661900  0.75000000  0.50000000  1
  O  O20  1  0.38321900  0.89082200  0.55680800  1
  O  O21  1  0.61678100  0.39082200  0.55680800  1
  O  O22  1  0.04396600  0.53300200  0.61799000  1
  O  O23  1  0.95603400  0.03300200  0.61799000  1
  O  O24  1  0.43536200  0.12667500  0.67396800  1
  O  O25  1  0.56463800  0.62667500  0.67396800  1
  O  O26  1  0.29910300  0.36674100  0.72192800  1
  O  O27  1  0.70089700  0.86674100  0.72192800  1
  O  O28  1  0.20089700  0.86674100  0.77807200  1
  O  O29  1  0.79910300  0.36674100  0.77807200  1
  O  O30  1  0.06463800  0.62667500  0.82603200  1
  O  O31  1  0.93536200  0.12667500  0.82603200  1
  O  O32  1  0.45603400  0.03300200  0.88201000  1
  O  O33  1  0.54396600  0.53300200  0.88201000  1
  O  O34  1  0.88321900  0.89082200  0.94319200  1
  O  O35  1  0.11678100  0.39082200  0.94319200  1
loop_
_geom_bond_atom_site_label_1
_geom_bond_atom_site_label_2
_geom_bond_distance
_geom_bond_site_symmetry_2
Ga0 O11 1.906098 1_555
Ga0 O9 1.912385 1_455
Ga0 O6 1.914724 1_545
Ga0 O15 1.972142 1_545
Ga0 O2 2.127401 1_555
Ga1 O10 1.906098 1_555
Ga1 O8 1.912385 1_655
Ga1 O7 1.914724 1_555
Ga1 O14 1.972142 1_555
Ga1 O3 2.127401 1_555
Ga2 O8 1.906098 1_555
Ga2 O10 1.912385 1_555
Ga2 O12 1.914724 1_555
Ga2 O4 1.972142 1_555
Ga2 O16 2.127401 1_555
Ga3 O9 1.906098 1_555
Ga3 O11 1.912385 1_555
Ga3 O13 1.914724 1_545
Ga3 O5 1.972142 1_545
Ga3 O17 2.127401 1_555
Ga4 O28 1.906098 1_555
Ga4 O27 1.912385 1_555
Ga4 O24 1.914724 1_565
Ga4 O32 1.972142 1_565
Ga4 O20 2.127401 1_555
Ga5 O29 1.906098 1_555
Ga5 O26 1.912385 1_555
Ga5 O25 1.914724 1_555
Ga5 O33 1.972142 1_555
Ga5 O21 2.127401 1_555
Ga6 O27 1.906098 1_555
Ga6 O28 1.912385 1_655
Ga6 O31 1.914724 1_565
Ga6 O23 1.972142 1_565
Ga6 O34 2.127401 1_555
Ga7 O26 1.906098 1_555
Ga7 O29 1.912385 1_455
Ga7 O30 1.914724 1_555
Ga7 O22 1.972142 1_555
Ga7 O35 2.127401 1_555
O0 Y0 2.257722 1_555
O0 Y15 2.257722 1_554
O0 Y12 2.317055 1_554
O0 Y2 2.317055 1_555
O1 Y14 2.257722 1_554
O1 Y1 2.257722 1_555
O1 Y3 2.317055 1_555
O1 Y13 2.317055 1_554
O2 Y0 2.343585 1_455
O2 Y14 2.401255 1_544
O2 Y2 2.431900 1_555
O2 Y12 2.728164 1_554
O3 Y1 2.343585 1_655
O3 Y15 2.401255 1_554
O3 Y3 2.431900 1_555
O3 Y13 2.728164 1_554
O4 Y1 2.244462 1_555
O4 Y2 2.273712 1_555
O4 Y15 2.332962 1_554
O5 Y0 2.244462 1_565
O5 Y3 2.273712 1_555
O5 Y14 2.332962 1_554
O6 Y3 2.294797 1_455
O6 Y14 2.376813 1_554
O6 Y5 2.513275 1_555
O7 Y2 2.294797 1_655
O7 Y15 2.376813 1_554
O7 Y4 2.513275 1_555
O8 Y5 2.345418 1_555
O8 Y1 2.605255 1_555
O9 Y4 2.345418 1_555
O9 Y0 2.605255 1_555
O10 Y3 2.345418 1_555
O10 Y7 2.605255 1_555
O11 Y2 2.345418 1_555
O11 Y6 2.605255 1_555
O12 Y4 2.294797 1_555
O12 Y8 2.376813 1_555
O12 Y2 2.513275 1_555
O13 Y5 2.294797 1_555
O13 Y9 2.376813 1_555
O13 Y3 2.513275 1_555
O14 Y7 2.244462 1_555
O14 Y4 2.273712 1_555
O14 Y8 2.332962 1_655
O15 Y6 2.244462 1_565
O15 Y5 2.273712 1_555
O15 Y9 2.332962 1_455
O16 Y7 2.343585 1_555
O16 Y8 2.401255 1_555
O16 Y5 2.431900 1_555
O16 Y11 2.728164 1_555
O17 Y6 2.343585 1_555
O17 Y9 2.401255 1_545
O17 Y4 2.431900 1_555
O17 Y10 2.728164 1_555
O18 Y8 2.257722 1_555
O18 Y6 2.257722 1_555
O18 Y4 2.317055 1_455
O18 Y10 2.317055 1_455
O19 Y9 2.257722 1_555
O19 Y7 2.257722 1_555
O19 Y5 2.317055 1_655
O19 Y11 2.317055 1_655
O20 Y9 2.343585 1_555
O20 Y6 2.401255 1_565
O20 Y11 2.431900 1_555
O20 Y5 2.728164 1_555
O21 Y8 2.343585 1_555
O21 Y7 2.401255 1_555
O21 Y10 2.431900 1_555
O21 Y4 2.728164 1_555
O22 Y8 2.244462 1_555
O22 Y11 2.273712 1_555
O22 Y7 2.332962 1_455
O23 Y9 2.244462 1_545
O23 Y10 2.273712 1_555
O23 Y6 2.332962 1_655
O24 Y10 2.294797 1_555
O24 Y6 2.376813 1_555
O24 Y12 2.513275 1_555
O25 Y11 2.294797 1_555
O25 Y7 2.376813 1_555
O25 Y13 2.513275 1_555
O26 Y12 2.345418 1_555
O26 Y8 2.605255 1_555
O27 Y13 2.345418 1_555
O27 Y9 2.605255 1_555
O28 Y11 2.345418 1_555
O28 Y14 2.605255 1_555
O29 Y10 2.345418 1_555
O29 Y15 2.605255 1_555
O30 Y13 2.294797 1_455
O30 Y1 2.376813 1_556
O30 Y11 2.513275 1_555
O31 Y12 2.294797 1_655
O31 Y0 2.376813 1_556
O31 Y10 2.513275 1_555
O32 Y14 2.244462 1_545
O32 Y12 2.273712 1_555
O32 Y0 2.332962 1_556
O33 Y15 2.244462 1_555
O33 Y13 2.273712 1_555
O33 Y1 2.332962 1_556
O34 Y14 2.343585 1_655
O34 Y0 2.401255 1_566
O34 Y13 2.431900 1_555
O34 Y3 2.728164 1_556
O35 Y15 2.343585 1_455
O35 Y1 2.401255 1_556
O35 Y12 2.431900 1_555
O35 Y2 2.728164 1_556
