# generated using pymatgen
data_NaTa7O19
_symmetry_space_group_name_H-M   'P 1'
_cell_length_a   3.91482600
_cell_length_b   15.51799900
_cell_length_c   24.01743100
_cell_angle_alpha   90.00000000
_cell_angle_beta   90.00000000
_cell_angle_gamma   90.00000000
_symmetry_Int_Tables_number   1
_chemical_formula_structural   NaTa7O19
_chemical_formula_sum   'Na4 Ta28 O76'
_cell_volume   1459.06532076
_cell_formula_units_Z   4
loop_
 _symmetry_equiv_pos_site_id
 _symmetry_equiv_pos_as_xyz
  1  'x, y, z'
loop_
 _atom_site_type_symbol
 _atom_site_label
 _atom_site_symmetry_multiplicity
 _atom_site_fract_x
 _atom_site_fract_y
 _atom_site_fract_z
 _atom_site_occupancy
  Na  Na0  1  0.50000000  0.78413400  0.14415300  1
  Na  Na1  1  0.50000000  0.21586600  0.85584700  1
  Na  Na2  1  0.50000000  0.28413400  0.35584700  1
  Na  Na3  1  0.50000000  0.71586600  0.64415300  1
  Ta  Ta0  1  0.00000000  0.98655400  0.12314000  1
  Ta  Ta1  1  0.00000000  0.01344600  0.87686000  1
  Ta  Ta2  1  0.00000000  0.48655400  0.37686000  1
  Ta  Ta3  1  0.00000000  0.51344600  0.62314000  1
  Ta  Ta4  1  0.00000000  0.60962600  0.23189500  1
  Ta  Ta5  1  0.00000000  0.39037400  0.76810500  1
  Ta  Ta6  1  0.00000000  0.10962600  0.26810500  1
  Ta  Ta7  1  0.00000000  0.89037400  0.73189500  1
  Ta  Ta8  1  0.00000000  0.86496600  0.26048300  1
  Ta  Ta9  1  0.00000000  0.13503400  0.73951700  1
  Ta  Ta10  1  0.00000000  0.36496600  0.23951700  1
  Ta  Ta11  1  0.00000000  0.63503400  0.76048300  1
  Ta  Ta12  1  0.00000000  0.88985400  0.42287900  1
  Ta  Ta13  1  0.00000000  0.11014600  0.57712100  1
  Ta  Ta14  1  0.00000000  0.38985400  0.07712100  1
  Ta  Ta15  1  0.00000000  0.61014600  0.92287900  1
  Ta  Ta16  1  0.00000000  0.66216800  0.49716500  1
  Ta  Ta17  1  0.00000000  0.33783200  0.50283500  1
  Ta  Ta18  1  0.00000000  0.16216800  0.00283500  1
  Ta  Ta19  1  0.00000000  0.83783200  0.99716500  1
  Ta  Ta20  1  0.00000000  0.70047400  0.35730500  1
  Ta  Ta21  1  0.00000000  0.29952600  0.64269500  1
  Ta  Ta22  1  0.00000000  0.20047400  0.14269500  1
  Ta  Ta23  1  0.00000000  0.79952600  0.85730500  1
  Ta  Ta24  1  0.00000000  0.62784900  0.07990500  1
  Ta  Ta25  1  0.00000000  0.37215100  0.92009500  1
  Ta  Ta26  1  0.00000000  0.12784900  0.42009500  1
  Ta  Ta27  1  0.00000000  0.87215100  0.57990500  1
  O  O0  1  0.50000000  0.97586300  0.12444700  1
  O  O1  1  0.50000000  0.02413700  0.87555300  1
  O  O2  1  0.50000000  0.47586300  0.37555300  1
  O  O3  1  0.50000000  0.52413700  0.62444700  1
  O  O4  1  0.50000000  0.60712000  0.23071800  1
  O  O5  1  0.50000000  0.39288000  0.76928100  1
  O  O6  1  0.50000000  0.10712000  0.26928200  1
  O  O7  1  0.50000000  0.89288000  0.73071900  1
  O  O8  1  0.50000000  0.84944300  0.25350900  1
  O  O9  1  0.50000000  0.15055700  0.74649100  1
  O  O10  1  0.50000000  0.34944300  0.24649100  1
  O  O11  1  0.50000000  0.65055700  0.75350900  1
  O  O12  1  0.50000000  0.88665500  0.42077700  1
  O  O13  1  0.50000000  0.11334500  0.57922300  1
  O  O14  1  0.50000000  0.38665500  0.07922300  1
  O  O15  1  0.50000000  0.61334500  0.92077700  1
  O  O16  1  0.50000000  0.65659900  0.49322300  1
  O  O17  1  0.50000000  0.34340100  0.50677700  1
  O  O18  1  0.50000000  0.15659900  0.00677700  1
  O  O19  1  0.50000000  0.84340100  0.99322300  1
  O  O20  1  0.50000000  0.70017600  0.35629000  1
  O  O21  1  0.50000000  0.29982400  0.64371000  1
  O  O22  1  0.50000000  0.20017600  0.14371000  1
  O  O23  1  0.50000000  0.79982400  0.85629000  1
  O  O24  1  0.50000000  0.63942200  0.08404400  1
  O  O25  1  0.50000000  0.36057800  0.91595600  1
  O  O26  1  0.50000000  0.13942200  0.41595600  1
  O  O27  1  0.50000000  0.86057800  0.58404400  1
  O  O28  1  0.00000000  0.88705100  0.17812500  1
  O  O29  1  0.00000000  0.11294900  0.82187500  1
  O  O30  1  0.00000000  0.38705100  0.32187500  1
  O  O31  1  0.00000000  0.61294900  0.67812500  1
  O  O32  1  0.00000000  0.58058600  0.31685000  1
  O  O33  1  0.00000000  0.41941400  0.68315000  1
  O  O34  1  0.00000000  0.08058600  0.18315000  1
  O  O35  1  0.00000000  0.91941400  0.81685000  1
  O  O36  1  0.00000000  0.60113800  0.41815200  1
  O  O37  1  0.00000000  0.39886200  0.58184800  1
  O  O38  1  0.00000000  0.10113800  0.08184800  1
  O  O39  1  0.00000000  0.89886200  0.91815200  1
  O  O40  1  0.00000000  0.72562800  0.27050500  1
  O  O41  1  0.00000000  0.27437200  0.72949500  1
  O  O42  1  0.00000000  0.22562800  0.22949500  1
  O  O43  1  0.00000000  0.77437200  0.77050500  1
  O  O44  1  0.00000000  0.75711900  0.43562900  1
  O  O45  1  0.00000000  0.24288100  0.56437100  1
  O  O46  1  0.00000000  0.25711900  0.06437100  1
  O  O47  1  0.00000000  0.74288100  0.93562900  1
  O  O48  1  0.00000000  0.83504600  0.34417500  1
  O  O49  1  0.00000000  0.16495400  0.65582500  1
  O  O50  1  0.00000000  0.33504600  0.15582500  1
  O  O51  1  0.00000000  0.66495400  0.84417500  1
  O  O52  1  0.00000000  0.98271700  0.27895000  1
  O  O53  1  0.00000000  0.01728300  0.72105000  1
  O  O54  1  0.00000000  0.48271700  0.22105000  1
  O  O55  1  0.00000000  0.51728300  0.77895000  1
  O  O56  1  0.00000000  0.66818900  0.16063500  1
  O  O57  1  0.00000000  0.33181100  0.83936500  1
  O  O58  1  0.00000000  0.16818900  0.33936500  1
  O  O59  1  0.00000000  0.83181100  0.66063500  1
  O  O60  1  0.00000000  0.75318900  0.05478400  1
  O  O61  1  0.00000000  0.24681100  0.94521600  1
  O  O62  1  0.00000000  0.25318900  0.44521600  1
  O  O63  1  0.00000000  0.74681100  0.55478400  1
  O  O64  1  0.00000000  0.93103700  0.05104300  1
  O  O65  1  0.00000000  0.06896300  0.94895700  1
  O  O66  1  0.00000000  0.43103700  0.44895700  1
  O  O67  1  0.00000000  0.56896300  0.55104300  1
  O  O68  1  0.00000000  0.50792100  0.10149900  1
  O  O69  1  0.00000000  0.49207900  0.89850100  1
  O  O70  1  0.00000000  0.00792100  0.39850100  1
  O  O71  1  0.00000000  0.99207900  0.60149900  1
  O  O72  1  0.00000000  0.90378100  0.50192700  1
  O  O73  1  0.00000000  0.09621900  0.49807300  1
  O  O74  1  0.00000000  0.40378100  0.99807300  1
  O  O75  1  0.00000000  0.59621900  0.00192700  1
loop_
_geom_bond_atom_site_label_1
_geom_bond_atom_site_label_2
_geom_bond_distance
_geom_bond_site_symmetry_2
Na0 O28 2.654771 1_655
Na0 O28 2.654771 1_555
Na0 O24 2.669657 1_555
Na0 O56 2.688013 1_655
Na0 O56 2.688013 1_555
Na0 O8 2.815200 1_555
Na0 O60 2.944343 1_655
Na0 O60 2.944343 1_555
Na0 O0 3.012659 1_555
Na1 O29 2.654771 1_655
Na1 O29 2.654771 1_555
Na1 O25 2.669657 1_555
Na1 O57 2.688013 1_655
Na1 O57 2.688013 1_555
Na1 O9 2.815200 1_555
Na1 O61 2.944343 1_555
Na1 O61 2.944343 1_655
Na1 O1 3.012659 1_555
Na2 O30 2.654771 1_655
Na2 O30 2.654771 1_555
Na2 O26 2.669657 1_555
Na2 O58 2.688013 1_655
Na2 O58 2.688013 1_555
Na2 O10 2.815200 1_555
Na2 O62 2.944343 1_555
Na2 O62 2.944343 1_655
Na2 O2 3.012659 1_555
Na3 O31 2.654771 1_655
Na3 O31 2.654771 1_555
Na3 O27 2.669657 1_555
Na3 O59 2.688013 1_555
Na3 O59 2.688013 1_655
Na3 O11 2.815200 1_555
Na3 O63 2.944343 1_655
Na3 O63 2.944343 1_555
Na3 O3 3.012659 1_555
O0 Ta0 1.964682 1_555
O0 Ta0 1.964682 1_655
O1 Ta1 1.964682 1_555
O1 Ta1 1.964682 1_655
O2 Ta2 1.964682 1_555
O2 Ta2 1.964682 1_655
O3 Ta3 1.964682 1_655
O3 Ta3 1.964682 1_555
O4 Ta4 1.958003 1_655
O4 Ta4 1.958003 1_555
O5 Ta5 1.958003 1_655
O5 Ta5 1.958003 1_555
O6 Ta6 1.958003 1_555
O6 Ta6 1.958003 1_655
O7 Ta7 1.958003 1_655
O7 Ta7 1.958003 1_555
O8 Ta8 1.979279 1_655
O8 Ta8 1.979279 1_555
O9 Ta9 1.979279 1_555
O9 Ta9 1.979279 1_655
O10 Ta10 1.979279 1_555
O10 Ta10 1.979279 1_655
O11 Ta11 1.979279 1_655
O11 Ta11 1.979279 1_555
O12 Ta12 1.958693 1_655
O12 Ta12 1.958693 1_555
O13 Ta13 1.958693 1_555
O13 Ta13 1.958693 1_655
O14 Ta14 1.958693 1_555
O14 Ta14 1.958693 1_655
O15 Ta15 1.958693 1_555
O15 Ta15 1.958693 1_655
O16 Ta16 1.961606 1_655
O16 Ta16 1.961606 1_555
O17 Ta17 1.961606 1_555
O17 Ta17 1.961606 1_655
O18 Ta18 1.961606 1_555
O18 Ta18 1.961606 1_655
O19 Ta19 1.961606 1_655
O19 Ta19 1.961606 1_555
O20 Ta20 1.957570 1_555
O20 Ta20 1.957570 1_655
O21 Ta21 1.957570 1_655
O21 Ta21 1.957570 1_555
O22 Ta22 1.957570 1_655
O22 Ta22 1.957570 1_555
O23 Ta23 1.957570 1_655
O23 Ta23 1.957570 1_555
O24 Ta24 1.968146 1_655
O24 Ta24 1.968146 1_555
O25 Ta25 1.968146 1_655
O25 Ta25 1.968146 1_555
O26 Ta26 1.968146 1_555
O26 Ta26 1.968146 1_655
O27 Ta27 1.968146 1_655
O27 Ta27 1.968146 1_555
O28 Ta8 2.007498 1_555
O28 Ta0 2.031794 1_555
O29 Ta9 2.007498 1_555
O29 Ta1 2.031794 1_555
O30 Ta10 2.007498 1_555
O30 Ta2 2.031794 1_555
O31 Ta11 2.007498 1_555
O31 Ta3 2.031794 1_555
O32 Ta2 2.050984 1_555
O32 Ta4 2.089573 1_555
O32 Ta20 2.098863 1_555
O33 Ta3 2.050984 1_555
O33 Ta5 2.089573 1_555
O33 Ta21 2.098863 1_555
O34 Ta0 2.050984 1_545
O34 Ta6 2.089573 1_555
O34 Ta22 2.098863 1_555
O35 Ta1 2.050984 1_565
O35 Ta7 2.089573 1_555
O35 Ta23 2.098863 1_555
O36 Ta2 2.035980 1_555
O36 Ta16 2.120885 1_555
O36 Ta20 2.124115 1_555
O37 Ta3 2.035980 1_555
O37 Ta17 2.120885 1_555
O37 Ta21 2.124115 1_555
O38 Ta0 2.035980 1_545
O38 Ta18 2.120885 1_555
O38 Ta22 2.124115 1_555
O39 Ta1 2.035980 1_565
O39 Ta19 2.120885 1_555
O39 Ta23 2.124115 1_555
O40 Ta4 2.024929 1_555
O40 Ta20 2.120942 1_555
O40 Ta8 2.175603 1_555
O41 Ta5 2.024929 1_555
O41 Ta21 2.120942 1_555
O41 Ta9 2.175603 1_555
O42 Ta6 2.024929 1_555
O42 Ta22 2.120942 1_555
O42 Ta10 2.175603 1_555
O43 Ta7 2.024929 1_555
O43 Ta23 2.120942 1_555
O43 Ta11 2.175603 1_555
O44 Ta20 2.076382 1_555
O44 Ta12 2.082420 1_555
O44 Ta16 2.086948 1_555
O45 Ta21 2.076382 1_555
O45 Ta13 2.082420 1_555
O45 Ta17 2.086948 1_555
O46 Ta22 2.076382 1_555
O46 Ta14 2.082420 1_555
O46 Ta18 2.086948 1_555
O47 Ta23 2.076382 1_555
O47 Ta15 2.082420 1_555
O47 Ta19 2.086948 1_555
O48 Ta8 2.062993 1_555
O48 Ta12 2.072795 1_555
O48 Ta20 2.111964 1_555
O49 Ta9 2.062993 1_555
O49 Ta13 2.072795 1_555
O49 Ta21 2.111964 1_555
O50 Ta10 2.062993 1_555
O50 Ta14 2.072795 1_555
O50 Ta22 2.111964 1_555
O51 Ta11 2.062993 1_555
O51 Ta15 2.072795 1_555
O51 Ta23 2.111964 1_555
O52 Ta8 1.880318 1_555
O52 Ta6 1.986524 1_565
O53 Ta9 1.880318 1_555
O53 Ta7 1.986524 1_545
O54 Ta10 1.880318 1_555
O54 Ta4 1.986524 1_555
O55 Ta11 1.880318 1_555
O55 Ta5 1.986524 1_555
O56 Ta4 1.937796 1_555
O56 Ta24 2.037476 1_555
O57 Ta5 1.937796 1_555
O57 Ta25 2.037476 1_555
O58 Ta6 1.937796 1_555
O58 Ta26 2.037476 1_555
O59 Ta7 1.937796 1_555
O59 Ta27 2.037476 1_555
O60 Ta19 1.907964 1_554
O60 Ta24 2.036455 1_555
O61 Ta18 1.907964 1_556
O61 Ta25 2.036455 1_555
O62 Ta17 1.907964 1_555
O62 Ta26 2.036455 1_555
O63 Ta16 1.907964 1_555
O63 Ta27 2.036455 1_555
O64 Ta0 1.934060 1_555
O64 Ta19 1.940724 1_554
O65 Ta1 1.934060 1_555
O65 Ta18 1.940724 1_556
O66 Ta2 1.934060 1_555
O66 Ta17 1.940724 1_555
O67 Ta3 1.934060 1_555
O67 Ta16 1.940724 1_555
O68 Ta14 1.923442 1_555
O68 Ta24 1.931957 1_555
O69 Ta15 1.923442 1_555
O69 Ta25 1.931957 1_555
O70 Ta12 1.923442 1_545
O70 Ta26 1.931957 1_555
O71 Ta13 1.923442 1_565
O71 Ta27 1.931957 1_555
O72 Ta12 1.910791 1_555
O72 Ta27 1.936082 1_555
O73 Ta13 1.910791 1_555
O73 Ta26 1.936082 1_555
O74 Ta14 1.910791 1_556
O74 Ta25 1.936082 1_555
O75 Ta15 1.910791 1_554
O75 Ta24 1.936082 1_555
