# generated using pymatgen
data_Li2Cr2(SO4)3
_symmetry_space_group_name_H-M   'P 1'
_cell_length_a   8.11811419
_cell_length_b   8.11811419
_cell_length_c   9.27424514
_cell_angle_alpha   65.45999709
_cell_angle_beta   65.45999709
_cell_angle_gamma   64.49653551
_symmetry_Int_Tables_number   1
_chemical_formula_structural   Li2Cr2(SO4)3
_chemical_formula_sum   'Li4 Cr4 S6 O24'
_cell_volume   480.55119805
_cell_formula_units_Z   2
loop_
 _symmetry_equiv_pos_site_id
 _symmetry_equiv_pos_as_xyz
  1  'x, y, z'
loop_
 _atom_site_type_symbol
 _atom_site_label
 _atom_site_symmetry_multiplicity
 _atom_site_fract_x
 _atom_site_fract_y
 _atom_site_fract_z
 _atom_site_occupancy
  Li  Li0  1  0.67269500  0.86326800  0.04988700  1
  Li  Li1  1  0.86326800  0.67269500  0.54988700  1
  Li  Li2  1  0.13673200  0.32730500  0.45011300  1
  Li  Li3  1  0.32730500  0.13673200  0.95011300  1
  Cr  Cr0  1  0.36651800  0.86795300  0.48012500  1
  Cr  Cr1  1  0.86795300  0.36651800  0.98012500  1
  Cr  Cr2  1  0.13204700  0.63348200  0.01987500  1
  Cr  Cr3  1  0.63348200  0.13204700  0.51987500  1
  S  S0  1  0.75514700  0.54532200  0.32417200  1
  S  S1  1  0.54532200  0.75514700  0.82417200  1
  S  S2  1  0.05358000  0.94642000  0.25000000  1
  S  S3  1  0.94642000  0.05358000  0.75000000  1
  S  S4  1  0.45467800  0.24485300  0.17582800  1
  S  S5  1  0.24485300  0.45467800  0.67582800  1
  O  O0  1  0.86545600  0.95769100  0.38484900  1
  O  O1  1  0.95769100  0.86545600  0.88484900  1
  O  O2  1  0.87025100  0.50330500  0.43086800  1
  O  O3  1  0.61056900  0.73961800  0.31492700  1
  O  O4  1  0.87448200  0.55984100  0.14603900  1
  O  O5  1  0.50330500  0.87025100  0.93086800  1
  O  O6  1  0.20467000  0.90988300  0.31628700  1
  O  O7  1  0.66337300  0.40024500  0.37846400  1
  O  O8  1  0.73961800  0.61056900  0.81492700  1
  O  O9  1  0.55984100  0.87448200  0.64603900  1
  O  O10  1  0.90988300  0.20467000  0.81628700  1
  O  O11  1  0.59975500  0.33662700  0.12153600  1
  O  O12  1  0.40024500  0.66337300  0.87846400  1
  O  O13  1  0.09011700  0.79533000  0.18371300  1
  O  O14  1  0.44015900  0.12551800  0.35396100  1
  O  O15  1  0.26038200  0.38943100  0.18507300  1
  O  O16  1  0.33662700  0.59975500  0.62153600  1
  O  O17  1  0.79533000  0.09011700  0.68371300  1
  O  O18  1  0.49669500  0.12974900  0.06913200  1
  O  O19  1  0.12551800  0.44015900  0.85396100  1
  O  O20  1  0.38943100  0.26038200  0.68507300  1
  O  O21  1  0.12974900  0.49669500  0.56913200  1
  O  O22  1  0.04230900  0.13454400  0.11515100  1
  O  O23  1  0.13454400  0.04230900  0.61515100  1
loop_
_geom_bond_atom_site_label_1
_geom_bond_atom_site_label_2
_geom_bond_distance
_geom_bond_site_symmetry_2
Li0 O18 2.049503 1_565
Li0 O5 2.062600 1_554
Li0 O3 2.158844 1_555
Li0 O1 2.183389 1_554
Li0 O4 2.336732 1_555
Li1 O21 2.049503 1_655
Li1 O2 2.062600 1_555
Li1 O8 2.158844 1_555
Li1 O0 2.183389 1_555
Li1 O9 2.336732 1_555
Li2 O2 2.049503 1_455
Li2 O21 2.062600 1_555
Li2 O15 2.158844 1_555
Li2 O23 2.183389 1_555
Li2 O14 2.336732 1_555
Li3 O5 2.049503 1_545
Li3 O18 2.062600 1_556
Li3 O20 2.158844 1_555
Li3 O22 2.183389 1_556
Li3 O19 2.336732 1_555
Cr0 O23 2.082333 1_565
Cr0 O16 2.082801 1_555
Cr0 O3 2.094042 1_555
Cr0 O14 2.135801 1_565
Cr0 O6 2.234858 1_555
Cr0 O9 2.641761 1_555
Cr1 O22 2.082333 1_656
Cr1 O11 2.082801 1_556
Cr1 O8 2.094042 1_555
Cr1 O19 2.135801 1_655
Cr1 O10 2.234858 1_555
Cr1 O4 2.641761 1_556
Cr2 O1 2.082333 1_454
Cr2 O12 2.082801 1_554
Cr2 O15 2.094042 1_555
Cr2 O4 2.135801 1_455
Cr2 O13 2.234858 1_555
Cr2 O19 2.641761 1_554
Cr3 O0 2.082333 1_545
Cr3 O7 2.082801 1_555
Cr3 O20 2.094042 1_555
Cr3 O9 2.135801 1_545
Cr3 O17 2.234858 1_555
Cr3 O14 2.641761 1_555
O0 S2 1.514265 1_655
O1 S3 1.514265 1_565
O2 S0 1.477120 1_555
O3 S0 1.499966 1_555
O4 S0 1.512888 1_555
O5 S1 1.477120 1_555
O6 S2 1.460127 1_555
O7 S0 1.465301 1_555
O8 S1 1.499966 1_555
O9 S1 1.512888 1_555
O10 S3 1.460127 1_555
O11 S4 1.465301 1_555
O12 S1 1.465301 1_555
O13 S2 1.460127 1_555
O14 S4 1.512888 1_555
O15 S4 1.499966 1_555
O16 S5 1.465301 1_555
O17 S3 1.460127 1_555
O18 S4 1.477120 1_555
O19 S5 1.512888 1_555
O20 S5 1.499966 1_555
O21 S5 1.477120 1_555
O22 S2 1.514265 1_545
O23 S3 1.514265 1_455
