# generated using pymatgen
data_LiV2(OF)3
_symmetry_space_group_name_H-M   'P 1'
_cell_length_a   5.12656200
_cell_length_b   5.14073330
_cell_length_c   13.51899384
_cell_angle_alpha   88.68969890
_cell_angle_beta   88.20719935
_cell_angle_gamma   61.55956387
_symmetry_Int_Tables_number   1
_chemical_formula_structural   LiV2(OF)3
_chemical_formula_sum   'Li3 V6 O9 F9'
_cell_volume   313.11834215
_cell_formula_units_Z   3
loop_
 _symmetry_equiv_pos_site_id
 _symmetry_equiv_pos_as_xyz
  1  'x, y, z'
loop_
 _atom_site_type_symbol
 _atom_site_label
 _atom_site_symmetry_multiplicity
 _atom_site_fract_x
 _atom_site_fract_y
 _atom_site_fract_z
 _atom_site_occupancy
  Li  Li0  1  0.96303100  0.03209900  0.28941400  1
  Li  Li1  1  0.34398100  0.31001000  0.12794100  1
  Li  Li2  1  0.04055700  0.97616700  0.78139800  1
  V  V0  1  0.02983600  0.98579800  0.49922400  1
  V  V1  1  0.98524800  0.97836200  0.00344800  1
  V  V2  1  0.69136600  0.67155200  0.66688300  1
  V  V3  1  0.62053200  0.66602400  0.15311400  1
  V  V4  1  0.40711200  0.31354300  0.82810700  1
  V  V5  1  0.31922200  0.36491300  0.34138500  1
  O  O0  1  0.91673000  0.75926800  0.59207300  1
  O  O1  1  0.71575500  0.93271300  0.08652000  1
  O  O2  1  0.65399000  0.26742100  0.91514200  1
  O  O3  1  0.58183500  0.37818900  0.24864800  1
  O  O4  1  0.41070300  0.59697700  0.74942700  1
  O  O5  1  0.34094500  0.68950900  0.08124200  1
  O  O6  1  0.61996700  0.00174500  0.75688400  1
  O  O7  1  0.24445400  0.69108100  0.42222900  1
  O  O8  1  0.09193800  0.25162800  0.41046700  1
  F  F0  1  0.96665400  0.31879600  0.08652500  1
  F  F1  1  0.74585900  0.33714100  0.57916400  1
  F  F2  1  0.34963400  0.00510700  0.24100200  1
  F  F3  1  0.32880000  0.95317100  0.59160100  1
  F  F4  1  0.67855700  0.07366900  0.41487500  1
  F  F5  1  0.06486800  0.66883500  0.90496200  1
  F  F6  1  0.24034500  0.08347900  0.90837100  1
  F  F7  1  0.98746700  0.62624800  0.25017300  1
  F  F8  1  0.01019000  0.37130300  0.74971800  1
loop_
_geom_bond_atom_site_label_1
_geom_bond_atom_site_label_2
_geom_bond_distance
_geom_bond_site_symmetry_2
Li0 O3 1.999745 1_555
Li0 O8 2.291507 1_655
Li0 O7 2.446988 1_645
Li1 O5 2.029827 1_555
Li1 O1 2.042038 1_545
Li1 O3 2.197804 1_555
Li2 O4 2.012812 1_555
Li2 O6 2.132816 1_465
Li2 O2 2.551803 1_465
O0 V2 1.721407 1_555
O0 V0 1.949029 1_655
O1 V1 1.850602 1_555
O1 V3 1.865989 1_555
O2 V4 1.684367 1_555
O2 V1 2.039446 1_546
O3 V5 1.834931 1_555
O3 V3 2.018171 1_555
O4 V4 1.791146 1_555
O4 V2 1.966686 1_555
O5 V3 1.711728 1_555
O5 V1 2.026246 1_455
O6 V4 1.739515 1_555
O6 V2 1.992604 1_545
O7 V0 1.732669 1_555
O7 V5 1.896923 1_555
O8 V5 1.767026 1_555
O8 V0 1.929800 1_545
F0 Li1 2.010172 1_655
F0 V3 2.025307 1_555
F0 V1 2.063385 1_545
F1 V0 2.008948 1_645
F1 V2 2.013646 1_555
F2 Li0 2.009166 1_455
F2 V3 2.016085 1_545
F2 Li1 2.154953 1_555
F2 V5 2.261441 1_555
F3 V0 1.949900 1_555
F3 V2 2.018525 1_555
F4 V5 2.010388 1_555
F4 V0 2.019292 1_645
F4 Li0 2.148082 1_555
F5 V1 1.978756 1_456
F5 V4 2.101016 1_555
F5 Li2 2.237603 1_555
F6 V4 2.038008 1_555
F6 V1 2.047086 1_446
F6 Li2 2.234144 1_545
F7 V5 2.024130 1_655
F7 Li0 2.108929 1_565
F7 V3 2.253423 1_555
F7 Li1 2.411996 1_655
F8 V2 1.985062 1_455
F8 Li2 1.999244 1_545
F8 V4 2.212883 1_555
