# generated using pymatgen
data_Li3Cr3(CuO6)2
_symmetry_space_group_name_H-M   'P 1'
_cell_length_a   9.17873300
_cell_length_b   8.84222000
_cell_length_c   15.03924376
_cell_angle_alpha   56.61159046
_cell_angle_beta   90.00000000
_cell_angle_gamma   90.00000000
_symmetry_Int_Tables_number   1
_chemical_formula_structural   Li3Cr3(CuO6)2
_chemical_formula_sum   'Li12 Cr12 Cu8 O48'
_cell_volume   1019.14342766
_cell_formula_units_Z   4
loop_
 _symmetry_equiv_pos_site_id
 _symmetry_equiv_pos_as_xyz
  1  'x, y, z'
loop_
 _atom_site_type_symbol
 _atom_site_label
 _atom_site_symmetry_multiplicity
 _atom_site_fract_x
 _atom_site_fract_y
 _atom_site_fract_z
 _atom_site_occupancy
  Li  Li0  1  0.91226300  0.37586500  0.69750000  1
  Li  Li1  1  0.49283000  0.71592500  0.34362100  1
  Li  Li2  1  0.22631000  0.00153000  0.17826100  1
  Li  Li3  1  0.72631000  0.99847000  0.32173900  1
  Li  Li4  1  0.41226300  0.62413500  0.80250000  1
  Li  Li5  1  0.99283000  0.28407500  0.15637900  1
  Li  Li6  1  0.00717000  0.71592500  0.84362100  1
  Li  Li7  1  0.58773700  0.37586500  0.19750000  1
  Li  Li8  1  0.27369000  0.00153000  0.67826100  1
  Li  Li9  1  0.77369000  0.99847000  0.82173900  1
  Li  Li10  1  0.50717000  0.28407500  0.65637900  1
  Li  Li11  1  0.08773700  0.62413500  0.30250000  1
  Cr  Cr0  1  0.75023200  0.55331000  0.49212300  1
  Cr  Cr1  1  0.62361100  0.26312200  0.85288800  1
  Cr  Cr2  1  0.88746500  0.96765200  0.14783800  1
  Cr  Cr3  1  0.12361100  0.73687800  0.64711200  1
  Cr  Cr4  1  0.38746500  0.03234800  0.35216200  1
  Cr  Cr5  1  0.25023200  0.44669000  0.00787700  1
  Cr  Cr6  1  0.74976800  0.55331000  0.99212300  1
  Cr  Cr7  1  0.61253500  0.96765200  0.64783800  1
  Cr  Cr8  1  0.87638900  0.26312200  0.35288800  1
  Cr  Cr9  1  0.11253500  0.03234800  0.85216200  1
  Cr  Cr10  1  0.37638900  0.73687800  0.14711200  1
  Cr  Cr11  1  0.24976800  0.44669000  0.50787700  1
  Cu  Cu0  1  0.97301400  0.35151100  0.89520400  1
  Cu  Cu1  1  0.47301400  0.64848900  0.60479600  1
  Cu  Cu2  1  0.03571000  0.86782300  0.38614700  1
  Cu  Cu3  1  0.53571000  0.13217700  0.11385300  1
  Cu  Cu4  1  0.46429000  0.86782300  0.88614700  1
  Cu  Cu5  1  0.96429000  0.13217700  0.61385300  1
  Cu  Cu6  1  0.52698600  0.35151100  0.39520400  1
  Cu  Cu7  1  0.02698600  0.64848900  0.10479600  1
  O  O0  1  0.12123200  0.60441500  0.44458200  1
  O  O1  1  0.11406400  0.15058500  0.90658800  1
  O  O2  1  0.33492300  0.45554100  0.60355400  1
  O  O3  1  0.41991300  0.86872300  0.19453700  1
  O  O4  1  0.62978500  0.51354100  0.58822500  1
  O  O5  1  0.80771900  0.29049600  0.83570300  1
  O  O6  1  0.58307500  0.15325300  0.98028400  1
  O  O7  1  0.01421400  0.87264600  0.24824000  1
  O  O8  1  0.72304500  0.97470400  0.19589700  1
  O  O9  1  0.82106700  0.76162400  0.43590300  1
  O  O10  1  0.53218100  0.45747300  0.78505100  1
  O  O11  1  0.03218100  0.54252700  0.71494900  1
  O  O12  1  0.94443400  0.18212500  0.06330500  1
  O  O13  1  0.44443400  0.81787500  0.43669500  1
  O  O14  1  0.32106700  0.23837600  0.06409700  1
  O  O15  1  0.22304500  0.02529600  0.30410300  1
  O  O16  1  0.08307500  0.84674700  0.51971600  1
  O  O17  1  0.51421400  0.12735400  0.25176000  1
  O  O18  1  0.30771900  0.70950400  0.66429700  1
  O  O19  1  0.12978500  0.48645900  0.91177500  1
  O  O20  1  0.83492300  0.54445900  0.89644600  1
  O  O21  1  0.61406400  0.84941500  0.59341200  1
  O  O22  1  0.91991300  0.13127700  0.30546300  1
  O  O23  1  0.62123200  0.39558500  0.05541800  1
  O  O24  1  0.37876800  0.60441500  0.94458200  1
  O  O25  1  0.08008700  0.86872300  0.69453700  1
  O  O26  1  0.38593600  0.15058500  0.40658800  1
  O  O27  1  0.16507700  0.45554100  0.10355400  1
  O  O28  1  0.87021500  0.51354100  0.08822500  1
  O  O29  1  0.69228100  0.29049600  0.33570300  1
  O  O30  1  0.48578600  0.87264600  0.74824000  1
  O  O31  1  0.91692500  0.15325300  0.48028400  1
  O  O32  1  0.77695500  0.97470400  0.69589700  1
  O  O33  1  0.67893300  0.76162400  0.93590300  1
  O  O34  1  0.55556600  0.18212500  0.56330500  1
  O  O35  1  0.05556600  0.81787500  0.93669500  1
  O  O36  1  0.96781900  0.45747300  0.28505100  1
  O  O37  1  0.46781900  0.54252700  0.21494900  1
  O  O38  1  0.17893300  0.23837600  0.56409700  1
  O  O39  1  0.27695500  0.02529600  0.80410300  1
  O  O40  1  0.98578600  0.12735400  0.75176000  1
  O  O41  1  0.41692500  0.84674700  0.01971600  1
  O  O42  1  0.19228100  0.70950400  0.16429700  1
  O  O43  1  0.37021500  0.48645900  0.41177500  1
  O  O44  1  0.58008700  0.13127700  0.80546300  1
  O  O45  1  0.66507700  0.54445900  0.39644600  1
  O  O46  1  0.88593600  0.84941500  0.09341200  1
  O  O47  1  0.87876800  0.39558500  0.55541800  1
loop_
_geom_bond_atom_site_label_1
_geom_bond_atom_site_label_2
_geom_bond_distance
_geom_bond_site_symmetry_2
Li0 O11 1.969189 1_655
Li0 O40 1.994060 1_555
Li0 O5 2.020847 1_555
Li0 O47 2.069005 1_555
Li1 O3 1.991565 1_555
Li1 O45 2.025765 1_555
Li1 O43 2.035947 1_555
Li1 O13 2.087608 1_555
Li2 O15 2.016087 1_555
Li2 O14 2.032905 1_555
Li2 O3 2.068909 1_545
Li2 O7 2.208215 1_545
Li3 O8 2.016087 1_555
Li3 O9 2.032905 1_555
Li3 O22 2.068909 1_565
Li3 O17 2.208215 1_565
Li4 O10 1.969189 1_555
Li4 O30 1.994060 1_555
Li4 O18 2.020847 1_555
Li4 O24 2.069005 1_555
Li5 O22 1.991565 1_555
Li5 O27 2.025765 1_655
Li5 O28 2.035947 1_555
Li5 O12 2.087608 1_555
Li6 O25 1.991565 1_555
Li6 O20 2.025765 1_455
Li6 O19 2.035947 1_555
Li6 O35 2.087608 1_555
Li7 O37 1.969189 1_555
Li7 O17 1.994060 1_555
Li7 O29 2.020847 1_555
Li7 O23 2.069005 1_555
Li8 O39 2.016087 1_555
Li8 O38 2.032905 1_555
Li8 O25 2.068909 1_545
Li8 O30 2.208215 1_545
Li9 O32 2.016087 1_555
Li9 O33 2.032905 1_555
Li9 O44 2.068909 1_565
Li9 O40 2.208215 1_565
Li10 O44 1.991565 1_555
Li10 O2 2.025765 1_555
Li10 O4 2.035947 1_555
Li10 O34 2.087608 1_555
Li11 O36 1.969189 1_455
Li11 O7 1.994060 1_555
Li11 O42 2.020847 1_555
Li11 O0 2.069005 1_555
Cr0 O47 1.667908 1_555
Cr0 O45 1.676739 1_555
Cr0 O9 1.678190 1_555
Cr0 O4 1.695706 1_555
Cr1 O6 1.644520 1_555
Cr1 O10 1.663937 1_555
Cr1 O5 1.706523 1_555
Cr1 O44 1.715389 1_555
Cr2 O46 1.644708 1_555
Cr2 O12 1.683011 1_565
Cr2 O8 1.689223 1_555
Cr2 O7 1.715545 1_655
Cr3 O16 1.644520 1_555
Cr3 O11 1.663937 1_555
Cr3 O18 1.706523 1_555
Cr3 O25 1.715389 1_555
Cr4 O26 1.644708 1_555
Cr4 O13 1.683011 1_545
Cr4 O15 1.689223 1_555
Cr4 O17 1.715545 1_555
Cr5 O24 1.667908 1_554
Cr5 O27 1.676739 1_555
Cr5 O14 1.678190 1_555
Cr5 O19 1.695706 1_554
Cr6 O23 1.667908 1_556
Cr6 O20 1.676739 1_555
Cr6 O33 1.678190 1_555
Cr6 O28 1.695706 1_556
Cr7 O21 1.644708 1_555
Cr7 O34 1.683011 1_565
Cr7 O32 1.689223 1_555
Cr7 O30 1.715545 1_555
Cr8 O31 1.644520 1_555
Cr8 O36 1.663937 1_555
Cr8 O29 1.706523 1_555
Cr8 O22 1.715389 1_555
Cr9 O1 1.644708 1_555
Cr9 O35 1.683011 1_545
Cr9 O39 1.689223 1_555
Cr9 O40 1.715545 1_455
Cr10 O41 1.644520 1_555
Cr10 O37 1.663937 1_555
Cr10 O42 1.706523 1_555
Cr10 O3 1.715389 1_555
Cr11 O0 1.667908 1_555
Cr11 O2 1.676739 1_555
Cr11 O38 1.678190 1_555
Cr11 O43 1.695706 1_555
Cu0 O19 1.970743 1_655
Cu0 O5 1.981180 1_555
Cu0 O1 2.127698 1_655
Cu0 O12 2.129773 1_556
Cu0 O20 2.133710 1_555
Cu0 O11 2.336064 1_655
Cu1 O4 1.970743 1_555
Cu1 O18 1.981180 1_555
Cu1 O21 2.127698 1_555
Cu1 O13 2.129773 1_555
Cu1 O2 2.133710 1_555
Cu1 O10 2.336064 1_555
Cu2 O16 1.961352 1_555
Cu2 O7 2.060327 1_555
Cu2 O15 2.127674 1_565
Cu2 O9 2.133036 1_455
Cu2 O0 2.135522 1_555
Cu2 O22 2.217571 1_465
Cu3 O6 1.961352 1_554
Cu3 O17 2.060327 1_555
Cu3 O8 2.127674 1_545
Cu3 O14 2.133036 1_555
Cu3 O23 2.135522 1_555
Cu3 O3 2.217571 1_545
Cu4 O41 1.961352 1_556
Cu4 O30 2.060327 1_555
Cu4 O39 2.127674 1_565
Cu4 O33 2.133036 1_555
Cu4 O24 2.135522 1_555
Cu4 O44 2.217571 1_565
Cu5 O31 1.961352 1_555
Cu5 O40 2.060327 1_555
Cu5 O32 2.127674 1_545
Cu5 O38 2.133036 1_655
Cu5 O47 2.135522 1_555
Cu5 O25 2.217571 1_645
Cu6 O43 1.970743 1_555
Cu6 O29 1.981180 1_555
Cu6 O26 2.127698 1_555
Cu6 O34 2.129773 1_555
Cu6 O45 2.133710 1_555
Cu6 O37 2.336064 1_555
Cu7 O28 1.970743 1_455
Cu7 O42 1.981180 1_555
Cu7 O46 2.127698 1_455
Cu7 O35 2.129773 1_554
Cu7 O27 2.133710 1_555
Cu7 O36 2.336064 1_455
