# generated using pymatgen
data_Li2VOF3
_symmetry_space_group_name_H-M   'P 1'
_cell_length_a   5.01875800
_cell_length_b   5.17862400
_cell_length_c   11.59613300
_cell_angle_alpha   90.00000000
_cell_angle_beta   90.00000000
_cell_angle_gamma   90.00000000
_symmetry_Int_Tables_number   1
_chemical_formula_structural   Li2VOF3
_chemical_formula_sum   'Li8 V4 O4 F12'
_cell_volume   301.38651896
_cell_formula_units_Z   4
loop_
 _symmetry_equiv_pos_site_id
 _symmetry_equiv_pos_as_xyz
  1  'x, y, z'
loop_
 _atom_site_type_symbol
 _atom_site_label
 _atom_site_symmetry_multiplicity
 _atom_site_fract_x
 _atom_site_fract_y
 _atom_site_fract_z
 _atom_site_occupancy
  Li  Li0  1  0.00000000  0.00000000  0.20797400  1
  Li  Li1  1  0.00000000  0.50000000  0.35209100  1
  Li  Li2  1  0.00000000  0.00000000  0.62752400  1
  Li  Li3  1  0.00000000  0.50000000  0.77840000  1
  Li  Li4  1  0.50000000  0.50000000  0.27840000  1
  Li  Li5  1  0.50000000  0.00000000  0.70797400  1
  Li  Li6  1  0.50000000  0.50000000  0.85209100  1
  Li  Li7  1  0.50000000  0.00000000  0.12752400  1
  V  V0  1  0.00000000  0.50000000  0.07152400  1
  V  V1  1  0.00000000  0.00000000  0.94276900  1
  V  V2  1  0.50000000  0.50000000  0.57152400  1
  V  V3  1  0.50000000  0.00000000  0.44276900  1
  O  O0  1  0.79973500  0.17873900  0.06046300  1
  O  O1  1  0.70026500  0.17873900  0.56046300  1
  O  O2  1  0.29973500  0.82126100  0.56046300  1
  O  O3  1  0.20026500  0.82126100  0.06046300  1
  F  F0  1  0.77539600  0.66318700  0.93974300  1
  F  F1  1  0.77769800  0.67175700  0.19741900  1
  F  F2  1  0.78330100  0.17985100  0.81225600  1
  F  F3  1  0.71669900  0.17985100  0.31225600  1
  F  F4  1  0.72230200  0.67175700  0.69741900  1
  F  F5  1  0.72460400  0.66318700  0.43974300  1
  F  F6  1  0.27539600  0.33681300  0.43974300  1
  F  F7  1  0.28330100  0.82014900  0.31225600  1
  F  F8  1  0.27769800  0.32824300  0.69741900  1
  F  F9  1  0.22230200  0.32824300  0.19741900  1
  F  F10  1  0.21669900  0.82014900  0.81225600  1
  F  F11  1  0.22460400  0.33681300  0.93974300  1
loop_
_geom_bond_atom_site_label_1
_geom_bond_atom_site_label_2
_geom_bond_distance
_geom_bond_site_symmetry_2
Li0 O0 2.189286 1_455
Li0 O3 2.189286 1_545
Li2 O2 1.929877 1_545
Li2 O1 1.929877 1_455
Li5 O1 2.189286 1_555
Li5 O2 2.189286 1_545
Li7 O3 1.929877 1_545
Li7 O0 1.929877 1_555
O0 V1 1.931225 1_654
O0 V0 1.947949 1_655
O1 V3 1.931225 1_555
O1 V2 1.947949 1_555
O2 V3 1.931225 1_565
O2 V2 1.947949 1_555
O3 V1 1.931225 1_564
O3 V0 1.947949 1_555
F0 Li6 1.912489 1_555
F0 V1 2.077069 1_665
F0 V0 2.078476 1_656
F0 Li3 2.342070 1_655
F1 Li4 1.901418 1_555
F1 Li0 2.036959 1_665
F1 V0 2.041368 1_655
F1 Li1 2.291916 1_655
F1 Li7 2.342820 1_565
F2 Li3 2.021301 1_655
F2 V1 2.083453 1_655
F2 Li5 2.085993 1_555
F2 Li6 2.232417 1_555
F3 Li4 2.021301 1_555
F3 V3 2.083453 1_555
F3 Li0 2.085993 1_655
F3 Li1 2.232417 1_655
F4 Li3 1.901418 1_655
F4 Li5 2.036959 1_565
F4 V2 2.041368 1_555
F4 Li6 2.291916 1_555
F4 Li2 2.342820 1_665
F5 Li1 1.912489 1_655
F5 V3 2.077069 1_565
F5 V2 2.078476 1_555
F5 Li4 2.342070 1_555
F6 Li1 1.912489 1_555
F6 V3 2.077069 1_555
F6 V2 2.078476 1_555
F6 Li4 2.342070 1_555
F7 Li4 2.021301 1_555
F7 V3 2.083453 1_565
F7 Li0 2.085993 1_565
F7 Li1 2.232417 1_555
F8 Li3 1.901418 1_555
F8 Li5 2.036959 1_555
F8 V2 2.041368 1_555
F8 Li6 2.291916 1_555
F8 Li2 2.342820 1_555
F9 Li4 1.901418 1_555
F9 Li0 2.036959 1_555
F9 V0 2.041368 1_555
F9 Li1 2.291916 1_555
F9 Li7 2.342820 1_555
F10 Li3 2.021301 1_555
F10 V1 2.083453 1_565
F10 Li5 2.085993 1_565
F10 Li6 2.232417 1_555
F11 Li6 1.912489 1_555
F11 V1 2.077069 1_555
F11 V0 2.078476 1_556
F11 Li3 2.342070 1_555
