# generated using pymatgen
data_Li(FeO2)2
_symmetry_space_group_name_H-M   'P 1'
_cell_length_a   8.31305860
_cell_length_b   8.32581125
_cell_length_c   8.31128026
_cell_angle_alpha   89.93491775
_cell_angle_beta   90.15608456
_cell_angle_gamma   89.99764588
_symmetry_Int_Tables_number   1
_chemical_formula_structural   Li(FeO2)2
_chemical_formula_sum   'Li8 Fe16 O32'
_cell_volume   575.24577569
_cell_formula_units_Z   8
loop_
 _symmetry_equiv_pos_site_id
 _symmetry_equiv_pos_as_xyz
  1  'x, y, z'
loop_
 _atom_site_type_symbol
 _atom_site_label
 _atom_site_symmetry_multiplicity
 _atom_site_fract_x
 _atom_site_fract_y
 _atom_site_fract_z
 _atom_site_occupancy
  Li  Li0  1  0.12081800  0.87439200  0.37526300  1
  Li  Li1  1  0.25332200  0.75133400  0.74490600  1
  Li  Li2  1  0.24935500  0.25148400  0.24469400  1
  Li  Li3  1  0.37633700  0.12330600  0.87892500  1
  Li  Li4  1  0.62308900  0.62629100  0.62068100  1
  Li  Li5  1  0.75488900  0.74881600  0.25174500  1
  Li  Li6  1  0.75195300  0.24928000  0.74772800  1
  Li  Li7  1  0.87888600  0.37443700  0.12512000  1
  Fe  Fe0  1  0.99763300  0.50172200  0.49891900  1
  Fe  Fe1  1  0.11979400  0.62013900  0.12268600  1
  Fe  Fe2  1  0.11955900  0.37869200  0.88064700  1
  Fe  Fe3  1  0.12566400  0.12096800  0.62202600  1
  Fe  Fe4  1  0.37372700  0.88129700  0.12395300  1
  Fe  Fe5  1  0.37799900  0.62034100  0.37862100  1
  Fe  Fe6  1  0.37994700  0.37721700  0.62511400  1
  Fe  Fe7  1  0.49710000  0.49755600  0.00382900  1
  Fe  Fe8  1  0.50128100  0.99522800  0.50348200  1
  Fe  Fe9  1  0.62188600  0.87967300  0.87998900  1
  Fe  Fe10  1  0.62269300  0.12225300  0.12350100  1
  Fe  Fe11  1  0.62263000  0.37735900  0.37808300  1
  Fe  Fe12  1  0.87313600  0.62046800  0.87718100  1
  Fe  Fe13  1  0.87663800  0.87932900  0.62102900  1
  Fe  Fe14  1  0.87578400  0.12294400  0.37867100  1
  Fe  Fe15  1  0.99773000  0.00335500  0.00252900  1
  O  O0  1  0.09530200  0.13036000  0.38271600  1
  O  O1  1  0.09723800  0.88662000  0.62704200  1
  O  O2  1  0.12186300  0.61015700  0.89234600  1
  O  O3  1  0.12504600  0.39434000  0.10473500  1
  O  O4  1  0.12185600  0.14417400  0.87197800  1
  O  O5  1  0.12953500  0.36910400  0.63720500  1
  O  O6  1  0.13949700  0.61945500  0.35795700  1
  O  O7  1  0.13450200  0.86152100  0.12041600  1
  O  O8  1  0.36271600  0.13104300  0.61726900  1
  O  O9  1  0.35915800  0.37679400  0.86542100  1
  O  O10  1  0.36064800  0.62967600  0.13862000  1
  O  O11  1  0.38298500  0.85410400  0.36667400  1
  O  O12  1  0.37333600  0.61456400  0.59698400  1
  O  O13  1  0.39041100  0.39025600  0.37867100  1
  O  O14  1  0.40189300  0.11406000  0.12973300  1
  O  O15  1  0.40345200  0.87355400  0.88524300  1
  O  O16  1  0.61529600  0.37523400  0.59904200  1
  O  O17  1  0.60346300  0.60254400  0.36802500  1
  O  O18  1  0.62244800  0.89065900  0.10973100  1
  O  O19  1  0.62837900  0.10572800  0.89779900  1
  O  O20  1  0.62405600  0.35751500  0.13911900  1
  O  O21  1  0.63631900  0.13554300  0.36484100  1
  O  O22  1  0.64173900  0.87806900  0.64499600  1
  O  O23  1  0.63437000  0.63552100  0.88478600  1
  O  O24  1  0.85634600  0.36153000  0.37710000  1
  O  O25  1  0.85847500  0.12196400  0.14336100  1
  O  O26  1  0.86283100  0.87068100  0.86454100  1
  O  O27  1  0.87609000  0.64653300  0.62957200  1
  O  O28  1  0.86842600  0.89777100  0.39656400  1
  O  O29  1  0.87806200  0.11033200  0.60810100  1
  O  O30  1  0.89921400  0.38684000  0.87343400  1
  O  O31  1  0.90319700  0.62594800  0.11673500  1
loop_
_geom_bond_atom_site_label_1
_geom_bond_atom_site_label_2
_geom_bond_distance
_geom_bond_site_symmetry_2
Li0 O1 2.104877 1_555
Li0 O28 2.115072 1_455
Li0 O7 2.124293 1_555
Li0 O6 2.133269 1_555
Li0 O0 2.142645 1_565
Li0 O11 2.187304 1_555
Li1 O12 1.952768 1_555
Li1 O1 1.975440 1_555
Li1 O15 1.987054 1_555
Li1 O2 2.020306 1_555
Li2 O3 1.955984 1_555
Li2 O14 1.959332 1_555
Li2 O13 1.986399 1_555
Li2 O0 1.994608 1_555
Li3 O15 2.092145 1_545
Li3 O14 2.096084 1_556
Li3 O19 2.105751 1_555
Li3 O9 2.118141 1_555
Li3 O4 2.123254 1_555
Li3 O8 2.178214 1_555
Li4 O12 2.087297 1_555
Li4 O16 2.099167 1_555
Li4 O27 2.111060 1_555
Li4 O22 2.111868 1_555
Li4 O17 2.115265 1_555
Li4 O23 2.198229 1_555
Li5 O31 1.958486 1_555
Li5 O28 1.968473 1_555
Li5 O18 1.997408 1_555
Li5 O17 2.001451 1_555
Li6 O29 1.947728 1_555
Li6 O30 1.974278 1_555
Li6 O16 1.976544 1_555
Li6 O19 2.010766 1_555
Li7 O3 2.060470 1_655
Li7 O30 2.101529 1_554
Li7 O31 2.104865 1_555
Li7 O24 2.105773 1_555
Li7 O25 2.114191 1_555
Li7 O20 2.126595 1_555
Fe0 O27 1.913779 1_555
Fe0 O6 1.931125 1_655
Fe0 O5 1.931995 1_655
Fe0 O24 1.939927 1_555
Fe1 O31 1.801774 1_455
Fe1 O3 1.886553 1_555
Fe1 O2 1.916442 1_554
Fe1 O6 1.961808 1_555
Fe1 O10 2.007828 1_555
Fe1 O7 2.013492 1_555
Fe2 O30 1.833808 1_455
Fe2 O3 1.867590 1_556
Fe2 O2 1.929789 1_555
Fe2 O4 1.954058 1_555
Fe2 O9 1.996224 1_555
Fe2 O5 2.026902 1_555
Fe3 O1 1.965813 1_545
Fe3 O8 1.972917 1_555
Fe3 O0 2.005678 1_555
Fe3 O29 2.063177 1_455
Fe3 O5 2.070171 1_555
Fe3 O4 2.086931 1_555
Fe4 O14 1.952674 1_565
Fe4 O7 1.995642 1_555
Fe4 O15 2.001094 1_554
Fe4 O11 2.030982 1_555
Fe4 O18 2.072794 1_555
Fe4 O10 2.101191 1_555
Fe5 O12 1.815978 1_555
Fe5 O17 1.882445 1_555
Fe5 O13 1.918416 1_555
Fe5 O11 1.949133 1_555
Fe5 O6 1.989654 1_555
Fe5 O10 2.000954 1_555
Fe6 O16 1.969091 1_555
Fe6 O12 1.990364 1_555
Fe6 O9 2.005190 1_555
Fe6 O13 2.053089 1_555
Fe6 O8 2.055699 1_555
Fe6 O5 2.085480 1_555
Fe7 O23 1.898478 1_554
Fe7 O9 1.909114 1_554
Fe7 O20 1.930831 1_555
Fe7 O10 1.939430 1_555
Fe8 O8 1.873005 1_565
Fe8 O11 1.907238 1_555
Fe8 O22 1.920427 1_555
Fe8 O21 1.989174 1_565
Fe9 O15 1.817214 1_555
Fe9 O19 1.888833 1_565
Fe9 O18 1.911736 1_556
Fe9 O22 1.960562 1_555
Fe9 O26 2.008848 1_555
Fe9 O23 2.035746 1_555
Fe10 O14 1.837662 1_555
Fe10 O19 1.881789 1_554
Fe10 O18 1.931732 1_545
Fe10 O20 1.963222 1_555
Fe10 O25 1.966560 1_555
Fe10 O21 2.011903 1_555
Fe11 O16 1.837695 1_555
Fe11 O17 1.883342 1_555
Fe11 O13 1.933450 1_555
Fe11 O24 1.947394 1_555
Fe11 O20 1.993211 1_555
Fe11 O21 2.019666 1_555
Fe12 O30 1.957469 1_555
Fe12 O23 1.990004 1_555
Fe12 O31 2.006517 1_556
Fe12 O27 2.069325 1_555
Fe12 O2 2.072946 1_655
Fe12 O26 2.087497 1_555
Fe13 O1 1.835414 1_655
Fe13 O28 1.872785 1_555
Fe13 O29 1.926203 1_565
Fe13 O27 1.939441 1_555
Fe13 O22 1.963430 1_555
Fe13 O26 2.028657 1_555
Fe14 O0 1.826132 1_655
Fe14 O28 1.881479 1_545
Fe14 O29 1.909669 1_555
Fe14 O25 1.960649 1_555
Fe14 O24 1.993002 1_555
Fe14 O21 1.996436 1_555
Fe15 O4 1.902625 1_654
Fe15 O7 1.907465 1_645
Fe15 O25 1.922311 1_555
Fe15 O26 1.946542 1_544
