# generated using pymatgen
data_LiVP2HO8
_symmetry_space_group_name_H-M   'P 1'
_cell_length_a   7.99837900
_cell_length_b   7.75006600
_cell_length_c   9.71853321
_cell_angle_alpha   68.34590731
_cell_angle_beta   90.00000000
_cell_angle_gamma   90.00000000
_symmetry_Int_Tables_number   1
_chemical_formula_structural   LiVP2HO8
_chemical_formula_sum   'Li4 V4 P8 H4 O32'
_cell_volume   559.91757696
_cell_formula_units_Z   4
loop_
 _symmetry_equiv_pos_site_id
 _symmetry_equiv_pos_as_xyz
  1  'x, y, z'
loop_
 _atom_site_type_symbol
 _atom_site_label
 _atom_site_symmetry_multiplicity
 _atom_site_fract_x
 _atom_site_fract_y
 _atom_site_fract_z
 _atom_site_occupancy
  Li  Li0  1  0.86827700  0.10256800  0.77953000  1
  Li  Li1  1  0.62968400  0.60202200  0.77459200  1
  Li  Li2  1  0.36827700  0.89743200  0.22047000  1
  Li  Li3  1  0.12968400  0.39797800  0.22540800  1
  V  V0  1  0.48999300  0.24253000  0.74904300  1
  V  V1  1  0.00919900  0.74850100  0.74723000  1
  V  V2  1  0.50919900  0.25149900  0.25277000  1
  V  V3  1  0.98999300  0.75747000  0.25095700  1
  P  P0  1  0.14917100  0.01896500  0.93302100  1
  P  P1  1  0.34604700  0.51374400  0.93360100  1
  P  P2  1  0.65353800  0.98275500  0.56802800  1
  P  P3  1  0.15353800  0.01724500  0.43197200  1
  P  P4  1  0.84412200  0.48843200  0.56689700  1
  P  P5  1  0.34412200  0.51156800  0.43310300  1
  P  P6  1  0.64917100  0.98103500  0.06697900  1
  P  P7  1  0.84604700  0.48625600  0.06639900  1
  H  H0  1  0.49226200  0.74171600  0.99156200  1
  H  H1  1  0.49352500  0.74039400  0.49122000  1
  H  H2  1  0.99352500  0.25960600  0.50878000  1
  H  H3  1  0.99226200  0.25828400  0.00843800  1
  O  O0  1  0.04099300  0.18968200  0.90721100  1
  O  O1  1  0.66924000  0.10747500  0.90113700  1
  O  O2  1  0.32442600  0.06736500  0.86434100  1
  O  O3  1  0.05178300  0.90283800  0.85508000  1
  O  O4  1  0.45505600  0.68898300  0.90549400  1
  O  O5  1  0.82757500  0.60678800  0.90036500  1
  O  O6  1  0.17330500  0.56732700  0.86284900  1
  O  O7  1  0.44742500  0.40341800  0.85517500  1
  O  O8  1  0.55287800  0.10087700  0.64341200  1
  O  O9  1  0.82375000  0.94047800  0.64953300  1
  O  O10  1  0.17100900  0.88977500  0.59621400  1
  O  O11  1  0.56251900  0.80138300  0.59138000  1
  O  O12  1  0.94520400  0.60349500  0.64182200  1
  O  O13  1  0.67612600  0.43808300  0.64964900  1
  O  O14  1  0.06251900  0.19861700  0.40862000  1
  O  O15  1  0.67100900  0.11022500  0.40378600  1
  O  O16  1  0.32787800  0.39143900  0.59773400  1
  O  O17  1  0.93716400  0.30286600  0.59377600  1
  O  O18  1  0.32375000  0.05952200  0.35046700  1
  O  O19  1  0.05287800  0.89912300  0.35658800  1
  O  O20  1  0.43716400  0.69713400  0.40622400  1
  O  O21  1  0.82787800  0.60856100  0.40226600  1
  O  O22  1  0.17612600  0.56191700  0.35035100  1
  O  O23  1  0.44520400  0.39650500  0.35817800  1
  O  O24  1  0.55178300  0.09716200  0.14492000  1
  O  O25  1  0.82442600  0.93263500  0.13565900  1
  O  O26  1  0.16924000  0.89252500  0.09886300  1
  O  O27  1  0.54099300  0.81031800  0.09278900  1
  O  O28  1  0.94742500  0.59658200  0.14482500  1
  O  O29  1  0.67330500  0.43267300  0.13715100  1
  O  O30  1  0.32757500  0.39321200  0.09963500  1
  O  O31  1  0.95505600  0.31101700  0.09450600  1
loop_
_geom_bond_atom_site_label_1
_geom_bond_atom_site_label_2
_geom_bond_distance
_geom_bond_site_symmetry_2
Li0 O17 1.975880 1_555
Li0 O1 1.991418 1_555
Li0 O3 2.061718 1_645
Li0 O9 2.114779 1_545
Li0 O0 2.126557 1_655
Li1 O11 1.953427 1_555
Li1 O5 2.008495 1_555
Li1 O7 2.053765 1_555
Li1 O13 2.089319 1_555
Li1 O4 2.157843 1_555
Li2 O20 1.975880 1_555
Li2 O26 1.991418 1_555
Li2 O24 2.061718 1_565
Li2 O18 2.114779 1_565
Li2 O27 2.126557 1_555
Li3 O14 1.953427 1_555
Li3 O30 2.008495 1_555
Li3 O28 2.053765 1_455
Li3 O22 2.089319 1_555
Li3 O31 2.157843 1_455
H0 O4 1.098873 1_555
H0 O27 1.337319 1_556
H1 O20 1.096514 1_555
H1 O11 1.347228 1_555
H2 O17 1.096514 1_555
H2 O14 1.347228 1_655
H3 O31 1.098873 1_555
H3 O0 1.337319 1_654
O0 P0 1.522222 1_555
O1 P6 1.555034 1_546
O1 V0 2.047945 1_555
O2 P0 1.538299 1_555
O2 V0 1.931207 1_555
O3 P0 1.579119 1_565
O3 V1 1.889594 1_555
O4 P1 1.550969 1_555
O5 P7 1.544587 1_556
O5 V1 2.079701 1_655
O6 P1 1.530847 1_555
O6 V1 1.947463 1_555
O7 P1 1.565393 1_555
O7 V0 1.919296 1_555
O8 P2 1.586811 1_545
O8 V0 1.828603 1_555
O9 P2 1.548134 1_555
O9 V1 2.067064 1_655
O10 P3 1.542582 1_565
O10 V1 1.960069 1_555
O11 P2 1.523780 1_555
O12 P4 1.567897 1_555
O12 V1 1.850399 1_655
O13 P4 1.540443 1_555
O13 V0 2.089491 1_555
O14 P3 1.523780 1_555
O15 P2 1.542582 1_545
O15 V2 1.960069 1_555
O16 P5 1.531093 1_555
O16 V0 1.980685 1_555
O17 P4 1.553405 1_555
O18 P3 1.548134 1_555
O18 V2 2.067064 1_555
O19 P3 1.586811 1_565
O19 V3 1.828603 1_455
O20 P5 1.553405 1_555
O21 P4 1.531093 1_555
O21 V3 1.980685 1_555
O22 P5 1.540443 1_555
O22 V3 2.089491 1_455
O23 P5 1.567897 1_555
O23 V2 1.850399 1_555
O24 P6 1.579119 1_545
O24 V2 1.889594 1_555
O25 P6 1.538299 1_555
O25 V3 1.931207 1_555
O26 P0 1.555034 1_564
O26 V3 2.047945 1_455
O27 P6 1.522222 1_555
O28 P7 1.565393 1_555
O28 V3 1.919296 1_555
O29 P7 1.530847 1_555
O29 V2 1.947463 1_555
O30 P1 1.544587 1_554
O30 V2 2.079701 1_555
O31 P7 1.550969 1_555
