# generated using pymatgen
data_Li3MnV(PO4)3
_symmetry_space_group_name_H-M   'P 1'
_cell_length_a   9.84767900
_cell_length_b   9.86079184
_cell_length_c   9.90138780
_cell_angle_alpha   85.79115477
_cell_angle_beta   87.77395564
_cell_angle_gamma   88.03088762
_symmetry_Int_Tables_number   1
_chemical_formula_structural   Li3MnV(PO4)3
_chemical_formula_sum   'Li12 Mn4 V4 P12 O48'
_cell_volume   957.68762643
_cell_formula_units_Z   4
loop_
 _symmetry_equiv_pos_site_id
 _symmetry_equiv_pos_as_xyz
  1  'x, y, z'
loop_
 _atom_site_type_symbol
 _atom_site_label
 _atom_site_symmetry_multiplicity
 _atom_site_fract_x
 _atom_site_fract_y
 _atom_site_fract_z
 _atom_site_occupancy
  Li  Li0  1  0.02265900  0.94872900  0.00095900  1
  Li  Li1  1  0.86375200  0.25788700  0.94065700  1
  Li  Li2  1  0.26547000  0.91446900  0.86989100  1
  Li  Li3  1  0.35854000  0.44108900  0.76646300  1
  Li  Li4  1  0.05863300  0.14150000  0.72747700  1
  Li  Li5  1  0.57753100  0.23349000  0.63124500  1
  Li  Li6  1  0.23115100  0.64362200  0.55838800  1
  Li  Li7  1  0.54770800  0.48459200  0.49915400  1
  Li  Li8  1  0.44544000  0.76784200  0.35257400  1
  Li  Li9  1  0.64358800  0.54104900  0.23586900  1
  Li  Li10  1  0.95958800  0.84332600  0.27661000  1
  Li  Li11  1  0.73360100  0.05791800  0.14817400  1
  Mn  Mn0  1  0.52411300  0.74642100  0.97437000  1
  Mn  Mn1  1  0.02748800  0.47423000  0.26121500  1
  Mn  Mn2  1  0.24804600  0.25932500  0.24265100  1
  Mn  Mn3  1  0.46964700  0.23914600  0.02639600  1
  V  V0  1  0.74717800  0.74898000  0.75403400  1
  V  V1  1  0.96361800  0.53435700  0.75242700  1
  V  V2  1  0.75358800  0.97317200  0.53600000  1
  V  V3  1  0.25109500  0.04168900  0.46234600  1
  P  P0  1  0.14652600  0.32417000  0.94625700  1
  P  P1  1  0.66469400  0.04420500  0.85449800  1
  P  P2  1  0.64444200  0.44868100  0.82593500  1
  P  P3  1  0.05044900  0.85392700  0.67286500  1
  P  P4  1  0.44959500  0.83376200  0.63960700  1
  P  P5  1  0.16241000  0.35725000  0.55205900  1
  P  P6  1  0.82153500  0.66063600  0.45362900  1
  P  P7  1  0.54975700  0.18436100  0.35258500  1
  P  P8  1  0.95186100  0.15032800  0.32558900  1
  P  P9  1  0.34772900  0.55162800  0.17367600  1
  P  P10  1  0.32874500  0.95086400  0.14801100  1
  P  P11  1  0.85267300  0.67299900  0.05266400  1
  O  O0  1  0.59274200  0.37922200  0.96408000  1
  O  O1  1  0.77170800  0.09037700  0.94750700  1
  O  O2  1  0.87971700  0.66985500  0.89127000  1
  O  O3  1  0.66173300  0.88217700  0.88206500  1
  O  O4  1  0.29992600  0.30511100  0.90668000  1
  O  O5  1  0.52131900  0.10480100  0.88547000  1
  O  O6  1  0.05723800  0.21203600  0.90234800  1
  O  O7  1  0.09942100  0.46458600  0.88242400  1
  O  O8  1  0.61760200  0.60702900  0.82985700  1
  O  O9  1  0.79869400  0.41146300  0.81515200  1
  O  O10  1  0.40911200  0.80652500  0.79171900  1
  O  O11  1  0.09418300  0.93801100  0.78870600  1
  O  O12  1  0.88975200  0.87877400  0.67286000  1
  O  O13  1  0.56059400  0.40638900  0.70887000  1
  O  O14  1  0.69805500  0.08409700  0.70121800  1
  O  O15  1  0.08632800  0.69886400  0.69100400  1
  O  O16  1  0.61153500  0.83577400  0.62256700  1
  O  O17  1  0.82654200  0.62520400  0.61448400  1
  O  O18  1  0.39236900  0.97590300  0.59062600  1
  O  O19  1  0.02581000  0.39425300  0.62356300  1
  O  O20  1  0.27671300  0.44488700  0.59515800  1
  O  O21  1  0.40558600  0.72412100  0.54993900  1
  O  O22  1  0.18985800  0.20092300  0.58342500  1
  O  O23  1  0.11451200  0.90445300  0.53579800  1
  O  O24  1  0.89564400  0.10212100  0.46779600  1
  O  O25  1  0.80723100  0.81853000  0.42004800  1
  O  O26  1  0.70048500  0.58742100  0.40786500  1
  O  O27  1  0.58585600  0.29933800  0.43723300  1
  O  O28  1  0.96065000  0.62224900  0.38747400  1
  O  O29  1  0.61286600  0.04620300  0.40577400  1
  O  O30  1  0.15284300  0.38567900  0.39370000  1
  O  O31  1  0.38611300  0.17695300  0.36939000  1
  O  O32  1  0.30429900  0.91859900  0.30426000  1
  O  O33  1  0.91569800  0.30162900  0.29245300  1
  O  O34  1  0.44515800  0.59312800  0.27943800  1
  O  O35  1  0.11612900  0.13027100  0.32833500  1
  O  O36  1  0.91124800  0.05514300  0.21940300  1
  O  O37  1  0.19726100  0.58636100  0.20367100  1
  O  O38  1  0.59037100  0.20106500  0.19886400  1
  O  O39  1  0.37358600  0.39109300  0.16644300  1
  O  O40  1  0.91110300  0.53537200  0.11733800  1
  O  O41  1  0.91938400  0.79831500  0.09567500  1
  O  O42  1  0.46657400  0.87820500  0.11312000  1
  O  O43  1  0.69760600  0.67087200  0.08531400  1
  O  O44  1  0.34424100  0.11020000  0.11852300  1
  O  O45  1  0.21327000  0.91181200  0.06220900  1
  O  O46  1  0.12519100  0.32711100  0.10499500  1
  O  O47  1  0.39004100  0.61510800  0.02961300  1
loop_
_geom_bond_atom_site_label_1
_geom_bond_atom_site_label_2
_geom_bond_distance
_geom_bond_site_symmetry_2
Li0 O41 1.984720 1_455
Li0 O45 2.008182 1_555
Li0 O11 2.199201 1_554
Li1 O1 1.906895 1_555
Li1 O6 1.971960 1_655
Li1 O9 1.991730 1_555
Li2 O11 1.896395 1_555
Li2 O10 1.914523 1_555
Li2 O45 1.951545 1_556
Li3 O20 1.903274 1_555
Li3 O4 1.943254 1_555
Li3 O13 2.072470 1_555
Li4 O6 1.912121 1_555
Li4 O22 1.958018 1_555
Li4 O11 2.075102 1_545
Li5 O13 1.920458 1_555
Li5 O14 1.962839 1_555
Li5 O27 1.981631 1_555
Li6 O21 1.913283 1_555
Li6 O15 1.990227 1_555
Li6 O20 2.005434 1_555
Li7 O27 1.988313 1_555
Li7 O26 1.993324 1_555
Li7 O13 2.168234 1_555
Li8 O34 1.917319 1_555
Li8 O21 1.996780 1_555
Li8 O32 2.043502 1_555
Li8 O42 2.539179 1_555
Li9 O26 1.905065 1_555
Li9 O43 1.961901 1_555
Li9 O34 2.041153 1_555
Li10 O41 1.935753 1_555
Li10 O25 2.033874 1_555
Li10 O36 2.165412 1_565
Li10 O28 2.367597 1_555
Li11 O36 1.910055 1_555
Li11 O1 2.011953 1_554
Li11 O38 2.036172 1_555
Mn0 O47 1.917403 1_556
Mn0 O42 2.011989 1_556
Mn0 O3 2.076741 1_555
Mn0 O43 2.149157 1_556
Mn0 O10 2.204567 1_555
Mn0 O8 2.209908 1_555
Mn1 O40 1.913062 1_455
Mn1 O30 1.972486 1_555
Mn1 O33 2.056543 1_455
Mn1 O28 2.065031 1_455
Mn1 O37 2.074348 1_555
Mn1 O46 2.353870 1_555
Mn2 O39 1.918342 1_555
Mn2 O46 1.925363 1_555
Mn2 O35 1.973912 1_555
Mn2 O31 1.997539 1_555
Mn2 O44 2.156238 1_555
Mn2 O30 2.180018 1_555
Mn3 O0 1.920906 1_554
Mn3 O44 1.955528 1_555
Mn3 O5 2.032430 1_554
Mn3 O38 2.122128 1_555
Mn3 O4 2.141875 1_554
Mn3 O39 2.273393 1_555
O0 P2 1.559367 1_555
O1 P1 1.528355 1_555
O2 P11 1.612208 1_556
O2 V0 2.017647 1_555
O2 V1 2.112649 1_555
O3 P1 1.602076 1_565
O3 V0 2.031186 1_555
O4 P0 1.554416 1_555
O5 P1 1.542678 1_555
O6 P0 1.533578 1_555
O7 P0 1.543368 1_555
O7 V1 1.964458 1_455
O8 P2 1.577718 1_555
O8 V0 2.011277 1_555
O9 P2 1.551890 1_555
O9 V1 2.106761 1_555
O10 P4 1.549452 1_555
O11 P3 1.546297 1_555
O12 P3 1.593007 1_655
O12 V0 2.034742 1_555
O12 V2 2.090696 1_555
O13 P2 1.538897 1_555
O14 P1 1.564785 1_555
O14 V2 2.079340 1_545
O15 P3 1.556459 1_555
O15 V1 2.096274 1_455
O16 P4 1.597753 1_555
O16 V0 2.025880 1_555
O16 V2 2.096150 1_555
O17 P6 1.607605 1_555
O17 V0 2.026775 1_555
O17 V1 2.090619 1_555
O18 P4 1.544184 1_555
O18 V3 1.980884 1_565
O19 P5 1.540822 1_555
O19 V1 2.012866 1_455
O20 P5 1.534343 1_555
O21 P4 1.532301 1_555
O22 P5 1.566326 1_555
O22 V3 2.102717 1_555
O23 P3 1.530990 1_555
O23 V3 2.018404 1_565
O24 P8 1.540885 1_555
O24 V2 1.988128 1_545
O25 P6 1.570700 1_555
O25 V2 2.019148 1_555
O26 P6 1.515481 1_555
O27 P7 1.518086 1_555
O28 P6 1.542783 1_555
O29 P7 1.543213 1_555
O29 V2 2.008864 1_545
O30 P5 1.578336 1_555
O31 P7 1.617243 1_555
O31 V3 2.059286 1_555
O32 P10 1.567394 1_555
O32 V3 2.090279 1_565
O33 P8 1.536583 1_555
O34 P9 1.533803 1_555
O35 P8 1.623981 1_455
O35 V3 2.043829 1_555
O36 P8 1.532859 1_555
O37 P9 1.531989 1_555
O38 P7 1.556975 1_555
O39 P9 1.601058 1_555
O40 P11 1.558941 1_555
O41 P11 1.514828 1_555
O42 P10 1.551778 1_555
O43 P11 1.549093 1_555
O44 P10 1.588338 1_545
O45 P10 1.521952 1_555
O46 P0 1.579850 1_554
O47 P9 1.562313 1_555
