# generated using pymatgen
data_CuNi9O10
_symmetry_space_group_name_H-M   'P 1'
_cell_length_a   5.95708555
_cell_length_b   5.14769643
_cell_length_c   6.64529865
_cell_angle_alpha   82.38602626
_cell_angle_beta   77.36816527
_cell_angle_gamma   106.02114464
_symmetry_Int_Tables_number   1
_chemical_formula_structural   CuNi9O10
_chemical_formula_sum   'Cu1 Ni9 O10'
_cell_volume   187.04009151
_cell_formula_units_Z   1
loop_
 _symmetry_equiv_pos_site_id
 _symmetry_equiv_pos_as_xyz
  1  'x, y, z'
loop_
 _atom_site_type_symbol
 _atom_site_label
 _atom_site_symmetry_multiplicity
 _atom_site_fract_x
 _atom_site_fract_y
 _atom_site_fract_z
 _atom_site_occupancy
  Cu  Cu0  1  0.90000000  0.20000000  0.60000000  1
  Ni  Ni0  1  0.49953000  0.99913400  0.99926400  1
  Ni  Ni1  1  0.00015800  0.99986300  0.99984300  1
  Ni  Ni2  1  0.79984200  0.40013700  0.20015700  1
  Ni  Ni3  1  0.30047000  0.40086600  0.20073600  1
  Ni  Ni4  1  0.10214800  0.79941200  0.39967200  1
  Ni  Ni5  1  0.40000000  0.20000000  0.60000000  1
  Ni  Ni6  1  0.60282100  0.80256900  0.40047500  1
  Ni  Ni7  1  0.69785200  0.60058800  0.80032800  1
  Ni  Ni8  1  0.19717900  0.59743100  0.79952500  1
  O  O0  1  0.45075300  0.10156200  0.29955700  1
  O  O1  1  0.14851300  0.69935500  0.10106300  1
  O  O2  1  0.94986000  0.09766600  0.29777800  1
  O  O3  1  0.65148700  0.70064500  0.09893700  1
  O  O4  1  0.26735900  0.51327900  0.49426200  1
  O  O5  1  0.75340700  0.49559500  0.50153600  1
  O  O6  1  0.53264100  0.88672100  0.70573800  1
  O  O7  1  0.04659300  0.90440500  0.69846400  1
  O  O8  1  0.34924700  0.29843800  0.90044300  1
  O  O9  1  0.85014000  0.30233400  0.90222200  1
loop_
_geom_bond_atom_site_label_1
_geom_bond_atom_site_label_2
_geom_bond_distance
_geom_bond_site_symmetry_2
Cu0 O5 2.055638 1_555
Cu0 O7 2.055638 1_645
Cu0 O2 2.122507 1_555
Cu0 O9 2.122507 1_555
Cu0 O4 2.227692 1_655
Cu0 O6 2.227692 1_545
Ni0 O8 2.087328 1_565
Ni0 O6 2.091008 1_555
Ni0 O3 2.092694 1_556
Ni0 O0 2.110544 1_566
Ni0 O1 2.129546 1_556
Ni0 O9 2.135182 1_565
Ni1 O2 2.085923 1_466
Ni1 O1 2.089340 1_556
Ni1 O9 2.097091 1_465
Ni1 O7 2.102979 1_555
Ni1 O3 2.118337 1_456
Ni1 O8 2.118741 1_565
Ni2 O9 2.085923 1_554
Ni2 O3 2.089340 1_555
Ni2 O2 2.097091 1_555
Ni2 O5 2.102979 1_555
Ni2 O1 2.118337 1_655
Ni2 O0 2.118741 1_555
Ni3 O0 2.087328 1_555
Ni3 O4 2.091008 1_555
Ni3 O1 2.092694 1_555
Ni3 O8 2.110544 1_554
Ni3 O3 2.129546 1_555
Ni3 O2 2.135182 1_455
Ni4 O4 2.087730 1_555
Ni4 O1 2.094961 1_555
Ni4 O2 2.097783 1_465
Ni4 O7 2.107083 1_555
Ni4 O0 2.124376 1_565
Ni4 O5 2.128626 1_455
Ni5 O4 2.089182 1_555
Ni5 O6 2.089182 1_545
Ni5 O0 2.103089 1_555
Ni5 O8 2.103089 1_555
Ni5 O5 2.130986 1_555
Ni5 O7 2.130986 1_545
Ni6 O4 2.041136 1_555
Ni6 O0 2.097873 1_565
Ni6 O2 2.102844 1_565
Ni6 O6 2.106991 1_555
Ni6 O3 2.117326 1_555
Ni6 O5 2.125443 1_555
Ni7 O6 2.087730 1_555
Ni7 O3 2.094961 1_556
Ni7 O9 2.097783 1_555
Ni7 O5 2.107083 1_555
Ni7 O8 2.124376 1_555
Ni7 O7 2.128626 1_655
Ni8 O6 2.041136 1_555
Ni8 O8 2.097873 1_555
Ni8 O9 2.102844 1_455
Ni8 O4 2.106991 1_555
Ni8 O1 2.117326 1_556
Ni8 O7 2.125443 1_555
