# generated using pymatgen
data_TbGaO3
_symmetry_space_group_name_H-M   'P 1'
_cell_length_a   5.32099700
_cell_length_b   5.60395000
_cell_length_c   7.65955500
_cell_angle_alpha   90.00000000
_cell_angle_beta   90.00000000
_cell_angle_gamma   90.00000000
_symmetry_Int_Tables_number   1
_chemical_formula_structural   TbGaO3
_chemical_formula_sum   'Tb4 Ga4 O12'
_cell_volume   228.39721544
_cell_formula_units_Z   4
loop_
 _symmetry_equiv_pos_site_id
 _symmetry_equiv_pos_as_xyz
  1  'x, y, z'
loop_
 _atom_site_type_symbol
 _atom_site_label
 _atom_site_symmetry_multiplicity
 _atom_site_fract_x
 _atom_site_fract_y
 _atom_site_fract_z
 _atom_site_occupancy
  Tb  Tb0  1  0.01905800  0.06618400  0.75000000  1
  Tb  Tb1  1  0.48094200  0.56618400  0.75000000  1
  Tb  Tb2  1  0.51905800  0.43381600  0.25000000  1
  Tb  Tb3  1  0.98094200  0.93381600  0.25000000  1
  Ga  Ga0  1  0.00000000  0.50000000  0.50000000  1
  Ga  Ga1  1  0.50000000  0.00000000  0.50000000  1
  Ga  Ga2  1  0.50000000  0.00000000  0.00000000  1
  Ga  Ga3  1  0.00000000  0.50000000  0.00000000  1
  O  O0  1  0.10878500  0.53742000  0.25000000  1
  O  O1  1  0.19643100  0.80198700  0.55595400  1
  O  O2  1  0.19643100  0.80198700  0.94404600  1
  O  O3  1  0.30356900  0.30198700  0.94404600  1
  O  O4  1  0.30356900  0.30198700  0.55595400  1
  O  O5  1  0.39121500  0.03742000  0.25000000  1
  O  O6  1  0.60878500  0.96258000  0.75000000  1
  O  O7  1  0.69643100  0.69801300  0.05595400  1
  O  O8  1  0.69643100  0.69801300  0.44404600  1
  O  O9  1  0.80356900  0.19801300  0.44404600  1
  O  O10  1  0.80356900  0.19801300  0.05595400  1
  O  O11  1  0.89121500  0.46258000  0.75000000  1
loop_
_geom_bond_atom_site_label_1
_geom_bond_atom_site_label_2
_geom_bond_distance
_geom_bond_site_symmetry_2
Ga0 O4 2.006035 1_555
Ga0 O8 2.006035 1_455
Ga0 O0 2.011426 1_555
Ga0 O11 2.011426 1_455
Ga0 O1 2.034722 1_555
Ga0 O9 2.034722 1_455
Ga1 O1 2.006035 1_545
Ga1 O9 2.006035 1_555
Ga1 O5 2.011426 1_555
Ga1 O6 2.011426 1_545
Ga1 O8 2.034722 1_545
Ga1 O4 2.034722 1_555
Ga2 O10 2.006035 1_555
Ga2 O2 2.006035 1_544
Ga2 O5 2.011426 1_555
Ga2 O6 2.011426 1_544
Ga2 O7 2.034722 1_545
Ga2 O3 2.034722 1_554
Ga3 O7 2.006035 1_455
Ga3 O3 2.006035 1_554
Ga3 O0 2.011426 1_555
Ga3 O11 2.011426 1_454
Ga3 O10 2.034722 1_455
Ga3 O2 2.034722 1_554
O0 Tb2 2.258947 1_555
O0 Tb3 2.323206 1_455
O1 Tb0 2.300410 1_565
O1 Tb1 2.499423 1_555
O1 Tb3 2.711523 1_455
O2 Tb0 2.300410 1_565
O2 Tb1 2.499423 1_555
O2 Tb3 2.711523 1_456
O3 Tb1 2.300410 1_555
O3 Tb0 2.499423 1_555
O3 Tb2 2.711523 1_556
O4 Tb1 2.300410 1_555
O4 Tb0 2.499423 1_555
O4 Tb2 2.711523 1_555
O5 Tb3 2.258947 1_445
O5 Tb2 2.323206 1_555
O6 Tb0 2.258947 1_665
O6 Tb1 2.323206 1_555
O7 Tb2 2.300410 1_555
O7 Tb3 2.499423 1_555
O7 Tb1 2.711523 1_554
O8 Tb2 2.300410 1_555
O8 Tb3 2.499423 1_555
O8 Tb1 2.711523 1_555
O9 Tb3 2.300410 1_545
O9 Tb2 2.499423 1_555
O9 Tb0 2.711523 1_655
O10 Tb3 2.300410 1_545
O10 Tb2 2.499423 1_555
O10 Tb0 2.711523 1_654
O11 Tb1 2.258947 1_555
O11 Tb0 2.323206 1_655
