# generated using pymatgen
data_KVPCO7
_symmetry_space_group_name_H-M   'P 1'
_cell_length_a   5.37376234
_cell_length_b   12.12447025
_cell_length_c   12.12733985
_cell_angle_alpha   117.63071360
_cell_angle_beta   91.24383480
_cell_angle_gamma   88.72862725
_symmetry_Int_Tables_number   1
_chemical_formula_structural   KVPCO7
_chemical_formula_sum   'K4 V4 P4 C4 O28'
_cell_volume   699.80248051
_cell_formula_units_Z   4
loop_
 _symmetry_equiv_pos_site_id
 _symmetry_equiv_pos_as_xyz
  1  'x, y, z'
loop_
 _atom_site_type_symbol
 _atom_site_label
 _atom_site_symmetry_multiplicity
 _atom_site_fract_x
 _atom_site_fract_y
 _atom_site_fract_z
 _atom_site_occupancy
  K  K0  1  0.23698400  0.30538900  0.08782800  1
  K  K1  1  0.23692900  0.80524400  0.58764300  1
  K  K2  1  0.76377900  0.83742400  0.05504900  1
  K  K3  1  0.76374400  0.33753600  0.55508100  1
  V  V0  1  0.77922800  0.06446500  0.71246100  1
  V  V1  1  0.22078800  0.96246700  0.31436500  1
  V  V2  1  0.77926900  0.56434100  0.21231900  1
  V  V3  1  0.22074200  0.46239700  0.81442300  1
  P  P0  1  0.72050000  0.36000700  0.91118500  1
  P  P1  1  0.72058600  0.86005500  0.41117600  1
  P  P2  1  0.27943700  0.66097900  0.10982000  1
  P  P3  1  0.27936300  0.16096500  0.60982200  1
  C  C0  1  0.70728100  0.43637600  0.31170800  1
  C  C1  1  0.70738200  0.93620300  0.81155600  1
  C  C2  1  0.29254500  0.56137900  0.68608300  1
  C  C3  1  0.29260200  0.06139800  0.18599700  1
  O  O0  1  0.32815800  0.11232100  0.12101400  1
  O  O1  1  0.32809700  0.61230100  0.62111200  1
  O  O2  1  0.67176000  0.87118300  0.86244000  1
  O  O3  1  0.67155600  0.37142800  0.36264900  1
  O  O4  1  0.93149200  0.46631200  0.28639800  1
  O  O5  1  0.93155300  0.96622600  0.78628300  1
  O  O6  1  0.06835500  0.53630500  0.71632000  1
  O  O7  1  0.06841400  0.03635000  0.21624700  1
  O  O8  1  0.52914300  0.48718200  0.26902900  1
  O  O9  1  0.52917400  0.98703400  0.76894000  1
  O  O10  1  0.47078400  0.51857200  0.73672200  1
  O  O11  1  0.47082600  0.01859200  0.23663200  1
  O  O12  1  0.77729100  0.21629300  0.85703500  1
  O  O13  1  0.77746200  0.71630200  0.35682000  1
  O  O14  1  0.22340900  0.60724400  0.96613300  1
  O  O15  1  0.22352500  0.10730000  0.46613800  1
  O  O16  1  0.77746000  0.40986600  0.05190900  1
  O  O17  1  0.77738400  0.90989700  0.55189700  1
  O  O18  1  0.22156700  0.80171700  0.16020300  1
  O  O19  1  0.22161700  0.30172600  0.66025500  1
  O  O20  1  0.11131000  0.59934300  0.16446600  1
  O  O21  1  0.11112700  0.09938800  0.66449100  1
  O  O22  1  0.88871900  0.41526500  0.85023000  1
  O  O23  1  0.88875800  0.91546400  0.35030900  1
  O  O24  1  0.44160500  0.37743100  0.89032900  1
  O  O25  1  0.44168400  0.87748400  0.39025400  1
  O  O26  1  0.55836000  0.64028100  0.12740700  1
  O  O27  1  0.55825000  0.14027500  0.62752200  1
loop_
_geom_bond_atom_site_label_1
_geom_bond_atom_site_label_2
_geom_bond_distance
_geom_bond_site_symmetry_2
K0 O0 2.587656 1_555
K0 O8 2.768254 1_555
K0 O4 2.823526 1_455
K0 O16 2.866784 1_455
K0 O24 3.131482 1_554
K1 O1 2.588138 1_555
K1 O9 2.768981 1_555
K1 O5 2.823827 1_455
K1 O17 2.867224 1_455
K1 O25 3.132088 1_555
K2 O2 2.587635 1_554
K2 O11 2.768206 1_565
K2 O7 2.825171 1_665
K2 O18 2.862534 1_655
K2 O26 3.131535 1_555
K3 O3 2.586625 1_555
K3 O10 2.767879 1_555
K3 O6 2.824199 1_655
K3 O19 2.863464 1_655
K3 O27 3.133621 1_555
C0 O3 1.225432 1_555
C0 O8 1.346017 1_555
C0 O4 1.347750 1_555
C1 O2 1.225543 1_555
C1 O9 1.346021 1_555
C1 O5 1.347805 1_555
C2 O1 1.225357 1_555
C2 O10 1.346092 1_555
C2 O6 1.348008 1_555
C3 O0 1.225499 1_555
C3 O11 1.345999 1_555
C3 O7 1.347944 1_555
O4 V2 1.950444 1_555
O5 V0 1.950447 1_565
O6 V3 1.950135 1_555
O7 V1 1.950033 1_545
O8 V2 1.961511 1_555
O9 V0 1.961758 1_565
O10 V3 1.961668 1_555
O11 V1 1.961553 1_545
O12 P0 1.576163 1_555
O12 V0 1.862553 1_555
O13 P1 1.576446 1_555
O13 V2 1.863013 1_555
O14 P2 1.576220 1_556
O14 V3 1.863439 1_555
O15 P3 1.576088 1_555
O15 V1 1.863780 1_545
O16 P0 1.549276 1_554
O16 V2 1.978085 1_555
O17 P1 1.549108 1_555
O17 V0 1.979656 1_565
O18 P2 1.548996 1_555
O18 V1 1.978420 1_555
O19 P3 1.549060 1_555
O19 V3 1.977933 1_555
O20 P2 1.526182 1_555
O20 V2 2.001908 1_455
O21 P3 1.526225 1_555
O21 V0 2.001447 1_455
O22 P0 1.525692 1_555
O22 V3 2.001896 1_655
O23 P1 1.526029 1_555
O23 V1 2.001909 1_655
O24 P0 1.540715 1_555
O24 V3 2.023658 1_555
O25 P1 1.540929 1_555
O25 V1 2.023764 1_555
O26 P2 1.540825 1_555
O26 V2 2.023670 1_555
O27 P3 1.540883 1_555
O27 V0 2.023043 1_555
