# generated using pymatgen
data_LiVCuO4
_symmetry_space_group_name_H-M   'P 1'
_cell_length_a   6.09524400
_cell_length_b   6.09524400
_cell_length_c   7.79678400
_cell_angle_alpha   90.00000000
_cell_angle_beta   90.00000000
_cell_angle_gamma   90.00000000
_symmetry_Int_Tables_number   1
_chemical_formula_structural   LiVCuO4
_chemical_formula_sum   'Li4 V4 Cu4 O16'
_cell_volume   289.66611464
_cell_formula_units_Z   4
loop_
 _symmetry_equiv_pos_site_id
 _symmetry_equiv_pos_as_xyz
  1  'x, y, z'
loop_
 _atom_site_type_symbol
 _atom_site_label
 _atom_site_symmetry_multiplicity
 _atom_site_fract_x
 _atom_site_fract_y
 _atom_site_fract_z
 _atom_site_occupancy
  Li  Li0  1  0.50000000  0.73678100  0.00000000  1
  Li  Li1  1  0.50000000  0.26321900  0.50000000  1
  Li  Li2  1  0.73678100  0.50000000  0.25000000  1
  Li  Li3  1  0.26321900  0.50000000  0.75000000  1
  V  V0  1  0.71650900  0.00000000  0.25000000  1
  V  V1  1  0.00000000  0.71650900  0.00000000  1
  V  V2  1  0.00000000  0.28349100  0.50000000  1
  V  V3  1  0.28349100  0.00000000  0.75000000  1
  Cu  Cu0  1  0.75943900  0.75943900  0.62500000  1
  Cu  Cu1  1  0.75943900  0.24056100  0.87500000  1
  Cu  Cu2  1  0.24056100  0.75943900  0.37500000  1
  Cu  Cu3  1  0.24056100  0.24056100  0.12500000  1
  O  O0  1  0.53360300  0.77494400  0.26771400  1
  O  O1  1  0.53360300  0.22505600  0.23228600  1
  O  O2  1  0.77494400  0.53360300  0.98228600  1
  O  O3  1  0.77494400  0.46639700  0.51771400  1
  O  O4  1  0.76986400  0.97269000  0.01067100  1
  O  O5  1  0.76986400  0.02731000  0.48932900  1
  O  O6  1  0.97269000  0.76986400  0.23932900  1
  O  O7  1  0.97269000  0.23013600  0.26067100  1
  O  O8  1  0.02731000  0.76986400  0.76067100  1
  O  O9  1  0.02731000  0.23013600  0.73932900  1
  O  O10  1  0.23013600  0.02731000  0.51067100  1
  O  O11  1  0.23013600  0.97269000  0.98932900  1
  O  O12  1  0.22505600  0.53360300  0.01771400  1
  O  O13  1  0.22505600  0.46639700  0.48228600  1
  O  O14  1  0.46639700  0.77494400  0.73228600  1
  O  O15  1  0.46639700  0.22505600  0.76771400  1
loop_
_geom_bond_atom_site_label_1
_geom_bond_atom_site_label_2
_geom_bond_distance
_geom_bond_site_symmetry_2
Li0 O2 2.088357 1_554
Li0 O12 2.088357 1_555
Li0 O0 2.110193 1_555
Li0 O14 2.110193 1_554
Li0 O4 2.186366 1_555
Li0 O11 2.186366 1_554
Li1 O3 2.088357 1_555
Li1 O13 2.088357 1_555
Li1 O1 2.110193 1_555
Li1 O15 2.110193 1_555
Li1 O5 2.186366 1_555
Li1 O10 2.186366 1_555
Li2 O0 2.088357 1_555
Li2 O1 2.088357 1_555
Li2 O2 2.110193 1_554
Li2 O3 2.110193 1_555
Li2 O6 2.186366 1_555
Li2 O7 2.186366 1_555
Li3 O14 2.088357 1_555
Li3 O15 2.088357 1_555
Li3 O13 2.110193 1_555
Li3 O12 2.110193 1_556
Li3 O8 2.186366 1_555
Li3 O9 2.186366 1_555
Cu0 O8 1.946487 1_655
Cu0 O5 1.946487 1_565
Cu0 O3 1.974593 1_555
Cu0 O14 1.974593 1_555
Cu1 O9 1.946487 1_655
Cu1 O4 1.946487 1_546
Cu1 O15 1.974593 1_555
Cu1 O2 1.974593 1_555
Cu2 O6 1.946487 1_455
Cu2 O10 1.946487 1_565
Cu2 O13 1.974593 1_555
Cu2 O0 1.974593 1_555
Cu3 O7 1.946487 1_455
Cu3 O11 1.946487 1_544
Cu3 O1 1.974593 1_555
Cu3 O12 1.974593 1_555
O0 V0 1.773059 1_565
O1 V0 1.773059 1_555
O2 V1 1.773059 1_656
O3 V2 1.773059 1_655
O4 V0 1.901424 1_565
O4 V1 2.100673 1_655
O5 V0 1.901424 1_555
O5 V2 2.100673 1_655
O6 V1 1.901424 1_655
O6 V0 2.100673 1_565
O7 V2 1.901424 1_655
O7 V0 2.100673 1_555
O8 V1 1.901424 1_556
O8 V3 2.100673 1_565
O9 V2 1.901424 1_555
O9 V3 2.100673 1_555
O10 V3 1.901424 1_555
O10 V2 2.100673 1_555
O11 V3 1.901424 1_565
O11 V1 2.100673 1_556
O12 V1 1.773059 1_555
O13 V2 1.773059 1_555
O14 V3 1.773059 1_565
O15 V3 1.773059 1_555
