# generated using pymatgen
data_Li15(NiO2)14
_symmetry_space_group_name_H-M   'P 1'
_cell_length_a   5.20489430
_cell_length_b   5.20489430
_cell_length_c   34.16460185
_cell_angle_alpha   85.42438612
_cell_angle_beta   85.42438612
_cell_angle_gamma   32.77596214
_symmetry_Int_Tables_number   1
_chemical_formula_structural   Li15(NiO2)14
_chemical_formula_sum   'Li15 Ni14 O28'
_cell_volume   499.31670584
_cell_formula_units_Z   1
loop_
 _symmetry_equiv_pos_site_id
 _symmetry_equiv_pos_as_xyz
  1  'x, y, z'
loop_
 _atom_site_type_symbol
 _atom_site_label
 _atom_site_symmetry_multiplicity
 _atom_site_fract_x
 _atom_site_fract_y
 _atom_site_fract_z
 _atom_site_occupancy
  Li  Li0  1  0.08689000  0.08689000  0.96219800  1
  Li  Li1  1  0.04918100  0.04918100  0.90013600  1
  Li  Li2  1  0.16330400  0.16330400  0.84356500  1
  Li  Li3  1  0.71772500  0.71772500  0.78125300  1
  Li  Li4  1  0.85720500  0.85720500  0.64264700  1
  Li  Li5  1  0.28616500  0.28616500  0.71290300  1
  Li  Li6  1  0.00016500  0.00016500  0.49969800  1
  Li  Li7  1  0.42854300  0.42854300  0.57142600  1
  Li  Li8  1  0.14271800  0.14271800  0.35747800  1
  Li  Li9  1  0.57158600  0.57158600  0.42839500  1
  Li  Li10  1  0.71395200  0.71395200  0.28621100  1
  Li  Li11  1  0.28470300  0.28470300  0.21540000  1
  Li  Li12  1  0.85434900  0.85434900  0.14632600  1
  Li  Li13  1  0.52154000  0.52154000  0.02206000  1
  Li  Li14  1  0.41064400  0.41064400  0.08134200  1
  Ni  Ni0  1  0.31001200  0.31001200  0.96583200  1
  Ni  Ni1  1  0.83490900  0.83490900  0.89118500  1
  Ni  Ni2  1  0.42578200  0.42578200  0.81839100  1
  Ni  Ni3  1  0.00010700  0.00010700  0.74792700  1
  Ni  Ni4  1  0.57180400  0.57180400  0.67787900  1
  Ni  Ni5  1  0.14326500  0.14326500  0.60704100  1
  Ni  Ni6  1  0.71455600  0.71455600  0.53568100  1
  Ni  Ni7  1  0.28566800  0.28566800  0.46425200  1
  Ni  Ni8  1  0.85712000  0.85712000  0.39292300  1
  Ni  Ni9  1  0.42846600  0.42846600  0.32167900  1
  Ni  Ni10  1  0.99944900  0.99944900  0.25060300  1
  Ni  Ni11  1  0.56994700  0.56994700  0.17987000  1
  Ni  Ni12  1  0.14041600  0.14041600  0.10915800  1
  Ni  Ni13  1  0.72960700  0.72960700  0.03914000  1
  O  O0  1  0.67337100  0.67337100  0.98727000  1
  O  O1  1  0.21976500  0.21976500  0.91224600  1
  O  O2  1  0.92248500  0.92248500  0.94392600  1
  O  O3  1  0.79162200  0.79162200  0.83460300  1
  O  O4  1  0.48188400  0.48188400  0.86970000  1
  O  O5  1  0.36945300  0.36945300  0.76674400  1
  O  O6  1  0.05861100  0.05861100  0.79862700  1
  O  O7  1  0.94048500  0.94048500  0.69733900  1
  O  O8  1  0.63282000  0.63282000  0.72861000  1
  O  O9  1  0.51167800  0.51167800  0.62683700  1
  O  O10  1  0.20310100  0.20310100  0.65810500  1
  O  O11  1  0.08319200  0.08319200  0.55580400  1
  O  O12  1  0.77452700  0.77452700  0.58724800  1
  O  O13  1  0.65441200  0.65441200  0.48406300  1
  O  O14  1  0.34580500  0.34580500  0.51564700  1
  O  O15  1  0.22579300  0.22579300  0.41276900  1
  O  O16  1  0.91699100  0.91699100  0.44443200  1
  O  O17  1  0.79713500  0.79713500  0.34141200  1
  O  O18  1  0.48858000  0.48858000  0.37311500  1
  O  O19  1  0.36839800  0.36839800  0.27026400  1
  O  O20  1  0.05997400  0.05997400  0.30183600  1
  O  O21  1  0.93845600  0.93845600  0.19953200  1
  O  O22  1  0.63090200  0.63090200  0.23090400  1
  O  O23  1  0.50895000  0.50895000  0.12879700  1
  O  O24  1  0.20079400  0.20079400  0.16052500  1
  O  O25  1  0.08677200  0.08677200  0.05657200  1
  O  O26  1  0.77444100  0.77444100  0.09159800  1
  O  O27  1  0.34697100  0.34697100  0.02422900  1
loop_
_geom_bond_atom_site_label_1
_geom_bond_atom_site_label_2
_geom_bond_distance
_geom_bond_site_symmetry_2
Li0 O2 1.804428 1_445
Li0 O0 1.938868 1_455
Li0 O0 1.938868 1_545
Li0 O1 2.072865 1_555
Li1 O1 1.786239 1_555
Li1 O2 1.877334 1_445
Li1 O4 1.950820 1_545
Li1 O4 1.950820 1_455
Li1 Ni1 2.186676 1_445
Li2 O6 1.928019 1_555
Li2 O3 1.956335 1_455
Li2 O3 1.956335 1_545
Li2 O4 2.442830 1_455
Li2 O4 2.442830 1_545
Li2 O1 2.458426 1_555
Li3 O3 2.022502 1_555
Li3 O8 2.051174 1_555
Li3 O5 2.138555 1_655
Li3 O5 2.138555 1_565
Li3 O6 2.208410 1_655
Li3 O6 2.208410 1_565
Li4 O7 2.107509 1_555
Li4 O12 2.126952 1_555
Li4 O10 2.160748 1_655
Li4 O10 2.160748 1_565
Li4 O9 2.165554 1_565
Li4 O9 2.165554 1_655
Li5 O5 2.080847 1_555
Li5 O10 2.109831 1_555
Li5 O8 2.157108 1_545
Li5 O8 2.157108 1_455
Li5 O7 2.162914 1_545
Li5 O7 2.162914 1_455
Li6 O16 2.125061 1_445
Li6 O11 2.150846 1_555
Li6 O13 2.162864 1_455
Li6 O13 2.162864 1_545
Li6 O14 2.165683 1_545
Li6 O14 2.165683 1_455
Li7 O9 2.129444 1_555
Li7 O14 2.139206 1_555
Li7 O12 2.162478 1_545
Li7 O12 2.162478 1_455
Li7 O11 2.165559 1_565
Li7 O11 2.165559 1_655
Li8 O15 2.125388 1_555
Li8 O20 2.134914 1_555
Li8 O18 2.162124 1_455
Li8 O18 2.162124 1_545
Li8 O17 2.166849 1_455
Li8 O17 2.166849 1_545
Li9 O18 2.124722 1_555
Li9 O13 2.136111 1_555
Li9 O15 2.162530 1_565
Li9 O15 2.162530 1_655
Li9 O16 2.167885 1_455
Li9 O16 2.167885 1_545
Li10 O17 2.123057 1_555
Li10 O22 2.125776 1_555
Li10 O20 2.160942 1_565
Li10 O20 2.160942 1_655
Li10 O19 2.166263 1_655
Li10 O19 2.166263 1_565
Li11 O19 2.114853 1_555
Li11 O24 2.116201 1_555
Li11 O22 2.158947 1_455
Li11 O22 2.158947 1_545
Li11 O21 2.160967 1_455
Li11 O21 2.160967 1_545
Li12 O21 2.064879 1_555
Li12 O26 2.093085 1_555
Li12 O24 2.149385 1_565
Li12 O24 2.149385 1_655
Li12 O23 2.178364 1_655
Li12 O23 2.178364 1_565
Li13 O27 1.738805 1_555
Li13 O0 1.847221 1_554
Li13 O25 2.024579 1_655
Li13 O25 2.024579 1_565
Li13 Ni13 2.204539 1_555
Li14 O23 1.963959 1_555
Li14 O26 2.012533 1_545
Li14 O26 2.012533 1_455
Li14 O27 2.101918 1_555
Li14 O25 2.391461 1_565
Li14 O25 2.391461 1_655
Ni0 O2 1.959217 1_455
Ni0 O2 1.959217 1_545
Ni0 O27 2.058925 1_556
Ni0 O0 2.094975 1_545
Ni0 O0 2.094975 1_455
Ni0 O1 2.106739 1_555
Ni1 O1 1.964431 1_655
Ni1 O1 1.964431 1_565
Ni1 O3 2.015625 1_555
Ni1 O2 2.067314 1_555
Ni1 O4 2.161165 1_565
Ni1 O4 2.161165 1_655
Ni2 O4 1.884169 1_555
Ni2 O5 1.896048 1_555
Ni2 O3 2.033483 1_545
Ni2 O3 2.033483 1_455
Ni2 O6 2.055047 1_565
Ni2 O6 2.055047 1_655
Ni3 O6 1.873502 1_555
Ni3 O7 1.874241 1_445
Ni3 O5 2.032947 1_455
Ni3 O5 2.032947 1_545
Ni3 O8 2.050183 1_545
Ni3 O8 2.050183 1_455
Ni4 O8 1.884399 1_555
Ni4 O9 1.890939 1_555
Ni4 O7 2.042909 1_455
Ni4 O7 2.042909 1_545
Ni4 O10 2.045719 1_655
Ni4 O10 2.045719 1_565
Ni5 O10 1.890512 1_555
Ni5 O11 1.897051 1_555
Ni5 O12 2.045684 1_545
Ni5 O12 2.045684 1_455
Ni5 O9 2.047705 1_455
Ni5 O9 2.047705 1_545
Ni6 O12 1.907356 1_555
Ni6 O13 1.909687 1_555
Ni6 O14 2.047903 1_565
Ni6 O14 2.047903 1_655
Ni6 O11 2.049462 1_565
Ni6 O11 2.049462 1_655
Ni7 O14 1.902426 1_555
Ni7 O15 1.904256 1_555
Ni7 O13 2.045818 1_545
Ni7 O13 2.045818 1_455
Ni7 O16 2.046314 1_545
Ni7 O16 2.046314 1_455
Ni8 O16 1.905084 1_555
Ni8 O17 1.905594 1_555
Ni8 O15 2.046585 1_565
Ni8 O15 2.046585 1_655
Ni8 O18 2.047039 1_565
Ni8 O18 2.047039 1_655
Ni9 O19 1.902804 1_555
Ni9 O18 1.903665 1_555
Ni9 O17 2.045539 1_455
Ni9 O17 2.045539 1_545
Ni9 O20 2.047665 1_655
Ni9 O20 2.047665 1_565
Ni10 O21 1.895307 1_555
Ni10 O20 1.898700 1_665
Ni10 O19 2.043145 1_655
Ni10 O19 2.043145 1_565
Ni10 O22 2.045967 1_565
Ni10 O22 2.045967 1_655
Ni11 O22 1.893959 1_555
Ni11 O23 1.895388 1_555
Ni11 O24 2.038946 1_655
Ni11 O24 2.038946 1_565
Ni11 O21 2.045852 1_455
Ni11 O21 2.045852 1_545
Ni12 O24 1.902464 1_555
Ni12 O25 1.916971 1_555
Ni12 O26 2.043147 1_545
Ni12 O26 2.043147 1_455
Ni12 O23 2.045483 1_455
Ni12 O23 2.045483 1_545
Ni13 O26 1.883067 1_555
Ni13 O0 1.902981 1_554
Ni13 O27 1.921082 1_565
Ni13 O27 1.921082 1_655
Ni13 O25 2.098751 1_655
Ni13 O25 2.098751 1_565
