# generated using pymatgen
data_Li4Cr3Co3(TeO8)2
_symmetry_space_group_name_H-M   'P 1'
_cell_length_a   5.94751863
_cell_length_b   5.94751863
_cell_length_c   9.68325336
_cell_angle_alpha   89.60904056
_cell_angle_beta   89.60904056
_cell_angle_gamma   59.92956908
_symmetry_Int_Tables_number   1
_chemical_formula_structural   Li4Cr3Co3(TeO8)2
_chemical_formula_sum   'Li4 Cr3 Co3 Te2 O16'
_cell_volume   296.41584661
_cell_formula_units_Z   1
loop_
 _symmetry_equiv_pos_site_id
 _symmetry_equiv_pos_as_xyz
  1  'x, y, z'
loop_
 _atom_site_type_symbol
 _atom_site_label
 _atom_site_symmetry_multiplicity
 _atom_site_fract_x
 _atom_site_fract_y
 _atom_site_fract_z
 _atom_site_occupancy
  Li  Li0  1  0.66707000  0.66707000  0.08929100  1
  Li  Li1  1  0.99454600  0.99454600  0.01694100  1
  Li  Li2  1  0.99769100  0.99769100  0.50722700  1
  Li  Li3  1  0.33705400  0.33705400  0.59032700  1
  Cr  Cr0  1  0.33874900  0.82968400  0.78689400  1
  Cr  Cr1  1  0.82968400  0.33874900  0.78689400  1
  Cr  Cr2  1  0.17339500  0.17339500  0.28689500  1
  Co  Co0  1  0.82743700  0.82743700  0.78567900  1
  Co  Co1  1  0.17423000  0.65712300  0.28638100  1
  Co  Co2  1  0.65712300  0.17423000  0.28638100  1
  Te  Te0  1  0.67257900  0.67257900  0.51484800  1
  Te  Te1  1  0.33140100  0.33140100  0.01500100  1
  O  O0  1  0.34505300  0.83925900  0.41538600  1
  O  O1  1  0.52210400  0.52210400  0.65556800  1
  O  O2  1  0.66831100  0.66831100  0.88703200  1
  O  O3  1  0.99578000  0.99578000  0.69616400  1
  O  O4  1  0.00297100  0.00297100  0.20077700  1
  O  O5  1  0.83925900  0.34505300  0.41538600  1
  O  O6  1  0.52741500  0.96201100  0.66251000  1
  O  O7  1  0.96201100  0.52741500  0.66251000  1
  O  O8  1  0.16464700  0.16464700  0.90462000  1
  O  O9  1  0.83187300  0.83187300  0.41598700  1
  O  O10  1  0.03393500  0.47170800  0.14544800  1
  O  O11  1  0.47170800  0.03393500  0.14544800  1
  O  O12  1  0.33323600  0.33323600  0.39207200  1
  O  O13  1  0.15666000  0.66642400  0.90281500  1
  O  O14  1  0.48071700  0.48071700  0.13487400  1
  O  O15  1  0.66642400  0.15666000  0.90281500  1
loop_
_geom_bond_atom_site_label_1
_geom_bond_atom_site_label_2
_geom_bond_distance
_geom_bond_site_symmetry_2
Li0 O2 1.958466 1_554
Li0 O14 1.967061 1_555
Li0 O11 1.968132 1_565
Li0 O10 1.968132 1_655
Li1 O4 1.782929 1_665
Li1 O15 2.022026 1_564
Li1 O13 2.022026 1_654
Li1 O8 2.055620 1_664
Li2 O3 1.829476 1_555
Li2 O9 1.929826 1_555
Li2 O5 1.995600 1_565
Li2 O0 1.995600 1_655
Li3 O12 1.920466 1_555
Li3 O1 2.013589 1_555
Li3 O7 2.050509 1_455
Li3 O6 2.050509 1_545
Cr0 O2 1.957374 1_555
Cr0 O3 1.975311 1_455
Cr0 O1 2.041196 1_555
Cr0 O6 2.045185 1_555
Cr0 O8 2.070801 1_565
Cr0 O13 2.097139 1_555
Cr1 O2 1.957374 1_555
Cr1 O3 1.975311 1_545
Cr1 O1 2.041196 1_555
Cr1 O7 2.045185 1_555
Cr1 O8 2.070801 1_655
Cr1 O15 2.097139 1_555
Cr2 O12 1.943412 1_555
Cr2 O4 1.950078 1_555
Cr2 O10 2.054123 1_555
Cr2 O11 2.054123 1_555
Cr2 O0 2.118972 1_545
Cr2 O5 2.118972 1_455
Co0 O2 1.904416 1_555
Co0 O3 1.933165 1_555
Co0 O7 1.957526 1_555
Co0 O6 1.957526 1_555
Co0 O15 2.043035 1_565
Co0 O13 2.043035 1_655
Co1 O12 1.952739 1_555
Co1 O4 1.960677 1_565
Co1 O14 2.154947 1_555
Co1 O9 2.159496 1_455
Co1 O10 2.175518 1_555
Co1 O0 2.214680 1_555
Co2 O12 1.952739 1_555
Co2 O4 1.960677 1_655
Co2 O14 2.154947 1_555
Co2 O9 2.159496 1_545
Co2 O11 2.175518 1_555
Co2 O5 2.214680 1_555
O0 Te0 1.944811 1_555
O1 Te0 2.056209 1_555
O5 Te0 1.944811 1_555
O6 Te0 2.068930 1_555
O7 Te0 2.068930 1_555
O8 Te1 2.030837 1_556
O9 Te0 1.893752 1_555
O10 Te1 1.981494 1_555
O11 Te1 1.981494 1_555
O13 Te1 2.034974 1_556
O14 Te1 1.934717 1_555
O15 Te1 2.034974 1_556
