# generated using pymatgen
data_Li4Y3FeO8
_symmetry_space_group_name_H-M   'P 1'
_cell_length_a   6.19738300
_cell_length_b   10.12174692
_cell_length_c   12.37170466
_cell_angle_alpha   90.00041208
_cell_angle_beta   89.99976280
_cell_angle_gamma   89.99955312
_symmetry_Int_Tables_number   1
_chemical_formula_structural   Li4Y3FeO8
_chemical_formula_sum   'Li16 Y12 Fe4 O32'
_cell_volume   776.05652473
_cell_formula_units_Z   4
loop_
 _symmetry_equiv_pos_site_id
 _symmetry_equiv_pos_as_xyz
  1  'x, y, z'
loop_
 _atom_site_type_symbol
 _atom_site_label
 _atom_site_symmetry_multiplicity
 _atom_site_fract_x
 _atom_site_fract_y
 _atom_site_fract_z
 _atom_site_occupancy
  Li  Li0  1  0.50000000  0.99999900  0.49999600  1
  Li  Li1  1  0.50000000  0.49999900  0.74999600  1
  Li  Li2  1  0.50000000  0.99999900  0.99999600  1
  Li  Li3  1  0.50000000  0.49999900  0.24999600  1
  Li  Li4  1  0.00000100  0.50000000  0.50002000  1
  Li  Li5  1  0.00000100  0.00000000  0.75002000  1
  Li  Li6  1  0.00000100  0.50000000  0.00002000  1
  Li  Li7  1  0.00000100  0.00000000  0.25002000  1
  Li  Li8  1  0.74861800  0.74997300  0.62500500  1
  Li  Li9  1  0.74861800  0.24997300  0.87500500  1
  Li  Li10  1  0.74861800  0.74997300  0.12500500  1
  Li  Li11  1  0.74861800  0.24997300  0.37500500  1
  Li  Li12  1  0.25138500  0.25002400  0.62500800  1
  Li  Li13  1  0.25138500  0.75002400  0.87500800  1
  Li  Li14  1  0.25138500  0.25002400  0.12500800  1
  Li  Li15  1  0.25138500  0.75002400  0.37500800  1
  Y  Y0  1  0.49999900  0.00000500  0.74998000  1
  Y  Y1  1  0.49999900  0.50000500  0.99998000  1
  Y  Y2  1  0.49999900  0.00000500  0.24998000  1
  Y  Y3  1  0.49999900  0.50000500  0.49998000  1
  Y  Y4  1  0.75744800  0.75001200  0.37500600  1
  Y  Y5  1  0.75744800  0.25001200  0.62500600  1
  Y  Y6  1  0.75744800  0.75001200  0.87500600  1
  Y  Y7  1  0.75744800  0.25001200  0.12500600  1
  Y  Y8  1  0.24255500  0.24998500  0.37499000  1
  Y  Y9  1  0.24255500  0.74998500  0.62499000  1
  Y  Y10  1  0.24255500  0.24998500  0.87499000  1
  Y  Y11  1  0.24255500  0.74998500  0.12499000  1
  Fe  Fe0  1  0.00000800  0.50000200  0.25001900  1
  Fe  Fe1  1  0.00000800  0.00000200  0.50001900  1
  Fe  Fe2  1  0.00000800  0.50000200  0.75001900  1
  Fe  Fe3  1  0.00000800  0.00000200  0.00001900  1
  O  O0  1  0.50002900  0.72344200  0.50000700  1
  O  O1  1  0.50002900  0.22344200  0.75000700  1
  O  O2  1  0.50002900  0.72344200  0.00000700  1
  O  O3  1  0.50002900  0.22344200  0.25000700  1
  O  O4  1  0.49998100  0.27655400  0.50001200  1
  O  O5  1  0.49998100  0.77655400  0.75001200  1
  O  O6  1  0.49998100  0.27655400  0.00001200  1
  O  O7  1  0.49998100  0.77655400  0.25001200  1
  O  O8  1  0.99998900  0.20857600  0.50002400  1
  O  O9  1  0.99998900  0.70857600  0.75002400  1
  O  O10  1  0.99998900  0.20857600  0.00002400  1
  O  O11  1  0.99998900  0.70857600  0.25002400  1
  O  O12  1  0.99999100  0.79142400  0.50001500  1
  O  O13  1  0.99999100  0.29142400  0.75001500  1
  O  O14  1  0.99999100  0.79142400  0.00001500  1
  O  O15  1  0.99999100  0.29142400  0.25001500  1
  O  O16  1  0.76211800  0.51756000  0.37106000  1
  O  O17  1  0.76211800  0.01756000  0.62106000  1
  O  O18  1  0.76211800  0.51756000  0.87106000  1
  O  O19  1  0.76211800  0.01756000  0.12106000  1
  O  O20  1  0.76213900  0.98244600  0.37889900  1
  O  O21  1  0.76213900  0.48244600  0.62889900  1
  O  O22  1  0.76213900  0.98244600  0.87889900  1
  O  O23  1  0.76213900  0.48244600  0.12889900  1
  O  O24  1  0.23786200  0.01755400  0.37890000  1
  O  O25  1  0.23786200  0.51755400  0.62890000  1
  O  O26  1  0.23786200  0.01755400  0.87890000  1
  O  O27  1  0.23786200  0.51755400  0.12890000  1
  O  O28  1  0.23787600  0.48244400  0.37106100  1
  O  O29  1  0.23787600  0.98244400  0.62106100  1
  O  O30  1  0.23787600  0.48244400  0.87106100  1
  O  O31  1  0.23787600  0.98244400  0.12106100  1
loop_
_geom_bond_atom_site_label_1
_geom_bond_atom_site_label_2
_geom_bond_distance
_geom_bond_site_symmetry_2
Li0 O17 2.216698 1_565
Li0 O29 2.216721 1_555
Li0 O24 2.217051 1_565
Li0 O20 2.217051 1_555
Li1 O18 2.216698 1_555
Li1 O30 2.216721 1_555
Li1 O25 2.217051 1_555
Li1 O21 2.217051 1_555
Li2 O19 2.216698 1_566
Li2 O31 2.216721 1_556
Li2 O26 2.217051 1_565
Li2 O22 2.217051 1_555
Li3 O16 2.216698 1_555
Li3 O28 2.216721 1_555
Li3 O27 2.217051 1_555
Li3 O23 2.217051 1_555
Li4 O21 2.178732 1_455
Li4 O25 2.178744 1_555
Li4 O28 2.179509 1_555
Li4 O16 2.179566 1_455
Li5 O22 2.178732 1_445
Li5 O26 2.178744 1_555
Li5 O29 2.179509 1_545
Li5 O17 2.179566 1_455
Li6 O23 2.178732 1_455
Li6 O27 2.178744 1_555
Li6 O30 2.179509 1_554
Li6 O18 2.179566 1_454
Li7 O20 2.178732 1_445
Li7 O24 2.178744 1_555
Li7 O31 2.179509 1_545
Li7 O19 2.179566 1_455
Li8 O0 2.199331 1_555
Li8 O5 2.199668 1_555
Li8 O12 2.234749 1_555
Li8 O9 2.234891 1_555
Li9 O1 2.199331 1_555
Li9 O6 2.199668 1_556
Li9 O13 2.234749 1_555
Li9 O10 2.234891 1_556
Li10 O2 2.199331 1_555
Li10 O7 2.199668 1_555
Li10 O14 2.234749 1_555
Li10 O11 2.234891 1_555
Li11 O3 2.199331 1_555
Li11 O4 2.199668 1_555
Li11 O15 2.234749 1_555
Li11 O8 2.234891 1_555
Li12 O4 2.199337 1_555
Li12 O1 2.199642 1_555
Li12 O8 2.234796 1_455
Li12 O13 2.234880 1_455
Li13 O5 2.199337 1_555
Li13 O2 2.199642 1_556
Li13 O9 2.234796 1_455
Li13 O14 2.234880 1_456
Li14 O6 2.199337 1_555
Li14 O3 2.199642 1_555
Li14 O10 2.234796 1_455
Li14 O15 2.234880 1_455
Li15 O7 2.199337 1_555
Li15 O0 2.199642 1_555
Li15 O11 2.234796 1_455
Li15 O12 2.234880 1_455
Fe0 O28 2.108848 1_555
Fe0 O16 2.108924 1_455
Fe0 O27 2.109452 1_555
Fe0 O23 2.109536 1_455
Fe0 O11 2.111133 1_455
Fe0 O15 2.111174 1_455
Fe1 O29 2.108848 1_545
Fe1 O17 2.108924 1_455
Fe1 O24 2.109452 1_555
Fe1 O20 2.109536 1_445
Fe1 O8 2.111133 1_455
Fe1 O12 2.111174 1_445
Fe2 O30 2.108848 1_555
Fe2 O18 2.108924 1_455
Fe2 O25 2.109452 1_555
Fe2 O21 2.109536 1_455
Fe2 O9 2.111133 1_455
Fe2 O13 2.111174 1_455
Fe3 O31 2.108848 1_545
Fe3 O19 2.108924 1_455
Fe3 O26 2.109452 1_554
Fe3 O22 2.109536 1_444
Fe3 O10 2.111133 1_455
Fe3 O14 2.111174 1_445
O0 Y4 2.238071 1_555
O0 Y9 2.238122 1_555
O0 Y3 2.261573 1_555
O1 Y5 2.238071 1_555
O1 Y10 2.238122 1_555
O1 Y0 2.261573 1_555
O2 Y6 2.238071 1_554
O2 Y11 2.238122 1_555
O2 Y1 2.261573 1_554
O3 Y7 2.238071 1_555
O3 Y8 2.238122 1_555
O3 Y2 2.261573 1_555
O4 Y5 2.238196 1_555
O4 Y8 2.238287 1_555
O4 Y3 2.261715 1_555
O5 Y6 2.238196 1_555
O5 Y9 2.238287 1_555
O5 Y0 2.261715 1_565
O6 Y7 2.238196 1_555
O6 Y10 2.238287 1_554
O6 Y1 2.261715 1_554
O7 Y4 2.238196 1_555
O7 Y11 2.238287 1_555
O7 Y2 2.261715 1_565
O8 Y5 2.196836 1_555
O8 Y8 2.197352 1_655
O9 Y6 2.196836 1_555
O9 Y9 2.197352 1_655
O10 Y7 2.196836 1_555
O10 Y10 2.197352 1_654
O11 Y4 2.196836 1_555
O11 Y11 2.197352 1_655
O12 Y9 2.196892 1_655
O12 Y4 2.197047 1_555
O13 Y10 2.196892 1_655
O13 Y5 2.197047 1_555
O14 Y11 2.196892 1_655
O14 Y6 2.197047 1_554
O15 Y8 2.196892 1_655
O15 Y7 2.197047 1_555
O16 Y3 2.283485 1_555
O16 Y4 2.353504 1_555
O17 Y0 2.283485 1_555
O17 Y5 2.353504 1_555
O18 Y1 2.283485 1_555
O18 Y6 2.353504 1_555
O19 Y2 2.283485 1_555
O19 Y7 2.353504 1_555
O20 Y2 2.283579 1_565
O20 Y4 2.353311 1_555
O21 Y3 2.283579 1_555
O21 Y5 2.353311 1_555
O22 Y0 2.283579 1_565
O22 Y6 2.353311 1_555
O23 Y1 2.283579 1_554
O23 Y7 2.353311 1_555
O24 Y2 2.283555 1_555
O24 Y8 2.353285 1_555
O25 Y3 2.283555 1_555
O25 Y9 2.353285 1_555
O26 Y0 2.283555 1_555
O26 Y10 2.353285 1_555
O27 Y1 2.283555 1_554
O27 Y11 2.353285 1_555
O28 Y3 2.283506 1_555
O28 Y8 2.353572 1_555
O29 Y0 2.283506 1_565
O29 Y9 2.353572 1_555
O30 Y1 2.283506 1_555
O30 Y10 2.353572 1_555
O31 Y2 2.283506 1_565
O31 Y11 2.353572 1_555
