# generated using pymatgen
data_Na6Zn3As4H6O19
_symmetry_space_group_name_H-M   'P 1'
_cell_length_a   12.37328400
_cell_length_b   12.37328400
_cell_length_c   12.37328400
_cell_angle_alpha   90.00000000
_cell_angle_beta   90.00000000
_cell_angle_gamma   90.00000000
_symmetry_Int_Tables_number   1
_chemical_formula_structural   Na6Zn3As4H6O19
_chemical_formula_sum   'Na24 Zn12 As16 H24 O76'
_cell_volume   1894.32697575
_cell_formula_units_Z   4
loop_
 _symmetry_equiv_pos_site_id
 _symmetry_equiv_pos_as_xyz
  1  'x, y, z'
loop_
 _atom_site_type_symbol
 _atom_site_label
 _atom_site_symmetry_multiplicity
 _atom_site_fract_x
 _atom_site_fract_y
 _atom_site_fract_z
 _atom_site_occupancy
  Na  Na0  1  0.00264500  0.25286500  0.57877600  1
  Na  Na1  1  0.00450700  0.74237500  0.32614200  1
  Na  Na2  1  0.07877600  0.49735500  0.74713500  1
  Na  Na3  1  0.17385800  0.99549300  0.24237500  1
  Na  Na4  1  0.24237500  0.17385800  0.99549300  1
  Na  Na5  1  0.24713500  0.42122400  0.50264500  1
  Na  Na6  1  0.25286500  0.57877600  0.00264500  1
  Na  Na7  1  0.25762500  0.82614200  0.49549300  1
  Na  Na8  1  0.32614200  0.00450700  0.74237500  1
  Na  Na9  1  0.42122400  0.50264500  0.24713500  1
  Na  Na10  1  0.49549300  0.25762500  0.82614200  1
  Na  Na11  1  0.49735500  0.74713500  0.07877600  1
  Na  Na12  1  0.50264500  0.24713500  0.42122400  1
  Na  Na13  1  0.50450700  0.75762500  0.67385800  1
  Na  Na14  1  0.57877600  0.00264500  0.25286500  1
  Na  Na15  1  0.67385800  0.50450700  0.75762500  1
  Na  Na16  1  0.74237500  0.32614200  0.00450700  1
  Na  Na17  1  0.74713500  0.07877600  0.49735500  1
  Na  Na18  1  0.75286500  0.92122400  0.99735500  1
  Na  Na19  1  0.75762500  0.67385800  0.50450700  1
  Na  Na20  1  0.82614200  0.49549300  0.25762500  1
  Na  Na21  1  0.92122400  0.99735500  0.75286500  1
  Na  Na22  1  0.99549300  0.24237500  0.17385800  1
  Na  Na23  1  0.99735500  0.75286500  0.92122400  1
  Zn  Zn0  1  0.01023400  0.75224600  0.62501700  1
  Zn  Zn1  1  0.12501700  0.48976600  0.24775400  1
  Zn  Zn2  1  0.24775400  0.12501700  0.48976600  1
  Zn  Zn3  1  0.25224600  0.87498300  0.98976600  1
  Zn  Zn4  1  0.37498300  0.51023400  0.74775400  1
  Zn  Zn5  1  0.48976600  0.24775400  0.12501700  1
  Zn  Zn6  1  0.51023400  0.74775400  0.37498300  1
  Zn  Zn7  1  0.62501700  0.01023400  0.75224600  1
  Zn  Zn8  1  0.74775400  0.37498300  0.51023400  1
  Zn  Zn9  1  0.75224600  0.62501700  0.01023400  1
  Zn  Zn10  1  0.87498300  0.98976600  0.25224600  1
  Zn  Zn11  1  0.98976600  0.25224600  0.87498300  1
  As  As0  1  0.01724500  0.98275500  0.48275500  1
  As  As1  1  0.03173800  0.03173800  0.03173800  1
  As  As2  1  0.22099300  0.27900700  0.72099300  1
  As  As3  1  0.23094200  0.73094200  0.76905800  1
  As  As4  1  0.26905800  0.26905800  0.26905800  1
  As  As5  1  0.27900700  0.72099300  0.22099300  1
  As  As6  1  0.46826200  0.96826200  0.53173800  1
  As  As7  1  0.48275500  0.01724500  0.98275500  1
  As  As8  1  0.51724500  0.51724500  0.51724500  1
  As  As9  1  0.53173800  0.46826200  0.96826200  1
  As  As10  1  0.72099300  0.22099300  0.27900700  1
  As  As11  1  0.73094200  0.76905800  0.23094200  1
  As  As12  1  0.76905800  0.23094200  0.73094200  1
  As  As13  1  0.77900700  0.77900700  0.77900700  1
  As  As14  1  0.96826200  0.53173800  0.46826200  1
  As  As15  1  0.98275500  0.48275500  0.01724500  1
  H  H0  1  0.04028900  0.17874500  0.38028700  1
  H  H1  1  0.06784000  0.30132900  0.37597400  1
  H  H2  1  0.12402600  0.93216000  0.80132900  1
  H  H3  1  0.11971300  0.95971100  0.67874500  1
  H  H4  1  0.17874500  0.38028700  0.04028900  1
  H  H5  1  0.19867100  0.62402600  0.56784000  1
  H  H6  1  0.30132900  0.37597400  0.06784000  1
  H  H7  1  0.32125500  0.61971300  0.54028900  1
  H  H8  1  0.38028700  0.04028900  0.17874500  1
  H  H9  1  0.37597400  0.06784000  0.30132900  1
  H  H10  1  0.43216000  0.69867100  0.87597400  1
  H  H11  1  0.45971100  0.82125500  0.88028700  1
  H  H12  1  0.54028900  0.32125500  0.61971300  1
  H  H13  1  0.56784000  0.19867100  0.62402600  1
  H  H14  1  0.62402600  0.56784000  0.19867100  1
  H  H15  1  0.61971300  0.54028900  0.32125500  1
  H  H16  1  0.67874500  0.11971300  0.95971100  1
  H  H17  1  0.69867100  0.87597400  0.43216000  1
  H  H18  1  0.80132900  0.12402600  0.93216000  1
  H  H19  1  0.82125500  0.88028700  0.45971100  1
  H  H20  1  0.88028700  0.45971100  0.82125500  1
  H  H21  1  0.87597400  0.43216000  0.69867100  1
  H  H22  1  0.93216000  0.80132900  0.12402600  1
  H  H23  1  0.95971100  0.67874500  0.11971300  1
  O  O0  1  0.00525500  0.25106400  0.37915900  1
  O  O1  1  0.00852800  0.54630500  0.33443100  1
  O  O2  1  0.04630500  0.16556900  0.99147200  1
  O  O3  1  0.04731000  0.45269000  0.54731000  1
  O  O4  1  0.05734900  0.41619300  0.11682800  1
  O  O5  1  0.06183200  0.56183200  0.93816800  1
  O  O6  1  0.08380700  0.88317200  0.55734900  1
  O  O7  1  0.09249000  0.30869300  0.77055500  1
  O  O8  1  0.11682800  0.05734900  0.41619300  1
  O  O9  1  0.12084100  0.99474500  0.75106400  1
  O  O10  1  0.12824200  0.66876800  0.69566200  1
  O  O11  1  0.16556900  0.99147200  0.04630500  1
  O  O12  1  0.16876800  0.80433800  0.87175800  1
  O  O13  1  0.19046100  0.19046100  0.19046100  1
  O  O14  1  0.19130700  0.22944500  0.59249000  1
  O  O15  1  0.19566200  0.37175800  0.33123200  1
  O  O16  1  0.19981600  0.80018400  0.30018400  1
  O  O17  1  0.22944500  0.59249000  0.19130700  1
  O  O18  1  0.24893600  0.62084100  0.50525500  1
  O  O19  1  0.25106400  0.37915900  0.00525500  1
  O  O20  1  0.27055500  0.40751000  0.69130700  1
  O  O21  1  0.30018400  0.19981600  0.80018400  1
  O  O22  1  0.30433800  0.62824200  0.83123200  1
  O  O23  1  0.30869300  0.77055500  0.09249000  1
  O  O24  1  0.30953900  0.80953900  0.69046100  1
  O  O25  1  0.33123200  0.19566200  0.37175800  1
  O  O26  1  0.33443100  0.00852800  0.54630500  1
  O  O27  1  0.37175800  0.33123200  0.19566200  1
  O  O28  1  0.37915900  0.00525500  0.25106400  1
  O  O29  1  0.38317200  0.94265100  0.91619300  1
  O  O30  1  0.40751000  0.69130700  0.27055500  1
  O  O31  1  0.41619300  0.11682800  0.05734900  1
  O  O32  1  0.43816800  0.43816800  0.43816800  1
  O  O33  1  0.44265100  0.58380700  0.61682800  1
  O  O34  1  0.45269000  0.54731000  0.04731000  1
  O  O35  1  0.45369500  0.83443100  0.49147200  1
  O  O36  1  0.49147200  0.45369500  0.83443100  1
  O  O37  1  0.49474500  0.74893600  0.87915900  1
  O  O38  1  0.50525500  0.24893600  0.62084100  1
  O  O39  1  0.50852800  0.95369500  0.66556900  1
  O  O40  1  0.54630500  0.33443100  0.00852800  1
  O  O41  1  0.54731000  0.04731000  0.45269000  1
  O  O42  1  0.55734900  0.08380700  0.88317200  1
  O  O43  1  0.56183200  0.93816800  0.06183200  1
  O  O44  1  0.58380700  0.61682800  0.44265100  1
  O  O45  1  0.59249000  0.19130700  0.22944500  1
  O  O46  1  0.61682800  0.44265100  0.58380700  1
  O  O47  1  0.62084100  0.50525500  0.24893600  1
  O  O48  1  0.62824200  0.83123200  0.30433800  1
  O  O49  1  0.66556900  0.50852800  0.95369500  1
  O  O50  1  0.66876800  0.69566200  0.12824200  1
  O  O51  1  0.69046100  0.30953900  0.80953900  1
  O  O52  1  0.69130700  0.27055500  0.40751000  1
  O  O53  1  0.69566200  0.12824200  0.66876800  1
  O  O54  1  0.69981600  0.69981600  0.69981600  1
  O  O55  1  0.72944500  0.90751000  0.80869300  1
  O  O56  1  0.74893600  0.87915900  0.49474500  1
  O  O57  1  0.75106400  0.12084100  0.99474500  1
  O  O58  1  0.77055500  0.09249000  0.30869300  1
  O  O59  1  0.80018400  0.30018400  0.19981600  1
  O  O60  1  0.80433800  0.87175800  0.16876800  1
  O  O61  1  0.80869300  0.72944500  0.90751000  1
  O  O62  1  0.80953900  0.69046100  0.30953900  1
  O  O63  1  0.83123200  0.30433800  0.62824200  1
  O  O64  1  0.83443100  0.49147200  0.45369500  1
  O  O65  1  0.87175800  0.16876800  0.80433800  1
  O  O66  1  0.87915900  0.49474500  0.74893600  1
  O  O67  1  0.88317200  0.55734900  0.08380700  1
  O  O68  1  0.90751000  0.80869300  0.72944500  1
  O  O69  1  0.91619300  0.38317200  0.94265100  1
  O  O70  1  0.93816800  0.06183200  0.56183200  1
  O  O71  1  0.94265100  0.91619300  0.38317200  1
  O  O72  1  0.95269000  0.95269000  0.95269000  1
  O  O73  1  0.95369500  0.66556900  0.50852800  1
  O  O74  1  0.99147200  0.04630500  0.16556900  1
  O  O75  1  0.99474500  0.75106400  0.12084100  1
loop_
_geom_bond_atom_site_label_1
_geom_bond_atom_site_label_2
_geom_bond_distance
_geom_bond_site_symmetry_2
Na0 O63 2.297528 1_455
Na0 O14 2.358399 1_555
Na0 O0 2.470229 1_555
Na0 O70 2.503504 1_455
Na0 O3 2.563245 1_555
Na0 O7 2.709949 1_555
Na1 O71 2.389399 1_455
Na1 O1 2.428706 1_555
Na1 O62 2.504887 1_455
Na1 O73 2.528079 1_455
Na1 O16 2.540633 1_555
Na1 O75 2.545389 1_455
Na2 O10 2.297528 1_555
Na2 O7 2.358399 1_555
Na2 O66 2.470229 1_455
Na2 O5 2.503504 1_555
Na2 O3 2.563245 1_555
Na2 O20 2.709949 1_555
Na3 O8 2.389399 1_565
Na3 O11 2.428706 1_555
Na3 O13 2.504887 1_565
Na3 O74 2.528079 1_465
Na3 O16 2.540633 1_555
Na3 O28 2.545389 1_565
Na4 O31 2.389399 1_556
Na4 O2 2.428706 1_555
Na4 O13 2.504887 1_556
Na4 O11 2.528079 1_546
Na4 O21 2.540633 1_555
Na4 O19 2.545389 1_556
Na5 O15 2.297528 1_555
Na5 O20 2.358399 1_555
Na5 O18 2.470229 1_555
Na5 O32 2.503504 1_555
Na5 O3 2.563245 1_555
Na5 O14 2.709949 1_555
Na6 O22 2.297528 1_554
Na6 O17 2.358399 1_555
Na6 O19 2.470229 1_555
Na6 O5 2.503504 1_554
Na6 O34 2.563245 1_555
Na6 O23 2.709949 1_555
Na7 O6 2.389399 1_555
Na7 O35 2.428706 1_555
Na7 O24 2.504887 1_555
Na7 O26 2.528079 1_565
Na7 O16 2.540633 1_555
Na7 O18 2.545389 1_555
Na8 O29 2.389399 1_545
Na8 O26 2.428706 1_555
Na8 O24 2.504887 1_545
Na8 O39 2.528079 1_545
Na8 O21 2.540633 1_555
Na8 O9 2.545389 1_545
Na9 O27 2.297528 1_555
Na9 O30 2.358399 1_555
Na9 O47 2.470229 1_555
Na9 O32 2.503504 1_555
Na9 O34 2.563245 1_555
Na9 O17 2.709949 1_555
Na10 O42 2.389399 1_555
Na10 O36 2.428706 1_555
Na10 O51 2.504887 1_555
Na10 O40 2.528079 1_556
Na10 O21 2.540633 1_555
Na10 O38 2.545389 1_555
Na11 O50 2.297528 1_555
Na11 O23 2.358399 1_555
Na11 O37 2.470229 1_554
Na11 O43 2.503504 1_555
Na11 O34 2.563245 1_555
Na11 O30 2.709949 1_555
Na12 O25 2.297528 1_555
Na12 O52 2.358399 1_555
Na12 O38 2.470229 1_555
Na12 O32 2.503504 1_555
Na12 O41 2.563245 1_555
Na12 O45 2.709949 1_555
Na13 O33 2.389399 1_555
Na13 O39 2.428706 1_555
Na13 O24 2.504887 1_555
Na13 O35 2.528079 1_555
Na13 O54 2.540633 1_555
Na13 O37 2.545389 1_555
Na14 O48 2.297528 1_545
Na14 O45 2.358399 1_555
Na14 O28 2.470229 1_555
Na14 O43 2.503504 1_545
Na14 O41 2.563245 1_555
Na14 O58 2.709949 1_555
Na15 O46 2.389399 1_555
Na15 O49 2.428706 1_555
Na15 O51 2.504887 1_555
Na15 O36 2.528079 1_555
Na15 O54 2.540633 1_555
Na15 O66 2.545389 1_555
Na16 O69 2.389399 1_554
Na16 O40 2.428706 1_555
Na16 O51 2.504887 1_554
Na16 O49 2.528079 1_554
Na16 O59 2.540633 1_555
Na16 O57 2.545389 1_554
Na17 O53 2.297528 1_555
Na17 O58 2.358399 1_555
Na17 O56 2.470229 1_545
Na17 O70 2.503504 1_555
Na17 O41 2.563245 1_555
Na17 O52 2.709949 1_555
Na18 O60 2.297528 1_556
Na18 O55 2.358399 1_555
Na18 O57 2.470229 1_565
Na18 O43 2.503504 1_556
Na18 O72 2.563245 1_555
Na18 O61 2.709949 1_555
Na19 O44 2.389399 1_555
Na19 O73 2.428706 1_555
Na19 O62 2.504887 1_555
Na19 O64 2.528079 1_555
Na19 O54 2.540633 1_555
Na19 O56 2.545389 1_555
Na20 O67 2.389399 1_555
Na20 O64 2.428706 1_555
Na20 O62 2.504887 1_555
Na20 O1 2.528079 1_655
Na20 O59 2.540633 1_555
Na20 O47 2.545389 1_555
Na21 O65 2.297528 1_565
Na21 O68 2.358399 1_555
Na21 O9 2.470229 1_655
Na21 O70 2.503504 1_565
Na21 O72 2.563245 1_555
Na21 O55 2.709949 1_555
Na22 O4 2.389399 1_655
Na22 O74 2.428706 1_555
Na22 O13 2.504887 1_655
Na22 O2 2.528079 1_654
Na22 O59 2.540633 1_555
Na22 O0 2.545389 1_655
Na23 O12 2.297528 1_655
Na23 O61 2.358399 1_555
Na23 O75 2.470229 1_556
Na23 O5 2.503504 1_655
Na23 O72 2.563245 1_555
Na23 O68 2.709949 1_555
As0 O70 1.694712 1_465
As0 O6 1.745972 1_555
As0 O8 1.745972 1_565
As0 O71 1.745972 1_455
As1 O72 1.694090 1_444
As1 O74 1.738624 1_455
As1 O11 1.738624 1_545
As1 O2 1.738624 1_554
As2 O21 1.697155 1_555
As2 O7 1.743302 1_555
As2 O20 1.743302 1_555
As2 O14 1.743302 1_555
As3 O24 1.684425 1_555
As3 O12 1.741070 1_555
As3 O10 1.741070 1_555
As3 O22 1.741070 1_555
As4 O13 1.684425 1_555
As4 O25 1.741070 1_555
As4 O15 1.741070 1_555
As4 O27 1.741070 1_555
As5 O16 1.697155 1_555
As5 O23 1.743302 1_555
As5 O30 1.743302 1_555
As5 O17 1.743302 1_555
As6 O41 1.694090 1_565
As6 O26 1.738624 1_565
As6 O35 1.738624 1_555
As6 O39 1.738624 1_555
As7 O43 1.694712 1_546
As7 O42 1.745972 1_555
As7 O31 1.745972 1_556
As7 O29 1.745972 1_545
As8 O32 1.694712 1_555
As8 O46 1.745972 1_555
As8 O44 1.745972 1_555
As8 O33 1.745972 1_555
As9 O34 1.694090 1_556
As9 O40 1.738624 1_556
As9 O36 1.738624 1_555
As9 O49 1.738624 1_555
As10 O59 1.697155 1_555
As10 O58 1.743302 1_555
As10 O52 1.743302 1_555
As10 O45 1.743302 1_555
As11 O62 1.684425 1_555
As11 O60 1.741070 1_555
As11 O50 1.741070 1_555
As11 O48 1.741070 1_555
As12 O51 1.684425 1_555
As12 O65 1.741070 1_555
As12 O53 1.741070 1_555
As12 O63 1.741070 1_555
As13 O54 1.697155 1_555
As13 O68 1.743302 1_555
As13 O55 1.743302 1_555
As13 O61 1.743302 1_555
As14 O3 1.694090 1_655
As14 O1 1.738624 1_655
As14 O64 1.738624 1_555
As14 O73 1.738624 1_555
As15 O5 1.694712 1_654
As15 O67 1.745972 1_555
As15 O4 1.745972 1_655
As15 O69 1.745972 1_554
H0 O0 0.994391 1_555
H1 O0 0.993999 1_555
H2 O9 0.993999 1_555
H3 O9 0.994391 1_555
H4 O19 0.994391 1_555
H5 O18 0.993999 1_555
H6 O19 0.993999 1_555
H7 O18 0.994391 1_555
H8 O28 0.994391 1_555
H9 O28 0.993999 1_555
H10 O37 0.993999 1_555
H11 O37 0.994391 1_555
H12 O38 0.994391 1_555
H13 O38 0.993999 1_555
H14 O47 0.993999 1_555
H15 O47 0.994391 1_555
H16 O57 0.994391 1_555
H17 O56 0.993999 1_555
H18 O57 0.993999 1_555
H19 O56 0.994391 1_555
H20 O66 0.994391 1_555
H21 O66 0.993999 1_555
H22 O75 0.993999 1_555
H23 O75 0.994391 1_555
O1 Zn1 1.927980 1_555
O2 Zn11 1.927980 1_455
O4 Zn1 2.038161 1_555
O6 Zn0 2.038161 1_555
O7 Zn11 1.942396 1_455
O8 Zn2 2.038161 1_555
O10 Zn0 1.990722 1_555
O11 Zn3 1.927980 1_554
O12 Zn3 1.990722 1_555
O14 Zn2 1.942396 1_555
O15 Zn1 1.990722 1_555
O17 Zn1 1.942396 1_555
O20 Zn4 1.942396 1_555
O22 Zn4 1.990722 1_555
O23 Zn3 1.942396 1_554
O25 Zn2 1.990722 1_555
O26 Zn2 1.927980 1_555
O27 Zn5 1.990722 1_555
O29 Zn3 2.038161 1_555
O30 Zn6 1.942396 1_555
O31 Zn5 2.038161 1_555
O33 Zn4 2.038161 1_555
O35 Zn6 1.927980 1_555
O36 Zn4 1.927980 1_555
O39 Zn7 1.927980 1_565
O40 Zn5 1.927980 1_555
O42 Zn7 2.038161 1_555
O44 Zn6 2.038161 1_555
O45 Zn5 1.942396 1_555
O46 Zn8 2.038161 1_555
O48 Zn6 1.990722 1_555
O49 Zn9 1.927980 1_556
O50 Zn9 1.990722 1_555
O52 Zn8 1.942396 1_555
O53 Zn7 1.990722 1_555
O55 Zn7 1.942396 1_565
O58 Zn10 1.942396 1_545
O60 Zn10 1.990722 1_555
O61 Zn9 1.942396 1_556
O63 Zn8 1.990722 1_555
O64 Zn8 1.927980 1_555
O65 Zn11 1.990722 1_555
O67 Zn9 2.038161 1_555
O68 Zn0 1.942396 1_655
O69 Zn11 2.038161 1_555
O71 Zn10 2.038161 1_555
O73 Zn0 1.927980 1_655
O74 Zn10 1.927980 1_545
