# generated using pymatgen
data_CoPO4
_symmetry_space_group_name_H-M   'P 1'
_cell_length_a   8.30495300
_cell_length_b   8.90087300
_cell_length_c   17.79315473
_cell_angle_alpha   60.50383508
_cell_angle_beta   90.00000000
_cell_angle_gamma   90.00000000
_symmetry_Int_Tables_number   1
_chemical_formula_structural   CoPO4
_chemical_formula_sum   'Co12 P12 O48'
_cell_volume   1144.81671065
_cell_formula_units_Z   12
loop_
 _symmetry_equiv_pos_site_id
 _symmetry_equiv_pos_as_xyz
  1  'x, y, z'
loop_
 _atom_site_type_symbol
 _atom_site_label
 _atom_site_symmetry_multiplicity
 _atom_site_fract_x
 _atom_site_fract_y
 _atom_site_fract_z
 _atom_site_occupancy
  Co  Co0  1  0.71855000  0.35204400  0.59385800  1
  Co  Co1  1  0.79081300  0.68570600  0.23403300  1
  Co  Co2  1  0.71845800  0.96908600  0.92359100  1
  Co  Co3  1  0.21845800  0.03091400  0.57640900  1
  Co  Co4  1  0.29081300  0.31429400  0.26596700  1
  Co  Co5  1  0.21855000  0.64795600  0.90614200  1
  Co  Co6  1  0.78145000  0.35204400  0.09385800  1
  Co  Co7  1  0.70918700  0.68570600  0.73403300  1
  Co  Co8  1  0.78154200  0.96908600  0.42359100  1
  Co  Co9  1  0.28154200  0.03091400  0.07640900  1
  Co  Co10  1  0.20918700  0.31429400  0.76596700  1
  Co  Co11  1  0.28145000  0.64795600  0.40614200  1
  P  P0  1  0.33692200  0.34263600  0.59293800  1
  P  P1  1  0.16750700  0.68287800  0.23157000  1
  P  P2  1  0.33449700  0.96912100  0.92076600  1
  P  P3  1  0.83449700  0.03087900  0.57923400  1
  P  P4  1  0.66750700  0.31712200  0.26843000  1
  P  P5  1  0.83692200  0.65736400  0.90706200  1
  P  P6  1  0.16307800  0.34263600  0.09293800  1
  P  P7  1  0.33249300  0.68287800  0.73157000  1
  P  P8  1  0.16550300  0.96912100  0.42076600  1
  P  P9  1  0.66550300  0.03087900  0.07923400  1
  P  P10  1  0.83249300  0.31712200  0.76843000  1
  P  P11  1  0.66307800  0.65736400  0.40706200  1
  O  O0  1  0.65704900  0.83485500  0.14510300  1
  O  O1  1  0.49461800  0.60286000  0.39157800  1
  O  O2  1  0.75353400  0.49708200  0.47705200  1
  O  O3  1  0.73438400  0.14792100  0.80977500  1
  O  O4  1  0.24614300  0.94133700  0.00320700  1
  O  O5  1  0.23773700  0.26299800  0.67703500  1
  O  O6  1  0.99803000  0.71664900  0.19012000  1
  O  O7  1  0.15264200  0.61519800  0.33009600  1
  O  O8  1  0.50650700  0.89298900  0.94478100  1
  O  O9  1  0.35530900  0.20668900  0.56289600  1
  O  O10  1  0.25463500  0.54890100  0.21482400  1
  O  O11  1  0.24034300  0.87679900  0.88046400  1
  O  O12  1  0.74034300  0.12320100  0.61953600  1
  O  O13  1  0.75463500  0.45109900  0.28517600  1
  O  O14  1  0.85530900  0.79331100  0.93710400  1
  O  O15  1  0.00650700  0.10701100  0.55521900  1
  O  O16  1  0.65264200  0.38480200  0.16990400  1
  O  O17  1  0.49803000  0.28335100  0.30988000  1
  O  O18  1  0.73773700  0.73700200  0.82296500  1
  O  O19  1  0.74614300  0.05866300  0.49679300  1
  O  O20  1  0.23438400  0.85207900  0.69022500  1
  O  O21  1  0.25353400  0.50291800  0.02294800  1
  O  O22  1  0.99461800  0.39714000  0.10842200  1
  O  O23  1  0.15704900  0.16514500  0.35489700  1
  O  O24  1  0.84295100  0.83485500  0.64510300  1
  O  O25  1  0.00538200  0.60286000  0.89157800  1
  O  O26  1  0.74646600  0.49708200  0.97705200  1
  O  O27  1  0.76561600  0.14792100  0.30977500  1
  O  O28  1  0.25385700  0.94133700  0.50320700  1
  O  O29  1  0.26226300  0.26299800  0.17703500  1
  O  O30  1  0.50197000  0.71664900  0.69012000  1
  O  O31  1  0.34735800  0.61519800  0.83009600  1
  O  O32  1  0.99349300  0.89298900  0.44478100  1
  O  O33  1  0.14469100  0.20668900  0.06289600  1
  O  O34  1  0.24536500  0.54890100  0.71482400  1
  O  O35  1  0.25965700  0.87679900  0.38046400  1
  O  O36  1  0.75965700  0.12320100  0.11953600  1
  O  O37  1  0.74536500  0.45109900  0.78517600  1
  O  O38  1  0.64469100  0.79331100  0.43710400  1
  O  O39  1  0.49349300  0.10701100  0.05521900  1
  O  O40  1  0.84735800  0.38480200  0.66990400  1
  O  O41  1  0.00197000  0.28335100  0.80988000  1
  O  O42  1  0.76226300  0.73700200  0.32296500  1
  O  O43  1  0.75385700  0.05866300  0.99679300  1
  O  O44  1  0.26561600  0.85207900  0.19022500  1
  O  O45  1  0.24646600  0.50291800  0.52294800  1
  O  O46  1  0.50538200  0.39714000  0.60842200  1
  O  O47  1  0.34295100  0.16514500  0.85489700  1
loop_
_geom_bond_atom_site_label_1
_geom_bond_atom_site_label_2
_geom_bond_distance
_geom_bond_site_symmetry_2
Co0 O2 1.851601 1_555
Co0 O40 1.857081 1_555
Co0 O46 1.861408 1_555
Co0 O12 1.863879 1_555
Co1 O13 1.846004 1_555
Co1 O0 1.852499 1_555
Co1 O6 1.853657 1_555
Co1 O42 1.865493 1_555
Co2 O14 1.851195 1_555
Co2 O43 1.855066 1_565
Co2 O8 1.856855 1_555
Co2 O3 1.864971 1_565
Co3 O9 1.851195 1_555
Co3 O28 1.855066 1_545
Co3 O15 1.856855 1_555
Co3 O20 1.864971 1_545
Co4 O10 1.846004 1_555
Co4 O23 1.852499 1_555
Co4 O17 1.853657 1_555
Co4 O29 1.865493 1_555
Co5 O21 1.851601 1_556
Co5 O31 1.857081 1_555
Co5 O25 1.861408 1_555
Co5 O11 1.863879 1_555
Co6 O26 1.851601 1_554
Co6 O16 1.857081 1_555
Co6 O22 1.861408 1_555
Co6 O36 1.863879 1_555
Co7 O37 1.846004 1_555
Co7 O24 1.852499 1_555
Co7 O30 1.853657 1_555
Co7 O18 1.865493 1_555
Co8 O38 1.851195 1_555
Co8 O19 1.855066 1_565
Co8 O32 1.856855 1_555
Co8 O27 1.864971 1_565
Co9 O33 1.851195 1_555
Co9 O4 1.855066 1_545
Co9 O39 1.856855 1_555
Co9 O44 1.864971 1_545
Co10 O34 1.846004 1_555
Co10 O47 1.852499 1_555
Co10 O41 1.853657 1_555
Co10 O5 1.865493 1_555
Co11 O45 1.851601 1_555
Co11 O7 1.857081 1_555
Co11 O1 1.861408 1_555
Co11 O35 1.863879 1_555
O0 P9 1.552139 1_565
O1 P11 1.549266 1_555
O2 P11 1.549522 1_555
O3 P10 1.543442 1_555
O4 P2 1.547292 1_554
O5 P0 1.541288 1_555
O6 P1 1.548239 1_655
O7 P1 1.552902 1_555
O8 P2 1.548341 1_555
O9 P0 1.552486 1_555
O10 P1 1.544136 1_555
O11 P2 1.543118 1_555
O12 P3 1.543118 1_555
O13 P4 1.544136 1_555
O14 P5 1.552486 1_555
O15 P3 1.548341 1_455
O16 P4 1.552902 1_555
O17 P4 1.548239 1_555
O18 P5 1.541288 1_555
O19 P3 1.547292 1_555
O20 P7 1.543442 1_555
O21 P6 1.549522 1_555
O22 P6 1.549266 1_655
O23 P8 1.552139 1_545
O24 P3 1.552139 1_565
O25 P5 1.549266 1_455
O26 P5 1.549522 1_555
O27 P4 1.543442 1_555
O28 P8 1.547292 1_555
O29 P6 1.541288 1_555
O30 P7 1.548239 1_555
O31 P7 1.552902 1_555
O32 P8 1.548341 1_655
O33 P6 1.552486 1_555
O34 P7 1.544136 1_555
O35 P8 1.543118 1_555
O36 P9 1.543118 1_555
O37 P10 1.544136 1_555
O38 P11 1.552486 1_555
O39 P9 1.548341 1_555
O40 P10 1.552902 1_555
O41 P10 1.548239 1_455
O42 P11 1.541288 1_555
O43 P9 1.547292 1_556
O44 P1 1.543442 1_555
O45 P0 1.549522 1_555
O46 P0 1.549266 1_555
O47 P2 1.552139 1_545
