# generated using pymatgen
data_Ca4Bi6O13
_symmetry_space_group_name_H-M   'P 1'
_cell_length_a   9.44623430
_cell_length_b   9.44623430
_cell_length_c   9.30454716
_cell_angle_alpha   78.15041454
_cell_angle_beta   78.15041454
_cell_angle_gamma   100.99064395
_symmetry_Int_Tables_number   1
_chemical_formula_structural   Ca4Bi6O13
_chemical_formula_sum   'Ca8 Bi12 O26'
_cell_volume   771.39957518
_cell_formula_units_Z   2
loop_
 _symmetry_equiv_pos_site_id
 _symmetry_equiv_pos_as_xyz
  1  'x, y, z'
loop_
 _atom_site_type_symbol
 _atom_site_label
 _atom_site_symmetry_multiplicity
 _atom_site_fract_x
 _atom_site_fract_y
 _atom_site_fract_z
 _atom_site_occupancy
  Ca  Ca0  1  0.45106100  0.69883900  0.57027100  1
  Ca  Ca1  1  0.19773000  0.95138400  0.57044400  1
  Ca  Ca2  1  0.98373100  0.73657000  0.42980900  1
  Ca  Ca3  1  0.73657000  0.98373100  0.42980900  1
  Ca  Ca4  1  0.48309200  0.23626000  0.42954100  1
  Ca  Ca5  1  0.23626000  0.48309200  0.42954100  1
  Ca  Ca6  1  0.69883900  0.45106100  0.57027100  1
  Ca  Ca7  1  0.95138400  0.19773000  0.57044400  1
  Bi  Bi0  1  0.05341800  0.55365000  0.77331400  1
  Bi  Bi1  1  0.13909700  0.86747000  0.00097200  1
  Bi  Bi2  1  0.36802700  0.63968600  0.99914300  1
  Bi  Bi3  1  0.68871300  0.68871300  0.22203600  1
  Bi  Bi4  1  0.18662800  0.18662800  0.22288800  1
  Bi  Bi5  1  0.44005200  0.94036400  0.22665500  1
  Bi  Bi6  1  0.79821700  0.79821700  0.77714000  1
  Bi  Bi7  1  0.29995200  0.29995200  0.77813100  1
  Bi  Bi8  1  0.55365000  0.05341800  0.77331400  1
  Bi  Bi9  1  0.63968600  0.36802700  0.99914300  1
  Bi  Bi10  1  0.86747000  0.13909700  0.00097200  1
  Bi  Bi11  1  0.94036400  0.44005200  0.22665500  1
  O  O0  1  0.05612400  0.05612400  0.01622200  1
  O  O1  1  0.18206400  0.68145700  0.55758200  1
  O  O2  1  0.44617400  0.69065300  0.30164400  1
  O  O3  1  0.19144300  0.94490300  0.30448300  1
  O  O4  1  0.06271200  0.80071600  0.82123400  1
  O  O5  1  0.29788700  0.56501100  0.82014800  1
  O  O6  1  0.56412400  0.56412400  0.98374900  1
  O  O7  1  0.46024500  0.96061100  0.44249500  1
  O  O8  1  0.71592000  0.71592000  0.43595800  1
  O  O9  1  0.21511500  0.21511500  0.43749900  1
  O  O10  1  0.59738000  0.84366400  0.69515800  1
  O  O11  1  0.34181600  0.09737200  0.69843100  1
  O  O12  1  0.09737200  0.34181600  0.69843100  1
  O  O13  1  0.84366400  0.59738000  0.69515800  1
  O  O14  1  0.97474000  0.70789300  0.17986200  1
  O  O15  1  0.47328500  0.21135600  0.17870900  1
  O  O16  1  0.21135600  0.47328500  0.17870900  1
  O  O17  1  0.70789300  0.97474000  0.17986200  1
  O  O18  1  0.68145700  0.18206400  0.55758200  1
  O  O19  1  0.43435000  0.43435000  0.56407600  1
  O  O20  1  0.93362600  0.93362600  0.56250800  1
  O  O21  1  0.94490300  0.19144300  0.30448300  1
  O  O22  1  0.69065300  0.44617300  0.30164400  1
  O  O23  1  0.56501100  0.29788700  0.82014800  1
  O  O24  1  0.80071600  0.06271200  0.82123400  1
  O  O25  1  0.96061100  0.46024500  0.44249500  1
loop_
_geom_bond_atom_site_label_1
_geom_bond_atom_site_label_2
_geom_bond_distance
_geom_bond_site_symmetry_2
Ca0 O10 2.392427 1_555
Ca0 O5 2.410638 1_555
Ca0 O19 2.486538 1_555
Ca0 O7 2.490789 1_555
Ca0 O8 2.515276 1_555
Ca0 O2 2.526020 1_555
Ca0 O1 2.543562 1_555
Ca1 O11 2.407660 1_565
Ca1 O4 2.412285 1_555
Ca1 O20 2.485706 1_455
Ca1 O7 2.497349 1_555
Ca1 O3 2.500468 1_555
Ca1 O9 2.501698 1_565
Ca1 O1 2.554679 1_555
Ca2 O3 2.393337 1_655
Ca2 O14 2.412527 1_555
Ca2 O8 2.487781 1_555
Ca2 O1 2.495377 1_655
Ca2 O13 2.497399 1_555
Ca2 O20 2.500656 1_555
Ca2 O25 2.553517 1_555
Ca3 O21 2.393337 1_565
Ca3 O17 2.412527 1_555
Ca3 O8 2.487781 1_555
Ca3 O18 2.495377 1_565
Ca3 O10 2.497399 1_555
Ca3 O20 2.500656 1_555
Ca3 O7 2.553517 1_555
Ca4 O22 2.404683 1_555
Ca4 O15 2.411821 1_555
Ca4 O9 2.485435 1_555
Ca4 O18 2.494929 1_555
Ca4 O19 2.516774 1_555
Ca4 O11 2.524849 1_555
Ca4 O7 2.547011 1_545
Ca5 O2 2.404689 1_555
Ca5 O16 2.411821 1_555
Ca5 O9 2.485435 1_555
Ca5 O1 2.494929 1_555
Ca5 O19 2.516774 1_555
Ca5 O12 2.524849 1_555
Ca5 O25 2.547011 1_455
Ca6 O13 2.392427 1_555
Ca6 O23 2.410638 1_555
Ca6 O19 2.486538 1_555
Ca6 O25 2.490789 1_555
Ca6 O8 2.515276 1_555
Ca6 O22 2.526022 1_555
Ca6 O18 2.543562 1_555
Ca7 O12 2.407660 1_655
Ca7 O24 2.412285 1_555
Ca7 O20 2.485706 1_545
Ca7 O25 2.497349 1_555
Ca7 O21 2.500468 1_555
Ca7 O9 2.501698 1_655
Ca7 O18 2.554679 1_555
Bi0 O1 2.099304 1_555
Bi0 O13 2.325041 1_455
Bi0 O12 2.330786 1_555
Bi0 O5 2.423288 1_555
Bi0 O4 2.453293 1_555
Bi1 O0 2.097850 1_565
Bi1 O14 2.114029 1_455
Bi1 O4 2.114308 1_554
Bi2 O6 2.097252 1_555
Bi2 O5 2.113719 1_555
Bi2 O16 2.114582 1_556
Bi3 O8 2.118720 1_555
Bi3 O2 2.263333 1_555
Bi3 O22 2.263342 1_555
Bi3 O14 2.614513 1_555
Bi3 O17 2.614513 1_555
Bi4 O9 2.132139 1_555
Bi4 O3 2.265870 1_545
Bi4 O21 2.265870 1_455
Bi4 O15 2.611156 1_555
Bi4 O16 2.611156 1_555
Bi4 O0 2.846884 1_555
Bi5 O7 2.099373 1_555
Bi5 O3 2.322506 1_555
Bi5 O2 2.333862 1_555
Bi5 O17 2.423351 1_555
Bi5 O15 2.453058 1_565
Bi6 O20 2.130364 1_555
Bi6 O13 2.266220 1_555
Bi6 O10 2.266220 1_555
Bi6 O4 2.610318 1_655
Bi6 O24 2.610318 1_565
Bi6 O6 2.849415 1_555
Bi7 O19 2.121061 1_555
Bi7 O11 2.262556 1_555
Bi7 O12 2.262556 1_555
Bi7 O5 2.615297 1_555
Bi7 O23 2.615297 1_555
Bi8 O18 2.099304 1_555
Bi8 O10 2.325041 1_545
Bi8 O11 2.330786 1_555
Bi8 O23 2.423288 1_555
Bi8 O24 2.453293 1_555
Bi9 O6 2.097252 1_555
Bi9 O23 2.113719 1_555
Bi9 O15 2.114582 1_556
Bi10 O0 2.097850 1_655
Bi10 O17 2.114029 1_545
Bi10 O24 2.114308 1_554
Bi11 O25 2.099373 1_555
Bi11 O21 2.322506 1_555
Bi11 O22 2.333860 1_555
Bi11 O14 2.423351 1_555
Bi11 O16 2.453058 1_655
