# generated using pymatgen
data_LiTi8O13
_symmetry_space_group_name_H-M   'P 1'
_cell_length_a   6.48728373
_cell_length_b   6.48728373
_cell_length_c   6.48728369
_cell_angle_alpha   73.80100864
_cell_angle_beta   73.80100864
_cell_angle_gamma   73.80100822
_symmetry_Int_Tables_number   1
_chemical_formula_structural   LiTi8O13
_chemical_formula_sum   'Li1 Ti8 O13'
_cell_volume   245.70614264
_cell_formula_units_Z   1
loop_
 _symmetry_equiv_pos_site_id
 _symmetry_equiv_pos_as_xyz
  1  'x, y, z'
loop_
 _atom_site_type_symbol
 _atom_site_label
 _atom_site_symmetry_multiplicity
 _atom_site_fract_x
 _atom_site_fract_y
 _atom_site_fract_z
 _atom_site_occupancy
  Li  Li0  1  0.50000000  0.50000000  0.50000000  1
  Ti  Ti0  1  0.87544700  0.05021500  0.31727400  1
  Ti  Ti1  1  0.68272600  0.12455300  0.94978500  1
  Ti  Ti2  1  0.94978500  0.68272600  0.12455300  1
  Ti  Ti3  1  0.72788200  0.72788200  0.72788200  1
  Ti  Ti4  1  0.27211800  0.27211800  0.27211800  1
  Ti  Ti5  1  0.05021500  0.31727400  0.87544700  1
  Ti  Ti6  1  0.31727400  0.87544700  0.05021500  1
  Ti  Ti7  1  0.12455300  0.94978500  0.68272600  1
  O  O0  1  0.79385000  0.04700700  0.64342200  1
  O  O1  1  0.95299300  0.35657800  0.20615000  1
  O  O2  1  0.57962100  0.18026800  0.26490400  1
  O  O3  1  0.73509600  0.42037900  0.81973200  1
  O  O4  1  0.35657800  0.20615000  0.95299300  1
  O  O5  1  0.81973200  0.73509600  0.42037900  1
  O  O6  1  0.00000000  0.00000000  0.00000000  1
  O  O7  1  0.18026800  0.26490400  0.57962100  1
  O  O8  1  0.64342200  0.79385000  0.04700700  1
  O  O9  1  0.26490400  0.57962100  0.18026800  1
  O  O10  1  0.42037900  0.81973200  0.73509600  1
  O  O11  1  0.04700700  0.64342200  0.79385000  1
  O  O12  1  0.20615000  0.95299300  0.35657800  1
loop_
_geom_bond_atom_site_label_1
_geom_bond_atom_site_label_2
_geom_bond_distance
_geom_bond_site_symmetry_2
O0 Ti0 2.028297 1_555
O0 Ti1 2.068544 1_555
O0 Ti3 2.121300 1_545
O0 Ti7 2.127420 1_645
O1 Ti2 2.028297 1_555
O1 Ti0 2.068544 1_555
O1 Ti4 2.121300 1_655
O1 Ti5 2.127420 1_654
O2 Ti4 1.907082 1_555
O2 Ti0 1.952093 1_555
O2 Ti1 2.066763 1_554
O3 Ti3 1.907082 1_555
O3 Ti1 1.952093 1_555
O3 Ti5 2.066763 1_655
O4 Ti1 2.028297 1_555
O4 Ti5 2.068544 1_555
O4 Ti4 2.121299 1_556
O4 Ti6 2.127420 1_546
O5 Ti3 1.907082 1_555
O5 Ti2 1.952093 1_555
O5 Ti0 2.066763 1_565
O6 Ti0 2.072366 1_455
O6 Ti7 2.072366 1_544
O6 Ti1 2.072366 1_454
O6 Ti6 2.072366 1_545
O6 Ti5 2.072366 1_554
O6 Ti2 2.072366 1_445
O7 Ti4 1.907082 1_555
O7 Ti5 1.952093 1_555
O7 Ti7 2.066763 1_545
O8 Ti6 2.028297 1_555
O8 Ti2 2.068544 1_555
O8 Ti3 2.121299 1_554
O8 Ti1 2.127420 1_564
O9 Ti4 1.907082 1_555
O9 Ti6 1.952093 1_555
O9 Ti2 2.066763 1_455
O10 Ti3 1.907082 1_555
O10 Ti7 1.952093 1_555
O10 Ti6 2.066763 1_556
O11 Ti5 2.028297 1_555
O11 Ti7 2.068544 1_555
O11 Ti3 2.121300 1_455
O11 Ti2 2.127420 1_456
O12 Ti7 2.028297 1_555
O12 Ti6 2.068544 1_555
O12 Ti4 2.121300 1_565
O12 Ti0 2.127420 1_465
