# generated using pymatgen
data_Li2MnV2(PO4)3
_symmetry_space_group_name_H-M   'P 1'
_cell_length_a   8.63518666
_cell_length_b   8.63518666
_cell_length_c   8.55595903
_cell_angle_alpha   63.07424387
_cell_angle_beta   63.07424387
_cell_angle_gamma   62.40330578
_symmetry_Int_Tables_number   1
_chemical_formula_structural   Li2MnV2(PO4)3
_chemical_formula_sum   'Li4 Mn2 V4 P6 O24'
_cell_volume   479.66736366
_cell_formula_units_Z   2
loop_
 _symmetry_equiv_pos_site_id
 _symmetry_equiv_pos_as_xyz
  1  'x, y, z'
loop_
 _atom_site_type_symbol
 _atom_site_label
 _atom_site_symmetry_multiplicity
 _atom_site_fract_x
 _atom_site_fract_y
 _atom_site_fract_z
 _atom_site_occupancy
  Li  Li0  1  0.85876700  0.14123300  0.00000000  1
  Li  Li1  1  0.15283100  0.84716900  0.50000000  1
  Li  Li2  1  0.75160100  0.65248100  0.09720300  1
  Li  Li3  1  0.34751900  0.24839900  0.90279700  1
  Mn  Mn0  1  0.00001800  0.50767300  0.73715400  1
  Mn  Mn1  1  0.49232700  0.99998200  0.26284600  1
  V  V0  1  0.85442000  0.35549900  0.60451000  1
  V  V1  1  0.64450100  0.14558000  0.39549000  1
  V  V2  1  0.35161000  0.84877000  0.10277500  1
  V  V3  1  0.15123000  0.64839000  0.89722500  1
  P  P0  1  0.25216500  0.05742900  0.69100400  1
  P  P1  1  0.94257100  0.74783500  0.30899600  1
  P  P2  1  0.55810900  0.44189100  0.00000000  1
  P  P3  1  0.45845100  0.54154900  0.50000000  1
  P  P4  1  0.04124700  0.24829600  0.20004900  1
  P  P5  1  0.75170400  0.95875300  0.79995100  1
  O  O0  1  0.69048100  0.01465400  0.63553700  1
  O  O1  1  0.50032500  0.39132400  0.42547100  1
  O  O2  1  0.08617900  0.24442000  0.68256900  1
  O  O3  1  0.89387300  0.18387800  0.21681700  1
  O  O4  1  0.19565800  0.90259600  0.71309300  1
  O  O5  1  0.40630300  0.08241700  0.50056600  1
  O  O6  1  0.91758300  0.59369700  0.49943400  1
  O  O7  1  0.75558000  0.91382100  0.31743100  1
  O  O8  1  0.60867600  0.49967500  0.57452900  1
  O  O9  1  0.58437700  0.24603400  0.15162500  1
  O  O10  1  0.26334200  0.56148700  0.64953700  1
  O  O11  1  0.98534600  0.30951900  0.36446300  1
  O  O12  1  0.96908900  0.69000500  0.15124700  1
  O  O13  1  0.75396600  0.41562300  0.84837500  1
  O  O14  1  0.43851300  0.73665800  0.35046300  1
  O  O15  1  0.40408100  0.46650900  0.94062700  1
  O  O16  1  0.23572600  0.09601900  0.18835500  1
  O  O17  1  0.06652200  0.40268200  0.00901500  1
  O  O18  1  0.59731800  0.93347800  0.99098500  1
  O  O19  1  0.81612200  0.10612700  0.78318300  1
  O  O20  1  0.09740400  0.80434200  0.28690700  1
  O  O21  1  0.90398100  0.76427400  0.81164500  1
  O  O22  1  0.53349100  0.59591900  0.05937300  1
  O  O23  1  0.30999500  0.03091100  0.84875300  1
loop_
_geom_bond_atom_site_label_1
_geom_bond_atom_site_label_2
_geom_bond_distance
_geom_bond_site_symmetry_2
Li0 O9 2.099721 1_555
Li0 O13 2.099721 1_554
Li0 O19 2.213650 1_554
Li0 O3 2.213650 1_555
Li0 O7 2.574031 1_545
Li0 O2 2.574031 1_654
Li1 O14 2.167820 1_555
Li1 O10 2.167820 1_555
Li1 O20 2.292362 1_555
Li1 O4 2.292362 1_555
Li1 O21 2.597502 1_455
Li1 O16 2.597502 1_565
Li2 O18 2.143105 1_554
Li2 O21 2.182158 1_554
Li2 O12 2.309084 1_555
Li2 O22 2.331987 1_555
Li2 O17 2.607372 1_655
Li2 O14 2.614021 1_555
Li3 O17 2.143105 1_556
Li3 O16 2.182158 1_556
Li3 O23 2.309084 1_555
Li3 O15 2.331987 1_555
Li3 O18 2.607372 1_545
Li3 O10 2.614021 1_555
Mn0 O6 2.156006 1_455
Mn0 O2 2.240337 1_555
Mn0 O10 2.251220 1_555
Mn0 O13 2.258372 1_455
Mn0 O21 2.258659 1_455
Mn0 O17 2.319413 1_556
Mn1 O5 2.156006 1_565
Mn1 O7 2.240337 1_555
Mn1 O14 2.251220 1_555
Mn1 O9 2.258372 1_565
Mn1 O16 2.258659 1_565
Mn1 O18 2.319413 1_554
O0 P5 1.521013 1_545
O0 V1 1.968183 1_555
O1 P3 1.525093 1_555
O1 V1 1.968481 1_555
O2 P0 1.584540 1_555
O2 V0 2.055008 1_455
O3 P4 1.538752 1_655
O3 V1 2.074586 1_555
O4 P0 1.534105 1_565
O4 V3 2.132722 1_555
O5 P0 1.567338 1_555
O5 V1 2.063264 1_555
O6 P1 1.567338 1_555
O6 V0 2.063264 1_555
O7 P1 1.584540 1_555
O7 V1 2.055008 1_565
O8 P3 1.525093 1_555
O8 V0 1.968481 1_555
O9 P2 1.587064 1_555
O9 V1 2.073676 1_555
O10 P3 1.575959 1_555
O10 V3 2.213713 1_555
O11 P4 1.521013 1_655
O11 V0 1.968183 1_555
O12 P1 1.532335 1_555
O12 V3 2.101036 1_654
O13 P2 1.587064 1_556
O13 V0 2.073676 1_555
O14 P3 1.575959 1_555
O14 V2 2.213713 1_555
O15 P2 1.524622 1_556
O15 V3 2.097828 1_555
O16 P4 1.574923 1_555
O16 V2 2.206517 1_545
O17 P4 1.571458 1_555
O17 V3 2.217647 1_554
O18 P5 1.571458 1_555
O18 V2 2.217647 1_556
O19 P5 1.538752 1_545
O19 V0 2.074586 1_555
O20 P1 1.534105 1_455
O20 V2 2.132722 1_555
O21 P5 1.574923 1_555
O21 V3 2.206517 1_655
O22 P2 1.524622 1_555
O22 V2 2.097828 1_555
O23 P0 1.532335 1_555
O23 V2 2.101036 1_546
