# generated using pymatgen
data_Li2V3CuO8
_symmetry_space_group_name_H-M   'P 1'
_cell_length_a   5.91974478
_cell_length_b   5.91974478
_cell_length_c   5.91974456
_cell_angle_alpha   59.61654848
_cell_angle_beta   59.61654848
_cell_angle_gamma   59.61655246
_symmetry_Int_Tables_number   1
_chemical_formula_structural   Li2V3CuO8
_chemical_formula_sum   'Li2 V3 Cu1 O8'
_cell_volume   145.40947009
_cell_formula_units_Z   1
loop_
 _symmetry_equiv_pos_site_id
 _symmetry_equiv_pos_as_xyz
  1  'x, y, z'
loop_
 _atom_site_type_symbol
 _atom_site_label
 _atom_site_symmetry_multiplicity
 _atom_site_fract_x
 _atom_site_fract_y
 _atom_site_fract_z
 _atom_site_occupancy
  Li  Li0  1  0.87825300  0.87825300  0.87825300  1
  Li  Li1  1  0.50009700  0.50009700  0.50009700  1
  V  V0  1  0.50116600  0.50116600  0.99492000  1
  V  V1  1  0.99492000  0.50116600  0.50116600  1
  V  V2  1  0.50116600  0.99492000  0.50116600  1
  Cu  Cu0  1  0.12288200  0.12288200  0.12288200  1
  O  O0  1  0.74035300  0.74035300  0.74035300  1
  O  O1  1  0.75123400  0.28956800  0.75123400  1
  O  O2  1  0.28956800  0.75123400  0.75123400  1
  O  O3  1  0.75123400  0.75123400  0.28956800  1
  O  O4  1  0.25007100  0.25007100  0.71055600  1
  O  O5  1  0.71055600  0.25007100  0.25007100  1
  O  O6  1  0.25007100  0.71055600  0.25007100  1
  O  O7  1  0.25842600  0.25842600  0.25842600  1
loop_
_geom_bond_atom_site_label_1
_geom_bond_atom_site_label_2
_geom_bond_distance
_geom_bond_site_symmetry_2
Li0 O3 1.981741 1_556
Li0 O1 1.981742 1_565
Li0 O2 1.981742 1_655
Li0 O0 2.005374 1_555
Li1 O4 2.102111 1_555
Li1 O5 2.102112 1_555
Li1 O6 2.102112 1_555
Li1 O3 2.112071 1_555
Li1 O1 2.112071 1_555
Li1 O2 2.112071 1_555
Cu0 O7 1.971112 1_555
Cu0 O4 1.986697 1_554
Cu0 O6 1.986698 1_545
Cu0 O5 1.986698 1_455
O0 V0 1.997950 1_555
O0 V1 1.997950 1_555
O0 V2 1.997950 1_555
O1 V1 1.906134 1_555
O1 V0 1.906135 1_555
O2 V2 1.906134 1_555
O2 V0 1.906135 1_555
O3 V2 1.906135 1_555
O3 V1 1.906135 1_555
O4 V2 1.945838 1_545
O4 V1 1.945838 1_455
O5 V2 1.945838 1_545
O5 V0 1.945838 1_554
O6 V1 1.945838 1_455
O6 V0 1.945838 1_554
O7 V0 2.028999 1_554
O7 V2 2.028999 1_545
O7 V1 2.028999 1_455
