# generated using pymatgen
data_Li2TiCr3O8
_symmetry_space_group_name_H-M   'P 1'
_cell_length_a   5.92026834
_cell_length_b   10.46504361
_cell_length_c   5.91753874
_cell_angle_alpha   89.87416741
_cell_angle_beta   119.85116242
_cell_angle_gamma   106.42919467
_symmetry_Int_Tables_number   1
_chemical_formula_structural   Li2TiCr3O8
_chemical_formula_sum   'Li4 Ti2 Cr6 O16'
_cell_volume   300.73787125
_cell_formula_units_Z   2
loop_
 _symmetry_equiv_pos_site_id
 _symmetry_equiv_pos_as_xyz
  1  'x, y, z'
loop_
 _atom_site_type_symbol
 _atom_site_label
 _atom_site_symmetry_multiplicity
 _atom_site_fract_x
 _atom_site_fract_y
 _atom_site_fract_z
 _atom_site_occupancy
  Li  Li0  1  0.49999800  0.74997000  0.74996300  1
  Li  Li1  1  0.49999100  0.24998900  0.24993600  1
  Li  Li2  1  0.50004900  0.75002500  0.24996300  1
  Li  Li3  1  0.50002400  0.25000800  0.74997700  1
  Ti  Ti0  1  0.99994900  0.99994100  0.00004100  1
  Ti  Ti1  1  0.99992500  0.49993200  0.50000600  1
  Cr  Cr0  1  0.00000700  0.50001600  0.00000300  1
  Cr  Cr1  1  0.50007600  0.50002400  0.50007200  1
  Cr  Cr2  1  0.49996700  0.50000300  0.99995600  1
  Cr  Cr3  1  0.00001100  0.00001600  0.50002200  1
  Cr  Cr4  1  0.50003800  0.00002200  0.00004800  1
  Cr  Cr5  1  0.49999900  0.00000900  0.50000300  1
  O  O0  1  0.27689300  0.40038400  0.12787500  1
  O  O1  1  0.27691800  0.90037800  0.62788000  1
  O  O2  1  0.72296600  0.09954300  0.37211500  1
  O  O3  1  0.72296100  0.59952400  0.87208200  1
  O  O4  1  0.23859100  0.60626500  0.37426000  1
  O  O5  1  0.23862800  0.10631200  0.87427000  1
  O  O6  1  0.76146100  0.89372800  0.12574500  1
  O  O7  1  0.76148000  0.39378800  0.62573200  1
  O  O8  1  0.24395500  0.60802800  0.86667900  1
  O  O9  1  0.24401800  0.10807400  0.36672000  1
  O  O10  1  0.75604000  0.89195400  0.63331500  1
  O  O11  1  0.75609600  0.39200600  0.13335300  1
  O  O12  1  0.73293300  0.60309600  0.35797200  1
  O  O13  1  0.73304700  0.10313700  0.85810200  1
  O  O14  1  0.26694100  0.89688400  0.14190400  1
  O  O15  1  0.26704000  0.39693800  0.64200600  1
loop_
_geom_bond_atom_site_label_1
_geom_bond_atom_site_label_2
_geom_bond_distance
_geom_bond_site_symmetry_2
Li0 O10 2.178326 1_555
Li0 O8 2.178383 1_555
Li0 O4 2.207369 1_555
Li0 O6 2.207949 1_556
Li0 O3 2.228096 1_555
Li0 O1 2.228180 1_555
Li1 O9 2.178239 1_555
Li1 O11 2.178485 1_555
Li1 O5 2.207080 1_554
Li1 O7 2.208213 1_555
Li1 O0 2.228125 1_555
Li1 O2 2.228151 1_555
Li2 O10 2.228904 1_555
Li2 O8 2.228960 1_554
Li2 O12 2.234124 1_555
Li2 O14 2.234374 1_555
Li2 O6 2.237894 1_555
Li2 O4 2.238673 1_555
Li3 O9 2.228545 1_555
Li3 O11 2.229338 1_556
Li3 O13 2.234136 1_555
Li3 O15 2.234535 1_555
Li3 O5 2.238094 1_555
Li3 O7 2.238558 1_555
Cr0 O3 2.018502 1_454
Cr0 O0 2.018747 1_555
Cr0 O7 2.035802 1_454
Cr0 O4 2.035817 1_555
Cr0 O11 2.047601 1_455
Cr0 O8 2.047658 1_554
Cr1 O7 2.001995 1_555
Cr1 O4 2.002380 1_555
Cr1 O3 2.003157 1_555
Cr1 O0 2.004442 1_555
Cr1 O12 2.019882 1_555
Cr1 O15 2.019973 1_555
Cr2 O3 1.900907 1_555
Cr2 O0 1.901814 1_556
Cr2 O15 1.952574 1_555
Cr2 O12 1.952967 1_556
Cr2 O8 1.993127 1_555
Cr2 O11 1.993411 1_556
Cr3 O2 2.018648 1_455
Cr3 O1 2.018892 1_545
Cr3 O5 2.035950 1_555
Cr3 O6 2.036049 1_445
Cr3 O10 2.047808 1_445
Cr3 O9 2.047990 1_555
Cr4 O5 2.002448 1_554
Cr4 O6 2.002545 1_545
Cr4 O2 2.003483 1_555
Cr4 O1 2.004337 1_544
Cr4 O13 2.020012 1_554
Cr4 O14 2.020077 1_545
Cr5 O2 1.900898 1_555
Cr5 O1 1.901704 1_545
Cr5 O14 1.953452 1_545
Cr5 O13 1.953463 1_555
Cr5 O9 1.993322 1_555
Cr5 O10 1.993500 1_545
O4 Ti1 1.985466 1_455
O5 Ti0 1.985773 1_446
O6 Ti0 1.984056 1_555
O7 Ti1 1.983704 1_555
O8 Ti1 2.010127 1_455
O9 Ti0 2.010298 1_445
O10 Ti0 2.009926 1_556
O11 Ti1 2.009372 1_555
O12 Ti1 2.002314 1_555
O13 Ti0 2.002164 1_546
O14 Ti0 2.001436 1_455
O15 Ti1 2.001489 1_455
