# generated using pymatgen
data_KCuTe
_symmetry_space_group_name_H-M   'P 1'
_cell_length_a   4.43921955
_cell_length_b   4.43921948
_cell_length_c   10.05900949
_cell_angle_alpha   90.00000000
_cell_angle_beta   90.00000000
_cell_angle_gamma   120.00000059
_symmetry_Int_Tables_number   1
_chemical_formula_structural   KCuTe
_chemical_formula_sum   'K2 Cu2 Te2'
_cell_volume   171.67185067
_cell_formula_units_Z   2
loop_
 _symmetry_equiv_pos_site_id
 _symmetry_equiv_pos_as_xyz
  1  'x, y, z'
loop_
 _atom_site_type_symbol
 _atom_site_label
 _atom_site_symmetry_multiplicity
 _atom_site_fract_x
 _atom_site_fract_y
 _atom_site_fract_z
 _atom_site_occupancy
  K  K0  1  -0.00000000  -0.00000000  -0.00000000  1
  K  K1  1  -0.00000000  -0.00000000  0.50000000  1
  Cu  Cu0  1  0.33333300  0.66666700  0.75000000  1
  Cu  Cu1  1  0.66666700  0.33333300  0.25000000  1
  Te  Te0  1  0.33333300  0.66666700  0.25000000  1
  Te  Te1  1  0.66666700  0.33333300  0.75000000  1
loop_
_geom_bond_atom_site_label_1
_geom_bond_atom_site_label_2
_geom_bond_distance
_geom_bond_site_symmetry_2
K0 Te1 3.590662 1_454
K0 Te0 3.590662 1_545
K0 Te0 3.590665 1_555
K0 Te1 3.590665 1_444
K0 Te0 3.590665 1_445
K0 Te1 3.590665 1_554
K1 Te0 3.590662 1_545
K1 Te1 3.590662 1_455
K1 Te1 3.590665 1_445
K1 Te0 3.590665 1_555
K1 Te1 3.590665 1_555
K1 Te0 3.590665 1_445
Cu0 Te1 2.562982 1_565
Cu0 Te1 2.562982 1_455
Cu0 Te1 2.562990 1_555
Cu0 K1 3.590662 1_565
Cu0 K0 3.590662 1_566
Cu0 K0 3.590665 1_556
Cu0 K1 3.590665 1_555
Cu0 K0 3.590665 1_666
Cu0 K1 3.590665 1_665
Cu1 Te0 2.562982 1_545
Cu1 Te0 2.562982 1_655
Cu1 Te0 2.562990 1_555
Cu1 K0 3.590662 1_655
Cu1 K1 3.590662 1_655
Cu1 K0 3.590665 1_665
Cu1 K1 3.590665 1_665
Cu1 K0 3.590665 1_555
Cu1 K1 3.590665 1_555
