# generated using pymatgen
data_LiFe2P3O11
_symmetry_space_group_name_H-M   'P 1'
_cell_length_a   7.23479770
_cell_length_b   7.23479770
_cell_length_c   8.84212625
_cell_angle_alpha   70.11795481
_cell_angle_beta   70.11795481
_cell_angle_gamma   74.01656211
_symmetry_Int_Tables_number   1
_chemical_formula_structural   LiFe2P3O11
_chemical_formula_sum   'Li2 Fe4 P6 O22'
_cell_volume   402.55962207
_cell_formula_units_Z   2
loop_
 _symmetry_equiv_pos_site_id
 _symmetry_equiv_pos_as_xyz
  1  'x, y, z'
loop_
 _atom_site_type_symbol
 _atom_site_label
 _atom_site_symmetry_multiplicity
 _atom_site_fract_x
 _atom_site_fract_y
 _atom_site_fract_z
 _atom_site_occupancy
  Li  Li0  1  0.51640000  0.98599400  0.26223000  1
  Li  Li1  1  0.01400600  0.48360000  0.73777000  1
  Fe  Fe0  1  0.88735400  0.35742000  0.20288400  1
  Fe  Fe1  1  0.35709200  0.88626400  0.70399700  1
  Fe  Fe2  1  0.64258000  0.11264600  0.79711600  1
  Fe  Fe3  1  0.11373600  0.64290800  0.29600300  1
  P  P0  1  0.55015800  0.67628600  0.03486900  1
  P  P1  1  0.95716300  0.04283700  0.00000000  1
  P  P2  1  0.67837900  0.54973100  0.53401400  1
  P  P3  1  0.32371400  0.44984200  0.96513100  1
  P  P4  1  0.04238500  0.95761500  0.50000000  1
  P  P5  1  0.45026900  0.32162100  0.46598600  1
  O  O0  1  0.98771400  0.88026000  0.15836100  1
  O  O1  1  0.88005000  0.98990100  0.65776400  1
  O  O2  1  0.75754700  0.61645900  0.05986600  1
  O  O3  1  0.53322800  0.84820600  0.87415100  1
  O  O4  1  0.38491300  0.72549500  0.18680500  1
  O  O5  1  0.95476700  0.25689800  0.00710200  1
  O  O6  1  0.61620700  0.76060900  0.55355600  1
  O  O7  1  0.51252100  0.48747900  0.00000000  1
  O  O8  1  0.85001400  0.53256300  0.37339700  1
  O  O9  1  0.72860800  0.38730700  0.68635400  1
  O  O10  1  0.25668000  0.95459600  0.50762600  1
  O  O11  1  0.74310200  0.04523300  0.99289800  1
  O  O12  1  0.27450500  0.61508700  0.81319500  1
  O  O13  1  0.15179400  0.46677200  0.12584900  1
  O  O14  1  0.48977800  0.51022200  0.50000000  1
  O  O15  1  0.38354100  0.24245300  0.94013400  1
  O  O16  1  0.04540400  0.74332000  0.49237400  1
  O  O17  1  0.61269300  0.27139200  0.31364600  1
  O  O18  1  0.46743700  0.14998600  0.62660300  1
  O  O19  1  0.23939100  0.38379300  0.44644400  1
  O  O20  1  0.11974000  0.01228600  0.84163900  1
  O  O21  1  0.01009900  0.11995000  0.34223600  1
loop_
_geom_bond_atom_site_label_1
_geom_bond_atom_site_label_2
_geom_bond_distance
_geom_bond_site_symmetry_2
Li0 O10 2.327470 1_555
Li0 O11 2.362485 1_564
Li0 O17 2.569339 1_565
Li1 O16 2.327470 1_555
Li1 O5 2.362485 1_456
Li1 O9 2.569339 1_455
Fe0 O21 1.929427 1_655
Fe0 O5 1.962215 1_555
Fe0 O2 2.054238 1_555
Fe0 O17 2.058639 1_555
Fe0 O13 2.081044 1_655
Fe0 O8 2.187603 1_555
Fe1 O20 1.931905 1_565
Fe1 O10 1.965535 1_555
Fe1 O12 2.025611 1_555
Fe1 O6 2.073176 1_555
Fe1 O18 2.079704 1_565
Fe1 O3 2.189134 1_555
Fe2 O1 1.929427 1_545
Fe2 O11 1.962215 1_555
Fe2 O15 2.054238 1_555
Fe2 O9 2.058639 1_555
Fe2 O3 2.081044 1_545
Fe2 O18 2.187603 1_555
Fe3 O0 1.931905 1_455
Fe3 O16 1.965535 1_555
Fe3 O4 2.025611 1_555
Fe3 O19 2.073176 1_555
Fe3 O8 2.079704 1_455
Fe3 O13 2.189134 1_555
O0 P1 1.529747 1_565
O1 P4 1.528417 1_655
O2 P0 1.513371 1_555
O3 P0 1.553641 1_556
O4 P0 1.536009 1_555
O5 P1 1.566302 1_555
O6 P2 1.519320 1_555
O7 P3 1.607329 1_554
O7 P0 1.607329 1_555
O8 P2 1.552373 1_555
O9 P2 1.532484 1_555
O10 P4 1.568490 1_555
O11 P1 1.566302 1_556
O12 P3 1.536009 1_555
O13 P3 1.553641 1_554
O14 P2 1.608225 1_555
O14 P5 1.608225 1_555
O15 P3 1.513371 1_555
O16 P4 1.568490 1_555
O17 P5 1.532484 1_555
O18 P5 1.552373 1_555
O19 P5 1.519320 1_555
O20 P1 1.529747 1_456
O21 P4 1.528417 1_545
