# generated using pymatgen
data_Ba4Ti11O26
_symmetry_space_group_name_H-M   'P 1'
_cell_length_a   7.84610900
_cell_length_b   7.97803672
_cell_length_c   10.03883251
_cell_angle_alpha   91.86954306
_cell_angle_beta   112.97652546
_cell_angle_gamma   104.19041174
_symmetry_Int_Tables_number   1
_chemical_formula_structural   Ba4Ti11O26
_chemical_formula_sum   'Ba4 Ti11 O26'
_cell_volume   555.06263014
_cell_formula_units_Z   1
loop_
 _symmetry_equiv_pos_site_id
 _symmetry_equiv_pos_as_xyz
  1  'x, y, z'
loop_
 _atom_site_type_symbol
 _atom_site_label
 _atom_site_symmetry_multiplicity
 _atom_site_fract_x
 _atom_site_fract_y
 _atom_site_fract_z
 _atom_site_occupancy
  Ba  Ba0  1  0.91665100  0.09057300  0.77240000  1
  Ba  Ba1  1  0.40204600  0.09471800  0.77191600  1
  Ba  Ba2  1  0.08784900  0.89380500  0.20998500  1
  Ba  Ba3  1  0.56851200  0.89377000  0.21006800  1
  Ti  Ti0  1  0.35682000  0.23700100  0.09491900  1
  Ti  Ti1  1  0.85701600  0.23964800  0.09683500  1
  Ti  Ti2  1  0.05392200  0.33528900  0.44263300  1
  Ti  Ti3  1  0.55868900  0.33735300  0.44616000  1
  Ti  Ti4  1  0.25477700  0.49776600  0.78171800  1
  Ti  Ti5  1  0.77542200  0.49548200  0.78171000  1
  Ti  Ti6  1  0.24614300  0.52050400  0.22933700  1
  Ti  Ti7  1  0.74624500  0.52560000  0.23460200  1
  Ti  Ti8  1  0.95184500  0.66588700  0.56944000  1
  Ti  Ti9  1  0.44438600  0.65597100  0.56253000  1
  Ti  Ti10  1  0.63879600  0.75703600  0.90000200  1
  O  O0  1  0.26002700  0.02230800  0.00748600  1
  O  O1  1  0.75050900  0.00165200  0.00010700  1
  O  O2  1  0.93550300  0.14619500  0.29439400  1
  O  O3  1  0.43586000  0.14976400  0.29984600  1
  O  O4  1  0.12415700  0.25960600  0.61655900  1
  O  O5  1  0.62285300  0.25763700  0.61941600  1
  O  O6  1  0.29090100  0.34396800  0.91417400  1
  O  O7  1  0.79489000  0.33765300  0.91615800  1
  O  O8  1  0.12375700  0.27478900  0.11418200  1
  O  O9  1  0.62800100  0.27496800  0.11364800  1
  O  O10  1  0.31856300  0.40293000  0.43635600  1
  O  O11  1  0.81248100  0.39667400  0.42518400  1
  O  O12  1  0.99494300  0.50546600  0.73792000  1
  O  O13  1  0.50836600  0.51966000  0.75720900  1
  O  O14  1  0.98808600  0.47519900  0.24116100  1
  O  O15  1  0.49681500  0.48478800  0.24800700  1
  O  O16  1  0.18656800  0.59665600  0.57369400  1
  O  O17  1  0.68618800  0.59612800  0.57543100  1
  O  O18  1  0.38549300  0.71900200  0.88725500  1
  O  O19  1  0.86059700  0.71620000  0.88678100  1
  O  O20  1  0.70994100  0.66390200  0.08802300  1
  O  O21  1  0.21720300  0.66208400  0.10320400  1
  O  O22  1  0.37703400  0.73760300  0.38830300  1
  O  O23  1  0.87225300  0.72740300  0.37603400  1
  O  O24  1  0.56505900  0.85227300  0.70418000  1
  O  O25  1  0.05195300  0.87489700  0.66536400  1
loop_
_geom_bond_atom_site_label_1
_geom_bond_atom_site_label_2
_geom_bond_distance
_geom_bond_site_symmetry_2
Ba0 O25 2.628267 1_645
Ba0 O24 2.749946 1_545
Ba0 O4 2.822521 1_655
Ba0 O5 2.885300 1_555
Ba0 O6 2.893785 1_655
Ba0 O7 2.948758 1_555
Ba0 O0 2.994003 1_656
Ba0 O1 3.067042 1_556
Ba0 O19 3.225934 1_545
Ba0 O12 3.270675 1_555
Ba0 O8 3.274169 1_656
Ba1 O25 2.643275 1_545
Ba1 O24 2.765078 1_545
Ba1 O4 2.793226 1_555
Ba1 O5 2.851500 1_555
Ba1 O6 2.896792 1_555
Ba1 O7 2.959251 1_555
Ba1 O0 2.999782 1_556
Ba1 O1 3.080695 1_556
Ba1 O18 3.239657 1_545
Ba1 O9 3.264944 1_556
Ba1 O13 3.309589 1_555
Ba2 O21 2.690124 1_555
Ba2 O3 2.768125 1_565
Ba2 O20 2.829820 1_455
Ba2 O2 2.839159 1_465
Ba2 O22 2.875167 1_555
Ba2 O0 2.934193 1_565
Ba2 O23 2.940638 1_455
Ba2 O1 3.011005 1_465
Ba2 O19 3.107905 1_454
Ba2 O8 3.197710 1_565
Ba2 O14 3.292676 1_455
Ba3 O21 2.688731 1_555
Ba3 O3 2.778684 1_565
Ba3 O20 2.829873 1_555
Ba3 O2 2.864634 1_565
Ba3 O22 2.887425 1_555
Ba3 O0 2.925057 1_565
Ba3 O23 2.968569 1_555
Ba3 O1 3.014650 1_565
Ba3 O18 3.098147 1_554
Ba3 O9 3.201963 1_565
Ba3 O15 3.233616 1_555
O0 Ti0 1.739158 1_555
O1 Ti1 1.927356 1_555
O1 Ti10 1.983035 1_544
O2 Ti2 1.854871 1_655
O2 Ti1 2.058282 1_555
O3 Ti3 1.835835 1_555
O3 Ti0 2.100042 1_555
O4 Ti2 1.788174 1_555
O4 Ti4 2.218698 1_555
O5 Ti3 1.796827 1_555
O5 Ti5 2.202276 1_555
O6 Ti4 1.826669 1_555
O6 Ti0 1.967954 1_556
O7 Ti5 1.864070 1_555
O7 Ti1 1.930784 1_556
O8 Ti1 1.978299 1_455
O8 Ti0 2.003686 1_555
O8 Ti6 2.040566 1_555
O9 Ti1 1.954118 1_555
O9 Ti0 2.005555 1_555
O9 Ti7 2.094248 1_555
O10 Ti2 2.040005 1_555
O10 Ti3 2.043265 1_555
O10 Ti9 2.129366 1_555
O10 Ti6 2.233463 1_555
O11 Ti2 2.015083 1_655
O11 Ti3 2.026161 1_555
O11 Ti7 2.145390 1_555
O11 Ti8 2.305467 1_555
O12 Ti5 1.921548 1_555
O12 Ti4 1.927873 1_655
O12 Ti8 2.126007 1_555
O13 Ti4 2.065067 1_555
O13 Ti5 2.070532 1_555
O13 Ti10 2.101423 1_555
O13 Ti9 2.212357 1_555
O14 Ti7 2.011179 1_555
O14 Ti6 2.018895 1_655
O14 Ti1 2.097590 1_555
O14 Ti2 2.284245 1_655
O15 Ti7 1.962202 1_555
O15 Ti6 1.993762 1_555
O15 Ti0 2.212591 1_555
O15 Ti3 2.292366 1_555
O16 Ti9 2.009879 1_555
O16 Ti8 2.034077 1_455
O16 Ti4 2.170692 1_555
O16 Ti2 2.202320 1_555
O17 Ti9 2.024945 1_555
O17 Ti8 2.046770 1_555
O17 Ti5 2.162259 1_555
O17 Ti3 2.178566 1_555
O18 Ti4 1.852514 1_555
O18 Ti10 1.887225 1_555
O19 Ti5 1.847015 1_555
O19 Ti10 1.899419 1_555
O20 Ti7 1.842998 1_555
O20 Ti10 1.974506 1_554
O21 Ti6 1.710361 1_555
O22 Ti9 1.812181 1_555
O22 Ti6 2.066236 1_555
O23 Ti7 1.886780 1_555
O23 Ti8 1.914780 1_555
O24 Ti9 1.856823 1_555
O24 Ti10 2.049768 1_555
O25 Ti8 1.728392 1_455
