# generated using pymatgen
data_Fe6O5F7
_symmetry_space_group_name_H-M   'P 1'
_cell_length_a   9.25522000
_cell_length_b   4.77745900
_cell_length_c   4.78726818
_cell_angle_alpha   86.83087238
_cell_angle_beta   90.00000000
_cell_angle_gamma   90.00000000
_symmetry_Int_Tables_number   1
_chemical_formula_structural   Fe6O5F7
_chemical_formula_sum   'Fe6 O5 F7'
_cell_volume   211.35221146
_cell_formula_units_Z   1
loop_
 _symmetry_equiv_pos_site_id
 _symmetry_equiv_pos_as_xyz
  1  'x, y, z'
loop_
 _atom_site_type_symbol
 _atom_site_label
 _atom_site_symmetry_multiplicity
 _atom_site_fract_x
 _atom_site_fract_y
 _atom_site_fract_z
 _atom_site_occupancy
  Fe  Fe0  1  0.00000000  0.00831200  0.99114100  1
  Fe  Fe1  1  0.34910900  0.97172000  0.00988000  1
  Fe  Fe2  1  0.65089100  0.97172000  0.00988000  1
  Fe  Fe3  1  0.15829700  0.50838800  0.48576800  1
  Fe  Fe4  1  0.84170300  0.50838800  0.48576800  1
  Fe  Fe5  1  0.50000000  0.54549900  0.50117900  1
  O  O0  1  0.50000000  0.79711000  0.79811600  1
  O  O1  1  0.00000000  0.70491600  0.29030900  1
  O  O2  1  0.32711700  0.68778800  0.31536700  1
  O  O3  1  0.67288300  0.68778800  0.31536700  1
  O  O4  1  0.00000000  0.30285900  0.69169400  1
  F  F0  1  0.16396500  0.80494400  0.80122600  1
  F  F1  1  0.83603500  0.80494400  0.80122600  1
  F  F2  1  0.33001400  0.29696700  0.70570900  1
  F  F3  1  0.66998600  0.29696700  0.70570900  1
  F  F4  1  0.16638400  0.19374900  0.18814900  1
  F  F5  1  0.83361600  0.19374900  0.18814900  1
  F  F6  1  0.50000000  0.21419400  0.21536300  1
loop_
_geom_bond_atom_site_label_1
_geom_bond_atom_site_label_2
_geom_bond_distance
_geom_bond_site_symmetry_2
Fe0 O4 1.952473 1_555
Fe0 O1 1.980556 1_546
Fe1 O0 1.940981 1_554
Fe1 O2 1.949580 1_555
Fe2 O0 1.940981 1_554
Fe2 O3 1.949580 1_555
Fe3 O2 1.940111 1_555
Fe3 O1 1.951001 1_555
Fe3 O4 1.993841 1_555
Fe4 O3 1.940111 1_555
Fe4 O1 1.951001 1_655
Fe4 O4 1.993841 1_655
Fe5 O0 1.911699 1_555
Fe5 O2 1.935648 1_555
Fe5 O3 1.935648 1_555
F0 Fe0 2.042337 1_565
F0 Fe3 2.127733 1_555
F0 Fe1 2.157973 1_556
F1 Fe0 2.042337 1_665
F1 Fe4 2.127733 1_555
F1 Fe2 2.157973 1_556
F2 Fe1 2.077472 1_546
F2 Fe3 2.130038 1_555
F2 Fe5 2.171432 1_555
F3 Fe2 2.077472 1_546
F3 Fe4 2.130038 1_555
F3 Fe5 2.171432 1_555
F4 Fe0 2.034228 1_554
F4 Fe3 2.128836 1_555
F4 Fe1 2.193992 1_545
F5 Fe0 2.034228 1_654
F5 Fe4 2.128836 1_555
F5 Fe2 2.193992 1_545
F6 Fe1 2.094247 1_545
F6 Fe2 2.094247 1_545
F6 Fe5 2.148693 1_555
