# generated using pymatgen
data_B8O
_symmetry_space_group_name_H-M   'P 1'
_cell_length_a   9.09966592
_cell_length_b   9.09966592
_cell_length_c   5.14194516
_cell_angle_alpha   87.86117069
_cell_angle_beta   87.86117069
_cell_angle_gamma   71.37467803
_symmetry_Int_Tables_number   1
_chemical_formula_structural   B8O
_chemical_formula_sum   'B48 O6'
_cell_volume   403.04817612
_cell_formula_units_Z   6
loop_
 _symmetry_equiv_pos_site_id
 _symmetry_equiv_pos_as_xyz
  1  'x, y, z'
loop_
 _atom_site_type_symbol
 _atom_site_label
 _atom_site_symmetry_multiplicity
 _atom_site_fract_x
 _atom_site_fract_y
 _atom_site_fract_z
 _atom_site_occupancy
  B  B0  1  0.10079800  0.10079800  0.12257700  1
  B  B1  1  0.00035500  0.00035500  0.66445700  1
  B  B2  1  0.50309300  0.99627600  0.16453400  1
  B  B3  1  0.66864500  0.99629000  0.33004300  1
  B  B4  1  0.16684300  0.00037900  0.83108300  1
  B  B5  1  0.33834600  0.10208800  0.36115800  1
  B  B6  1  0.50081400  0.16701300  0.33139300  1
  B  B7  1  0.00037900  0.16684300  0.83108300  1
  B  B8  1  0.10208800  0.33834600  0.36115800  1
  B  B9  1  0.59922400  0.10203800  0.62235500  1
  B  B10  1  0.89933000  0.16212200  0.14012800  1
  B  B11  1  0.39361400  0.17639300  0.64251000  1
  B  B12  1  0.49761400  0.33155200  0.16302900  1
  B  B13  1  0.99627600  0.50309300  0.16453400  1
  B  B14  1  0.66176100  0.40081400  0.14157500  1
  B  B15  1  0.17639300  0.39361400  0.64251000  1
  B  B16  1  0.16701300  0.50081400  0.33139300  1
  B  B17  1  0.33155200  0.49761400  0.16302900  1
  B  B18  1  0.83787800  0.10067000  0.85987200  1
  B  B19  1  0.49986800  0.49986800  0.33526400  1
  B  B20  1  0.99629000  0.66864500  0.33004300  1
  B  B21  1  0.89796200  0.40077600  0.37764500  1
  B  B22  1  0.39366600  0.39366600  0.85991900  1
  B  B23  1  0.59918600  0.33823900  0.85842500  1
  B  B24  1  0.10203800  0.59922400  0.62235500  1
  B  B25  1  0.60633400  0.60633400  0.14008100  1
  B  B26  1  0.40081400  0.66176100  0.14157500  1
  B  B27  1  0.00371000  0.33135500  0.66995700  1
  B  B28  1  0.50013200  0.50013200  0.66473600  1
  B  B29  1  0.16212200  0.89933000  0.14012800  1
  B  B30  1  0.66844800  0.50238600  0.83697100  1
  B  B31  1  0.83298700  0.49918600  0.66860700  1
  B  B32  1  0.82360700  0.60638600  0.35749000  1
  B  B33  1  0.33823900  0.59918600  0.85842500  1
  B  B34  1  0.00372400  0.49690700  0.83546600  1
  B  B35  1  0.50238600  0.66844800  0.83697100  1
  B  B36  1  0.40077600  0.89796200  0.37764500  1
  B  B37  1  0.10067000  0.83787800  0.85987200  1
  B  B38  1  0.60638600  0.82360700  0.35749000  1
  B  B39  1  0.89791200  0.66165400  0.63884200  1
  B  B40  1  0.49918600  0.83298700  0.66860700  1
  B  B41  1  0.99962100  0.83315700  0.16891700  1
  B  B42  1  0.66165400  0.89791200  0.63884200  1
  B  B43  1  0.33135500  0.00371000  0.66995700  1
  B  B44  1  0.83315700  0.99962100  0.16891700  1
  B  B45  1  0.49690700  0.00372400  0.83546600  1
  B  B46  1  0.99964500  0.99964500  0.33554300  1
  B  B47  1  0.89920200  0.89920200  0.87742300  1
  O  O0  1  0.19042700  0.19042700  0.23914300  1
  O  O1  1  0.81010200  0.31057700  0.25896000  1
  O  O2  1  0.68942300  0.18989800  0.74104000  1
  O  O3  1  0.31057700  0.81010200  0.25896000  1
  O  O4  1  0.18989800  0.68942300  0.74104000  1
  O  O5  1  0.80957300  0.80957300  0.76085700  1
loop_
_geom_bond_atom_site_label_1
_geom_bond_atom_site_label_2
_geom_bond_distance
_geom_bond_site_symmetry_2
B0 O0 1.479024 1_555
B0 B4 1.768312 1_554
B0 B7 1.768312 1_554
B0 B46 1.812279 1_445
B1 B46 1.691772 1_445
B1 B18 1.767580 1_455
B1 B37 1.767580 1_545
B1 B4 1.768153 1_555
B1 B7 1.768153 1_555
B1 B47 1.812279 1_445
B2 B45 1.693194 1_564
B2 B3 1.757708 1_555
B2 B6 1.796657 1_565
B2 B5 1.798391 1_565
B2 B36 1.802974 1_555
B2 B38 1.829354 1_555
B3 B44 1.692007 1_555
B3 B6 1.797323 1_565
B3 B9 1.798052 1_565
B3 B42 1.802603 1_555
B3 B38 1.831984 1_555
B4 B43 1.692007 1_555
B4 B7 1.767314 1_555
B5 O0 1.478450 1_555
B5 B6 1.758527 1_555
B6 B9 1.756593 1_555
B8 O0 1.478450 1_555
B9 O2 1.475897 1_555
B10 O1 1.476982 1_555
B10 B44 1.765454 1_545
B10 B46 1.767580 1_545
B10 B7 1.812080 1_654
B11 B5 1.774139 1_555
B11 B9 1.775178 1_555
B11 B45 1.829354 1_555
B11 B43 1.831984 1_555
B11 B6 1.832640 1_555
B11 B15 2.306191 1_555
B11 B22 2.307443 1_555
B12 B6 1.693917 1_555
B12 B17 1.763046 1_555
B12 B14 1.795642 1_555
B12 B23 1.797748 1_554
B12 B19 1.803684 1_555
B12 B22 1.829241 1_554
B13 B34 1.693194 1_654
B13 B20 1.757708 1_555
B13 B16 1.796657 1_655
B13 B8 1.798391 1_655
B13 B21 1.802974 1_555
B13 B32 1.829354 1_555
B14 O1 1.475294 1_555
B14 B19 1.756101 1_555
B14 B25 1.774448 1_555
B14 B30 1.797748 1_554
B15 B8 1.774139 1_555
B15 B24 1.775178 1_555
B15 B34 1.829354 1_555
B15 B27 1.831984 1_555
B15 B16 1.832640 1_555
B15 B22 2.307443 1_555
B16 B17 1.693917 1_555
B16 B24 1.756593 1_555
B16 B8 1.758527 1_555
B16 B20 1.797323 1_455
B17 B26 1.795642 1_555
B17 B33 1.797748 1_554
B17 B19 1.803684 1_555
B17 B22 1.829241 1_554
B18 O2 1.476982 1_555
B18 B7 1.765454 1_655
B18 B44 1.812080 1_546
B19 B28 1.694311 1_555
B19 B26 1.756101 1_555
B19 B25 1.827237 1_555
B20 B41 1.692007 1_555
B20 B24 1.798052 1_655
B20 B39 1.802603 1_555
B20 B32 1.831984 1_555
B21 O1 1.475897 1_555
B21 B31 1.756593 1_555
B21 B32 1.775178 1_555
B21 B27 1.798052 1_655
B22 B23 1.774448 1_555
B22 B33 1.774448 1_555
B22 B28 1.827237 1_555
B23 O2 1.475294 1_555
B23 B28 1.756101 1_555
B23 B30 1.795642 1_555
B24 O4 1.475897 1_555
B24 B34 1.802974 1_555
B25 B26 1.774448 1_555
B25 B35 1.829241 1_554
B25 B30 1.829241 1_554
B25 B38 2.307443 1_555
B25 B32 2.307443 1_555
B26 O3 1.475294 1_555
B26 B35 1.797748 1_554
B27 B7 1.692007 1_555
B27 B34 1.757708 1_555
B27 B31 1.797323 1_455
B27 B8 1.802603 1_555
B28 B33 1.756101 1_555
B28 B35 1.803684 1_555
B28 B30 1.803684 1_555
B29 O3 1.476982 1_555
B29 B41 1.765454 1_455
B29 B46 1.767580 1_455
B29 B4 1.812080 1_564
B30 B31 1.693917 1_555
B30 B35 1.763046 1_555
B31 B39 1.758527 1_555
B31 B34 1.796657 1_655
B31 B32 1.832640 1_555
B32 B39 1.774139 1_555
B32 B38 2.306191 1_555
B33 O4 1.475294 1_555
B33 B35 1.795642 1_555
B34 B39 1.798391 1_455
B35 B40 1.693917 1_555
B36 O3 1.475897 1_555
B36 B40 1.756593 1_555
B36 B38 1.775178 1_555
B36 B43 1.798052 1_565
B37 O4 1.476982 1_555
B37 B4 1.765454 1_565
B37 B41 1.812080 1_456
B38 B42 1.774139 1_555
B38 B40 1.832640 1_555
B39 O5 1.478450 1_555
B40 B42 1.758527 1_555
B40 B45 1.796657 1_565
B40 B43 1.797323 1_565
B41 B44 1.767314 1_555
B41 B46 1.768153 1_555
B41 B47 1.768312 1_554
B42 O5 1.478450 1_555
B42 B45 1.798391 1_565
B43 B45 1.757708 1_555
B43 B5 1.802603 1_555
B44 B46 1.768153 1_555
B44 B47 1.768312 1_554
B45 B9 1.802974 1_555
B47 O5 1.479024 1_555
