# generated using pymatgen
data_Li2MnVP2(O4F)2
_symmetry_space_group_name_H-M   'P 1'
_cell_length_a   5.23497700
_cell_length_b   7.49181085
_cell_length_c   14.94234695
_cell_angle_alpha   94.48574625
_cell_angle_beta   92.00840111
_cell_angle_gamma   109.55851571
_symmetry_Int_Tables_number   1
_chemical_formula_structural   Li2MnVP2(O4F)2
_chemical_formula_sum   'Li6 Mn3 V3 P6 O24 F6'
_cell_volume   549.35468587
_cell_formula_units_Z   3
loop_
 _symmetry_equiv_pos_site_id
 _symmetry_equiv_pos_as_xyz
  1  'x, y, z'
loop_
 _atom_site_type_symbol
 _atom_site_label
 _atom_site_symmetry_multiplicity
 _atom_site_fract_x
 _atom_site_fract_y
 _atom_site_fract_z
 _atom_site_occupancy
  Li  Li0  1  0.93647800  0.01807500  0.20543200  1
  Li  Li1  1  0.73093300  0.64952500  0.46145000  1
  Li  Li2  1  0.39728200  0.31858600  0.12786000  1
  Li  Li3  1  0.60271800  0.68141400  0.87214000  1
  Li  Li4  1  0.26906700  0.35047500  0.53855000  1
  Li  Li5  1  0.06352200  0.98192500  0.79456800  1
  Mn  Mn0  1  0.00000000  0.00000000  0.00000000  1
  Mn  Mn1  1  0.66680600  0.16638000  0.66664200  1
  Mn  Mn2  1  0.33319400  0.83362000  0.33335800  1
  V  V0  1  0.00000000  0.50000000  0.00000000  1
  V  V1  1  0.66684900  0.66662500  0.66655200  1
  V  V2  1  0.33315100  0.33337500  0.33344800  1
  P  P0  1  0.89430300  0.45174200  0.21361600  1
  P  P1  1  0.76998000  0.21417500  0.45386700  1
  P  P2  1  0.55782300  0.11762400  0.88071600  1
  P  P3  1  0.44217700  0.88237600  0.11928400  1
  P  P4  1  0.23002000  0.78582500  0.54613300  1
  P  P5  1  0.10569700  0.54825800  0.78638400  1
  O  O0  1  0.98618500  0.34661400  0.73697300  1
  O  O1  1  0.85922400  0.20982100  0.55448900  1
  O  O2  1  0.75838900  0.00183900  0.88880200  1
  O  O3  1  0.65235400  0.01315900  0.40411300  1
  O  O4  1  0.80629900  0.45908700  0.11408200  1
  O  O5  1  0.95413100  0.67267600  0.58278400  1
  O  O6  1  0.90643000  0.66270400  0.77971900  1
  O  O7  1  0.61910200  0.33735200  0.25063700  1
  O  O8  1  0.67434500  0.31646800  0.92898700  1
  O  O9  1  0.57203200  0.32908100  0.44710000  1
  O  O10  1  0.47301400  0.11984200  0.77968800  1
  O  O11  1  0.72006900  0.99896300  0.08288200  1
  O  O12  1  0.27993100  0.00103700  0.91711800  1
  O  O13  1  0.52698600  0.88015800  0.22031200  1
  O  O14  1  0.42796800  0.67091900  0.55290000  1
  O  O15  1  0.32565500  0.68353200  0.07101300  1
  O  O16  1  0.38089800  0.66264800  0.74936300  1
  O  O17  1  0.09357000  0.33729600  0.22028100  1
  O  O18  1  0.04586900  0.32732400  0.41721600  1
  O  O19  1  0.19370100  0.54091300  0.88591800  1
  O  O20  1  0.34764600  0.98684200  0.59588700  1
  O  O21  1  0.24161100  0.99816100  0.11119800  1
  O  O22  1  0.14077600  0.79017900  0.44551100  1
  O  O23  1  0.01381500  0.65338600  0.26302700  1
  F  F0  1  0.83926400  0.70353200  0.97470100  1
  F  F1  1  0.82580900  0.94597300  0.69206700  1
  F  F2  1  0.50808600  0.38749200  0.64150500  1
  F  F3  1  0.49191400  0.61250800  0.35849500  1
  F  F4  1  0.17419100  0.05402700  0.30793300  1
  F  F5  1  0.16073600  0.29646800  0.02529900  1
loop_
_geom_bond_atom_site_label_1
_geom_bond_atom_site_label_2
_geom_bond_distance
_geom_bond_site_symmetry_2
Li0 O13 2.073343 1_545
Li0 O11 2.088579 1_545
Li0 O21 2.200196 1_645
Li0 O17 2.243302 1_655
Li1 O22 2.081278 1_655
Li1 O5 2.085424 1_555
Li1 O14 2.167082 1_555
Li1 O9 2.251939 1_555
Li2 O4 2.071436 1_555
Li2 O7 2.105921 1_555
Li2 O17 2.174274 1_555
Li2 O21 2.251950 1_545
Li3 O19 2.071436 1_555
Li3 O16 2.105921 1_555
Li3 O6 2.174274 1_555
Li3 O2 2.251950 1_565
Li4 O1 2.081278 1_455
Li4 O18 2.085424 1_555
Li4 O9 2.167082 1_555
Li4 O14 2.251939 1_555
Li5 O10 2.073343 1_565
Li5 O12 2.088579 1_565
Li5 O2 2.200196 1_465
Li5 O6 2.243302 1_455
Mn0 O11 1.949976 1_445
Mn0 O12 1.949976 1_554
Mn0 O21 2.056381 1_545
Mn0 O2 2.056381 1_454
Mn1 O0 1.966314 1_555
Mn1 O20 1.966620 1_545
Mn1 O1 1.978161 1_555
Mn1 O10 1.994864 1_555
Mn2 O23 1.966314 1_555
Mn2 O3 1.966623 1_565
Mn2 O22 1.978161 1_555
Mn2 O13 1.994864 1_555
O0 P5 1.542412 1_655
O1 P1 1.564791 1_555
O2 P2 1.576948 1_555
O3 P1 1.540043 1_555
O4 P0 1.552095 1_555
O4 V0 2.005696 1_655
O5 P4 1.553309 1_655
O5 V1 1.981342 1_555
O6 P5 1.561462 1_655
O6 V1 2.077759 1_555
O7 P0 1.555425 1_555
O7 V2 1.969419 1_555
O8 P2 1.517966 1_555
O8 V0 1.999598 1_656
O9 P1 1.558415 1_555
O9 V2 2.082182 1_555
O10 P2 1.561459 1_555
O11 P3 1.566563 1_555
O12 P2 1.566563 1_555
O13 P3 1.561459 1_555
O14 P4 1.558415 1_555
O14 V1 2.082182 1_555
O15 P3 1.517966 1_555
O15 V0 1.999598 1_555
O16 P5 1.555425 1_555
O16 V1 1.969419 1_555
O17 P0 1.561462 1_455
O17 V2 2.077759 1_555
O18 P1 1.553309 1_455
O18 V2 1.981342 1_555
O19 P5 1.552095 1_555
O19 V0 2.005696 1_556
O20 P4 1.540049 1_555
O21 P3 1.576948 1_555
O22 P4 1.564791 1_555
O23 P0 1.542412 1_455
F0 Li3 1.897187 1_555
F0 V0 2.025575 1_656
F0 Mn0 2.092653 1_666
F1 Li5 1.882661 1_655
F1 V1 1.976021 1_555
F1 Mn1 2.135420 1_565
F2 Li4 1.890823 1_555
F2 V1 1.973849 1_555
F2 Mn1 2.138355 1_555
F3 Li1 1.890823 1_555
F3 V2 1.973849 1_555
F3 Mn2 2.138355 1_555
F4 Li0 1.882661 1_455
F4 V2 1.976021 1_555
F4 Mn2 2.135420 1_545
F5 Li2 1.897187 1_555
F5 V0 2.025575 1_555
F5 Mn0 2.092653 1_555
