# generated using pymatgen
data_Ca3Ta2O8
_symmetry_space_group_name_H-M   'P 1'
_cell_length_a   6.71165986
_cell_length_b   6.71165986
_cell_length_c   9.17540931
_cell_angle_alpha   72.59708106
_cell_angle_beta   72.59708106
_cell_angle_gamma   82.83668948
_symmetry_Int_Tables_number   1
_chemical_formula_structural   Ca3Ta2O8
_chemical_formula_sum   'Ca6 Ta4 O16'
_cell_volume   376.06371248
_cell_formula_units_Z   2
loop_
 _symmetry_equiv_pos_site_id
 _symmetry_equiv_pos_as_xyz
  1  'x, y, z'
loop_
 _atom_site_type_symbol
 _atom_site_label
 _atom_site_symmetry_multiplicity
 _atom_site_fract_x
 _atom_site_fract_y
 _atom_site_fract_z
 _atom_site_occupancy
  Ca  Ca0  1  0.60369300  0.73431500  0.49982800  1
  Ca  Ca1  1  0.72406300  0.27593700  0.75000000  1
  Ca  Ca2  1  0.26568500  0.39630700  0.00017200  1
  Ca  Ca3  1  0.73431500  0.60369300  0.99982800  1
  Ca  Ca4  1  0.27593700  0.72406300  0.25000000  1
  Ca  Ca5  1  0.39630700  0.26568500  0.50017200  1
  Ta  Ta0  1  0.21760800  0.93373000  0.87906600  1
  Ta  Ta1  1  0.93373000  0.21760800  0.37906600  1
  Ta  Ta2  1  0.06627000  0.78239200  0.62093400  1
  Ta  Ta3  1  0.78239200  0.06627000  0.12093400  1
  O  O0  1  0.06142100  0.69119900  0.85615300  1
  O  O1  1  0.69119900  0.06142100  0.35615300  1
  O  O2  1  0.82087900  0.62506500  0.67887000  1
  O  O3  1  0.40106300  0.71672900  0.96913900  1
  O  O4  1  0.94473800  0.10668800  0.88757900  1
  O  O5  1  0.62506500  0.82087900  0.17887000  1
  O  O6  1  0.71672900  0.40106300  0.46913900  1
  O  O7  1  0.89331200  0.05526200  0.61242100  1
  O  O8  1  0.10668800  0.94473800  0.38757900  1
  O  O9  1  0.28327100  0.59893700  0.53086100  1
  O  O10  1  0.37493500  0.17912100  0.82113000  1
  O  O11  1  0.05526200  0.89331200  0.11242100  1
  O  O12  1  0.59893700  0.28327100  0.03086100  1
  O  O13  1  0.17912100  0.37493500  0.32113000  1
  O  O14  1  0.30880100  0.93857900  0.64384700  1
  O  O15  1  0.93857900  0.30880100  0.14384700  1
loop_
_geom_bond_atom_site_label_1
_geom_bond_atom_site_label_2
_geom_bond_distance
_geom_bond_site_symmetry_2
Ca0 O1 2.242739 1_565
Ca0 O6 2.341650 1_555
Ca0 O9 2.344748 1_555
Ca0 O2 2.409675 1_555
Ca0 O14 2.526948 1_555
Ca0 O5 2.788426 1_555
Ca1 O7 2.217781 1_555
Ca1 O4 2.217781 1_555
Ca1 O2 2.355878 1_555
Ca1 O10 2.355878 1_555
Ca1 O6 2.473802 1_555
Ca1 O12 2.473802 1_556
Ca2 O15 2.242739 1_455
Ca2 O12 2.341650 1_555
Ca2 O3 2.344748 1_554
Ca2 O10 2.409675 1_554
Ca2 O0 2.526948 1_554
Ca2 O13 2.788426 1_555
Ca3 O0 2.242739 1_655
Ca3 O3 2.341650 1_555
Ca3 O12 2.344748 1_556
Ca3 O5 2.409675 1_556
Ca3 O15 2.526948 1_556
Ca3 O2 2.788426 1_555
Ca4 O11 2.217781 1_555
Ca4 O8 2.217781 1_555
Ca4 O5 2.355878 1_555
Ca4 O13 2.355878 1_555
Ca4 O3 2.473802 1_554
Ca4 O9 2.473802 1_555
Ca5 O14 2.242739 1_545
Ca5 O9 2.341650 1_555
Ca5 O6 2.344748 1_555
Ca5 O13 2.409675 1_555
Ca5 O1 2.526948 1_555
Ca5 O10 2.788426 1_555
O0 Ta2 2.050954 1_555
O0 Ta0 2.134212 1_555
O1 Ta3 2.050954 1_555
O1 Ta1 2.134212 1_555
O2 Ta2 1.919466 1_655
O3 Ta0 1.939526 1_555
O4 Ta0 2.036214 1_645
O4 Ta3 2.043526 1_556
O5 Ta3 1.919466 1_565
O6 Ta1 1.939526 1_555
O7 Ta2 2.036214 1_645
O7 Ta1 2.043526 1_555
O8 Ta1 2.036214 1_465
O8 Ta2 2.043526 1_555
O9 Ta2 1.939526 1_555
O10 Ta0 1.919466 1_545
O11 Ta3 2.036214 1_465
O11 Ta0 2.043526 1_554
O12 Ta3 1.939526 1_555
O13 Ta1 1.919466 1_455
O14 Ta0 2.050954 1_555
O14 Ta2 2.134212 1_555
O15 Ta1 2.050954 1_555
O15 Ta3 2.134212 1_555
