# generated using pymatgen
data_Cs2Ba2O3
_symmetry_space_group_name_H-M   'P 1'
_cell_length_a   7.87042400
_cell_length_b   7.67768400
_cell_length_c   7.71110534
_cell_angle_alpha   62.48281953
_cell_angle_beta   90.00000000
_cell_angle_gamma   90.00000000
_symmetry_Int_Tables_number   1
_chemical_formula_structural   Cs2Ba2O3
_chemical_formula_sum   'Cs4 Ba4 O6'
_cell_volume   413.24357192
_cell_formula_units_Z   2
loop_
 _symmetry_equiv_pos_site_id
 _symmetry_equiv_pos_as_xyz
  1  'x, y, z'
loop_
 _atom_site_type_symbol
 _atom_site_label
 _atom_site_symmetry_multiplicity
 _atom_site_fract_x
 _atom_site_fract_y
 _atom_site_fract_z
 _atom_site_occupancy
  Cs  Cs0  1  0.35055100  0.07658800  0.17631300  1
  Cs  Cs1  1  0.14944900  0.57658800  0.17631300  1
  Cs  Cs2  1  0.85055100  0.42341200  0.82368700  1
  Cs  Cs3  1  0.64944900  0.92341200  0.82368700  1
  Ba  Ba0  1  0.62583000  0.43807300  0.32796500  1
  Ba  Ba1  1  0.12583000  0.06192700  0.67203500  1
  Ba  Ba2  1  0.87417000  0.93807300  0.32796500  1
  Ba  Ba3  1  0.37417000  0.56192700  0.67203500  1
  O  O0  1  0.50000000  0.50000000  0.00000000  1
  O  O1  1  0.00000000  0.00000000  0.00000000  1
  O  O2  1  0.91089500  0.24775900  0.39093600  1
  O  O3  1  0.41089500  0.25224100  0.60906400  1
  O  O4  1  0.58910500  0.74775900  0.39093600  1
  O  O5  1  0.08910500  0.75224100  0.60906400  1
loop_
_geom_bond_atom_site_label_1
_geom_bond_atom_site_label_2
_geom_bond_distance
_geom_bond_site_symmetry_2
Cs0 O4 2.962611 1_545
Cs0 O0 3.117025 1_555
Cs0 O1 3.247292 1_555
Cs1 O2 2.962611 1_455
Cs1 O1 3.117025 1_565
Cs1 O0 3.247292 1_555
Cs2 O5 2.962611 1_655
Cs2 O1 3.117025 1_656
Cs2 O0 3.247292 1_556
Cs3 O3 2.962611 1_565
Cs3 O0 3.117025 1_556
Cs3 O1 3.247292 1_666
Ba0 O0 2.547834 1_555
Ba0 O3 2.595766 1_555
Ba0 O2 2.597857 1_555
Ba0 O4 2.653202 1_555
Ba1 O1 2.547834 1_556
Ba1 O2 2.595766 1_455
Ba1 O3 2.597857 1_555
Ba1 O5 2.653202 1_545
Ba2 O1 2.547834 1_665
Ba2 O5 2.595766 1_655
Ba2 O4 2.597857 1_555
Ba2 O2 2.653202 1_565
Ba3 O0 2.547834 1_556
Ba3 O4 2.595766 1_555
Ba3 O5 2.597857 1_555
Ba3 O3 2.653202 1_555
