# generated using pymatgen
data_Fe(CO3)2
_symmetry_space_group_name_H-M   'P 1'
_cell_length_a   4.78512593
_cell_length_b   22.62364172
_cell_length_c   4.78662276
_cell_angle_alpha   83.99033653
_cell_angle_beta   60.00636650
_cell_angle_gamma   83.92127153
_symmetry_Int_Tables_number   1
_chemical_formula_structural   Fe(CO3)2
_chemical_formula_sum   'Fe4 C8 O24'
_cell_volume   445.46032380
_cell_formula_units_Z   4
loop_
 _symmetry_equiv_pos_site_id
 _symmetry_equiv_pos_as_xyz
  1  'x, y, z'
loop_
 _atom_site_type_symbol
 _atom_site_label
 _atom_site_symmetry_multiplicity
 _atom_site_fract_x
 _atom_site_fract_y
 _atom_site_fract_z
 _atom_site_occupancy
  Fe  Fe0  1  0.12502300  0.62491100  0.12472300  1
  Fe  Fe1  1  0.37502100  0.87462400  0.37555500  1
  Fe  Fe2  1  0.62478500  0.12535300  0.62485000  1
  Fe  Fe3  1  0.87511300  0.37507700  0.87503000  1
  C  C0  1  0.94102300  0.17645000  0.94136500  1
  C  C1  1  0.19126100  0.42616500  0.19156800  1
  C  C2  1  0.44126800  0.67604100  0.44128500  1
  C  C3  1  0.69125200  0.92588700  0.69193600  1
  C  C4  1  0.30863100  0.07421400  0.30829500  1
  C  C5  1  0.55887400  0.32396100  0.55844300  1
  C  C6  1  0.80885300  0.57378500  0.80819600  1
  C  C7  1  0.05894200  0.82351000  0.05890300  1
  O  O0  1  0.55629200  0.07371900  0.34713400  1
  O  O1  1  0.80669300  0.32346300  0.59713600  1
  O  O2  1  0.05653400  0.57329900  0.84709100  1
  O  O3  1  0.30675600  0.82306400  0.09737700  1
  O  O4  1  0.90224600  0.17694100  0.22728200  1
  O  O5  1  0.15258000  0.42665200  0.47739900  1
  O  O6  1  0.40259500  0.67650000  0.72708700  1
  O  O7  1  0.65244400  0.92631800  0.97775800  1
  O  O8  1  0.22694400  0.17694400  0.69377000  1
  O  O9  1  0.47715400  0.42665000  0.94391200  1
  O  O10  1  0.72708500  0.67650200  0.19368800  1
  O  O11  1  0.97711200  0.92631800  0.44436800  1
  O  O12  1  0.02273800  0.07373500  0.55582500  1
  O  O13  1  0.27299800  0.32347600  0.80615000  1
  O  O14  1  0.52287100  0.57331200  0.05575300  1
  O  O15  1  0.77312000  0.82308100  0.30656300  1
  O  O16  1  0.34743300  0.07372600  0.02245100  1
  O  O17  1  0.59750300  0.32347500  0.27262100  1
  O  O18  1  0.84770000  0.57331200  0.52226800  1
  O  O19  1  0.09737900  0.82306500  0.77310800  1
  O  O20  1  0.69325100  0.17695600  0.90258000  1
  O  O21  1  0.94348100  0.42666200  0.15284500  1
  O  O22  1  0.19351800  0.67650700  0.40259000  1
  O  O23  1  0.44352800  0.92634400  0.65309700  1
loop_
_geom_bond_atom_site_label_1
_geom_bond_atom_site_label_2
_geom_bond_distance
_geom_bond_site_symmetry_2
Fe0 O14 2.019316 1_555
Fe0 O2 2.019467 1_554
Fe0 O10 2.019577 1_455
Fe0 O22 2.020142 1_555
Fe0 O18 2.020639 1_455
Fe0 O6 2.021050 1_554
Fe1 O15 2.019624 1_555
Fe1 O3 2.020185 1_555
Fe1 O19 2.020542 1_555
Fe1 O23 2.020794 1_555
Fe1 O11 2.020801 1_455
Fe1 O7 2.022604 1_554
Fe2 O8 2.019259 1_555
Fe2 O20 2.019646 1_555
Fe2 O12 2.019866 1_655
Fe2 O0 2.020130 1_555
Fe2 O4 2.020727 1_555
Fe2 O16 2.021169 1_556
Fe3 O21 2.019442 1_556
Fe3 O9 2.019554 1_555
Fe3 O13 2.019587 1_655
Fe3 O1 2.020318 1_555
Fe3 O5 2.020739 1_655
Fe3 O17 2.021138 1_556
C0 O8 1.286808 1_655
C0 O4 1.287015 1_556
C0 O20 1.287260 1_555
C1 O5 1.286776 1_555
C1 O9 1.286836 1_554
C1 O21 1.287140 1_455
C2 O10 1.286493 1_555
C2 O6 1.286587 1_555
C2 O22 1.286990 1_555
C3 O7 1.286365 1_555
C3 O11 1.286547 1_555
C3 O23 1.287304 1_555
C4 O12 1.286598 1_555
C4 O16 1.286615 1_555
C4 O0 1.286915 1_555
C5 O17 1.286827 1_555
C5 O13 1.286882 1_555
C5 O1 1.287237 1_555
C6 O18 1.286895 1_555
C6 O14 1.286902 1_556
C6 O2 1.287193 1_655
C7 O15 1.286608 1_455
C7 O3 1.286703 1_555
C7 O19 1.286960 1_554
