# generated using pymatgen
data_INO3
_symmetry_space_group_name_H-M   'P 1'
_cell_length_a   4.34246900
_cell_length_b   7.42284800
_cell_length_c   12.09624500
_cell_angle_alpha   90.00000000
_cell_angle_beta   90.00000000
_cell_angle_gamma   90.00000000
_symmetry_Int_Tables_number   1
_chemical_formula_structural   INO3
_chemical_formula_sum   'I4 N4 O12'
_cell_volume   389.90415997
_cell_formula_units_Z   4
loop_
 _symmetry_equiv_pos_site_id
 _symmetry_equiv_pos_as_xyz
  1  'x, y, z'
loop_
 _atom_site_type_symbol
 _atom_site_label
 _atom_site_symmetry_multiplicity
 _atom_site_fract_x
 _atom_site_fract_y
 _atom_site_fract_z
 _atom_site_occupancy
  I  I0  1  0.24535600  0.97106300  0.78554500  1
  I  I1  1  0.25464400  0.02893700  0.28554500  1
  I  I2  1  0.74535600  0.52893700  0.21445500  1
  I  I3  1  0.75464400  0.47106300  0.71445500  1
  N  N0  1  0.16073200  0.98539100  0.53782500  1
  N  N1  1  0.33926800  0.01460900  0.03782500  1
  N  N2  1  0.66073200  0.51460900  0.46217500  1
  N  N3  1  0.83926800  0.48539100  0.96217500  1
  O  O0  1  0.03439300  0.93532000  0.44519600  1
  O  O1  1  0.04184300  0.89889700  0.62271900  1
  O  O2  1  0.13591200  0.90278500  0.04575100  1
  O  O3  1  0.36408800  0.09721500  0.54575100  1
  O  O4  1  0.45815700  0.10110300  0.12271900  1
  O  O5  1  0.46560700  0.06468000  0.94519600  1
  O  O6  1  0.53439300  0.56468000  0.55480400  1
  O  O7  1  0.54184300  0.60110300  0.37728100  1
  O  O8  1  0.63591200  0.59721500  0.95424900  1
  O  O9  1  0.86408800  0.40278500  0.45424900  1
  O  O10  1  0.95815700  0.39889700  0.87728100  1
  O  O11  1  0.96560700  0.43532000  0.05480400  1
loop_
_geom_bond_atom_site_label_1
_geom_bond_atom_site_label_2
_geom_bond_distance
_geom_bond_site_symmetry_2
I0 O1 2.224235 1_555
I0 O5 2.264311 1_565
I1 O4 2.224235 1_555
I1 O0 2.264311 1_545
I2 O7 2.224235 1_555
I2 O11 2.264311 1_555
I3 O10 2.224235 1_555
I3 O6 2.264311 1_555
N0 O3 1.215725 1_565
N0 O0 1.301754 1_555
N0 O1 1.316534 1_555
N1 O2 1.215725 1_545
N1 O5 1.301754 1_554
N1 O4 1.316534 1_555
N2 O9 1.215725 1_555
N2 O6 1.301754 1_555
N2 O7 1.316534 1_555
N3 O8 1.215725 1_555
N3 O11 1.301754 1_556
N3 O10 1.316534 1_555
