# generated using pymatgen
data_K2LiFeO3
_symmetry_space_group_name_H-M   'P 1'
_cell_length_a   6.07419200
_cell_length_b   9.04702740
_cell_length_c   9.04703048
_cell_angle_alpha   85.52570978
_cell_angle_beta   109.61644310
_cell_angle_gamma   70.38349366
_symmetry_Int_Tables_number   1
_chemical_formula_structural   K2LiFeO3
_chemical_formula_sum   'K8 Li4 Fe4 O12'
_cell_volume   430.81849413
_cell_formula_units_Z   4
loop_
 _symmetry_equiv_pos_site_id
 _symmetry_equiv_pos_as_xyz
  1  'x, y, z'
loop_
 _atom_site_type_symbol
 _atom_site_label
 _atom_site_symmetry_multiplicity
 _atom_site_fract_x
 _atom_site_fract_y
 _atom_site_fract_z
 _atom_site_occupancy
  K  K0  1  0.25000700  0.25000000  0.74999800  1
  K  K1  1  0.24999900  0.74999900  0.25000000  1
  K  K2  1  0.74999300  0.25000200  0.74999900  1
  K  K3  1  0.75000200  0.74999900  0.24999900  1
  K  K4  1  0.75000200  0.33001000  0.33001200  1
  K  K5  1  0.75000000  0.83001200  0.83001200  1
  K  K6  1  0.24999900  0.16998700  0.16998800  1
  K  K7  1  0.24999900  0.66998500  0.66998700  1
  Li  Li0  1  0.25000000  0.50000000  0.00000000  1
  Li  Li1  1  0.25000000  0.00000000  0.50000000  1
  Li  Li2  1  0.75000000  0.49999900  0.99999900  1
  Li  Li3  1  0.75000000  0.99999900  0.49999900  1
  Fe  Fe0  1  0.74999800  0.58916600  0.58916200  1
  Fe  Fe1  1  0.25000100  0.91085000  0.91085200  1
  Fe  Fe2  1  0.75000200  0.08915400  0.08915700  1
  Fe  Fe3  1  0.25000000  0.41084300  0.41084200  1
  O  O0  1  0.99998900  0.00000400  0.00000400  1
  O  O1  1  0.00001100  0.49999500  0.49999500  1
  O  O2  1  0.50001100  0.00000400  0.00000400  1
  O  O3  1  0.49998800  0.49999500  0.49999400  1
  O  O4  1  0.40003600  0.68481800  0.98488400  1
  O  O5  1  0.40002600  0.18483100  0.48487700  1
  O  O6  1  0.90003600  0.51511500  0.81518100  1
  O  O7  1  0.90002700  0.01512100  0.31516900  1
  O  O8  1  0.59997400  0.31516800  0.01512100  1
  O  O9  1  0.59996400  0.81518100  0.51511500  1
  O  O10  1  0.09997300  0.48487700  0.18483100  1
  O  O11  1  0.09996300  0.98488500  0.68481800  1
loop_
_geom_bond_atom_site_label_1
_geom_bond_atom_site_label_2
_geom_bond_distance
_geom_bond_site_symmetry_2
K0 O1 2.669570 1_555
K0 O2 2.669592 1_556
K0 O8 2.873717 1_556
K0 O6 2.873754 1_455
K0 O5 2.873763 1_555
K0 O11 2.873808 1_545
K1 O3 2.669570 1_555
K1 O0 2.669586 1_465
K1 O7 2.873730 1_465
K1 O9 2.873733 1_555
K1 O10 2.873795 1_555
K1 O4 2.873796 1_554
K2 O3 2.669570 1_555
K2 O0 2.669597 1_556
K2 O5 2.873726 1_555
K2 O11 2.873752 1_645
K2 O8 2.873767 1_556
K2 O6 2.873791 1_555
K3 O1 2.669581 1_655
K3 O2 2.669581 1_565
K3 O10 2.873722 1_655
K3 O4 2.873731 1_554
K3 O7 2.873793 1_565
K3 O9 2.873800 1_555
K4 O7 2.713469 1_555
K4 O8 2.713486 1_555
K4 O1 2.721238 1_655
K4 O3 2.721239 1_555
K5 O6 2.713511 1_555
K5 O9 2.713513 1_555
K5 O2 2.721253 1_566
K5 O0 2.721255 1_566
K6 O5 2.713473 1_555
K6 O10 2.713478 1_555
K6 O0 2.721231 1_455
K6 O2 2.721239 1_555
K7 O4 2.713517 1_555
K7 O11 2.713536 1_555
K7 O1 2.721237 1_555
K7 O3 2.721253 1_555
Li0 O6 2.171607 1_454
Li0 O4 2.171679 1_554
Li0 O8 2.171681 1_555
Li0 O10 2.171756 1_555
Li1 O9 2.171605 1_545
Li1 O7 2.171675 1_455
Li1 O11 2.171682 1_545
Li1 O5 2.171752 1_555
Li2 O4 2.171605 1_555
Li2 O10 2.171676 1_656
Li2 O6 2.171679 1_555
Li2 O8 2.171751 1_556
Li3 O11 2.171605 1_655
Li3 O5 2.171678 1_565
Li3 O9 2.171679 1_555
Li3 O7 2.171747 1_565
Fe0 O9 1.893543 1_555
Fe0 O6 1.893581 1_555
Fe0 O1 1.925955 1_655
Fe0 O3 1.925963 1_555
Fe1 O4 1.893665 1_555
Fe1 O11 1.893686 1_555
Fe1 O0 1.925825 1_466
Fe1 O2 1.925826 1_566
Fe2 O7 1.893507 1_555
Fe2 O8 1.893524 1_555
Fe2 O0 1.925705 1_555
Fe2 O2 1.925710 1_555
Fe3 O10 1.893499 1_555
Fe3 O5 1.893507 1_555
Fe3 O3 1.925707 1_555
Fe3 O1 1.925717 1_555
