# generated using pymatgen
data_Rb6Te3P6(H13O20)2
_symmetry_space_group_name_H-M   'P 1'
_cell_length_a   8.16624300
_cell_length_b   11.42432479
_cell_length_c   11.75458892
_cell_angle_alpha   100.43669833
_cell_angle_beta   109.14822742
_cell_angle_gamma   96.58611456
_symmetry_Int_Tables_number   1
_chemical_formula_structural   Rb6Te3P6(H13O20)2
_chemical_formula_sum   'Rb6 Te3 P6 H26 O40'
_cell_volume   1000.76567714
_cell_formula_units_Z   1
loop_
 _symmetry_equiv_pos_site_id
 _symmetry_equiv_pos_as_xyz
  1  'x, y, z'
loop_
 _atom_site_type_symbol
 _atom_site_label
 _atom_site_symmetry_multiplicity
 _atom_site_fract_x
 _atom_site_fract_y
 _atom_site_fract_z
 _atom_site_occupancy
  Rb  Rb0  1  0.30105400  0.90359400  0.79874900  1
  Rb  Rb1  1  0.69894600  0.09640600  0.20125100  1
  Rb  Rb2  1  0.97849300  0.71872700  0.19525200  1
  Rb  Rb3  1  0.02150700  0.28127300  0.80474800  1
  Rb  Rb4  1  0.61445600  0.69377600  0.60260200  1
  Rb  Rb5  1  0.38554400  0.30622400  0.39739800  1
  Te  Te0  1  0.00000000  0.00000000  0.00000000  1
  Te  Te1  1  0.50000000  0.00000000  0.50000000  1
  Te  Te2  1  0.00000000  0.50000000  0.50000000  1
  P  P0  1  0.38798100  0.56927500  0.22767800  1
  P  P1  1  0.61201900  0.43072500  0.77232200  1
  P  P2  1  0.51914600  0.77599000  0.13783100  1
  P  P3  1  0.48085400  0.22401000  0.86216900  1
  P  P4  1  0.49847900  0.63735400  0.89703000  1
  P  P5  1  0.50152100  0.36264600  0.10297000  1
  H  H0  1  0.72406000  0.85347100  0.95152200  1
  H  H1  1  0.27594000  0.14652900  0.04847800  1
  H  H2  1  0.25098700  0.89874400  0.09334200  1
  H  H3  1  0.74901300  0.10125600  0.90665800  1
  H  H4  1  0.00410100  0.78978900  0.89675300  1
  H  H5  1  0.99589900  0.21021100  0.10324700  1
  H  H6  1  0.65783000  0.87472500  0.38493500  1
  H  H7  1  0.34217000  0.12527500  0.61506500  1
  H  H8  1  0.21705100  0.87306000  0.46841300  1
  H  H9  1  0.78294900  0.12694000  0.53158700  1
  H  H10  1  0.34204200  0.00145900  0.27559300  1
  H  H11  1  0.65795800  0.99854100  0.72440700  1
  H  H12  1  0.20651200  0.54684800  0.39321100  1
  H  H13  1  0.79348800  0.45315200  0.60678900  1
  H  H14  1  0.15519600  0.60582900  0.72273200  1
  H  H15  1  0.84480400  0.39417100  0.27726800  1
  H  H16  1  0.76539700  0.60056500  0.37750800  1
  H  H17  1  0.23460300  0.39943500  0.62249200  1
  H  H18  1  0.94142600  0.59329500  0.87192500  1
  H  H19  1  0.05857400  0.40670500  0.12807500  1
  H  H20  1  0.14267700  0.64388500  0.94122900  1
  H  H21  1  0.85732300  0.35611500  0.05877100  1
  H  H22  1  0.94646600  0.90673200  0.52557600  1
  H  H23  1  0.05353400  0.09326800  0.47442400  1
  H  H24  1  0.00083000  0.78064800  0.50933100  1
  H  H25  1  0.99917000  0.21935200  0.49066900  1
  O  O0  1  0.80013600  0.91568600  0.02831900  1
  O  O1  1  0.19986400  0.08431400  0.97168100  1
  O  O2  1  0.15960800  0.93079700  0.12585100  1
  O  O3  1  0.84039200  0.06920300  0.87414900  1
  O  O4  1  0.98457800  0.86652400  0.86539100  1
  O  O5  1  0.01542200  0.13347600  0.13460900  1
  O  O6  1  0.66640100  0.89667300  0.47466000  1
  O  O7  1  0.33359900  0.10332700  0.52534000  1
  O  O8  1  0.30650800  0.85957800  0.42857200  1
  O  O9  1  0.69349200  0.14042200  0.57142800  1
  O  O10  1  0.54047900  0.95874900  0.66091600  1
  O  O11  1  0.45952100  0.04125100  0.33908400  1
  O  O12  1  0.22501400  0.55562200  0.48279900  1
  O  O13  1  0.77498600  0.44437800  0.51720100  1
  O  O14  1  0.06906400  0.62834300  0.65028900  1
  O  O15  1  0.93093600  0.37165700  0.34971100  1
  O  O16  1  0.89884500  0.61869800  0.40861500  1
  O  O17  1  0.10115500  0.38130200  0.59138500  1
  O  O18  1  0.21149500  0.53483100  0.24055700  1
  O  O19  1  0.78850500  0.46516900  0.75944300  1
  O  O20  1  0.55000300  0.58457000  0.33947300  1
  O  O21  1  0.44999700  0.41543000  0.66052700  1
  O  O22  1  0.37724700  0.68904500  0.17157700  1
  O  O23  1  0.62275300  0.31095500  0.82842300  1
  O  O24  1  0.60627200  0.52724000  0.88939800  1
  O  O25  1  0.39372800  0.47276000  0.11060200  1
  O  O26  1  0.58377900  0.68150600  0.04822400  1
  O  O27  1  0.41622100  0.31849400  0.95177600  1
  O  O28  1  0.67788200  0.83157400  0.25165300  1
  O  O29  1  0.32211800  0.16842600  0.74834700  1
  O  O30  1  0.41561700  0.85534500  0.06437900  1
  O  O31  1  0.58438300  0.14465500  0.93562100  1
  O  O32  1  0.56256400  0.73310700  0.84093400  1
  O  O33  1  0.43743600  0.26689300  0.15906600  1
  O  O34  1  0.30399500  0.58984600  0.85648300  1
  O  O35  1  0.69600500  0.41015400  0.14351700  1
  O  O36  1  0.02598700  0.66164100  0.93699700  1
  O  O37  1  0.97401300  0.33835900  0.06300300  1
  O  O38  1  0.05067200  0.86810100  0.53980300  1
  O  O39  1  0.94932800  0.13189900  0.46019700  1
loop_
_geom_bond_atom_site_label_1
_geom_bond_atom_site_label_2
_geom_bond_distance
_geom_bond_site_symmetry_2
H0 O0 1.002188 1_556
H1 O1 1.002188 1_554
H2 O2 1.017850 1_555
H2 O30 1.600367 1_555
H3 O3 1.017850 1_555
H3 O31 1.600367 1_555
H4 O4 1.020007 1_455
H4 O36 1.629263 1_555
H5 O5 1.020007 1_655
H5 O37 1.629263 1_555
H6 O6 1.015804 1_555
H6 O28 1.622131 1_555
H7 O7 1.015804 1_555
H7 O29 1.622131 1_555
H8 O8 1.000414 1_555
H8 Rb2 3.204862 1_455
H9 O9 1.000414 1_555
H9 Rb3 3.204862 1_655
H10 O11 0.995665 1_555
H11 O10 0.995665 1_555
H12 O12 0.997865 1_555
H13 O13 0.997865 1_555
H14 O14 1.006942 1_555
H14 O34 1.698022 1_555
H15 O15 1.006942 1_555
H15 O35 1.698022 1_555
H16 O16 1.011717 1_555
H16 O20 1.645595 1_555
H17 O17 1.011717 1_555
H17 O21 1.645595 1_555
H18 O36 0.992474 1_655
H19 O37 0.992474 1_455
H20 O36 0.984163 1_555
H21 O37 0.984163 1_555
H22 O38 0.983070 1_655
H23 O39 0.983070 1_455
H24 O38 0.986697 1_555
H25 O39 0.986697 1_555
O0 Te0 1.953061 1_665
O0 Rb1 3.008372 1_565
O0 Rb2 3.392834 1_555
O1 Te0 1.953061 1_556
O1 Rb0 3.008372 1_545
O1 Rb3 3.392834 1_555
O2 Te0 1.976737 1_565
O2 Rb2 3.067308 1_455
O3 Te0 1.976737 1_656
O3 Rb3 3.067308 1_655
O4 Te0 1.948273 1_666
O4 Rb0 2.944395 1_655
O5 Te0 1.948273 1_555
O5 Rb1 2.944395 1_455
O6 Te1 1.958264 1_565
O6 Rb4 3.044757 1_555
O7 Te1 1.958264 1_555
O7 Rb5 3.044757 1_555
O8 Te1 1.958422 1_565
O8 Rb2 3.143109 1_455
O9 Te1 1.958422 1_555
O9 Rb3 3.143109 1_655
O10 Te1 1.964088 1_565
O10 Rb0 3.001699 1_555
O10 Rb4 3.152422 1_555
O11 Te1 1.964088 1_555
O11 Rb1 3.001699 1_555
O11 Rb5 3.152422 1_555
O12 Te2 1.960505 1_555
O12 Rb4 3.113458 1_555
O13 Te2 1.960505 1_655
O13 Rb5 3.113458 1_555
O14 Te2 1.951152 1_555
O14 Rb0 3.316490 1_555
O15 Te2 1.951152 1_655
O15 Rb1 3.316490 1_555
O16 Te2 1.969187 1_655
O16 Rb2 3.155473 1_555
O17 Te2 1.969187 1_555
O17 Rb3 3.155473 1_555
O18 P0 1.513116 1_555
O18 Rb2 2.995893 1_455
O19 P1 1.513116 1_555
O19 Rb3 2.995893 1_655
O20 P0 1.493708 1_555
O20 Rb4 2.963677 1_555
O21 P1 1.493708 1_555
O21 Rb5 2.963677 1_555
O22 P0 1.622119 1_555
O22 P2 1.633097 1_555
O22 Rb2 3.407296 1_455
O23 P1 1.622119 1_555
O23 P3 1.633097 1_555
O23 Rb3 3.407296 1_655
O24 P1 1.617508 1_555
O24 P4 1.621838 1_555
O25 P0 1.617508 1_555
O25 P5 1.621838 1_555
O26 P2 1.623772 1_555
O26 P4 1.637268 1_554
O26 Rb2 3.053248 1_555
O27 P3 1.623772 1_555
O27 P5 1.637268 1_556
O27 Rb3 3.053248 1_555
O28 P2 1.496406 1_555
O28 Rb2 3.100311 1_555
O28 Rb1 3.182969 1_565
O29 P3 1.496406 1_555
O29 Rb3 3.100311 1_555
O29 Rb0 3.182969 1_545
O30 P2 1.504210 1_555
O30 Rb0 3.123106 1_554
O30 Rb1 3.164985 1_565
O31 P3 1.504210 1_555
O31 Rb1 3.123106 1_556
O31 Rb0 3.164985 1_545
O32 P4 1.503895 1_555
O32 Rb4 2.931941 1_555
O32 Rb0 3.034692 1_555
O33 P5 1.503895 1_555
O33 Rb5 2.931941 1_555
O33 Rb1 3.034692 1_555
O34 P4 1.502027 1_555
O35 P5 1.502027 1_555
O36 Rb2 3.147103 1_456
O37 Rb3 3.147103 1_654
O38 Rb0 2.981558 1_555
O39 Rb1 2.981558 1_555
