# generated using pymatgen
data_Zn2AsHO5
_symmetry_space_group_name_H-M   'P 1'
_cell_length_a   6.14464500
_cell_length_b   8.46494800
_cell_length_c   8.64857800
_cell_angle_alpha   90.00000000
_cell_angle_beta   90.00000000
_cell_angle_gamma   90.00000000
_symmetry_Int_Tables_number   1
_chemical_formula_structural   Zn2AsHO5
_chemical_formula_sum   'Zn8 As4 H4 O20'
_cell_volume   449.84800444
_cell_formula_units_Z   4
loop_
 _symmetry_equiv_pos_site_id
 _symmetry_equiv_pos_as_xyz
  1  'x, y, z'
loop_
 _atom_site_type_symbol
 _atom_site_label
 _atom_site_symmetry_multiplicity
 _atom_site_fract_x
 _atom_site_fract_y
 _atom_site_fract_z
 _atom_site_occupancy
  Zn  Zn0  1  0.74644500  0.00000000  0.50000000  1
  Zn  Zn1  1  0.75355500  0.50000000  0.00000000  1
  Zn  Zn2  1  0.25355500  0.00000000  0.50000000  1
  Zn  Zn3  1  0.24644500  0.50000000  0.00000000  1
  Zn  Zn4  1  0.50000000  0.13332600  0.13286900  1
  Zn  Zn5  1  0.50000000  0.86667400  0.86713100  1
  Zn  Zn6  1  0.00000000  0.63332600  0.36713100  1
  Zn  Zn7  1  0.00000000  0.36667400  0.63286900  1
  As  As0  1  0.00000000  0.24963800  0.25575500  1
  As  As1  1  0.00000000  0.75036200  0.74424500  1
  As  As2  1  0.50000000  0.74963800  0.24424500  1
  As  As3  1  0.50000000  0.25036200  0.75575500  1
  H  H0  1  0.50000000  0.21313400  0.40694000  1
  H  H1  1  0.50000000  0.78686600  0.59306000  1
  H  H2  1  0.00000000  0.71313400  0.09306000  1
  H  H3  1  0.00000000  0.28686600  0.90694000  1
  O  O0  1  0.00000000  0.07163000  0.35546300  1
  O  O1  1  0.00000000  0.92837000  0.64453700  1
  O  O2  1  0.50000000  0.57163000  0.14453700  1
  O  O3  1  0.50000000  0.42837000  0.85546300  1
  O  O4  1  0.50000000  0.10528500  0.36907300  1
  O  O5  1  0.50000000  0.89471500  0.63092700  1
  O  O6  1  0.00000000  0.60528500  0.13092700  1
  O  O7  1  0.00000000  0.39471500  0.86907300  1
  O  O8  1  0.00000000  0.39435400  0.39617600  1
  O  O9  1  0.00000000  0.60564600  0.60382400  1
  O  O10  1  0.50000000  0.89435400  0.10382400  1
  O  O11  1  0.50000000  0.10564600  0.89617600  1
  O  O12  1  0.77515200  0.27089400  0.13738300  1
  O  O13  1  0.77515200  0.72910600  0.86261700  1
  O  O14  1  0.72484800  0.77089400  0.36261700  1
  O  O15  1  0.72484800  0.22910600  0.63738300  1
  O  O16  1  0.22484800  0.72910600  0.86261700  1
  O  O17  1  0.22484800  0.27089400  0.13738300  1
  O  O18  1  0.27515200  0.22910600  0.63738300  1
  O  O19  1  0.27515200  0.77089400  0.36261700  1
loop_
_geom_bond_atom_site_label_1
_geom_bond_atom_site_label_2
_geom_bond_distance
_geom_bond_site_symmetry_2
As0 O8 1.724972 1_555
As0 O17 1.728956 1_555
As0 O12 1.728956 1_455
As0 O0 1.736131 1_555
As1 O9 1.724972 1_555
As1 O16 1.728956 1_555
As1 O13 1.728956 1_455
As1 O1 1.736131 1_555
As2 O10 1.724972 1_555
As2 O19 1.728956 1_555
As2 O14 1.728956 1_555
As2 O2 1.736131 1_555
As3 O11 1.724972 1_555
As3 O18 1.728956 1_555
As3 O15 1.728956 1_555
As3 O3 1.736131 1_555
H0 O4 0.969900 1_555
H1 O5 0.969900 1_555
H2 O6 0.969900 1_555
H3 O7 0.969900 1_555
O0 Zn0 2.087494 1_455
O0 Zn2 2.087494 1_555
O1 Zn0 2.087494 1_465
O1 Zn2 2.087494 1_565
O2 Zn3 2.087494 1_555
O2 Zn1 2.087494 1_555
O3 Zn1 2.087494 1_556
O3 Zn3 2.087494 1_556
O4 Zn4 2.056573 1_555
O4 Zn2 2.090365 1_555
O4 Zn0 2.090365 1_555
O5 Zn5 2.056573 1_555
O5 Zn2 2.090365 1_565
O5 Zn0 2.090365 1_565
O6 Zn6 2.056573 1_555
O6 Zn3 2.090365 1_555
O6 Zn1 2.090365 1_455
O7 Zn7 2.056573 1_555
O7 Zn3 2.090365 1_556
O7 Zn1 2.090365 1_456
O8 Zn6 2.038423 1_555
O8 Zn7 2.060424 1_555
O9 Zn7 2.038423 1_555
O9 Zn6 2.060424 1_555
O10 Zn4 2.038423 1_565
O10 Zn5 2.060424 1_554
O11 Zn5 2.038423 1_545
O11 Zn4 2.060424 1_556
O12 Zn4 2.053315 1_555
O12 Zn1 2.278269 1_555
O13 Zn5 2.053315 1_555
O13 Zn1 2.278269 1_556
O14 Zn6 2.053315 1_655
O14 Zn0 2.278269 1_565
O15 Zn7 2.053315 1_655
O15 Zn0 2.278269 1_555
O16 Zn5 2.053315 1_555
O16 Zn3 2.278269 1_556
O17 Zn4 2.053315 1_555
O17 Zn3 2.278269 1_555
O18 Zn7 2.053315 1_555
O18 Zn2 2.278269 1_555
O19 Zn6 2.053315 1_555
O19 Zn2 2.278269 1_565
