# generated using pymatgen
data_V(PO3)3
_symmetry_space_group_name_H-M   'P 1'
_cell_length_a   8.49120500
_cell_length_b   8.55803000
_cell_length_c   9.06102300
_cell_angle_alpha   90.00000000
_cell_angle_beta   90.00000000
_cell_angle_gamma   90.00000000
_symmetry_Int_Tables_number   1
_chemical_formula_structural   V(PO3)3
_chemical_formula_sum   'V4 P12 O36'
_cell_volume   658.44630271
_cell_formula_units_Z   4
loop_
 _symmetry_equiv_pos_site_id
 _symmetry_equiv_pos_as_xyz
  1  'x, y, z'
loop_
 _atom_site_type_symbol
 _atom_site_label
 _atom_site_symmetry_multiplicity
 _atom_site_fract_x
 _atom_site_fract_y
 _atom_site_fract_z
 _atom_site_occupancy
  V  V0  1  0.65350900  0.62923800  0.61106500  1
  V  V1  1  0.84649100  0.37076200  0.11106500  1
  V  V2  1  0.34649100  0.12923800  0.88893500  1
  V  V3  1  0.15350900  0.87076200  0.38893500  1
  P  P0  1  0.80143900  0.68735500  0.92494700  1
  P  P1  1  0.02615100  0.68405200  0.67870200  1
  P  P2  1  0.18912200  0.53008500  0.19388400  1
  P  P3  1  0.31087800  0.46991500  0.69388400  1
  P  P4  1  0.47384900  0.31594800  0.17870200  1
  P  P5  1  0.69856100  0.31264500  0.42494700  1
  P  P6  1  0.19856100  0.18735500  0.57505300  1
  P  P7  1  0.97384900  0.18405200  0.82129800  1
  P  P8  1  0.81087800  0.03008500  0.30611600  1
  P  P9  1  0.68912200  0.96991500  0.80611600  1
  P  P10  1  0.52615100  0.81594800  0.32129800  1
  P  P11  1  0.30143900  0.81264500  0.07505300  1
  O  O0  1  0.96435800  0.73415700  0.83951500  1
  O  O1  1  0.61657900  0.68467500  0.39287300  1
  O  O2  1  0.22878700  0.63976300  0.05105100  1
  O  O3  1  0.84043800  0.61601200  0.07117100  1
  O  O4  1  0.88931400  0.62197100  0.59062400  1
  O  O5  1  0.14847400  0.63064200  0.32432400  1
  O  O6  1  0.42040000  0.59807200  0.64662100  1
  O  O7  1  0.69445800  0.59314800  0.82634600  1
  O  O8  1  0.14162900  0.54599800  0.72662300  1
  O  O9  1  0.35837100  0.45400200  0.22662300  1
  O  O10  1  0.80554200  0.40685200  0.32634600  1
  O  O11  1  0.07960000  0.40192800  0.14662100  1
  O  O12  1  0.35152600  0.36935800  0.82432400  1
  O  O13  1  0.61068600  0.37802900  0.09062400  1
  O  O14  1  0.65956200  0.38398800  0.57117100  1
  O  O15  1  0.27121300  0.36023700  0.55105100  1
  O  O16  1  0.88342100  0.31532500  0.89287300  1
  O  O17  1  0.53564200  0.26584300  0.33951500  1
  O  O18  1  0.03564200  0.23415700  0.66048500  1
  O  O19  1  0.38342100  0.18467500  0.10712700  1
  O  O20  1  0.77121300  0.13976300  0.44894900  1
  O  O21  1  0.15956200  0.11601200  0.42882900  1
  O  O22  1  0.11068600  0.12197100  0.90937600  1
  O  O23  1  0.85152600  0.13064200  0.17567600  1
  O  O24  1  0.57960000  0.09807200  0.85337900  1
  O  O25  1  0.30554200  0.09314800  0.67365400  1
  O  O26  1  0.85837100  0.04599800  0.77337700  1
  O  O27  1  0.64162900  0.95400200  0.27337700  1
  O  O28  1  0.19445800  0.90685200  0.17365400  1
  O  O29  1  0.92040000  0.90192800  0.35337900  1
  O  O30  1  0.64847400  0.86935800  0.67567600  1
  O  O31  1  0.38931400  0.87802900  0.40937600  1
  O  O32  1  0.34043800  0.88398800  0.92882900  1
  O  O33  1  0.72878700  0.86023700  0.94894900  1
  O  O34  1  0.11657900  0.81532500  0.60712700  1
  O  O35  1  0.46435800  0.76584300  0.16048500  1
loop_
_geom_bond_atom_site_label_1
_geom_bond_atom_site_label_2
_geom_bond_distance
_geom_bond_site_symmetry_2
O0 P1 1.606986 1_655
O0 P0 1.635052 1_555
O1 P10 1.507416 1_555
O1 V0 2.057211 1_555
O2 P11 1.617676 1_555
O2 P2 1.633844 1_555
O3 P0 1.495962 1_554
O3 V1 2.130378 1_555
O4 P1 1.506398 1_655
O4 V0 2.011778 1_555
O5 P2 1.502213 1_555
O5 V3 2.137149 1_555
O6 P3 1.500386 1_555
O6 V0 2.023083 1_555
O7 P0 1.507779 1_555
O7 V0 2.005341 1_555
O8 P1 1.595583 1_555
O8 P3 1.605396 1_555
O9 P4 1.595583 1_555
O9 P2 1.605396 1_555
O10 P5 1.507779 1_555
O10 V1 2.005341 1_555
O11 P2 1.500386 1_555
O11 V1 2.023083 1_455
O12 P3 1.502213 1_555
O12 V2 2.137149 1_555
O13 P4 1.506398 1_555
O13 V1 2.011778 1_555
O14 P5 1.495962 1_555
O14 V0 2.130378 1_555
O15 P6 1.617676 1_555
O15 P3 1.633844 1_555
O16 P7 1.507416 1_555
O16 V1 2.057211 1_556
O17 P4 1.606986 1_555
O17 P5 1.635052 1_555
O18 P7 1.606986 1_455
O18 P6 1.635052 1_555
O19 P4 1.507416 1_555
O19 V2 2.057211 1_554
O20 P5 1.617676 1_555
O20 P8 1.633844 1_555
O21 P6 1.495962 1_555
O21 V3 2.130378 1_545
O22 P7 1.506398 1_455
O22 V2 2.011778 1_555
O23 P8 1.502213 1_555
O23 V1 2.137149 1_555
O24 P9 1.500386 1_545
O24 V2 2.023083 1_555
O25 P6 1.507779 1_555
O25 V2 2.005341 1_555
O26 P7 1.595583 1_555
O26 P9 1.605396 1_545
O27 P10 1.595583 1_555
O27 P8 1.605396 1_565
O28 P11 1.507779 1_555
O28 V3 2.005341 1_555
O29 P8 1.500386 1_565
O29 V3 2.023083 1_655
O30 P9 1.502213 1_555
O30 V0 2.137149 1_555
O31 P10 1.506398 1_555
O31 V3 2.011778 1_555
O32 P11 1.495962 1_556
O32 V2 2.130378 1_565
O33 P0 1.617676 1_555
O33 P9 1.633844 1_555
O34 P1 1.507416 1_555
O34 V3 2.057211 1_555
O35 P10 1.606986 1_555
O35 P11 1.635052 1_555
