# generated using pymatgen
data_Li4Cr3Co3(NiO8)2
_symmetry_space_group_name_H-M   'P 1'
_cell_length_a   5.75382597
_cell_length_b   5.75382597
_cell_length_c   9.56453612
_cell_angle_alpha   89.99218291
_cell_angle_beta   89.99218291
_cell_angle_gamma   60.15768234
_symmetry_Int_Tables_number   1
_chemical_formula_structural   Li4Cr3Co3(NiO8)2
_chemical_formula_sum   'Li4 Cr3 Co3 Ni2 O16'
_cell_volume   274.66027270
_cell_formula_units_Z   1
loop_
 _symmetry_equiv_pos_site_id
 _symmetry_equiv_pos_as_xyz
  1  'x, y, z'
loop_
 _atom_site_type_symbol
 _atom_site_label
 _atom_site_symmetry_multiplicity
 _atom_site_fract_x
 _atom_site_fract_y
 _atom_site_fract_z
 _atom_site_occupancy
  Li  Li0  1  0.66991700  0.66991700  0.89153800  1
  Li  Li1  1  0.99474300  0.99474300  0.99643900  1
  Li  Li2  1  0.99531800  0.99531800  0.49887200  1
  Li  Li3  1  0.33682300  0.33682300  0.39622600  1
  Cr  Cr0  1  0.83150500  0.33623900  0.21443100  1
  Cr  Cr1  1  0.33623900  0.83150500  0.21443100  1
  Cr  Cr2  1  0.16865700  0.16865700  0.71444900  1
  Co  Co0  1  0.83064100  0.83064100  0.21418000  1
  Co  Co1  1  0.66301000  0.16875500  0.71347400  1
  Co  Co2  1  0.16875500  0.66301000  0.71347400  1
  Ni  Ni0  1  0.66660900  0.66660900  0.49150100  1
  Ni  Ni1  1  0.33312900  0.33312900  0.98932800  1
  O  O0  1  0.83981100  0.31672400  0.60879400  1
  O  O1  1  0.51841200  0.51841200  0.32878100  1
  O  O2  1  0.66930500  0.66930500  0.10407100  1
  O  O3  1  0.99503500  0.99503500  0.31458800  1
  O  O4  1  0.99500700  0.99500700  0.81166000  1
  O  O5  1  0.31672400  0.83981100  0.60879400  1
  O  O6  1  0.96438200  0.52144100  0.32893600  1
  O  O7  1  0.52144100  0.96438200  0.32893600  1
  O  O8  1  0.15942700  0.15942700  0.10789500  1
  O  O9  1  0.84089000  0.84089000  0.61285200  1
  O  O10  1  0.48511100  0.03696000  0.82668600  1
  O  O11  1  0.03696000  0.48511100  0.82668600  1
  O  O12  1  0.33728500  0.33728500  0.60735100  1
  O  O13  1  0.68184200  0.15647100  0.10943500  1
  O  O14  1  0.48167100  0.48167100  0.82460100  1
  O  O15  1  0.15647100  0.68184200  0.10943500  1
loop_
_geom_bond_atom_site_label_1
_geom_bond_atom_site_label_2
_geom_bond_distance
_geom_bond_site_symmetry_2
Li0 O10 1.934020 1_565
Li0 O11 1.934020 1_655
Li0 O14 1.980961 1_555
Li0 O2 2.032788 1_556
Li1 O4 1.767327 1_555
Li1 O15 1.899397 1_656
Li1 O13 1.899397 1_566
Li1 O8 1.956094 1_666
Li2 O3 1.762594 1_555
Li2 O9 1.884871 1_555
Li2 O0 1.918170 1_565
Li2 O5 1.918170 1_655
Li3 O1 1.919784 1_555
Li3 O6 1.967120 1_455
Li3 O7 1.967120 1_545
Li3 O12 2.019319 1_555
Cr0 O1 1.913301 1_555
Cr0 O13 1.925337 1_555
Cr0 O8 1.929431 1_655
Cr0 O6 1.931554 1_555
Cr0 O3 1.954118 1_545
Cr0 O2 1.969135 1_555
Cr1 O1 1.913301 1_555
Cr1 O15 1.925337 1_555
Cr1 O8 1.929431 1_565
Cr1 O7 1.931554 1_555
Cr1 O3 1.954118 1_455
Cr1 O2 1.969135 1_555
Cr2 O11 1.915497 1_555
Cr2 O10 1.915497 1_555
Cr2 O5 1.929540 1_545
Cr2 O0 1.929540 1_455
Cr2 O4 1.963194 1_445
Cr2 O12 1.966834 1_555
Co0 O6 1.897152 1_555
Co0 O7 1.897152 1_555
Co0 O3 1.898067 1_555
Co0 O13 1.911471 1_565
Co0 O15 1.911471 1_655
Co0 O2 1.921132 1_555
Co1 O10 1.888731 1_555
Co1 O14 1.894898 1_555
Co1 O9 1.900315 1_545
Co1 O0 1.903580 1_555
Co1 O4 1.905268 1_545
Co1 O12 1.916928 1_555
Co2 O11 1.888731 1_555
Co2 O14 1.894898 1_555
Co2 O9 1.900315 1_455
Co2 O5 1.903580 1_555
Co2 O4 1.905268 1_455
Co2 O12 1.916928 1_555
Ni0 O5 2.075470 1_555
Ni0 O0 2.075470 1_555
Ni0 O9 2.087990 1_555
Ni0 O1 2.144935 1_555
Ni0 O6 2.150845 1_555
Ni0 O7 2.150845 1_555
Ni1 O8 2.068180 1_556
Ni1 O15 2.085477 1_556
Ni1 O13 2.085477 1_556
Ni1 O10 2.146118 1_555
Ni1 O11 2.146118 1_555
Ni1 O14 2.160916 1_555
