# generated using pymatgen
data_Li2MnCSO7
_symmetry_space_group_name_H-M   'P 1'
_cell_length_a   6.53160800
_cell_length_b   9.90018091
_cell_length_c   9.26895880
_cell_angle_alpha   82.82026144
_cell_angle_beta   90.00071237
_cell_angle_gamma   90.00358838
_symmetry_Int_Tables_number   1
_chemical_formula_structural   Li2MnCSO7
_chemical_formula_sum   'Li8 Mn4 C4 S4 O28'
_cell_volume   594.66921022
_cell_formula_units_Z   4
loop_
 _symmetry_equiv_pos_site_id
 _symmetry_equiv_pos_as_xyz
  1  'x, y, z'
loop_
 _atom_site_type_symbol
 _atom_site_label
 _atom_site_symmetry_multiplicity
 _atom_site_fract_x
 _atom_site_fract_y
 _atom_site_fract_z
 _atom_site_occupancy
  Li  Li0  1  0.51458500  0.10576400  0.16975100  1
  Li  Li1  1  0.51463900  0.60582600  0.16963100  1
  Li  Li2  1  0.98546600  0.10569600  0.16980100  1
  Li  Li3  1  0.98549300  0.60586800  0.16969600  1
  Li  Li4  1  0.48544400  0.39415800  0.83031100  1
  Li  Li5  1  0.48547200  0.89427300  0.83024100  1
  Li  Li6  1  0.01464900  0.39421800  0.83026500  1
  Li  Li7  1  0.01452200  0.89417300  0.83022700  1
  Mn  Mn0  1  0.74969700  0.87666500  0.36273900  1
  Mn  Mn1  1  0.24996000  0.12342200  0.63731800  1
  Mn  Mn2  1  0.74990800  0.37685200  0.36254600  1
  Mn  Mn3  1  0.24995600  0.62314300  0.63731300  1
  C  C0  1  0.75007900  0.36535800  0.07459300  1
  C  C1  1  0.74995200  0.86535100  0.07477600  1
  C  C2  1  0.24997400  0.13461600  0.92536000  1
  C  C3  1  0.25009500  0.63464900  0.92531400  1
  S  S0  1  0.25004600  0.38110400  0.40315400  1
  S  S1  1  0.24987800  0.88110700  0.40333800  1
  S  S2  1  0.74988800  0.11895900  0.59670100  1
  S  S3  1  0.75008500  0.61883900  0.59680800  1
  O  O0  1  0.25004400  0.14845000  0.06102600  1
  O  O1  1  0.25006400  0.64857600  0.06095900  1
  O  O2  1  0.75005000  0.35143100  0.93896600  1
  O  O3  1  0.74997400  0.85141400  0.93919300  1
  O  O4  1  0.75009500  0.48490700  0.12047200  1
  O  O5  1  0.74996500  0.98488700  0.12069500  1
  O  O6  1  0.24994700  0.01512600  0.87937200  1
  O  O7  1  0.25008500  0.51509200  0.87943500  1
  O  O8  1  0.75007200  0.25869800  0.17551700  1
  O  O9  1  0.74990900  0.75866600  0.17571700  1
  O  O10  1  0.24994700  0.24133800  0.82450500  1
  O  O11  1  0.25011600  0.74129500  0.82440400  1
  O  O12  1  0.74990400  0.07653700  0.44873000  1
  O  O13  1  0.75016100  0.57671000  0.44873400  1
  O  O14  1  0.25005600  0.42331100  0.55119900  1
  O  O15  1  0.24988900  0.92343400  0.55128700  1
  O  O16  1  0.25000800  0.22868100  0.41977400  1
  O  O17  1  0.25002000  0.72867600  0.41997800  1
  O  O18  1  0.75002300  0.27140000  0.57991300  1
  O  O19  1  0.75000600  0.77127700  0.58031800  1
  O  O20  1  0.06674800  0.43392800  0.31878500  1
  O  O21  1  0.06649500  0.93376600  0.31895600  1
  O  O22  1  0.43339600  0.43389100  0.31883100  1
  O  O23  1  0.43318100  0.93391600  0.31889500  1
  O  O24  1  0.56653500  0.06634600  0.68105700  1
  O  O25  1  0.56683700  0.56591300  0.68114700  1
  O  O26  1  0.93316700  0.06622200  0.68116500  1
  O  O27  1  0.93351800  0.56606900  0.68108700  1
loop_
_geom_bond_atom_site_label_1
_geom_bond_atom_site_label_2
_geom_bond_distance
_geom_bond_site_symmetry_2
Li0 O0 2.018252 1_555
Li0 O5 2.034390 1_545
Li0 O23 2.121386 1_545
Li0 O8 2.163559 1_555
Li1 O1 2.018303 1_555
Li1 O4 2.035305 1_555
Li1 O22 2.122029 1_555
Li1 O9 2.162233 1_555
Li2 O0 2.018753 1_655
Li2 O5 2.034589 1_545
Li2 O21 2.121459 1_645
Li2 O8 2.163685 1_555
Li3 O1 2.018480 1_655
Li3 O4 2.035333 1_555
Li3 O20 2.121562 1_655
Li3 O9 2.163466 1_555
Li4 O2 2.018368 1_555
Li4 O7 2.034822 1_555
Li4 O25 2.120807 1_555
Li4 O10 2.162854 1_555
Li5 O3 2.019283 1_555
Li5 O6 2.035166 1_565
Li5 O24 2.122639 1_565
Li5 O11 2.163331 1_555
Li6 O2 2.018594 1_455
Li6 O7 2.034841 1_555
Li6 O27 2.121179 1_455
Li6 O10 2.162436 1_555
Li7 O3 2.019431 1_455
Li7 O6 2.035199 1_565
Li7 O26 2.122366 1_465
Li7 O11 2.163862 1_555
Mn0 O19 2.151706 1_555
Mn0 O23 2.168624 1_555
Mn0 O21 2.169882 1_655
Mn0 O9 2.208153 1_555
Mn0 O12 2.223747 1_565
Mn0 O5 2.362280 1_555
Mn1 O16 2.150951 1_555
Mn1 O24 2.168429 1_555
Mn1 O26 2.170175 1_455
Mn1 O10 2.208940 1_555
Mn1 O15 2.224994 1_545
Mn1 O6 2.362607 1_555
Mn2 O18 2.150216 1_555
Mn2 O22 2.167915 1_555
Mn2 O20 2.170053 1_655
Mn2 O8 2.209171 1_555
Mn2 O13 2.224476 1_555
Mn2 O4 2.361975 1_555
Mn3 O17 2.150251 1_555
Mn3 O27 2.167563 1_455
Mn3 O25 2.170833 1_555
Mn3 O11 2.209648 1_555
Mn3 O14 2.223912 1_555
Mn3 O7 2.362359 1_555
C0 O2 1.281675 1_554
C0 O4 1.306696 1_555
C0 O8 1.320306 1_555
C1 O3 1.281292 1_554
C1 O5 1.306737 1_555
C1 O9 1.320578 1_555
C2 O0 1.281823 1_556
C2 O6 1.306587 1_555
C2 O10 1.320354 1_555
C3 O1 1.281841 1_556
C3 O7 1.306771 1_555
C3 O11 1.320128 1_555
O12 S2 1.483741 1_555
O13 S3 1.483504 1_555
O14 S0 1.483553 1_555
O15 S1 1.483171 1_555
O16 S0 1.497582 1_555
O17 S1 1.497656 1_555
O18 S2 1.497724 1_555
O19 S3 1.497758 1_555
O20 S0 1.488700 1_555
O21 S1 1.488739 1_555
O22 S0 1.488626 1_555
O23 S1 1.488977 1_555
O24 S2 1.488299 1_555
O25 S3 1.488555 1_555
O26 S2 1.488779 1_555
O27 S3 1.488855 1_555
