# generated using pymatgen
data_Mn15Si26
_symmetry_space_group_name_H-M   'P 1'
_cell_length_a   5.49601688
_cell_length_b   5.49601714
_cell_length_c   32.79081740
_cell_angle_alpha   94.80726195
_cell_angle_beta   94.80726148
_cell_angle_gamma   90.00000368
_symmetry_Int_Tables_number   1
_chemical_formula_structural   Mn15Si26
_chemical_formula_sum   'Mn30 Si52'
_cell_volume   983.50516877
_cell_formula_units_Z   2
loop_
 _symmetry_equiv_pos_site_id
 _symmetry_equiv_pos_as_xyz
  1  'x, y, z'
loop_
 _atom_site_type_symbol
 _atom_site_label
 _atom_site_symmetry_multiplicity
 _atom_site_fract_x
 _atom_site_fract_y
 _atom_site_fract_z
 _atom_site_occupancy
  Mn  Mn0  1  0.21529100  0.71529100  0.43058200  1
  Mn  Mn1  1  0.28470900  0.78470900  0.56941800  1
  Mn  Mn2  1  0.53470900  0.53470900  0.06941800  1
  Mn  Mn3  1  0.46529100  0.46529100  0.93058200  1
  Mn  Mn4  1  0.15111300  0.65111300  0.30222700  1
  Mn  Mn5  1  0.34888700  0.84888700  0.69777300  1
  Mn  Mn6  1  0.59888700  0.59888700  0.19777300  1
  Mn  Mn7  1  0.40111300  0.40111300  0.80222700  1
  Mn  Mn8  1  0.08177100  0.58177100  0.16354100  1
  Mn  Mn9  1  0.41822900  0.91822900  0.83645900  1
  Mn  Mn10  1  0.66822900  0.66822900  0.33645900  1
  Mn  Mn11  1  0.33177100  0.33177100  0.66354100  1
  Mn  Mn12  1  0.01730000  0.51730100  0.03460100  1
  Mn  Mn13  1  0.48270000  0.98269900  0.96539900  1
  Mn  Mn14  1  0.73269900  0.73269900  0.46539900  1
  Mn  Mn15  1  0.26730000  0.26730000  0.53460100  1
  Mn  Mn16  1  0.94886900  0.44886900  0.89773700  1
  Mn  Mn17  1  0.55113100  0.05113100  0.10226300  1
  Mn  Mn18  1  0.80113100  0.80113100  0.60226300  1
  Mn  Mn19  1  0.19886900  0.19886900  0.39773700  1
  Mn  Mn20  1  0.88364500  0.38364500  0.76728800  1
  Mn  Mn21  1  0.61635500  0.11635500  0.23271200  1
  Mn  Mn22  1  0.86635500  0.86635500  0.73271200  1
  Mn  Mn23  1  0.13364500  0.13364500  0.26728800  1
  Mn  Mn24  1  0.81625800  0.31625800  0.63251500  1
  Mn  Mn25  1  0.68374200  0.18374200  0.36748500  1
  Mn  Mn26  1  0.93374200  0.93374200  0.86748500  1
  Mn  Mn27  1  0.06625800  0.06625800  0.13251500  1
  Mn  Mn28  1  0.75000000  0.25000000  0.50000000  1
  Mn  Mn29  1  0.00000000  0.00000000  0.00000000  1
  Si  Si0  1  0.37500000  0.77836600  0.25000000  1
  Si  Si1  1  0.52836600  0.62500000  0.75000000  1
  Si  Si2  1  0.22163400  0.12500000  0.75000000  1
  Si  Si3  1  0.87500000  0.47163400  0.25000000  1
  Si  Si4  1  0.64318400  0.20113100  0.70877700  1
  Si  Si5  1  0.06559300  0.50764600  0.70877700  1
  Si  Si6  1  0.25764600  0.31559300  0.20877700  1
  Si  Si7  1  0.79886900  0.93440700  0.29122300  1
  Si  Si8  1  0.49235400  0.35681600  0.29122300  1
  Si  Si9  1  0.10681600  0.74235400  0.79122300  1
  Si  Si10  1  0.68440700  0.04886900  0.79122300  1
  Si  Si11  1  0.95113100  0.89318400  0.20877700  1
  Si  Si12  1  0.99171700  0.01958500  0.67062200  1
  Si  Si13  1  0.67890500  0.65103800  0.67062200  1
  Si  Si14  1  0.40103800  0.92890500  0.17062200  1
  Si  Si15  1  0.98041500  0.32109500  0.32937800  1
  Si  Si16  1  0.34896200  0.00828300  0.32937800  1
  Si  Si17  1  0.75828300  0.59896200  0.82937800  1
  Si  Si18  1  0.07109500  0.23041500  0.82937800  1
  Si  Si19  1  0.76958500  0.24171700  0.17062200  1
  Si  Si20  1  0.48464600  0.97983800  0.63396000  1
  Si  Si21  1  0.14931400  0.65412100  0.63396000  1
  Si  Si22  1  0.40412100  0.39931400  0.13396000  1
  Si  Si23  1  0.02016200  0.85068600  0.36604000  1
  Si  Si24  1  0.34587900  0.51535400  0.36604000  1
  Si  Si25  1  0.26535400  0.59587900  0.86604000  1
  Si  Si26  1  0.60068600  0.27016200  0.86604000  1
  Si  Si27  1  0.72983800  0.73464600  0.13396000  1
  Si  Si28  1  0.12303200  0.14009800  0.59753000  1
  Si  Si29  1  0.47450000  0.45743200  0.59753000  1
  Si  Si30  1  0.66405900  0.24054800  0.02080200  1
  Si  Si31  1  0.21974500  0.33594100  0.97919800  1
  Si  Si32  1  0.75945200  0.64325700  0.97919800  1
  Si  Si33  1  0.39325700  0.00945200  0.47919800  1
  Si  Si34  1  0.08594100  0.46974500  0.47919800  1
  Si  Si35  1  0.35674300  0.78025500  0.02080200  1
  Si  Si36  1  0.53025500  0.60674300  0.52080200  1
  Si  Si37  1  0.99054800  0.91405900  0.52080200  1
  Si  Si38  1  0.83241700  0.87555800  0.06038400  1
  Si  Si39  1  0.81517400  0.16758300  0.93961600  1
  Si  Si40  1  0.12444200  0.77203300  0.93961600  1
  Si  Si41  1  0.52203300  0.37444200  0.43961600  1
  Si  Si42  1  0.91758300  0.06517400  0.43961600  1
  Si  Si43  1  0.22796700  0.18482600  0.06038400  1
  Si  Si44  1  0.93482600  0.47796700  0.56038400  1
  Si  Si45  1  0.62555800  0.08241700  0.56038400  1
  Si  Si46  1  0.89009800  0.37303200  0.09753000  1
  Si  Si47  1  0.27550000  0.10990200  0.90247000  1
  Si  Si48  1  0.62696800  0.79256800  0.90247000  1
  Si  Si49  1  0.54256800  0.87696800  0.40247000  1
  Si  Si50  1  0.85990200  0.52550000  0.40247000  1
  Si  Si51  1  0.20743200  0.72450000  0.09753000  1
loop_
_geom_bond_atom_site_label_1
_geom_bond_atom_site_label_2
_geom_bond_distance
_geom_bond_site_symmetry_2
Mn0 Si49 2.299980 1_555
Mn0 Si50 2.299985 1_455
Mn0 Si33 2.327761 1_565
Mn0 Si34 2.327764 1_555
Mn0 Si23 2.463022 1_555
Mn0 Si24 2.463024 1_555
Mn0 Si41 2.539386 1_555
Mn0 Si42 2.539386 1_465
Mn1 Si28 2.299980 1_565
Mn1 Si29 2.299985 1_555
Mn1 Si37 2.327761 1_455
Mn1 Si36 2.327765 1_555
Mn1 Si20 2.463022 1_555
Mn1 Si21 2.463023 1_555
Mn1 Si45 2.539386 1_565
Mn1 Si44 2.539386 1_455
Mn2 Si46 2.299980 1_555
Mn2 Si51 2.299985 1_555
Mn2 Si30 2.327761 1_555
Mn2 Si35 2.327765 1_555
Mn2 Si27 2.463022 1_555
Mn2 Si22 2.463023 1_555
Mn2 Si38 2.539386 1_555
Mn2 Si43 2.539386 1_555
Mn3 Si48 2.299980 1_555
Mn3 Si47 2.299985 1_555
Mn3 Si32 2.327761 1_555
Mn3 Si31 2.327764 1_555
Mn3 Si26 2.463022 1_555
Mn3 Si25 2.463024 1_555
Mn3 Si40 2.539386 1_555
Mn3 Si39 2.539386 1_555
Mn4 Si15 2.318027 1_455
Mn4 Si16 2.318031 1_565
Mn4 Si3 2.343085 1_455
Mn4 Si0 2.343090 1_555
Mn4 Si23 2.442801 1_555
Mn4 Si24 2.442803 1_555
Mn4 Si7 2.505864 1_455
Mn4 Si8 2.505865 1_555
Mn5 Si13 2.318027 1_555
Mn5 Si12 2.318031 1_465
Mn5 Si2 2.343087 1_565
Mn5 Si1 2.343088 1_555
Mn5 Si20 2.442799 1_555
Mn5 Si21 2.442805 1_555
Mn5 Si4 2.505860 1_565
Mn5 Si5 2.505868 1_555
Mn6 Si14 2.318027 1_555
Mn6 Si19 2.318031 1_555
Mn6 Si3 2.343087 1_555
Mn6 Si0 2.343088 1_555
Mn6 Si27 2.442799 1_555
Mn6 Si22 2.442805 1_555
Mn6 Si11 2.505860 1_555
Mn6 Si6 2.505868 1_555
Mn7 Si18 2.318027 1_555
Mn7 Si17 2.318031 1_555
Mn7 Si2 2.343085 1_555
Mn7 Si1 2.343090 1_555
Mn7 Si26 2.442801 1_555
Mn7 Si25 2.442803 1_555
Mn7 Si10 2.505864 1_555
Mn7 Si9 2.505865 1_555
Mn8 Si22 2.282578 1_555
Mn8 Si27 2.282585 1_455
Mn8 Si11 2.323383 1_455
Mn8 Si6 2.323384 1_555
Mn8 Si46 2.512524 1_455
Mn8 Si51 2.512524 1_555
Mn8 Si14 2.574926 1_555
Mn8 Si19 2.574930 1_455
Mn9 Si25 2.282576 1_555
Mn9 Si26 2.282587 1_565
Mn9 Si9 2.323381 1_555
Mn9 Si10 2.323386 1_565
Mn9 Si48 2.512522 1_555
Mn9 Si47 2.512526 1_565
Mn9 Si18 2.574926 1_565
Mn9 Si17 2.574930 1_555
Mn10 Si24 2.282576 1_555
Mn10 Si23 2.282587 1_655
Mn10 Si8 2.323381 1_555
Mn10 Si7 2.323386 1_555
Mn10 Si49 2.512522 1_555
Mn10 Si50 2.512526 1_555
Mn10 Si15 2.574926 1_555
Mn10 Si16 2.574930 1_565
Mn11 Si21 2.282578 1_555
Mn11 Si20 2.282585 1_545
Mn11 Si4 2.323383 1_555
Mn11 Si5 2.323384 1_555
Mn11 Si28 2.512524 1_555
Mn11 Si29 2.512524 1_555
Mn11 Si13 2.574926 1_555
Mn11 Si12 2.574930 1_455
Mn12 Si38 2.342896 1_455
Mn12 Si43 2.342903 1_555
Mn12 Si32 2.359493 1_454
Mn12 Si31 2.359495 1_554
Mn12 Si46 2.427236 1_455
Mn12 Si51 2.427240 1_555
Mn12 Si30 2.454550 1_455
Mn12 Si35 2.454554 1_555
Mn13 Si39 2.342898 1_565
Mn13 Si40 2.342900 1_555
Mn13 Si35 2.359492 1_556
Mn13 Si30 2.359496 1_566
Mn13 Si48 2.427234 1_555
Mn13 Si47 2.427242 1_565
Mn13 Si32 2.454546 1_555
Mn13 Si31 2.454557 1_565
Mn14 Si41 2.342896 1_555
Mn14 Si42 2.342903 1_565
Mn14 Si36 2.359490 1_555
Mn14 Si37 2.359498 1_555
Mn14 Si49 2.427236 1_555
Mn14 Si50 2.427240 1_555
Mn14 Si33 2.454550 1_565
Mn14 Si34 2.454554 1_655
Mn15 Si44 2.342899 1_455
Mn15 Si45 2.342901 1_555
Mn15 Si34 2.359493 1_555
Mn15 Si33 2.359495 1_555
Mn15 Si28 2.427234 1_555
Mn15 Si29 2.427242 1_555
Mn15 Si37 2.454546 1_445
Mn15 Si36 2.454557 1_555
Mn16 Si25 2.280880 1_655
Mn16 Si26 2.280884 1_555
Mn16 Si40 2.310978 1_655
Mn16 Si39 2.310984 1_555
Mn16 Si17 2.592024 1_555
Mn16 Si18 2.592026 1_655
Mn16 Si47 2.592130 1_655
Mn16 Si48 2.592137 1_555
Mn17 Si27 2.280880 1_545
Mn17 Si22 2.280885 1_555
Mn17 Si43 2.310980 1_555
Mn17 Si38 2.310982 1_545
Mn17 Si14 2.592022 1_545
Mn17 Si19 2.592028 1_555
Mn17 Si51 2.592125 1_545
Mn17 Si46 2.592141 1_555
Mn18 Si20 2.280880 1_555
Mn18 Si21 2.280884 1_655
Mn18 Si44 2.310980 1_555
Mn18 Si45 2.310982 1_565
Mn18 Si13 2.592022 1_555
Mn18 Si12 2.592028 1_565
Mn18 Si29 2.592125 1_555
Mn18 Si28 2.592141 1_665
Mn19 Si24 2.280880 1_555
Mn19 Si23 2.280884 1_545
Mn19 Si41 2.310978 1_555
Mn19 Si42 2.310984 1_455
Mn19 Si16 2.592024 1_555
Mn19 Si15 2.592026 1_455
Mn19 Si50 2.592130 1_455
Mn19 Si49 2.592137 1_545
Mn20 Si9 2.363561 1_655
Mn20 Si10 2.363575 1_555
Mn20 Si5 2.384593 1_655
Mn20 Si4 2.384603 1_555
Mn20 Si2 2.415401 1_655
Mn20 Si1 2.415403 1_555
Mn20 Si17 2.419013 1_555
Mn20 Si18 2.419016 1_655
Mn21 Si6 2.363567 1_555
Mn21 Si11 2.363570 1_545
Mn21 Si7 2.384597 1_545
Mn21 Si8 2.384599 1_555
Mn21 Si0 2.415394 1_545
Mn21 Si3 2.415409 1_555
Mn21 Si14 2.419009 1_545
Mn21 Si19 2.419020 1_555
Mn22 Si5 2.363567 1_655
Mn22 Si4 2.363570 1_565
Mn22 Si10 2.384597 1_565
Mn22 Si9 2.384599 1_655
Mn22 Si1 2.415394 1_555
Mn22 Si2 2.415409 1_665
Mn22 Si13 2.419009 1_555
Mn22 Si12 2.419020 1_565
Mn23 Si8 2.363561 1_555
Mn23 Si7 2.363575 1_445
Mn23 Si6 2.384593 1_555
Mn23 Si11 2.384603 1_445
Mn23 Si3 2.415401 1_455
Mn23 Si0 2.415403 1_545
Mn23 Si16 2.419013 1_555
Mn23 Si15 2.419016 1_455
Mn24 Si29 2.287820 1_555
Mn24 Si28 2.287826 1_655
Mn24 Si12 2.299879 1_555
Mn24 Si13 2.299881 1_555
Mn24 Si21 2.602250 1_655
Mn24 Si20 2.602261 1_545
Mn24 Si44 2.723883 1_555
Mn24 Si45 2.723887 1_555
Mn24 Si5 2.867493 1_655
Mn24 Si4 2.867497 1_555
Mn25 Si50 2.287822 1_555
Mn25 Si49 2.287824 1_545
Mn25 Si16 2.299879 1_555
Mn25 Si15 2.299881 1_555
Mn25 Si24 2.602254 1_555
Mn25 Si23 2.602258 1_645
Mn25 Si41 2.723885 1_555
Mn25 Si42 2.723885 1_555
Mn25 Si7 2.867495 1_545
Mn25 Si8 2.867495 1_555
Mn26 Si47 2.287822 1_665
Mn26 Si48 2.287824 1_555
Mn26 Si17 2.299879 1_555
Mn26 Si18 2.299881 1_665
Mn26 Si25 2.602254 1_655
Mn26 Si26 2.602258 1_565
Mn26 Si40 2.723885 1_655
Mn26 Si39 2.723885 1_565
Mn26 Si10 2.867495 1_565
Mn26 Si9 2.867495 1_655
Mn27 Si51 2.287820 1_545
Mn27 Si46 2.287826 1_455
Mn27 Si19 2.299879 1_455
Mn27 Si14 2.299881 1_545
Mn27 Si22 2.602250 1_555
Mn27 Si27 2.602261 1_445
Mn27 Si43 2.723883 1_555
Mn27 Si38 2.723887 1_445
Mn27 Si6 2.867493 1_555
Mn27 Si11 2.867497 1_445
Mn28 Si34 2.383695 1_655
Mn28 Si36 2.383695 1_555
Mn28 Si33 2.383698 1_555
Mn28 Si37 2.383698 1_545
Mn28 Si45 2.401934 1_555
Mn28 Si42 2.401934 1_555
Mn28 Si41 2.401934 1_555
Mn28 Si44 2.401934 1_555
Mn29 Si31 2.383695 1_554
Mn29 Si35 2.383695 1_545
Mn29 Si32 2.383698 1_444
Mn29 Si30 2.383698 1_455
Mn29 Si38 2.401934 1_445
Mn29 Si39 2.401934 1_454
Mn29 Si40 2.401934 1_544
Mn29 Si43 2.401934 1_555
