# generated using pymatgen
data_Sr5Ta4O15
_symmetry_space_group_name_H-M   'P 1'
_cell_length_a   5.66948493
_cell_length_b   5.66948420
_cell_length_c   11.54266629
_cell_angle_alpha   89.99998001
_cell_angle_beta   89.99999109
_cell_angle_gamma   120.00004420
_symmetry_Int_Tables_number   1
_chemical_formula_structural   Sr5Ta4O15
_chemical_formula_sum   'Sr5 Ta4 O15'
_cell_volume   321.30962344
_cell_formula_units_Z   1
loop_
 _symmetry_equiv_pos_site_id
 _symmetry_equiv_pos_as_xyz
  1  'x, y, z'
loop_
 _atom_site_type_symbol
 _atom_site_label
 _atom_site_symmetry_multiplicity
 _atom_site_fract_x
 _atom_site_fract_y
 _atom_site_fract_z
 _atom_site_occupancy
  Sr  Sr0  1  0.33333412  0.66666706  0.43964274  1
  Sr  Sr1  1  0.33333319  0.66666606  0.77777188  1
  Sr  Sr2  1  -0.00000001  -0.00000022  0.00000011  1
  Sr  Sr3  1  0.66666667  0.33333322  0.22222839  1
  Sr  Sr4  1  0.66666673  0.33333357  0.56035761  1
  Ta  Ta0  1  0.33333320  0.66666626  0.10473162  1
  Ta  Ta1  1  -0.00000011  -0.00000018  0.31813878  1
  Ta  Ta2  1  0.00000038  0.00000011  0.68186154  1
  Ta  Ta3  1  0.66666688  0.33333347  0.89526864  1
  O  O0  1  0.16883664  0.83116310  0.60866846  1
  O  O1  1  -0.00000012  0.49999993  0.00000007  1
  O  O2  1  0.16512195  0.83487705  0.19291953  1
  O  O3  1  0.16512151  0.33024369  0.19291905  1
  O  O4  1  0.16883719  0.33767391  0.60866832  1
  O  O5  1  0.33767370  0.16883753  0.39133173  1
  O  O6  1  0.66975494  0.83487722  0.19291944  1
  O  O7  1  0.49999988  0.49999993  0.00000003  1
  O  O8  1  0.33024509  0.16512314  0.80708071  1
  O  O9  1  0.66232615  0.83116265  0.60866875  1
  O  O10  1  0.49999993  -0.00000008  0.00000003  1
  O  O11  1  0.83487872  0.66975631  0.80708121  1
  O  O12  1  0.83116271  0.66232605  0.39133179  1
  O  O13  1  0.83487798  0.16512287  0.80708076  1
  O  O14  1  0.83116267  0.16883635  0.39133181  1
loop_
_geom_bond_atom_site_label_1
_geom_bond_atom_site_label_2
_geom_bond_distance
_geom_bond_site_symmetry_2
O0 Ta2 1.860794 1_565
O0 Sr0 2.532928 1_555
O0 Sr1 2.533619 1_555
O0 Sr4 2.889145 1_455
O0 Sr4 2.889147 1_565
O1 Ta3 2.034692 1_454
O1 Ta0 2.034694 1_555
O1 Sr2 2.834741 1_565
O1 Sr2 2.834743 1_555
O1 Sr1 3.042754 1_554
O1 Sr3 3.042755 1_455
O2 Ta0 1.940265 1_555
O2 Ta1 2.172156 1_565
O2 Sr2 2.754603 1_565
O2 Sr3 2.854893 1_455
O2 Sr3 2.854899 1_565
O3 Ta0 1.940263 1_555
O3 Ta1 2.172154 1_555
O3 Sr2 2.754596 1_555
O3 Sr3 2.854897 1_455
O3 Sr3 2.854901 1_555
O4 Ta2 1.860795 1_555
O4 Sr0 2.532925 1_555
O4 Sr1 2.533616 1_555
O4 Sr4 2.889146 1_555
O4 Sr4 2.889150 1_455
O5 Ta1 1.860795 1_555
O5 Sr4 2.532928 1_555
O5 Sr3 2.533616 1_555
O5 Sr0 2.889145 1_555
O5 Sr0 2.889152 1_545
O6 Ta0 1.940263 1_555
O6 Ta1 2.172156 1_665
O6 Sr2 2.754602 1_665
O6 Sr3 2.854897 1_555
O6 Sr3 2.854899 1_565
O7 Ta0 2.034694 1_555
O7 Ta3 2.034694 1_554
O7 Sr2 2.834740 1_665
O7 Sr2 2.834741 1_555
O7 Sr1 3.042753 1_554
O7 Sr3 3.042757 1_555
O8 Ta3 1.940263 1_555
O8 Ta2 2.172154 1_555
O8 Sr2 2.754603 1_556
O8 Sr1 2.854891 1_555
O8 Sr1 2.854904 1_545
O9 Ta2 1.860796 1_665
O9 Sr0 2.532926 1_555
O9 Sr1 2.533614 1_555
O9 Sr4 2.889145 1_555
O9 Sr4 2.889152 1_565
O10 Ta3 2.034693 1_554
O10 Ta0 2.034695 1_545
O10 Sr2 2.834742 1_555
O10 Sr2 2.834743 1_655
O10 Sr1 3.042756 1_544
O10 Sr3 3.042756 1_555
O11 Ta3 1.940264 1_555
O11 Ta2 2.172153 1_665
O11 Sr2 2.754595 1_666
O11 Sr1 2.854896 1_655
O11 Sr1 2.854901 1_555
O12 Ta1 1.860794 1_665
O12 Sr4 2.532925 1_555
O12 Sr3 2.533617 1_555
O12 Sr0 2.889143 1_555
O12 Sr0 2.889153 1_655
O13 Ta3 1.940263 1_555
O13 Ta2 2.172157 1_655
O13 Sr2 2.754603 1_656
O13 Sr1 2.854891 1_655
O13 Sr1 2.854901 1_545
O14 Ta1 1.860796 1_655
O14 Sr4 2.532928 1_555
O14 Sr3 2.533617 1_555
O14 Sr0 2.889140 1_545
O14 Sr0 2.889153 1_655
