# generated using pymatgen
data_Li4Cr3FeO8
_symmetry_space_group_name_H-M   'P 1'
_cell_length_a   5.11397240
_cell_length_b   5.88096040
_cell_length_c   10.56015234
_cell_angle_alpha   106.08282156
_cell_angle_beta   85.32722939
_cell_angle_gamma   73.49267385
_symmetry_Int_Tables_number   1
_chemical_formula_structural   Li4Cr3FeO8
_chemical_formula_sum   'Li8 Cr6 Fe2 O16'
_cell_volume   288.13281153
_cell_formula_units_Z   2
loop_
 _symmetry_equiv_pos_site_id
 _symmetry_equiv_pos_as_xyz
  1  'x, y, z'
loop_
 _atom_site_type_symbol
 _atom_site_label
 _atom_site_symmetry_multiplicity
 _atom_site_fract_x
 _atom_site_fract_y
 _atom_site_fract_z
 _atom_site_occupancy
  Li  Li0  1  0.99964300  0.12522400  0.74893600  1
  Li  Li1  1  0.00020600  0.99991700  0.99997500  1
  Li  Li2  1  0.99991800  0.24982600  0.50079900  1
  Li  Li3  1  0.99931800  0.37550600  0.25077500  1
  Li  Li4  1  0.99997400  0.62320500  0.74829800  1
  Li  Li5  1  0.00139100  0.49981600  0.00010100  1
  Li  Li6  1  0.00020400  0.75084600  0.50022800  1
  Li  Li7  1  0.99933100  0.87562900  0.25080900  1
  Cr  Cr0  1  0.49979900  0.31209800  0.37627400  1
  Cr  Cr1  1  0.50007700  0.56381900  0.87519800  1
  Cr  Cr2  1  0.49964800  0.43524500  0.12383000  1
  Cr  Cr3  1  0.49961700  0.68770400  0.62578200  1
  Cr  Cr4  1  0.50038200  0.81337500  0.37495600  1
  Cr  Cr5  1  0.49975800  0.93840900  0.12343900  1
  Fe  Fe0  1  0.49990100  0.06402200  0.87165000  1
  Fe  Fe1  1  0.50037800  0.18410700  0.63112200  1
  O  O0  1  0.27685800  0.08567000  0.31009000  1
  O  O1  1  0.73028400  0.03497700  0.43357900  1
  O  O2  1  0.26655600  0.34137400  0.81916600  1
  O  O3  1  0.71946200  0.28625300  0.93754900  1
  O  O4  1  0.72357900  0.16438700  0.18863500  1
  O  O5  1  0.27888200  0.20820600  0.05783500  1
  O  O6  1  0.27071000  0.46945300  0.55815800  1
  O  O7  1  0.73013300  0.41828800  0.69132800  1
  O  O8  1  0.27856200  0.58439200  0.30930400  1
  O  O9  1  0.72196900  0.54015200  0.43968200  1
  O  O10  1  0.28062100  0.83917700  0.81137900  1
  O  O11  1  0.71946000  0.79408300  0.93859700  1
  O  O12  1  0.27675700  0.71082100  0.06032900  1
  O  O13  1  0.27033500  0.95688200  0.55993300  1
  O  O14  1  0.72267300  0.66351300  0.18876600  1
  O  O15  1  0.73361600  0.90362000  0.69350000  1
loop_
_geom_bond_atom_site_label_1
_geom_bond_atom_site_label_2
_geom_bond_distance
_geom_bond_site_symmetry_2
Li0 O13 2.134547 1_645
Li0 O15 2.146300 1_545
Li0 O7 2.146573 1_555
Li0 O3 2.153111 1_555
Li0 O2 2.158176 1_655
Li0 O10 2.173653 1_645
Li1 O4 2.145122 1_466
Li1 O5 2.150367 1_566
Li1 O10 2.153544 1_555
Li1 O11 2.156684 1_455
Li1 O12 2.162810 1_556
Li1 O3 2.174133 1_465
Li2 O7 2.144708 1_555
Li2 O13 2.157143 1_645
Li2 O1 2.157398 1_555
Li2 O6 2.161610 1_655
Li2 O0 2.162118 1_655
Li2 O9 2.175555 1_555
Li3 O9 2.148768 1_555
Li3 O8 2.156495 1_655
Li3 O4 2.157513 1_555
Li3 O0 2.161897 1_655
Li3 O14 2.168607 1_555
Li3 O5 2.186020 1_655
Li4 O15 2.071352 1_555
Li4 O7 2.096933 1_555
Li4 O6 2.143811 1_655
Li4 O11 2.167577 1_555
Li4 O2 2.176038 1_655
Li4 O10 2.199938 1_655
Li5 O2 2.057002 1_554
Li5 O14 2.150038 1_455
Li5 O12 2.151543 1_555
Li5 O5 2.159589 1_555
Li5 O3 2.194774 1_454
Li5 O11 2.202925 1_454
Li6 O6 2.103411 1_555
Li6 O13 2.108070 1_555
Li6 O15 2.160108 1_455
Li6 O9 2.163314 1_455
Li6 O1 2.166110 1_465
Li6 O8 2.167174 1_555
Li7 O1 2.080618 1_565
Li7 O0 2.155139 1_665
Li7 O12 2.161433 1_655
Li7 O14 2.165240 1_555
Li7 O8 2.166622 1_655
Li7 O4 2.170538 1_565
Cr0 O6 1.987601 1_555
Cr0 O1 1.995639 1_555
Cr0 O9 2.007568 1_555
Cr0 O0 2.009594 1_555
Cr0 O8 2.018114 1_555
Cr0 O4 2.025466 1_555
Cr1 O12 2.003114 1_556
Cr1 O7 2.005415 1_555
Cr1 O11 2.006029 1_555
Cr1 O10 2.007786 1_555
Cr1 O3 2.007976 1_555
Cr1 O2 2.015365 1_555
Cr2 O8 2.001925 1_555
Cr2 O4 2.003036 1_555
Cr2 O5 2.003089 1_555
Cr2 O3 2.006511 1_554
Cr2 O12 2.013046 1_555
Cr2 O14 2.015115 1_555
Cr3 O10 1.999308 1_555
Cr3 O6 2.002493 1_555
Cr3 O9 2.009602 1_555
Cr3 O13 2.013033 1_555
Cr3 O15 2.013850 1_555
Cr3 O7 2.014535 1_555
Cr4 O1 2.001567 1_565
Cr4 O9 2.008267 1_555
Cr4 O0 2.008812 1_565
Cr4 O14 2.010307 1_555
Cr4 O8 2.014915 1_555
Cr4 O13 2.014937 1_555
Cr5 O11 1.993924 1_554
Cr5 O5 1.997850 1_565
Cr5 O12 2.008270 1_555
Cr5 O4 2.009028 1_565
Cr5 O0 2.015351 1_565
Cr5 O14 2.021826 1_555
Fe0 O15 1.966550 1_545
Fe0 O2 1.973372 1_555
Fe0 O10 1.975791 1_545
Fe0 O3 1.977478 1_555
Fe0 O11 2.004721 1_545
Fe0 O5 2.007944 1_556
Fe1 O15 2.046833 1_545
Fe1 O2 2.048319 1_555
Fe1 O13 2.053222 1_545
Fe1 O7 2.058544 1_555
Fe1 O1 2.122265 1_555
Fe1 O6 2.129087 1_555
