# generated using pymatgen
data_Li3Si2BiO7
_symmetry_space_group_name_H-M   'P 1'
_cell_length_a   9.05586239
_cell_length_b   9.05586239
_cell_length_c   13.86474100
_cell_angle_alpha   90.00000000
_cell_angle_beta   90.00000000
_cell_angle_gamma   120.00000288
_symmetry_Int_Tables_number   1
_chemical_formula_structural   Li3Si2BiO7
_chemical_formula_sum   'Li18 Si12 Bi6 O42'
_cell_volume   984.69562788
_cell_formula_units_Z   6
loop_
 _symmetry_equiv_pos_site_id
 _symmetry_equiv_pos_as_xyz
  1  'x, y, z'
loop_
 _atom_site_type_symbol
 _atom_site_label
 _atom_site_symmetry_multiplicity
 _atom_site_fract_x
 _atom_site_fract_y
 _atom_site_fract_z
 _atom_site_occupancy
  Li  Li0  1  0.31348100  0.98571800  0.08799200  1
  Li  Li1  1  0.31304400  0.98434300  0.41328600  1
  Li  Li2  1  0.01428200  0.32776300  0.08799200  1
  Li  Li3  1  0.01565700  0.32870000  0.41328600  1
  Li  Li4  1  0.00000000  0.00000000  0.49959700  1
  Li  Li5  1  0.00000000  0.00000000  0.99959700  1
  Li  Li6  1  0.33333300  0.66666700  0.25172000  1
  Li  Li7  1  0.33333300  0.66666700  0.76222700  1
  Li  Li8  1  0.32776300  0.31348100  0.58799200  1
  Li  Li9  1  0.32870000  0.31304400  0.91328600  1
  Li  Li10  1  0.67223700  0.68651900  0.08799200  1
  Li  Li11  1  0.67130000  0.68695600  0.41328600  1
  Li  Li12  1  0.66666700  0.33333300  0.26222700  1
  Li  Li13  1  0.66666700  0.33333300  0.75172000  1
  Li  Li14  1  0.98434300  0.67130000  0.91328600  1
  Li  Li15  1  0.98571800  0.67223700  0.58799200  1
  Li  Li16  1  0.68651900  0.01428200  0.58799200  1
  Li  Li17  1  0.68695600  0.01565700  0.91328600  1
  Si  Si0  1  0.32562500  0.98038400  0.85909600  1
  Si  Si1  1  0.32533800  0.97999200  0.64117400  1
  Si  Si2  1  0.02000800  0.34534500  0.64117400  1
  Si  Si3  1  0.01961600  0.34524100  0.85909600  1
  Si  Si4  1  0.34524100  0.32562500  0.35909600  1
  Si  Si5  1  0.34534500  0.32533800  0.14117400  1
  Si  Si6  1  0.65465500  0.67466200  0.64117400  1
  Si  Si7  1  0.65475900  0.67437500  0.85909600  1
  Si  Si8  1  0.98038400  0.65475900  0.35909600  1
  Si  Si9  1  0.97999200  0.65465500  0.14117400  1
  Si  Si10  1  0.67437500  0.01961600  0.35909600  1
  Si  Si11  1  0.67466200  0.02000800  0.14117400  1
  Bi  Bi0  1  0.33333300  0.66666700  0.02208400  1
  Bi  Bi1  1  0.00000000  0.00000000  0.25016500  1
  Bi  Bi2  1  0.00000000  0.00000000  0.75016500  1
  Bi  Bi3  1  0.33333300  0.66666700  0.48058300  1
  Bi  Bi4  1  0.66666700  0.33333300  0.52208400  1
  Bi  Bi5  1  0.66666700  0.33333300  0.98058300  1
  O  O0  1  0.08746200  0.86304200  0.13634100  1
  O  O1  1  0.08647700  0.86315100  0.36469100  1
  O  O2  1  0.09995000  0.56724500  0.12895300  1
  O  O3  1  0.10161800  0.56888900  0.37162200  1
  O  O4  1  0.23376800  0.82573200  0.56184100  1
  O  O5  1  0.23471800  0.82275000  0.93645300  1
  O  O6  1  0.29257900  0.88123300  0.75014800  1
  O  O7  1  0.11876700  0.41134600  0.75014800  1
  O  O8  1  0.17426800  0.40803600  0.56184100  1
  O  O9  1  0.17725000  0.41196800  0.93645300  1
  O  O10  1  0.46729500  0.90005000  0.12895300  1
  O  O11  1  0.46727100  0.89838200  0.37162200  1
  O  O12  1  0.13695800  0.22442000  0.13634100  1
  O  O13  1  0.13684900  0.22332600  0.36469100  1
  O  O14  1  0.43275500  0.53270500  0.12895300  1
  O  O15  1  0.43111100  0.53272900  0.37162200  1
  O  O16  1  0.22332600  0.08647700  0.86469100  1
  O  O17  1  0.22442000  0.08746200  0.63634100  1
  O  O18  1  0.59196400  0.76623200  0.56184100  1
  O  O19  1  0.58803200  0.76528200  0.93645300  1
  O  O20  1  0.58865400  0.70742100  0.75014800  1
  O  O21  1  0.41134600  0.29257900  0.25014800  1
  O  O22  1  0.40803600  0.23376800  0.06184100  1
  O  O23  1  0.41196800  0.23471800  0.43645300  1
  O  O24  1  0.77558000  0.91253800  0.13634100  1
  O  O25  1  0.77667400  0.91352300  0.36469100  1
  O  O26  1  0.56724500  0.46729500  0.62895300  1
  O  O27  1  0.56888900  0.46727100  0.87162200  1
  O  O28  1  0.86304200  0.77558000  0.63634100  1
  O  O29  1  0.86315100  0.77667400  0.86469100  1
  O  O30  1  0.53272900  0.10161800  0.87162200  1
  O  O31  1  0.53270500  0.09995000  0.62895300  1
  O  O32  1  0.82275000  0.58803200  0.43645300  1
  O  O33  1  0.82573200  0.59196400  0.06184100  1
  O  O34  1  0.88123300  0.58865400  0.25014800  1
  O  O35  1  0.70742100  0.11876700  0.25014800  1
  O  O36  1  0.76528200  0.17725000  0.43645300  1
  O  O37  1  0.76623200  0.17426800  0.06184100  1
  O  O38  1  0.90005000  0.43275500  0.62895300  1
  O  O39  1  0.89838200  0.43111100  0.87162200  1
  O  O40  1  0.91253800  0.13695800  0.63634100  1
  O  O41  1  0.91352300  0.13684900  0.86469100  1
loop_
_geom_bond_atom_site_label_1
_geom_bond_atom_site_label_2
_geom_bond_distance
_geom_bond_site_symmetry_2
Li0 O0 1.897119 1_555
Li0 O10 1.986261 1_555
Li0 O22 1.996774 1_565
Li0 O5 2.459378 1_554
Li1 O1 1.901674 1_555
Li1 O11 1.994383 1_555
Li1 O23 2.003855 1_565
Li1 O4 2.406162 1_555
Li2 O12 1.897119 1_555
Li2 O2 1.986261 1_555
Li2 O37 1.996774 1_455
Li2 O9 2.459378 1_554
Li3 O13 1.901667 1_555
Li3 O3 1.994391 1_555
Li3 O36 2.003854 1_455
Li3 O8 2.406162 1_555
Li4 O13 2.572578 1_555
Li4 O25 2.572578 1_445
Li4 O1 2.572578 1_545
Li4 O28 2.596627 1_445
Li4 O17 2.596627 1_555
Li4 O40 2.596627 1_455
Li5 O29 2.572578 1_445
Li5 O16 2.572578 1_555
Li5 O41 2.572578 1_455
Li5 O12 2.596627 1_556
Li5 O24 2.596627 1_446
Li5 O0 2.596627 1_546
Li6 O3 2.468362 1_555
Li6 O11 2.468362 1_555
Li6 O15 2.468368 1_555
Li6 O2 2.504361 1_555
Li6 O10 2.504362 1_555
Li6 O14 2.504367 1_555
Li7 O6 2.157993 1_555
Li7 O7 2.157998 1_555
Li7 O20 2.158002 1_555
Li8 O17 1.897119 1_555
Li8 O26 1.986261 1_555
Li8 O8 1.996774 1_555
Li8 O23 2.459378 1_555
Li9 O16 1.901675 1_555
Li9 O27 1.994389 1_555
Li9 O9 2.003847 1_555
Li9 O22 2.406166 1_556
Li10 O24 1.897119 1_555
Li10 O14 1.986261 1_555
Li10 O33 1.996774 1_555
Li10 O19 2.459378 1_554
Li11 O25 1.901675 1_555
Li11 O15 1.994389 1_555
Li11 O32 2.003847 1_555
Li11 O18 2.406166 1_555
Li12 O35 2.157993 1_555
Li12 O34 2.157998 1_555
Li12 O21 2.158002 1_555
Li13 O39 2.468362 1_555
Li13 O30 2.468362 1_555
Li13 O27 2.468368 1_555
Li13 O38 2.504361 1_555
Li13 O31 2.504362 1_555
Li13 O26 2.504367 1_555
Li14 O29 1.901667 1_555
Li14 O39 1.994391 1_555
Li14 O5 2.003854 1_655
Li14 O33 2.406162 1_556
Li15 O28 1.897119 1_555
Li15 O38 1.986261 1_555
Li15 O4 1.996774 1_655
Li15 O32 2.459378 1_555
Li16 O40 1.897119 1_555
Li16 O31 1.986261 1_555
Li16 O18 1.996774 1_545
Li16 O36 2.459378 1_555
Li17 O41 1.901674 1_555
Li17 O30 1.994383 1_555
Li17 O19 2.003855 1_545
Li17 O37 2.406162 1_556
Bi0 O5 2.338219 1_554
Bi0 O9 2.338225 1_554
Bi0 O19 2.338226 1_554
Bi0 O2 2.360093 1_555
Bi0 O10 2.360093 1_555
Bi0 O14 2.360099 1_555
Bi1 O12 2.374550 1_555
Bi1 O24 2.374550 1_445
Bi1 O0 2.374550 1_545
Bi1 O13 2.375072 1_555
Bi1 O25 2.375072 1_445
Bi1 O1 2.375072 1_545
Bi2 O28 2.374550 1_445
Bi2 O17 2.374550 1_555
Bi2 O40 2.374550 1_455
Bi2 O29 2.375072 1_445
Bi2 O16 2.375072 1_555
Bi2 O41 2.375072 1_455
Bi3 O4 2.335807 1_555
Bi3 O8 2.335813 1_555
Bi3 O18 2.335814 1_555
Bi3 O3 2.368853 1_555
Bi3 O11 2.368854 1_555
Bi3 O15 2.368860 1_555
Bi4 O36 2.338219 1_555
Bi4 O32 2.338225 1_555
Bi4 O23 2.338226 1_555
Bi4 O38 2.360093 1_555
Bi4 O31 2.360093 1_555
Bi4 O26 2.360099 1_555
Bi5 O37 2.335807 1_556
Bi5 O33 2.335813 1_556
Bi5 O22 2.335814 1_556
Bi5 O39 2.368853 1_555
Bi5 O30 2.368854 1_555
Bi5 O27 2.368860 1_555
O0 Si9 1.635940 1_455
O1 Si8 1.636267 1_455
O2 Si9 1.641737 1_455
O3 Si8 1.641323 1_455
O4 Si1 1.640295 1_555
O5 Si0 1.640323 1_555
O6 Si1 1.704510 1_555
O6 Si0 1.705518 1_555
O7 Si2 1.704511 1_555
O7 Si3 1.705518 1_555
O8 Si2 1.640294 1_555
O9 Si3 1.640323 1_555
O10 Si11 1.641729 1_565
O11 Si10 1.641323 1_565
O12 Si5 1.635939 1_555
O13 Si4 1.636267 1_555
O14 Si5 1.641729 1_555
O15 Si4 1.641323 1_555
O16 Si0 1.636267 1_545
O17 Si1 1.635947 1_545
O18 Si6 1.640300 1_555
O19 Si7 1.640323 1_555
O20 Si6 1.704514 1_555
O20 Si7 1.705518 1_555
O21 Si5 1.704514 1_555
O21 Si4 1.705518 1_555
O22 Si5 1.640300 1_555
O23 Si4 1.640323 1_555
O24 Si11 1.635947 1_565
O25 Si10 1.636267 1_565
O26 Si6 1.641729 1_555
O27 Si7 1.641323 1_555
O28 Si6 1.635939 1_555
O29 Si7 1.636267 1_555
O30 Si0 1.641323 1_545
O31 Si1 1.641729 1_545
O32 Si8 1.640323 1_555
O33 Si9 1.640294 1_555
O34 Si9 1.704511 1_555
O34 Si8 1.705518 1_555
O35 Si11 1.704510 1_555
O35 Si10 1.705518 1_555
O36 Si10 1.640323 1_555
O37 Si11 1.640295 1_555
O38 Si2 1.641737 1_655
O39 Si3 1.641323 1_655
O40 Si2 1.635940 1_655
O41 Si3 1.636267 1_655
