# generated using pymatgen
data_Na5Ca2Ce3Ti8Nb2O30
_symmetry_space_group_name_H-M   'P 1'
_cell_length_a   3.94628810
_cell_length_b   3.94601481
_cell_length_c   39.09871600
_cell_angle_alpha   90.02670832
_cell_angle_beta   90.00361026
_cell_angle_gamma   90.00024013
_symmetry_Int_Tables_number   1
_chemical_formula_structural   Na5Ca2Ce3Ti8Nb2O30
_chemical_formula_sum   'Na5 Ca2 Ce3 Ti8 Nb2 O30'
_cell_volume   608.84948901
_cell_formula_units_Z   1
loop_
 _symmetry_equiv_pos_site_id
 _symmetry_equiv_pos_as_xyz
  1  'x, y, z'
loop_
 _atom_site_type_symbol
 _atom_site_label
 _atom_site_symmetry_multiplicity
 _atom_site_fract_x
 _atom_site_fract_y
 _atom_site_fract_z
 _atom_site_occupancy
  Na  Na0  1  0.99999296  0.99998109  0.00032133  1
  Na  Na1  1  0.00001189  0.00003348  0.20024987  1
  Na  Na2  1  0.00000237  0.00002386  0.40068004  1
  Na  Na3  1  0.00000393  0.99998389  0.60289684  1
  Na  Na4  1  0.00000399  0.00001895  0.90150227  1
  Ca  Ca0  1  0.00000436  0.00007055  0.69411921  1
  Ca  Ca1  1  0.99999589  0.00005467  0.79322369  1
  Ce  Ce0  1  0.00008069  0.99998769  0.10038734  1
  Ce  Ce1  1  0.99999132  0.99999421  0.30025898  1
  Ce  Ce2  1  0.99999751  0.99996929  0.50061542  1
  Ti  Ti0  1  0.50002996  0.49992570  0.15126298  1
  Ti  Ti1  1  0.50002203  0.50004396  0.05071245  1
  Ti  Ti2  1  0.49998698  0.49997887  0.35134689  1
  Ti  Ti3  1  0.50001134  0.50001743  0.24949951  1
  Ti  Ti4  1  0.49999745  0.49994048  0.44970922  1
  Ti  Ti5  1  0.49998484  0.49992837  0.64927762  1
  Ti  Ti6  1  0.50000047  0.50002896  0.55150399  1
  Ti  Ti7  1  0.49999208  0.49998635  0.74779619  1
  Nb  Nb0  1  0.49999935  0.50000783  0.84898954  1
  Nb  Nb1  1  0.49999799  0.50000988  0.95113807  1
  O  O0  1  0.99999128  0.50022609  0.05619775  1
  O  O1  1  0.99997839  0.49980796  0.14478406  1
  O  O2  1  0.00001181  0.50008197  0.54397769  1
  O  O3  1  -0.00000058  0.50001135  0.95049941  1
  O  O4  1  0.50000531  0.50004384  0.00260317  1
  O  O5  1  0.49994235  0.50003221  0.10077376  1
  O  O6  1  0.50000505  -0.00000518  0.05616383  1
  O  O7  1  0.49999679  0.49998814  0.20005495  1
  O  O8  1  0.49996543  0.00004893  0.14482007  1
  O  O9  1  0.50000447  0.49999414  0.29994299  1
  O  O10  1  0.50002242  0.99988842  0.25508743  1
  O  O11  1  0.50000060  0.49999500  0.39972743  1
  O  O12  1  0.49997638  0.00010330  0.34451943  1
  O  O13  1  0.49999506  0.99988735  0.45480765  1
  O  O14  1  0.50000529  0.00012102  0.54397857  1
  O  O15  1  0.50000002  0.49999878  0.49969396  1
  O  O16  1  0.49999878  0.49999800  0.59916523  1
  O  O17  1  0.50000217  0.99994624  0.65318667  1
  O  O18  1  0.49999355  0.99996187  0.75140812  1
  O  O19  1  0.50000626  0.50002604  0.70025938  1
  O  O20  1  0.49999658  0.00001680  0.84737301  1
  O  O21  1  0.50000516  0.49999723  0.79872077  1
  O  O22  1  0.49999743  0.50000030  0.89988556  1
  O  O23  1  0.50000143  0.00001664  0.95049576  1
  O  O24  1  0.99999301  0.50002350  0.25508906  1
  O  O25  1  0.00000821  0.49997627  0.34451611  1
  O  O26  1  0.99998861  0.49995384  0.45481090  1
  O  O27  1  0.00000215  0.49995882  0.65318699  1
  O  O28  1  -0.00000081  0.49992891  0.75140608  1
  O  O29  1  -0.00000002  0.49998666  0.84737275  1
loop_
_geom_bond_atom_site_label_1
_geom_bond_atom_site_label_2
_geom_bond_distance
_geom_bond_site_symmetry_2
Na0 O3 2.771877 1_654
Na0 O23 2.772695 1_564
Na0 O23 2.772917 1_664
Na0 O3 2.773340 1_664
Na0 O4 2.791594 1_555
Na0 O4 2.791667 1_655
Na0 O4 2.791897 1_565
Na0 O4 2.791947 1_665
Na0 O6 2.942796 1_665
Na0 O6 2.942916 1_565
Na0 O0 2.943714 1_565
Na0 O0 2.943783 1_555
Na1 O7 2.790189 1_555
Na1 O7 2.790285 1_455
Na1 O7 2.790449 1_545
Na1 O7 2.790521 1_445
Na1 O24 2.913075 1_455
Na1 O10 2.913761 1_545
Na1 O10 2.913887 1_445
Na1 O24 2.914481 1_445
Na1 O8 2.930873 1_555
Na1 O8 2.930936 1_455
Na1 O1 2.931772 1_445
Na1 O1 2.931935 1_455
Na2 O11 2.790522 1_555
Na2 O11 2.790540 1_455
Na2 O11 2.790665 1_445
Na2 O11 2.790670 1_545
Na2 O26 2.892598 1_455
Na2 O13 2.893349 1_545
Na2 O13 2.893570 1_445
Na2 O26 2.894320 1_445
Na2 O25 2.951542 1_545
Na2 O12 2.952072 1_455
Na2 O12 2.952120 1_555
Na2 O25 2.952659 1_555
Na3 O27 2.784782 1_565
Na3 O17 2.785496 1_555
Na3 O17 2.785682 1_455
Na3 O27 2.786220 1_555
Na3 O16 2.794073 1_555
Na3 O16 2.794077 1_455
Na3 O16 2.794236 1_565
Na3 O16 2.794263 1_465
Na3 O2 3.032138 1_555
Na3 O14 3.033053 1_465
Na3 O14 3.033249 1_565
Na3 O2 3.034038 1_565
Na4 O3 2.749385 1_555
Na4 O23 2.749952 1_555
Na4 O23 2.750140 1_455
Na4 O3 2.750710 1_545
Na4 O22 2.791014 1_555
Na4 O22 2.791056 1_455
Na4 O22 2.791088 1_545
Na4 O22 2.791107 1_445
Na4 O29 2.892835 1_545
Na4 O20 2.893436 1_455
Na4 O20 2.893578 1_555
Na4 O29 2.894007 1_555
Ca0 O27 2.540241 1_545
Ca0 O17 2.540521 1_445
Ca0 O17 2.540664 1_545
Ca0 O27 2.540715 1_555
Ca0 O19 2.800445 1_555
Ca0 O19 2.800468 1_455
Ca0 O19 2.800861 1_445
Ca0 O19 2.800862 1_545
Ca0 O28 2.983845 1_555
Ca0 O18 2.984933 1_545
Ca0 O18 2.985176 1_445
Ca0 O28 2.985964 1_545
Ca1 O28 2.562222 1_645
Ca1 O18 2.562409 1_545
Ca1 O18 2.562553 1_645
Ca1 O28 2.562632 1_655
Ca1 O21 2.798375 1_555
Ca1 O21 2.798396 1_655
Ca1 O21 2.798824 1_545
Ca1 O21 2.798868 1_645
Ca1 O29 2.893124 1_655
Ca1 O20 2.893991 1_655
Ca1 O20 2.894170 1_555
Ca1 O29 2.894836 1_645
Ce0 O0 2.621262 1_455
Ce0 O6 2.623409 1_565
Ce0 O6 2.623694 1_465
Ce0 O0 2.623889 1_465
Ce0 O1 2.626778 1_465
Ce0 O8 2.628527 1_565
Ce0 O1 2.629058 1_455
Ce0 O8 2.629374 1_465
Ce0 O5 2.789891 1_555
Ce0 O5 2.790118 1_565
Ce0 O5 2.790653 1_455
Ce0 O5 2.790903 1_465
Ce1 O25 2.623656 1_665
Ce1 O12 2.624377 1_665
Ce1 O12 2.624630 1_565
Ce1 O25 2.624975 1_655
Ce1 O24 2.647284 1_555
Ce1 O10 2.647954 1_555
Ce1 O10 2.648302 1_655
Ce1 O24 2.648683 1_565
Ce1 O9 2.790331 1_555
Ce1 O9 2.790350 1_565
Ce1 O9 2.790413 1_665
Ce1 O9 2.790417 1_655
Ce2 O2 2.601116 1_665
Ce2 O14 2.601447 1_665
Ce2 O14 2.601562 1_565
Ce2 O2 2.601641 1_655
Ce2 O26 2.664023 1_555
Ce2 O13 2.664706 1_555
Ce2 O13 2.664859 1_655
Ce2 O26 2.665169 1_565
Ce2 O15 2.790474 1_555
Ce2 O15 2.790503 1_655
Ce2 O15 2.790674 1_565
Ce2 O15 2.790680 1_665
Nb0 O21 1.965444 1_555
Nb0 O20 1.973955 1_555
Nb0 O20 1.974084 1_565
Nb0 O29 1.974150 1_555
Nb0 O29 1.974163 1_655
Nb0 O22 1.989969 1_555
Nb1 O23 1.973129 1_555
Nb1 O23 1.973206 1_565
Nb1 O3 1.973295 1_555
Nb1 O3 1.973309 1_655
Nb1 O22 2.003907 1_555
Nb1 O4 2.012219 1_556
O0 Ti1 1.984632 1_555
O0 Ti1 1.984900 1_655
O1 Ti0 1.989152 1_555
O1 Ti0 1.989524 1_655
O2 Ti6 1.994904 1_555
O2 Ti6 1.995029 1_455
O4 Ti1 1.881011 1_555
O5 Ti1 1.957333 1_555
O5 Ti0 1.974064 1_555
O6 Ti1 1.984195 1_545
O6 Ti1 1.984778 1_555
O7 Ti0 1.907703 1_555
O7 Ti3 1.933219 1_555
O8 Ti0 1.988425 1_555
O8 Ti0 1.989623 1_545
O9 Ti3 1.972275 1_555
O9 Ti2 2.009827 1_555
O10 Ti3 1.984460 1_555
O10 Ti3 1.985674 1_565
O11 Ti2 1.891617 1_555
O11 Ti4 1.954224 1_555
O12 Ti2 1.990374 1_555
O12 Ti2 1.991594 1_545
O13 Ti4 1.982751 1_555
O13 Ti4 1.983353 1_565
O14 Ti6 1.994331 1_555
O14 Ti6 1.995321 1_545
O15 Ti4 1.954339 1_555
O15 Ti6 2.025706 1_555
O16 Ti6 1.863493 1_555
O16 Ti5 1.959330 1_555
O17 Ti5 1.978918 1_555
O17 Ti5 1.978919 1_565
O18 Ti7 1.977893 1_555
O18 Ti7 1.978217 1_565
O19 Ti7 1.858628 1_555
O19 Ti5 1.993321 1_555
O21 Ti7 1.991086 1_555
O24 Ti3 1.985124 1_555
O24 Ti3 1.985296 1_655
O25 Ti2 1.991037 1_555
O25 Ti2 1.991237 1_455
O26 Ti4 1.983154 1_555
O26 Ti4 1.983248 1_655
O27 Ti5 1.978997 1_555
O27 Ti5 1.979114 1_455
O28 Ti7 1.978167 1_555
O28 Ti7 1.978205 1_455
