# generated using pymatgen
data_CoP2H24C8S4NClO4
_symmetry_space_group_name_H-M   'P 1'
_cell_length_a   7.33007100
_cell_length_b   8.78068857
_cell_length_c   16.83196852
_cell_angle_alpha   95.16916988
_cell_angle_beta   95.48097741
_cell_angle_gamma   89.90306806
_symmetry_Int_Tables_number   1
_chemical_formula_structural   CoP2H24C8S4NClO4
_chemical_formula_sum   'Co2 P4 H48 C16 S8 N2 Cl2 O8'
_cell_volume   1073.99206852
_cell_formula_units_Z   2
loop_
 _symmetry_equiv_pos_site_id
 _symmetry_equiv_pos_as_xyz
  1  'x, y, z'
loop_
 _atom_site_type_symbol
 _atom_site_label
 _atom_site_symmetry_multiplicity
 _atom_site_fract_x
 _atom_site_fract_y
 _atom_site_fract_z
 _atom_site_occupancy
  Co  Co0  1  0.24951900  0.82248000  0.75547600  1
  Co  Co1  1  0.75048100  0.17752000  0.24452400  1
  P  P0  1  0.18147400  0.67207200  0.90312100  1
  P  P1  1  0.81852600  0.32792800  0.09687900  1
  P  P2  1  0.26920200  0.77015900  0.57424700  1
  P  P3  1  0.73079800  0.22984100  0.42575300  1
  H  H0  1  0.33073100  0.94928200  0.95643100  1
  H  H1  1  0.66926900  0.05071800  0.04356900  1
  H  H2  1  0.38143800  0.91851400  0.06033100  1
  H  H3  1  0.61856200  0.08148600  0.93966900  1
  H  H4  1  0.15453200  0.97267900  0.02409700  1
  H  H5  1  0.84546800  0.02732100  0.97590300  1
  H  H6  1  0.37157700  0.39004200  0.93336200  1
  H  H7  1  0.62842300  0.60995800  0.06663800  1
  H  H8  1  0.27702900  0.45135500  0.02604300  1
  H  H9  1  0.72297100  0.54864500  0.97395700  1
  H  H10  1  0.17505900  0.29422300  0.96179900  1
  H  H11  1  0.82494100  0.70577700  0.03820100  1
  H  H12  1  0.13577500  0.45368600  0.55496500  1
  H  H13  1  0.86422500  0.54631400  0.44503500  1
  H  H14  1  0.38281900  0.45690100  0.56554700  1
  H  H15  1  0.61718100  0.54309900  0.43445300  1
  H  H16  1  0.26044900  0.40089500  0.46974300  1
  H  H17  1  0.73955100  0.59910500  0.53025700  1
  H  H18  1  0.26530800  0.12543500  0.49068700  1
  H  H19  1  0.73469200  0.87456500  0.50931300  1
  H  H20  1  0.15078700  0.08993700  0.57735700  1
  H  H21  1  0.84921300  0.91006300  0.42264300  1
  H  H22  1  0.39709200  0.08006100  0.58151500  1
  H  H23  1  0.60290800  0.91993900  0.41848500  1
  H  H24  1  0.50498900  0.70407600  0.28740200  1
  H  H25  1  0.49501100  0.29592400  0.71259800  1
  H  H26  1  0.38708300  0.52370500  0.28485900  1
  H  H27  1  0.61291700  0.47629500  0.71514100  1
  H  H28  1  0.37970700  0.66184400  0.37023900  1
  H  H29  1  0.62029300  0.33815600  0.62976100  1
  H  H30  1  0.05191800  0.65569900  0.35534200  1
  H  H31  1  0.94808200  0.34430100  0.64465800  1
  H  H32  1  0.92727500  0.69340400  0.26150000  1
  H  H33  1  0.07272500  0.30659600  0.73850000  1
  H  H34  1  0.05187400  0.51710200  0.26971300  1
  H  H35  1  0.94812600  0.48289800  0.73028700  1
  H  H36  1  0.33554300  0.93722500  0.27632300  1
  H  H37  1  0.66445700  0.06277500  0.72367700  1
  H  H38  1  0.21130700  0.89566700  0.35901900  1
  H  H39  1  0.78869300  0.10433300  0.64098100  1
  H  H40  1  0.08726300  0.93151900  0.26526800  1
  H  H41  1  0.91273700  0.06848100  0.73473200  1
  H  H42  1  0.34512900  0.74639300  0.16206600  1
  H  H43  1  0.65487100  0.25360700  0.83793400  1
  H  H44  1  0.09804400  0.75296800  0.15040300  1
  H  H45  1  0.90195600  0.24703200  0.84959700  1
  H  H46  1  0.21153400  0.57293200  0.15800300  1
  H  H47  1  0.78846600  0.42706800  0.84199700  1
  C  C0  1  0.27651400  0.90727300  0.00913400  1
  C  C1  1  0.72348600  0.09272700  0.99086600  1
  C  C2  1  0.24545900  0.40462000  0.96358700  1
  C  C3  1  0.75454100  0.59538000  0.03641300  1
  C  C4  1  0.25937600  0.47583000  0.52542600  1
  C  C5  1  0.74062400  0.52417000  0.47457400  1
  C  C6  1  0.26795100  0.05955200  0.54313700  1
  C  C7  1  0.73204900  0.94044800  0.45686300  1
  C  C8  1  0.38501600  0.64590300  0.30517700  1
  C  C9  1  0.61498400  0.35409700  0.69482300  1
  C  C10  1  0.04852900  0.63952600  0.28991700  1
  C  C11  1  0.95147100  0.36047400  0.71008300  1
  C  C12  1  0.21232800  0.88324800  0.29355500  1
  C  C13  1  0.78767200  0.11675200  0.70644500  1
  C  C14  1  0.21810700  0.69555000  0.17722600  1
  C  C15  1  0.78189300  0.30445000  0.82277400  1
  S  S0  1  0.40865000  0.66843700  0.84317100  1
  S  S1  1  0.59135000  0.33156300  0.15682900  1
  S  S2  1  0.97901200  0.77477500  0.84346400  1
  S  S3  1  0.02098800  0.22522500  0.15653600  1
  S  S4  1  0.05083000  0.77055800  0.63880400  1
  S  S5  1  0.94917000  0.22944200  0.36119600  1
  S  S6  1  0.49744900  0.77721100  0.64700700  1
  S  S7  1  0.50255100  0.22278900  0.35299300  1
  N  N0  1  0.21607700  0.71558500  0.26653800  1
  N  N1  1  0.78392300  0.28441500  0.73346200  1
  Cl  Cl0  1  0.30435600  0.07700200  0.79054200  1
  Cl  Cl1  1  0.69564400  0.92299800  0.20945800  1
  O  O0  1  0.22852100  0.74620000  0.99438500  1
  O  O1  1  0.77147900  0.25380000  0.00561500  1
  O  O2  1  0.11958700  0.50416900  0.92087400  1
  O  O3  1  0.88041300  0.49583100  0.07912600  1
  O  O4  1  0.25743000  0.63125300  0.50324500  1
  O  O5  1  0.74257000  0.36874700  0.49675500  1
  O  O6  1  0.25456500  0.90045700  0.51180900  1
  O  O7  1  0.74543500  0.09954300  0.48819100  1
loop_
_geom_bond_atom_site_label_1
_geom_bond_atom_site_label_2
_geom_bond_distance
_geom_bond_site_symmetry_2
Co0 S0 2.322596 1_555
Co0 S4 2.340962 1_555
Co0 S2 2.641225 1_455
Co0 S6 2.700874 1_555
Co1 S1 2.322596 1_555
Co1 S5 2.340962 1_555
Co1 S3 2.641225 1_655
Co1 S7 2.700874 1_555
P0 S2 1.974325 1_455
P0 S0 2.026625 1_555
P1 S3 1.974325 1_655
P1 S1 2.026625 1_555
P2 S6 1.974367 1_555
P2 S4 2.018540 1_555
P3 S7 1.974367 1_555
P3 S5 2.018540 1_555
C0 H2 1.096442 1_555
C0 H0 1.098975 1_554
C0 H4 1.099073 1_555
C0 O0 1.451707 1_554
C1 H3 1.096442 1_555
C1 H1 1.098975 1_556
C1 H5 1.099073 1_555
C1 O1 1.451707 1_556
C2 H10 1.095596 1_555
C2 H8 1.096908 1_556
C2 H6 1.098878 1_555
C2 O2 1.454656 1_555
C3 H11 1.095596 1_555
C3 H9 1.096908 1_554
C3 H7 1.098878 1_555
C3 O3 1.454656 1_555
C4 H16 1.096227 1_555
C4 H14 1.097911 1_555
C4 H12 1.099967 1_555
C4 O4 1.446646 1_555
C5 H17 1.096227 1_555
C5 H15 1.097911 1_555
C5 H13 1.099967 1_555
C5 O5 1.446646 1_555
C6 H18 1.096886 1_555
C6 H20 1.098431 1_555
C6 H22 1.099361 1_555
C6 O6 1.448115 1_545
C7 H19 1.096886 1_555
C7 H21 1.098431 1_555
C7 H23 1.099361 1_555
C7 O7 1.448115 1_565
C8 H28 1.095856 1_555
C8 H24 1.096865 1_555
C8 H26 1.096947 1_555
C8 N0 1.498704 1_555
C9 H29 1.095856 1_555
C9 H25 1.096865 1_555
C9 H27 1.096947 1_555
C9 N1 1.498704 1_555
C10 H30 1.095491 1_555
C10 H32 1.095765 1_455
C10 H34 1.098834 1_555
C10 N0 1.500552 1_555
C11 H31 1.095491 1_555
C11 H33 1.095765 1_655
C11 H35 1.098834 1_555
C11 N1 1.500552 1_555
C12 H40 1.094723 1_555
C12 H36 1.095787 1_555
C12 H38 1.098192 1_555
C12 N0 1.502175 1_555
C13 H41 1.094723 1_555
C13 H37 1.095787 1_555
C13 H39 1.098192 1_555
C13 N1 1.502175 1_555
C14 H44 1.093691 1_555
C14 H42 1.094828 1_555
C14 H46 1.095745 1_555
C14 N0 1.499227 1_555
C15 H45 1.093691 1_555
C15 H43 1.094828 1_555
C15 H47 1.095745 1_555
C15 N1 1.499227 1_555
Cl0 Co0 2.285749 1_545
Cl1 Co1 2.285749 1_565
O0 P0 1.619181 1_555
O1 P1 1.619181 1_555
O2 P0 1.605052 1_555
O3 P1 1.605052 1_555
O4 P2 1.625226 1_555
O5 P3 1.625226 1_555
O6 P2 1.618550 1_555
O7 P3 1.618550 1_555
