# generated using pymatgen
data_Ba4IrO6
_symmetry_space_group_name_H-M   'P 1'
_cell_length_a   7.30769192
_cell_length_b   7.30769192
_cell_length_c   7.30769181
_cell_angle_alpha   89.68204031
_cell_angle_beta   89.68204031
_cell_angle_gamma   89.68203552
_symmetry_Int_Tables_number   1
_chemical_formula_structural   Ba4IrO6
_chemical_formula_sum   'Ba8 Ir2 O12'
_cell_volume   390.23003646
_cell_formula_units_Z   2
loop_
 _symmetry_equiv_pos_site_id
 _symmetry_equiv_pos_as_xyz
  1  'x, y, z'
loop_
 _atom_site_type_symbol
 _atom_site_label
 _atom_site_symmetry_multiplicity
 _atom_site_fract_x
 _atom_site_fract_y
 _atom_site_fract_z
 _atom_site_occupancy
  Ba  Ba0  1  0.75000000  0.11684173  0.38315827  1
  Ba  Ba1  1  0.61684173  0.25000000  0.88315827  1
  Ba  Ba2  1  0.88315827  0.61684173  0.25000000  1
  Ba  Ba3  1  0.75000000  0.75000000  0.75000000  1
  Ba  Ba4  1  0.25000000  0.25000000  0.25000000  1
  Ba  Ba5  1  0.11684173  0.38315827  0.75000000  1
  Ba  Ba6  1  0.38315827  0.75000000  0.11684173  1
  Ba  Ba7  1  0.25000000  0.88315827  0.61684173  1
  Ir  Ir0  1  0.00000000  0.00000000  -0.00000000  1
  Ir  Ir1  1  0.50000000  0.50000000  0.50000000  1
  O  O0  1  0.92803007  0.06138572  0.73035340  1
  O  O1  1  0.93861428  0.26964660  0.07196993  1
  O  O2  1  0.76964660  0.43861428  0.57196993  1
  O  O3  1  0.42803007  0.23035340  0.56138572  1
  O  O4  1  0.26964660  0.07196993  0.93861428  1
  O  O5  1  0.56138572  0.42803007  0.23035340  1
  O  O6  1  0.43861428  0.57196993  0.76964660  1
  O  O7  1  0.57196993  0.76964660  0.43861428  1
  O  O8  1  0.73035340  0.92803007  0.06138572  1
  O  O9  1  0.23035340  0.56138572  0.42803007  1
  O  O10  1  0.06138572  0.73035340  0.92803007  1
  O  O11  1  0.07196993  0.93861428  0.26964660  1
loop_
_geom_bond_atom_site_label_1
_geom_bond_atom_site_label_2
_geom_bond_distance
_geom_bond_site_symmetry_2
Ba0 O8 2.737792 1_545
Ba0 O2 2.737792 1_555
Ba0 O11 2.806540 1_645
Ba0 O3 2.806540 1_555
Ba0 O5 2.876146 1_555
Ba0 O1 2.876146 1_555
Ba0 O0 2.883320 1_555
Ba0 O7 2.883320 1_545
Ba1 O3 2.737792 1_555
Ba1 O1 2.737792 1_556
Ba1 O6 2.806540 1_555
Ba1 O8 2.806540 1_546
Ba1 O0 2.876146 1_555
Ba1 O2 2.876146 1_555
Ba1 O5 2.883320 1_556
Ba1 O4 2.883320 1_555
Ba2 O11 2.737792 1_655
Ba2 O5 2.737792 1_555
Ba2 O2 2.806540 1_555
Ba2 O10 2.806540 1_654
Ba2 O7 2.876146 1_555
Ba2 O8 2.876146 1_555
Ba2 O9 2.883320 1_655
Ba2 O1 2.883320 1_555
Ba3 O7 2.630265 1_555
Ba3 O8 2.630265 1_556
Ba3 O2 2.630265 1_555
Ba3 O10 2.630265 1_655
Ba3 O6 2.630265 1_555
Ba3 O0 2.630265 1_565
Ba4 O4 2.630265 1_554
Ba4 O3 2.630265 1_555
Ba4 O9 2.630265 1_555
Ba4 O1 2.630265 1_455
Ba4 O5 2.630265 1_555
Ba4 O11 2.630265 1_545
Ba5 O0 2.737792 1_455
Ba5 O6 2.737792 1_555
Ba5 O9 2.806540 1_555
Ba5 O1 2.806540 1_456
Ba5 O3 2.876146 1_555
Ba5 O4 2.876146 1_555
Ba5 O10 2.883320 1_555
Ba5 O2 2.883320 1_455
Ba6 O7 2.737792 1_555
Ba6 O10 2.737792 1_554
Ba6 O5 2.806540 1_555
Ba6 O4 2.806540 1_564
Ba6 O11 2.876146 1_555
Ba6 O9 2.876146 1_555
Ba6 O6 2.883320 1_554
Ba6 O8 2.883320 1_555
Ba7 O4 2.737792 1_565
Ba7 O9 2.737792 1_555
Ba7 O0 2.806540 1_465
Ba7 O7 2.806540 1_555
Ba7 O6 2.876146 1_555
Ba7 O10 2.876146 1_555
Ba7 O11 2.883320 1_555
Ba7 O3 2.883320 1_565
Ir0 O10 2.088003 1_544
Ir0 O1 2.088003 1_455
Ir0 O0 2.088003 1_454
Ir0 O11 2.088003 1_545
Ir0 O8 2.088004 1_445
Ir0 O4 2.088004 1_554
Ir1 O2 2.088003 1_555
Ir1 O9 2.088003 1_555
Ir1 O5 2.088003 1_555
Ir1 O6 2.088003 1_555
Ir1 O7 2.088004 1_555
Ir1 O3 2.088004 1_555
