# generated using pymatgen
data_Na3CrBPO7
_symmetry_space_group_name_H-M   'P 1'
_cell_length_a   5.28941300
_cell_length_b   8.95043431
_cell_length_c   13.16506105
_cell_angle_alpha   89.99026658
_cell_angle_beta   90.00041774
_cell_angle_gamma   88.14690815
_symmetry_Int_Tables_number   1
_chemical_formula_structural   Na3CrBPO7
_chemical_formula_sum   'Na12 Cr4 B4 P4 O28'
_cell_volume   622.94151373
_cell_formula_units_Z   4
loop_
 _symmetry_equiv_pos_site_id
 _symmetry_equiv_pos_as_xyz
  1  'x, y, z'
loop_
 _atom_site_type_symbol
 _atom_site_label
 _atom_site_symmetry_multiplicity
 _atom_site_fract_x
 _atom_site_fract_y
 _atom_site_fract_z
 _atom_site_occupancy
  Na  Na0  1  0.75838700  0.07245100  0.12498400  1
  Na  Na1  1  0.75836600  0.07251200  0.62496000  1
  Na  Na2  1  0.24161100  0.92753800  0.37500500  1
  Na  Na3  1  0.24163300  0.92750700  0.87504500  1
  Na  Na4  1  0.25082800  0.25438100  0.00189300  1
  Na  Na5  1  0.25073700  0.25443500  0.50186600  1
  Na  Na6  1  0.25081300  0.25437300  0.24808300  1
  Na  Na7  1  0.25089100  0.25438800  0.74807900  1
  Na  Na8  1  0.74916800  0.74562900  0.25191600  1
  Na  Na9  1  0.74915400  0.74562200  0.75192200  1
  Na  Na10  1  0.74922800  0.74560300  0.49810700  1
  Na  Na11  1  0.74923600  0.74559300  0.99813700  1
  Cr  Cr0  1  0.77917400  0.33657400  0.87501200  1
  Cr  Cr1  1  0.22084500  0.66354600  0.62502700  1
  Cr  Cr2  1  0.77911100  0.33667500  0.37500300  1
  Cr  Cr3  1  0.22071900  0.66329800  0.12499600  1
  B  B0  1  0.72884800  0.06824200  0.37501500  1
  B  B1  1  0.72885700  0.06819900  0.87502200  1
  B  B2  1  0.27112100  0.93169800  0.12498500  1
  B  B3  1  0.27117900  0.93185100  0.62496500  1
  P  P0  1  0.71913200  0.42247200  0.12500400  1
  P  P1  1  0.71912800  0.42254400  0.62500800  1
  P  P2  1  0.28083900  0.57750500  0.37500600  1
  P  P3  1  0.28094200  0.57747600  0.87499000  1
  O  O0  1  0.30155400  0.08013100  0.12499100  1
  O  O1  1  0.30149300  0.08028200  0.62498200  1
  O  O2  1  0.69841100  0.91981100  0.37500300  1
  O  O3  1  0.69847000  0.91975900  0.87501600  1
  O  O4  1  0.96370500  0.13822900  0.37506600  1
  O  O5  1  0.96375800  0.13815000  0.87505100  1
  O  O6  1  0.03624500  0.86170500  0.12493500  1
  O  O7  1  0.03630100  0.86184700  0.62494500  1
  O  O8  1  0.52878800  0.17641700  0.37501400  1
  O  O9  1  0.52889200  0.17647300  0.87501800  1
  O  O10  1  0.47111200  0.82348800  0.12498600  1
  O  O11  1  0.47117400  0.82359700  0.62498300  1
  O  O12  1  0.43000600  0.46413700  0.12506700  1
  O  O13  1  0.43002100  0.46431500  0.62506000  1
  O  O14  1  0.56997300  0.53580200  0.37492400  1
  O  O15  1  0.57007000  0.53571800  0.87493200  1
  O  O16  1  0.12730900  0.43377300  0.37501900  1
  O  O17  1  0.12738500  0.43377300  0.87498900  1
  O  O18  1  0.87261400  0.56621700  0.12498600  1
  O  O19  1  0.87270400  0.56625000  0.62499200  1
  O  O20  1  0.78545100  0.32252000  0.03134700  1
  O  O21  1  0.78544500  0.32258800  0.53133500  1
  O  O22  1  0.78561900  0.32246800  0.21863300  1
  O  O23  1  0.78563900  0.32251400  0.71864000  1
  O  O24  1  0.21436600  0.67749200  0.28136400  1
  O  O25  1  0.21441400  0.67753000  0.78137800  1
  O  O26  1  0.21459700  0.67749300  0.46865800  1
  O  O27  1  0.21453700  0.67740800  0.96865500  1
loop_
_geom_bond_atom_site_label_1
_geom_bond_atom_site_label_2
_geom_bond_distance
_geom_bond_site_symmetry_2
Na0 O6 2.353455 1_645
Na0 O0 2.415133 1_555
Na0 O20 2.563118 1_555
Na0 O22 2.563227 1_555
Na0 O10 2.737399 1_545
Na0 O0 2.876078 1_655
Na1 O7 2.353132 1_645
Na1 O1 2.415342 1_555
Na1 O21 2.563104 1_555
Na1 O23 2.563324 1_555
Na1 O11 2.736787 1_545
Na1 O1 2.875912 1_655
Na2 O4 2.353223 1_465
Na2 O2 2.414957 1_555
Na2 O26 2.563010 1_555
Na2 O24 2.563409 1_555
Na2 O8 2.736472 1_565
Na2 O2 2.876276 1_455
Na3 O5 2.352789 1_465
Na3 O3 2.415152 1_555
Na3 O25 2.563022 1_555
Na3 O27 2.563197 1_555
Na3 O9 2.737372 1_565
Na3 O3 2.876091 1_455
Na4 O0 2.258932 1_555
Na4 O9 2.318090 1_554
Na4 O17 2.393095 1_554
Na4 O5 2.505817 1_454
Na4 O20 2.546496 1_455
Na4 O12 2.677412 1_555
Na5 O1 2.258522 1_555
Na5 O8 2.318105 1_555
Na5 O16 2.392231 1_555
Na5 O4 2.505227 1_455
Na5 O21 2.546121 1_455
Na5 O13 2.678573 1_555
Na6 O0 2.259217 1_555
Na6 O8 2.318262 1_555
Na6 O16 2.393905 1_555
Na6 O4 2.506620 1_455
Na6 O22 2.545441 1_455
Na6 O12 2.675855 1_555
Na7 O1 2.258358 1_555
Na7 O9 2.318321 1_555
Na7 O17 2.393580 1_555
Na7 O5 2.506971 1_455
Na7 O23 2.545771 1_455
Na7 O13 2.676794 1_555
Na8 O2 2.258810 1_555
Na8 O10 2.318277 1_555
Na8 O18 2.393844 1_555
Na8 O6 2.506237 1_655
Na8 O24 2.545535 1_655
Na8 O14 2.676198 1_555
Na9 O3 2.258562 1_555
Na9 O11 2.318402 1_555
Na9 O19 2.393745 1_555
Na9 O7 2.507010 1_655
Na9 O25 2.545782 1_655
Na9 O15 2.676484 1_555
Na10 O2 2.258778 1_555
Na10 O11 2.318283 1_555
Na10 O19 2.392733 1_555
Na10 O7 2.505843 1_655
Na10 O26 2.546391 1_655
Na10 O14 2.677924 1_555
Na11 O3 2.258654 1_555
Na11 O10 2.318009 1_556
Na11 O18 2.392409 1_556
Na11 O6 2.504768 1_656
Na11 O27 2.546253 1_655
Na11 O15 2.678394 1_555
Cr0 O9 1.982086 1_555
Cr0 O5 1.998802 1_555
Cr0 O20 2.062180 1_556
Cr0 O17 2.062238 1_655
Cr0 O23 2.062727 1_555
Cr0 O15 2.067090 1_555
Cr1 O11 1.981925 1_555
Cr1 O7 1.997744 1_555
Cr1 O19 2.062294 1_455
Cr1 O25 2.062408 1_555
Cr1 O26 2.062567 1_555
Cr1 O13 2.067941 1_555
Cr2 O8 1.983283 1_555
Cr2 O4 1.998998 1_555
Cr2 O16 2.061769 1_655
Cr2 O21 2.062163 1_555
Cr2 O22 2.062785 1_555
Cr2 O14 2.067052 1_555
Cr3 O10 1.983085 1_555
Cr3 O6 1.998401 1_555
Cr3 O18 2.061254 1_455
Cr3 O27 2.062283 1_554
Cr3 O24 2.062739 1_555
Cr3 O12 2.067709 1_555
B0 O2 1.343400 1_545
B0 O4 1.409227 1_555
B0 O8 1.411014 1_555
B1 O3 1.343439 1_545
B1 O5 1.409283 1_555
B1 O9 1.411236 1_555
B2 O0 1.343414 1_565
B2 O6 1.409343 1_555
B2 O10 1.410956 1_555
B3 O1 1.343301 1_565
B3 O7 1.409399 1_555
B3 O11 1.411232 1_555
O12 P0 1.562359 1_555
O13 P1 1.562458 1_555
O14 P2 1.562471 1_555
O15 P3 1.562542 1_555
O16 P2 1.543384 1_555
O17 P3 1.543242 1_555
O18 P0 1.543343 1_555
O19 P1 1.543321 1_555
O20 P0 1.556843 1_555
O21 P1 1.557028 1_555
O22 P0 1.556755 1_555
O23 P1 1.556944 1_555
O24 P2 1.556788 1_555
O25 P3 1.556876 1_555
O26 P2 1.556890 1_555
O27 P3 1.556919 1_555
