# generated using pymatgen
data_VFe3(PO4)6
_symmetry_space_group_name_H-M   'P 1'
_cell_length_a   8.86278251
_cell_length_b   8.86278251
_cell_length_c   8.86278313
_cell_angle_alpha   58.45220494
_cell_angle_beta   58.45220494
_cell_angle_gamma   58.45220252
_symmetry_Int_Tables_number   1
_chemical_formula_structural   VFe3(PO4)6
_chemical_formula_sum   'V1 Fe3 P6 O24'
_cell_volume   474.82663678
_cell_formula_units_Z   1
loop_
 _symmetry_equiv_pos_site_id
 _symmetry_equiv_pos_as_xyz
  1  'x, y, z'
loop_
 _atom_site_type_symbol
 _atom_site_label
 _atom_site_symmetry_multiplicity
 _atom_site_fract_x
 _atom_site_fract_y
 _atom_site_fract_z
 _atom_site_occupancy
  V  V0  1  0.85903300  0.85903300  0.85903300  1
  Fe  Fe0  1  0.14346300  0.14346300  0.14346300  1
  Fe  Fe1  1  0.35790900  0.35790900  0.35790900  1
  Fe  Fe2  1  0.64216500  0.64216500  0.64216500  1
  P  P0  1  0.03353700  0.46787400  0.75020600  1
  P  P1  1  0.46787400  0.75020600  0.03353700  1
  P  P2  1  0.75020600  0.03353700  0.46787400  1
  P  P3  1  0.24936500  0.96550800  0.53495900  1
  P  P4  1  0.53495900  0.24936500  0.96550800  1
  P  P5  1  0.96550800  0.53495900  0.24936500  1
  O  O0  1  0.13816700  0.51567300  0.26650300  1
  O  O1  1  0.26650300  0.13816700  0.51567300  1
  O  O2  1  0.06033500  0.28814700  0.92134500  1
  O  O3  1  0.51567300  0.26650300  0.13816700  1
  O  O4  1  0.21005900  0.45216400  0.57556000  1
  O  O5  1  0.99454700  0.64123000  0.78662700  1
  O  O6  1  0.28814700  0.92134500  0.06033500  1
  O  O7  1  0.45216400  0.57556000  0.21005900  1
  O  O8  1  0.57556000  0.21005900  0.45216400  1
  O  O9  1  0.22554100  0.98926000  0.36411900  1
  O  O10  1  0.07100900  0.93201600  0.71500900  1
  O  O11  1  0.36411900  0.22554100  0.98926000  1
  O  O12  1  0.64123000  0.78662700  0.99454700  1
  O  O13  1  0.92134500  0.06033500  0.28814700  1
  O  O14  1  0.78662700  0.99454700  0.64123000  1
  O  O15  1  0.41896000  0.78677600  0.56348400  1
  O  O16  1  0.56348400  0.41896000  0.78677600  1
  O  O17  1  0.71500900  0.07100900  0.93201600  1
  O  O18  1  0.98926000  0.36411900  0.22554100  1
  O  O19  1  0.78677600  0.56348400  0.41896000  1
  O  O20  1  0.49011900  0.72697300  0.86236000  1
  O  O21  1  0.93201600  0.71500900  0.07100900  1
  O  O22  1  0.72697300  0.86236000  0.49011900  1
  O  O23  1  0.86236000  0.49011900  0.72697300  1
loop_
_geom_bond_atom_site_label_1
_geom_bond_atom_site_label_2
_geom_bond_distance
_geom_bond_site_symmetry_2
Fe0 O18 1.967990 1_455
Fe0 O11 1.967990 1_554
Fe0 O9 1.967990 1_545
Fe0 O6 1.987461 1_545
Fe0 O13 1.987461 1_455
Fe0 O2 1.987461 1_554
Fe1 O0 2.005078 1_555
Fe1 O1 2.005078 1_555
Fe1 O3 2.005078 1_555
Fe1 O8 2.007897 1_555
Fe1 O7 2.007897 1_555
Fe1 O4 2.007897 1_555
Fe2 O15 1.974198 1_555
Fe2 O16 1.974198 1_555
Fe2 O19 1.974198 1_555
Fe2 O23 1.978014 1_555
Fe2 O22 1.978014 1_555
Fe2 O20 1.978014 1_555
O0 P5 1.528485 1_455
O1 P3 1.528485 1_545
O2 P0 1.532046 1_555
O3 P4 1.528486 1_554
O4 P0 1.525256 1_555
O5 P0 1.559120 1_655
O5 V0 1.908982 1_555
O6 P1 1.532046 1_555
O7 P1 1.525256 1_555
O8 P2 1.525256 1_555
O9 P3 1.528381 1_555
O10 P3 1.577664 1_555
O10 V0 1.864263 1_455
O11 P4 1.528381 1_555
O12 P1 1.559120 1_556
O12 V0 1.908982 1_555
O13 P2 1.532046 1_555
O14 P2 1.559120 1_565
O14 V0 1.908982 1_555
O15 P3 1.522992 1_555
O16 P4 1.522992 1_555
O17 P4 1.577664 1_555
O17 V0 1.864263 1_545
O18 P5 1.528381 1_555
O19 P5 1.522992 1_555
O20 P1 1.534371 1_556
O21 P5 1.577664 1_555
O21 V0 1.864263 1_554
O22 P2 1.534371 1_565
O23 P0 1.534371 1_655
