# generated using pymatgen
data_CsPO4
_symmetry_space_group_name_H-M   'P 1'
_cell_length_a   5.32072700
_cell_length_b   6.42298100
_cell_length_c   8.13147276
_cell_angle_alpha   90.00000000
_cell_angle_beta   107.67016908
_cell_angle_gamma   90.00000000
_symmetry_Int_Tables_number   1
_chemical_formula_structural   CsPO4
_chemical_formula_sum   'Cs2 P2 O8'
_cell_volume   264.78143319
_cell_formula_units_Z   2
loop_
 _symmetry_equiv_pos_site_id
 _symmetry_equiv_pos_as_xyz
  1  'x, y, z'
loop_
 _atom_site_type_symbol
 _atom_site_label
 _atom_site_symmetry_multiplicity
 _atom_site_fract_x
 _atom_site_fract_y
 _atom_site_fract_z
 _atom_site_occupancy
  Cs  Cs0  1  0.23865800  0.25000000  0.25752400  1
  Cs  Cs1  1  0.76134200  0.75000000  0.74247600  1
  P  P0  1  0.72352400  0.75000000  0.23939900  1
  P  P1  1  0.27647600  0.25000000  0.76060100  1
  O  O0  1  0.98313700  0.75000000  0.39197600  1
  O  O1  1  0.01686300  0.25000000  0.60802400  1
  O  O2  1  0.49191900  0.75000000  0.31528800  1
  O  O3  1  0.50808100  0.25000000  0.68471200  1
  O  O4  1  0.72613900  0.94950800  0.13395700  1
  O  O5  1  0.27386100  0.44950800  0.86604300  1
  O  O6  1  0.27386100  0.05049200  0.86604300  1
  O  O7  1  0.72613900  0.55049200  0.13395700  1
loop_
_geom_bond_atom_site_label_1
_geom_bond_atom_site_label_2
_geom_bond_distance
_geom_bond_site_symmetry_2
Cs0 O7 3.241557 1_455
Cs0 O4 3.241557 1_445
Cs0 O3 3.331423 1_555
Cs0 O1 3.399627 1_555
Cs0 O2 3.459176 1_545
Cs0 O2 3.459176 1_555
Cs0 O5 3.488931 1_554
Cs0 O6 3.488931 1_554
Cs0 O4 3.611701 1_545
Cs0 O7 3.611701 1_555
Cs1 O6 3.241557 1_665
Cs1 O5 3.241557 1_655
Cs1 O2 3.331423 1_555
Cs1 O0 3.399627 1_555
Cs1 O3 3.459176 1_565
Cs1 O3 3.459176 1_555
Cs1 O7 3.488931 1_556
Cs1 O4 3.488931 1_556
Cs1 O6 3.611701 1_565
Cs1 O5 3.611701 1_555
O0 P0 1.551437 1_555
O1 P1 1.551437 1_555
O2 P0 1.536563 1_555
O3 P1 1.536563 1_555
O4 P0 1.544230 1_555
O5 P1 1.544230 1_555
O6 P1 1.544230 1_555
O7 P0 1.544230 1_555
