# generated using pymatgen
data_Li4Ti5Cr3O16
_symmetry_space_group_name_H-M   'P 1'
_cell_length_a   5.92530969
_cell_length_b   5.92530969
_cell_length_c   9.55997821
_cell_angle_alpha   89.91443796
_cell_angle_beta   89.91443796
_cell_angle_gamma   60.01402792
_symmetry_Int_Tables_number   1
_chemical_formula_structural   Li4Ti5Cr3O16
_chemical_formula_sum   'Li4 Ti5 Cr3 O16'
_cell_volume   290.71695999
_cell_formula_units_Z   1
loop_
 _symmetry_equiv_pos_site_id
 _symmetry_equiv_pos_as_xyz
  1  'x, y, z'
loop_
 _atom_site_type_symbol
 _atom_site_label
 _atom_site_symmetry_multiplicity
 _atom_site_fract_x
 _atom_site_fract_y
 _atom_site_fract_z
 _atom_site_occupancy
  Li  Li0  1  0.33567900  0.33567900  0.10547800  1
  Li  Li1  1  0.00093500  0.00093500  0.00685900  1
  Li  Li2  1  0.00065600  0.00065600  0.50349600  1
  Li  Li3  1  0.66630800  0.66630800  0.60164900  1
  Ti  Ti0  1  0.82605000  0.82605000  0.27661700  1
  Ti  Ti1  1  0.65649000  0.16535900  0.78142600  1
  Ti  Ti2  1  0.33237600  0.33237600  0.50258200  1
  Ti  Ti3  1  0.16535900  0.65649000  0.78142600  1
  Ti  Ti4  1  0.65939900  0.65939900  0.00819300  1
  Cr  Cr0  1  0.17082100  0.17082100  0.78872600  1
  Cr  Cr1  1  0.82992100  0.34034900  0.28804800  1
  Cr  Cr2  1  0.34034900  0.82992100  0.28804800  1
  O  O0  1  0.66346400  0.16564600  0.40415400  1
  O  O1  1  0.48045600  0.48045600  0.65893000  1
  O  O2  1  0.33730000  0.33730000  0.89699300  1
  O  O3  1  0.00112300  0.00112300  0.69122700  1
  O  O4  1  0.99813300  0.99813300  0.19321200  1
  O  O5  1  0.16564600  0.66346400  0.40415400  1
  O  O6  1  0.48386700  0.03989100  0.66067500  1
  O  O7  1  0.03989100  0.48386700  0.66067500  1
  O  O8  1  0.83255100  0.83255100  0.90270100  1
  O  O9  1  0.16825200  0.16825200  0.40573400  1
  O  O10  1  0.96320900  0.52377400  0.15874900  1
  O  O11  1  0.52377400  0.96320900  0.15874900  1
  O  O12  1  0.67240800  0.67240800  0.39610300  1
  O  O13  1  0.82914000  0.33359400  0.90459200  1
  O  O14  1  0.52250100  0.52250100  0.15835100  1
  O  O15  1  0.33359400  0.82914000  0.90459200  1
loop_
_geom_bond_atom_site_label_1
_geom_bond_atom_site_label_2
_geom_bond_distance
_geom_bond_site_symmetry_2
Li0 O10 1.977877 1_455
Li0 O11 1.977877 1_545
Li0 O14 1.983562 1_555
Li0 O2 1.993153 1_554
Li1 O4 1.781713 1_445
Li1 O15 1.966953 1_544
Li1 O13 1.966953 1_454
Li1 O8 1.995847 1_444
Li2 O3 1.794719 1_555
Li2 O9 1.956020 1_555
Li2 O5 1.974849 1_545
Li2 O0 1.974849 1_455
Li3 O12 1.965904 1_555
Li3 O1 1.983402 1_555
Li3 O7 1.999252 1_655
Li3 O6 1.999252 1_565
Cr0 O3 1.976646 1_555
Cr0 O2 1.999041 1_555
Cr0 O6 2.024529 1_555
Cr0 O7 2.024529 1_555
Cr0 O13 2.073814 1_455
Cr0 O15 2.073814 1_545
Cr1 O4 1.977298 1_545
Cr1 O12 1.994257 1_555
Cr1 O14 2.014422 1_555
Cr1 O10 2.045480 1_555
Cr1 O9 2.069888 1_655
Cr1 O0 2.071299 1_555
Cr2 O4 1.977298 1_455
Cr2 O12 1.994257 1_555
Cr2 O14 2.014422 1_555
Cr2 O11 2.045480 1_555
Cr2 O9 2.069888 1_565
Cr2 O5 2.071299 1_555
O0 Ti2 1.941661 1_555
O0 Ti0 2.128330 1_545
O1 Ti3 1.998930 1_555
O1 Ti1 1.998930 1_555
O1 Ti2 2.133350 1_555
O2 Ti1 1.976531 1_555
O2 Ti3 1.976531 1_555
O3 Ti1 1.967598 1_455
O3 Ti3 1.967598 1_545
O4 Ti0 1.936362 1_555
O5 Ti2 1.941661 1_555
O5 Ti0 2.128330 1_455
O6 Ti1 1.922936 1_555
O6 Ti2 2.129487 1_555
O7 Ti3 1.922936 1_555
O7 Ti2 2.129487 1_555
O8 Ti4 2.041653 1_556
O8 Ti3 2.064381 1_655
O8 Ti1 2.064381 1_565
O9 Ti2 1.923379 1_555
O10 Ti0 1.920015 1_555
O10 Ti4 2.125153 1_555
O11 Ti0 1.920015 1_555
O11 Ti4 2.125153 1_555
O12 Ti0 1.945406 1_555
O13 Ti4 1.944543 1_556
O13 Ti1 2.110239 1_555
O14 Ti4 2.006839 1_555
O15 Ti4 1.944543 1_556
O15 Ti3 2.110239 1_555
