# generated using pymatgen
data_Li2TiFeO4
_symmetry_space_group_name_H-M   'P 1'
_cell_length_a   4.09678089
_cell_length_b   4.01493184
_cell_length_c   9.34007554
_cell_angle_alpha   77.59471975
_cell_angle_beta   77.29820345
_cell_angle_gamma   89.99645669
_symmetry_Int_Tables_number   1
_chemical_formula_structural   Li2TiFeO4
_chemical_formula_sum   'Li4 Ti2 Fe2 O8'
_cell_volume   146.19009702
_cell_formula_units_Z   2
loop_
 _symmetry_equiv_pos_site_id
 _symmetry_equiv_pos_as_xyz
  1  'x, y, z'
loop_
 _atom_site_type_symbol
 _atom_site_label
 _atom_site_symmetry_multiplicity
 _atom_site_fract_x
 _atom_site_fract_y
 _atom_site_fract_z
 _atom_site_occupancy
  Li  Li0  1  0.87340300  0.37302100  0.25369500  1
  Li  Li1  1  0.62936600  0.12943200  0.74176200  1
  Li  Li2  1  0.48592600  0.48523400  0.02885000  1
  Li  Li3  1  0.26208600  0.26316400  0.47424800  1
  Ti  Ti0  1  0.74824300  0.75216600  0.49925300  1
  Ti  Ti1  1  0.00345500  0.00158300  0.99612600  1
  Fe  Fe0  1  0.37617800  0.87576800  0.24812600  1
  Fe  Fe1  1  0.11884500  0.61887100  0.76264100  1
  O  O0  1  0.87411800  0.87379300  0.25211100  1
  O  O1  1  0.64255400  0.64227700  0.71536800  1
  O  O2  1  0.75329300  0.25278500  0.49283500  1
  O  O3  1  0.25034100  0.74961900  0.50079400  1
  O  O4  1  0.37536400  0.37497900  0.24973100  1
  O  O5  1  0.11184400  0.11203800  0.77616400  1
  O  O6  1  0.49777700  0.99823000  0.00291400  1
  O  O7  1  0.99720700  0.49704000  0.00538200  1
loop_
_geom_bond_atom_site_label_1
_geom_bond_atom_site_label_2
_geom_bond_distance
_geom_bond_site_symmetry_2
Li0 O0 2.007437 1_555
Li0 O0 2.007594 1_545
Li0 O4 2.048587 1_655
Li0 O4 2.048800 1_555
Li0 O2 2.125444 1_555
Li0 O7 2.206972 1_555
Li1 O1 2.019751 1_555
Li1 O1 2.022501 1_545
Li1 O5 2.069960 1_655
Li1 O5 2.072210 1_555
Li1 O2 2.212434 1_555
Li1 O6 2.321085 1_546
Li2 O4 1.963159 1_555
Li2 O6 2.020523 1_545
Li2 O6 2.020803 1_555
Li2 O7 2.057016 1_555
Li2 O7 2.060949 1_455
Li3 O4 1.995478 1_555
Li3 O3 2.020180 1_555
Li3 O3 2.022407 1_545
Li3 O2 2.052907 1_455
Li3 O2 2.057185 1_555
Fe0 O4 2.007464 1_555
Fe0 O4 2.007569 1_565
Fe0 O0 2.048441 1_555
Fe0 O0 2.048953 1_455
Fe0 O6 2.179416 1_555
Fe0 O3 2.245679 1_555
Fe1 O5 2.010759 1_565
Fe1 O5 2.011362 1_555
Fe1 O1 2.090984 1_455
Fe1 O1 2.091089 1_555
Fe1 O7 2.157448 1_456
Fe1 O3 2.327259 1_555
O0 Ti0 2.196591 1_555
O0 Ti1 2.275162 1_664
O1 Ti0 1.920845 1_555
O2 Ti0 1.997903 1_545
O2 Ti0 2.018677 1_555
O3 Ti0 2.036690 1_555
O3 Ti0 2.060207 1_455
O5 Ti1 1.955007 1_555
O6 Ti1 2.039961 1_564
O6 Ti1 2.058597 1_664
O7 Ti1 2.008831 1_664
O7 Ti1 2.009492 1_654
