# generated using pymatgen
data_Dy2V2O7
_symmetry_space_group_name_H-M   'P 1'
_cell_length_a   5.83576036
_cell_length_b   5.83576036
_cell_length_c   5.24109941
_cell_angle_alpha   83.73985746
_cell_angle_beta   96.26014254
_cell_angle_gamma   70.56996885
_symmetry_Int_Tables_number   1
_chemical_formula_structural   Dy2V2O7
_chemical_formula_sum   'Dy2 V2 O7'
_cell_volume   165.29969769
_cell_formula_units_Z   1
loop_
 _symmetry_equiv_pos_site_id
 _symmetry_equiv_pos_as_xyz
  1  'x, y, z'
loop_
 _atom_site_type_symbol
 _atom_site_label
 _atom_site_symmetry_multiplicity
 _atom_site_fract_x
 _atom_site_fract_y
 _atom_site_fract_z
 _atom_site_occupancy
  Dy  Dy0  1  0.31212400  0.31212400  0.50000000  1
  Dy  Dy1  1  0.68787600  0.68787600  0.50000000  1
  V  V0  1  0.24272900  0.75727100  0.90047600  1
  V  V1  1  0.75727100  0.24272900  0.09952400  1
  O  O0  1  0.06818800  0.60904200  0.70621700  1
  O  O1  1  0.39095800  0.93181200  0.70621700  1
  O  O2  1  0.41821000  0.58179000  0.22196500  1
  O  O3  1  0.58179000  0.41821000  0.77803500  1
  O  O4  1  0.00000000  0.00000000  0.00000000  1
  O  O5  1  0.60904200  0.06818800  0.29378300  1
  O  O6  1  0.93181200  0.39095800  0.29378300  1
loop_
_geom_bond_atom_site_label_1
_geom_bond_atom_site_label_2
_geom_bond_distance
_geom_bond_site_symmetry_2
Dy0 O6 2.234878 1_455
Dy0 O1 2.234878 1_545
Dy0 O5 2.302153 1_555
Dy0 O0 2.302153 1_555
Dy0 O2 2.308269 1_555
Dy0 O3 2.308269 1_555
Dy1 O5 2.234878 1_565
Dy1 O0 2.234878 1_655
Dy1 O6 2.302153 1_555
Dy1 O1 2.302153 1_555
Dy1 O3 2.308269 1_555
Dy1 O2 2.308269 1_555
O0 V0 1.836976 1_555
O1 V0 1.836976 1_555
O2 V0 1.867126 1_554
O2 V1 2.488209 1_555
O3 V1 1.867126 1_556
O3 V0 2.488209 1_555
O4 V1 1.808979 1_455
O4 V0 1.808979 1_544
O5 V1 1.836976 1_555
O6 V1 1.836976 1_555
