# generated using pymatgen
data_Li3V3P8O29
_symmetry_space_group_name_H-M   'P 1'
_cell_length_a   9.70754700
_cell_length_b   9.73349575
_cell_length_c   14.27581274
_cell_angle_alpha   90.54521246
_cell_angle_beta   90.08609734
_cell_angle_gamma   119.68809510
_symmetry_Int_Tables_number   1
_chemical_formula_structural   Li3V3P8O29
_chemical_formula_sum   'Li6 V6 P16 O58'
_cell_volume   1171.75131105
_cell_formula_units_Z   2
loop_
 _symmetry_equiv_pos_site_id
 _symmetry_equiv_pos_as_xyz
  1  'x, y, z'
loop_
 _atom_site_type_symbol
 _atom_site_label
 _atom_site_symmetry_multiplicity
 _atom_site_fract_x
 _atom_site_fract_y
 _atom_site_fract_z
 _atom_site_occupancy
  Li  Li0  1  0.67789700  0.91063300  0.55271900  1
  Li  Li1  1  0.09568200  0.33127200  0.06064800  1
  Li  Li2  1  0.09172800  0.77123200  0.55034100  1
  Li  Li3  1  0.90688400  0.67639000  0.94914200  1
  Li  Li4  1  0.99742900  0.99652500  0.01449300  1
  Li  Li5  1  0.02920700  0.05346900  0.49428900  1
  V  V0  1  0.99770000  0.43325500  0.25498200  1
  V  V1  1  0.00038700  0.56147400  0.74601600  1
  V  V2  1  0.56097600  0.99894300  0.75875100  1
  V  V3  1  0.43636800  0.99957400  0.24278600  1
  V  V4  1  0.56148800  0.56325200  0.25129700  1
  V  V5  1  0.43558600  0.43473500  0.74598300  1
  P  P0  1  0.69413300  0.77502100  0.84145800  1
  P  P1  1  0.69000800  0.91418000  0.34074400  1
  P  P2  1  0.22312900  0.30469900  0.34371800  1
  P  P3  1  0.32863100  0.66011800  0.13190100  1
  P  P4  1  0.33597400  0.67027800  0.63318000  1
  P  P5  1  0.09089000  0.31461800  0.84183600  1
  P  P6  1  0.91001400  0.21348700  0.66157400  1
  P  P7  1  0.21566400  0.91466500  0.84535100  1
  P  P8  1  0.78538500  0.08299800  0.15876100  1
  P  P9  1  0.09274900  0.78225500  0.33851200  1
  P  P10  1  0.90799600  0.68549400  0.16075200  1
  P  P11  1  0.66278400  0.33079900  0.36628200  1
  P  P12  1  0.66935300  0.33967900  0.86520300  1
  P  P13  1  0.77594000  0.69266200  0.65638600  1
  P  P14  1  0.30525000  0.08168500  0.66174800  1
  P  P15  1  0.30266600  0.21922800  0.15938600  1
  O  O0  1  0.78199400  0.78824300  0.57452400  1
  O  O1  1  0.65493200  0.74033200  0.33083400  1
  O  O2  1  0.81324900  0.00557800  0.07705100  1
  O  O3  1  0.65529700  0.91237300  0.83451300  1
  O  O4  1  0.53751800  0.61672600  0.82693700  1
  O  O5  1  0.47370500  0.66047200  0.18156000  1
  O  O6  1  0.38273800  0.45968900  0.33207100  1
  O  O7  1  0.19728600  0.20277400  0.07882100  1
  O  O8  1  0.26161900  0.34524000  0.82778500  1
  O  O9  1  0.48488700  0.81556900  0.67862100  1
  O  O10  1  0.53381600  0.91627300  0.32351200  1
  O  O11  1  0.33339600  0.52204000  0.67715500  1
  O  O12  1  0.32929700  0.65443000  0.02814500  1
  O  O13  1  0.33633400  0.67687900  0.52947400  1
  O  O14  1  0.17934900  0.51056600  0.17192200  1
  O  O15  1  0.37886300  0.91821600  0.83175400  1
  O  O16  1  0.33110800  0.81096300  0.17487400  1
  O  O17  1  0.08779000  0.34671700  0.33086600  1
  O  O18  1  0.98823500  0.19638800  0.75820600  1
  O  O19  1  0.99237500  0.19810800  0.57890200  1
  O  O20  1  0.02279600  0.24702400  0.93401400  1
  O  O21  1  0.09133200  0.47301800  0.82113600  1
  O  O22  1  0.18443300  0.67307400  0.67349300  1
  O  O23  1  0.91807900  0.26109400  0.16440600  1
  O  O24  1  0.09073300  0.62184100  0.32491800  1
  O  O25  1  0.26411200  0.91995600  0.32755600  1
  O  O26  1  0.80600400  0.00844300  0.25581500  1
  O  O27  1  0.77060500  0.98488600  0.43179700  1
  O  O28  1  0.20935400  0.99504800  0.57803300  1
  O  O29  1  0.73437400  0.07852400  0.66618900  1
  O  O30  1  0.91585100  0.37748700  0.67296600  1
  O  O31  1  0.07991800  0.73834800  0.83377400  1
  O  O32  1  0.81656700  0.33558700  0.32261700  1
  O  O33  1  0.91384300  0.53137600  0.17483900  1
  O  O34  1  0.98001400  0.76907200  0.07171700  1
  O  O35  1  0.02012200  0.79073700  0.42851900  1
  O  O36  1  0.99831900  0.79811900  0.25004900  1
  O  O37  1  0.91685000  0.65772800  0.65808300  1
  O  O38  1  0.66957700  0.18824400  0.82402700  1
  O  O39  1  0.62105500  0.07387100  0.16690300  1
  O  O40  1  0.81750200  0.48772200  0.81968600  1
  O  O41  1  0.68090300  0.35421900  0.96845800  1
  O  O42  1  0.66523200  0.32931500  0.46958900  1
  O  O43  1  0.66290300  0.47678600  0.32109800  1
  O  O44  1  0.46194800  0.07819200  0.67726300  1
  O  O45  1  0.52277900  0.18399600  0.31635000  1
  O  O46  1  0.73435000  0.64980400  0.16936100  1
  O  O47  1  0.80055800  0.79593500  0.75020900  1
  O  O48  1  0.79179300  0.78810100  0.92473600  1
  O  O49  1  0.61806600  0.53479800  0.67004500  1
  O  O50  1  0.52172500  0.33466400  0.81838300  1
  O  O51  1  0.45678400  0.37997700  0.17044700  1
  O  O52  1  0.34588000  0.08519500  0.16188600  1
  O  O53  1  0.19546200  0.98732900  0.93141100  1
  O  O54  1  0.20016000  0.00194100  0.75385000  1
  O  O55  1  0.34474900  0.25711600  0.66584400  1
  O  O56  1  0.20221700  0.21229000  0.42884900  1
  O  O57  1  0.20248600  0.19514400  0.25371000  1
loop_
_geom_bond_atom_site_label_1
_geom_bond_atom_site_label_2
_geom_bond_distance
_geom_bond_site_symmetry_2
Li0 O27 1.922598 1_555
Li0 O0 1.932817 1_555
Li0 O29 2.157442 1_565
Li0 O9 2.433452 1_555
Li1 O7 1.957516 1_555
Li1 O20 1.958171 1_554
Li1 O23 2.119785 1_455
Li1 O14 2.183573 1_555
Li2 O35 1.917578 1_555
Li2 O28 1.929827 1_555
Li2 O37 2.156540 1_455
Li2 O22 2.385902 1_555
Li3 O34 1.926563 1_556
Li3 O48 1.939419 1_555
Li3 O31 2.218447 1_655
Li3 O40 2.427529 1_555
Li4 O2 2.039953 1_565
Li4 O7 2.176939 1_665
Li4 O34 2.293783 1_555
Li4 O53 2.299069 1_654
Li4 O48 2.381959 1_554
Li4 O20 2.604804 1_664
Li5 O56 1.882455 1_555
Li5 O19 2.009100 1_455
Li5 O28 2.408848 1_545
Li5 O27 2.421883 1_445
O0 P13 1.483730 1_555
O1 P1 1.556883 1_555
O1 V4 1.869185 1_555
O2 P8 1.479130 1_555
O3 P0 1.562361 1_555
O3 V2 1.869970 1_555
O4 P0 1.549510 1_555
O4 V5 1.916756 1_555
O5 P3 1.574190 1_555
O5 V4 1.851193 1_555
O6 P2 1.547375 1_555
O6 V4 1.911098 1_555
O7 P15 1.491848 1_555
O8 P5 1.545551 1_555
O8 V5 1.882191 1_555
O9 P4 1.570082 1_555
O9 V2 1.921610 1_555
O10 P1 1.545798 1_555
O10 V3 1.911716 1_555
O11 P4 1.567844 1_555
O11 V5 1.876080 1_555
O12 P3 1.481852 1_555
O13 P4 1.482426 1_555
O14 P3 1.572957 1_555
O14 V0 1.946941 1_455
O15 P7 1.579737 1_555
O15 V2 1.863877 1_555
O16 P3 1.574969 1_555
O16 V3 1.859928 1_555
O17 P2 1.568432 1_555
O17 V0 1.841767 1_455
O18 P5 1.605324 1_655
O18 P6 1.622873 1_555
O19 P6 1.473963 1_555
O20 P5 1.479780 1_555
O21 P5 1.570531 1_555
O21 V1 1.854303 1_555
O22 P4 1.593096 1_555
O22 V1 1.883736 1_555
O23 P8 1.567142 1_555
O23 V0 1.936550 1_555
O24 P9 1.562029 1_555
O24 V0 1.871402 1_455
O25 P9 1.544143 1_555
O25 V3 1.897773 1_555
O26 P1 1.606751 1_545
O26 P8 1.627433 1_555
O27 P1 1.490624 1_555
O28 P14 1.485212 1_565
O29 P6 1.555791 1_555
O29 V2 1.978411 1_545
O30 P6 1.575832 1_555
O30 V1 1.863924 1_655
O31 P7 1.569354 1_555
O31 V1 1.941381 1_555
O32 P11 1.598059 1_555
O32 V0 1.815105 1_555
O33 P10 1.544032 1_555
O33 V0 1.916222 1_555
O34 P10 1.491678 1_555
O35 P9 1.487707 1_555
O36 P9 1.612285 1_655
O36 P10 1.616646 1_555
O37 P13 1.564647 1_555
O37 V1 1.970560 1_655
O38 P12 1.582681 1_555
O38 V2 1.847984 1_545
O39 P8 1.557746 1_555
O39 V3 1.909786 1_545
O40 P12 1.592104 1_555
O40 V1 1.879059 1_655
O41 P12 1.478254 1_555
O42 P11 1.475271 1_555
O43 P11 1.565578 1_555
O43 V4 1.871961 1_555
O44 P14 1.553860 1_555
O44 V2 1.902807 1_545
O45 P11 1.565587 1_555
O45 V3 1.870492 1_545
O46 P10 1.548764 1_555
O46 V4 1.875673 1_555
O47 P13 1.611522 1_555
O47 P0 1.614454 1_555
O48 P0 1.484099 1_555
O49 P13 1.556205 1_555
O49 V5 1.891732 1_555
O50 P12 1.558888 1_555
O50 V5 1.881385 1_555
O51 P15 1.545060 1_555
O51 V4 1.925830 1_555
O52 P15 1.556349 1_555
O52 V3 1.881596 1_545
O53 P7 1.472983 1_555
O54 P7 1.611760 1_545
O54 P14 1.615883 1_555
O55 P14 1.554242 1_555
O55 V5 1.877385 1_555
O56 P2 1.472381 1_555
O57 P2 1.609288 1_555
O57 P15 1.611842 1_555
