# generated using pymatgen
data_WOF3
_symmetry_space_group_name_H-M   'P 1'
_cell_length_a   9.29098300
_cell_length_b   9.29098300
_cell_length_c   3.85962300
_cell_angle_alpha   90.00000000
_cell_angle_beta   90.00000000
_cell_angle_gamma   90.00000000
_symmetry_Int_Tables_number   1
_chemical_formula_structural   WOF3
_chemical_formula_sum   'W4 O4 F12'
_cell_volume   333.17178578
_cell_formula_units_Z   4
loop_
 _symmetry_equiv_pos_site_id
 _symmetry_equiv_pos_as_xyz
  1  'x, y, z'
loop_
 _atom_site_type_symbol
 _atom_site_label
 _atom_site_symmetry_multiplicity
 _atom_site_fract_x
 _atom_site_fract_y
 _atom_site_fract_z
 _atom_site_occupancy
  W  W0  1  0.36787800  0.13212200  0.25862300  1
  W  W1  1  0.86787800  0.36787800  0.74137700  1
  W  W2  1  0.13212200  0.63212200  0.74137700  1
  W  W3  1  0.63212200  0.86787800  0.25862300  1
  O  O0  1  0.37276100  0.12723900  0.75855700  1
  O  O1  1  0.87276100  0.37276100  0.24144300  1
  O  O2  1  0.12723900  0.62723900  0.24144300  1
  O  O3  1  0.62723900  0.87276100  0.75855700  1
  F  F0  1  0.59265900  0.09265900  0.25789900  1
  F  F1  1  0.16599400  0.10891000  0.25878900  1
  F  F2  1  0.89109000  0.16599400  0.74121100  1
  F  F3  1  0.39109000  0.33400600  0.25878900  1
  F  F4  1  0.66599400  0.39109000  0.74121100  1
  F  F5  1  0.09265900  0.40734100  0.74210100  1
  F  F6  1  0.90734100  0.59265900  0.74210100  1
  F  F7  1  0.33400600  0.60891000  0.74121100  1
  F  F8  1  0.60891000  0.66599400  0.25878900  1
  F  F9  1  0.10891000  0.83400600  0.74121100  1
  F  F10  1  0.83400600  0.89109000  0.25878900  1
  F  F11  1  0.40734100  0.90734100  0.25789900  1
loop_
_geom_bond_atom_site_label_1
_geom_bond_atom_site_label_2
_geom_bond_distance
_geom_bond_site_symmetry_2
O0 W0 1.930623 1_555
O0 W0 1.931132 1_556
O1 W1 1.930623 1_555
O1 W1 1.931132 1_554
O2 W2 1.930623 1_555
O2 W2 1.931132 1_554
O3 W3 1.930623 1_555
O3 W3 1.931132 1_556
F0 W3 2.120379 1_545
F0 W0 2.120379 1_555
F1 W0 1.888058 1_555
F2 W1 1.888058 1_555
F3 W0 1.888058 1_555
F4 W1 1.888058 1_555
F5 W2 2.120379 1_555
F5 W1 2.120379 1_455
F6 W1 2.120379 1_555
F6 W2 2.120379 1_655
F7 W2 1.888058 1_555
F8 W3 1.888058 1_555
F9 W2 1.888058 1_555
F10 W3 1.888058 1_555
F11 W3 2.120379 1_555
F11 W0 2.120379 1_565
