# generated using pymatgen
data_Li2VSiO4
_symmetry_space_group_name_H-M   'P 1'
_cell_length_a   5.80103300
_cell_length_b   4.82890900
_cell_length_c   7.93473106
_cell_angle_alpha   52.87239244
_cell_angle_beta   90.00000000
_cell_angle_gamma   90.00000000
_symmetry_Int_Tables_number   1
_chemical_formula_structural   Li2VSiO4
_chemical_formula_sum   'Li4 V2 Si2 O8'
_cell_volume   177.21668998
_cell_formula_units_Z   2
loop_
 _symmetry_equiv_pos_site_id
 _symmetry_equiv_pos_as_xyz
  1  'x, y, z'
loop_
 _atom_site_type_symbol
 _atom_site_label
 _atom_site_symmetry_multiplicity
 _atom_site_fract_x
 _atom_site_fract_y
 _atom_site_fract_z
 _atom_site_occupancy
  Li  Li0  1  0.85470000  0.50675300  0.00207500  1
  Li  Li1  1  0.69433900  0.76439600  0.24412600  1
  Li  Li2  1  0.14530000  0.50675300  0.50207500  1
  Li  Li3  1  0.30566100  0.76439600  0.74412600  1
  V  V0  1  0.34874400  0.27040400  0.26056800  1
  V  V1  1  0.65125600  0.27040400  0.76056800  1
  Si  Si0  1  0.16516800  0.99291900  0.99902200  1
  Si  Si1  1  0.83483200  0.99291900  0.49902200  1
  O  O0  1  0.31938900  0.86518000  0.21425100  1
  O  O1  1  0.70058300  0.31418700  0.28222300  1
  O  O2  1  0.83816600  0.65358500  0.49673500  1
  O  O3  1  0.10296200  0.10117600  0.50230200  1
  O  O4  1  0.68061100  0.86518000  0.71425100  1
  O  O5  1  0.29941700  0.31418700  0.78222300  1
  O  O6  1  0.89703800  0.10117600  0.00230200  1
  O  O7  1  0.16183400  0.65358500  0.99673500  1
loop_
_geom_bond_atom_site_label_1
_geom_bond_atom_site_label_2
_geom_bond_distance
_geom_bond_site_symmetry_2
Li0 O7 1.908585 1_654
Li0 O6 1.972756 1_555
Li0 O1 2.027307 1_555
Li0 O4 2.111768 1_554
Li1 O2 1.924907 1_555
Li1 O6 1.985504 1_565
Li1 O1 2.006416 1_555
Li1 O0 2.210164 1_555
Li2 O2 1.908585 1_455
Li2 O3 1.972756 1_555
Li2 O5 2.027307 1_555
Li2 O0 2.111768 1_555
Li3 O7 1.924907 1_555
Li3 O3 1.985504 1_565
Li3 O5 2.006416 1_555
Li3 O4 2.210164 1_555
O0 Si0 1.680987 1_554
O0 V0 2.204820 1_565
O1 Si1 1.658565 1_545
O1 V0 2.069754 1_555
O2 Si1 1.649743 1_555
O2 V1 2.075039 1_555
O3 Si1 1.646131 1_445
O3 V0 2.118387 1_555
O4 Si1 1.680987 1_555
O4 V1 2.204820 1_565
O5 Si0 1.658565 1_545
O5 V1 2.069754 1_555
O6 Si0 1.646131 1_644
O6 V1 2.118387 1_554
O7 Si0 1.649743 1_555
O7 V0 2.075039 1_556
