# generated using pymatgen
data_Sm2Ge2O7
_symmetry_space_group_name_H-M   'P 1'
_cell_length_a   6.90826558
_cell_length_b   6.90239741
_cell_length_c   12.43552205
_cell_angle_alpha   93.65715326
_cell_angle_beta   91.28990938
_cell_angle_gamma   91.89077831
_symmetry_Int_Tables_number   1
_chemical_formula_structural   Sm2Ge2O7
_chemical_formula_sum   'Sm8 Ge8 O28'
_cell_volume   591.26052762
_cell_formula_units_Z   4
loop_
 _symmetry_equiv_pos_site_id
 _symmetry_equiv_pos_as_xyz
  1  'x, y, z'
loop_
 _atom_site_type_symbol
 _atom_site_label
 _atom_site_symmetry_multiplicity
 _atom_site_fract_x
 _atom_site_fract_y
 _atom_site_fract_z
 _atom_site_occupancy
  Sm  Sm0  1  0.68265895  0.17235739  0.88546343  1
  Sm  Sm1  1  0.95523712  0.67360637  0.88428306  1
  Sm  Sm2  1  0.36806005  0.23793212  0.62942243  1
  Sm  Sm3  1  0.88298678  0.91933237  0.63813508  1
  Sm  Sm4  1  0.11701322  0.08066763  0.36186492  1
  Sm  Sm5  1  0.63193995  0.76206788  0.37057757  1
  Sm  Sm6  1  0.04476288  0.32639363  0.11571694  1
  Sm  Sm7  1  0.31734105  0.82764261  0.11453657  1
  Ge  Ge0  1  0.16270677  0.14926489  0.88405185  1
  Ge  Ge1  1  0.49145688  0.67346642  0.83304098  1
  Ge  Ge2  1  0.85636528  0.38579465  0.61712117  1
  Ge  Ge3  1  0.37881660  0.73556336  0.59976370  1
  Ge  Ge4  1  0.62118340  0.26443664  0.40023630  1
  Ge  Ge5  1  0.14363472  0.61420535  0.38287883  1
  Ge  Ge6  1  0.50854312  0.32653358  0.16695902  1
  Ge  Ge7  1  0.83729323  0.85073511  0.11594815  1
  O  O0  1  0.76764628  0.90755531  0.98675478  1
  O  O1  1  0.00015578  0.33879543  0.91715145  1
  O  O2  1  0.29903736  0.72303521  0.91658652  1
  O  O3  1  0.65617555  0.51168004  0.87926579  1
  O  O4  1  0.36357609  0.21170820  0.81199548  1
  O  O5  1  0.99698560  0.98756107  0.81220300  1
  O  O6  1  0.62147086  0.86880409  0.78159569  1
  O  O7  1  0.39120589  0.56806312  0.70221403  1
  O  O8  1  0.70846173  0.22085357  0.68529145  1
  O  O9  1  0.93227303  0.59914796  0.68888327  1
  O  O10  1  0.22312863  0.92275062  0.61895859  1
  O  O11  1  0.03796411  0.22980861  0.57127591  1
  O  O12  1  0.59112939  0.83642062  0.55172891  1
  O  O13  1  0.70322464  0.44147470  0.50533766  1
  O  O14  1  0.29677536  0.55852530  0.49466234  1
  O  O15  1  0.40887061  0.16357938  0.44827109  1
  O  O16  1  0.96203589  0.77019139  0.42872409  1
  O  O17  1  0.77687137  0.07724938  0.38104141  1
  O  O18  1  0.06772697  0.40085204  0.31111673  1
  O  O19  1  0.29153827  0.77914643  0.31470855  1
  O  O20  1  0.60879411  0.43193688  0.29778597  1
  O  O21  1  0.37852914  0.13119591  0.21840431  1
  O  O22  1  0.00301440  0.01243893  0.18779700  1
  O  O23  1  0.63642391  0.78829180  0.18800452  1
  O  O24  1  0.34382445  0.48831996  0.12073421  1
  O  O25  1  0.70096264  0.27696479  0.08341348  1
  O  O26  1  -0.00015578  0.66120457  0.08284855  1
  O  O27  1  0.23235372  0.09244469  0.01324522  1
loop_
_geom_bond_atom_site_label_1
_geom_bond_atom_site_label_2
_geom_bond_distance
_geom_bond_site_symmetry_2
Ge0 O4 1.726288 1_555
Ge0 O27 1.739100 1_556
Ge0 O5 1.759874 1_445
Ge0 O1 1.786313 1_555
Ge1 O3 1.734542 1_555
Ge1 O2 1.735017 1_555
Ge1 O6 1.757810 1_555
Ge1 O7 1.849535 1_555
Ge2 O9 1.732159 1_555
Ge2 O11 1.761005 1_655
Ge2 O8 1.773177 1_555
Ge2 O13 1.796677 1_555
Ge3 O10 1.716693 1_555
Ge3 O12 1.737185 1_555
Ge3 O7 1.776705 1_555
Ge3 O14 1.799971 1_555
Ge4 O17 1.716693 1_555
Ge4 O15 1.737185 1_555
Ge4 O20 1.776705 1_555
Ge4 O13 1.799971 1_555
Ge5 O18 1.732159 1_555
Ge5 O16 1.761005 1_455
Ge5 O19 1.773177 1_555
Ge5 O14 1.796677 1_555
Ge6 O24 1.734542 1_555
Ge6 O25 1.735017 1_555
Ge6 O21 1.757810 1_555
Ge6 O20 1.849535 1_555
Ge7 O23 1.726288 1_555
Ge7 O0 1.739100 1_554
Ge7 O22 1.759874 1_665
Ge7 O26 1.786313 1_655
O0 Sm0 2.367126 1_565
O0 Sm1 2.420905 1_555
O1 Sm1 2.401288 1_455
O1 Sm0 2.454165 1_455
O1 Sm6 2.488777 1_556
O2 Sm1 2.409313 1_455
O2 Sm7 2.519937 1_556
O3 Sm1 2.313951 1_555
O3 Sm0 2.361292 1_555
O4 Sm2 2.289896 1_555
O4 Sm0 2.397486 1_555
O5 Sm3 2.301375 1_555
O5 Sm1 2.408503 1_555
O5 Sm0 2.701069 1_565
O6 Sm0 2.410148 1_565
O6 Sm3 2.598289 1_555
O7 Sm2 2.396604 1_555
O8 Sm2 2.445757 1_555
O8 Sm3 2.484090 1_545
O8 Sm0 2.542144 1_555
O9 Sm3 2.369889 1_555
O9 Sm1 2.451868 1_555
O10 Sm2 2.359344 1_565
O10 Sm3 2.366691 1_455
O11 Sm2 2.374516 1_555
O11 Sm3 2.558529 1_445
O11 Sm4 2.810444 1_555
O12 Sm3 2.301114 1_555
O12 Sm5 2.303960 1_555
O15 Sm4 2.301114 1_555
O15 Sm2 2.303960 1_555
O16 Sm5 2.374516 1_555
O16 Sm4 2.558529 1_665
O16 Sm3 2.810444 1_555
O17 Sm5 2.359344 1_545
O17 Sm4 2.366691 1_655
O18 Sm4 2.369889 1_555
O18 Sm6 2.451868 1_555
O19 Sm5 2.445757 1_555
O19 Sm4 2.484090 1_565
O19 Sm7 2.542144 1_555
O20 Sm5 2.396604 1_555
O21 Sm7 2.410148 1_545
O21 Sm4 2.598289 1_555
O22 Sm4 2.301375 1_555
O22 Sm6 2.408503 1_555
O22 Sm7 2.701069 1_545
O23 Sm5 2.289896 1_555
O23 Sm7 2.397486 1_555
O24 Sm6 2.313951 1_555
O24 Sm7 2.361292 1_555
O25 Sm6 2.409313 1_655
O25 Sm0 2.519937 1_554
O26 Sm6 2.401288 1_555
O26 Sm7 2.454165 1_555
O26 Sm1 2.488777 1_454
O27 Sm7 2.367126 1_545
O27 Sm6 2.420905 1_555
