# generated using pymatgen
data_V2OF5
_symmetry_space_group_name_H-M   'P 1'
_cell_length_a   5.19835421
_cell_length_b   11.48830099
_cell_length_c   5.41789326
_cell_angle_alpha   79.51256667
_cell_angle_beta   89.99581953
_cell_angle_gamma   103.10665990
_symmetry_Int_Tables_number   1
_chemical_formula_structural   V2OF5
_chemical_formula_sum   'V6 O3 F15'
_cell_volume   309.57594064
_cell_formula_units_Z   3
loop_
 _symmetry_equiv_pos_site_id
 _symmetry_equiv_pos_as_xyz
  1  'x, y, z'
loop_
 _atom_site_type_symbol
 _atom_site_label
 _atom_site_symmetry_multiplicity
 _atom_site_fract_x
 _atom_site_fract_y
 _atom_site_fract_z
 _atom_site_occupancy
  V  V0  1  0.83022900  0.66319000  0.16885700  1
  V  V1  1  0.66908100  0.31434600  0.34290300  1
  V  V2  1  0.48829900  0.99065500  0.50479700  1
  V  V3  1  0.33119100  0.67506900  0.66231400  1
  V  V4  1  0.00028600  0.00348600  0.99775400  1
  V  V5  1  0.18800100  0.35225200  0.82375200  1
  O  O0  1  0.66637900  0.16762700  0.41588800  1
  O  O1  1  0.33182500  0.49921700  0.75077600  1
  O  O2  1  0.33840300  0.83338200  0.58336200  1
  F  F0  1  0.98829200  0.17247600  0.91359900  1
  F  F1  1  0.98273700  0.36708400  0.11822800  1
  F  F2  1  0.88080800  0.36658200  0.61700300  1
  F  F3  1  0.64939700  0.49433600  0.25309300  1
  F  F4  1  0.78850100  0.96841000  0.71613700  1
  F  F5  1  0.44917000  0.29961200  0.04842500  1
  F  F6  1  0.65354200  0.69839300  0.45012800  1
  F  F7  1  0.31725000  0.03563100  0.78351700  1
  F  F8  1  0.68477600  0.96705300  0.21414900  1
  F  F9  1  0.21338900  0.03453300  0.28318200  1
  F  F10  1  0.55114300  0.69981200  0.95243200  1
  F  F11  1  0.34762900  0.30011600  0.54953200  1
  F  F12  1  0.11503400  0.63113100  0.38310100  1
  F  F13  1  0.01210200  0.63228000  0.88356900  1
  F  F14  1  0.02253800  0.83332700  0.08350100  1
loop_
_geom_bond_atom_site_label_1
_geom_bond_atom_site_label_2
_geom_bond_distance
_geom_bond_site_symmetry_2
O0 V1 1.656584 1_555
O0 V2 2.003086 1_545
O1 V5 1.658424 1_555
O1 V3 1.990384 1_555
O2 V2 1.770408 1_555
O2 V3 1.782717 1_555
F0 V4 1.927044 1_655
F0 V5 2.059560 1_655
F1 V1 1.946928 1_555
F1 V5 1.973373 1_654
F2 V1 1.949867 1_555
F2 V5 1.970855 1_655
F3 V0 1.924987 1_555
F3 V1 2.062191 1_555
F4 V4 1.930098 1_665
F4 V2 1.971375 1_555
F5 V5 1.948142 1_554
F5 V1 1.972760 1_555
F6 V0 1.929260 1_555
F6 V3 1.971110 1_555
F7 V4 1.940679 1_555
F7 V2 1.957076 1_545
F8 V4 1.936361 1_664
F8 V2 1.969053 1_555
F9 V4 1.941046 1_554
F9 V2 1.960777 1_545
F10 V0 1.937574 1_556
F10 V3 1.968323 1_555
F11 V5 1.950329 1_555
F11 V1 1.970156 1_555
F12 V0 1.940836 1_455
F12 V3 1.956220 1_555
F13 V0 1.939299 1_456
F13 V3 1.960972 1_555
F14 V0 1.954056 1_455
F14 V4 1.955135 1_564
