# generated using pymatgen
data_Li5Mn5CoO12
_symmetry_space_group_name_H-M   'P 1'
_cell_length_a   8.59787100
_cell_length_b   8.98200509
_cell_length_c   10.16495591
_cell_angle_alpha   96.74648797
_cell_angle_beta   87.41181387
_cell_angle_gamma   117.89260207
_symmetry_Int_Tables_number   1
_chemical_formula_structural   Li5Mn5CoO12
_chemical_formula_sum   'Li15 Mn15 Co3 O36'
_cell_volume   688.95646063
_cell_formula_units_Z   3
loop_
 _symmetry_equiv_pos_site_id
 _symmetry_equiv_pos_as_xyz
  1  'x, y, z'
loop_
 _atom_site_type_symbol
 _atom_site_label
 _atom_site_symmetry_multiplicity
 _atom_site_fract_x
 _atom_site_fract_y
 _atom_site_fract_z
 _atom_site_occupancy
  Li  Li0  1  0.43076200  0.07449100  0.73266200  1
  Li  Li1  1  0.57668000  0.27134500  0.26808600  1
  Li  Li2  1  0.59821800  0.58767800  0.25719300  1
  Li  Li3  1  0.74595500  0.43906000  0.74820200  1
  Li  Li4  1  0.75802200  0.10492600  0.74449800  1
  Li  Li5  1  0.91294400  0.24767000  0.25581200  1
  Li  Li6  1  0.91782400  0.89872300  0.25405300  1
  Li  Li7  1  0.07475400  0.09610000  0.74736200  1
  Li  Li8  1  0.06480500  0.75887200  0.74995000  1
  Li  Li9  1  0.23043100  0.26214000  0.27064700  1
  Li  Li10  1  0.21490800  0.59923900  0.27470300  1
  Li  Li11  1  0.24420800  0.91643300  0.26291500  1
  Li  Li12  1  0.39946400  0.42139600  0.74189300  1
  Li  Li13  1  0.43936500  0.73272300  0.72756300  1
  Li  Li14  1  0.56672700  0.92192200  0.26815300  1
  Mn  Mn0  1  0.33315200  0.16391000  0.49947100  1
  Mn  Mn1  1  0.66782900  0.16789900  0.49621400  1
  Mn  Mn2  1  0.66783900  0.50237100  0.50213300  1
  Mn  Mn3  1  0.00351700  0.33342300  0.99607500  1
  Mn  Mn4  1  0.99550500  0.66453000  0.00963800  1
  Mn  Mn5  1  0.00053800  0.83094000  0.50146700  1
  Mn  Mn6  1  0.99871900  0.49553200  0.50358500  1
  Mn  Mn7  1  0.99841300  0.16346400  0.49909600  1
  Mn  Mn8  1  0.33928600  0.33371300  0.00327900  1
  Mn  Mn9  1  0.32713700  0.99532300  0.00356200  1
  Mn  Mn10  1  0.33276800  0.49873900  0.49397100  1
  Mn  Mn11  1  0.33400300  0.83209100  0.50656800  1
  Mn  Mn12  1  0.66421600  0.66818700  0.99180200  1
  Mn  Mn13  1  0.66759700  0.00292400  0.99607400  1
  Mn  Mn14  1  0.66918700  0.83518300  0.50555200  1
  Co  Co0  1  0.67157100  0.33808900  0.99700400  1
  Co  Co1  1  0.32959700  0.66546700  0.00400000  1
  Co  Co2  1  0.99668900  0.99800400  0.00180000  1
  O  O0  1  0.12670200  0.06926300  0.38069000  1
  O  O1  1  0.21463000  0.08779900  0.90266100  1
  O  O2  1  0.46187700  0.40290000  0.37848500  1
  O  O3  1  0.45868300  0.06971100  0.38070300  1
  O  O4  1  0.45467500  0.23985900  0.09898800  1
  O  O5  1  0.54120300  0.26263100  0.61566700  1
  O  O6  1  0.57607300  0.11223900  0.89240200  1
  O  O7  1  0.57282900  0.44610500  0.88948300  1
  O  O8  1  0.78556600  0.24278500  0.09587500  1
  O  O9  1  0.76885200  0.56746000  0.09685100  1
  O  O10  1  0.79056500  0.06786100  0.37960000  1
  O  O11  1  0.78873100  0.73672400  0.38944800  1
  O  O12  1  0.78353000  0.39234400  0.39466300  1
  O  O13  1  0.88995100  0.43729500  0.90333900  1
  O  O14  1  0.87956500  0.59919400  0.61482100  1
  O  O15  1  0.87276900  0.26134500  0.60860600  1
  O  O16  1  0.91355000  0.11446700  0.89195100  1
  O  O17  1  0.89272500  0.76609400  0.90416400  1
  O  O18  1  0.09316400  0.22339400  0.10536400  1
  O  O19  1  0.08258100  0.88510500  0.11220400  1
  O  O20  1  0.13317600  0.74144600  0.38853300  1
  O  O21  1  0.12225900  0.39978300  0.37906700  1
  O  O22  1  0.11136600  0.56149200  0.10027000  1
  O  O23  1  0.21868100  0.60608600  0.60501000  1
  O  O24  1  0.21145500  0.26179000  0.61098000  1
  O  O25  1  0.20936700  0.93172200  0.61926500  1
  O  O26  1  0.22906500  0.43205100  0.90618800  1
  O  O27  1  0.20686700  0.75619500  0.90679800  1
  O  O28  1  0.45770600  0.57919000  0.09960700  1
  O  O29  1  0.42157900  0.89000200  0.10902600  1
  O  O30  1  0.45989200  0.73900600  0.38715200  1
  O  O31  1  0.54087600  0.76138200  0.90156400  1
  O  O32  1  0.54559300  0.93508300  0.62120500  1
  O  O33  1  0.53380500  0.59383800  0.61190500  1
  O  O34  1  0.77253400  0.89936500  0.09617800  1
  O  O35  1  0.88630500  0.94336300  0.60860800  1
loop_
_geom_bond_atom_site_label_1
_geom_bond_atom_site_label_2
_geom_bond_distance
_geom_bond_site_symmetry_2
Li0 O6 1.992477 1_555
Li0 O5 2.010099 1_555
Li0 O25 2.040466 1_545
Li0 O32 2.132749 1_545
Li0 O1 2.514528 1_555
Li1 O4 1.976344 1_555
Li1 O12 2.017239 1_555
Li1 O3 2.069497 1_555
Li1 O2 2.075943 1_555
Li1 O8 2.529280 1_555
Li2 O11 2.001727 1_555
Li2 O28 2.022665 1_555
Li2 O2 2.044193 1_555
Li2 O9 2.192163 1_555
Li2 O30 2.440449 1_555
Li3 O14 1.999559 1_555
Li3 O7 2.038583 1_555
Li3 O13 2.054364 1_555
Li3 O5 2.127854 1_555
Li3 O15 2.589750 1_555
Li4 O15 1.972650 1_555
Li4 O16 2.021299 1_555
Li4 O32 2.093892 1_545
Li4 O6 2.138325 1_555
Li4 O35 2.473743 1_545
Li5 O8 1.985824 1_555
Li5 O10 2.016618 1_555
Li5 O21 2.043550 1_655
Li5 O18 2.193406 1_655
Li5 O12 2.387221 1_555
Li6 O19 2.009193 1_655
Li6 O11 2.016141 1_555
Li6 O34 2.079860 1_555
Li6 O0 2.097695 1_665
Li6 O10 2.471314 1_565
Li7 O16 2.020240 1_455
Li7 O35 2.041729 1_445
Li7 O24 2.054051 1_555
Li7 O1 2.055944 1_555
Li7 O25 2.495178 1_545
Li8 O14 2.019363 1_455
Li8 O27 2.060775 1_555
Li8 O25 2.061523 1_555
Li8 O17 2.122955 1_455
Li9 O0 1.991861 1_555
Li9 O18 1.998530 1_555
Li9 O21 2.066679 1_555
Li9 O2 2.068178 1_555
Li10 O22 1.941723 1_555
Li10 O20 1.970604 1_555
Li10 O21 2.001117 1_555
Li10 O30 2.173807 1_555
Li11 O20 1.992423 1_555
Li11 O19 2.020485 1_555
Li11 O3 2.041123 1_565
Li11 O29 2.205679 1_555
Li11 O0 2.267276 1_565
Li12 O24 2.004208 1_555
Li12 O33 2.036709 1_555
Li12 O7 2.082308 1_555
Li12 O26 2.194839 1_555
Li12 O5 2.493959 1_555
Li13 O31 1.943859 1_555
Li13 O33 2.028444 1_555
Li13 O32 2.031249 1_555
Li13 O23 2.075358 1_555
Li14 O30 1.990176 1_555
Li14 O29 1.998640 1_555
Li14 O10 2.047707 1_565
Li14 O3 2.152877 1_565
Li14 O34 2.490172 1_555
Mn0 O24 1.916236 1_555
Mn0 O3 1.958316 1_555
Mn0 O5 1.960052 1_555
Mn0 O0 1.967688 1_555
Mn0 O25 2.316847 1_545
Mn0 O2 2.370607 1_555
Mn1 O15 1.920227 1_555
Mn1 O10 1.962149 1_555
Mn1 O3 1.963058 1_555
Mn1 O5 1.971869 1_555
Mn1 O12 2.153860 1_555
Mn1 O32 2.353524 1_545
Mn2 O12 1.930656 1_555
Mn2 O33 1.949968 1_555
Mn2 O14 1.963488 1_555
Mn2 O2 1.992663 1_555
Mn2 O11 2.288044 1_555
Mn2 O5 2.330453 1_555
Mn3 O16 1.935945 1_455
Mn3 O8 1.948961 1_456
Mn3 O26 1.950142 1_555
Mn3 O18 1.962887 1_556
Mn3 O13 1.963306 1_455
Mn3 O22 1.994917 1_556
Mn4 O27 1.924540 1_654
Mn4 O19 1.941660 1_655
Mn4 O9 1.944102 1_555
Mn4 O17 1.957601 1_554
Mn4 O22 1.960458 1_655
Mn4 O13 1.998567 1_554
Mn5 O35 1.934773 1_455
Mn5 O20 1.946061 1_555
Mn5 O11 1.961644 1_455
Mn5 O25 1.973776 1_555
Mn5 O14 2.274184 1_455
Mn5 O0 2.364482 1_565
Mn6 O14 1.932739 1_555
Mn6 O23 1.950410 1_655
Mn6 O12 1.961501 1_555
Mn6 O21 1.986813 1_655
Mn6 O15 2.242509 1_555
Mn6 O20 2.382999 1_655
Mn7 O15 1.931093 1_555
Mn7 O24 1.966508 1_655
Mn7 O0 1.973628 1_655
Mn7 O10 1.980291 1_555
Mn7 O35 2.171139 1_545
Mn7 O21 2.346144 1_655
Mn8 O4 1.924516 1_555
Mn8 O26 1.929952 1_554
Mn8 O28 2.083092 1_555
Mn8 O1 2.104005 1_554
Mn8 O7 2.134735 1_554
Mn8 O18 2.148962 1_555
Mn9 O1 1.928504 1_564
Mn9 O29 1.933677 1_555
Mn9 O27 2.041435 1_554
Mn9 O4 2.075965 1_565
Mn9 O19 2.172640 1_555
Mn9 O6 2.217642 1_564
Mn10 O23 1.922247 1_555
Mn10 O33 1.928615 1_555
Mn10 O21 1.967718 1_555
Mn10 O2 1.972377 1_555
Mn10 O30 2.295074 1_555
Mn10 O24 2.331924 1_555
Mn11 O20 1.930323 1_555
Mn11 O25 1.951146 1_555
Mn11 O30 1.957969 1_555
Mn11 O32 1.971499 1_555
Mn11 O23 2.147019 1_555
Mn11 O3 2.391305 1_565
Mn12 O28 1.922118 1_556
Mn12 O31 1.940478 1_555
Mn12 O7 1.948851 1_555
Mn12 O17 1.958673 1_555
Mn12 O9 1.960467 1_556
Mn12 O34 2.016659 1_556
Mn13 O6 1.932549 1_555
Mn13 O34 1.950682 1_546
Mn13 O31 2.051849 1_545
Mn13 O8 2.057759 1_556
Mn13 O16 2.158832 1_555
Mn13 O29 2.206389 1_546
Mn14 O11 1.930556 1_555
Mn14 O35 1.940782 1_555
Mn14 O32 1.961603 1_555
Mn14 O30 1.982368 1_555
Mn14 O33 2.301938 1_555
Mn14 O10 2.358677 1_565
Co0 O13 1.923120 1_555
Co0 O8 1.944106 1_556
Co0 O4 1.957454 1_556
Co0 O6 1.983314 1_555
Co0 O9 1.986776 1_556
Co0 O7 1.990016 1_555
Co1 O31 1.924049 1_554
Co1 O22 1.939011 1_555
Co1 O28 1.957162 1_555
Co1 O27 1.960034 1_554
Co1 O29 1.977534 1_555
Co1 O26 2.005864 1_554
Co2 O1 1.945167 1_664
Co2 O34 1.963350 1_555
Co2 O19 1.968764 1_655
Co2 O16 1.974384 1_564
Co2 O18 1.975262 1_665
Co2 O17 1.993803 1_554
