# generated using pymatgen
data_NaLi2MnPCO7
_symmetry_space_group_name_H-M   'P 1'
_cell_length_a   6.70327900
_cell_length_b   8.68884680
_cell_length_c   10.08331604
_cell_angle_alpha   91.17794149
_cell_angle_beta   90.05612345
_cell_angle_gamma   90.34966491
_symmetry_Int_Tables_number   1
_chemical_formula_structural   NaLi2MnPCO7
_chemical_formula_sum   'Na4 Li8 Mn4 P4 C4 O28'
_cell_volume   587.15487948
_cell_formula_units_Z   4
loop_
 _symmetry_equiv_pos_site_id
 _symmetry_equiv_pos_as_xyz
  1  'x, y, z'
loop_
 _atom_site_type_symbol
 _atom_site_label
 _atom_site_symmetry_multiplicity
 _atom_site_fract_x
 _atom_site_fract_y
 _atom_site_fract_z
 _atom_site_occupancy
  Na  Na0  1  0.25238100  0.91612900  0.87808700  1
  Na  Na1  1  0.99859000  0.74865900  0.62447000  1
  Na  Na2  1  0.50159200  0.74831600  0.12665400  1
  Na  Na3  1  0.49947400  0.25206600  0.37591200  1
  Li  Li0  1  0.23983900  0.91838000  0.37657000  1
  Li  Li1  1  0.48111000  0.73274000  0.61450000  1
  Li  Li2  1  0.01633500  0.73233400  0.12095900  1
  Li  Li3  1  0.51875300  0.26653800  0.88291900  1
  Li  Li4  1  0.98006700  0.26673600  0.88426500  1
  Li  Li5  1  0.98601700  0.26468400  0.38366100  1
  Li  Li6  1  0.74672500  0.08562800  0.62548200  1
  Li  Li7  1  0.76385100  0.08696100  0.12438800  1
  Mn  Mn0  1  0.75232800  0.64156600  0.88736500  1
  Mn  Mn1  1  0.74761500  0.64174500  0.38880000  1
  Mn  Mn2  1  0.24489400  0.35381700  0.61284900  1
  Mn  Mn3  1  0.25004500  0.35607400  0.10982100  1
  P  P0  1  0.25482300  0.58487900  0.85034500  1
  P  P1  1  0.24064600  0.59450600  0.35152300  1
  P  P2  1  0.74420800  0.40274100  0.64911700  1
  P  P3  1  0.75932100  0.40591400  0.14592600  1
  C  C0  1  0.74942700  0.95879200  0.86724500  1
  C  C1  1  0.76022900  0.95509200  0.36538900  1
  C  C2  1  0.25798800  0.04596400  0.62942100  1
  C  C3  1  0.23889500  0.05231700  0.13901700  1
  O  O0  1  0.28128600  0.89963000  0.64734200  1
  O  O1  1  0.22326300  0.90426300  0.15383600  1
  O  O2  1  0.75031600  0.91086100  0.98852500  1
  O  O3  1  0.75119400  0.90968300  0.48768300  1
  O  O4  1  0.74984400  0.85913000  0.76861800  1
  O  O5  1  0.75080200  0.85382500  0.26807700  1
  O  O6  1  0.06892600  0.67761400  0.89766800  1
  O  O7  1  0.43887800  0.67621500  0.90273300  1
  O  O8  1  0.06289500  0.69606300  0.39789000  1
  O  O9  1  0.43065000  0.68573700  0.39722000  1
  O  O10  1  0.26155200  0.57907700  0.69544600  1
  O  O11  1  0.73257700  0.57021500  0.59668400  1
  O  O12  1  0.23615500  0.57992300  0.19652900  1
  O  O13  1  0.76863700  0.57307600  0.09372600  1
  O  O14  1  0.25041100  0.41578500  0.89897000  1
  O  O15  1  0.75317000  0.41462300  0.80458300  1
  O  O16  1  0.23291000  0.42938100  0.40684200  1
  O  O17  1  0.76777400  0.41850400  0.30072600  1
  O  O18  1  0.56194800  0.30287400  0.60640800  1
  O  O19  1  0.92821100  0.31296500  0.59614000  1
  O  O20  1  0.56826600  0.31646000  0.10078800  1
  O  O21  1  0.93367000  0.30478300  0.09280900  1
  O  O22  1  0.24433800  0.14001700  0.73132900  1
  O  O23  1  0.24431200  0.14262200  0.24311900  1
  O  O24  1  0.24662300  0.09838000  0.50993400  1
  O  O25  1  0.25052900  0.11182000  0.02224900  1
  O  O26  1  0.74858400  0.10479400  0.84184200  1
  O  O27  1  0.77712800  0.09910200  0.33759700  1
loop_
_geom_bond_atom_site_label_1
_geom_bond_atom_site_label_2
_geom_bond_distance
_geom_bond_site_symmetry_2
Na0 O25 2.214269 1_566
Na0 O0 2.336454 1_555
Na0 O6 2.415034 1_555
Na0 O7 2.454092 1_555
Na0 O22 2.469114 1_565
Na0 O1 2.791472 1_556
Na1 O0 2.306787 1_655
Na1 O8 2.361316 1_655
Na1 O11 2.368446 1_555
Na1 O4 2.404405 1_555
Na1 O10 2.421370 1_655
Na1 O3 2.590993 1_555
Na1 O6 2.874522 1_655
Na2 O1 2.325647 1_555
Na2 O5 2.363787 1_555
Na2 O7 2.367261 1_554
Na2 O13 2.376273 1_555
Na2 O12 2.411674 1_555
Na2 O2 2.602119 1_554
Na2 O9 2.832889 1_555
Na3 O27 2.321689 1_555
Na3 O23 2.355005 1_555
Na3 O16 2.383000 1_555
Na3 O18 2.392834 1_555
Na3 O17 2.432423 1_555
Na3 O24 2.556025 1_555
Na3 O20 2.878341 1_555
Li0 O24 2.041822 1_565
Li0 O1 2.249325 1_555
Li0 O8 2.274654 1_555
Li0 O23 2.390619 1_565
Li0 O9 2.411171 1_555
Li1 O0 2.002855 1_555
Li1 O10 2.153619 1_555
Li1 O11 2.210678 1_555
Li1 O9 2.245291 1_555
Li1 O4 2.601197 1_555
Li2 O1 2.054023 1_555
Li2 O12 2.137451 1_555
Li2 O13 2.168537 1_455
Li2 O6 2.319318 1_554
Li2 O5 2.539060 1_455
Li3 O26 2.126940 1_555
Li3 O15 2.183623 1_555
Li3 O14 2.227966 1_555
Li3 O20 2.254342 1_556
Li4 O26 2.125545 1_555
Li4 O21 2.145181 1_556
Li4 O15 2.161920 1_555
Li4 O14 2.223993 1_655
Li5 O27 2.047677 1_555
Li5 O17 2.166388 1_555
Li5 O16 2.190447 1_655
Li5 O19 2.209766 1_555
Li5 O23 2.469075 1_655
Li5 O24 2.619727 1_655
Li6 O3 2.044978 1_545
Li6 O26 2.184574 1_555
Li6 O18 2.275356 1_555
Li6 O19 2.337677 1_555
Li6 O4 2.464505 1_545
Li7 O2 2.034231 1_544
Li7 O27 2.152001 1_555
Li7 O21 2.231239 1_555
Li7 O20 2.408875 1_555
Li7 O5 2.515750 1_545
Mn0 O15 2.125450 1_555
Mn0 O7 2.129763 1_555
Mn0 O6 2.145446 1_655
Mn0 O13 2.178783 1_556
Mn0 O4 2.258518 1_555
Mn0 O2 2.533354 1_555
Mn1 O17 2.121795 1_555
Mn1 O9 2.162549 1_555
Mn1 O8 2.164097 1_655
Mn1 O11 2.200805 1_555
Mn1 O5 2.229282 1_555
Mn1 O3 2.513658 1_555
Mn2 O10 2.113543 1_555
Mn2 O19 2.156007 1_455
Mn2 O18 2.174309 1_555
Mn2 O16 2.192902 1_555
Mn2 O22 2.229211 1_555
Mn2 O24 2.430765 1_555
Mn3 O12 2.118612 1_555
Mn3 O20 2.164496 1_555
Mn3 O21 2.170306 1_455
Mn3 O14 2.198802 1_554
Mn3 O25 2.281855 1_555
Mn3 O23 2.312899 1_555
C0 O26 1.299387 1_565
C0 O2 1.299973 1_555
C0 O4 1.305184 1_555
C1 O27 1.292214 1_565
C1 O3 1.303766 1_555
C1 O5 1.305648 1_555
C2 O0 1.298270 1_545
C2 O24 1.299089 1_555
C2 O22 1.303334 1_555
C3 O25 1.297841 1_555
C3 O23 1.297905 1_555
C3 O1 1.301718 1_545
O6 P0 1.558002 1_555
O7 P0 1.549381 1_555
O8 P1 1.553676 1_555
O9 P1 1.560247 1_555
O10 P0 1.562377 1_555
O11 P2 1.560774 1_555
O12 P1 1.565628 1_555
O13 P3 1.555934 1_555
O14 P0 1.558534 1_555
O15 P2 1.569956 1_555
O16 P1 1.550605 1_555
O17 P3 1.563428 1_555
O18 P2 1.549750 1_555
O19 P2 1.552761 1_555
O20 P3 1.556797 1_555
O21 P3 1.555407 1_555
