# generated using pymatgen
data_LiVOF3
_symmetry_space_group_name_H-M   'P 1'
_cell_length_a   5.45177585
_cell_length_b   7.42827775
_cell_length_c   7.31630367
_cell_angle_alpha   100.68032686
_cell_angle_beta   74.52048377
_cell_angle_gamma   109.50655608
_symmetry_Int_Tables_number   1
_chemical_formula_structural   LiVOF3
_chemical_formula_sum   'Li4 V4 O4 F12'
_cell_volume   267.63991096
_cell_formula_units_Z   4
loop_
 _symmetry_equiv_pos_site_id
 _symmetry_equiv_pos_as_xyz
  1  'x, y, z'
loop_
 _atom_site_type_symbol
 _atom_site_label
 _atom_site_symmetry_multiplicity
 _atom_site_fract_x
 _atom_site_fract_y
 _atom_site_fract_z
 _atom_site_occupancy
  Li  Li0  1  0.50002200  0.25000500  0.74996500  1
  Li  Li1  1  0.49999000  0.75000600  0.25004800  1
  Li  Li2  1  0.00001300  0.50000700  0.99999500  1
  Li  Li3  1  0.00001300  0.00000800  0.50000300  1
  V  V0  1  0.99976000  0.49985000  0.49993500  1
  V  V1  1  0.50001200  0.24999600  0.24997700  1
  V  V2  1  0.49985900  0.74992700  0.74983300  1
  V  V3  1  0.00006100  0.00004900  0.00004000  1
  O  O0  1  0.31433500  0.16324800  0.05711900  1
  O  O1  1  0.31417400  0.66318700  0.55696900  1
  O  O2  1  0.68579200  0.83682300  0.94291700  1
  O  O3  1  0.68577800  0.33678200  0.44311900  1
  F  F0  1  0.83265900  0.21362600  0.07077300  1
  F  F1  1  0.83258600  0.71355600  0.57069200  1
  F  F2  1  0.16740300  0.78641600  0.92925900  1
  F  F3  1  0.16741300  0.28644000  0.42930400  1
  F  F4  1  0.63470400  0.50418300  0.17078400  1
  F  F5  1  0.63460300  0.00412800  0.67072300  1
  F  F6  1  0.36534700  0.49584500  0.82923600  1
  F  F7  1  0.36543600  0.99588800  0.32928900  1
  F  F8  1  0.13724900  0.57168200  0.24337600  1
  F  F9  1  0.13722000  0.07168900  0.74339800  1
  F  F10  1  0.86274500  0.42831100  0.75660100  1
  F  F11  1  0.86282600  0.92834900  0.25664400  1
loop_
_geom_bond_atom_site_label_1
_geom_bond_atom_site_label_2
_geom_bond_distance
_geom_bond_site_symmetry_2
Li0 O3 2.316868 1_555
Li0 O0 2.318827 1_556
Li1 O1 2.317489 1_555
Li1 O2 2.318867 1_554
O0 V3 1.840315 1_555
O0 V1 1.849500 1_555
O1 V0 1.841101 1_455
O1 V2 1.849563 1_555
O2 V3 1.840469 1_666
O2 V2 1.851809 1_555
O3 V0 1.838110 1_555
O3 V1 1.851569 1_555
F0 V1 2.001888 1_555
F0 V3 2.007053 1_655
F0 Li2 2.118015 1_654
F1 V2 2.002050 1_555
F1 V0 2.007101 1_555
F1 Li3 2.118299 1_665
F2 V2 2.001991 1_555
F2 V3 2.007209 1_566
F2 Li2 2.118112 1_555
F3 V1 2.002208 1_555
F3 V0 2.006841 1_455
F3 Li3 2.118183 1_555
F4 V1 1.921603 1_555
F4 Li2 2.056027 1_654
F4 Li1 2.117992 1_555
F5 V2 1.921459 1_545
F5 Li3 2.056205 1_655
F5 Li0 2.117954 1_555
F6 V2 1.921506 1_555
F6 Li2 2.056038 1_555
F6 Li0 2.117991 1_555
F7 V1 1.921418 1_565
F7 Li3 2.056248 1_565
F7 Li1 2.117905 1_555
F8 V0 1.929518 1_455
F8 Li1 1.986457 1_555
F8 Li2 2.026737 1_554
F9 V3 1.929546 1_556
F9 Li0 1.986569 1_555
F9 Li3 2.026749 1_555
F10 V0 1.929435 1_555
F10 Li0 1.986293 1_555
F10 Li2 2.026911 1_655
F11 V3 1.929451 1_665
F11 Li1 1.986815 1_555
F11 Li3 2.026452 1_665
