# generated using pymatgen
data_Mn2O3F
_symmetry_space_group_name_H-M   'P 1'
_cell_length_a   4.59010970
_cell_length_b   4.59010970
_cell_length_c   12.07329300
_cell_angle_alpha   90.00000000
_cell_angle_beta   90.00000000
_cell_angle_gamma   92.83920243
_symmetry_Int_Tables_number   1
_chemical_formula_structural   Mn2O3F
_chemical_formula_sum   'Mn8 O12 F4'
_cell_volume   254.06125378
_cell_formula_units_Z   4
loop_
 _symmetry_equiv_pos_site_id
 _symmetry_equiv_pos_as_xyz
  1  'x, y, z'
loop_
 _atom_site_type_symbol
 _atom_site_label
 _atom_site_symmetry_multiplicity
 _atom_site_fract_x
 _atom_site_fract_y
 _atom_site_fract_z
 _atom_site_occupancy
  Mn  Mn0  1  0.00000000  0.00000000  0.00000000  1
  Mn  Mn1  1  0.98907600  0.01092400  0.25000000  1
  Mn  Mn2  1  0.00000000  0.00000000  0.50000000  1
  Mn  Mn3  1  0.01092400  0.98907600  0.75000000  1
  Mn  Mn4  1  0.47952800  0.52047200  0.62492400  1
  Mn  Mn5  1  0.52047200  0.47952800  0.12492400  1
  Mn  Mn6  1  0.52047200  0.47952800  0.37507600  1
  Mn  Mn7  1  0.47952800  0.52047200  0.87507600  1
  O  O0  1  0.18899000  0.81101000  0.62442200  1
  O  O1  1  0.18899000  0.81101000  0.87557800  1
  O  O2  1  0.30943900  0.30943900  0.00000000  1
  O  O3  1  0.31839600  0.29271500  0.25000000  1
  O  O4  1  0.30943900  0.30943900  0.50000000  1
  O  O5  1  0.29271500  0.31839600  0.75000000  1
  O  O6  1  0.69056100  0.69056100  0.00000000  1
  O  O7  1  0.70728500  0.68160400  0.25000000  1
  O  O8  1  0.69056100  0.69056100  0.50000000  1
  O  O9  1  0.68160400  0.70728500  0.75000000  1
  O  O10  1  0.81101000  0.18899000  0.12442200  1
  O  O11  1  0.81101000  0.18899000  0.37557800  1
  F  F0  1  0.21040900  0.78959100  0.13124600  1
  F  F1  1  0.21040900  0.78959100  0.36875400  1
  F  F2  1  0.78959100  0.21040900  0.63124600  1
  F  F3  1  0.78959100  0.21040900  0.86875400  1
loop_
_geom_bond_atom_site_label_1
_geom_bond_atom_site_label_2
_geom_bond_distance
_geom_bond_site_symmetry_2
Mn0 O6 1.958311 1_445
Mn0 O2 1.958311 1_555
Mn0 O10 1.958613 1_455
Mn0 O1 1.958613 1_544
Mn1 O10 1.923788 1_555
Mn1 O11 1.923788 1_555
Mn1 O7 1.940181 1_545
Mn1 O3 1.940181 1_655
Mn2 O8 1.958311 1_445
Mn2 O4 1.958311 1_555
Mn2 O11 1.958613 1_455
Mn2 O0 1.958613 1_545
Mn3 O0 1.923788 1_555
Mn3 O1 1.923788 1_555
Mn3 O5 1.940181 1_565
Mn3 O9 1.940181 1_455
Mn4 O0 1.932152 1_555
Mn4 O8 1.935904 1_555
Mn4 O4 1.935904 1_555
Mn4 O9 1.948638 1_555
Mn4 O5 1.948638 1_555
Mn5 O10 1.932152 1_555
Mn5 O6 1.935904 1_555
Mn5 O2 1.935904 1_555
Mn5 O7 1.948638 1_555
Mn5 O3 1.948638 1_555
Mn6 O11 1.932152 1_555
Mn6 O8 1.935904 1_555
Mn6 O4 1.935904 1_555
Mn6 O7 1.948638 1_555
Mn6 O3 1.948638 1_555
Mn7 O1 1.932152 1_555
Mn7 O6 1.935904 1_556
Mn7 O2 1.935904 1_556
Mn7 O9 1.948638 1_555
Mn7 O5 1.948638 1_555
F0 Mn1 2.054793 1_465
F0 Mn5 2.063400 1_555
F0 Mn0 2.113957 1_565
F1 Mn1 2.054793 1_465
F1 Mn6 2.063400 1_555
F1 Mn2 2.113957 1_565
F2 Mn3 2.054793 1_645
F2 Mn4 2.063400 1_555
F2 Mn2 2.113957 1_655
F3 Mn3 2.054793 1_645
F3 Mn7 2.063400 1_555
F3 Mn0 2.113957 1_656
