# generated using pymatgen
data_Li12Cr3FeP4(CO7)4
_symmetry_space_group_name_H-M   'P 1'
_cell_length_a   6.47040400
_cell_length_b   8.65031400
_cell_length_c   10.02797152
_cell_angle_alpha   85.61151377
_cell_angle_beta   90.00000000
_cell_angle_gamma   90.00000000
_symmetry_Int_Tables_number   1
_chemical_formula_structural   Li12Cr3FeP4(CO7)4
_chemical_formula_sum   'Li12 Cr3 Fe1 P4 C4 O28'
_cell_volume   559.63028047
_cell_formula_units_Z   1
loop_
 _symmetry_equiv_pos_site_id
 _symmetry_equiv_pos_as_xyz
  1  'x, y, z'
loop_
 _atom_site_type_symbol
 _atom_site_label
 _atom_site_symmetry_multiplicity
 _atom_site_fract_x
 _atom_site_fract_y
 _atom_site_fract_z
 _atom_site_occupancy
  Li  Li0  1  0.00000000  0.90532500  0.61760500  1
  Li  Li1  1  0.00000000  0.90372700  0.12051400  1
  Li  Li2  1  0.22517100  0.72628600  0.87475700  1
  Li  Li3  1  0.77482900  0.72628600  0.87475700  1
  Li  Li4  1  0.22560100  0.72614300  0.37517300  1
  Li  Li5  1  0.77439900  0.72614300  0.37517300  1
  Li  Li6  1  0.72624900  0.27387900  0.62505400  1
  Li  Li7  1  0.27375100  0.27387900  0.62505400  1
  Li  Li8  1  0.72625100  0.27315900  0.12551600  1
  Li  Li9  1  0.27374900  0.27315900  0.12551600  1
  Li  Li10  1  0.50000000  0.09755900  0.88058500  1
  Li  Li11  1  0.50000000  0.09730500  0.38061200  1
  Cr  Cr0  1  0.50000000  0.66481200  0.60695600  1
  Cr  Cr1  1  0.50000000  0.66449600  0.10694100  1
  Cr  Cr2  1  0.00000000  0.33452100  0.89249000  1
  Fe  Fe0  1  0.00000000  0.33435300  0.39488200  1
  P  P0  1  0.00000000  0.58893400  0.64133900  1
  P  P1  1  0.00000000  0.58625400  0.14104300  1
  P  P2  1  0.50000000  0.41123600  0.85924600  1
  P  P3  1  0.50000000  0.41089300  0.35976100  1
  C  C0  1  0.50000000  0.96829600  0.64690100  1
  C  C1  1  0.50000000  0.96836200  0.14660300  1
  C  C2  1  0.00000000  0.03152400  0.85313900  1
  C  C3  1  0.00000000  0.03477200  0.35076500  1
  O  O0  1  0.50000000  0.93891900  0.52310900  1
  O  O1  1  0.00000000  0.88965400  0.81699400  1
  O  O2  1  0.50000000  0.93870700  0.02280800  1
  O  O3  1  0.50000000  0.85280700  0.73952100  1
  O  O4  1  0.00000000  0.89043600  0.32046700  1
  O  O5  1  0.50000000  0.85291100  0.23931000  1
  O  O6  1  0.18649900  0.68805000  0.58508900  1
  O  O7  1  0.81350100  0.68805000  0.58508900  1
  O  O8  1  0.18631100  0.68716500  0.08741000  1
  O  O9  1  0.81368900  0.68716500  0.08741000  1
  O  O10  1  0.50000000  0.57778700  0.90660200  1
  O  O11  1  0.00000000  0.58063000  0.79663200  1
  O  O12  1  0.50000000  0.57762900  0.40637600  1
  O  O13  1  0.00000000  0.57125300  0.29722900  1
  O  O14  1  0.50000000  0.42090500  0.70391200  1
  O  O15  1  0.00000000  0.42228200  0.59525200  1
  O  O16  1  0.50000000  0.42003000  0.20447900  1
  O  O17  1  0.00000000  0.42204700  0.09089900  1
  O  O18  1  0.31356800  0.31216100  0.91478800  1
  O  O19  1  0.68643200  0.31216100  0.91478800  1
  O  O20  1  0.68728700  0.31228900  0.41534100  1
  O  O21  1  0.31271300  0.31228900  0.41534100  1
  O  O22  1  0.00000000  0.14678200  0.76047200  1
  O  O23  1  0.50000000  0.10997500  0.68251300  1
  O  O24  1  0.00000000  0.14611600  0.25531200  1
  O  O25  1  0.00000000  0.06040100  0.97672100  1
  O  O26  1  0.50000000  0.10992100  0.18222800  1
  O  O27  1  0.00000000  0.07017700  0.47352800  1
loop_
_geom_bond_atom_site_label_1
_geom_bond_atom_site_label_2
_geom_bond_distance
_geom_bond_site_symmetry_2
Li0 O27 1.950815 1_565
Li0 O1 1.993681 1_555
Li0 O7 2.277894 1_455
Li0 O6 2.277894 1_555
Li1 O25 1.901824 1_564
Li1 O4 1.999614 1_555
Li1 O9 2.273320 1_455
Li1 O8 2.273320 1_555
Li2 O1 2.080874 1_555
Li2 O11 2.115433 1_555
Li2 O8 2.148201 1_556
Li2 O10 2.202610 1_555
Li2 O3 2.443764 1_555
Li3 O1 2.080874 1_655
Li3 O11 2.115433 1_655
Li3 O9 2.148201 1_556
Li3 O10 2.202610 1_555
Li3 O3 2.443764 1_555
Li4 O4 2.081398 1_555
Li4 O6 2.120754 1_555
Li4 O13 2.167302 1_555
Li4 O12 2.199802 1_555
Li4 O5 2.445889 1_555
Li5 O4 2.081398 1_655
Li5 O7 2.120754 1_555
Li5 O13 2.167302 1_655
Li5 O12 2.199802 1_555
Li5 O5 2.445889 1_555
Li6 O23 2.088125 1_555
Li6 O20 2.118870 1_555
Li6 O14 2.130694 1_555
Li6 O15 2.194539 1_655
Li6 O22 2.441673 1_655
Li7 O23 2.088125 1_555
Li7 O21 2.118870 1_555
Li7 O14 2.130694 1_555
Li7 O15 2.194539 1_555
Li7 O22 2.441673 1_555
Li8 O26 2.082679 1_555
Li8 O19 2.129931 1_554
Li8 O16 2.130304 1_555
Li8 O17 2.201869 1_655
Li8 O24 2.412537 1_655
Li9 O26 2.082679 1_555
Li9 O18 2.129931 1_554
Li9 O16 2.130304 1_555
Li9 O17 2.201869 1_555
Li9 O24 2.412537 1_555
Li10 O2 1.903249 1_546
Li10 O23 1.980939 1_555
Li10 O18 2.261934 1_555
Li10 O19 2.261934 1_555
Li11 O0 1.902483 1_545
Li11 O26 1.984025 1_555
Li11 O21 2.268771 1_555
Li11 O20 2.268771 1_555
Cr0 O6 2.048529 1_555
Cr0 O7 2.048529 1_555
Cr0 O3 2.177753 1_555
Cr0 O12 2.201517 1_555
Cr0 O14 2.254537 1_555
Cr0 O0 2.454391 1_555
Cr1 O8 2.047094 1_555
Cr1 O9 2.047094 1_555
Cr1 O5 2.179327 1_555
Cr1 O10 2.197556 1_554
Cr1 O16 2.261004 1_555
Cr1 O2 2.456008 1_555
Cr2 O19 2.048725 1_455
Cr2 O18 2.048725 1_555
Cr2 O22 2.172336 1_555
Cr2 O17 2.182303 1_556
Cr2 O11 2.267849 1_555
Cr2 O25 2.455534 1_555
Fe0 O21 2.041223 1_555
Fe0 O20 2.041223 1_455
Fe0 O15 2.202209 1_555
Fe0 O13 2.202568 1_555
Fe0 O24 2.226893 1_555
Fe0 O27 2.359732 1_555
C0 O0 1.286035 1_555
C0 O23 1.302508 1_565
C0 O3 1.310986 1_555
C1 O2 1.286719 1_555
C1 O26 1.301555 1_565
C1 O5 1.311321 1_555
C2 O25 1.282801 1_555
C2 O1 1.305956 1_545
C2 O22 1.309880 1_555
C3 O27 1.291130 1_555
C3 O24 1.304921 1_555
C3 O4 1.307381 1_545
O6 P0 1.560595 1_555
O7 P0 1.560595 1_655
O8 P1 1.559691 1_555
O9 P1 1.559691 1_655
O10 P2 1.551093 1_555
O11 P0 1.553429 1_555
O12 P3 1.549831 1_555
O13 P1 1.561668 1_555
O14 P2 1.553525 1_555
O15 P0 1.547171 1_555
O16 P3 1.553116 1_555
O17 P1 1.542665 1_555
O18 P2 1.557821 1_555
O19 P2 1.557821 1_555
O20 P3 1.560108 1_555
O21 P3 1.560108 1_555
