# generated using pymatgen
data_Li5Fe7O3F13
_symmetry_space_group_name_H-M   'P 1'
_cell_length_a   6.18342775
_cell_length_b   6.18342775
_cell_length_c   10.78780747
_cell_angle_alpha   73.38585589
_cell_angle_beta   73.38585589
_cell_angle_gamma   60.85311613
_symmetry_Int_Tables_number   1
_chemical_formula_structural   Li5Fe7O3F13
_chemical_formula_sum   'Li5 Fe7 O3 F13'
_cell_volume   339.85870762
_cell_formula_units_Z   1
loop_
 _symmetry_equiv_pos_site_id
 _symmetry_equiv_pos_as_xyz
  1  'x, y, z'
loop_
 _atom_site_type_symbol
 _atom_site_label
 _atom_site_symmetry_multiplicity
 _atom_site_fract_x
 _atom_site_fract_y
 _atom_site_fract_z
 _atom_site_occupancy
  Li  Li0  1  0.63314000  0.63314000  0.11104000  1
  Li  Li1  1  0.99648200  0.99648200  0.01819800  1
  Li  Li2  1  0.12282100  0.12282100  0.61133100  1
  Li  Li3  1  0.50252400  0.50252400  0.51186300  1
  Li  Li4  1  0.56938700  0.56938700  0.80864200  1
  Fe  Fe0  1  0.06450100  0.56795200  0.31341600  1
  Fe  Fe1  1  0.32008600  0.32008600  0.05867200  1
  Fe  Fe2  1  0.06471200  0.06471200  0.31227100  1
  Fe  Fe3  1  0.56795200  0.06450100  0.31341600  1
  Fe  Fe4  1  0.58222800  0.06279600  0.80462800  1
  Fe  Fe5  1  0.81973300  0.81973300  0.57174200  1
  Fe  Fe6  1  0.06279600  0.58222800  0.80462800  1
  O  O0  1  0.20265900  0.20265900  0.40050600  1
  O  O1  1  0.92786900  0.92786900  0.22064300  1
  O  O2  1  0.92464000  0.92464000  0.69424400  1
  F  F0  1  0.44318100  0.44318100  0.17666300  1
  F  F1  1  0.95077300  0.44303300  0.17242200  1
  F  F2  1  0.44303300  0.95077300  0.17242200  1
  F  F3  1  0.68501600  0.19384600  0.44348400  1
  F  F4  1  0.69666400  0.69666400  0.45426100  1
  F  F5  1  0.19384600  0.68501600  0.44348400  1
  F  F6  1  0.44763000  0.92686500  0.69265500  1
  F  F7  1  0.92686500  0.44763000  0.69265500  1
  F  F8  1  0.68833600  0.68833600  0.92290400  1
  F  F9  1  0.43843000  0.43843000  0.70515900  1
  F  F10  1  0.20218800  0.66963900  0.94060900  1
  F  F11  1  0.20450400  0.20450400  0.92703000  1
  F  F12  1  0.66963900  0.20218800  0.94060900  1
loop_
_geom_bond_atom_site_label_1
_geom_bond_atom_site_label_2
_geom_bond_distance
_geom_bond_site_symmetry_2
Li1 O1 2.060390 1_555
Li2 O2 2.003158 1_445
Li2 O0 2.147865 1_555
Fe0 O1 2.011625 1_455
Fe0 O0 2.019969 1_555
Fe2 O0 1.999637 1_555
Fe2 O1 2.015704 1_445
Fe3 O1 2.011625 1_545
Fe3 O0 2.019969 1_555
Fe4 O2 2.002179 1_545
Fe5 O2 1.994582 1_555
Fe6 O2 2.002179 1_455
F0 Li0 1.911399 1_555
F0 Fe1 2.109806 1_555
F0 Fe3 2.273805 1_555
F0 Fe0 2.273805 1_555
F1 Li0 1.930662 1_555
F1 Fe1 2.130391 1_655
F1 Fe0 2.284142 1_655
F1 Fe2 2.286708 1_655
F2 Li0 1.930662 1_555
F2 Fe1 2.130391 1_565
F2 Fe3 2.284142 1_565
F2 Fe2 2.286708 1_565
F3 Li3 1.921376 1_555
F3 Fe5 2.216155 1_545
F3 Fe3 2.217876 1_555
F3 Fe2 2.252383 1_655
F4 Li3 1.954202 1_555
F4 Fe5 2.105126 1_555
F4 Fe0 2.251062 1_655
F4 Fe3 2.251062 1_565
F5 Li3 1.921376 1_555
F5 Fe5 2.216155 1_455
F5 Fe0 2.217876 1_555
F5 Fe2 2.252383 1_565
F6 Li2 2.073840 1_565
F6 Li4 2.086737 1_555
F6 Fe4 2.166845 1_565
F6 Fe5 2.174263 1_555
F7 Li2 2.073840 1_655
F7 Li4 2.086737 1_555
F7 Fe6 2.166845 1_655
F7 Fe5 2.174263 1_555
F8 Li0 1.916607 1_556
F8 Li4 2.040887 1_555
F8 Fe4 2.174678 1_565
F8 Fe6 2.174678 1_655
F9 Li3 1.967279 1_555
F9 Li4 2.056769 1_555
F9 Fe4 2.108455 1_555
F9 Fe6 2.108455 1_555
F10 Fe1 2.060884 1_556
F10 Li1 2.063353 1_456
F10 Fe6 2.194811 1_555
F10 Li4 2.202621 1_555
F11 Li1 2.107412 1_446
F11 Fe1 2.167187 1_556
F11 Fe4 2.207034 1_555
F11 Fe6 2.207034 1_555
F12 Fe1 2.060884 1_556
F12 Li1 2.063353 1_546
F12 Fe4 2.194811 1_555
F12 Li4 2.202621 1_555
