# generated using pymatgen
data_Ba4(PtO3)3
_symmetry_space_group_name_H-M   'P 1'
_cell_length_a   8.65568722
_cell_length_b   10.11830698
_cell_length_c   10.17040118
_cell_angle_alpha   119.46767627
_cell_angle_beta   90.03442354
_cell_angle_gamma   90.03763971
_symmetry_Int_Tables_number   1
_chemical_formula_structural   Ba4(PtO3)3
_chemical_formula_sum   'Ba12 Pt9 O27'
_cell_volume   775.50116777
_cell_formula_units_Z   3
loop_
 _symmetry_equiv_pos_site_id
 _symmetry_equiv_pos_as_xyz
  1  'x, y, z'
loop_
 _atom_site_type_symbol
 _atom_site_label
 _atom_site_symmetry_multiplicity
 _atom_site_fract_x
 _atom_site_fract_y
 _atom_site_fract_z
 _atom_site_occupancy
  Ba  Ba0  1  0.24788970  0.31892131  0.99191158  1
  Ba  Ba1  1  0.00236024  0.64154283  0.00989799  1
  Ba  Ba2  1  0.50413735  0.66114965  0.00627033  1
  Ba  Ba3  1  0.24800696  0.67761055  0.69823523  1
  Ba  Ba4  1  0.25327520  0.02524847  0.33859113  1
  Ba  Ba5  1  0.75211095  0.70163684  0.67317049  1
  Ba  Ba6  1  0.99968956  0.35708316  0.35983008  1
  Ba  Ba7  1  0.49988500  0.33219160  0.33455498  1
  Ba  Ba8  1  0.49731808  0.00548162  0.66878505  1
  Ba  Ba9  1  -0.00000313  0.00760889  0.65683146  1
  Ba  Ba10  1  0.74859606  0.32721363  0.02152886  1
  Ba  Ba11  1  0.75109831  0.99521066  0.33038266  1
  Pt  Pt0  1  0.75728930  0.41091790  0.74274130  1
  Pt  Pt1  1  0.33822687  0.99826196  0.99621386  1
  Pt  Pt2  1  0.66047919  0.99913094  0.99720228  1
  Pt  Pt3  1  0.09564213  0.33675907  0.66559168  1
  Pt  Pt4  1  0.41892207  0.33537838  0.66354480  1
  Pt  Pt5  1  0.24296494  0.73619182  0.40581573  1
  Pt  Pt6  1  0.90459581  0.65942745  0.33243603  1
  Pt  Pt7  1  0.58132063  0.65738192  0.32914543  1
  Pt  Pt8  1  0.99901738  0.00082684  0.07649021  1
  O  O0  1  0.49812209  0.14651890  0.00046419  1
  O  O1  1  0.77367492  0.00928801  0.82866233  1
  O  O2  1  0.57398956  0.32708304  0.80630156  1
  O  O3  1  0.94166597  0.32835543  0.81075377  1
  O  O4  1  0.25876915  0.48909240  0.83032101  1
  O  O5  1  0.25621828  0.18715976  0.66121937  1
  O  O6  1  0.81710729  0.85075850  0.00050611  1
  O  O7  1  0.94337296  0.49679234  0.68010724  1
  O  O8  1  0.50008829  0.84954864  0.85223385  1
  O  O9  1  0.57396905  0.48927758  0.67209612  1
  O  O10  1  0.97840424  0.17187996  0.49282828  1
  O  O11  1  0.22450854  0.99845926  0.82409731  1
  O  O12  1  0.53086002  0.16978939  0.49063479  1
  O  O13  1  0.25650835  0.35218952  0.52339550  1
  O  O14  1  0.42835868  0.66489258  0.48267771  1
  O  O15  1  0.05553942  0.67575002  0.49332022  1
  O  O16  1  0.74263724  0.51761711  0.34829643  1
  O  O17  1  0.74328715  0.82284352  0.48017888  1
  O  O18  1  0.81163884  0.14702492  0.15429833  1
  O  O19  1  0.18580892  0.15015385  0.14745231  1
  O  O20  1  0.02167392  0.48184768  0.16922570  1
  O  O21  1  0.46928510  0.48330836  0.16329740  1
  O  O22  1  0.05968606  0.80568531  0.32631098  1
  O  O23  1  0.42415933  0.79848334  0.31908282  1
  O  O24  1  0.74471882  0.65615194  0.18153604  1
  O  O25  1  0.50109257  0.99364359  0.14976524  1
  O  O26  1  0.18202864  0.85232952  0.00446636  1
loop_
_geom_bond_atom_site_label_1
_geom_bond_atom_site_label_2
_geom_bond_distance
_geom_bond_site_symmetry_2
Ba0 O21 2.572260 1_556
Ba0 O20 2.624365 1_556
Ba0 O0 2.809958 1_556
Ba0 O11 2.832278 1_545
Ba0 O19 2.892196 1_556
Ba0 O4 2.908363 1_555
Ba0 O5 2.946705 1_555
Ba0 O3 3.255270 1_455
Ba0 O2 3.420086 1_555
Ba1 O26 2.661216 1_555
Ba1 O6 2.695335 1_455
Ba1 O24 2.791682 1_455
Ba1 O20 2.800147 1_555
Ba1 O4 2.806840 1_554
Ba1 O22 2.845874 1_555
Ba1 O3 2.846412 1_454
Ba1 O7 2.969772 1_454
Ba2 O24 2.756935 1_555
Ba2 O4 2.769332 1_554
Ba2 O23 2.861126 1_555
Ba2 O25 2.935720 1_555
Ba2 O21 2.950730 1_555
Ba2 O8 3.004603 1_554
Ba2 O9 3.021496 1_554
Ba2 O2 3.027872 1_554
Ba2 O6 3.335670 1_555
Ba2 O26 3.399646 1_555
Ba3 O14 2.643201 1_555
Ba3 O15 2.660119 1_555
Ba3 O8 2.747840 1_555
Ba3 O26 2.781700 1_556
Ba3 O4 2.823649 1_555
Ba3 O11 2.851651 1_555
Ba3 O13 2.872141 1_555
Ba3 O7 3.161541 1_455
Ba3 O9 3.342456 1_555
Ba4 O23 2.654941 1_545
Ba4 O22 2.735105 1_545
Ba4 O25 2.791615 1_545
Ba4 O10 2.835812 1_455
Ba4 O12 2.840579 1_555
Ba4 O19 2.852027 1_555
Ba4 O5 2.856961 1_555
Ba4 O13 2.891256 1_555
Ba4 O26 3.022514 1_545
Ba5 O9 2.639547 1_555
Ba5 O7 2.681400 1_555
Ba5 O1 2.716878 1_565
Ba5 O8 2.764517 1_555
Ba5 O17 2.780431 1_555
Ba5 O16 2.887444 1_555
Ba5 O6 2.954791 1_556
Ba5 O15 3.138084 1_655
Ba5 O14 3.320844 1_555
Ba6 O18 2.675182 1_555
Ba6 O19 2.683978 1_655
Ba6 O13 2.790697 1_655
Ba6 O16 2.791877 1_555
Ba6 O20 2.792059 1_655
Ba6 O10 2.805170 1_555
Ba6 O15 2.857218 1_655
Ba6 O7 2.884217 1_555
Ba7 O16 2.773284 1_555
Ba7 O13 2.791127 1_555
Ba7 O12 2.803278 1_555
Ba7 O21 2.839382 1_555
Ba7 O0 2.965539 1_555
Ba7 O25 2.988733 1_545
Ba7 O14 2.999925 1_555
Ba7 O9 3.057800 1_555
Ba7 O18 3.284207 1_555
Ba7 O19 3.308014 1_555
Ba8 O5 2.807895 1_555
Ba8 O17 2.854783 1_545
Ba8 O11 2.861962 1_545
Ba8 O1 2.881136 1_555
Ba8 O2 2.916123 1_555
Ba8 O0 2.946097 1_556
Ba8 O8 2.977786 1_545
Ba8 O12 3.015747 1_555
Ba8 O14 3.064866 1_545
Ba8 O23 3.178650 1_545
Ba9 O11 2.613457 1_545
Ba9 O1 2.620472 1_455
Ba9 O5 2.852352 1_555
Ba9 O3 2.871027 1_455
Ba9 O10 2.882279 1_455
Ba9 O17 2.888832 1_445
Ba9 O15 2.963264 1_545
Ba9 O22 2.997902 1_545
Ba10 O2 2.658725 1_554
Ba10 O3 2.723388 1_554
Ba10 O0 2.774502 1_555
Ba10 O18 2.804961 1_555
Ba10 O20 2.823112 1_655
Ba10 O1 2.834823 1_554
Ba10 O21 2.861306 1_555
Ba10 O24 2.897976 1_555
Ba10 O16 2.908607 1_555
Ba11 O12 2.566379 1_565
Ba11 O10 2.623326 1_565
Ba11 O17 2.825155 1_555
Ba11 O25 2.832655 1_555
Ba11 O18 2.923689 1_565
Ba11 O6 2.982863 1_555
Ba11 O24 2.992388 1_555
Ba11 O22 3.277556 1_655
O0 Pt1 2.025108 1_544
O0 Pt2 2.038176 1_544
O1 Pt2 2.020880 1_545
O2 Pt4 2.008554 1_555
O2 Pt0 2.047840 1_555
O3 Pt3 2.022093 1_655
O3 Pt0 2.071768 1_555
O4 Pt4 2.151237 1_555
O4 Pt3 2.151727 1_555
O5 Pt3 2.040016 1_555
O5 Pt4 2.048257 1_555
O6 Pt2 2.035977 1_554
O6 Pt8 2.054990 1_565
O7 Pt3 2.036853 1_655
O7 Pt0 2.073413 1_555
O8 Pt2 2.047239 1_555
O8 Pt1 2.051513 1_555
O9 Pt4 2.024196 1_555
O9 Pt0 2.055101 1_555
O10 Pt3 2.002973 1_655
O11 Pt1 2.008599 1_555
O12 Pt4 1.985908 1_555
O13 Pt4 2.067210 1_555
O13 Pt3 2.068558 1_555
O14 Pt7 2.020601 1_555
O14 Pt5 2.064340 1_555
O15 Pt6 2.035406 1_455
O15 Pt5 2.081779 1_555
O16 Pt7 2.064168 1_555
O16 Pt6 2.067721 1_555
O17 Pt6 2.121894 1_555
O17 Pt7 2.142893 1_555
O18 Pt2 2.036306 1_544
O18 Pt8 2.073157 1_555
O19 Pt1 2.036597 1_544
O19 Pt8 2.083361 1_455
O20 Pt6 2.020095 1_455
O21 Pt7 1.990126 1_555
O22 Pt6 2.020939 1_455
O22 Pt5 2.055299 1_555
O23 Pt7 2.011339 1_555
O23 Pt5 2.045118 1_555
O24 Pt6 2.053976 1_555
O24 Pt7 2.058738 1_555
O25 Pt2 2.097894 1_554
O25 Pt1 2.120746 1_554
O26 Pt1 2.033401 1_554
O26 Pt8 2.055527 1_465
