# generated using pymatgen
data_Li3V2P4(HO8)2
_symmetry_space_group_name_H-M   'P 1'
_cell_length_a   8.07843500
_cell_length_b   7.88389600
_cell_length_c   9.74999693
_cell_angle_alpha   67.94106422
_cell_angle_beta   90.00000000
_cell_angle_gamma   90.00000000
_symmetry_Int_Tables_number   1
_chemical_formula_structural   Li3V2P4(HO8)2
_chemical_formula_sum   'Li6 V4 P8 H4 O32'
_cell_volume   575.51640163
_cell_formula_units_Z   2
loop_
 _symmetry_equiv_pos_site_id
 _symmetry_equiv_pos_as_xyz
  1  'x, y, z'
loop_
 _atom_site_type_symbol
 _atom_site_label
 _atom_site_symmetry_multiplicity
 _atom_site_fract_x
 _atom_site_fract_y
 _atom_site_fract_z
 _atom_site_occupancy
  Li  Li0  1  0.86685200  0.09294400  0.77755700  1
  Li  Li1  1  0.63160000  0.60098500  0.77308400  1
  Li  Li2  1  0.13210100  0.40628200  0.73059600  1
  Li  Li3  1  0.36685200  0.90705600  0.22244300  1
  Li  Li4  1  0.63210100  0.59371800  0.26940400  1
  Li  Li5  1  0.13160000  0.39901500  0.22691600  1
  V  V0  1  0.49626400  0.23762100  0.75108300  1
  V  V1  1  0.00381700  0.75429400  0.74724200  1
  V  V2  1  0.50381700  0.24570600  0.25275800  1
  V  V3  1  0.99626400  0.76237900  0.24891700  1
  P  P0  1  0.15181500  0.02056000  0.93269100  1
  P  P1  1  0.34838900  0.50992800  0.93212400  1
  P  P2  1  0.64897000  0.98190000  0.56892900  1
  P  P3  1  0.14897000  0.01810000  0.43107100  1
  P  P4  1  0.84247800  0.48545600  0.56527500  1
  P  P5  1  0.34247800  0.51454400  0.43472500  1
  P  P6  1  0.65181500  0.97944000  0.06730900  1
  P  P7  1  0.84838900  0.49007200  0.06787600  1
  H  H0  1  0.48992000  0.73287000  0.98586500  1
  H  H1  1  0.48894000  0.74423600  0.49441400  1
  H  H2  1  0.98894000  0.25576400  0.50558600  1
  H  H3  1  0.98992000  0.26713000  0.01413500  1
  O  O0  1  0.05455500  0.19813000  0.90463800  1
  O  O1  1  0.67118400  0.10159700  0.89880400  1
  O  O2  1  0.32744700  0.06795100  0.86612800  1
  O  O3  1  0.05059600  0.91197400  0.85903300  1
  O  O4  1  0.45238900  0.68705500  0.90280700  1
  O  O5  1  0.82814700  0.60317400  0.90094200  1
  O  O6  1  0.18200100  0.55810600  0.85273100  1
  O  O7  1  0.45457800  0.40088400  0.85775500  1
  O  O8  1  0.54638800  0.10034800  0.64299900  1
  O  O9  1  0.81537000  0.94226300  0.65175500  1
  O  O10  1  0.16662400  0.89303200  0.59437300  1
  O  O11  1  0.56004300  0.80214500  0.59268800  1
  O  O12  1  0.95160900  0.58689600  0.63933800  1
  O  O13  1  0.67473200  0.43493400  0.64628100  1
  O  O14  1  0.06004300  0.19785500  0.40731200  1
  O  O15  1  0.66662400  0.10696800  0.40562700  1
  O  O16  1  0.32170600  0.39723800  0.60194400  1
  O  O17  1  0.93680300  0.30175500  0.59138800  1
  O  O18  1  0.31537000  0.05773700  0.34824500  1
  O  O19  1  0.04638800  0.89965200  0.35700100  1
  O  O20  1  0.43680300  0.69824500  0.40861200  1
  O  O21  1  0.82170600  0.60276200  0.39805600  1
  O  O22  1  0.17473200  0.56506600  0.35371900  1
  O  O23  1  0.45160900  0.41310400  0.36066200  1
  O  O24  1  0.55059600  0.08802600  0.14096700  1
  O  O25  1  0.82744700  0.93204900  0.13387200  1
  O  O26  1  0.17118400  0.89840300  0.10119600  1
  O  O27  1  0.55455500  0.80187000  0.09536200  1
  O  O28  1  0.95457800  0.59911600  0.14224500  1
  O  O29  1  0.68200100  0.44189400  0.14726900  1
  O  O30  1  0.32814700  0.39682600  0.09905800  1
  O  O31  1  0.95238900  0.31294500  0.09719300  1
loop_
_geom_bond_atom_site_label_1
_geom_bond_atom_site_label_2
_geom_bond_distance
_geom_bond_site_symmetry_2
Li0 O1 1.990304 1_555
Li0 O3 2.004667 1_645
Li0 O17 2.019835 1_555
Li0 O9 2.045271 1_545
Li0 O0 2.300870 1_655
Li1 O11 1.961561 1_555
Li1 O5 2.022768 1_555
Li1 O7 2.058425 1_555
Li1 O13 2.139962 1_555
Li1 O4 2.191069 1_555
Li2 O0 1.968077 1_555
Li2 O16 1.997952 1_555
Li2 O12 1.998419 1_455
Li2 O6 2.020863 1_555
Li2 O17 2.418799 1_455
Li3 O26 1.990304 1_555
Li3 O24 2.004667 1_565
Li3 O20 2.019835 1_555
Li3 O18 2.045271 1_565
Li3 O27 2.300870 1_555
Li4 O27 1.968077 1_555
Li4 O21 1.997952 1_555
Li4 O23 1.998419 1_555
Li4 O29 2.020863 1_555
Li4 O20 2.418799 1_555
Li5 O14 1.961561 1_555
Li5 O30 2.022768 1_555
Li5 O28 2.058425 1_455
Li5 O22 2.139962 1_555
Li5 O31 2.191069 1_455
H0 O4 1.047807 1_555
H0 O27 1.464426 1_556
H1 O20 1.112004 1_555
H1 O11 1.336055 1_555
H2 O17 1.112004 1_555
H2 O14 1.336055 1_655
H3 O31 1.047807 1_555
H3 O0 1.464426 1_654
O0 P0 1.537654 1_555
O1 P6 1.569307 1_546
O1 V0 2.015215 1_555
O2 P0 1.546524 1_555
O2 V0 1.944325 1_555
O3 P0 1.542416 1_565
O3 V1 1.973309 1_555
O4 P1 1.561354 1_555
O5 P7 1.542995 1_556
O5 V1 2.082806 1_655
O6 P1 1.526231 1_555
O6 V1 2.080219 1_555
O7 P1 1.571288 1_555
O7 V0 1.964024 1_555
O8 P2 1.608381 1_545
O8 V0 1.817250 1_555
O9 P2 1.538590 1_555
O9 V1 2.084260 1_655
O10 P3 1.532465 1_565
O10 V1 1.980703 1_555
O11 P2 1.526936 1_555
O12 P4 1.540144 1_555
O12 V1 2.017264 1_655
O13 P4 1.543541 1_555
O13 V0 2.085348 1_555
O14 P3 1.526936 1_555
O15 P2 1.532465 1_545
O15 V2 1.980703 1_555
O16 P5 1.552115 1_555
O16 V0 2.076560 1_555
O17 P4 1.570355 1_555
O18 P3 1.538590 1_555
O18 V2 2.084260 1_555
O19 P3 1.608381 1_565
O19 V3 1.817250 1_455
O20 P5 1.570355 1_555
O21 P4 1.552115 1_555
O21 V3 2.076560 1_555
O22 P5 1.543541 1_555
O22 V3 2.085348 1_455
O23 P5 1.540144 1_555
O23 V2 2.017264 1_555
O24 P6 1.542416 1_545
O24 V2 1.973309 1_555
O25 P6 1.546524 1_555
O25 V3 1.944325 1_555
O26 P0 1.569307 1_564
O26 V3 2.015215 1_455
O27 P6 1.537654 1_555
O28 P7 1.571288 1_555
O28 V3 1.964024 1_555
O29 P7 1.526231 1_555
O29 V2 2.080219 1_555
O30 P1 1.542995 1_554
O30 V2 2.082806 1_555
O31 P7 1.561354 1_555
