# generated using pymatgen
data_Dy2W2O9
_symmetry_space_group_name_H-M   'P 1'
_cell_length_a   6.72517400
_cell_length_b   7.11878259
_cell_length_c   7.41321330
_cell_angle_alpha   70.34764572
_cell_angle_beta   84.79954715
_cell_angle_gamma   82.94184168
_symmetry_Int_Tables_number   1
_chemical_formula_structural   Dy2W2O9
_chemical_formula_sum   'Dy4 W4 O18'
_cell_volume   331.23983261
_cell_formula_units_Z   2
loop_
 _symmetry_equiv_pos_site_id
 _symmetry_equiv_pos_as_xyz
  1  'x, y, z'
loop_
 _atom_site_type_symbol
 _atom_site_label
 _atom_site_symmetry_multiplicity
 _atom_site_fract_x
 _atom_site_fract_y
 _atom_site_fract_z
 _atom_site_occupancy
  Dy  Dy0  1  0.15236100  0.25931600  0.15486100  1
  Dy  Dy1  1  0.61641300  0.28248700  0.37824800  1
  Dy  Dy2  1  0.38358700  0.71751300  0.62175200  1
  Dy  Dy3  1  0.84763900  0.74068400  0.84513900  1
  W  W0  1  0.27114100  0.73447700  0.05688900  1
  W  W1  1  0.84122100  0.79124700  0.36622000  1
  W  W2  1  0.15877900  0.20875300  0.63378000  1
  W  W3  1  0.72885900  0.26552300  0.94311100  1
  O  O0  1  0.49487200  0.23054500  0.09416300  1
  O  O1  1  0.85550300  0.06753200  0.20981700  1
  O  O2  1  0.81531900  0.42899700  0.09140900  1
  O  O3  1  0.33265400  0.49638500  0.24868000  1
  O  O4  1  0.96477900  0.73371700  0.14079000  1
  O  O5  1  0.26378700  0.92924800  0.16886400  1
  O  O6  1  0.31579800  0.08665800  0.46298900  1
  O  O7  1  0.63417700  0.63945500  0.37835800  1
  O  O8  1  0.95971300  0.30381900  0.46214400  1
  O  O9  1  0.04028700  0.69618100  0.53785600  1
  O  O10  1  0.36582300  0.36054500  0.62164200  1
  O  O11  1  0.68420200  0.91334200  0.53701100  1
  O  O12  1  0.73621300  0.07075200  0.83113600  1
  O  O13  1  0.03522100  0.26628300  0.85921000  1
  O  O14  1  0.66734600  0.50361500  0.75132000  1
  O  O15  1  0.18468100  0.57100300  0.90859100  1
  O  O16  1  0.14449700  0.93246800  0.79018300  1
  O  O17  1  0.50512800  0.76945500  0.90583700  1
loop_
_geom_bond_atom_site_label_1
_geom_bond_atom_site_label_2
_geom_bond_distance
_geom_bond_site_symmetry_2
Dy0 O0 2.304005 1_555
Dy0 O5 2.347477 1_545
Dy0 O15 2.371787 1_554
Dy0 O13 2.378446 1_554
Dy0 O2 2.440564 1_455
Dy0 O1 2.482722 1_455
Dy0 O6 2.484187 1_555
Dy0 O3 2.499453 1_555
Dy0 O8 2.611040 1_455
Dy1 O3 2.348897 1_555
Dy1 O2 2.394627 1_555
Dy1 O0 2.479944 1_555
Dy1 O8 2.479959 1_555
Dy1 O11 2.494238 1_545
Dy1 O10 2.509485 1_555
Dy1 O6 2.509704 1_555
Dy1 O7 2.558882 1_555
Dy1 O1 2.608169 1_555
Dy2 O14 2.348897 1_555
Dy2 O15 2.394627 1_555
Dy2 O17 2.479944 1_555
Dy2 O9 2.479959 1_555
Dy2 O6 2.494238 1_565
Dy2 O7 2.509485 1_555
Dy2 O11 2.509704 1_555
Dy2 O10 2.558882 1_555
Dy2 O16 2.608169 1_555
Dy3 O17 2.304005 1_555
Dy3 O12 2.347477 1_565
Dy3 O2 2.371787 1_556
Dy3 O4 2.378446 1_556
Dy3 O15 2.440564 1_655
Dy3 O16 2.482722 1_655
Dy3 O11 2.484187 1_555
Dy3 O14 2.499453 1_555
Dy3 O9 2.611040 1_655
O0 W3 1.838872 1_554
O1 W1 1.927245 1_545
O1 W3 2.181038 1_554
O2 W3 2.010892 1_554
O3 W0 1.838149 1_555
O4 W1 1.943184 1_555
O4 W0 2.097628 1_655
O5 W0 1.834077 1_555
O6 W2 1.935420 1_555
O7 W1 1.842873 1_555
O8 W2 1.837429 1_655
O9 W1 1.837429 1_455
O10 W2 1.842873 1_555
O11 W1 1.935420 1_555
O12 W3 1.834077 1_555
O13 W2 1.943184 1_555
O13 W3 2.097628 1_455
O14 W3 1.838149 1_555
O15 W0 2.010892 1_556
O16 W2 1.927245 1_565
O16 W0 2.181038 1_556
O17 W0 1.838872 1_556
