# generated using pymatgen
data_LiTiP2O7
_symmetry_space_group_name_H-M   'P 1'
_cell_length_a   8.35565900
_cell_length_b   7.07477900
_cell_length_c   9.12180155
_cell_angle_alpha   65.38598092
_cell_angle_beta   90.00000000
_cell_angle_gamma   90.00000000
_symmetry_Int_Tables_number   1
_chemical_formula_structural   LiTiP2O7
_chemical_formula_sum   'Li4 Ti4 P8 O28'
_cell_volume   490.23262912
_cell_formula_units_Z   4
loop_
 _symmetry_equiv_pos_site_id
 _symmetry_equiv_pos_as_xyz
  1  'x, y, z'
loop_
 _atom_site_type_symbol
 _atom_site_label
 _atom_site_symmetry_multiplicity
 _atom_site_fract_x
 _atom_site_fract_y
 _atom_site_fract_z
 _atom_site_occupancy
  Li  Li0  1  0.94654800  0.70659200  0.16596600  1
  Li  Li1  1  0.44654800  0.29340800  0.33403400  1
  Li  Li2  1  0.55345200  0.70659200  0.66596600  1
  Li  Li3  1  0.05345200  0.29340800  0.83403400  1
  Ti  Ti0  1  0.57219500  0.76401600  0.11055900  1
  Ti  Ti1  1  0.07219500  0.23598400  0.38944100  1
  Ti  Ti2  1  0.92780500  0.76401600  0.61055900  1
  Ti  Ti3  1  0.42780500  0.23598400  0.88944100  1
  P  P0  1  0.73040800  0.46410200  0.46670700  1
  P  P1  1  0.23040800  0.53589800  0.03329300  1
  P  P2  1  0.73793600  0.05891600  0.75643900  1
  P  P3  1  0.23793600  0.94108400  0.74356100  1
  P  P4  1  0.76206400  0.05891600  0.25643900  1
  P  P5  1  0.26206400  0.94108400  0.24356100  1
  P  P6  1  0.76959200  0.46410200  0.96670700  1
  P  P7  1  0.26959200  0.53589800  0.53329300  1
  O  O0  1  0.59661000  0.52289500  0.34164900  1
  O  O1  1  0.89252200  0.42078000  0.40415100  1
  O  O2  1  0.75157600  0.61915500  0.04376600  1
  O  O3  1  0.25157600  0.38084500  0.45623400  1
  O  O4  1  0.39252200  0.57922000  0.09584900  1
  O  O5  1  0.66466900  0.25199700  0.60358600  1
  O  O6  1  0.09661000  0.47710500  0.15835100  1
  O  O7  1  0.24821800  0.11522000  0.80357000  1
  O  O8  1  0.89008100  0.11484200  0.81379400  1
  O  O9  1  0.59702200  0.01326300  0.88248800  1
  O  O10  1  0.83533100  0.25199700  0.10358600  1
  O  O11  1  0.09702200  0.98673700  0.61751200  1
  O  O12  1  0.25178200  0.11522000  0.30357000  1
  O  O13  1  0.60991900  0.11484200  0.31379400  1
  O  O14  1  0.39008100  0.88515800  0.68620600  1
  O  O15  1  0.74821800  0.88478000  0.69643000  1
  O  O16  1  0.90297800  0.01326300  0.38248800  1
  O  O17  1  0.16466900  0.74800300  0.89641400  1
  O  O18  1  0.40297800  0.98673700  0.11751200  1
  O  O19  1  0.10991900  0.88515800  0.18620600  1
  O  O20  1  0.75178200  0.88478000  0.19643000  1
  O  O21  1  0.90339000  0.52289500  0.84164900  1
  O  O22  1  0.33533100  0.74800300  0.39641400  1
  O  O23  1  0.60747800  0.42078000  0.90415100  1
  O  O24  1  0.74842400  0.61915500  0.54376600  1
  O  O25  1  0.24842400  0.38084500  0.95623400  1
  O  O26  1  0.10747800  0.57922000  0.59584900  1
  O  O27  1  0.40339000  0.47710500  0.65835100  1
loop_
_geom_bond_atom_site_label_1
_geom_bond_atom_site_label_2
_geom_bond_distance
_geom_bond_site_symmetry_2
Li0 O19 1.920355 1_655
Li0 O6 2.075315 1_655
Li0 O20 2.146317 1_555
Li0 O2 2.203090 1_555
Li0 O1 2.313740 1_555
Li1 O13 1.920355 1_555
Li1 O0 2.075315 1_555
Li1 O12 2.146317 1_555
Li1 O3 2.203090 1_555
Li1 O4 2.313740 1_555
Li2 O14 1.920355 1_555
Li2 O27 2.075315 1_555
Li2 O15 2.146317 1_555
Li2 O24 2.203090 1_555
Li2 O23 2.313740 1_555
Li3 O8 1.920355 1_455
Li3 O21 2.075315 1_455
Li3 O7 2.146317 1_555
Li3 O25 2.203090 1_555
Li3 O26 2.313740 1_555
O0 P0 1.526085 1_555
O0 Ti0 2.097546 1_555
O1 P0 1.549224 1_555
O1 Ti1 2.031568 1_655
O2 P6 1.537009 1_554
O2 Ti0 2.046518 1_555
O3 P7 1.537009 1_555
O3 Ti1 2.046518 1_555
O4 P1 1.549224 1_555
O4 Ti0 2.031568 1_555
O5 P0 1.597415 1_555
O5 P2 1.611910 1_555
O6 P1 1.526085 1_555
O6 Ti1 2.097546 1_555
O7 P3 1.544840 1_545
O7 Ti3 2.037817 1_555
O8 P2 1.489576 1_555
O9 P2 1.582193 1_555
O9 Ti0 2.103502 1_546
O9 Ti3 2.137586 1_555
O10 P6 1.597415 1_554
O10 P4 1.611910 1_555
O11 P3 1.582193 1_555
O11 Ti1 2.103502 1_565
O11 Ti2 2.137586 1_455
O12 P5 1.544840 1_545
O12 Ti1 2.037817 1_555
O13 P4 1.489576 1_555
O14 P3 1.489576 1_555
O15 P2 1.544840 1_565
O15 Ti2 2.037817 1_555
O16 P4 1.582193 1_555
O16 Ti2 2.103502 1_545
O16 Ti1 2.137586 1_655
O17 P1 1.597415 1_556
O17 P3 1.611910 1_555
O18 P5 1.582193 1_555
O18 Ti3 2.103502 1_564
O18 Ti0 2.137586 1_555
O19 P5 1.489576 1_555
O20 P4 1.544840 1_565
O20 Ti0 2.037817 1_555
O21 P6 1.526085 1_555
O21 Ti2 2.097546 1_555
O22 P7 1.597415 1_555
O22 P5 1.611910 1_555
O23 P6 1.549224 1_555
O23 Ti3 2.031568 1_555
O24 P0 1.537009 1_555
O24 Ti2 2.046518 1_555
O25 P1 1.537009 1_556
O25 Ti3 2.046518 1_555
O26 P7 1.549224 1_555
O26 Ti2 2.031568 1_455
O27 P7 1.526085 1_555
O27 Ti3 2.097546 1_555
