# generated using pymatgen
data_Er3Sb5O12
_symmetry_space_group_name_H-M   'P 1'
_cell_length_a   9.25180615
_cell_length_b   9.25188819
_cell_length_c   9.25209664
_cell_angle_alpha   109.47113411
_cell_angle_beta   109.47079726
_cell_angle_gamma   109.46999851
_symmetry_Int_Tables_number   1
_chemical_formula_structural   Er3Sb5O12
_chemical_formula_sum   'Er6 Sb10 O24'
_cell_volume   609.65543954
_cell_formula_units_Z   2
loop_
 _symmetry_equiv_pos_site_id
 _symmetry_equiv_pos_as_xyz
  1  'x, y, z'
loop_
 _atom_site_type_symbol
 _atom_site_label
 _atom_site_symmetry_multiplicity
 _atom_site_fract_x
 _atom_site_fract_y
 _atom_site_fract_z
 _atom_site_occupancy
  Er  Er0  1  0.74997285  0.24999633  0.49997822  1
  Er  Er1  1  0.75000580  0.50001090  0.24999793  1
  Er  Er2  1  0.50000731  0.25000974  0.75001312  1
  Er  Er3  1  0.49997853  0.74998652  0.24999471  1
  Er  Er4  1  0.25000852  0.74997675  0.50000211  1
  Er  Er5  1  0.24997963  0.49995824  0.74997796  1
  Sb  Sb0  1  0.51833584  0.00001136  0.00000832  1
  Sb  Sb1  1  0.28163517  -0.00000668  0.28164756  1
  Sb  Sb2  1  0.28165479  0.28165157  0.00001720  1
  Sb  Sb3  1  0.71836457  0.00000863  0.71835551  1
  Sb  Sb4  1  0.71834625  0.71836348  0.00001145  1
  Sb  Sb5  1  0.00000639  0.51832658  0.00000055  1
  Sb  Sb6  1  0.00000184  -0.00000019  0.51832286  1
  Sb  Sb7  1  0.48167928  0.48166964  0.48166558  1
  Sb  Sb8  1  -0.00001306  0.28164163  0.28162303  1
  Sb  Sb9  1  0.00000677  0.71835223  0.71835536  1
  O  O0  1  0.47934846  0.00000404  0.20107895  1
  O  O1  1  0.47934967  0.20107485  0.00000051  1
  O  O2  1  0.70342918  0.50128681  -0.00000434  1
  O  O3  1  0.70341424  -0.00000327  0.50126475  1
  O  O4  1  0.79784521  0.29657964  0.29656946  1
  O  O5  1  0.49874872  0.49875212  0.20216069  1
  O  O6  1  0.49873405  0.20215676  0.49874560  1
  O  O7  1  0.50127303  0.70341451  -0.00000870  1
  O  O8  1  0.50128667  0.00000604  0.70342650  1
  O  O9  1  0.72171405  0.52064713  0.52065186  1
  O  O10  1  0.79892775  0.27827922  0.79893033  1
  O  O11  1  0.79894300  0.79893836  0.27828394  1
  O  O12  1  0.20106752  0.47934494  0.00000359  1
  O  O13  1  0.20106884  0.00000166  0.47935102  1
  O  O14  1  0.52064362  0.72172365  0.52064731  1
  O  O15  1  0.52064660  0.52064732  0.72173250  1
  O  O16  1  0.99999533  0.47934432  0.20106485  1
  O  O17  1  0.00000399  0.20106987  0.47934667  1
  O  O18  1  0.29657820  0.79785213  0.29658798  1
  O  O19  1  0.29657538  0.29657230  0.79784740  1
  O  O20  1  0.20215162  0.49872836  0.49873388  1
  O  O21  1  0.00000713  0.70342550  0.50127731  1
  O  O22  1  -0.00000497  0.50126852  0.70341377  1
  O  O23  1  0.27828123  0.79893251  0.79892573  1
loop_
_geom_bond_atom_site_label_1
_geom_bond_atom_site_label_2
_geom_bond_distance
_geom_bond_site_symmetry_2
Er0 O6 2.211801 1_555
Er0 O4 2.211974 1_555
Er0 O3 2.212038 1_555
Er0 O22 2.212116 1_655
Er0 O9 2.554518 1_555
Er0 O0 2.554524 1_555
Er0 O17 2.554842 1_655
Er0 O10 2.554865 1_555
Er1 O5 2.211863 1_555
Er1 O4 2.211962 1_555
Er1 O2 2.212041 1_555
Er1 O21 2.212045 1_655
Er1 O16 2.554598 1_555
Er1 O11 2.554609 1_555
Er1 O1 2.554771 1_555
Er1 O9 2.554820 1_555
Er2 O19 2.211897 1_555
Er2 O6 2.211951 1_555
Er2 O2 2.211978 1_556
Er2 O8 2.211998 1_555
Er2 O15 2.554571 1_555
Er2 O10 2.554606 1_555
Er2 O1 2.554632 1_556
Er2 O13 2.554821 1_555
Er3 O5 2.211790 1_555
Er3 O18 2.211848 1_555
Er3 O3 2.212076 1_565
Er3 O7 2.212127 1_555
Er3 O12 2.554607 1_555
Er3 O14 2.554633 1_555
Er3 O0 2.554697 1_565
Er3 O11 2.554885 1_555
Er4 O20 2.211749 1_555
Er4 O18 2.211983 1_555
Er4 O21 2.212000 1_555
Er4 O8 2.212151 1_565
Er4 O14 2.554388 1_555
Er4 O23 2.554632 1_555
Er4 O16 2.554751 1_455
Er4 O13 2.554918 1_565
Er5 O19 2.211759 1_555
Er5 O20 2.211942 1_555
Er5 O22 2.211958 1_555
Er5 O7 2.212203 1_556
Er5 O17 2.554459 1_555
Er5 O15 2.554569 1_555
Er5 O12 2.554753 1_556
Er5 O23 2.554966 1_555
O0 Sb0 2.009558 1_555
O0 Sb1 2.193306 1_555
O1 Sb0 2.009443 1_555
O1 Sb2 2.193214 1_555
O2 Sb4 1.966625 1_555
O3 Sb3 1.966728 1_555
O4 Sb8 1.966660 1_655
O5 Sb2 1.966835 1_555
O6 Sb1 1.966896 1_555
O7 Sb4 1.966480 1_555
O8 Sb3 1.966630 1_555
O9 Sb7 2.009307 1_555
O9 Sb9 2.193419 1_655
O10 Sb5 2.009536 1_656
O10 Sb3 2.193250 1_555
O11 Sb6 2.009442 1_665
O11 Sb4 2.193265 1_555
O12 Sb5 2.009362 1_555
O12 Sb2 2.193268 1_555
O13 Sb6 2.009382 1_555
O13 Sb1 2.193251 1_555
O14 Sb7 2.009541 1_555
O14 Sb3 2.193414 1_565
O15 Sb7 2.009709 1_555
O15 Sb4 2.193380 1_556
O16 Sb5 2.009490 1_655
O16 Sb8 2.193176 1_655
O17 Sb6 2.009447 1_555
O17 Sb8 2.193453 1_555
O18 Sb1 1.966668 1_565
O19 Sb2 1.966834 1_556
O20 Sb8 1.966903 1_555
O21 Sb9 1.966710 1_555
O22 Sb9 1.966638 1_555
O23 Sb0 2.009594 1_566
O23 Sb9 2.193246 1_555
