# generated using pymatgen
data_Hf2N2O
_symmetry_space_group_name_H-M   'P 1'
_cell_length_a   8.66334050
_cell_length_b   8.67221100
_cell_length_c   8.68045346
_cell_angle_alpha   109.41866271
_cell_angle_beta   109.47319463
_cell_angle_gamma   109.39964705
_symmetry_Int_Tables_number   1
_chemical_formula_structural   Hf2N2O
_chemical_formula_sum   'Hf16 N16 O8'
_cell_volume   502.79229184
_cell_formula_units_Z   8
loop_
 _symmetry_equiv_pos_site_id
 _symmetry_equiv_pos_as_xyz
  1  'x, y, z'
loop_
 _atom_site_type_symbol
 _atom_site_label
 _atom_site_symmetry_multiplicity
 _atom_site_fract_x
 _atom_site_fract_y
 _atom_site_fract_z
 _atom_site_occupancy
  Hf  Hf0  1  0.99849719  0.01172131  0.50838273  1
  Hf  Hf1  1  0.24440179  0.70611734  0.46252429  1
  Hf  Hf2  1  0.29329506  0.04250849  0.25616501  1
  Hf  Hf3  1  0.77611417  0.52726330  0.24783801  1
  Hf  Hf4  1  0.74401678  0.78589787  0.03636657  1
  Hf  Hf5  1  0.95738178  0.74138155  0.70857951  1
  Hf  Hf6  1  0.00220933  0.49036307  0.99238199  1
  Hf  Hf7  1  0.51034835  0.00407999  0.01138447  1
  Hf  Hf8  1  0.03400932  0.25775530  0.28480028  1
  Hf  Hf9  1  0.48804858  0.48253483  0.48989289  1
  Hf  Hf10  1  0.53255252  0.24997758  0.78599856  1
  Hf  Hf11  1  0.47200724  0.74963319  0.20848547  1
  Hf  Hf12  1  0.25045860  0.21838268  0.96207711  1
  Hf  Hf13  1  0.21430604  0.46465773  0.74857422  1
  Hf  Hf14  1  0.72421388  0.97459325  0.75533294  1
  Hf  Hf15  1  0.75227381  0.28769236  0.53730284  1
  N  N0  1  0.96350823  0.00445749  0.73679737  1
  N  N1  1  0.73001647  0.75979260  0.27236214  1
  N  N2  1  0.53555570  0.27094313  0.04231165  1
  N  N3  1  0.54073185  0.03211142  0.26886306  1
  N  N4  1  0.98784895  0.46173153  0.22954824  1
  N  N5  1  0.27054853  0.23555515  0.72356114  1
  N  N6  1  0.72931090  0.49650394  0.45789846  1
  N  N7  1  0.01295386  0.55176618  0.77914232  1
  N  N8  1  0.77233231  0.22791079  0.76609754  1
  N  N9  1  0.24006653  0.46773050  0.01670492  1
  N  N10  1  0.25986559  0.26646661  0.22654397  1
  N  N11  1  0.48620495  0.26104766  0.53338387  1
  N  N12  1  0.77433931  0.04232536  0.03048366  1
  N  N13  1  0.46882307  0.72855607  0.95383868  1
  N  N14  1  0.95221813  0.22427694  0.48411107  1
  N  N15  1  0.27714610  0.51903261  0.54719845  1
  O  O0  1  0.05683719  0.77802465  0.52160638  1
  O  O1  1  0.03626329  0.98025629  0.26132904  1
  O  O2  1  0.44863251  0.96370529  0.72231018  1
  O  O3  1  0.51138977  0.74665274  0.47071179  1
  O  O4  1  0.73706039  0.72258486  0.77293996  1
  O  O5  1  0.75787453  0.53562864  0.98005601  1
  O  O6  1  0.22852604  0.95272389  0.96318603  1
  O  O7  1  0.22781336  0.77565381  0.24293119  1
loop_
_geom_bond_atom_site_label_1
_geom_bond_atom_site_label_2
_geom_bond_distance
_geom_bond_site_symmetry_2
Hf0 N14 2.072648 1_555
Hf0 N5 2.103914 1_655
Hf0 N0 2.120896 1_555
Hf0 N1 2.202587 1_545
Hf0 O1 2.217783 1_645
Hf0 O0 2.274307 1_645
Hf1 N15 2.052484 1_555
Hf1 O0 2.075676 1_555
Hf1 N4 2.132008 1_455
Hf1 O2 2.137864 1_555
Hf1 O7 2.158018 1_555
Hf1 O3 2.193688 1_555
Hf2 N11 2.087483 1_555
Hf2 O1 2.129775 1_545
Hf2 N10 2.139685 1_555
Hf2 N3 2.143104 1_555
Hf2 O7 2.144360 1_545
Hf2 O6 2.197849 1_544
Hf3 N2 2.067335 1_555
Hf3 N6 2.074836 1_555
Hf3 N4 2.130642 1_555
Hf3 N1 2.139504 1_555
Hf3 O5 2.303962 1_554
Hf3 O0 2.342668 1_655
Hf4 N13 2.069111 1_554
Hf4 O5 2.114408 1_554
Hf4 O4 2.141313 1_554
Hf4 N12 2.171003 1_565
Hf4 N1 2.172168 1_555
Hf4 O1 2.178205 1_655
Hf5 N7 2.076054 1_655
Hf5 N6 2.102883 1_555
Hf5 O4 2.132309 1_555
Hf5 O0 2.137979 1_655
Hf5 O6 2.178696 1_655
Hf5 N0 2.192518 1_565
Hf6 N9 2.082184 1_556
Hf6 N8 2.100645 1_455
Hf6 N7 2.110886 1_555
Hf6 N4 2.192159 1_456
Hf6 O7 2.246529 1_556
Hf6 O5 2.252804 1_455
Hf7 N3 2.080316 1_555
Hf7 N12 2.138874 1_555
Hf7 N13 2.145623 1_544
Hf7 N2 2.165124 1_555
Hf7 O6 2.192512 1_544
Hf7 O2 2.258748 1_544
Hf8 N4 2.103623 1_455
Hf8 N12 2.139862 1_455
Hf8 N14 2.143446 1_455
Hf8 N10 2.162615 1_555
Hf8 N15 2.226620 1_555
Hf8 O1 2.353959 1_545
Hf9 N11 2.073161 1_555
Hf9 N10 2.079127 1_555
Hf9 N15 2.138097 1_555
Hf9 N6 2.168335 1_555
Hf9 O4 2.259637 1_555
Hf9 O3 2.298540 1_555
Hf10 N5 2.099434 1_555
Hf10 N11 2.134808 1_555
Hf10 O5 2.145979 1_555
Hf10 O2 2.148939 1_545
Hf10 N2 2.161771 1_556
Hf10 N8 2.205215 1_555
Hf11 N1 2.078889 1_555
Hf11 N9 2.141455 1_555
Hf11 N3 2.144662 1_565
Hf11 N13 2.146531 1_554
Hf11 O3 2.196712 1_555
Hf11 O7 2.304305 1_555
Hf12 N9 2.094014 1_556
Hf12 N10 2.160296 1_556
Hf12 N2 2.165020 1_556
Hf12 N0 2.174515 1_455
Hf12 N5 2.183391 1_555
Hf12 O6 2.251461 1_545
Hf13 N15 2.141589 1_555
Hf13 N13 2.142680 1_555
Hf13 N5 2.158431 1_555
Hf13 N7 2.175926 1_555
Hf13 N14 2.229214 1_455
Hf13 N9 2.253051 1_556
Hf14 N8 2.058570 1_565
Hf14 N0 2.069803 1_565
Hf14 N12 2.108169 1_566
Hf14 O3 2.169169 1_555
Hf14 O2 2.273100 1_555
Hf14 O4 2.276920 1_555
Hf15 N14 2.124464 1_555
Hf15 N3 2.172823 1_555
Hf15 N8 2.181222 1_555
Hf15 N6 2.184425 1_555
Hf15 N11 2.226308 1_555
Hf15 N7 2.226734 1_655
