# generated using pymatgen
data_Li5Mn2P2(CO7)2
_symmetry_space_group_name_H-M   'P 1'
_cell_length_a   6.48286700
_cell_length_b   8.52570878
_cell_length_c   10.08072939
_cell_angle_alpha   93.97466573
_cell_angle_beta   90.04720308
_cell_angle_gamma   90.37104677
_symmetry_Int_Tables_number   1
_chemical_formula_structural   Li5Mn2P2(CO7)2
_chemical_formula_sum   'Li10 Mn4 P4 C4 O28'
_cell_volume   555.82013725
_cell_formula_units_Z   2
loop_
 _symmetry_equiv_pos_site_id
 _symmetry_equiv_pos_as_xyz
  1  'x, y, z'
loop_
 _atom_site_type_symbol
 _atom_site_label
 _atom_site_symmetry_multiplicity
 _atom_site_fract_x
 _atom_site_fract_y
 _atom_site_fract_z
 _atom_site_occupancy
  Li  Li0  1  0.75159400  0.09112000  0.62119000  1
  Li  Li1  1  0.97205600  0.26304700  0.87925100  1
  Li  Li2  1  0.52813600  0.26427900  0.87881400  1
  Li  Li3  1  0.97131200  0.26689200  0.36686100  1
  Li  Li4  1  0.52782400  0.26449100  0.36752600  1
  Li  Li5  1  0.45686800  0.72591800  0.62475400  1
  Li  Li6  1  0.48429500  0.73656700  0.12588600  1
  Li  Li7  1  0.01837600  0.73682600  0.12761400  1
  Li  Li8  1  0.24514400  0.90119500  0.88154300  1
  Li  Li9  1  0.24189400  0.89981000  0.38691100  1
  Mn  Mn0  1  0.24737100  0.33954000  0.60539300  1
  Mn  Mn1  1  0.25151900  0.33942900  0.10491600  1
  Mn  Mn2  1  0.75278000  0.66613900  0.89123000  1
  Mn  Mn3  1  0.75370400  0.67011500  0.40414500  1
  P  P0  1  0.74385100  0.41240500  0.63605800  1
  P  P1  1  0.75128800  0.41819800  0.13651200  1
  P  P2  1  0.25563000  0.58394700  0.86147700  1
  P  P3  1  0.25204400  0.58598800  0.35615100  1
  C  C0  1  0.25686000  0.03845100  0.64922900  1
  C  C1  1  0.25061200  0.03737400  0.14592000  1
  C  C2  1  0.74499800  0.96084000  0.85743900  1
  C  C3  1  0.74642700  0.96472500  0.35810200  1
  O  O0  1  0.24766000  0.06888800  0.52497600  1
  O  O1  1  0.74734100  0.10457900  0.81982700  1
  O  O2  1  0.25041500  0.06803200  0.02274200  1
  O  O3  1  0.24003100  0.15870000  0.73913300  1
  O  O4  1  0.74999800  0.10542700  0.32469800  1
  O  O5  1  0.25099900  0.15613400  0.23684600  1
  O  O6  1  0.93299800  0.31641000  0.58174700  1
  O  O7  1  0.56226100  0.30232900  0.58621300  1
  O  O8  1  0.94091900  0.32492300  0.08211200  1
  O  O9  1  0.56154300  0.32477100  0.07981600  1
  O  O10  1  0.24847500  0.41646100  0.91266100  1
  O  O11  1  0.74884000  0.43082400  0.79088200  1
  O  O12  1  0.24920500  0.41938800  0.40828300  1
  O  O13  1  0.74916900  0.43184300  0.29158300  1
  O  O14  1  0.27395400  0.56384600  0.70892700  1
  O  O15  1  0.72745300  0.57666300  0.58276400  1
  O  O16  1  0.26426400  0.56912600  0.20149500  1
  O  O17  1  0.75485000  0.58861500  0.08800100  1
  O  O18  1  0.06838900  0.68619200  0.91065000  1
  O  O19  1  0.43821900  0.68619700  0.92108900  1
  O  O20  1  0.43552000  0.68936100  0.41306300  1
  O  O21  1  0.06399900  0.68833600  0.39827700  1
  O  O22  1  0.73103100  0.84583300  0.76332600  1
  O  O23  1  0.28286400  0.90109100  0.68844000  1
  O  O24  1  0.74896200  0.84337300  0.26805200  1
  O  O25  1  0.75814600  0.92561300  0.97742400  1
  O  O26  1  0.25040600  0.89534500  0.18406900  1
  O  O27  1  0.74132500  0.92818300  0.48082300  1
loop_
_geom_bond_atom_site_label_1
_geom_bond_atom_site_label_2
_geom_bond_distance
_geom_bond_site_symmetry_2
Li0 O27 1.913781 1_545
Li0 O1 1.997958 1_555
Li0 O7 2.233688 1_555
Li0 O6 2.303869 1_555
Li1 O1 2.041401 1_555
Li1 O8 2.086508 1_556
Li1 O10 2.223285 1_655
Li1 O11 2.266062 1_555
Li1 O3 2.377911 1_655
Li2 O1 2.034968 1_555
Li2 O9 2.066767 1_556
Li2 O11 2.235918 1_555
Li2 O10 2.248760 1_555
Li2 O3 2.465686 1_555
Li3 O4 2.006613 1_555
Li3 O13 2.190878 1_555
Li3 O6 2.192680 1_555
Li3 O12 2.236836 1_655
Li3 O5 2.398248 1_655
Li4 O4 2.011265 1_555
Li4 O13 2.192630 1_555
Li4 O7 2.216642 1_555
Li4 O12 2.265446 1_555
Li4 O5 2.369690 1_555
Li5 O23 1.950694 1_555
Li5 O14 2.044119 1_555
Li5 O20 2.139392 1_555
Li5 O15 2.197955 1_555
Li5 O22 2.435154 1_555
Li6 O26 2.096083 1_555
Li6 O19 2.100055 1_554
Li6 O17 2.185490 1_555
Li6 O16 2.186278 1_555
Li6 O24 2.371042 1_555
Li7 O26 2.068504 1_555
Li7 O17 2.139104 1_455
Li7 O18 2.224234 1_554
Li7 O16 2.305453 1_555
Li7 O24 2.392967 1_455
Li8 O2 1.941404 1_566
Li8 O23 1.962058 1_555
Li8 O18 2.192517 1_555
Li8 O19 2.283801 1_555
Li9 O0 1.933268 1_565
Li9 O26 2.043307 1_555
Li9 O21 2.143775 1_555
Li9 O20 2.226793 1_555
Mn0 O6 2.058345 1_455
Mn0 O7 2.075052 1_555
Mn0 O3 2.117624 1_555
Mn0 O14 2.120116 1_555
Mn0 O12 2.144587 1_555
Mn0 O0 2.392168 1_555
Mn1 O8 2.028475 1_455
Mn1 O9 2.029488 1_555
Mn1 O10 2.089112 1_554
Mn1 O5 2.121069 1_555
Mn1 O16 2.126784 1_555
Mn1 O2 2.402961 1_555
Mn2 O18 2.060109 1_655
Mn2 O19 2.068044 1_555
Mn2 O22 2.075034 1_555
Mn2 O17 2.133894 1_556
Mn2 O11 2.183310 1_555
Mn2 O25 2.320022 1_555
Mn3 O21 2.017819 1_655
Mn3 O15 2.025732 1_555
Mn3 O20 2.071851 1_555
Mn3 O24 2.084831 1_555
Mn3 O13 2.257162 1_555
Mn3 O27 2.282866 1_555
C0 O23 1.273867 1_545
C0 O0 1.298053 1_555
C0 O3 1.325569 1_555
C1 O2 1.286544 1_555
C1 O26 1.295649 1_545
C1 O5 1.317820 1_555
C2 O25 1.269238 1_555
C2 O1 1.307657 1_565
C2 O22 1.318879 1_555
C3 O4 1.268299 1_565
C3 O27 1.296911 1_555
C3 O24 1.328451 1_555
O6 P0 1.557292 1_555
O7 P0 1.561543 1_555
O8 P1 1.548469 1_555
O9 P1 1.548316 1_555
O10 P2 1.552000 1_555
O11 P0 1.558039 1_555
O12 P3 1.548278 1_555
O13 P1 1.559568 1_555
O14 P2 1.540255 1_555
O15 P0 1.538580 1_555
O16 P3 1.557833 1_555
O17 P1 1.564850 1_555
O18 P2 1.560078 1_555
O19 P2 1.560468 1_555
O20 P3 1.560731 1_555
O21 P3 1.546332 1_555
