# generated using pymatgen
data_Yb2TeO2
_symmetry_space_group_name_H-M   'P 1'
_cell_length_a   3.72653254
_cell_length_b   3.72653254
_cell_length_c   8.55413400
_cell_angle_alpha   90.00000000
_cell_angle_beta   90.00000000
_cell_angle_gamma   120.00000953
_symmetry_Int_Tables_number   1
_chemical_formula_structural   Yb2TeO2
_chemical_formula_sum   'Yb2 Te1 O2'
_cell_volume   102.87656954
_cell_formula_units_Z   1
loop_
 _symmetry_equiv_pos_site_id
 _symmetry_equiv_pos_as_xyz
  1  'x, y, z'
loop_
 _atom_site_type_symbol
 _atom_site_label
 _atom_site_symmetry_multiplicity
 _atom_site_fract_x
 _atom_site_fract_y
 _atom_site_fract_z
 _atom_site_occupancy
  Yb  Yb0  1  0.33333300  0.66666700  0.34825700  1
  Yb  Yb1  1  0.66666700  0.33333300  0.65174300  1
  Te  Te0  1  0.00000000  0.00000000  0.00000000  1
  O  O0  1  0.33333300  0.66666700  0.61348700  1
  O  O1  1  0.66666700  0.33333300  0.38651300  1
loop_
_geom_bond_atom_site_label_1
_geom_bond_atom_site_label_2
_geom_bond_distance
_geom_bond_site_symmetry_2
Te0 Yb0 3.674734 1_545
Te0 Yb1 3.674734 1_454
Te0 Yb0 3.674735 1_555
Te0 Yb0 3.674735 1_445
Te0 Yb1 3.674735 1_554
Te0 Yb1 3.674735 1_444
O0 Yb1 2.176257 1_455
O0 Yb1 2.176257 1_565
O0 Yb1 2.176264 1_555
O0 Yb0 2.268813 1_555
O1 Yb0 2.176257 1_545
O1 Yb0 2.176257 1_655
O1 Yb0 2.176264 1_555
O1 Yb1 2.268813 1_555
