# generated using pymatgen
data_Na8Fe5O14
_symmetry_space_group_name_H-M   'P 1'
_cell_length_a   8.40779500
_cell_length_b   8.64457587
_cell_length_c   10.57407939
_cell_angle_alpha   103.94215659
_cell_angle_beta   102.39367878
_cell_angle_gamma   112.83971547
_symmetry_Int_Tables_number   1
_chemical_formula_structural   Na8Fe5O14
_chemical_formula_sum   'Na16 Fe10 O28'
_cell_volume   645.33519719
_cell_formula_units_Z   2
loop_
 _symmetry_equiv_pos_site_id
 _symmetry_equiv_pos_as_xyz
  1  'x, y, z'
loop_
 _atom_site_type_symbol
 _atom_site_label
 _atom_site_symmetry_multiplicity
 _atom_site_fract_x
 _atom_site_fract_y
 _atom_site_fract_z
 _atom_site_occupancy
  Na  Na0  1  0.44742100  0.67282500  0.01613900  1
  Na  Na1  1  0.00000000  0.00000000  0.00000000  1
  Na  Na2  1  0.17711500  0.66404200  0.17347300  1
  Na  Na3  1  0.30364200  0.37354800  0.16565300  1
  Na  Na4  1  0.37285000  0.01231000  0.10747700  1
  Na  Na5  1  0.71212800  0.41830100  0.29472500  1
  Na  Na6  1  0.10906100  0.47659500  0.38199300  1
  Na  Na7  1  0.56246100  0.12664300  0.43520000  1
  Na  Na8  1  0.50000000  0.50000000  0.50000000  1
  Na  Na9  1  0.43753900  0.87335700  0.56480000  1
  Na  Na10  1  0.89093900  0.52340500  0.61800700  1
  Na  Na11  1  0.28787200  0.58169900  0.70527500  1
  Na  Na12  1  0.62715000  0.98769000  0.89252300  1
  Na  Na13  1  0.69635800  0.62645200  0.83434700  1
  Na  Na14  1  0.82288500  0.33595800  0.82652700  1
  Na  Na15  1  0.55257900  0.32717500  0.98386100  1
  Fe  Fe0  1  0.85848700  0.73028200  0.16120000  1
  Fe  Fe1  1  0.78561100  0.07056000  0.21704400  1
  Fe  Fe2  1  0.62773400  0.77592400  0.34873200  1
  Fe  Fe3  1  0.17898700  0.11047100  0.33262200  1
  Fe  Fe4  1  0.03626500  0.82799100  0.47114800  1
  Fe  Fe5  1  0.96373500  0.17200900  0.52885200  1
  Fe  Fe6  1  0.82101300  0.88952900  0.66737800  1
  Fe  Fe7  1  0.37226600  0.22407600  0.65126800  1
  Fe  Fe8  1  0.21438900  0.92944000  0.78295600  1
  Fe  Fe9  1  0.14151300  0.26971800  0.83880000  1
  O  O0  1  0.83005200  0.55845800  0.01255100  1
  O  O1  1  0.75367400  0.85624000  0.06493500  1
  O  O2  1  0.62737600  0.60312000  0.18835500  1
  O  O3  1  0.56356200  0.91186400  0.24108600  1
  O  O4  1  0.68233300  0.17105000  0.11767100  1
  O  O5  1  0.10327800  0.89819700  0.17607800  1
  O  O6  1  0.97627900  0.65150300  0.29758900  1
  O  O7  1  0.92104400  0.95476200  0.34942600  1
  O  O8  1  0.39812600  0.64353100  0.35163800  1
  O  O9  1  0.04125700  0.19800900  0.22701300  1
  O  O10  1  0.39370800  0.23390400  0.30827000  1
  O  O11  1  0.72513800  0.98527300  0.53057600  1
  O  O12  1  0.78097800  0.70561600  0.48539100  1
  O  O13  1  0.84989800  0.25942100  0.40627600  1
  O  O14  1  0.15010200  0.74057900  0.59372400  1
  O  O15  1  0.21902200  0.29438400  0.51460900  1
  O  O16  1  0.27486200  0.01472700  0.46942400  1
  O  O17  1  0.60629200  0.76609600  0.69173000  1
  O  O18  1  0.95874300  0.80199100  0.77298700  1
  O  O19  1  0.60187400  0.35646900  0.64836200  1
  O  O20  1  0.07895600  0.04523800  0.65057400  1
  O  O21  1  0.02372100  0.34849700  0.70241100  1
  O  O22  1  0.89672200  0.10180300  0.82392200  1
  O  O23  1  0.31766700  0.82895000  0.88232900  1
  O  O24  1  0.43643800  0.08813600  0.75891400  1
  O  O25  1  0.37262400  0.39688000  0.81164500  1
  O  O26  1  0.24632600  0.14376000  0.93506500  1
  O  O27  1  0.16994800  0.44154200  0.98744900  1
loop_
_geom_bond_atom_site_label_1
_geom_bond_atom_site_label_2
_geom_bond_distance
_geom_bond_site_symmetry_2
Na0 O1 2.297049 1_555
Na0 O27 2.305416 1_554
Na0 O3 2.439115 1_555
Na0 O2 2.454036 1_555
Na0 O23 2.532648 1_554
Na0 O25 2.554907 1_554
Na1 O26 2.308399 1_554
Na1 O1 2.308399 1_445
Na1 O5 2.384083 1_545
Na1 O22 2.384083 1_454
Na1 O18 2.452360 1_444
Na1 O9 2.452360 1_555
Na2 O5 2.332257 1_555
Na2 O6 2.337359 1_455
Na2 O27 2.368197 1_554
Na2 O8 2.438776 1_555
Na2 O0 2.701118 1_455
Na2 O3 2.918706 1_555
Na3 O27 2.301562 1_554
Na3 O10 2.324129 1_555
Na3 O8 2.371494 1_555
Na3 O9 2.465869 1_555
Na3 O26 2.557679 1_554
Na3 O2 2.588687 1_555
Na4 O23 2.352039 1_544
Na4 O4 2.387847 1_555
Na4 O10 2.414059 1_555
Na4 O5 2.439513 1_545
Na4 O3 2.453701 1_545
Na4 O26 2.617401 1_554
Na5 O6 2.337393 1_555
Na5 O4 2.364517 1_555
Na5 O2 2.393986 1_555
Na5 O13 2.459407 1_555
Na5 O12 2.557055 1_555
Na5 O10 2.586615 1_555
Na6 O9 2.332734 1_555
Na6 O13 2.373862 1_455
Na6 O6 2.421169 1_455
Na6 O8 2.434689 1_555
Na6 O14 2.633303 1_555
Na6 O15 2.634505 1_555
Na7 O10 2.340477 1_555
Na7 O13 2.363160 1_555
Na7 O16 2.375347 1_555
Na7 O11 2.383433 1_545
Na7 O3 2.417736 1_545
Na7 O19 2.479479 1_555
Na8 O17 2.362058 1_555
Na8 O10 2.362058 1_555
Na8 O12 2.406943 1_555
Na8 O15 2.406943 1_555
Na8 O8 2.433202 1_555
Na8 O19 2.433202 1_555
Na9 O17 2.340477 1_555
Na9 O14 2.363160 1_555
Na9 O11 2.375347 1_555
Na9 O16 2.383433 1_565
Na9 O24 2.417736 1_565
Na9 O8 2.479479 1_555
Na10 O18 2.332734 1_555
Na10 O14 2.373862 1_655
Na10 O21 2.421169 1_655
Na10 O19 2.434689 1_555
Na10 O13 2.633303 1_555
Na10 O12 2.634505 1_555
Na11 O21 2.337393 1_555
Na11 O23 2.364517 1_555
Na11 O25 2.393986 1_555
Na11 O14 2.459407 1_555
Na11 O15 2.557055 1_555
Na11 O17 2.586615 1_555
Na12 O4 2.352039 1_566
Na12 O23 2.387847 1_555
Na12 O17 2.414059 1_555
Na12 O22 2.439513 1_565
Na12 O24 2.453701 1_565
Na12 O1 2.617401 1_556
Na13 O0 2.301562 1_556
Na13 O17 2.324129 1_555
Na13 O19 2.371494 1_555
Na13 O18 2.465869 1_555
Na13 O1 2.557679 1_556
Na13 O25 2.588687 1_555
Na14 O22 2.332257 1_555
Na14 O21 2.337359 1_655
Na14 O0 2.368197 1_556
Na14 O19 2.438776 1_555
Na14 O27 2.701118 1_655
Na14 O24 2.918706 1_555
Na15 O26 2.297049 1_555
Na15 O0 2.305416 1_556
Na15 O24 2.439115 1_555
Na15 O25 2.454036 1_555
Na15 O4 2.532648 1_556
Na15 O2 2.554907 1_556
Fe0 O0 1.781013 1_555
Fe0 O5 1.949226 1_655
Fe0 O2 1.949357 1_555
Fe0 O1 1.972890 1_555
Fe0 O6 1.976936 1_555
Fe0 O7 2.213775 1_555
Fe1 O4 1.801822 1_555
Fe1 O3 1.953363 1_545
Fe1 O9 1.962994 1_655
Fe1 O1 2.020901 1_545
Fe1 O13 2.058615 1_555
Fe1 O7 2.265849 1_545
Fe2 O8 1.834345 1_555
Fe2 O3 1.959813 1_555
Fe2 O2 1.970011 1_555
Fe2 O11 2.034632 1_555
Fe2 O12 2.085563 1_555
Fe2 O7 2.344947 1_555
Fe3 O10 1.816752 1_555
Fe3 O5 1.920863 1_545
Fe3 O9 1.921736 1_555
Fe3 O16 2.005415 1_555
Fe3 O15 2.043588 1_555
Fe3 O7 2.135711 1_445
Fe4 O6 1.898991 1_455
Fe4 O14 1.915181 1_555
Fe4 O16 2.036278 1_565
Fe4 O12 2.049793 1_455
Fe4 O20 2.173189 1_565
Fe4 O7 2.182818 1_455
Fe5 O21 1.898991 1_655
Fe5 O13 1.915181 1_555
Fe5 O11 2.036278 1_545
Fe5 O15 2.049793 1_655
Fe5 O7 2.173189 1_545
Fe5 O20 2.182818 1_655
Fe6 O17 1.816752 1_555
Fe6 O22 1.920863 1_565
Fe6 O18 1.921736 1_555
Fe6 O11 2.005415 1_555
Fe6 O12 2.043588 1_555
Fe6 O20 2.135711 1_665
Fe7 O19 1.834345 1_555
Fe7 O24 1.959813 1_555
Fe7 O25 1.970011 1_555
Fe7 O16 2.034632 1_555
Fe7 O15 2.085563 1_555
Fe7 O20 2.344947 1_555
Fe8 O23 1.801822 1_555
Fe8 O24 1.953363 1_565
Fe8 O18 1.962994 1_455
Fe8 O26 2.020901 1_565
Fe8 O14 2.058615 1_555
Fe8 O20 2.265849 1_565
Fe9 O27 1.781013 1_555
Fe9 O22 1.949226 1_455
Fe9 O25 1.949357 1_555
Fe9 O26 1.972890 1_555
Fe9 O21 1.976936 1_555
Fe9 O20 2.213775 1_555
