# generated using pymatgen
data_SmAlO3
_symmetry_space_group_name_H-M   'P 1'
_cell_length_a   5.28319658
_cell_length_b   5.28134610
_cell_length_c   7.46953229
_cell_angle_alpha   90.00000000
_cell_angle_beta   90.00000000
_cell_angle_gamma   90.00000000
_symmetry_Int_Tables_number   1
_chemical_formula_structural   SmAlO3
_chemical_formula_sum   'Sm4 Al4 O12'
_cell_volume   208.41780048
_cell_formula_units_Z   4
loop_
 _symmetry_equiv_pos_site_id
 _symmetry_equiv_pos_as_xyz
  1  'x, y, z'
loop_
 _atom_site_type_symbol
 _atom_site_label
 _atom_site_symmetry_multiplicity
 _atom_site_fract_x
 _atom_site_fract_y
 _atom_site_fract_z
 _atom_site_occupancy
  Sm  Sm0  1  0.02798575  0.99315833  0.25000000  1
  Sm  Sm1  1  0.52798575  0.50684167  0.25000000  1
  Sm  Sm2  1  0.47201425  0.49315833  0.75000000  1
  Sm  Sm3  1  0.97201425  0.00684167  0.75000000  1
  Al  Al0  1  0.50000000  -0.00000000  0.50000000  1
  Al  Al1  1  0.00000000  0.50000000  -0.00000000  1
  Al  Al2  1  0.00000000  0.50000000  0.50000000  1
  Al  Al3  1  0.50000000  -0.00000000  -0.00000000  1
  O  O0  1  0.72285376  0.27649877  0.53538446  1
  O  O1  1  0.22285376  0.22350123  0.96461554  1
  O  O2  1  0.77714624  0.77649877  0.46461554  1
  O  O3  1  0.27714624  0.72350123  0.03538446  1
  O  O4  1  0.27714624  0.72350123  0.46461554  1
  O  O5  1  0.77714624  0.77649877  0.03538446  1
  O  O6  1  0.22285376  0.22350123  0.53538446  1
  O  O7  1  0.72285376  0.27649877  0.96461554  1
  O  O8  1  0.50965804  0.93369116  0.75000000  1
  O  O9  1  0.00965804  0.56630884  0.75000000  1
  O  O10  1  0.99034196  0.43369116  0.25000000  1
  O  O11  1  0.49034196  0.06630884  0.25000000  1
loop_
_geom_bond_atom_site_label_1
_geom_bond_atom_site_label_2
_geom_bond_distance
_geom_bond_site_symmetry_2
Al0 O4 1.894338 1_545
Al0 O0 1.894338 1_555
Al0 O6 1.899238 1_555
Al0 O2 1.899238 1_545
Al0 O8 1.900622 1_545
Al0 O11 1.900622 1_555
Al1 O1 1.894338 1_554
Al1 O5 1.894338 1_455
Al1 O7 1.899238 1_454
Al1 O3 1.899238 1_555
Al1 O9 1.900622 1_554
Al1 O10 1.900622 1_455
Al2 O2 1.894338 1_455
Al2 O6 1.894338 1_555
Al2 O0 1.899238 1_455
Al2 O4 1.899238 1_555
Al2 O10 1.900622 1_455
Al2 O9 1.900622 1_555
Al3 O7 1.894338 1_554
Al3 O3 1.894338 1_545
Al3 O5 1.899238 1_545
Al3 O1 1.899238 1_554
Al3 O11 1.900622 1_555
Al3 O8 1.900622 1_544
O0 Sm2 2.373904 1_555
O0 Sm3 2.516124 1_555
O0 Sm1 2.661568 1_555
O0 Sm0 3.063028 1_645
O1 Sm3 2.373904 1_455
O1 Sm2 2.516124 1_555
O1 Sm0 2.661568 1_546
O1 Sm1 3.063028 1_556
O2 Sm0 2.373904 1_655
O2 Sm1 2.516124 1_555
O2 Sm3 2.661568 1_565
O2 Sm2 3.063028 1_555
O3 Sm1 2.373904 1_555
O3 Sm0 2.516124 1_555
O3 Sm2 2.661568 1_554
O3 Sm3 3.063028 1_464
O4 Sm1 2.373904 1_555
O4 Sm0 2.516124 1_555
O4 Sm2 2.661568 1_555
O4 Sm3 3.063028 1_465
O5 Sm0 2.373904 1_655
O5 Sm1 2.516124 1_555
O5 Sm3 2.661568 1_564
O5 Sm2 3.063028 1_554
O6 Sm3 2.373904 1_455
O6 Sm2 2.516124 1_555
O6 Sm0 2.661568 1_545
O6 Sm1 3.063028 1_555
O7 Sm2 2.373904 1_555
O7 Sm3 2.516124 1_555
O7 Sm1 2.661568 1_556
O7 Sm0 3.063028 1_646
O8 Sm2 2.335091 1_555
O8 Sm3 2.473081 1_565
O8 Sm3 2.866630 1_465
O8 Sm2 2.961425 1_565
O9 Sm3 2.335091 1_465
O9 Sm2 2.473081 1_555
O9 Sm2 2.866630 1_455
O9 Sm3 2.961425 1_455
O10 Sm0 2.335091 1_645
O10 Sm1 2.473081 1_555
O10 Sm1 2.866630 1_655
O10 Sm0 2.961425 1_655
O11 Sm1 2.335091 1_555
O11 Sm0 2.473081 1_545
O11 Sm0 2.866630 1_645
O11 Sm1 2.961425 1_545
