# generated using pymatgen
data_LiNbCrO4
_symmetry_space_group_name_H-M   'P 1'
_cell_length_a   6.14241892
_cell_length_b   6.15107280
_cell_length_c   10.39078734
_cell_angle_alpha   87.87970267
_cell_angle_beta   105.11359365
_cell_angle_gamma   60.18955628
_symmetry_Int_Tables_number   1
_chemical_formula_structural   LiNbCrO4
_chemical_formula_sum   'Li4 Nb4 Cr4 O16'
_cell_volume   322.28653270
_cell_formula_units_Z   4
loop_
 _symmetry_equiv_pos_site_id
 _symmetry_equiv_pos_as_xyz
  1  'x, y, z'
loop_
 _atom_site_type_symbol
 _atom_site_label
 _atom_site_symmetry_multiplicity
 _atom_site_fract_x
 _atom_site_fract_y
 _atom_site_fract_z
 _atom_site_occupancy
  Li  Li0  1  0.12075300  0.93555600  0.18540700  1
  Li  Li1  1  0.12078400  0.43554800  0.68541200  1
  Li  Li2  1  0.87911900  0.56444800  0.31460000  1
  Li  Li3  1  0.87908900  0.06442100  0.81456500  1
  Nb  Nb0  1  0.49996700  0.99997100  0.49996300  1
  Nb  Nb1  1  0.50005200  0.50014400  0.99999500  1
  Nb  Nb2  1  0.49990700  0.74987200  0.75011100  1
  Nb  Nb3  1  0.49992000  0.25000600  0.24998300  1
  Cr  Cr0  1  0.00019200  0.50007700  0.99986100  1
  Cr  Cr1  1  0.50014300  0.49996400  0.50019900  1
  Cr  Cr2  1  0.00041700  0.99963300  0.50010500  1
  Cr  Cr3  1  0.49986400  0.99989700  0.99983400  1
  O  O0  1  0.26873600  0.87348200  0.39539700  1
  O  O1  1  0.26897300  0.37367800  0.89547600  1
  O  O2  1  0.26866700  0.64572400  0.62396500  1
  O  O3  1  0.26865800  0.14579000  0.12396600  1
  O  O4  1  0.73119700  0.85433100  0.87598600  1
  O  O5  1  0.73134100  0.35431200  0.37600200  1
  O  O6  1  0.73121000  0.62662600  0.10456000  1
  O  O7  1  0.73107800  0.12645100  0.60450800  1
  O  O8  1  0.23874900  0.10734200  0.61513900  1
  O  O9  1  0.23874600  0.60742100  0.11516600  1
  O  O10  1  0.72240800  0.62375100  0.61508900  1
  O  O11  1  0.72259500  0.12367500  0.11512200  1
  O  O12  1  0.76137600  0.39249600  0.88486500  1
  O  O13  1  0.76119700  0.89253700  0.38480900  1
  O  O14  1  0.27746500  0.87647000  0.88499100  1
  O  O15  1  0.27739600  0.37637700  0.38492200  1
loop_
_geom_bond_atom_site_label_1
_geom_bond_atom_site_label_2
_geom_bond_distance
_geom_bond_site_symmetry_2
Li0 O11 2.011442 1_465
Li0 O9 2.015498 1_555
Li0 O0 2.071715 1_555
Li0 O3 2.077179 1_565
Li1 O10 2.012548 1_455
Li1 O8 2.016035 1_555
Li1 O1 2.072616 1_555
Li1 O2 2.076797 1_555
Li2 O15 2.012075 1_655
Li2 O13 2.015117 1_555
Li2 O6 2.072120 1_555
Li2 O5 2.075873 1_555
Li3 O14 2.012642 1_645
Li3 O12 2.015568 1_555
Li3 O7 2.072396 1_555
Li3 O4 2.076297 1_545
Nb0 O7 2.038871 1_565
Nb0 O0 2.039543 1_555
Nb0 O13 2.109151 1_555
Nb0 O8 2.109291 1_565
Nb0 O10 2.110038 1_555
Nb0 O15 2.110549 1_565
Nb1 O1 2.038561 1_555
Nb1 O6 2.039172 1_556
Nb1 O12 2.109335 1_555
Nb1 O9 2.109683 1_556
Nb1 O14 2.110036 1_555
Nb1 O11 2.111168 1_556
Nb2 O2 2.035172 1_555
Nb2 O4 2.035364 1_555
Nb2 O14 2.111619 1_555
Nb2 O12 2.112243 1_555
Nb2 O10 2.112891 1_555
Nb2 O8 2.113446 1_565
Nb3 O3 2.034917 1_555
Nb3 O5 2.035978 1_555
Nb3 O11 2.112248 1_555
Nb3 O15 2.112359 1_555
Nb3 O9 2.112549 1_555
Nb3 O13 2.112845 1_545
Cr0 O9 2.030653 1_556
Cr0 O12 2.031531 1_455
Cr0 O1 2.055864 1_555
Cr0 O4 2.058817 1_455
Cr0 O6 2.059242 1_456
Cr0 O3 2.059483 1_556
Cr1 O10 2.029713 1_555
Cr1 O15 2.032621 1_555
Cr1 O7 2.058909 1_555
Cr1 O0 2.060494 1_555
Cr1 O2 2.061712 1_555
Cr1 O5 2.064223 1_555
Cr2 O8 2.030080 1_565
Cr2 O13 2.032524 1_455
Cr2 O0 2.056253 1_555
Cr2 O2 2.056892 1_555
Cr2 O7 2.058580 1_465
Cr2 O5 2.061430 1_465
Cr3 O14 2.028467 1_555
Cr3 O11 2.033459 1_566
Cr3 O6 2.059109 1_556
Cr3 O1 2.060308 1_565
Cr3 O4 2.061714 1_555
Cr3 O3 2.063871 1_566
