# generated using pymatgen
data_Li4Ni3(OF3)2
_symmetry_space_group_name_H-M   'P 1'
_cell_length_a   5.13312772
_cell_length_b   11.39805759
_cell_length_c   5.15717050
_cell_angle_alpha   94.05711141
_cell_angle_beta   79.97367152
_cell_angle_gamma   98.43890707
_symmetry_Int_Tables_number   1
_chemical_formula_structural   Li4Ni3(OF3)2
_chemical_formula_sum   'Li8 Ni6 O4 F12'
_cell_volume   293.59235663
_cell_formula_units_Z   2
loop_
 _symmetry_equiv_pos_site_id
 _symmetry_equiv_pos_as_xyz
  1  'x, y, z'
loop_
 _atom_site_type_symbol
 _atom_site_label
 _atom_site_symmetry_multiplicity
 _atom_site_fract_x
 _atom_site_fract_y
 _atom_site_fract_z
 _atom_site_occupancy
  Li  Li0  1  0.01605900  0.00132000  0.01991800  1
  Li  Li1  1  0.51605600  0.50130400  0.01993900  1
  Li  Li2  1  0.10895300  0.12368400  0.48005500  1
  Li  Li3  1  0.60895300  0.62370000  0.48003900  1
  Li  Li4  1  0.25755000  0.24431300  0.98750600  1
  Li  Li5  1  0.75751600  0.74435800  0.98749800  1
  Li  Li6  1  0.36750400  0.38063600  0.51246700  1
  Li  Li7  1  0.86746900  0.88068400  0.51246900  1
  Ni  Ni0  1  0.06257700  0.56257800  0.74997200  1
  Ni  Ni1  1  0.17956500  0.68192800  0.24882800  1
  Ni  Ni2  1  0.94540000  0.44302700  0.25116100  1
  Ni  Ni3  1  0.56259100  0.06258500  0.75000400  1
  Ni  Ni4  1  0.67980800  0.18206700  0.24900100  1
  Ni  Ni5  1  0.44516000  0.94287600  0.25100600  1
  O  O0  1  0.36155300  0.09152300  0.11001400  1
  O  O1  1  0.86151000  0.59149300  0.10996700  1
  O  O2  1  0.76344900  0.03344600  0.38996500  1
  O  O3  1  0.26349500  0.53347800  0.38999600  1
  F  F0  1  0.91037000  0.15059300  0.88069600  1
  F  F1  1  0.41029300  0.65058900  0.88070400  1
  F  F2  1  0.71468200  0.47441400  0.61928200  1
  F  F3  1  0.21460200  0.97443300  0.61930400  1
  F  F4  1  0.44113000  0.21638400  0.61479200  1
  F  F5  1  0.94117100  0.71635300  0.61477500  1
  F  F6  1  0.18377300  0.40863400  0.88537600  1
  F  F7  1  0.68380700  0.90862300  0.88533300  1
  F  F8  1  0.59385400  0.34454700  0.15471200  1
  F  F9  1  0.09379900  0.84451700  0.15472300  1
  F  F10  1  0.03120900  0.28048400  0.34525500  1
  F  F11  1  0.53114200  0.78042900  0.34524500  1
loop_
_geom_bond_atom_site_label_1
_geom_bond_atom_site_label_2
_geom_bond_distance
_geom_bond_site_symmetry_2
Li0 O0 2.025411 1_555
Li0 O2 2.153198 1_455
Li1 O1 2.025059 1_555
Li1 O3 2.153226 1_555
Li2 O2 2.025589 1_455
Li2 O0 2.153228 1_555
Li3 O3 2.025240 1_555
Li3 O1 2.153350 1_555
Li4 O0 2.064714 1_556
Li5 O1 2.065383 1_556
Li6 O3 2.065184 1_555
Li7 O2 2.064455 1_565
Ni0 O3 1.991658 1_555
Ni0 O1 1.991658 1_456
Ni1 O1 2.012339 1_455
Ni1 O3 2.018940 1_555
Ni2 O3 2.012508 1_655
Ni2 O1 2.019083 1_555
Ni3 O0 1.991712 1_556
Ni3 O2 1.991889 1_555
Ni4 O0 2.013915 1_555
Ni4 O2 2.019613 1_555
Ni5 O2 2.014097 1_565
Ni5 O0 2.019875 1_565
F0 Li0 2.069804 1_656
F0 Li4 2.078527 1_655
F0 Ni4 2.093465 1_556
F0 Ni3 2.108348 1_555
F0 Li2 2.161238 1_655
F1 Li1 2.070123 1_556
F1 Li5 2.078885 1_555
F1 Ni1 2.092798 1_556
F1 Ni0 2.108180 1_555
F1 Li3 2.161441 1_555
F2 Li3 2.070074 1_555
F2 Li6 2.078772 1_555
F2 Ni2 2.092868 1_555
F2 Ni0 2.109425 1_655
F2 Li1 2.161350 1_556
F3 Li2 2.069553 1_565
F3 Li7 2.078498 1_455
F3 Ni5 2.093608 1_555
F3 Ni3 2.109804 1_565
F3 Li0 2.161015 1_566
F4 Li4 2.013644 1_555
F4 Li2 2.070386 1_555
F4 Li6 2.084030 1_555
F4 Ni4 2.108123 1_555
F4 Ni3 2.143165 1_555
F5 Li5 2.013947 1_555
F5 Li3 2.070358 1_555
F5 Li7 2.084984 1_555
F5 Ni1 2.108348 1_655
F5 Ni0 2.142757 1_655
F6 Li6 2.014888 1_555
F6 Li1 2.070303 1_556
F6 Li4 2.084698 1_555
F6 Ni2 2.107571 1_456
F6 Ni0 2.144419 1_555
F7 Li7 2.014466 1_555
F7 Li0 2.070337 1_666
F7 Li5 2.084034 1_555
F7 Ni5 2.107425 1_556
F7 Ni3 2.144481 1_565
F8 Li6 2.051748 1_555
F8 Ni4 2.074325 1_555
F8 Li1 2.077680 1_555
F8 Ni2 2.098266 1_555
F8 Li4 2.197490 1_554
F9 Li7 2.051863 1_455
F9 Ni1 2.074806 1_555
F9 Li0 2.078117 1_565
F9 Ni5 2.096646 1_555
F9 Li5 2.197132 1_454
F10 Li4 2.051910 1_554
F10 Ni2 2.074379 1_455
F10 Li2 2.078083 1_555
F10 Ni4 2.097021 1_455
F10 Li6 2.197117 1_555
F11 Li5 2.051725 1_554
F11 Ni5 2.073941 1_555
F11 Li3 2.077461 1_555
F11 Ni1 2.098433 1_555
F11 Li7 2.197718 1_555
