# generated using pymatgen
data_Li4Fe(OF)2
_symmetry_space_group_name_H-M   'P 1'
_cell_length_a   3.66066114
_cell_length_b   10.55239390
_cell_length_c   10.61987813
_cell_angle_alpha   70.90700584
_cell_angle_beta   90.01272962
_cell_angle_gamma   99.96475141
_symmetry_Int_Tables_number   1
_chemical_formula_structural   Li4Fe(OF)2
_chemical_formula_sum   'Li16 Fe4 O8 F8'
_cell_volume   381.11581526
_cell_formula_units_Z   4
loop_
 _symmetry_equiv_pos_site_id
 _symmetry_equiv_pos_as_xyz
  1  'x, y, z'
loop_
 _atom_site_type_symbol
 _atom_site_label
 _atom_site_symmetry_multiplicity
 _atom_site_fract_x
 _atom_site_fract_y
 _atom_site_fract_z
 _atom_site_occupancy
  Li  Li0  1  0.56414600  0.12296200  0.70166500  1
  Li  Li1  1  0.06414900  0.12297500  0.20167400  1
  Li  Li2  1  0.81423100  0.62299400  0.95161200  1
  Li  Li3  1  0.31422800  0.62300800  0.45160800  1
  Li  Li4  1  0.69049600  0.37433300  0.54692100  1
  Li  Li5  1  0.19048600  0.37430900  0.04692600  1
  Li  Li6  1  0.94043400  0.87435200  0.79688400  1
  Li  Li7  1  0.44042500  0.87431200  0.29689200  1
  Li  Li8  1  0.13274300  0.25960800  0.79433800  1
  Li  Li9  1  0.63273100  0.25957500  0.29436300  1
  Li  Li10  1  0.38262900  0.75962800  0.04435000  1
  Li  Li11  1  0.88265500  0.75958900  0.54434700  1
  Li  Li12  1  0.12258100  0.23916300  0.45360100  1
  Li  Li13  1  0.62257800  0.23917700  0.95360300  1
  Li  Li14  1  0.37257600  0.73914600  0.70364500  1
  Li  Li15  1  0.87256200  0.73915400  0.20365100  1
  Fe  Fe0  1  0.50281400  0.99965800  0.49906700  1
  Fe  Fe1  1  0.25281200  0.49961700  0.24910900  1
  Fe  Fe2  1  0.00287600  0.99970800  0.99904100  1
  Fe  Fe3  1  0.75280500  0.49962400  0.74907200  1
  O  O0  1  0.66153200  0.31681400  0.74527500  1
  O  O1  1  0.16151200  0.31675500  0.24533500  1
  O  O2  1  0.91128500  0.81686100  0.99520600  1
  O  O3  1  0.41152200  0.81681600  0.49528300  1
  O  O4  1  0.59421900  0.18274200  0.50331900  1
  O  O5  1  0.09419000  0.18269500  0.00332700  1
  O  O6  1  0.84428600  0.68269900  0.75319700  1
  O  O7  1  0.34420200  0.68274200  0.25330800  1
  F  F0  1  0.04157800  0.07915000  0.78353800  1
  F  F1  1  0.54156200  0.07913400  0.28359000  1
  F  F2  1  0.29195800  0.57912000  0.03363100  1
  F  F3  1  0.79184400  0.57913300  0.53354800  1
  F  F4  1  0.21168100  0.41979800  0.46483800  1
  F  F5  1  0.71153300  0.41974700  0.96494800  1
  F  F6  1  0.46146200  0.91972700  0.71489600  1
  F  F7  1  0.96148400  0.91972400  0.21495500  1
loop_
_geom_bond_atom_site_label_1
_geom_bond_atom_site_label_2
_geom_bond_distance
_geom_bond_site_symmetry_2
Li0 O4 1.988417 1_555
Li0 O0 2.212103 1_555
Li1 O5 1.988452 1_555
Li1 O1 2.211647 1_555
Li2 O6 1.989148 1_555
Li2 O2 2.212168 1_555
Li3 O7 1.987969 1_555
Li3 O3 2.212008 1_555
Li4 O0 1.989561 1_555
Li4 O4 2.189028 1_555
Li5 O1 1.990102 1_555
Li5 O5 2.189246 1_555
Li6 O2 1.989251 1_555
Li6 O6 2.190123 1_555
Li7 O3 1.989950 1_555
Li7 O7 2.188716 1_555
Li8 O0 1.940496 1_455
Li8 O0 1.942464 1_555
Li8 O5 2.094421 1_556
Li9 O1 1.940358 1_555
Li9 O1 1.942361 1_655
Li9 O4 2.094070 1_555
Li10 O2 1.941206 1_454
Li10 O2 1.942163 1_554
Li10 O7 2.094106 1_555
Li11 O3 1.940312 1_555
Li11 O3 1.942746 1_655
Li11 O6 2.093037 1_555
Li12 O4 1.940044 1_555
Li12 O4 1.941771 1_455
Li12 O1 2.087491 1_555
Li13 O5 1.940205 1_656
Li13 O5 1.941901 1_556
Li13 O0 2.088120 1_555
Li14 O6 1.940093 1_555
Li14 O6 1.941233 1_455
Li14 O3 2.088468 1_555
Li15 O7 1.939904 1_655
Li15 O7 1.941648 1_555
Li15 O2 2.089302 1_554
Fe0 O3 1.914034 1_555
Fe0 O4 1.918297 1_565
Fe1 O1 1.914205 1_555
Fe1 O7 1.918525 1_555
Fe2 O2 1.914277 1_455
Fe2 O5 1.917417 1_566
Fe3 O0 1.913750 1_555
Fe3 O6 1.917728 1_555
F0 Li8 1.916684 1_555
F0 Li0 2.010035 1_455
F0 Li0 2.015138 1_555
F0 Li6 2.085734 1_445
F0 Fe2 2.159745 1_545
F1 Li9 1.916398 1_555
F1 Li1 2.010208 1_555
F1 Li1 2.015341 1_655
F1 Li7 2.086110 1_545
F1 Fe0 2.159498 1_545
F2 Li10 1.916869 1_555
F2 Li2 2.011727 1_454
F2 Li2 2.014660 1_554
F2 Li5 2.086014 1_555
F2 Fe1 2.159515 1_555
F3 Li11 1.916657 1_555
F3 Li3 2.011060 1_555
F3 Li3 2.014729 1_655
F3 Li4 2.085676 1_555
F3 Fe3 2.159973 1_555
F4 Li12 1.920310 1_555
F4 Li4 2.010081 1_455
F4 Li4 2.019664 1_555
F4 Li3 2.069599 1_555
F4 Fe1 2.162110 1_555
F5 Li13 1.920081 1_555
F5 Li5 2.009245 1_556
F5 Li5 2.019659 1_656
F5 Li2 2.069679 1_555
F5 Fe3 2.163585 1_555
F6 Li14 1.919809 1_555
F6 Li6 2.009264 1_455
F6 Li6 2.019596 1_555
F6 Li0 2.069856 1_565
F6 Fe0 2.163138 1_555
F7 Li15 1.919912 1_555
F7 Li7 2.009148 1_555
F7 Li7 2.019397 1_655
F7 Li1 2.069878 1_665
F7 Fe2 2.163998 1_654
