# generated using pymatgen
data_K5NO4
_symmetry_space_group_name_H-M   'P 1'
_cell_length_a   4.50296100
_cell_length_b   6.26691115
_cell_length_c   10.82712945
_cell_angle_alpha   86.96615904
_cell_angle_beta   79.09165669
_cell_angle_gamma   88.16745832
_symmetry_Int_Tables_number   1
_chemical_formula_structural   K5NO4
_chemical_formula_sum   'K5 N1 O4'
_cell_volume   299.52151038
_cell_formula_units_Z   1
loop_
 _symmetry_equiv_pos_site_id
 _symmetry_equiv_pos_as_xyz
  1  'x, y, z'
loop_
 _atom_site_type_symbol
 _atom_site_label
 _atom_site_symmetry_multiplicity
 _atom_site_fract_x
 _atom_site_fract_y
 _atom_site_fract_z
 _atom_site_occupancy
  K  K0  1  0.02172000  0.43537200  0.92737900  1
  K  K1  1  0.37973000  0.88489600  0.20059100  1
  K  K2  1  0.82324500  0.29713300  0.47978900  1
  K  K3  1  0.22662200  0.68282500  0.60520800  1
  K  K4  1  0.61700400  0.09726100  0.75349000  1
  N  N0  1  0.79794500  0.81869500  0.39496700  1
  O  O0  1  0.63047300  0.65808100  0.36925400  1
  O  O1  1  0.82295200  0.99032200  0.31425100  1
  O  O2  1  0.76226200  0.86195600  0.51855200  1
  O  O3  1  0.12945600  0.30407000  0.70915100  1
loop_
_geom_bond_atom_site_label_1
_geom_bond_atom_site_label_2
_geom_bond_distance
_geom_bond_site_symmetry_2
K0 O3 2.498325 1_555
K1 O0 2.651986 1_555
K1 O1 2.652197 1_555
K1 O1 2.655018 1_455
K2 O1 2.697254 1_545
K2 O0 2.698814 1_555
K2 O2 2.751795 1_545
K2 O3 3.062891 1_655
K3 O3 2.586380 1_555
K3 O2 2.644554 1_455
K3 O2 2.676432 1_555
K3 O0 2.850117 1_555
K4 O3 2.623183 1_555
K4 O3 2.634608 1_655
K4 O2 2.962847 1_545
N0 O1 1.343234 1_555
N0 O0 1.347969 1_555
N0 O2 1.357938 1_555
