# generated using pymatgen
data_Sr3Co3O8
_symmetry_space_group_name_H-M   'P 1'
_cell_length_a   5.60363867
_cell_length_b   5.60363867
_cell_length_c   11.96652028
_cell_angle_alpha   76.96993668
_cell_angle_beta   76.96993668
_cell_angle_gamma   89.83917612
_symmetry_Int_Tables_number   1
_chemical_formula_structural   Sr3Co3O8
_chemical_formula_sum   'Sr6 Co6 O16'
_cell_volume   356.20006648
_cell_formula_units_Z   2
loop_
 _symmetry_equiv_pos_site_id
 _symmetry_equiv_pos_as_xyz
  1  'x, y, z'
loop_
 _atom_site_type_symbol
 _atom_site_label
 _atom_site_symmetry_multiplicity
 _atom_site_fract_x
 _atom_site_fract_y
 _atom_site_fract_z
 _atom_site_occupancy
  Sr  Sr0  1  0.50000000  0.00000000  0.00000000  1
  Sr  Sr1  1  0.00000000  0.50000000  0.00000000  1
  Sr  Sr2  1  0.82850300  0.34194800  0.32825500  1
  Sr  Sr3  1  0.65805200  0.17149700  0.67174500  1
  Sr  Sr4  1  0.17149700  0.65805200  0.67174500  1
  Sr  Sr5  1  0.34194800  0.82850300  0.32825500  1
  Co  Co0  1  0.58719400  0.58719400  0.83740800  1
  Co  Co1  1  0.41280600  0.41280600  0.16259200  1
  Co  Co2  1  0.26341800  0.26341800  0.49558900  1
  Co  Co3  1  0.08615400  0.08615400  0.82113000  1
  Co  Co4  1  0.91384600  0.91384600  0.17887000  1
  Co  Co5  1  0.73658200  0.73658200  0.50441100  1
  O  O0  1  0.50000000  0.50000000  0.00000000  1
  O  O1  1  0.00000000  0.50000000  0.50000000  1
  O  O2  1  0.14364000  0.69181500  0.15702800  1
  O  O3  1  0.16649500  0.16649500  0.14544500  1
  O  O4  1  0.66406500  0.66406500  0.17657300  1
  O  O5  1  0.50000000  0.50000000  0.50000000  1
  O  O6  1  0.30818500  0.85636000  0.84297200  1
  O  O7  1  0.69181500  0.14364000  0.15702800  1
  O  O8  1  0.50000000  0.00000000  0.50000000  1
  O  O9  1  0.30250200  0.30250200  0.33479300  1
  O  O10  1  0.88003600  0.88003600  0.35083700  1
  O  O11  1  0.11996400  0.11996400  0.64916300  1
  O  O12  1  0.69749800  0.69749800  0.66520700  1
  O  O13  1  0.83350500  0.83350500  0.85455500  1
  O  O14  1  0.33593500  0.33593500  0.82342700  1
  O  O15  1  0.85636000  0.30818500  0.84297200  1
loop_
_geom_bond_atom_site_label_1
_geom_bond_atom_site_label_2
_geom_bond_distance
_geom_bond_site_symmetry_2
Co0 O0 1.845820 1_556
Co0 O12 1.965664 1_555
Co0 O13 2.029365 1_555
Co0 O14 2.053360 1_555
Co0 O15 2.170014 1_555
Co0 O6 2.170014 1_555
Co1 O0 1.845820 1_555
Co1 O9 1.965664 1_555
Co1 O3 2.029365 1_555
Co1 O4 2.053360 1_555
Co1 O7 2.170014 1_555
Co1 O2 2.170014 1_555
Co2 O11 1.827850 1_555
Co2 O9 1.848938 1_555
Co2 O5 1.894948 1_555
Co2 O1 1.981066 1_555
Co2 O8 1.981066 1_555
Co3 O15 1.805632 1_455
Co3 O6 1.805632 1_545
Co3 O13 1.915531 1_445
Co3 O11 1.988747 1_555
Co3 O14 1.991149 1_555
Co4 O7 1.805632 1_565
Co4 O2 1.805632 1_655
Co4 O3 1.915531 1_665
Co4 O10 1.988747 1_555
Co4 O4 1.991149 1_555
Co5 O10 1.827850 1_555
Co5 O12 1.848938 1_555
Co5 O5 1.894948 1_555
Co5 O1 1.981066 1_655
Co5 O8 1.981066 1_565
O0 Sr0 2.801819 1_555
O0 Sr1 2.801819 1_555
O0 Sr0 2.801819 1_565
O0 Sr1 2.801819 1_655
O1 Sr2 2.765484 1_455
O1 Sr4 2.765484 1_555
O1 Sr5 2.796806 1_555
O1 Sr3 2.796806 1_455
O2 Sr1 2.632825 1_555
O2 Sr0 2.713857 1_565
O2 Sr2 2.781531 1_455
O2 Sr5 2.785518 1_555
O3 Sr1 2.578368 1_555
O3 Sr0 2.578368 1_555
O3 Sr5 2.903531 1_545
O3 Sr2 2.903531 1_455
O4 Sr5 2.582495 1_555
O4 Sr2 2.582495 1_555
O4 Sr1 2.815342 1_655
O4 Sr0 2.815342 1_565
O5 Sr5 2.739066 1_555
O5 Sr2 2.739066 1_555
O5 Sr3 2.739066 1_555
O5 Sr4 2.739066 1_555
O6 Sr0 2.632825 1_566
O6 Sr1 2.713857 1_556
O6 Sr3 2.781531 1_565
O6 Sr4 2.785518 1_555
O7 Sr0 2.632825 1_555
O7 Sr1 2.713857 1_655
O7 Sr5 2.781531 1_545
O7 Sr2 2.785518 1_555
O8 Sr5 2.765484 1_545
O8 Sr3 2.765484 1_555
O8 Sr2 2.796806 1_555
O8 Sr4 2.796806 1_545
O9 Sr5 2.681895 1_545
O9 Sr2 2.681895 1_455
O9 Sr5 2.938490 1_555
O9 Sr2 2.938490 1_555
O10 Sr5 2.563543 1_655
O10 Sr2 2.563543 1_565
O10 Sr5 3.107353 1_555
O10 Sr2 3.107353 1_555
O11 Sr4 2.563543 1_545
O11 Sr3 2.563543 1_455
O11 Sr3 3.107353 1_555
O11 Sr4 3.107353 1_555
O12 Sr4 2.681895 1_655
O12 Sr3 2.681895 1_565
O12 Sr3 2.938490 1_555
O12 Sr4 2.938490 1_555
O13 Sr0 2.578368 1_566
O13 Sr1 2.578368 1_656
O13 Sr3 2.903531 1_565
O13 Sr4 2.903531 1_655
O14 Sr3 2.582495 1_555
O14 Sr4 2.582495 1_555
O14 Sr1 2.815342 1_556
O14 Sr0 2.815342 1_556
O15 Sr1 2.632825 1_656
O15 Sr0 2.713857 1_556
O15 Sr4 2.781531 1_655
O15 Sr3 2.785518 1_555
