# generated using pymatgen
data_Li6MnNi3(PO4)6
_symmetry_space_group_name_H-M   'P 1'
_cell_length_a   8.47030400
_cell_length_b   8.53914147
_cell_length_c   8.54143676
_cell_angle_alpha   61.76814208
_cell_angle_beta   61.87158037
_cell_angle_gamma   61.90726452
_symmetry_Int_Tables_number   1
_chemical_formula_structural   Li6MnNi3(PO4)6
_chemical_formula_sum   'Li6 Mn1 Ni3 P6 O24'
_cell_volume   454.93200651
_cell_formula_units_Z   1
loop_
 _symmetry_equiv_pos_site_id
 _symmetry_equiv_pos_as_xyz
  1  'x, y, z'
loop_
 _atom_site_type_symbol
 _atom_site_label
 _atom_site_symmetry_multiplicity
 _atom_site_fract_x
 _atom_site_fract_y
 _atom_site_fract_z
 _atom_site_occupancy
  Li  Li0  1  0.02016100  0.01278500  0.99408100  1
  Li  Li1  1  0.74636800  0.15168300  0.35214500  1
  Li  Li2  1  0.48235600  0.50686000  0.49115800  1
  Li  Li3  1  0.27049000  0.85837200  0.64135200  1
  Li  Li4  1  0.64669100  0.27723600  0.85647100  1
  Li  Li5  1  0.85848600  0.64714200  0.27208400  1
  Mn  Mn0  1  0.85602100  0.85386900  0.85438200  1
  Ni  Ni0  1  0.13829700  0.14619300  0.14115500  1
  Ni  Ni1  1  0.35943700  0.36185500  0.35557300  1
  Ni  Ni2  1  0.64347500  0.64698300  0.64540200  1
  P  P0  1  0.05065400  0.74934900  0.45223600  1
  P  P1  1  0.45246700  0.04946900  0.74771100  1
  P  P2  1  0.74874900  0.45554700  0.04507600  1
  P  P3  1  0.24424800  0.54031800  0.95737300  1
  P  P4  1  0.54403200  0.96231600  0.24645400  1
  P  P5  1  0.95542000  0.24395200  0.53903500  1
  O  O0  1  0.12996800  0.28057100  0.50027100  1
  O  O1  1  0.28953000  0.51156400  0.12193200  1
  O  O2  1  0.03012800  0.92864600  0.27567400  1
  O  O3  1  0.54216200  0.11676600  0.29167600  1
  O  O4  1  0.24603200  0.60359500  0.42492400  1
  O  O5  1  0.01323500  0.80016300  0.62278000  1
  O  O6  1  0.26792100  0.05305200  0.91580900  1
  O  O7  1  0.45232200  0.23602600  0.58589000  1
  O  O8  1  0.60241000  0.43211700  0.24293800  1
  O  O9  1  0.20285500  0.37532300  0.97550600  1
  O  O10  1  0.07391000  0.73440800  0.94589100  1
  O  O11  1  0.36528800  0.99850200  0.21589500  1
  O  O12  1  0.62482100  0.00369300  0.80208300  1
  O  O13  1  0.91308300  0.26494500  0.05307400  1
  O  O14  1  0.80615200  0.62189000  0.00514600  1
  O  O15  1  0.39780100  0.57522600  0.76141100  1
  O  O16  1  0.57514100  0.76450800  0.39845700  1
  O  O17  1  0.73391500  0.94600700  0.07175000  1
  O  O18  1  0.95745500  0.20471700  0.37939900  1
  O  O19  1  0.76292800  0.40105900  0.57722900  1
  O  O20  1  0.47312000  0.89679800  0.68381300  1
  O  O21  1  0.94576700  0.07385300  0.73296700  1
  O  O22  1  0.67973000  0.48052800  0.89533100  1
  O  O23  1  0.89697500  0.68111300  0.47946500  1
loop_
_geom_bond_atom_site_label_1
_geom_bond_atom_site_label_2
_geom_bond_distance
_geom_bond_site_symmetry_2
Li0 O6 2.026950 1_555
Li0 O13 2.114047 1_456
Li0 O2 2.192668 1_546
Li0 O21 2.357657 1_455
Li0 O10 2.399387 1_545
Li0 O17 2.464036 1_446
Li1 O8 2.073771 1_555
Li1 O18 2.170459 1_555
Li1 O3 2.195733 1_555
Li1 O13 2.236633 1_555
Li1 O2 2.283927 1_645
Li1 O7 2.385468 1_555
Li2 O4 2.019340 1_555
Li2 O8 2.138359 1_555
Li2 O7 2.158141 1_555
Li2 O16 2.340645 1_555
Li2 O15 2.346173 1_555
Li2 O19 2.449793 1_555
Li3 O15 2.074066 1_555
Li3 O20 2.101174 1_555
Li3 O10 2.372835 1_555
Li3 O21 2.475812 1_465
Li3 O16 2.486552 1_555
Li3 O5 2.537907 1_555
Li4 O19 2.038742 1_555
Li4 O22 2.071765 1_555
Li4 O21 2.369906 1_555
Li4 O15 2.487097 1_555
Li4 O17 2.513837 1_546
Li5 O16 2.060361 1_555
Li5 O23 2.108968 1_555
Li5 O17 2.364146 1_555
Li5 O10 2.483999 1_654
Li5 O19 2.508999 1_555
Li5 O14 2.636229 1_555
Mn0 O12 1.896300 1_565
Mn0 O14 1.903282 1_556
Mn0 O5 1.922554 1_655
Mn0 O10 1.972421 1_655
Mn0 O21 1.985071 1_565
Mn0 O17 1.985153 1_556
Ni0 O9 1.946318 1_554
Ni0 O11 1.951080 1_545
Ni0 O18 2.009771 1_455
Ni0 O13 2.010717 1_455
Ni0 O6 2.043549 1_554
Ni0 O2 2.049773 1_545
Ni1 O1 1.988740 1_555
Ni1 O0 1.995259 1_555
Ni1 O8 2.066649 1_555
Ni1 O4 2.070651 1_555
Ni1 O3 2.075300 1_555
Ni1 O7 2.075321 1_555
Ni2 O22 2.002036 1_555
Ni2 O23 2.008322 1_555
Ni2 O20 2.014227 1_555
Ni2 O15 2.090410 1_555
Ni2 O19 2.091166 1_555
Ni2 O16 2.095852 1_555
O0 P5 1.506378 1_455
O1 P3 1.508692 1_554
O2 P0 1.568673 1_555
O3 P4 1.531465 1_545
O4 P0 1.520868 1_555
O5 P0 1.563270 1_555
O6 P1 1.544738 1_555
O7 P1 1.537794 1_555
O8 P2 1.539839 1_555
O9 P3 1.529555 1_555
O10 P3 1.601789 1_555
O11 P4 1.520385 1_555
O12 P1 1.558797 1_555
O13 P2 1.562698 1_555
O14 P2 1.551161 1_555
O15 P3 1.556446 1_555
O16 P4 1.561025 1_555
O17 P4 1.598633 1_555
O18 P5 1.541534 1_555
O19 P5 1.554699 1_555
O20 P1 1.548032 1_565
O21 P5 1.602549 1_555
O22 P2 1.533844 1_556
O23 P0 1.545546 1_655
