# generated using pymatgen
data_Y2Ge2O7
_symmetry_space_group_name_H-M   'P 1'
_cell_length_a   7.01461804
_cell_length_b   7.01461804
_cell_length_c   7.01461804
_cell_angle_alpha   60.00000000
_cell_angle_beta   60.00000000
_cell_angle_gamma   60.00000000
_symmetry_Int_Tables_number   1
_chemical_formula_structural   Y2Ge2O7
_chemical_formula_sum   'Y4 Ge4 O14'
_cell_volume   244.06026846
_cell_formula_units_Z   2
loop_
 _symmetry_equiv_pos_site_id
 _symmetry_equiv_pos_as_xyz
  1  'x, y, z'
loop_
 _atom_site_type_symbol
 _atom_site_label
 _atom_site_symmetry_multiplicity
 _atom_site_fract_x
 _atom_site_fract_y
 _atom_site_fract_z
 _atom_site_occupancy
  Y  Y0  1  0.12500000  0.62500000  0.12500000  1
  Y  Y1  1  0.12500000  0.12500000  0.62500000  1
  Y  Y2  1  0.62500000  0.12500000  0.12500000  1
  Y  Y3  1  0.12500000  0.12500000  0.12500000  1
  Ge  Ge0  1  0.62500000  0.62500000  0.62500000  1
  Ge  Ge1  1  0.12500000  0.62500000  0.62500000  1
  Ge  Ge2  1  0.62500000  0.62500000  0.12500000  1
  Ge  Ge3  1  0.62500000  0.12500000  0.62500000  1
  O  O0  1  0.29841889  0.70158111  0.70158111  1
  O  O1  1  0.54841889  0.95158111  0.95158111  1
  O  O2  1  0.70158111  0.70158111  0.29841889  1
  O  O3  1  0.29841889  0.29841889  0.70158111  1
  O  O4  1  -0.00000000  -0.00000000  -0.00000000  1
  O  O5  1  0.29841889  0.70158111  0.29841889  1
  O  O6  1  0.70158111  0.29841889  0.70158111  1
  O  O7  1  0.95158111  0.54841889  0.95158111  1
  O  O8  1  0.54841889  0.54841889  0.95158111  1
  O  O9  1  0.95158111  0.95158111  0.54841889  1
  O  O10  1  0.25000000  0.25000000  0.25000000  1
  O  O11  1  0.54841889  0.95158111  0.54841889  1
  O  O12  1  0.70158111  0.29841889  0.29841889  1
  O  O13  1  0.95158111  0.54841889  0.54841889  1
loop_
_geom_bond_atom_site_label_1
_geom_bond_atom_site_label_2
_geom_bond_distance
_geom_bond_site_symmetry_2
Ge0 O8 1.911137 1_555
Ge0 O2 1.911137 1_555
Ge0 O6 1.911137 1_555
Ge0 O0 1.911137 1_555
Ge0 O13 1.911137 1_555
Ge0 O11 1.911137 1_555
Ge1 O3 1.911137 1_555
Ge1 O0 1.911137 1_555
Ge1 O13 1.911137 1_455
Ge1 O7 1.911137 1_455
Ge1 O9 1.911137 1_455
Ge1 O5 1.911137 1_555
Ge2 O8 1.911137 1_554
Ge2 O2 1.911137 1_555
Ge2 O12 1.911137 1_555
Ge2 O7 1.911137 1_554
Ge2 O1 1.911137 1_554
Ge2 O5 1.911137 1_555
Ge3 O1 1.911137 1_545
Ge3 O12 1.911137 1_555
Ge3 O3 1.911137 1_555
Ge3 O11 1.911137 1_545
Ge3 O6 1.911137 1_555
Ge3 O9 1.911137 1_545
O0 Y0 2.456601 1_556
O0 Y1 2.456601 1_565
O1 Y3 2.456601 1_566
O1 Y2 2.456601 1_566
O2 Y2 2.456601 1_565
O2 Y0 2.456601 1_655
O3 Y1 2.456601 1_555
O3 Y3 2.456601 1_556
O4 Y2 2.147779 1_455
O4 Y0 2.147779 1_545
O4 Y3 2.147779 1_555
O4 Y1 2.147779 1_554
O5 Y3 2.456601 1_565
O5 Y0 2.456601 1_555
O6 Y2 2.456601 1_556
O6 Y1 2.456601 1_655
O7 Y3 2.456601 1_656
O7 Y0 2.456601 1_656
O8 Y0 2.456601 1_556
O8 Y2 2.456601 1_556
O9 Y1 2.456601 1_665
O9 Y3 2.456601 1_665
O10 Y1 2.147779 1_555
O10 Y3 2.147779 1_555
O10 Y2 2.147779 1_555
O10 Y0 2.147779 1_555
O11 Y2 2.456601 1_565
O11 Y1 2.456601 1_565
O12 Y2 2.456601 1_555
O12 Y3 2.456601 1_655
O13 Y1 2.456601 1_655
O13 Y0 2.456601 1_655
