# generated using pymatgen
data_Li4TiV3O8
_symmetry_space_group_name_H-M   'P 1'
_cell_length_a   5.84355111
_cell_length_b   5.84355111
_cell_length_c   8.36846308
_cell_angle_alpha   45.76171636
_cell_angle_beta   45.76171636
_cell_angle_gamma   59.88218512
_symmetry_Int_Tables_number   1
_chemical_formula_structural   Li4TiV3O8
_chemical_formula_sum   'Li4 Ti1 V3 O8'
_cell_volume   146.61463635
_cell_formula_units_Z   1
loop_
 _symmetry_equiv_pos_site_id
 _symmetry_equiv_pos_as_xyz
  1  'x, y, z'
loop_
 _atom_site_type_symbol
 _atom_site_label
 _atom_site_symmetry_multiplicity
 _atom_site_fract_x
 _atom_site_fract_y
 _atom_site_fract_z
 _atom_site_occupancy
  Li  Li0  1  0.49395400  0.50604600  0.50000000  1
  Li  Li1  1  0.49111200  0.01582300  0.49532700  1
  Li  Li2  1  0.98417700  0.50888800  0.50467300  1
  Li  Li3  1  0.99259600  0.00740400  0.50000000  1
  Ti  Ti0  1  0.99789200  0.00210800  0.00000000  1
  V  V0  1  0.49232300  0.50767700  0.00000000  1
  V  V1  1  0.49541000  0.00232900  0.00075700  1
  V  V2  1  0.99767100  0.50459000  0.99924300  1
  O  O0  1  0.00422000  0.01359400  0.23352500  1
  O  O1  1  0.00084400  0.51819700  0.23667000  1
  O  O2  1  0.51125100  0.01519800  0.23221400  1
  O  O3  1  0.48347400  0.49007300  0.76939700  1
  O  O4  1  0.50992700  0.51652600  0.23060300  1
  O  O5  1  0.48180300  0.99915600  0.76333000  1
  O  O6  1  0.98480200  0.48874900  0.76778600  1
  O  O7  1  0.98640600  0.99578000  0.76647500  1
loop_
_geom_bond_atom_site_label_1
_geom_bond_atom_site_label_2
_geom_bond_distance
_geom_bond_site_symmetry_2
Li0 O5 2.126047 1_545
Li0 O1 2.126047 1_655
Li0 O2 2.137062 1_565
Li0 O6 2.137062 1_455
Li0 O4 2.148127 1_555
Li0 O3 2.148127 1_555
Li1 O4 2.102281 1_555
Li1 O7 2.121096 1_445
Li1 O2 2.123971 1_555
Li1 O5 2.138408 1_545
Li1 O0 2.150636 1_655
Li1 O3 2.205482 1_545
Li2 O3 2.102281 1_555
Li2 O0 2.121096 1_665
Li2 O6 2.123971 1_555
Li2 O1 2.138408 1_655
Li2 O7 2.150636 1_545
Li2 O4 2.205482 1_655
Li3 O5 2.141564 1_545
Li3 O1 2.141564 1_655
Li3 O7 2.158085 1_545
Li3 O0 2.158085 1_655
Li3 O6 2.174660 1_545
Li3 O2 2.174660 1_655
O0 Ti0 2.027630 1_455
O0 V2 2.055022 1_454
O0 V1 2.055580 1_555
O1 Ti0 2.025704 1_465
O1 V2 2.056149 1_454
O1 V0 2.056890 1_555
O2 Ti0 2.036529 1_555
O2 V1 2.055809 1_555
O2 V0 2.061038 1_555
O3 V2 2.032978 1_455
O3 V0 2.039342 1_556
O3 V1 2.041127 1_556
O4 V1 2.032978 1_565
O4 V0 2.039342 1_555
O4 V2 2.041127 1_554
O5 Ti0 2.025704 1_466
O5 V1 2.056149 1_566
O5 V0 2.056890 1_556
O6 Ti0 2.036529 1_556
O6 V2 2.055809 1_555
O6 V0 2.061038 1_556
O7 Ti0 2.027630 1_566
O7 V1 2.055022 1_566
O7 V2 2.055580 1_555
