# generated using pymatgen
data_Li3CoPCO7
_symmetry_space_group_name_H-M   'P 1'
_cell_length_a   6.37032200
_cell_length_b   8.64973900
_cell_length_c   9.66695976
_cell_angle_alpha   84.73789046
_cell_angle_beta   90.00000000
_cell_angle_gamma   90.00000000
_symmetry_Int_Tables_number   1
_chemical_formula_structural   Li3CoPCO7
_chemical_formula_sum   'Li12 Co4 P4 C4 O28'
_cell_volume   530.42028685
_cell_formula_units_Z   4
loop_
 _symmetry_equiv_pos_site_id
 _symmetry_equiv_pos_as_xyz
  1  'x, y, z'
loop_
 _atom_site_type_symbol
 _atom_site_label
 _atom_site_symmetry_multiplicity
 _atom_site_fract_x
 _atom_site_fract_y
 _atom_site_fract_z
 _atom_site_occupancy
  Li  Li0  1  0.75839800  0.88694500  0.35534700  1
  Li  Li1  1  0.74160200  0.88694500  0.85534700  1
  Li  Li2  1  0.49296900  0.71878000  0.62275600  1
  Li  Li3  1  0.00703100  0.71878000  0.12275600  1
  Li  Li4  1  0.25029000  0.63912300  0.36251100  1
  Li  Li5  1  0.24971000  0.63912300  0.86251100  1
  Li  Li6  1  0.74971000  0.36087700  0.63748900  1
  Li  Li7  1  0.75029000  0.36087700  0.13748900  1
  Li  Li8  1  0.50703100  0.28122000  0.37724400  1
  Li  Li9  1  0.99296900  0.28122000  0.87724400  1
  Li  Li10  1  0.24160200  0.11305500  0.64465300  1
  Li  Li11  1  0.25839800  0.11305500  0.14465300  1
  Co  Co0  1  0.99680700  0.73951200  0.62175400  1
  Co  Co1  1  0.50319300  0.73951200  0.12175400  1
  Co  Co2  1  0.00319300  0.26048800  0.37824600  1
  Co  Co3  1  0.49680700  0.26048800  0.87824600  1
  P  P0  1  0.76222700  0.59314400  0.38640400  1
  P  P1  1  0.73777300  0.59314400  0.88640400  1
  P  P2  1  0.23777300  0.40685600  0.61359600  1
  P  P3  1  0.26222700  0.40685600  0.11359600  1
  C  C0  1  0.24566200  0.95222700  0.40185000  1
  C  C1  1  0.25433800  0.95222700  0.90185000  1
  C  C2  1  0.75433800  0.04777300  0.59815000  1
  C  C3  1  0.74566200  0.04777300  0.09815000  1
  O  O0  1  0.26963600  0.93559800  0.27344000  1
  O  O1  1  0.78187600  0.90746800  0.55614200  1
  O  O2  1  0.23036400  0.93559800  0.77344000  1
  O  O3  1  0.25190900  0.83388600  0.49530100  1
  O  O4  1  0.71812400  0.90746800  0.05614200  1
  O  O5  1  0.24809100  0.83388600  0.99530100  1
  O  O6  1  0.94727300  0.69417200  0.32772900  1
  O  O7  1  0.56189100  0.68458900  0.33292700  1
  O  O8  1  0.93810900  0.68458900  0.83292700  1
  O  O9  1  0.55272700  0.69417200  0.82772900  1
  O  O10  1  0.23866600  0.57427200  0.65696100  1
  O  O11  1  0.76613200  0.58663400  0.54901100  1
  O  O12  1  0.26133400  0.57427200  0.15696100  1
  O  O13  1  0.73386800  0.58663400  0.04901100  1
  O  O14  1  0.23386800  0.41336600  0.45098900  1
  O  O15  1  0.76133400  0.42572800  0.34303900  1
  O  O16  1  0.26613200  0.41336600  0.95098900  1
  O  O17  1  0.73866600  0.42572800  0.84303900  1
  O  O18  1  0.05272700  0.30582800  0.67227100  1
  O  O19  1  0.43810900  0.31541100  0.66707300  1
  O  O20  1  0.44727300  0.30582800  0.17227100  1
  O  O21  1  0.06189100  0.31541100  0.16707300  1
  O  O22  1  0.74809100  0.16611400  0.50469900  1
  O  O23  1  0.21812400  0.09253200  0.44385800  1
  O  O24  1  0.75190900  0.16611400  0.00469900  1
  O  O25  1  0.73036400  0.06440200  0.72656000  1
  O  O26  1  0.28187600  0.09253200  0.94385800  1
  O  O27  1  0.76963600  0.06440200  0.22656000  1
loop_
_geom_bond_atom_site_label_1
_geom_bond_atom_site_label_2
_geom_bond_distance
_geom_bond_site_symmetry_2
Li0 O27 1.886973 1_565
Li0 O1 1.971006 1_555
Li0 O6 2.093073 1_555
Li0 O7 2.178815 1_555
Li1 O25 1.886973 1_565
Li1 O4 1.971006 1_556
Li1 O9 2.093073 1_555
Li1 O8 2.178815 1_555
Li2 O9 2.009743 1_555
Li2 O10 2.054334 1_555
Li2 O3 2.154650 1_555
Li2 O11 2.234338 1_555
Li2 O1 2.504564 1_555
Li3 O6 2.009743 1_455
Li3 O12 2.054334 1_555
Li3 O5 2.154650 1_554
Li3 O13 2.234338 1_455
Li3 O4 2.504564 1_455
Li4 O6 2.009113 1_455
Li4 O7 2.038637 1_555
Li4 O14 2.061393 1_555
Li4 O12 2.114805 1_555
Li4 O3 2.209668 1_555
Li5 O9 2.009113 1_555
Li5 O8 2.038637 1_455
Li5 O16 2.061393 1_555
Li5 O10 2.114805 1_555
Li5 O5 2.209668 1_555
Li6 O18 2.009113 1_655
Li6 O19 2.038637 1_555
Li6 O11 2.061393 1_555
Li6 O17 2.114805 1_555
Li6 O22 2.209668 1_555
Li7 O20 2.009113 1_555
Li7 O21 2.038637 1_655
Li7 O13 2.061393 1_555
Li7 O15 2.114805 1_555
Li7 O24 2.209668 1_555
Li8 O20 2.009743 1_555
Li8 O15 2.054334 1_555
Li8 O22 2.154650 1_555
Li8 O14 2.234338 1_555
Li8 O23 2.504564 1_555
Li9 O18 2.009743 1_655
Li9 O17 2.054334 1_555
Li9 O24 2.154650 1_556
Li9 O16 2.234338 1_655
Li9 O26 2.504564 1_655
Li10 O2 1.886973 1_545
Li10 O23 1.971006 1_555
Li10 O18 2.093073 1_555
Li10 O19 2.178815 1_555
Li11 O0 1.886973 1_545
Li11 O26 1.971006 1_554
Li11 O20 2.093073 1_555
Li11 O21 2.178815 1_555
Co0 O1 2.053896 1_555
Co0 O8 2.086850 1_555
Co0 O10 2.107908 1_655
Co0 O11 2.138466 1_555
Co0 O3 2.149075 1_655
Co1 O4 2.053896 1_555
Co1 O7 2.086850 1_555
Co1 O12 2.107908 1_555
Co1 O13 2.138466 1_555
Co1 O5 2.149075 1_554
Co2 O23 2.053896 1_555
Co2 O21 2.086850 1_555
Co2 O15 2.107908 1_455
Co2 O14 2.138466 1_555
Co2 O22 2.149075 1_455
Co3 O26 2.053896 1_555
Co3 O19 2.086850 1_555
Co3 O17 2.107908 1_555
Co3 O16 2.138466 1_555
Co3 O24 2.149075 1_556
C0 O0 1.271878 1_555
C0 O3 1.302256 1_555
C0 O23 1.326239 1_565
C1 O2 1.271878 1_555
C1 O5 1.302256 1_555
C1 O26 1.326239 1_565
C2 O25 1.271878 1_555
C2 O22 1.302256 1_555
C2 O1 1.326239 1_545
C3 O27 1.271878 1_555
C3 O24 1.302256 1_555
C3 O4 1.326239 1_545
O6 P0 1.544029 1_555
O7 P0 1.564157 1_555
O8 P1 1.564157 1_555
O9 P1 1.544029 1_555
O10 P2 1.544061 1_555
O11 P0 1.567951 1_555
O12 P3 1.544061 1_555
O13 P1 1.567951 1_554
O14 P2 1.567951 1_555
O15 P0 1.544061 1_555
O16 P3 1.567951 1_556
O17 P1 1.544061 1_555
O18 P2 1.544029 1_555
O19 P2 1.564157 1_555
O20 P3 1.544029 1_555
O21 P3 1.564157 1_555
