# generated using pymatgen
data_Li3Sb2(PO4)3
_symmetry_space_group_name_H-M   'P 1'
_cell_length_a   8.57838566
_cell_length_b   8.57838566
_cell_length_c   8.54522295
_cell_angle_alpha   66.27938329
_cell_angle_beta   66.27938329
_cell_angle_gamma   67.18176400
_symmetry_Int_Tables_number   1
_chemical_formula_structural   Li3Sb2(PO4)3
_chemical_formula_sum   'Li6 Sb4 P6 O24'
_cell_volume   507.55190477
_cell_formula_units_Z   2
loop_
 _symmetry_equiv_pos_site_id
 _symmetry_equiv_pos_as_xyz
  1  'x, y, z'
loop_
 _atom_site_type_symbol
 _atom_site_label
 _atom_site_symmetry_multiplicity
 _atom_site_fract_x
 _atom_site_fract_y
 _atom_site_fract_z
 _atom_site_occupancy
  Li  Li0  1  0.00000000  0.50000000  0.00000000  1
  Li  Li1  1  0.86259700  0.78437000  0.62226800  1
  Li  Li2  1  0.78437000  0.86259700  0.12226800  1
  Li  Li3  1  0.50000000  0.00000000  0.50000000  1
  Li  Li4  1  0.21563000  0.13740300  0.87773200  1
  Li  Li5  1  0.13740300  0.21563000  0.37773200  1
  Sb  Sb0  1  0.16340600  0.63863000  0.15958900  1
  Sb  Sb1  1  0.36137000  0.83659400  0.34041100  1
  Sb  Sb2  1  0.63863000  0.16340600  0.65958900  1
  Sb  Sb3  1  0.83659400  0.36137000  0.84041100  1
  P  P0  1  0.75626400  0.59839100  0.42981600  1
  P  P1  1  0.90952900  0.09047100  0.25000000  1
  P  P2  1  0.59839100  0.75626400  0.92981600  1
  P  P3  1  0.40160900  0.24373600  0.07018400  1
  P  P4  1  0.09047100  0.90952900  0.75000000  1
  P  P5  1  0.24373600  0.40160900  0.57018400  1
  O  O0  1  0.61097300  0.83139500  0.05814800  1
  O  O1  1  0.30558900  0.56610100  0.50654300  1
  O  O2  1  0.89777300  0.60590400  0.23935800  1
  O  O3  1  0.83139500  0.61097300  0.55814800  1
  O  O4  1  0.77515600  0.59998400  0.90046800  1
  O  O5  1  0.06489300  0.06975100  0.30878900  1
  O  O6  1  0.93024900  0.93510700  0.19121100  1
  O  O7  1  0.59998400  0.77515600  0.40046800  1
  O  O8  1  0.73306500  0.10326000  0.41144800  1
  O  O9  1  0.89674000  0.26693500  0.08855200  1
  O  O10  1  0.60590400  0.89777300  0.73935800  1
  O  O11  1  0.43389900  0.69441100  0.99345700  1
  O  O12  1  0.56610100  0.30558900  0.00654300  1
  O  O13  1  0.39409600  0.10222700  0.26064200  1
  O  O14  1  0.26693500  0.89674000  0.58855200  1
  O  O15  1  0.10326000  0.73306500  0.91144800  1
  O  O16  1  0.40001600  0.22484400  0.59953200  1
  O  O17  1  0.06975100  0.06489300  0.80878900  1
  O  O18  1  0.93510700  0.93024900  0.69121100  1
  O  O19  1  0.22484400  0.40001600  0.09953200  1
  O  O20  1  0.16860500  0.38902700  0.44185200  1
  O  O21  1  0.10222700  0.39409600  0.76064200  1
  O  O22  1  0.69441100  0.43389900  0.49345700  1
  O  O23  1  0.38902700  0.16860500  0.94185200  1
loop_
_geom_bond_atom_site_label_1
_geom_bond_atom_site_label_2
_geom_bond_distance
_geom_bond_site_symmetry_2
Li0 O19 2.151539 1_555
Li0 O4 2.151539 1_454
Li0 O15 2.229725 1_554
Li0 O9 2.229725 1_455
Li0 O2 2.282955 1_455
Li0 O21 2.282955 1_554
Li1 O3 1.914924 1_555
Li1 O18 1.947236 1_555
Li1 O10 2.036012 1_555
Li1 O4 2.275138 1_555
Li2 O0 1.914924 1_555
Li2 O6 1.947236 1_555
Li2 O2 2.036012 1_555
Li2 O7 2.275138 1_555
Li3 O16 2.151539 1_555
Li3 O7 2.151539 1_545
Li3 O14 2.229725 1_545
Li3 O8 2.229725 1_555
Li3 O10 2.282955 1_545
Li3 O13 2.282955 1_555
Li4 O23 1.914924 1_555
Li4 O17 1.947236 1_555
Li4 O21 2.036012 1_555
Li4 O16 2.275138 1_555
Li5 O20 1.914924 1_555
Li5 O5 1.947236 1_555
Li5 O13 2.036012 1_555
Li5 O19 2.275138 1_555
O0 P2 1.532138 1_554
O0 Sb1 2.502349 1_555
O1 P5 1.516436 1_555
O1 Sb1 2.300635 1_555
O2 P0 1.585337 1_555
O2 Sb0 2.197376 1_655
O3 P0 1.532138 1_555
O3 Sb3 2.502349 1_555
O4 P2 1.596037 1_555
O4 Sb3 2.126465 1_555
O5 P1 1.530799 1_455
O5 Sb1 2.591221 1_545
O6 P1 1.530799 1_565
O6 Sb0 2.591221 1_655
O7 P0 1.596037 1_555
O7 Sb1 2.126465 1_555
O8 P1 1.587322 1_555
O8 Sb2 2.143048 1_555
O9 P1 1.587322 1_555
O9 Sb3 2.143048 1_554
O10 P2 1.585337 1_555
O10 Sb2 2.197376 1_565
O11 P2 1.516436 1_555
O11 Sb0 2.300635 1_556
O12 P3 1.516436 1_555
O12 Sb3 2.300635 1_554
O13 P3 1.585337 1_555
O13 Sb1 2.197376 1_545
O14 P4 1.587322 1_555
O14 Sb1 2.143048 1_555
O15 P4 1.587322 1_555
O15 Sb0 2.143048 1_556
O16 P5 1.596037 1_555
O16 Sb2 2.126465 1_555
O17 P4 1.530799 1_545
O17 Sb3 2.591221 1_455
O18 P4 1.530799 1_655
O18 Sb2 2.591221 1_565
O19 P3 1.596037 1_555
O19 Sb0 2.126465 1_555
O20 P5 1.532138 1_555
O20 Sb0 2.502349 1_555
O21 P5 1.585337 1_555
O21 Sb3 2.197376 1_455
O22 P0 1.516436 1_555
O22 Sb2 2.300635 1_555
O23 P3 1.532138 1_556
O23 Sb2 2.502349 1_555
