# generated using pymatgen
data_Li4Y3VO8
_symmetry_space_group_name_H-M   'P 1'
_cell_length_a   5.89191501
_cell_length_b   5.89321197
_cell_length_c   24.84025511
_cell_angle_alpha   89.80201902
_cell_angle_beta   90.18899775
_cell_angle_gamma   63.47224913
_symmetry_Int_Tables_number   1
_chemical_formula_structural   Li4Y3VO8
_chemical_formula_sum   'Li16 Y12 V4 O32'
_cell_volume   771.68823626
_cell_formula_units_Z   4
loop_
 _symmetry_equiv_pos_site_id
 _symmetry_equiv_pos_as_xyz
  1  'x, y, z'
loop_
 _atom_site_type_symbol
 _atom_site_label
 _atom_site_symmetry_multiplicity
 _atom_site_fract_x
 _atom_site_fract_y
 _atom_site_fract_z
 _atom_site_occupancy
  Li  Li0  1  0.99846800  0.00441600  0.12531200  1
  Li  Li1  1  0.00097900  0.00200100  0.37508400  1
  Li  Li2  1  0.00436000  0.99909500  0.62567600  1
  Li  Li3  1  0.00147100  0.00235400  0.87579500  1
  Li  Li4  1  0.50333100  0.49880800  0.25006700  1
  Li  Li5  1  0.49897000  0.50328800  0.50010300  1
  Li  Li6  1  0.50064700  0.50305900  0.74998100  1
  Li  Li7  1  0.49974900  0.50300600  0.00001500  1
  Li  Li8  1  0.49851100  0.00047900  0.18674000  1
  Li  Li9  1  0.49867700  0.99837500  0.43698000  1
  Li  Li10  1  0.49530800  0.99512000  0.68643700  1
  Li  Li11  1  0.49526200  0.99740900  0.93627600  1
  Li  Li12  1  0.99655100  0.49667000  0.06326200  1
  Li  Li13  1  0.99851900  0.49909400  0.31357100  1
  Li  Li14  1  0.00110400  0.49871200  0.56335200  1
  Li  Li15  1  0.99703300  0.49563500  0.81305000  1
  Y  Y0  1  0.49696500  0.50226200  0.12494200  1
  Y  Y1  1  0.49984300  0.50036800  0.37503000  1
  Y  Y2  1  0.50348800  0.49599200  0.62498200  1
  Y  Y3  1  0.50079500  0.49938100  0.87493900  1
  Y  Y4  1  0.99908200  0.50011800  0.18942700  1
  Y  Y5  1  0.00089800  0.50181300  0.43944700  1
  Y  Y6  1  0.00319100  0.50130300  0.68946700  1
  Y  Y7  1  0.00181500  0.50304200  0.93948600  1
  Y  Y8  1  0.49929900  0.00308000  0.06071400  1
  Y  Y9  1  0.50181900  0.00138100  0.31065200  1
  Y  Y10  1  0.50024900  0.99864300  0.56060600  1
  Y  Y11  1  0.50073400  0.00180100  0.81071300  1
  V  V0  1  0.99897400  0.00104400  0.50003100  1
  V  V1  1  0.99901000  0.99954300  0.75025400  1
  V  V2  1  0.99734200  0.00085700  0.00021500  1
  V  V3  1  0.00080200  0.99859000  0.24999000  1
  O  O0  1  0.72318500  0.72688000  0.12509300  1
  O  O1  1  0.72576600  0.72514700  0.37487200  1
  O  O2  1  0.72766000  0.72242800  0.62478700  1
  O  O3  1  0.72492200  0.72579000  0.87515800  1
  O  O4  1  0.27149700  0.27575100  0.12493600  1
  O  O5  1  0.27379800  0.27446800  0.37495200  1
  O  O6  1  0.27625300  0.27103600  0.62523500  1
  O  O7  1  0.27434300  0.27332900  0.87529000  1
  O  O8  1  0.20589900  0.21132500  0.00042700  1
  O  O9  1  0.21032000  0.20684800  0.24967600  1
  O  O10  1  0.20866100  0.20995100  0.50006200  1
  O  O11  1  0.20720700  0.21063800  0.75058700  1
  O  O12  1  0.78884300  0.79277600  0.00007600  1
  O  O13  1  0.79158900  0.78958100  0.25012700  1
  O  O14  1  0.78852500  0.79136300  0.49972100  1
  O  O15  1  0.78994700  0.79078600  0.75004000  1
  O  O16  1  0.76984400  0.26083100  0.19062200  1
  O  O17  1  0.77606200  0.25655100  0.44006600  1
  O  O18  1  0.77959400  0.25368400  0.69042100  1
  O  O19  1  0.77706600  0.25557200  0.94026900  1
  O  O20  1  0.22427100  0.74376100  0.18986600  1
  O  O21  1  0.23046600  0.73994200  0.44074300  1
  O  O22  1  0.23327000  0.73743600  0.68989900  1
  O  O23  1  0.23102700  0.73895600  0.93989500  1
  O  O24  1  0.25749700  0.77469400  0.05848400  1
  O  O25  1  0.25640800  0.77587400  0.30980000  1
  O  O26  1  0.26191700  0.76870800  0.55914100  1
  O  O27  1  0.25969700  0.77314000  0.80861100  1
  O  O28  1  0.73727600  0.23181400  0.05981900  1
  O  O29  1  0.73924400  0.23049300  0.30939800  1
  O  O30  1  0.74513000  0.22324200  0.55979800  1
  O  O31  1  0.73957400  0.23045800  0.80953400  1
loop_
_geom_bond_atom_site_label_1
_geom_bond_atom_site_label_2
_geom_bond_distance
_geom_bond_site_symmetry_2
Li0 O20 2.200980 1_645
Li0 O28 2.221952 1_555
Li0 O16 2.223279 1_555
Li0 O24 2.259273 1_645
Li1 O17 2.206155 1_455
Li1 O25 2.215889 1_545
Li1 O29 2.228667 1_455
Li1 O21 2.230734 1_545
Li2 O18 2.201654 1_465
Li2 O22 2.202936 1_555
Li2 O30 2.218554 1_465
Li2 O26 2.251536 1_555
Li3 O19 2.192719 1_455
Li3 O23 2.206232 1_545
Li3 O31 2.238818 1_455
Li3 O27 2.262987 1_545
Li4 O29 2.147445 1_555
Li4 O16 2.162289 1_555
Li4 O20 2.207306 1_555
Li4 O25 2.212083 1_555
Li5 O21 2.149778 1_555
Li5 O26 2.150804 1_555
Li5 O30 2.203821 1_555
Li5 O17 2.216824 1_555
Li6 O22 2.154888 1_555
Li6 O27 2.163577 1_555
Li6 O31 2.168091 1_555
Li6 O18 2.218866 1_555
Li7 O23 2.161944 1_554
Li7 O28 2.166009 1_555
Li7 O24 2.167629 1_555
Li7 O19 2.213884 1_554
Li8 O4 2.192859 1_555
Li8 O0 2.195659 1_545
Li8 O9 2.234354 1_555
Li8 O13 2.248816 1_545
Li9 O5 2.195550 1_565
Li9 O1 2.206676 1_555
Li9 O14 2.223052 1_555
Li9 O10 2.248977 1_565
Li9 O21 2.641099 1_555
Li10 O6 2.171711 1_565
Li10 O2 2.206250 1_555
Li10 O15 2.249729 1_555
Li10 O11 2.267111 1_565
Li10 O22 2.606035 1_555
Li11 O7 2.170854 1_565
Li11 O3 2.189452 1_555
Li11 O12 2.250187 1_556
Li11 O8 2.268742 1_566
Li11 O23 2.621048 1_555
Li12 O4 2.179950 1_655
Li12 O0 2.207390 1_555
Li12 O8 2.227882 1_655
Li12 O12 2.251014 1_555
Li12 O28 2.628150 1_555
Li13 O5 2.181655 1_655
Li13 O1 2.189474 1_555
Li13 O13 2.237195 1_555
Li13 O9 2.270400 1_655
Li13 O29 2.647665 1_555
Li14 O2 2.189858 1_455
Li14 O6 2.194920 1_555
Li14 O10 2.243937 1_555
Li14 O14 2.253897 1_455
Li15 O7 2.198522 1_655
Li15 O3 2.208754 1_555
Li15 O11 2.221405 1_655
Li15 O15 2.244287 1_555
Li15 O31 2.620777 1_555
O0 Y8 2.235407 1_565
O0 Y4 2.238254 1_555
O0 Y0 2.259385 1_555
O1 Y9 2.232788 1_565
O1 Y5 2.235065 1_655
O1 Y1 2.258700 1_555
O2 Y6 2.234637 1_655
O2 Y10 2.237505 1_555
O2 Y2 2.258242 1_555
O3 Y7 2.234597 1_655
O3 Y11 2.236527 1_565
O3 Y3 2.257884 1_555
O4 Y4 2.242026 1_455
O4 Y8 2.243625 1_555
O4 Y0 2.265098 1_555
O5 Y9 2.246481 1_555
O5 Y5 2.248231 1_555
O5 Y1 2.264926 1_555
O6 Y10 2.243953 1_545
O6 Y6 2.248854 1_555
O6 Y2 2.266175 1_555
O7 Y11 2.244591 1_555
O7 Y7 2.245871 1_555
O7 Y3 2.267742 1_555
O8 V2 2.099963 1_455
O8 Y8 2.193687 1_555
O8 Y7 2.194625 1_554
O9 V3 2.093703 1_545
O9 Y9 2.196051 1_555
O9 Y4 2.196419 1_455
O10 V0 2.097787 1_455
O10 Y5 2.193896 1_555
O10 Y10 2.196145 1_545
O11 V1 2.101323 1_445
O11 Y11 2.192097 1_555
O11 Y6 2.194282 1_555
O12 V2 2.087696 1_565
O12 Y8 2.203724 1_565
O12 Y7 2.207168 1_654
O13 V3 2.095924 1_655
O13 Y4 2.201158 1_555
O13 Y9 2.204440 1_565
O14 V0 2.105499 1_565
O14 Y10 2.200181 1_555
O14 Y5 2.200424 1_655
O15 V1 2.093914 1_555
O15 Y11 2.204222 1_565
O15 Y6 2.206468 1_655
O16 V3 2.123059 1_645
O16 Y0 2.279125 1_555
O16 Y4 2.348412 1_555
O17 V0 2.101444 1_555
O17 Y1 2.280538 1_555
O17 Y5 2.356811 1_655
O18 V1 2.089449 1_545
O18 Y2 2.284586 1_555
O18 Y6 2.362805 1_655
O19 V2 2.094417 1_556
O19 Y3 2.285801 1_555
O19 Y7 2.367667 1_655
O20 V3 2.116985 1_555
O20 Y0 2.279964 1_555
O20 Y4 2.350292 1_455
O21 V0 2.133338 1_465
O21 Y1 2.282158 1_555
O21 Y5 2.344249 1_555
O22 V1 2.159616 1_455
O22 Y2 2.273529 1_555
O22 Y6 2.336530 1_555
O23 V2 2.157395 1_466
O23 Y3 2.269643 1_555
O23 Y7 2.331103 1_555
O24 V2 2.089994 1_465
O24 Y0 2.288330 1_555
O24 Y8 2.357356 1_565
O25 V3 2.098603 1_555
O25 Y1 2.281471 1_555
O25 Y9 2.360892 1_565
O26 V0 2.122988 1_465
O26 Y2 2.281851 1_555
O26 Y10 2.347143 1_555
O27 V1 2.093332 1_455
O27 Y3 2.292235 1_555
O27 Y11 2.354775 1_565
O28 V2 2.135062 1_555
O28 Y0 2.275736 1_555
O28 Y8 2.339198 1_555
O29 V3 2.137289 1_645
O29 Y1 2.281706 1_555
O29 Y9 2.338395 1_555
O30 V0 2.105794 1_555
O30 Y2 2.285044 1_555
O30 Y10 2.353713 1_545
O31 V1 2.127755 1_545
O31 Y3 2.274144 1_555
O31 Y11 2.343251 1_555
