# generated using pymatgen
data_Mg(FeO2)2
_symmetry_space_group_name_H-M   'P 1'
_cell_length_a   6.04034841
_cell_length_b   6.04034841
_cell_length_c   6.04034912
_cell_angle_alpha   59.99469709
_cell_angle_beta   59.99469709
_cell_angle_gamma   59.99469437
_symmetry_Int_Tables_number   1
_chemical_formula_structural   Mg(FeO2)2
_chemical_formula_sum   'Mg2 Fe4 O8'
_cell_volume   155.81841894
_cell_formula_units_Z   2
loop_
 _symmetry_equiv_pos_site_id
 _symmetry_equiv_pos_as_xyz
  1  'x, y, z'
loop_
 _atom_site_type_symbol
 _atom_site_label
 _atom_site_symmetry_multiplicity
 _atom_site_fract_x
 _atom_site_fract_y
 _atom_site_fract_z
 _atom_site_occupancy
  Mg  Mg0  1  0.00346500  0.00346500  0.00346500  1
  Mg  Mg1  1  0.62611200  0.62611200  0.62611200  1
  Fe  Fe0  1  0.24593300  0.24593300  0.24593300  1
  Fe  Fe1  1  0.62711000  0.62711000  0.11612700  1
  Fe  Fe2  1  0.11612700  0.62711000  0.62711000  1
  Fe  Fe3  1  0.62711000  0.11612700  0.62711000  1
  O  O0  1  0.37947700  0.85334300  0.37947700  1
  O  O1  1  0.85334300  0.37947700  0.37947700  1
  O  O2  1  0.37947700  0.37947700  0.85334300  1
  O  O3  1  0.38019500  0.38019500  0.38019500  1
  O  O4  1  0.86700600  0.86700600  0.86700600  1
  O  O5  1  0.86941300  0.86941300  0.40582000  1
  O  O6  1  0.40582000  0.86941300  0.86941300  1
  O  O7  1  0.86941300  0.40582000  0.86941300  1
loop_
_geom_bond_atom_site_label_1
_geom_bond_atom_site_label_2
_geom_bond_distance
_geom_bond_site_symmetry_2
Mg0 O6 1.984252 1_544
Mg0 O7 1.984252 1_454
Mg0 O5 1.984252 1_445
Mg0 O4 2.019097 1_444
Mg1 O5 2.082935 1_555
Mg1 O6 2.082935 1_555
Mg1 O7 2.082935 1_555
Mg1 O2 2.110027 1_555
Mg1 O1 2.110027 1_555
Mg1 O0 2.110027 1_555
Fe0 O0 1.936296 1_545
Fe0 O1 1.936296 1_455
Fe0 O2 1.936296 1_554
Fe0 O3 1.986590 1_555
Fe1 O7 2.000942 1_554
Fe1 O6 2.000942 1_554
Fe1 O4 2.049943 1_554
Fe1 O1 2.094080 1_555
Fe1 O0 2.094080 1_555
Fe1 O3 2.111680 1_555
Fe2 O7 2.000942 1_455
Fe2 O5 2.000942 1_455
Fe2 O4 2.049943 1_455
Fe2 O0 2.094080 1_555
Fe2 O2 2.094080 1_555
Fe2 O3 2.111680 1_555
Fe3 O6 2.000942 1_545
Fe3 O5 2.000942 1_545
Fe3 O4 2.049943 1_545
Fe3 O1 2.094080 1_555
Fe3 O2 2.094080 1_555
Fe3 O3 2.111680 1_555
