# generated using pymatgen
data_Lu2TeO6
_symmetry_space_group_name_H-M   'P 1'
_cell_length_a   4.91565400
_cell_length_b   4.91565400
_cell_length_c   9.88690500
_cell_angle_alpha   90.00000000
_cell_angle_beta   90.00000000
_cell_angle_gamma   90.00000000
_symmetry_Int_Tables_number   1
_chemical_formula_structural   Lu2TeO6
_chemical_formula_sum   'Lu4 Te2 O12'
_cell_volume   238.90375400
_cell_formula_units_Z   2
loop_
 _symmetry_equiv_pos_site_id
 _symmetry_equiv_pos_as_xyz
  1  'x, y, z'
loop_
 _atom_site_type_symbol
 _atom_site_label
 _atom_site_symmetry_multiplicity
 _atom_site_fract_x
 _atom_site_fract_y
 _atom_site_fract_z
 _atom_site_occupancy
  Lu  Lu0  1  0.00000000  0.00000000  0.33460300  1
  Lu  Lu1  1  0.00000000  0.00000000  0.66539700  1
  Lu  Lu2  1  0.50000000  0.50000000  0.16539700  1
  Lu  Lu3  1  0.50000000  0.50000000  0.83460300  1
  Te  Te0  1  0.00000000  0.00000000  0.00000000  1
  Te  Te1  1  0.50000000  0.50000000  0.50000000  1
  O  O0  1  0.18525800  0.18525800  0.14929500  1
  O  O1  1  0.18525800  0.18525800  0.85070500  1
  O  O2  1  0.21738100  0.21738100  0.50000000  1
  O  O3  1  0.28261900  0.71738100  0.00000000  1
  O  O4  1  0.31474200  0.68525800  0.35070500  1
  O  O5  1  0.31474200  0.68525800  0.64929500  1
  O  O6  1  0.68525800  0.31474200  0.35070500  1
  O  O7  1  0.68525800  0.31474200  0.64929500  1
  O  O8  1  0.71738100  0.28261900  0.00000000  1
  O  O9  1  0.78261900  0.78261900  0.50000000  1
  O  O10  1  0.81474200  0.81474200  0.14929500  1
  O  O11  1  0.81474200  0.81474200  0.85070500  1
loop_
_geom_bond_atom_site_label_1
_geom_bond_atom_site_label_2
_geom_bond_distance
_geom_bond_site_symmetry_2
Lu0 O6 2.193803 1_455
Lu0 O4 2.193803 1_545
Lu0 O9 2.226606 1_445
Lu0 O2 2.226606 1_555
Lu0 O0 2.239485 1_555
Lu0 O10 2.239485 1_445
Lu1 O7 2.193803 1_455
Lu1 O5 2.193803 1_545
Lu1 O9 2.226606 1_445
Lu1 O2 2.226606 1_555
Lu1 O1 2.239485 1_555
Lu1 O11 2.239485 1_445
Lu2 O10 2.193803 1_555
Lu2 O0 2.193803 1_555
Lu2 O8 2.226606 1_555
Lu2 O3 2.226606 1_555
Lu2 O4 2.239485 1_555
Lu2 O6 2.239485 1_555
Lu3 O1 2.193803 1_555
Lu3 O11 2.193803 1_555
Lu3 O3 2.226606 1_556
Lu3 O8 2.226606 1_556
Lu3 O7 2.239485 1_555
Lu3 O5 2.239485 1_555
O0 Te0 1.958925 1_555
O1 Te0 1.958925 1_556
O2 Te1 1.964706 1_555
O3 Te0 1.964706 1_565
O4 Te1 1.958925 1_555
O5 Te1 1.958925 1_555
O6 Te1 1.958925 1_555
O7 Te1 1.958925 1_555
O8 Te0 1.964706 1_655
O9 Te1 1.964706 1_555
O10 Te0 1.958925 1_665
O11 Te0 1.958925 1_666
