# generated using pymatgen
data_Gd2(MoO4)3
_symmetry_space_group_name_H-M   'P 1'
_cell_length_a   7.42908690
_cell_length_b   7.42908690
_cell_length_c   10.66922114
_cell_angle_alpha   90.00000000
_cell_angle_beta   90.00000000
_cell_angle_gamma   90.00000000
_symmetry_Int_Tables_number   1
_chemical_formula_structural   Gd2(MoO4)3
_chemical_formula_sum   'Gd4 Mo6 O24'
_cell_volume   588.84852791
_cell_formula_units_Z   2
loop_
 _symmetry_equiv_pos_site_id
 _symmetry_equiv_pos_as_xyz
  1  'x, y, z'
loop_
 _atom_site_type_symbol
 _atom_site_label
 _atom_site_symmetry_multiplicity
 _atom_site_fract_x
 _atom_site_fract_y
 _atom_site_fract_z
 _atom_site_occupancy
  Gd  Gd0  1  0.68745599  0.18745599  0.26159867  1
  Gd  Gd1  1  0.31254401  0.81254401  0.26159867  1
  Gd  Gd2  1  0.18745599  0.31254401  0.73840133  1
  Gd  Gd3  1  0.81254401  0.68745599  0.73840133  1
  Mo  Mo0  1  0.70754289  0.20754289  0.64424141  1
  Mo  Mo1  1  0.29245711  0.79245711  0.64424141  1
  Mo  Mo2  1  0.20754289  0.29245711  0.35575859  1
  Mo  Mo3  1  0.79245711  0.70754289  0.35575859  1
  Mo  Mo4  1  0.50000000  0.50000000  0.00000000  1
  Mo  Mo5  1  -0.00000000  0.00000000  0.00000000  1
  O  O0  1  0.69537632  0.19537632  0.48048802  1
  O  O1  1  0.30462368  0.80462368  0.48048802  1
  O  O2  1  0.19537632  0.30462368  0.51951198  1
  O  O3  1  0.80462368  0.69537632  0.51951198  1
  O  O4  1  0.12734358  0.62734358  0.68953630  1
  O  O5  1  0.87265642  0.37265642  0.68953630  1
  O  O6  1  0.62734358  0.87265642  0.31046370  1
  O  O7  1  0.37265642  0.12734358  0.31046370  1
  O  O8  1  0.27465113  0.50186272  0.29648529  1
  O  O9  1  0.72534887  0.49813728  0.29648529  1
  O  O10  1  0.00186272  0.77465113  0.29648529  1
  O  O11  1  0.99813728  0.22534887  0.29648529  1
  O  O12  1  0.50186272  0.72534887  0.70351471  1
  O  O13  1  0.49813728  0.27465113  0.70351471  1
  O  O14  1  0.22534887  0.00186272  0.70351471  1
  O  O15  1  0.77465113  0.99813728  0.70351471  1
  O  O16  1  0.31115474  0.45941013  0.90441606  1
  O  O17  1  0.68884526  0.54058987  0.90441606  1
  O  O18  1  0.95941013  0.81115474  0.90441606  1
  O  O19  1  0.04058987  0.18884526  0.90441606  1
  O  O20  1  0.45941013  0.68884526  0.09558394  1
  O  O21  1  0.54058987  0.31115474  0.09558394  1
  O  O22  1  0.18884526  0.95941013  0.09558394  1
  O  O23  1  0.81115474  0.04058987  0.09558394  1
loop_
_geom_bond_atom_site_label_1
_geom_bond_atom_site_label_2
_geom_bond_distance
_geom_bond_site_symmetry_2
Gd0 O21 2.274265 1_555
Gd0 O23 2.274265 1_555
Gd0 O0 2.336861 1_555
Gd0 O9 2.354786 1_555
Gd0 O11 2.354786 1_555
Gd0 O6 2.437342 1_545
Gd0 O7 2.437342 1_555
Gd1 O22 2.274265 1_555
Gd1 O20 2.274265 1_555
Gd1 O1 2.336861 1_555
Gd1 O8 2.354786 1_555
Gd1 O10 2.354786 1_555
Gd1 O7 2.437342 1_565
Gd1 O6 2.437342 1_555
Gd2 O19 2.274265 1_555
Gd2 O16 2.274265 1_555
Gd2 O2 2.336861 1_555
Gd2 O14 2.354786 1_555
Gd2 O13 2.354786 1_555
Gd2 O4 2.437342 1_555
Gd2 O5 2.437342 1_455
Gd3 O18 2.274265 1_555
Gd3 O17 2.274265 1_555
Gd3 O3 2.336861 1_555
Gd3 O12 2.354786 1_555
Gd3 O15 2.354786 1_555
Gd3 O5 2.437342 1_555
Gd3 O4 2.437342 1_655
Mo0 O15 1.751760 1_545
Mo0 O13 1.751760 1_555
Mo0 O0 1.751791 1_555
Mo0 O5 1.800790 1_555
Mo1 O12 1.751760 1_555
Mo1 O14 1.751760 1_565
Mo1 O1 1.751791 1_555
Mo1 O4 1.800790 1_555
Mo2 O8 1.751760 1_555
Mo2 O11 1.751760 1_455
Mo2 O2 1.751791 1_555
Mo2 O7 1.800790 1_555
Mo3 O9 1.751760 1_555
Mo3 O10 1.751760 1_655
Mo3 O3 1.751791 1_555
Mo3 O6 1.800790 1_555
Mo4 O20 1.760454 1_555
Mo4 O17 1.760454 1_554
Mo4 O16 1.760454 1_554
Mo4 O21 1.760454 1_555
Mo5 O22 1.760454 1_545
Mo5 O23 1.760454 1_455
Mo5 O19 1.760454 1_554
Mo5 O18 1.760454 1_444
