# generated using pymatgen
data_Li24MnCr11O36
_symmetry_space_group_name_H-M   'P 1'
_cell_length_a   8.75049658
_cell_length_b   8.75049658
_cell_length_c   10.24352536
_cell_angle_alpha   72.92851334
_cell_angle_beta   72.92851334
_cell_angle_gamma   59.69920338
_symmetry_Int_Tables_number   1
_chemical_formula_structural   Li24MnCr11O36
_chemical_formula_sum   'Li24 Mn1 Cr11 O36'
_cell_volume   637.23649149
_cell_formula_units_Z   1
loop_
 _symmetry_equiv_pos_site_id
 _symmetry_equiv_pos_as_xyz
  1  'x, y, z'
loop_
 _atom_site_type_symbol
 _atom_site_label
 _atom_site_symmetry_multiplicity
 _atom_site_fract_x
 _atom_site_fract_y
 _atom_site_fract_z
 _atom_site_occupancy
  Li  Li0  1  0.00491400  0.66029600  0.25045900  1
  Li  Li1  1  0.16718400  0.49991700  0.49970800  1
  Li  Li2  1  0.00629100  0.66007100  0.75105900  1
  Li  Li3  1  0.32778400  0.33844800  0.74948500  1
  Li  Li4  1  0.99973800  0.33443600  0.74973600  1
  Li  Li5  1  0.16673200  0.49993200  0.99988200  1
  Li  Li6  1  0.32647000  0.34031900  0.25007000  1
  Li  Li7  1  0.00199900  0.33262700  0.24936100  1
  Li  Li8  1  0.66737300  0.99800100  0.75063900  1
  Li  Li9  1  0.66556400  0.00026200  0.25026400  1
  Li  Li10  1  0.33992900  0.99370900  0.24894100  1
  Li  Li11  1  0.50008300  0.83281600  0.50029200  1
  Li  Li12  1  0.33970400  0.99508600  0.74954100  1
  Li  Li13  1  0.65968100  0.67353000  0.74993000  1
  Li  Li14  1  0.33360200  0.66648500  0.74920800  1
  Li  Li15  1  0.50006800  0.83326800  0.00011800  1
  Li  Li16  1  0.66155200  0.67221600  0.25051500  1
  Li  Li17  1  0.33351500  0.66639800  0.25079200  1
  Li  Li18  1  0.67088500  0.32936800  0.25043000  1
  Li  Li19  1  0.83366700  0.16633300  0.50000000  1
  Li  Li20  1  0.67063200  0.32911500  0.74957000  1
  Li  Li21  1  0.99546800  0.00495600  0.74973400  1
  Li  Li22  1  0.83291800  0.16708200  0.00000000  1
  Li  Li23  1  0.99504400  0.00453200  0.25026600  1
  Mn  Mn0  1  0.49708800  0.50291200  0.50000000  1
  Cr  Cr0  1  0.50463000  0.17045900  0.49932900  1
  Cr  Cr1  1  0.17534300  0.16452400  0.49881400  1
  Cr  Cr2  1  0.49134200  0.16776700  0.00041800  1
  Cr  Cr3  1  0.15976900  0.16570200  0.99960300  1
  Cr  Cr4  1  0.83547600  0.82465700  0.50118600  1
  Cr  Cr5  1  0.16028600  0.83971400  0.50000000  1
  Cr  Cr6  1  0.83429800  0.84023100  0.00039700  1
  Cr  Cr7  1  0.17380900  0.82619100  0.00000000  1
  Cr  Cr8  1  0.82954100  0.49537000  0.50067100  1
  Cr  Cr9  1  0.83223300  0.50865800  0.99958200  1
  Cr  Cr10  1  0.50815500  0.49184500  0.00000000  1
  O  O0  1  0.07449100  0.40158400  0.38530700  1
  O  O1  1  0.56991400  0.26184200  0.61116400  1
  O  O2  1  0.06673000  0.41045600  0.88478600  1
  O  O3  1  0.26655400  0.23411000  0.61179900  1
  O  O4  1  0.56733800  0.26445000  0.11281700  1
  O  O5  1  0.25852600  0.23497900  0.11181800  1
  O  O6  1  0.40627700  0.09929100  0.38759500  1
  O  O7  1  0.73603900  0.07385900  0.38570100  1
  O  O8  1  0.10047600  0.06697400  0.38692500  1
  O  O9  1  0.40242100  0.09869600  0.88855800  1
  O  O10  1  0.59841600  0.92550900  0.61469300  1
  O  O11  1  0.23256400  0.93530000  0.61261000  1
  O  O12  1  0.74172800  0.06904000  0.88522600  1
  O  O13  1  0.09849800  0.07556000  0.88815200  1
  O  O14  1  0.93302600  0.89952400  0.61307500  1
  O  O15  1  0.58954400  0.93327000  0.11521400  1
  O  O16  1  0.23351200  0.92255000  0.11253000  1
  O  O17  1  0.92444000  0.90150200  0.11184800  1
  O  O18  1  0.06470000  0.76743600  0.38739000  1
  O  O19  1  0.76589000  0.73344600  0.38820100  1
  O  O20  1  0.40628100  0.73918400  0.38664200  1
  O  O21  1  0.07745000  0.76648800  0.88747000  1
  O  O22  1  0.90070900  0.59372300  0.61240500  1
  O  O23  1  0.26081600  0.59371900  0.61335800  1
  O  O24  1  0.76502100  0.74147400  0.88818200  1
  O  O25  1  0.40804800  0.73650600  0.88581500  1
  O  O26  1  0.58900100  0.57155600  0.61197700  1
  O  O27  1  0.90130400  0.59757900  0.11144200  1
  O  O28  1  0.26349400  0.59195200  0.11418500  1
  O  O29  1  0.60085900  0.56608000  0.11240500  1
  O  O30  1  0.73815800  0.43008600  0.38883600  1
  O  O31  1  0.42844400  0.41099900  0.38802300  1
  O  O32  1  0.73555000  0.43266200  0.88718300  1
  O  O33  1  0.92614100  0.26396100  0.61429900  1
  O  O34  1  0.43392000  0.39914100  0.88759500  1
  O  O35  1  0.93096000  0.25827200  0.11477400  1
loop_
_geom_bond_atom_site_label_1
_geom_bond_atom_site_label_2
_geom_bond_distance
_geom_bond_site_symmetry_2
Li0 O19 2.054712 1_455
Li0 O17 2.072323 1_455
Li0 O0 2.161181 1_555
Li0 O28 2.167089 1_555
Li0 O18 2.194985 1_555
Li0 O27 2.206805 1_455
Li1 O31 2.081542 1_555
Li1 O3 2.112297 1_555
Li1 O22 2.118532 1_455
Li1 O23 2.121328 1_555
Li1 O18 2.124612 1_555
Li1 O0 2.150801 1_555
Li2 O14 2.058374 1_455
Li2 O24 2.065542 1_455
Li2 O2 2.104773 1_555
Li2 O23 2.149113 1_555
Li2 O22 2.236911 1_455
Li2 O21 2.251070 1_555
Li3 O9 2.065501 1_555
Li3 O1 2.075562 1_555
Li3 O23 2.146521 1_555
Li3 O2 2.176604 1_555
Li3 O3 2.191623 1_555
Li3 O34 2.203726 1_555
Li4 O2 2.027278 1_655
Li4 O33 2.036535 1_555
Li4 O22 2.176123 1_555
Li4 O13 2.178746 1_655
Li4 O32 2.204502 1_555
Li4 O3 2.222930 1_655
Li5 O5 2.106173 1_556
Li5 O27 2.107827 1_456
Li5 O21 2.118789 1_555
Li5 O34 2.122059 1_555
Li5 O28 2.135378 1_556
Li5 O2 2.146593 1_555
Li6 O4 2.063027 1_555
Li6 O6 2.065786 1_555
Li6 O28 2.125094 1_555
Li6 O0 2.125577 1_555
Li6 O31 2.232954 1_555
Li6 O5 2.241106 1_555
Li7 O0 2.025827 1_555
Li7 O35 2.036757 1_455
Li7 O5 2.160672 1_555
Li7 O30 2.211494 1_455
Li7 O27 2.212225 1_455
Li7 O8 2.213671 1_555
Li8 O10 2.025827 1_555
Li8 O12 2.036757 1_565
Li8 O24 2.160672 1_555
Li8 O1 2.211494 1_565
Li8 O9 2.212225 1_565
Li8 O14 2.213671 1_555
Li9 O15 2.027278 1_545
Li9 O7 2.036535 1_555
Li9 O6 2.176123 1_555
Li9 O17 2.178746 1_545
Li9 O4 2.204502 1_555
Li9 O19 2.222930 1_545
Li10 O8 2.058374 1_565
Li10 O5 2.065542 1_565
Li10 O15 2.104773 1_555
Li10 O20 2.149113 1_555
Li10 O6 2.236911 1_565
Li10 O16 2.251070 1_555
Li11 O26 2.081542 1_555
Li11 O19 2.112297 1_555
Li11 O6 2.118532 1_565
Li11 O20 2.121328 1_555
Li11 O11 2.124612 1_555
Li11 O10 2.150801 1_555
Li12 O3 2.054712 1_565
Li12 O13 2.072323 1_565
Li12 O10 2.161181 1_555
Li12 O25 2.167089 1_555
Li12 O11 2.194985 1_555
Li12 O9 2.206805 1_565
Li13 O32 2.063027 1_555
Li13 O22 2.065786 1_555
Li13 O25 2.125094 1_555
Li13 O10 2.125577 1_555
Li13 O26 2.232954 1_555
Li13 O24 2.241106 1_555
Li14 O23 2.048768 1_555
Li14 O25 2.049228 1_555
Li14 O26 2.151391 1_555
Li14 O21 2.163401 1_555
Li14 O34 2.228040 1_555
Li14 O11 2.228902 1_555
Li15 O24 2.106173 1_554
Li15 O9 2.107827 1_564
Li15 O16 2.118789 1_555
Li15 O29 2.122059 1_555
Li15 O25 2.135378 1_554
Li15 O15 2.146593 1_555
Li16 O27 2.065501 1_555
Li16 O30 2.075562 1_555
Li16 O20 2.146521 1_555
Li16 O15 2.176604 1_555
Li16 O19 2.191623 1_555
Li16 O29 2.203726 1_555
Li17 O20 2.048768 1_555
Li17 O28 2.049228 1_555
Li17 O31 2.151391 1_555
Li17 O16 2.163401 1_555
Li17 O29 2.228040 1_555
Li17 O18 2.228902 1_555
Li18 O29 2.042889 1_555
Li18 O31 2.074563 1_555
Li18 O7 2.145364 1_555
Li18 O35 2.172409 1_555
Li18 O4 2.206863 1_555
Li18 O30 2.209189 1_555
Li19 O30 2.095515 1_555
Li19 O1 2.095515 1_555
Li19 O8 2.122176 1_655
Li19 O14 2.122176 1_545
Li19 O33 2.143952 1_555
Li19 O7 2.143952 1_555
Li20 O34 2.042889 1_555
Li20 O26 2.074563 1_555
Li20 O33 2.145364 1_555
Li20 O12 2.172409 1_555
Li20 O32 2.206863 1_555
Li20 O1 2.209189 1_555
Li21 O11 2.040716 1_645
Li21 O21 2.052989 1_645
Li21 O12 2.135873 1_555
Li21 O33 2.165646 1_555
Li21 O14 2.196675 1_545
Li21 O13 2.243178 1_655
Li22 O13 2.110023 1_654
Li22 O17 2.110023 1_545
Li22 O32 2.113164 1_554
Li22 O4 2.113164 1_555
Li22 O35 2.142153 1_555
Li22 O12 2.142153 1_554
Li23 O18 2.040716 1_645
Li23 O16 2.052989 1_645
Li23 O35 2.135873 1_555
Li23 O7 2.165646 1_555
Li23 O8 2.196675 1_655
Li23 O17 2.243178 1_545
Mn0 O20 1.930989 1_555
Mn0 O23 1.930989 1_555
Mn0 O26 1.938311 1_555
Mn0 O31 1.938311 1_555
Mn0 O1 1.952409 1_555
Mn0 O30 1.952409 1_555
Cr0 O7 1.906916 1_555
Cr0 O1 1.913424 1_555
Cr0 O3 1.942754 1_555
Cr0 O31 1.948351 1_555
Cr0 O10 1.992864 1_545
Cr0 O6 1.994038 1_555
Cr1 O6 1.890370 1_555
Cr1 O11 1.894538 1_545
Cr1 O0 1.942390 1_555
Cr1 O3 1.947776 1_555
Cr1 O8 2.012720 1_555
Cr1 O33 2.021596 1_455
Cr2 O5 1.902244 1_555
Cr2 O34 1.904696 1_554
Cr2 O9 1.920508 1_554
Cr2 O15 1.931073 1_545
Cr2 O4 2.018115 1_555
Cr2 O12 2.027251 1_554
Cr3 O13 1.878261 1_555
Cr3 O35 1.895894 1_456
Cr3 O9 1.965558 1_555
Cr3 O16 1.972147 1_546
Cr3 O5 1.989109 1_556
Cr3 O2 1.989178 1_555
Cr4 O22 1.890370 1_555
Cr4 O18 1.894538 1_655
Cr4 O10 1.942390 1_555
Cr4 O19 1.947776 1_555
Cr4 O14 2.012720 1_555
Cr4 O7 2.021596 1_565
Cr5 O14 1.877101 1_455
Cr5 O8 1.877101 1_565
Cr5 O18 1.989695 1_555
Cr5 O11 1.989695 1_555
Cr5 O23 1.994290 1_555
Cr5 O20 1.994290 1_555
Cr6 O17 1.878261 1_555
Cr6 O12 1.895894 1_564
Cr6 O27 1.965558 1_555
Cr6 O21 1.972147 1_654
Cr6 O24 1.989109 1_554
Cr6 O15 1.989178 1_555
Cr7 O16 1.918689 1_555
Cr7 O21 1.918689 1_554
Cr7 O28 1.921830 1_555
Cr7 O25 1.921830 1_554
Cr7 O17 2.008206 1_455
Cr7 O13 2.008206 1_564
Cr8 O33 1.906916 1_555
Cr8 O30 1.913424 1_555
Cr8 O19 1.942754 1_555
Cr8 O26 1.948351 1_555
Cr8 O0 1.992864 1_655
Cr8 O22 1.994038 1_555
Cr9 O24 1.902244 1_555
Cr9 O29 1.904696 1_556
Cr9 O27 1.920508 1_556
Cr9 O2 1.931073 1_655
Cr9 O32 2.018115 1_555
Cr9 O35 2.027251 1_556
Cr10 O4 1.877370 1_555
Cr10 O32 1.877370 1_554
Cr10 O34 1.981184 1_554
Cr10 O29 1.981184 1_555
Cr10 O28 1.989428 1_555
Cr10 O25 1.989428 1_554
