# generated using pymatgen
data_Ca3Mn2(GeO4)3
_symmetry_space_group_name_H-M   'P 1'
_cell_length_a   10.80830170
_cell_length_b   10.80830170
_cell_length_c   10.80830170
_cell_angle_alpha   109.54778654
_cell_angle_beta   109.54778654
_cell_angle_gamma   109.31819710
_symmetry_Int_Tables_number   1
_chemical_formula_structural   Ca3Mn2(GeO4)3
_chemical_formula_sum   'Ca12 Mn8 Ge12 O48'
_cell_volume   971.95948839
_cell_formula_units_Z   4
loop_
 _symmetry_equiv_pos_site_id
 _symmetry_equiv_pos_as_xyz
  1  'x, y, z'
loop_
 _atom_site_type_symbol
 _atom_site_label
 _atom_site_symmetry_multiplicity
 _atom_site_fract_x
 _atom_site_fract_y
 _atom_site_fract_z
 _atom_site_occupancy
  Ca  Ca0  1  0.49943500  0.87690200  0.12706900  1
  Ca  Ca1  1  0.25056500  0.37309800  0.37293100  1
  Ca  Ca2  1  0.49795600  0.99795600  0.50000000  1
  Ca  Ca3  1  0.74795600  0.74795600  0.00000000  1
  Ca  Ca4  1  0.00204400  0.50204400  0.50000000  1
  Ca  Ca5  1  0.00016700  0.87763400  0.62706900  1
  Ca  Ca6  1  0.62690200  0.99983300  0.87746700  1
  Ca  Ca7  1  0.12236600  0.74943500  0.12253300  1
  Ca  Ca8  1  0.12309800  0.25016700  0.62253300  1
  Ca  Ca9  1  0.74983300  0.37236600  0.87293100  1
  Ca  Ca10  1  0.25204400  0.25204400  0.00000000  1
  Ca  Ca11  1  0.62763400  0.50056500  0.37746700  1
  Mn  Mn0  1  0.37500000  0.62500000  0.25000000  1
  Mn  Mn1  1  0.87500000  0.12500000  0.25000000  1
  Mn  Mn2  1  0.87500000  0.62500000  0.25000000  1
  Mn  Mn3  1  0.37500000  0.12500000  0.75000000  1
  Mn  Mn4  1  0.37500000  0.62500000  0.75000000  1
  Mn  Mn5  1  0.87500000  0.12500000  0.75000000  1
  Mn  Mn6  1  0.87500000  0.62500000  0.75000000  1
  Mn  Mn7  1  0.37500000  0.12500000  0.25000000  1
  Ge  Ge0  1  0.74338600  0.87113600  0.37764900  1
  Ge  Ge1  1  0.62113600  0.74348700  0.62775000  1
  Ge  Ge2  1  0.00661400  0.37886400  0.12235100  1
  Ge  Ge3  1  0.00000000  0.00000000  0.00000000  1
  Ge  Ge4  1  0.50000000  0.50000000  0.00000000  1
  Ge  Ge5  1  0.49348700  0.36573700  0.62235100  1
  Ge  Ge6  1  0.75000000  0.25000000  0.50000000  1
  Ge  Ge7  1  0.12886400  0.50651300  0.87225000  1
  Ge  Ge8  1  0.25000000  0.75000000  0.50000000  1
  Ge  Ge9  1  0.25651300  0.88426300  0.87764900  1
  Ge  Ge10  1  0.63426300  0.25661400  0.12775000  1
  Ge  Ge11  1  0.11573700  0.99338600  0.37225000  1
  O  O0  1  0.06686300  0.13517400  0.35868300  1
  O  O1  1  0.59354800  0.21337000  0.94176200  1
  O  O2  1  0.78663000  0.72839200  0.38017800  1
  O  O3  1  0.27160800  0.65178600  0.05823800  1
  O  O4  1  0.74928200  0.91409200  0.23482600  1
  O  O5  1  0.29182000  0.93313700  0.06831100  1
  O  O6  1  0.68978900  0.54116100  0.05121200  1
  O  O7  1  0.45883900  0.51005100  0.14862700  1
  O  O8  1  0.26005100  0.61142300  0.55121200  1
  O  O9  1  0.29116100  0.73994900  0.35137300  1
  O  O10  1  0.26123000  0.03294300  0.83515100  1
  O  O11  1  0.18886400  0.14467700  0.14869300  1
  O  O12  1  0.97350900  0.54182000  0.85868300  1
  O  O13  1  0.48994900  0.63857700  0.94878800  1
  O  O14  1  0.79017100  0.43886400  0.54418700  1
  O  O15  1  0.96337000  0.52160800  0.11982200  1
  O  O16  1  0.07073400  0.73554500  0.73482600  1
  O  O17  1  0.56113600  0.10532300  0.35130700  1
  O  O18  1  0.08590800  0.32073400  0.83518900  1
  O  O19  1  0.89467700  0.24598400  0.45581300  1
  O  O20  1  0.06021100  0.70883900  0.44878800  1
  O  O21  1  0.96705700  0.80220800  0.22828700  1
  O  O22  1  0.45818000  0.31686300  0.43168900  1
  O  O23  1  0.95982900  0.81113600  0.95581300  1
  O  O24  1  0.68313700  0.11482600  0.14131700  1
  O  O25  1  0.48877000  0.21705700  0.66484900  1
  O  O26  1  0.17607900  0.51123000  0.72828700  1
  O  O27  1  0.38857700  0.93978900  0.64862700  1
  O  O28  1  0.40178600  0.84354800  0.88017800  1
  O  O29  1  0.99598400  0.04017100  0.85130700  1
  O  O30  1  0.66409200  0.92926600  0.66481100  1
  O  O31  1  0.78294300  0.44779200  0.27171300  1
  O  O32  1  0.55220800  0.82392100  0.33515100  1
  O  O33  1  0.26445500  0.99928200  0.33518900  1
  O  O34  1  0.88517400  0.02649100  0.56831100  1
  O  O35  1  0.86482600  0.22350900  0.93168900  1
  O  O36  1  0.77649100  0.70818000  0.64131700  1
  O  O37  1  0.15645200  0.03663000  0.55823800  1
  O  O38  1  0.85532300  0.00401600  0.04418700  1
  O  O39  1  0.48554500  0.25071800  0.16481100  1
  O  O40  1  0.00071800  0.33590800  0.26517400  1
  O  O41  1  0.36142300  0.31021100  0.85137300  1
  O  O42  1  0.34821400  0.40645200  0.61982200  1
  O  O43  1  0.19779200  0.42607900  0.16484900  1
  O  O44  1  0.75401600  0.20982900  0.64869300  1
  O  O45  1  0.67926600  0.51445500  0.76517400  1
  O  O46  1  0.47839200  0.59821400  0.44176200  1
  O  O47  1  0.57392100  0.73877000  0.77171300  1
loop_
_geom_bond_atom_site_label_1
_geom_bond_atom_site_label_2
_geom_bond_distance
_geom_bond_site_symmetry_2
Ca0 O28 2.363148 1_554
Ca0 O4 2.382057 1_555
Ca0 O32 2.435323 1_555
Ca0 O5 2.452586 1_555
Ca0 O3 2.477057 1_555
Ca0 O17 2.497774 1_565
Ca0 O13 2.594274 1_554
Ca0 O24 2.594429 1_565
Ca1 O42 2.363148 1_555
Ca1 O40 2.382057 1_555
Ca1 O43 2.435323 1_555
Ca1 O22 2.452586 1_555
Ca1 O46 2.477057 1_555
Ca1 O11 2.497774 1_555
Ca1 O8 2.594274 1_555
Ca1 O0 2.594429 1_555
Ca2 O27 2.414190 1_555
Ca2 O9 2.414201 1_555
Ca2 O44 2.419487 1_565
Ca2 O17 2.419487 1_565
Ca2 O32 2.498560 1_555
Ca2 O25 2.498560 1_565
Ca2 O30 2.564219 1_555
Ca2 O33 2.564225 1_555
Ca3 O13 2.414200 1_554
Ca3 O6 2.414200 1_555
Ca3 O23 2.419487 1_554
Ca3 O38 2.419487 1_565
Ca3 O21 2.498560 1_555
Ca3 O47 2.498560 1_554
Ca3 O4 2.564213 1_555
Ca3 O45 2.564219 1_554
Ca4 O20 2.414200 1_555
Ca4 O8 2.414200 1_555
Ca4 O14 2.419487 1_455
Ca4 O19 2.419487 1_455
Ca4 O31 2.498560 1_455
Ca4 O26 2.498560 1_555
Ca4 O40 2.564213 1_555
Ca4 O16 2.564219 1_555
Ca5 O2 2.363148 1_455
Ca5 O16 2.382047 1_555
Ca5 O10 2.435323 1_565
Ca5 O34 2.452586 1_465
Ca5 O37 2.477057 1_565
Ca5 O29 2.497774 1_465
Ca5 O20 2.594274 1_555
Ca5 O36 2.594429 1_455
Ca6 O1 2.363148 1_565
Ca6 O30 2.382047 1_555
Ca6 O47 2.435323 1_555
Ca6 O24 2.452586 1_566
Ca6 O28 2.477057 1_555
Ca6 O38 2.497774 1_566
Ca6 O27 2.594280 1_555
Ca6 O35 2.594429 1_565
Ca7 O3 2.363148 1_555
Ca7 O33 2.382054 1_555
Ca7 O21 2.435323 1_455
Ca7 O12 2.452586 1_454
Ca7 O15 2.477057 1_455
Ca7 O23 2.497774 1_454
Ca7 O9 2.594282 1_555
Ca7 O5 2.594429 1_555
Ca8 O37 2.363148 1_555
Ca8 O18 2.382047 1_555
Ca8 O26 2.435323 1_555
Ca8 O0 2.452586 1_555
Ca8 O42 2.477057 1_555
Ca8 O19 2.497774 1_455
Ca8 O41 2.594280 1_555
Ca8 O34 2.594429 1_455
Ca9 O15 2.363148 1_556
Ca9 O45 2.382047 1_555
Ca9 O25 2.435323 1_555
Ca9 O35 2.452586 1_555
Ca9 O1 2.477057 1_555
Ca9 O44 2.497774 1_555
Ca9 O6 2.594274 1_556
Ca9 O12 2.594429 1_555
Ca10 O41 2.414190 1_554
Ca10 O7 2.414201 1_555
Ca10 O11 2.419487 1_555
Ca10 O29 2.419487 1_454
Ca10 O43 2.498560 1_555
Ca10 O10 2.498560 1_554
Ca10 O18 2.564219 1_554
Ca10 O39 2.564225 1_555
Ca11 O46 2.363148 1_555
Ca11 O39 2.382054 1_555
Ca11 O31 2.435323 1_555
Ca11 O36 2.452586 1_555
Ca11 O2 2.477057 1_555
Ca11 O14 2.497774 1_555
Ca11 O7 2.594282 1_555
Ca11 O22 2.594429 1_555
Mn0 O43 1.977292 1_555
Mn0 O32 1.977292 1_555
Mn0 O7 2.015815 1_555
Mn0 O9 2.015815 1_555
Mn0 O3 2.166572 1_555
Mn0 O46 2.166572 1_555
Mn1 O24 1.955718 1_555
Mn1 O0 1.955718 1_655
Mn1 O38 2.063095 1_555
Mn1 O19 2.063095 1_555
Mn1 O4 2.149636 1_545
Mn1 O40 2.149636 1_655
Mn2 O31 1.977292 1_555
Mn2 O21 1.977292 1_555
Mn2 O20 2.015810 1_655
Mn2 O6 2.015810 1_555
Mn2 O2 2.166572 1_555
Mn2 O15 2.166572 1_555
Mn3 O25 1.977292 1_555
Mn3 O10 1.977292 1_555
Mn3 O41 2.015813 1_555
Mn3 O27 2.015813 1_545
Mn3 O1 2.166572 1_555
Mn3 O37 2.166572 1_555
Mn4 O26 1.977292 1_555
Mn4 O47 1.977292 1_555
Mn4 O13 2.015810 1_555
Mn4 O8 2.015810 1_555
Mn4 O28 2.166572 1_555
Mn4 O42 2.166572 1_555
Mn5 O35 1.955718 1_555
Mn5 O34 1.955718 1_555
Mn5 O29 2.063095 1_555
Mn5 O44 2.063095 1_555
Mn5 O30 2.149639 1_545
Mn5 O18 2.149639 1_655
Mn6 O12 1.955718 1_555
Mn6 O36 1.955718 1_555
Mn6 O23 2.063095 1_555
Mn6 O14 2.063095 1_555
Mn6 O45 2.149639 1_555
Mn6 O16 2.149639 1_655
Mn7 O22 1.955718 1_555
Mn7 O5 1.955718 1_545
Mn7 O17 2.063095 1_555
Mn7 O11 2.063095 1_555
Mn7 O39 2.149633 1_555
Mn7 O33 2.149633 1_545
Ge0 O2 1.759623 1_555
Ge0 O4 1.768730 1_555
Ge0 O32 1.803158 1_555
Ge0 O34 1.811964 1_565
Ge1 O46 1.759623 1_555
Ge1 O30 1.768728 1_555
Ge1 O47 1.803158 1_555
Ge1 O36 1.811964 1_555
Ge2 O15 1.759623 1_455
Ge2 O40 1.768730 1_555
Ge2 O43 1.803158 1_555
Ge2 O35 1.811964 1_454
Ge3 O38 1.790519 1_455
Ge3 O29 1.790519 1_454
Ge3 O11 1.790519 1_555
Ge3 O23 1.790519 1_444
Ge4 O7 1.784291 1_555
Ge4 O41 1.784299 1_554
Ge4 O13 1.784301 1_554
Ge4 O6 1.784301 1_555
Ge5 O42 1.759623 1_555
Ge5 O45 1.768728 1_555
Ge5 O25 1.803158 1_555
Ge5 O22 1.811964 1_555
Ge6 O19 1.790519 1_555
Ge6 O44 1.790519 1_555
Ge6 O14 1.790519 1_555
Ge6 O17 1.790519 1_555
Ge7 O3 1.759623 1_556
Ge7 O18 1.768728 1_555
Ge7 O26 1.803158 1_555
Ge7 O12 1.811964 1_455
Ge8 O9 1.784291 1_555
Ge8 O27 1.784299 1_555
Ge8 O8 1.784301 1_555
Ge8 O20 1.784301 1_555
Ge9 O28 1.759623 1_555
Ge9 O16 1.768728 1_555
Ge9 O10 1.803158 1_565
Ge9 O5 1.811964 1_556
Ge10 O1 1.759623 1_554
Ge10 O39 1.768726 1_555
Ge10 O31 1.803158 1_555
Ge10 O24 1.811964 1_555
Ge11 O37 1.759623 1_565
Ge11 O33 1.768726 1_555
Ge11 O21 1.803158 1_455
Ge11 O0 1.811964 1_565
