# generated using pymatgen
data_NbPO5
_symmetry_space_group_name_H-M   'P 1'
_cell_length_a   6.55773600
_cell_length_b   7.52707200
_cell_length_c   7.66239200
_cell_angle_alpha   90.00000000
_cell_angle_beta   90.00000000
_cell_angle_gamma   90.00000000
_symmetry_Int_Tables_number   1
_chemical_formula_structural   NbPO5
_chemical_formula_sum   'Nb4 P4 O20'
_cell_volume   378.21989132
_cell_formula_units_Z   4
loop_
 _symmetry_equiv_pos_site_id
 _symmetry_equiv_pos_as_xyz
  1  'x, y, z'
loop_
 _atom_site_type_symbol
 _atom_site_label
 _atom_site_symmetry_multiplicity
 _atom_site_fract_x
 _atom_site_fract_y
 _atom_site_fract_z
 _atom_site_occupancy
  Nb  Nb0  1  0.25000000  0.74011100  0.15435600  1
  Nb  Nb1  1  0.75000000  0.24011100  0.34564400  1
  Nb  Nb2  1  0.25000000  0.75988900  0.65435600  1
  Nb  Nb3  1  0.75000000  0.25988900  0.84564400  1
  P  P0  1  0.75000000  0.62321500  0.12179400  1
  P  P1  1  0.25000000  0.12321500  0.37820600  1
  P  P2  1  0.75000000  0.87678500  0.62179400  1
  P  P3  1  0.25000000  0.37678500  0.87820600  1
  O  O0  1  0.25000000  0.48982200  0.04763100  1
  O  O1  1  0.75000000  0.17456700  0.11830000  1
  O  O2  1  0.55878700  0.74137300  0.12738400  1
  O  O3  1  0.94121300  0.74137300  0.12738400  1
  O  O4  1  0.25000000  0.99879100  0.21503800  1
  O  O5  1  0.75000000  0.49879100  0.28496200  1
  O  O6  1  0.05878700  0.24137300  0.37261600  1
  O  O7  1  0.44121300  0.24137300  0.37261600  1
  O  O8  1  0.25000000  0.67456700  0.38170000  1
  O  O9  1  0.75000000  0.98982200  0.45236900  1
  O  O10  1  0.25000000  0.01017800  0.54763100  1
  O  O11  1  0.75000000  0.32543300  0.61830000  1
  O  O12  1  0.55878700  0.75862700  0.62738400  1
  O  O13  1  0.94121300  0.75862700  0.62738400  1
  O  O14  1  0.25000000  0.50120900  0.71503800  1
  O  O15  1  0.75000000  0.00120900  0.78496200  1
  O  O16  1  0.05878700  0.25862700  0.87261600  1
  O  O17  1  0.44121300  0.25862700  0.87261600  1
  O  O18  1  0.25000000  0.82543300  0.88170000  1
  O  O19  1  0.75000000  0.51017800  0.95236900  1
loop_
_geom_bond_atom_site_label_1
_geom_bond_atom_site_label_2
_geom_bond_distance
_geom_bond_site_symmetry_2
Nb0 O8 1.810513 1_555
Nb0 O4 2.001851 1_555
Nb0 O2 2.035485 1_555
Nb0 O3 2.035485 1_455
Nb0 O0 2.053774 1_555
Nb0 O18 2.185680 1_554
Nb1 O1 1.810513 1_555
Nb1 O5 2.001851 1_555
Nb1 O6 2.035485 1_655
Nb1 O7 2.035485 1_555
Nb1 O9 2.053774 1_545
Nb1 O11 2.185680 1_555
Nb2 O18 1.810513 1_555
Nb2 O14 2.001851 1_555
Nb2 O12 2.035485 1_555
Nb2 O13 2.035485 1_455
Nb2 O10 2.053774 1_565
Nb2 O8 2.185680 1_555
Nb3 O11 1.810513 1_555
Nb3 O15 2.001851 1_555
Nb3 O16 2.035485 1_655
Nb3 O17 2.035485 1_555
Nb3 O19 2.053774 1_555
Nb3 O1 2.185680 1_556
O0 P3 1.552176 1_554
O2 P0 1.537909 1_555
O3 P0 1.537909 1_555
O4 P1 1.562135 1_565
O5 P0 1.562135 1_555
O6 P1 1.537909 1_555
O7 P1 1.537909 1_555
O9 P2 1.552176 1_555
O10 P1 1.552176 1_555
O12 P2 1.537909 1_555
O13 P2 1.537909 1_555
O14 P3 1.562135 1_555
O15 P2 1.562135 1_545
O16 P3 1.537909 1_555
O17 P3 1.537909 1_555
O19 P0 1.552176 1_556
