# generated using pymatgen
data_LiTi3VO8
_symmetry_space_group_name_H-M   'P 1'
_cell_length_a   6.12271377
_cell_length_b   10.37095540
_cell_length_c   10.45067913
_cell_angle_alpha   80.48657156
_cell_angle_beta   88.52381240
_cell_angle_gamma   73.61337923
_symmetry_Int_Tables_number   1
_chemical_formula_structural   LiTi3VO8
_chemical_formula_sum   'Li4 Ti12 V4 O32'
_cell_volume   627.73718462
_cell_formula_units_Z   4
loop_
 _symmetry_equiv_pos_site_id
 _symmetry_equiv_pos_as_xyz
  1  'x, y, z'
loop_
 _atom_site_type_symbol
 _atom_site_label
 _atom_site_symmetry_multiplicity
 _atom_site_fract_x
 _atom_site_fract_y
 _atom_site_fract_z
 _atom_site_occupancy
  Li  Li0  1  0.87501500  0.24999000  0.62497800  1
  Li  Li1  1  0.62500000  0.75000000  0.87500000  1
  Li  Li2  1  0.37498600  0.25000900  0.12502200  1
  Li  Li3  1  0.12500000  0.75000000  0.37500000  1
  Ti  Ti0  1  0.37502100  0.24999300  0.62495600  1
  Ti  Ti1  1  0.12500000  0.75000000  0.87500000  1
  Ti  Ti2  1  0.87497800  0.25000800  0.12504500  1
  Ti  Ti3  1  0.62499900  0.75000100  0.37500000  1
  Ti  Ti4  1  0.50002600  0.49998900  0.49995500  1
  Ti  Ti5  1  0.24999700  0.00000500  0.74998300  1
  Ti  Ti6  1  0.00000500  0.49999500  0.00001700  1
  Ti  Ti7  1  0.74997600  0.00000900  0.25004500  1
  Ti  Ti8  1  0.62500000  0.25000100  0.37499900  1
  Ti  Ti9  1  0.37500900  0.75001200  0.62497100  1
  Ti  Ti10  1  0.12500100  0.25000000  0.87499900  1
  Ti  Ti11  1  0.87499100  0.74998900  0.12502900  1
  V  V0  1  0.25001500  0.49999700  0.74997900  1
  V  V1  1  0.99998300  0.00000100  0.00002100  1
  V  V2  1  0.75002600  0.49998600  0.25000000  1
  V  V3  1  0.49997300  0.00001300  0.50000100  1
  O  O0  1  0.35327100  0.36590400  0.45110900  1
  O  O1  1  0.10327900  0.86591000  0.70110700  1
  O  O2  1  0.85329800  0.36590100  0.95113700  1
  O  O3  1  0.60330300  0.86589700  0.20113400  1
  O  O4  1  0.64669800  0.63410100  0.54886700  1
  O  O5  1  0.39670100  0.13409800  0.79886300  1
  O  O6  1  0.14672100  0.63408900  0.04889400  1
  O  O7  1  0.89673100  0.13409400  0.29889200  1
  O  O8  1  0.22938500  0.62024000  0.56963300  1
  O  O9  1  0.97941200  0.12024800  0.81966100  1
  O  O10  1  0.72939200  0.62024400  0.06963800  1
  O  O11  1  0.47937400  0.12026600  0.31965000  1
  O  O12  1  0.46913900  0.62024700  0.32991200  1
  O  O13  1  0.21908300  0.12024600  0.57989900  1
  O  O14  1  0.96916500  0.62025100  0.82991900  1
  O  O15  1  0.71913300  0.12023800  0.07993100  1
  O  O16  1  0.34929000  0.86000700  0.44976800  1
  O  O17  1  0.09928600  0.35998300  0.69978900  1
  O  O18  1  0.84931600  0.85998000  0.94977000  1
  O  O19  1  0.59927900  0.36000400  0.19980200  1
  O  O20  1  0.65072500  0.13999700  0.55020000  1
  O  O21  1  0.40068400  0.64001900  0.80022900  1
  O  O22  1  0.15071400  0.14001600  0.05021100  1
  O  O23  1  0.90071000  0.63999100  0.30023200  1
  O  O24  1  0.53086100  0.37976400  0.67007100  1
  O  O25  1  0.28084000  0.87974700  0.92007900  1
  O  O26  1  0.03091900  0.37975300  0.17010000  1
  O  O27  1  0.78085900  0.87975400  0.42008800  1
  O  O28  1  0.77062700  0.37973400  0.43035100  1
  O  O29  1  0.52060800  0.87975700  0.68036100  1
  O  O30  1  0.27058800  0.37975000  0.93034200  1
  O  O31  1  0.02061300  0.87976300  0.18036200  1
loop_
_geom_bond_atom_site_label_1
_geom_bond_atom_site_label_2
_geom_bond_distance
_geom_bond_site_symmetry_2
Li0 O13 2.242634 1_655
Li0 O20 2.243144 1_555
Li0 O24 2.243193 1_555
Li0 O17 2.243210 1_655
Li0 O28 2.243477 1_555
Li0 O9 2.243954 1_555
Li1 O25 2.243076 1_555
Li1 O14 2.243113 1_555
Li1 O18 2.243129 1_555
Li1 O21 2.243141 1_555
Li1 O10 2.243620 1_556
Li1 O29 2.243633 1_555
Li2 O26 2.242626 1_555
Li2 O15 2.243143 1_555
Li2 O19 2.243183 1_555
Li2 O22 2.243215 1_555
Li2 O11 2.243482 1_555
Li2 O30 2.243925 1_554
Li3 O12 2.243028 1_555
Li3 O27 2.243041 1_455
Li3 O16 2.243205 1_555
Li3 O23 2.243220 1_455
Li3 O8 2.243587 1_555
Li3 O31 2.243643 1_555
O0 Ti0 1.990937 1_555
O0 Ti8 1.991224 1_555
O0 Ti4 1.991228 1_555
O1 Ti5 1.991290 1_565
O1 Ti9 1.991336 1_555
O1 Ti1 1.991338 1_555
O2 Ti10 1.991251 1_655
O2 Ti6 1.991253 1_656
O2 Ti2 1.991409 1_556
O3 Ti3 1.991057 1_555
O3 Ti11 1.991058 1_555
O3 Ti7 1.991403 1_565
O4 Ti9 1.991070 1_555
O4 Ti3 1.991082 1_555
O4 Ti4 1.991403 1_555
O5 Ti5 1.991232 1_555
O5 Ti10 1.991233 1_555
O5 Ti0 1.991410 1_555
O6 Ti6 1.991277 1_555
O6 Ti11 1.991340 1_455
O6 Ti1 1.991351 1_554
O7 Ti2 1.990949 1_555
O7 Ti7 1.991232 1_555
O7 Ti8 1.991235 1_555
O8 Ti9 1.975271 1_555
O8 Ti4 1.975701 1_555
O8 V0 2.066339 1_555
O9 Ti10 1.974953 1_655
O9 Ti5 1.975440 1_655
O9 V1 2.066507 1_556
O10 Ti11 1.975162 1_555
O10 Ti6 1.975311 1_655
O10 V2 2.066541 1_555
O11 Ti8 1.974998 1_555
O11 Ti7 1.975229 1_555
O11 V3 2.066443 1_555
O12 Ti4 1.975048 1_555
O12 Ti3 1.975060 1_555
O12 V2 2.066576 1_555
O13 Ti0 1.975205 1_555
O13 Ti5 1.975300 1_555
O13 V3 2.066391 1_555
O14 Ti1 1.974885 1_655
O14 Ti6 1.975514 1_656
O14 V0 2.066538 1_655
O15 Ti2 1.975238 1_555
O15 Ti7 1.975519 1_555
O15 V1 2.066310 1_555
O16 Ti9 1.975273 1_555
O16 Ti3 1.975305 1_555
O16 V3 2.065871 1_565
O17 Ti10 1.975285 1_555
O17 Ti0 1.975665 1_555
O17 V0 2.065955 1_555
O18 Ti1 1.975102 1_655
O18 Ti11 1.975760 1_556
O18 V1 2.066015 1_566
O19 Ti2 1.975168 1_555
O19 Ti8 1.975253 1_555
O19 V2 2.065770 1_555
O20 Ti0 1.975184 1_555
O20 Ti8 1.975290 1_555
O20 V3 2.065812 1_555
O21 Ti1 1.975111 1_555
O21 Ti9 1.975759 1_555
O21 V0 2.066028 1_555
O22 Ti10 1.975307 1_554
O22 Ti2 1.975683 1_455
O22 V1 2.065972 1_455
O23 Ti11 1.975285 1_555
O23 Ti3 1.975330 1_555
O23 V2 2.065862 1_555
O24 Ti0 1.975230 1_555
O24 Ti4 1.975520 1_555
O24 V0 2.066266 1_555
O25 Ti1 1.974880 1_555
O25 Ti5 1.975506 1_565
O25 V1 2.066576 1_466
O26 Ti2 1.975193 1_455
O26 Ti6 1.975296 1_555
O26 V2 2.066413 1_455
O27 Ti7 1.975035 1_565
O27 Ti3 1.975051 1_555
O27 V3 2.066568 1_565
O28 Ti8 1.974997 1_555
O28 Ti4 1.975211 1_555
O28 V2 2.066438 1_555
O29 Ti9 1.975158 1_555
O29 Ti5 1.975303 1_565
O29 V3 2.066514 1_565
O30 Ti10 1.974949 1_555
O30 Ti6 1.975427 1_556
O30 V0 2.066532 1_555
O31 Ti11 1.975259 1_455
O31 Ti7 1.975685 1_465
O31 V1 2.066274 1_465
