# generated using pymatgen
data_NaLiMnPCO7
_symmetry_space_group_name_H-M   'P 1'
_cell_length_a   5.30874708
_cell_length_b   6.37433100
_cell_length_c   8.90116195
_cell_angle_alpha   89.99762286
_cell_angle_beta   91.40484240
_cell_angle_gamma   89.99634768
_symmetry_Int_Tables_number   1
_chemical_formula_structural   NaLiMnPCO7
_chemical_formula_sum   'Na2 Li2 Mn2 P2 C2 O14'
_cell_volume   301.12220966
_cell_formula_units_Z   2
loop_
 _symmetry_equiv_pos_site_id
 _symmetry_equiv_pos_as_xyz
  1  'x, y, z'
loop_
 _atom_site_type_symbol
 _atom_site_label
 _atom_site_symmetry_multiplicity
 _atom_site_fract_x
 _atom_site_fract_y
 _atom_site_fract_z
 _atom_site_occupancy
  Na  Na0  1  0.22689200  0.47046400  0.76138700  1
  Na  Na1  1  0.77313900  0.97045300  0.23859200  1
  Li  Li0  1  0.23213300  0.94064800  0.81336700  1
  Li  Li1  1  0.76784400  0.44063200  0.18660700  1
  Mn  Mn0  1  0.77419300  0.76868200  0.64470700  1
  Mn  Mn1  1  0.22566100  0.26880600  0.35529800  1
  P  P0  1  0.70380100  0.26683100  0.56410700  1
  P  P1  1  0.29617500  0.76686600  0.43585800  1
  C  C0  1  0.72117200  0.73458700  0.93121800  1
  C  C1  1  0.27883500  0.23457900  0.06885100  1
  O  O0  1  0.26398600  0.20046600  0.92924800  1
  O  O1  1  0.92988500  0.75824900  0.85200200  1
  O  O2  1  0.51486900  0.74666000  0.85114100  1
  O  O3  1  0.78556200  0.07427700  0.65955100  1
  O  O4  1  0.78838500  0.45913400  0.65934600  1
  O  O5  1  0.18010400  0.76889200  0.59276700  1
  O  O6  1  0.40727900  0.27089800  0.54700300  1
  O  O7  1  0.59268400  0.77092500  0.45295000  1
  O  O8  1  0.81988500  0.26890400  0.40724300  1
  O  O9  1  0.21163000  0.95921100  0.34064800  1
  O  O10  1  0.21441800  0.57434900  0.34042300  1
  O  O11  1  0.48519700  0.24663700  0.14893700  1
  O  O12  1  0.07015800  0.25828000  0.14797600  1
  O  O13  1  0.73610200  0.70055400  0.07077000  1
loop_
_geom_bond_atom_site_label_1
_geom_bond_atom_site_label_2
_geom_bond_distance
_geom_bond_site_symmetry_2
Na0 O0 2.284434 1_555
Na0 O5 2.431980 1_555
Na0 O2 2.452681 1_555
Na0 O4 2.479066 1_455
Na0 O6 2.503282 1_555
Na0 O1 2.562018 1_455
Na1 O13 2.283823 1_555
Na1 O8 2.432367 1_565
Na1 O11 2.452051 1_565
Na1 O9 2.479006 1_655
Na1 O7 2.503107 1_555
Na1 O12 2.562348 1_665
Li0 O0 1.956284 1_565
Li0 O2 1.967231 1_555
Li0 O1 2.017904 1_455
Li0 O5 2.259265 1_555
Li1 O13 1.956506 1_555
Li1 O11 1.966898 1_555
Li1 O12 2.017904 1_655
Li1 O8 2.259366 1_555
Mn0 O7 1.939439 1_555
Mn0 O3 1.953281 1_565
Mn0 O4 1.978762 1_555
Mn0 O1 2.004349 1_555
Mn0 O5 2.214972 1_655
Mn0 O2 2.327107 1_555
Mn1 O6 1.939307 1_555
Mn1 O10 1.952931 1_555
Mn1 O9 1.979057 1_545
Mn1 O12 2.004205 1_555
Mn1 O8 2.214281 1_455
Mn1 O11 2.327327 1_555
C0 O13 1.261543 1_556
C0 O2 1.294283 1_555
C0 O1 1.336387 1_555
C1 O0 1.262080 1_554
C1 O11 1.294592 1_555
C1 O12 1.335801 1_555
O3 P0 1.548689 1_555
O4 P0 1.550605 1_555
O5 P1 1.540374 1_555
O6 P0 1.577997 1_555
O7 P1 1.577923 1_555
O8 P0 1.540038 1_555
O9 P1 1.550519 1_555
O10 P1 1.548553 1_555
