# generated using pymatgen
data_Li4Nb3Co3(SnO8)2
_symmetry_space_group_name_H-M   'P 1'
_cell_length_a   6.09637708
_cell_length_b   6.09637708
_cell_length_c   10.03239592
_cell_angle_alpha   89.55845195
_cell_angle_beta   89.55845195
_cell_angle_gamma   60.42454959
_symmetry_Int_Tables_number   1
_chemical_formula_structural   Li4Nb3Co3(SnO8)2
_chemical_formula_sum   'Li4 Nb3 Co3 Sn2 O16'
_cell_volume   324.26774240
_cell_formula_units_Z   1
loop_
 _symmetry_equiv_pos_site_id
 _symmetry_equiv_pos_as_xyz
  1  'x, y, z'
loop_
 _atom_site_type_symbol
 _atom_site_label
 _atom_site_symmetry_multiplicity
 _atom_site_fract_x
 _atom_site_fract_y
 _atom_site_fract_z
 _atom_site_occupancy
  Li  Li0  1  0.33197100  0.33197100  0.09444100  1
  Li  Li1  1  0.99997000  0.99997000  0.00280100  1
  Li  Li2  1  0.97852000  0.97852000  0.51486100  1
  Li  Li3  1  0.66460300  0.66460300  0.61481200  1
  Nb  Nb0  1  0.17399400  0.17399400  0.77918000  1
  Nb  Nb1  1  0.83843700  0.34654000  0.28735500  1
  Nb  Nb2  1  0.34654000  0.83843700  0.28735500  1
  Co  Co0  1  0.65565600  0.17354300  0.78868200  1
  Co  Co1  1  0.17354300  0.65565600  0.78868200  1
  Co  Co2  1  0.80922100  0.80922100  0.28875300  1
  Sn  Sn0  1  0.35180200  0.35180200  0.51730500  1
  Sn  Sn1  1  0.67740800  0.67740800  0.99405100  1
  O  O0  1  0.67903900  0.17138400  0.39845000  1
  O  O1  1  0.48540100  0.48540100  0.66249200  1
  O  O2  1  0.32177000  0.32177000  0.90065500  1
  O  O3  1  0.00610600  0.00610600  0.69540400  1
  O  O4  1  0.00656400  0.00656400  0.19472800  1
  O  O5  1  0.17138400  0.67903900  0.39845000  1
  O  O6  1  0.46920800  0.03561300  0.64952600  1
  O  O7  1  0.03561300  0.46920800  0.64952600  1
  O  O8  1  0.84569200  0.84569200  0.90372000  1
  O  O9  1  0.17388500  0.17388500  0.39354100  1
  O  O10  1  0.95938900  0.50360800  0.15172000  1
  O  O11  1  0.50360800  0.95938900  0.15172000  1
  O  O12  1  0.64709600  0.64709600  0.41049600  1
  O  O13  1  0.84647200  0.33298700  0.90076900  1
  O  O14  1  0.51748500  0.51748500  0.17194400  1
  O  O15  1  0.33298700  0.84647200  0.90076900  1
loop_
_geom_bond_atom_site_label_1
_geom_bond_atom_site_label_2
_geom_bond_distance
_geom_bond_site_symmetry_2
Li0 O2 1.948064 1_554
Li0 O11 2.056055 1_545
Li0 O10 2.056055 1_455
Li0 O14 2.110085 1_555
Li1 O8 1.912942 1_554
Li1 O4 1.927360 1_665
Li1 O15 2.037779 1_654
Li1 O13 2.037779 1_564
Li2 O3 1.837010 1_665
Li2 O5 1.993086 1_655
Li2 O0 1.993086 1_565
Li2 O9 2.382027 1_665
Li3 O1 1.943685 1_555
Li3 O6 2.000546 1_565
Li3 O7 2.000546 1_655
Li3 O12 2.059700 1_555
Nb0 O3 1.965235 1_555
Nb0 O2 1.985813 1_555
Nb0 O6 2.030944 1_555
Nb0 O7 2.030944 1_555
Nb0 O13 2.117665 1_455
Nb0 O15 2.117665 1_545
Nb1 O10 1.993406 1_555
Nb1 O4 2.031704 1_655
Nb1 O12 2.036430 1_555
Nb1 O14 2.063632 1_555
Nb1 O0 2.077504 1_555
Nb1 O9 2.077576 1_655
Nb2 O11 1.993406 1_555
Nb2 O4 2.031704 1_565
Nb2 O12 2.036430 1_555
Nb2 O14 2.063632 1_555
Nb2 O5 2.077504 1_555
Nb2 O9 2.077576 1_565
Co0 O3 2.076856 1_655
Co0 O1 2.080822 1_555
Co0 O8 2.090035 1_545
Co0 O2 2.094383 1_555
Co0 O13 2.171589 1_555
Co0 O6 2.221285 1_555
Co1 O3 2.076856 1_565
Co1 O1 2.080822 1_555
Co1 O8 2.090035 1_455
Co1 O2 2.094383 1_555
Co1 O15 2.171589 1_555
Co1 O7 2.221285 1_555
Co2 O12 2.091085 1_555
Co2 O11 2.129721 1_555
Co2 O10 2.129721 1_555
Co2 O5 2.238308 1_655
Co2 O0 2.238308 1_565
Co2 O4 2.275609 1_665
O0 Sn0 2.104514 1_555
O1 Sn0 2.034632 1_555
O5 Sn0 2.104514 1_555
O6 Sn0 2.144956 1_555
O7 Sn0 2.144956 1_555
O8 Sn1 1.984092 1_555
O9 Sn0 2.257757 1_555
O10 Sn1 2.190429 1_554
O11 Sn1 2.190429 1_554
O13 Sn1 2.055734 1_555
O14 Sn1 2.443533 1_554
O15 Sn1 2.055734 1_555
