# generated using pymatgen
data_Li4Fe3Cu3(SnO8)2
_symmetry_space_group_name_H-M   'P 1'
_cell_length_a   5.95735835
_cell_length_b   5.98580634
_cell_length_c   9.77258667
_cell_angle_alpha   89.96885282
_cell_angle_beta   90.27061140
_cell_angle_gamma   119.85917999
_symmetry_Int_Tables_number   1
_chemical_formula_structural   Li4Fe3Cu3(SnO8)2
_chemical_formula_sum   'Li4 Fe3 Cu3 Sn2 O16'
_cell_volume   302.22144412
_cell_formula_units_Z   1
loop_
 _symmetry_equiv_pos_site_id
 _symmetry_equiv_pos_as_xyz
  1  'x, y, z'
loop_
 _atom_site_type_symbol
 _atom_site_label
 _atom_site_symmetry_multiplicity
 _atom_site_fract_x
 _atom_site_fract_y
 _atom_site_fract_z
 _atom_site_occupancy
  Li  Li0  1  0.31756200  0.66044600  0.89778400  1
  Li  Li1  1  0.00351500  0.00312200  0.99434400  1
  Li  Li2  1  0.01449000  0.00674100  0.49198100  1
  Li  Li3  1  0.66124100  0.32749300  0.39589200  1
  Fe  Fe0  1  0.66131100  0.83187300  0.21396700  1
  Fe  Fe1  1  0.83238600  0.66205100  0.71442700  1
  Fe  Fe2  1  0.83166700  0.16971000  0.71521000  1
  Cu  Cu0  1  0.16933600  0.82950000  0.21480400  1
  Cu  Cu1  1  0.17243300  0.33959200  0.21456800  1
  Cu  Cu2  1  0.33955800  0.17070600  0.71386900  1
  Sn  Sn0  1  0.34002700  0.66775100  0.49063100  1
  Sn  Sn1  1  0.66638500  0.33606700  0.99047000  1
  O  O0  1  0.15513000  0.82925900  0.59695600  1
  O  O1  1  0.03414200  0.51002300  0.33888600  1
  O  O2  1  0.32059600  0.65966800  0.11263100  1
  O  O3  1  0.01386900  0.00778200  0.30264700  1
  O  O4  1  0.01898700  0.00879500  0.80639900  1
  O  O5  1  0.16103100  0.32145800  0.59911600  1
  O  O6  1  0.47850600  0.96554100  0.33866000  1
  O  O7  1  0.49285700  0.52187700  0.34096500  1
  O  O8  1  0.31881200  0.16363900  0.09873700  1
  O  O9  1  0.68351200  0.84316300  0.59845200  1
  O  O10  1  0.51701300  0.49125400  0.84173600  1
  O  O11  1  0.51008600  0.03179900  0.83938200  1
  O  O12  1  0.65066100  0.32521200  0.60916500  1
  O  O13  1  0.84220700  0.68238700  0.09958900  1
  O  O14  1  0.96224300  0.48018000  0.83970000  1
  O  O15  1  0.83043500  0.15321300  0.09687400  1
loop_
_geom_bond_atom_site_label_1
_geom_bond_atom_site_label_2
_geom_bond_distance
_geom_bond_site_symmetry_2
Li0 O14 1.918904 1_455
Li0 O10 1.985566 1_555
Li0 O11 2.012077 1_565
Li0 O2 2.099626 1_556
Li1 O4 1.838903 1_555
Li1 O8 1.917817 1_556
Li1 O15 1.951265 1_456
Li1 O13 1.958899 1_446
Li2 O3 1.850282 1_555
Li2 O0 1.939084 1_545
Li2 O5 1.939864 1_555
Li2 O9 2.006250 1_445
Li3 O7 1.950556 1_555
Li3 O6 1.959336 1_545
Li3 O1 2.008325 1_655
Li3 O12 2.085311 1_555
Fe0 O3 2.013149 1_665
Fe0 O2 2.015430 1_555
Fe0 O15 2.025612 1_565
Fe0 O7 2.036082 1_555
Fe0 O13 2.045499 1_555
Fe0 O6 2.047517 1_555
Fe1 O4 2.011625 1_665
Fe1 O14 2.027455 1_555
Fe1 O12 2.028232 1_555
Fe1 O0 2.029739 1_655
Fe1 O9 2.047671 1_555
Fe1 O10 2.056947 1_555
Fe2 O4 2.006786 1_655
Fe2 O12 2.022616 1_555
Fe2 O14 2.023101 1_555
Fe2 O9 2.043688 1_545
Fe2 O5 2.051210 1_655
Fe2 O11 2.066473 1_555
Cu0 O3 1.930348 1_565
Cu0 O2 1.940150 1_555
Cu0 O6 2.001772 1_555
Cu0 O13 2.027970 1_455
Cu0 O1 2.061346 1_555
Cu0 O8 2.076901 1_565
Cu1 O3 1.927606 1_555
Cu1 O2 1.940242 1_555
Cu1 O1 2.010760 1_555
Cu1 O8 2.018964 1_555
Cu1 O7 2.065284 1_555
Cu1 O15 2.105826 1_455
Cu2 O4 1.891166 1_555
Cu2 O12 1.909810 1_555
Cu2 O11 2.013979 1_555
Cu2 O5 2.036244 1_555
Cu2 O10 2.081100 1_555
Cu2 O0 2.108197 1_545
O0 Sn0 2.073602 1_555
O1 Sn0 2.161948 1_555
O5 Sn0 2.089279 1_555
O6 Sn0 2.146634 1_555
O7 Sn0 2.129840 1_555
O8 Sn1 2.088942 1_554
O9 Sn0 2.059458 1_555
O10 Sn1 2.139359 1_555
O11 Sn1 2.159980 1_555
O13 Sn1 2.088394 1_554
O14 Sn1 2.128570 1_555
O15 Sn1 2.070914 1_554
