# generated using pymatgen
data_Ba3La2Cl12
_symmetry_space_group_name_H-M   'P 1'
_cell_length_a   11.75990600
_cell_length_b   11.75990600
_cell_length_c   7.16450200
_cell_angle_alpha   90.00000000
_cell_angle_beta   90.00000000
_cell_angle_gamma   90.00000000
_symmetry_Int_Tables_number   1
_chemical_formula_structural   Ba3La2Cl12
_chemical_formula_sum   'Ba6 La4 Cl24'
_cell_volume   990.81759200
_cell_formula_units_Z   2
loop_
 _symmetry_equiv_pos_site_id
 _symmetry_equiv_pos_as_xyz
  1  'x, y, z'
loop_
 _atom_site_type_symbol
 _atom_site_label
 _atom_site_symmetry_multiplicity
 _atom_site_fract_x
 _atom_site_fract_y
 _atom_site_fract_z
 _atom_site_occupancy
  Ba  Ba0  1  0.00000000  0.00000000  0.00000000  1
  Ba  Ba1  1  0.68244000  0.18244000  0.50000000  1
  Ba  Ba2  1  0.18244000  0.31756000  0.50000000  1
  Ba  Ba3  1  0.50000000  0.50000000  0.00000000  1
  Ba  Ba4  1  0.81756000  0.68244000  0.50000000  1
  Ba  Ba5  1  0.31756000  0.81756000  0.50000000  1
  La  La0  1  0.36403000  0.13597000  0.00000000  1
  La  La1  1  0.86403000  0.36403000  0.00000000  1
  La  La2  1  0.13597000  0.63597000  0.00000000  1
  La  La3  1  0.63597000  0.86403000  0.00000000  1
  Cl  Cl0  1  0.50000000  0.00000000  0.25626800  1
  Cl  Cl1  1  0.50000000  0.00000000  0.74373200  1
  Cl  Cl2  1  0.20789900  0.06163800  0.27041000  1
  Cl  Cl3  1  0.20789900  0.06163800  0.72959000  1
  Cl  Cl4  1  0.68890500  0.18890500  0.00000000  1
  Cl  Cl5  1  0.93836200  0.20789900  0.27041000  1
  Cl  Cl6  1  0.93836200  0.20789900  0.72959000  1
  Cl  Cl7  1  0.43836200  0.29210100  0.27041000  1
  Cl  Cl8  1  0.43836200  0.29210100  0.72959000  1
  Cl  Cl9  1  0.18890500  0.31109500  0.00000000  1
  Cl  Cl10  1  0.70789900  0.43836200  0.27041000  1
  Cl  Cl11  1  0.70789900  0.43836200  0.72959000  1
  Cl  Cl12  1  0.00000000  0.50000000  0.74373200  1
  Cl  Cl13  1  0.00000000  0.50000000  0.25626800  1
  Cl  Cl14  1  0.29210100  0.56163800  0.27041000  1
  Cl  Cl15  1  0.29210100  0.56163800  0.72959000  1
  Cl  Cl16  1  0.81109500  0.68890500  0.00000000  1
  Cl  Cl17  1  0.56163800  0.70789900  0.27041000  1
  Cl  Cl18  1  0.56163800  0.70789900  0.72959000  1
  Cl  Cl19  1  0.06163800  0.79210100  0.27041000  1
  Cl  Cl20  1  0.06163800  0.79210100  0.72959000  1
  Cl  Cl21  1  0.31109500  0.81109500  0.00000000  1
  Cl  Cl22  1  0.79210100  0.93836200  0.27041000  1
  Cl  Cl23  1  0.79210100  0.93836200  0.72959000  1
loop_
_geom_bond_atom_site_label_1
_geom_bond_atom_site_label_2
_geom_bond_distance
_geom_bond_site_symmetry_2
Ba0 Cl22 3.202524 1_445
Ba0 Cl19 3.202524 1_545
Ba0 Cl3 3.202524 1_554
Ba0 Cl5 3.202524 1_455
Ba0 Cl6 3.202524 1_454
Ba0 Cl23 3.202524 1_444
Ba0 Cl20 3.202524 1_544
Ba0 Cl2 3.202524 1_555
Ba1 Cl11 3.442838 1_555
Ba1 Cl5 3.442838 1_555
Ba1 Cl6 3.442838 1_555
Ba1 Cl10 3.442838 1_555
Ba1 Cl0 3.500775 1_555
Ba1 Cl1 3.500775 1_555
Ba1 Cl22 3.550716 1_545
Ba1 Cl23 3.550716 1_545
Ba1 Cl8 3.550716 1_555
Ba1 Cl7 3.550716 1_555
Ba1 Cl4 3.583864 1_556
Ba1 Cl4 3.583864 1_555
Ba2 Cl8 3.442838 1_555
Ba2 Cl2 3.442838 1_555
Ba2 Cl3 3.442838 1_555
Ba2 Cl7 3.442838 1_555
Ba2 Cl13 3.500775 1_555
Ba2 Cl12 3.500775 1_555
Ba2 Cl6 3.550716 1_455
Ba2 Cl5 3.550716 1_455
Ba2 Cl14 3.550716 1_555
Ba2 Cl15 3.550716 1_555
Ba2 Cl9 3.583864 1_556
Ba2 Cl9 3.583864 1_555
Ba3 Cl17 3.202524 1_555
Ba3 Cl10 3.202524 1_555
Ba3 Cl15 3.202524 1_554
Ba3 Cl7 3.202524 1_555
Ba3 Cl18 3.202524 1_554
Ba3 Cl14 3.202524 1_555
Ba3 Cl11 3.202524 1_554
Ba3 Cl8 3.202524 1_554
Ba4 Cl23 3.442838 1_555
Ba4 Cl22 3.442838 1_555
Ba4 Cl17 3.442838 1_555
Ba4 Cl18 3.442838 1_555
Ba4 Cl12 3.500775 1_655
Ba4 Cl13 3.500775 1_655
Ba4 Cl11 3.550716 1_555
Ba4 Cl10 3.550716 1_555
Ba4 Cl20 3.550716 1_655
Ba4 Cl19 3.550716 1_655
Ba4 Cl16 3.583864 1_555
Ba4 Cl16 3.583864 1_556
Ba5 Cl14 3.442838 1_555
Ba5 Cl19 3.442838 1_555
Ba5 Cl20 3.442838 1_555
Ba5 Cl15 3.442838 1_555
Ba5 Cl1 3.500775 1_565
Ba5 Cl0 3.500775 1_565
Ba5 Cl18 3.550716 1_555
Ba5 Cl17 3.550716 1_555
Ba5 Cl3 3.550716 1_565
Ba5 Cl2 3.550716 1_565
Ba5 Cl21 3.583864 1_556
Ba5 Cl21 3.583864 1_555
Cl0 La0 2.912831 1_555
Cl0 La3 2.912831 1_545
Cl1 La0 2.912831 1_556
Cl1 La3 2.912831 1_546
Cl2 La0 2.808677 1_555
Cl3 La0 2.808677 1_556
Cl4 La1 2.912507 1_555
Cl5 La1 2.808677 1_555
Cl6 La1 2.808677 1_556
Cl7 La0 2.808677 1_555
Cl8 La0 2.808677 1_556
Cl9 La0 2.912507 1_555
Cl10 La1 2.808677 1_555
Cl11 La1 2.808677 1_556
Cl12 La1 2.912831 1_456
Cl12 La2 2.912831 1_556
Cl13 La1 2.912831 1_455
Cl13 La2 2.912831 1_555
Cl14 La2 2.808677 1_555
Cl15 La2 2.808677 1_556
Cl16 La3 2.912507 1_555
Cl17 La3 2.808677 1_555
Cl18 La3 2.808677 1_556
Cl19 La2 2.808677 1_555
Cl20 La2 2.808677 1_556
Cl21 La2 2.912507 1_555
Cl22 La3 2.808677 1_555
Cl23 La3 2.808677 1_556
