# generated using pymatgen
data_Ho2TeO6
_symmetry_space_group_name_H-M   'P 1'
_cell_length_a   4.97794700
_cell_length_b   4.97794700
_cell_length_c   10.05393800
_cell_angle_alpha   90.00000000
_cell_angle_beta   90.00000000
_cell_angle_gamma   90.00000000
_symmetry_Int_Tables_number   1
_chemical_formula_structural   Ho2TeO6
_chemical_formula_sum   'Ho4 Te2 O12'
_cell_volume   249.13614463
_cell_formula_units_Z   2
loop_
 _symmetry_equiv_pos_site_id
 _symmetry_equiv_pos_as_xyz
  1  'x, y, z'
loop_
 _atom_site_type_symbol
 _atom_site_label
 _atom_site_symmetry_multiplicity
 _atom_site_fract_x
 _atom_site_fract_y
 _atom_site_fract_z
 _atom_site_occupancy
  Ho  Ho0  1  0.50000000  0.50000000  0.33451100  1
  Ho  Ho1  1  0.50000000  0.50000000  0.66548900  1
  Ho  Ho2  1  0.00000000  0.00000000  0.16548900  1
  Ho  Ho3  1  0.00000000  0.00000000  0.83451100  1
  Te  Te0  1  0.50000000  0.50000000  0.00000000  1
  Te  Te1  1  0.00000000  0.00000000  0.50000000  1
  O  O0  1  0.68351900  0.68351900  0.14651100  1
  O  O1  1  0.68351900  0.68351900  0.85348900  1
  O  O2  1  0.72130100  0.72130100  0.50000000  1
  O  O3  1  0.77869900  0.22130100  0.00000000  1
  O  O4  1  0.81648100  0.18351900  0.35348900  1
  O  O5  1  0.81648100  0.18351900  0.64651100  1
  O  O6  1  0.18351900  0.81648100  0.35348900  1
  O  O7  1  0.18351900  0.81648100  0.64651100  1
  O  O8  1  0.22130100  0.77869900  0.00000000  1
  O  O9  1  0.27869900  0.27869900  0.50000000  1
  O  O10  1  0.31648100  0.31648100  0.14651100  1
  O  O11  1  0.31648100  0.31648100  0.85348900  1
loop_
_geom_bond_atom_site_label_1
_geom_bond_atom_site_label_2
_geom_bond_distance
_geom_bond_site_symmetry_2
Ho0 O4 2.236144 1_555
Ho0 O6 2.236144 1_555
Ho0 O2 2.279350 1_555
Ho0 O9 2.279350 1_555
Ho0 O10 2.289491 1_555
Ho0 O0 2.289491 1_555
Ho1 O7 2.236144 1_555
Ho1 O5 2.236144 1_555
Ho1 O2 2.279350 1_555
Ho1 O9 2.279350 1_555
Ho1 O1 2.289491 1_555
Ho1 O11 2.289491 1_555
Ho2 O0 2.236144 1_445
Ho2 O10 2.236144 1_555
Ho2 O3 2.279350 1_455
Ho2 O8 2.279350 1_545
Ho2 O6 2.289491 1_545
Ho2 O4 2.289491 1_455
Ho3 O1 2.236144 1_445
Ho3 O11 2.236144 1_555
Ho3 O3 2.279350 1_456
Ho3 O8 2.279350 1_546
Ho3 O5 2.289491 1_455
Ho3 O7 2.289491 1_545
O0 Te0 1.959312 1_555
O1 Te0 1.959312 1_556
O2 Te1 1.962008 1_665
O3 Te0 1.962008 1_555
O4 Te1 1.959312 1_655
O5 Te1 1.959312 1_655
O6 Te1 1.959312 1_565
O7 Te1 1.959312 1_565
O8 Te0 1.962008 1_555
O9 Te1 1.962008 1_555
O10 Te0 1.959312 1_555
O11 Te0 1.959312 1_556
