# generated using pymatgen
data_LiCr2O4
_symmetry_space_group_name_H-M   'P 1'
_cell_length_a   5.79505202
_cell_length_b   5.79505202
_cell_length_c   5.08743600
_cell_angle_alpha   89.70293104
_cell_angle_beta   89.70293104
_cell_angle_gamma   60.88940944
_symmetry_Int_Tables_number   1
_chemical_formula_structural   LiCr2O4
_chemical_formula_sum   'Li2 Cr4 O8'
_cell_volume   149.26546120
_cell_formula_units_Z   2
loop_
 _symmetry_equiv_pos_site_id
 _symmetry_equiv_pos_as_xyz
  1  'x, y, z'
loop_
 _atom_site_type_symbol
 _atom_site_label
 _atom_site_symmetry_multiplicity
 _atom_site_fract_x
 _atom_site_fract_y
 _atom_site_fract_z
 _atom_site_occupancy
  Li  Li0  1  0.85948100  0.14051900  0.25000000  1
  Li  Li1  1  0.14051900  0.85948100  0.75000000  1
  Cr  Cr0  1  0.38993800  0.14118500  0.75081300  1
  Cr  Cr1  1  0.61006200  0.85881500  0.24918700  1
  Cr  Cr2  1  0.85881500  0.61006200  0.74918700  1
  Cr  Cr3  1  0.14118500  0.38993800  0.25081300  1
  O  O0  1  0.73532400  0.96252100  0.57095900  1
  O  O1  1  0.50905100  0.78087300  0.90750300  1
  O  O2  1  0.26467600  0.03747900  0.42904100  1
  O  O3  1  0.78087300  0.50905100  0.40750300  1
  O  O4  1  0.96252100  0.73532400  0.07095900  1
  O  O5  1  0.49094900  0.21912700  0.09249700  1
  O  O6  1  0.21912700  0.49094900  0.59249700  1
  O  O7  1  0.03747900  0.26467600  0.92904100  1
loop_
_geom_bond_atom_site_label_1
_geom_bond_atom_site_label_2
_geom_bond_distance
_geom_bond_site_symmetry_2
Li0 O3 2.116125 1_555
Li0 O5 2.116125 1_555
Li0 O0 2.222697 1_545
Li0 O7 2.222697 1_654
Li0 O4 2.313483 1_545
Li0 O2 2.313483 1_655
Li1 O1 2.116125 1_555
Li1 O6 2.116125 1_555
Li1 O4 2.222697 1_456
Li1 O2 2.222697 1_565
Li1 O0 2.313483 1_455
Li1 O7 2.313483 1_565
Cr0 O6 1.943201 1_555
Cr0 O5 1.960685 1_556
Cr0 O0 1.972259 1_545
Cr0 O2 2.003710 1_555
Cr0 O1 2.014410 1_545
Cr0 O7 2.017787 1_555
Cr1 O3 1.943201 1_555
Cr1 O1 1.960685 1_554
Cr1 O2 1.972259 1_565
Cr1 O0 2.003710 1_555
Cr1 O5 2.014410 1_565
Cr1 O4 2.017787 1_555
Cr2 O1 1.943201 1_555
Cr2 O3 1.960685 1_555
Cr2 O7 1.972259 1_655
Cr2 O4 2.003710 1_556
Cr2 O6 2.014410 1_655
Cr2 O0 2.017787 1_555
Cr3 O5 1.943201 1_555
Cr3 O6 1.960685 1_555
Cr3 O4 1.972259 1_455
Cr3 O7 2.003710 1_554
Cr3 O3 2.014410 1_455
Cr3 O2 2.017787 1_555
