# generated using pymatgen
data_Li6MnFe5(BO3)6
_symmetry_space_group_name_H-M   'P 1'
_cell_length_a   3.13674100
_cell_length_b   8.25289000
_cell_length_c   14.26019736
_cell_angle_alpha   89.93796390
_cell_angle_beta   90.00000000
_cell_angle_gamma   90.00000000
_symmetry_Int_Tables_number   1
_chemical_formula_structural   Li6MnFe5(BO3)6
_chemical_formula_sum   'Li6 Mn1 Fe5 B6 O18'
_cell_volume   369.15605711
_cell_formula_units_Z   1
loop_
 _symmetry_equiv_pos_site_id
 _symmetry_equiv_pos_as_xyz
  1  'x, y, z'
loop_
 _atom_site_type_symbol
 _atom_site_label
 _atom_site_symmetry_multiplicity
 _atom_site_fract_x
 _atom_site_fract_y
 _atom_site_fract_z
 _atom_site_occupancy
  Li  Li0  1  0.50000000  0.70628200  0.99032800  1
  Li  Li1  1  0.50000000  0.65920400  0.35748700  1
  Li  Li2  1  0.50000000  0.63393000  0.65117400  1
  Li  Li3  1  0.50000000  0.20666600  0.49190800  1
  Li  Li4  1  0.50000000  0.15990800  0.85724600  1
  Li  Li5  1  0.50000000  0.13486600  0.15074900  1
  Mn  Mn0  1  0.00000000  0.80820700  0.17979900  1
  Fe  Fe0  1  0.00000000  0.86311900  0.50430000  1
  Fe  Fe1  1  0.00000000  0.82498400  0.81611000  1
  Fe  Fe2  1  0.00000000  0.36222800  0.00383700  1
  Fe  Fe3  1  0.00000000  0.32455300  0.31650700  1
  Fe  Fe4  1  0.00000000  0.31151600  0.67993600  1
  B  B0  1  0.50000000  0.00008700  0.66658900  1
  B  B1  1  0.00000000  0.00150000  0.99978100  1
  B  B2  1  0.50000000  0.00111600  0.33454600  1
  B  B3  1  0.50000000  0.49769200  0.16621600  1
  B  B4  1  0.00000000  0.50009300  0.50015800  1
  B  B5  1  0.50000000  0.50014400  0.83334000  1
  O  O0  1  0.50000000  0.98963900  0.43179700  1
  O  O1  1  0.50000000  0.98249000  0.76389100  1
  O  O2  1  0.50000000  0.86333000  0.60940300  1
  O  O3  1  0.50000000  0.86113500  0.28067000  1
  O  O4  1  0.00000000  0.84825100  0.95817000  1
  O  O5  1  0.50000000  0.65140300  0.12517100  1
  O  O6  1  0.50000000  0.65211700  0.79090600  1
  O  O7  1  0.00000000  0.63915100  0.44486600  1
  O  O8  1  0.00000000  0.51293300  0.59746400  1
  O  O9  1  0.50000000  0.48753700  0.93054700  1
  O  O10  1  0.50000000  0.48227300  0.26348500  1
  O  O11  1  0.50000000  0.36119100  0.10918700  1
  O  O12  1  0.50000000  0.36076400  0.77848400  1
  O  O13  1  0.00000000  0.34796300  0.45812500  1
  O  O14  1  0.50000000  0.15465000  0.62699700  1
  O  O15  1  0.50000000  0.15235700  0.29118300  1
  O  O16  1  0.00000000  0.13948000  0.94325600  1
  O  O17  1  0.00000000  0.01723600  0.09639200  1
loop_
_geom_bond_atom_site_label_1
_geom_bond_atom_site_label_2
_geom_bond_distance
_geom_bond_site_symmetry_2
Li0 O5 1.975029 1_556
Li0 O9 1.997273 1_555
Li0 O4 2.010396 1_655
Li0 O4 2.010396 1_555
Li1 O10 1.983256 1_555
Li1 O3 1.993307 1_555
Li1 O7 2.009813 1_555
Li1 O7 2.009813 1_655
Li2 O2 1.984094 1_555
Li2 O6 1.998413 1_555
Li2 O8 2.011273 1_555
Li2 O8 2.011273 1_655
Li3 O14 1.973194 1_555
Li3 O0 1.986491 1_545
Li3 O13 2.012576 1_555
Li3 O13 2.012576 1_655
Li4 O1 1.979998 1_545
Li4 O16 1.998027 1_555
Li4 O16 1.998027 1_655
Li4 O12 2.001309 1_555
Li5 O11 1.959001 1_555
Li5 O17 2.001172 1_655
Li5 O17 2.001172 1_555
Li5 O15 2.007968 1_555
Mn0 O17 2.094320 1_565
Mn0 O3 2.172800 1_455
Mn0 O3 2.172800 1_555
Mn0 O5 2.177953 1_555
Mn0 O5 2.177953 1_455
Fe0 O7 2.034266 1_555
Fe0 O0 2.148644 1_555
Fe0 O0 2.148644 1_455
Fe0 O2 2.169370 1_455
Fe0 O2 2.169370 1_555
Fe1 O4 2.035091 1_555
Fe1 O6 2.150677 1_455
Fe1 O6 2.150677 1_555
Fe1 O1 2.168383 1_455
Fe1 O1 2.168383 1_555
Fe2 O16 2.032033 1_554
Fe2 O9 2.149240 1_454
Fe2 O9 2.149240 1_554
Fe2 O11 2.171813 1_555
Fe2 O11 2.171813 1_455
Fe3 O13 2.028929 1_555
Fe3 O15 2.147295 1_455
Fe3 O15 2.147295 1_555
Fe3 O10 2.173391 1_455
Fe3 O10 2.173391 1_555
Fe4 O8 2.035203 1_555
Fe4 O12 2.145023 1_455
Fe4 O12 2.145023 1_555
Fe4 O14 2.169744 1_455
Fe4 O14 2.169744 1_555
B0 O2 1.393139 1_545
B0 O14 1.394394 1_555
B0 O1 1.394969 1_545
B1 O17 1.383939 1_556
B1 O16 1.394437 1_555
B1 O4 1.397609 1_545
B2 O3 1.388084 1_545
B2 O0 1.389947 1_545
B2 O15 1.392353 1_555
B3 O11 1.390114 1_555
B3 O10 1.392763 1_555
B3 O5 1.396504 1_555
B4 O7 1.391686 1_555
B4 O8 1.391757 1_555
B4 O13 1.391840 1_555
B5 O9 1.389978 1_555
B5 O12 1.391775 1_555
B5 O6 1.391971 1_555
