# generated using pymatgen
data_Li4Co2Cu3Sb3O16
_symmetry_space_group_name_H-M   'P 1'
_cell_length_a   6.05033400
_cell_length_b   6.07185694
_cell_length_c   9.69335652
_cell_angle_alpha   89.35807394
_cell_angle_beta   89.21438474
_cell_angle_gamma   60.23290868
_symmetry_Int_Tables_number   1
_chemical_formula_structural   Li4Co2Cu3Sb3O16
_chemical_formula_sum   'Li4 Co2 Cu3 Sb3 O16'
_cell_volume   309.08205324
_cell_formula_units_Z   1
loop_
 _symmetry_equiv_pos_site_id
 _symmetry_equiv_pos_as_xyz
  1  'x, y, z'
loop_
 _atom_site_type_symbol
 _atom_site_label
 _atom_site_symmetry_multiplicity
 _atom_site_fract_x
 _atom_site_fract_y
 _atom_site_fract_z
 _atom_site_occupancy
  Li  Li0  1  0.67086500  0.66987400  0.89772000  1
  Li  Li1  1  0.01203000  0.01198400  0.00602200  1
  Li  Li2  1  0.02477000  0.02512400  0.48680200  1
  Li  Li3  1  0.33142100  0.33013300  0.38386100  1
  Co  Co0  1  0.64487500  0.64408900  0.47533200  1
  Co  Co1  1  0.32292800  0.32450300  0.00072200  1
  Cu  Cu0  1  0.33704600  0.82652200  0.21108900  1
  Cu  Cu1  1  0.82787500  0.33799600  0.21055000  1
  Cu  Cu2  1  0.16702700  0.16707000  0.72048500  1
  Sb  Sb0  1  0.82772000  0.82852400  0.21534900  1
  Sb  Sb1  1  0.16685900  0.66062700  0.71365900  1
  Sb  Sb2  1  0.66122600  0.16623700  0.71398100  1
  O  O0  1  0.32024900  0.83211000  0.60491100  1
  O  O1  1  0.52440500  0.50985900  0.35447400  1
  O  O2  1  0.66416700  0.66300800  0.10757200  1
  O  O3  1  0.00099700  0.00392600  0.30242500  1
  O  O4  1  0.98711200  0.98580800  0.82202100  1
  O  O5  1  0.83480800  0.31862100  0.60597500  1
  O  O6  1  0.51955400  0.96195800  0.34051200  1
  O  O7  1  0.96339300  0.52515700  0.34235600  1
  O  O8  1  0.16718600  0.18453800  0.08988200  1
  O  O9  1  0.84211900  0.84246800  0.59833900  1
  O  O10  1  0.03598500  0.48761600  0.83533600  1
  O  O11  1  0.48647900  0.03603800  0.83553300  1
  O  O12  1  0.34445200  0.34360800  0.59669100  1
  O  O13  1  0.15497300  0.67817700  0.09979500  1
  O  O14  1  0.48340400  0.48241300  0.83763400  1
  O  O15  1  0.67577500  0.15230900  0.09881000  1
loop_
_geom_bond_atom_site_label_1
_geom_bond_atom_site_label_2
_geom_bond_distance
_geom_bond_site_symmetry_2
Li0 O10 2.005333 1_655
Li0 O11 2.019050 1_565
Li0 O2 2.034391 1_556
Li0 O14 2.058175 1_555
Li1 O4 1.807399 1_444
Li1 O8 1.912164 1_555
Li1 O15 1.979830 1_455
Li1 O13 1.980395 1_545
Li2 O3 1.806112 1_555
Li2 O5 1.951196 1_455
Li2 O0 1.955996 1_545
Li2 O9 2.185758 1_445
Li3 O1 1.970905 1_555
Li3 O7 1.979387 1_455
Li3 O6 1.987705 1_545
Li3 O12 2.069705 1_555
Co0 O1 1.789603 1_555
Co0 O7 2.113698 1_555
Co0 O0 2.115817 1_555
Co0 O6 2.127310 1_555
Co0 O5 2.135060 1_555
Co0 O9 2.407347 1_555
Co1 O8 1.764502 1_555
Co1 O15 2.090882 1_555
Co1 O13 2.102165 1_555
Co1 O10 2.213243 1_554
Co1 O11 2.215711 1_554
Co1 O14 2.282432 1_554
Cu0 O3 1.968607 1_565
Cu0 O2 1.981537 1_555
Cu0 O13 2.056281 1_555
Cu0 O6 2.105288 1_555
Cu0 O1 2.175499 1_555
Cu0 O8 2.218030 1_565
Cu1 O3 1.969821 1_655
Cu1 O2 1.978379 1_555
Cu1 O15 2.091930 1_555
Cu1 O1 2.113382 1_555
Cu1 O8 2.123701 1_655
Cu1 O7 2.140693 1_555
Cu2 O11 2.030928 1_555
Cu2 O10 2.036724 1_555
Cu2 O5 2.078649 1_455
Cu2 O0 2.097942 1_545
Cu2 O4 2.121532 1_445
Cu2 O12 2.195389 1_555
O0 Sb1 1.991160 1_555
O2 Sb0 2.029780 1_555
O3 Sb0 2.024570 1_445
O4 Sb1 2.016807 1_655
O4 Sb2 2.017599 1_565
O5 Sb2 1.992030 1_555
O6 Sb0 2.016136 1_555
O7 Sb0 2.014442 1_555
O9 Sb2 2.048999 1_565
O9 Sb1 2.051226 1_655
O10 Sb1 1.973384 1_555
O11 Sb2 1.976355 1_555
O12 Sb1 2.026591 1_555
O12 Sb2 2.026957 1_555
O13 Sb0 2.043450 1_455
O14 Sb2 2.060349 1_555
O14 Sb1 2.063795 1_555
O15 Sb0 2.042162 1_545
