# generated using pymatgen
data_Na2NiPCO7
_symmetry_space_group_name_H-M   'P 1'
_cell_length_a   10.09848388
_cell_length_b   10.32168703
_cell_length_c   6.66640153
_cell_angle_alpha   90.48000207
_cell_angle_beta   90.24369473
_cell_angle_gamma   60.59041195
_symmetry_Int_Tables_number   1
_chemical_formula_structural   Na2NiPCO7
_chemical_formula_sum   'Na8 Ni4 P4 C4 O28'
_cell_volume   605.29470928
_cell_formula_units_Z   4
loop_
 _symmetry_equiv_pos_site_id
 _symmetry_equiv_pos_as_xyz
  1  'x, y, z'
loop_
 _atom_site_type_symbol
 _atom_site_label
 _atom_site_symmetry_multiplicity
 _atom_site_fract_x
 _atom_site_fract_y
 _atom_site_fract_z
 _atom_site_occupancy
  Na  Na0  1  0.00721500  0.25988100  0.48177400  1
  Na  Na1  1  0.00575300  0.26060300  0.01704400  1
  Na  Na2  1  0.48873400  0.25360600  0.98985000  1
  Na  Na3  1  0.49070500  0.25012500  0.51309900  1
  Na  Na4  1  0.85620100  0.05533300  0.73635700  1
  Na  Na5  1  0.50571200  0.74955500  0.01048600  1
  Na  Na6  1  0.50516500  0.74964900  0.48783300  1
  Na  Na7  1  0.99965600  0.73428400  0.97976600  1
  Ni  Ni0  1  0.28327500  0.06412100  0.75073800  1
  Ni  Ni1  1  0.21499200  0.43911900  0.25571300  1
  Ni  Ni2  1  0.78627300  0.56117600  0.74966100  1
  Ni  Ni3  1  0.71954900  0.93562500  0.25367600  1
  P  P0  1  0.35041500  0.07007800  0.24995500  1
  P  P1  1  0.15067900  0.43010300  0.75111000  1
  P  P2  1  0.85026100  0.57311800  0.25096700  1
  P  P3  1  0.64590200  0.93385800  0.74993500  1
  C  C0  1  0.82119100  0.10988400  0.24738100  1
  C  C1  1  0.32037700  0.60790500  0.25070000  1
  C  C2  1  0.68043400  0.38776500  0.74980700  1
  C  C3  1  0.18033900  0.89188900  0.75246700  1
  O  O0  1  0.09763200  0.03759000  0.74833500  1
  O  O1  1  0.26664600  0.05710800  0.06367700  1
  O  O2  1  0.26764300  0.05858100  0.43673000  1
  O  O3  1  0.14312700  0.28299500  0.75256600  1
  O  O4  1  0.01905200  0.44133400  0.25034500  1
  O  O5  1  0.47650800  0.06530200  0.75745000  1
  O  O6  1  0.35548200  0.21810500  0.24969700  1
  O  O7  1  0.23341600  0.44383400  0.93858700  1
  O  O8  1  0.23607500  0.43667000  0.56500600  1
  O  O9  1  0.67573000  0.15437600  0.25033800  1
  O  O10  1  0.17602200  0.65295800  0.24965600  1
  O  O11  1  0.40325400  0.46363600  0.25477600  1
  O  O12  1  0.62613900  0.29998400  0.75194500  1
  O  O13  1  0.11889400  0.81257400  0.75974900  1
  O  O14  1  0.87383000  0.19784600  0.24770200  1
  O  O15  1  0.37571100  0.69314100  0.24801800  1
  O  O16  1  0.59870300  0.53090500  0.74934400  1
  O  O17  1  0.82708700  0.33648200  0.74778900  1
  O  O18  1  0.32555800  0.84422700  0.74903400  1
  O  O19  1  0.76934700  0.55373800  0.06463700  1
  O  O20  1  0.76873900  0.55824400  0.43701800  1
  O  O21  1  0.64293100  0.78641500  0.74847000  1
  O  O22  1  0.51884800  0.93936700  0.24887800  1
  O  O23  1  0.98261300  0.55775500  0.75588900  1
  O  O24  1  0.85424200  0.71972600  0.24394000  1
  O  O25  1  0.71893500  0.96004400  0.56324000  1
  O  O26  1  0.73231400  0.94937600  0.93296600  1
  O  O27  1  0.90550500  0.96688300  0.24605200  1
loop_
_geom_bond_atom_site_label_1
_geom_bond_atom_site_label_2
_geom_bond_distance
_geom_bond_site_symmetry_2
Na0 O14 2.339165 1_455
Na0 O3 2.343663 1_555
Na0 O17 2.381231 1_455
Na0 O2 2.439978 1_555
Na0 O4 2.484377 1_555
Na0 O0 2.693109 1_555
Na0 O20 2.845742 1_455
Na1 O3 2.330030 1_554
Na1 O14 2.332472 1_455
Na1 O17 2.387224 1_454
Na1 O1 2.453335 1_555
Na1 O4 2.472343 1_555
Na1 O0 2.686233 1_554
Na1 O19 2.801966 1_455
Na2 O12 2.313790 1_555
Na2 O6 2.336754 1_556
Na2 O7 2.377324 1_555
Na2 O9 2.394347 1_556
Na2 O5 2.525216 1_555
Na2 O11 2.583578 1_556
Na2 O26 2.908112 1_545
Na3 O12 2.308597 1_555
Na3 O6 2.338889 1_555
Na3 O8 2.360734 1_555
Na3 O9 2.391977 1_555
Na3 O5 2.576029 1_555
Na3 O11 2.596432 1_555
Na3 O25 2.760701 1_545
Na4 O25 2.350969 1_545
Na4 O0 2.354625 1_655
Na4 O26 2.420917 1_545
Na4 O12 2.453776 1_555
Na4 O13 2.610566 1_645
Na4 O17 2.769842 1_555
Na5 O15 2.313837 1_555
Na5 O18 2.357571 1_554
Na5 O21 2.380207 1_554
Na5 O19 2.454126 1_555
Na5 O22 2.565711 1_555
Na5 O16 2.621547 1_554
Na5 O1 2.914302 1_565
Na6 O15 2.306617 1_555
Na6 O18 2.352488 1_555
Na6 O21 2.363337 1_555
Na6 O20 2.436094 1_555
Na6 O22 2.590580 1_555
Na6 O16 2.643215 1_555
Na6 O2 2.921800 1_565
Na7 O13 2.290127 1_655
Na7 O24 2.350220 1_556
Na7 O10 2.375620 1_656
Na7 O23 2.416038 1_555
Na7 O26 2.536310 1_555
Na7 O27 2.742313 1_556
Na7 O7 2.770726 1_655
Ni0 O5 1.957694 1_555
Ni0 O3 1.991611 1_555
Ni0 O0 2.023279 1_555
Ni0 O18 2.093252 1_545
Ni0 O1 2.098338 1_556
Ni0 O2 2.100990 1_555
Ni1 O4 1.967747 1_555
Ni1 O6 2.009696 1_555
Ni1 O11 2.037426 1_555
Ni1 O10 2.043634 1_555
Ni1 O8 2.071023 1_555
Ni1 O7 2.126105 1_554
Ni2 O23 1.965904 1_555
Ni2 O21 2.048289 1_555
Ni2 O16 2.065601 1_555
Ni2 O20 2.092186 1_555
Ni2 O19 2.112517 1_556
Ni2 O17 2.146998 1_555
Ni3 O24 1.960043 1_555
Ni3 O22 2.008214 1_555
Ni3 O27 2.056501 1_555
Ni3 O25 2.076582 1_555
Ni3 O9 2.076980 1_565
Ni3 O26 2.152470 1_554
C0 O14 1.257311 1_555
C0 O27 1.291993 1_545
C0 O9 1.306385 1_555
C1 O15 1.252891 1_555
C1 O10 1.294444 1_555
C1 O11 1.301971 1_555
C2 O12 1.268830 1_555
C2 O16 1.290943 1_555
C2 O17 1.305302 1_555
C3 O13 1.247959 1_555
C3 O18 1.297962 1_555
C3 O0 1.314123 1_565
O1 P0 1.541140 1_555
O2 P0 1.540073 1_555
O3 P1 1.557381 1_555
O4 P2 1.574355 1_455
O5 P3 1.577888 1_545
O6 P0 1.553670 1_555
O7 P1 1.544220 1_555
O8 P1 1.534728 1_555
O19 P2 1.548659 1_555
O20 P2 1.541308 1_555
O21 P3 1.536765 1_555
O22 P0 1.568316 1_565
O23 P1 1.556001 1_655
O24 P2 1.534491 1_555
O25 P3 1.541168 1_555
O26 P3 1.549471 1_555
