# generated using pymatgen
data_Na4VP2O9
_symmetry_space_group_name_H-M   'P 1'
_cell_length_a   7.08910400
_cell_length_b   14.67030700
_cell_length_c   16.20830100
_cell_angle_alpha   90.00000000
_cell_angle_beta   90.00000000
_cell_angle_gamma   90.00000000
_symmetry_Int_Tables_number   1
_chemical_formula_structural   Na4VP2O9
_chemical_formula_sum   'Na32 V8 P16 O72'
_cell_volume   1685.65247742
_cell_formula_units_Z   8
loop_
 _symmetry_equiv_pos_site_id
 _symmetry_equiv_pos_as_xyz
  1  'x, y, z'
loop_
 _atom_site_type_symbol
 _atom_site_label
 _atom_site_symmetry_multiplicity
 _atom_site_fract_x
 _atom_site_fract_y
 _atom_site_fract_z
 _atom_site_occupancy
  Na  Na0  1  0.00336200  0.13871200  0.38158100  1
  Na  Na1  1  0.26916500  0.49432700  0.00447600  1
  Na  Na2  1  0.25589600  0.24533300  0.52546000  1
  Na  Na3  1  0.76916500  0.00567300  0.00447600  1
  Na  Na4  1  0.99663800  0.86128800  0.61841900  1
  Na  Na5  1  0.50336200  0.36128800  0.38158100  1
  Na  Na6  1  0.75589600  0.25466700  0.52546000  1
  Na  Na7  1  0.23083500  0.99432700  0.99552400  1
  Na  Na8  1  0.26916500  0.99432700  0.49552400  1
  Na  Na9  1  0.31460600  0.52426000  0.77512000  1
  Na  Na10  1  0.68539400  0.47574000  0.22488000  1
  Na  Na11  1  0.74410400  0.25466700  0.02546000  1
  Na  Na12  1  0.73083500  0.50567300  0.99552400  1
  Na  Na13  1  0.18539400  0.52426000  0.27512000  1
  Na  Na14  1  0.75589600  0.75466700  0.97454000  1
  Na  Na15  1  0.99663800  0.36128800  0.88158100  1
  Na  Na16  1  0.25589600  0.74533300  0.97454000  1
  Na  Na17  1  0.18539400  0.02426000  0.22488000  1
  Na  Na18  1  0.31460600  0.02426000  0.72488000  1
  Na  Na19  1  0.23083500  0.49432700  0.50447600  1
  Na  Na20  1  0.81460600  0.47574000  0.72488000  1
  Na  Na21  1  0.49663800  0.13871200  0.88158100  1
  Na  Na22  1  0.24410400  0.74533300  0.47454000  1
  Na  Na23  1  0.49663800  0.63871200  0.61841900  1
  Na  Na24  1  0.81460600  0.97574000  0.77512000  1
  Na  Na25  1  0.74410400  0.75466700  0.47454000  1
  Na  Na26  1  0.24410400  0.24533300  0.02546000  1
  Na  Na27  1  0.76916500  0.50567300  0.49552400  1
  Na  Na28  1  0.68539400  0.97574000  0.27512000  1
  Na  Na29  1  0.73083500  0.00567300  0.50447600  1
  Na  Na30  1  0.00336200  0.63871200  0.11841900  1
  Na  Na31  1  0.50336200  0.86128800  0.11841900  1
  V  V0  1  0.27555000  0.75865500  0.26608700  1
  V  V1  1  0.72445000  0.24134500  0.73391300  1
  V  V2  1  0.77555000  0.74134500  0.26608700  1
  V  V3  1  0.27555000  0.25865500  0.23391300  1
  V  V4  1  0.22445000  0.25865500  0.73391300  1
  V  V5  1  0.77555000  0.24134500  0.23391300  1
  V  V6  1  0.22445000  0.75865500  0.76608700  1
  V  V7  1  0.72445000  0.74134500  0.76608700  1
  P  P0  1  0.99894800  0.63888300  0.62727200  1
  P  P1  1  0.49894800  0.86111700  0.62727200  1
  P  P2  1  0.49823900  0.60804600  0.38064800  1
  P  P3  1  0.50105200  0.63888300  0.12727200  1
  P  P4  1  0.99894800  0.13888300  0.87272800  1
  P  P5  1  0.99823900  0.89195400  0.38064800  1
  P  P6  1  0.50176100  0.39195400  0.61935200  1
  P  P7  1  0.00176100  0.10804600  0.61935200  1
  P  P8  1  0.00105200  0.86111700  0.12727200  1
  P  P9  1  0.50105200  0.13888300  0.37272800  1
  P  P10  1  0.49894800  0.36111700  0.87272800  1
  P  P11  1  0.00105200  0.36111700  0.37272800  1
  P  P12  1  0.49823900  0.10804600  0.11935200  1
  P  P13  1  0.50176100  0.89195400  0.88064800  1
  P  P14  1  0.99823900  0.39195400  0.11935200  1
  P  P15  1  0.00176100  0.60804600  0.88064800  1
  O  O0  1  0.67974900  0.66367800  0.35807000  1
  O  O1  1  0.81916000  0.83654300  0.35314100  1
  O  O2  1  0.82025100  0.16367800  0.64193000  1
  O  O3  1  0.68102300  0.34221600  0.81967600  1
  O  O4  1  0.18102300  0.65778400  0.68032400  1
  O  O5  1  0.68101500  0.15066500  0.31669200  1
  O  O6  1  0.31916000  0.66345700  0.35314100  1
  O  O7  1  0.00392500  0.20156000  0.23874800  1
  O  O8  1  0.18084000  0.66345700  0.85314100  1
  O  O9  1  0.99123100  0.20733200  0.94478200  1
  O  O10  1  0.49607500  0.20156000  0.73874800  1
  O  O11  1  0.50408900  0.98605800  0.83979600  1
  O  O12  1  0.99607500  0.79844000  0.76125200  1
  O  O13  1  0.00828200  0.10218100  0.52406700  1
  O  O14  1  0.68084000  0.33654300  0.64685900  1
  O  O15  1  0.31897700  0.15778400  0.31967600  1
  O  O16  1  0.81897700  0.84221600  0.18032400  1
  O  O17  1  0.50828200  0.89781900  0.97593300  1
  O  O18  1  0.99607500  0.29844000  0.73874800  1
  O  O19  1  0.50408900  0.48605800  0.66020400  1
  O  O20  1  0.32025100  0.83632200  0.85807000  1
  O  O21  1  0.49591100  0.01394200  0.16020400  1
  O  O22  1  0.50392500  0.79844000  0.26125200  1
  O  O23  1  0.81916000  0.33654300  0.14685900  1
  O  O24  1  0.49591100  0.51394200  0.33979600  1
  O  O25  1  0.50029200  0.53914400  0.09840800  1
  O  O26  1  0.18101500  0.34933500  0.31669200  1
  O  O27  1  0.49171800  0.10218100  0.02406700  1
  O  O28  1  0.31898500  0.34933500  0.81669200  1
  O  O29  1  0.17974900  0.83632200  0.35807000  1
  O  O30  1  0.31897700  0.65778400  0.18032400  1
  O  O31  1  0.18084000  0.16345700  0.64685900  1
  O  O32  1  0.81898500  0.65066500  0.68330800  1
  O  O33  1  0.17974900  0.33632200  0.14193000  1
  O  O34  1  0.18101500  0.84933500  0.18330800  1
  O  O35  1  0.32025100  0.33632200  0.64193000  1
  O  O36  1  0.82025100  0.66367800  0.85807000  1
  O  O37  1  0.81898500  0.15066500  0.81669200  1
  O  O38  1  0.00876900  0.29266800  0.44478200  1
  O  O39  1  0.49123100  0.79266800  0.55521800  1
  O  O40  1  0.99171800  0.39781900  0.02406700  1
  O  O41  1  0.31916000  0.16345700  0.14685900  1
  O  O42  1  0.00828200  0.60218100  0.97593300  1
  O  O43  1  0.99591100  0.98605800  0.33979600  1
  O  O44  1  0.50392500  0.29844000  0.23874800  1
  O  O45  1  0.50029200  0.03914400  0.40159200  1
  O  O46  1  0.99123100  0.70733200  0.55521800  1
  O  O47  1  0.67974900  0.16367800  0.14193000  1
  O  O48  1  0.50828200  0.39781900  0.52406700  1
  O  O49  1  0.68084000  0.83654300  0.85314100  1
  O  O50  1  0.68102300  0.84221600  0.68032400  1
  O  O51  1  0.81897700  0.34221600  0.31967600  1
  O  O52  1  0.99970800  0.53914400  0.59840800  1
  O  O53  1  0.00876900  0.79266800  0.05521800  1
  O  O54  1  0.00029200  0.96085600  0.09840800  1
  O  O55  1  0.00408900  0.51394200  0.83979600  1
  O  O56  1  0.18102300  0.15778400  0.81967600  1
  O  O57  1  0.49970800  0.96085600  0.59840800  1
  O  O58  1  0.49607500  0.70156000  0.76125200  1
  O  O59  1  0.00408900  0.01394200  0.66020400  1
  O  O60  1  0.00392500  0.70156000  0.26125200  1
  O  O61  1  0.31898500  0.84933500  0.68330800  1
  O  O62  1  0.99970800  0.03914400  0.90159200  1
  O  O63  1  0.49970800  0.46085600  0.90159200  1
  O  O64  1  0.68101500  0.65066500  0.18330800  1
  O  O65  1  0.50876900  0.70733200  0.05521800  1
  O  O66  1  0.99171800  0.89781900  0.47593300  1
  O  O67  1  0.50876900  0.20733200  0.44478200  1
  O  O68  1  0.49171800  0.60218100  0.47593300  1
  O  O69  1  0.49123100  0.29266800  0.94478200  1
  O  O70  1  0.00029200  0.46085600  0.40159200  1
  O  O71  1  0.99591100  0.48605800  0.16020400  1
loop_
_geom_bond_atom_site_label_1
_geom_bond_atom_site_label_2
_geom_bond_distance
_geom_bond_site_symmetry_2
Na0 O43 2.340246 1_445
Na0 O13 2.371079 1_555
Na0 O15 2.468021 1_555
Na0 O38 2.480326 1_555
Na0 O7 2.491926 1_555
Na0 O5 2.521671 1_455
Na1 O25 2.331276 1_555
Na1 O63 2.386000 1_554
Na1 O40 2.444141 1_455
Na1 O42 2.477484 1_554
Na2 O67 2.287863 1_555
Na2 O38 2.293765 1_555
Na2 O35 2.356616 1_555
Na2 O31 2.365923 1_555
Na2 O13 2.737180 1_555
Na2 O48 2.864604 1_555
Na3 O54 2.331276 1_645
Na3 O62 2.386000 1_554
Na3 O27 2.444141 1_555
Na3 O17 2.477484 1_544
Na4 O59 2.340246 1_665
Na4 O66 2.371079 1_555
Na4 O50 2.468021 1_555
Na4 O46 2.480326 1_555
Na4 O12 2.491926 1_555
Na4 O61 2.521671 1_655
Na5 O24 2.340246 1_555
Na5 O48 2.371079 1_555
Na5 O51 2.468021 1_555
Na5 O67 2.480326 1_555
Na5 O44 2.491926 1_555
Na5 O26 2.521671 1_555
Na6 O38 2.287863 1_655
Na6 O67 2.293765 1_555
Na6 O2 2.356616 1_555
Na6 O14 2.365923 1_555
Na6 O48 2.737180 1_555
Na6 O13 2.864604 1_655
Na7 O62 2.331276 1_465
Na7 O54 2.386000 1_556
Na7 O17 2.444141 1_555
Na7 O27 2.477484 1_566
Na8 O45 2.331276 1_565
Na8 O57 2.386000 1_555
Na8 O66 2.444141 1_455
Na8 O13 2.477484 1_565
Na9 O19 2.363832 1_555
Na9 O55 2.442844 1_555
Na9 O8 2.582332 1_555
Na9 O63 2.605600 1_555
Na9 O28 2.653373 1_555
Na9 O4 2.663569 1_555
Na9 O58 2.910485 1_555
Na10 O24 2.363832 1_555
Na10 O71 2.442844 1_555
Na10 O23 2.582332 1_555
Na10 O25 2.605600 1_555
Na10 O64 2.653373 1_555
Na10 O51 2.663569 1_555
Na10 O44 2.910485 1_555
Na11 O69 2.287863 1_554
Na11 O9 2.293765 1_554
Na11 O47 2.356616 1_555
Na11 O23 2.365923 1_555
Na11 O40 2.737180 1_555
Na11 O27 2.864604 1_555
Na12 O63 2.331276 1_555
Na12 O25 2.386000 1_556
Na12 O42 2.444141 1_655
Na12 O40 2.477484 1_556
Na13 O71 2.363832 1_455
Na13 O24 2.442844 1_555
Na13 O6 2.582332 1_555
Na13 O70 2.605600 1_555
Na13 O26 2.653373 1_555
Na13 O30 2.663569 1_555
Na13 O60 2.910485 1_555
Na14 O53 2.287863 1_656
Na14 O65 2.293765 1_556
Na14 O36 2.356616 1_555
Na14 O49 2.365923 1_555
Na14 O17 2.737180 1_555
Na14 O42 2.864604 1_655
Na15 O55 2.340246 1_655
Na15 O40 2.371079 1_556
Na15 O3 2.468021 1_555
Na15 O9 2.480326 1_555
Na15 O18 2.491926 1_555
Na15 O28 2.521671 1_655
Na16 O65 2.287863 1_556
Na16 O53 2.293765 1_556
Na16 O20 2.356616 1_555
Na16 O8 2.365923 1_555
Na16 O42 2.737180 1_555
Na16 O17 2.864604 1_555
Na17 O43 2.363832 1_445
Na17 O21 2.442844 1_555
Na17 O41 2.582332 1_555
Na17 O54 2.605600 1_545
Na17 O34 2.653373 1_545
Na17 O15 2.663569 1_555
Na17 O7 2.910485 1_555
Na18 O11 2.363832 1_545
Na18 O59 2.442844 1_555
Na18 O31 2.582332 1_555
Na18 O57 2.605600 1_545
Na18 O61 2.653373 1_545
Na18 O56 2.663569 1_555
Na18 O10 2.910485 1_555
Na19 O52 2.331276 1_455
Na19 O70 2.386000 1_555
Na19 O48 2.444141 1_555
Na19 O68 2.477484 1_555
Na20 O55 2.363832 1_655
Na20 O19 2.442844 1_555
Na20 O14 2.582332 1_555
Na20 O52 2.605600 1_555
Na20 O32 2.653373 1_555
Na20 O3 2.663569 1_555
Na20 O18 2.910485 1_555
Na21 O11 2.340246 1_545
Na21 O27 2.371079 1_556
Na21 O56 2.468021 1_555
Na21 O69 2.480326 1_555
Na21 O10 2.491926 1_555
Na21 O37 2.521671 1_555
Na22 O46 2.287863 1_455
Na22 O39 2.293765 1_555
Na22 O29 2.356616 1_555
Na22 O6 2.365923 1_555
Na22 O68 2.737180 1_555
Na22 O66 2.864604 1_455
Na23 O19 2.340246 1_555
Na23 O68 2.371079 1_555
Na23 O4 2.468021 1_555
Na23 O39 2.480326 1_555
Na23 O58 2.491926 1_555
Na23 O32 2.521671 1_555
Na24 O59 2.363832 1_665
Na24 O11 2.442844 1_555
Na24 O49 2.582332 1_555
Na24 O62 2.605600 1_565
Na24 O37 2.653373 1_565
Na24 O50 2.663569 1_555
Na24 O12 2.910485 1_555
Na25 O39 2.287863 1_555
Na25 O46 2.293765 1_555
Na25 O0 2.356616 1_555
Na25 O1 2.365923 1_555
Na25 O66 2.737180 1_555
Na25 O68 2.864604 1_555
Na26 O9 2.287863 1_454
Na26 O69 2.293765 1_554
Na26 O33 2.356616 1_555
Na26 O41 2.365923 1_555
Na26 O27 2.737180 1_555
Na26 O40 2.864604 1_455
Na27 O70 2.331276 1_655
Na27 O52 2.386000 1_555
Na27 O68 2.444141 1_555
Na27 O48 2.477484 1_555
Na28 O21 2.363832 1_565
Na28 O43 2.442844 1_555
Na28 O1 2.582332 1_555
Na28 O45 2.605600 1_565
Na28 O5 2.653373 1_565
Na28 O16 2.663569 1_555
Na28 O22 2.910485 1_555
Na29 O57 2.331276 1_545
Na29 O45 2.386000 1_555
Na29 O13 2.444141 1_655
Na29 O66 2.477484 1_545
Na30 O71 2.340246 1_455
Na30 O42 2.371079 1_554
Na30 O30 2.468021 1_555
Na30 O53 2.480326 1_555
Na30 O60 2.491926 1_555
Na30 O64 2.521671 1_455
Na31 O21 2.340246 1_565
Na31 O17 2.371079 1_554
Na31 O16 2.468021 1_555
Na31 O65 2.480326 1_555
Na31 O22 2.491926 1_555
Na31 O34 2.521671 1_555
O0 P2 1.567071 1_555
O0 V2 1.995548 1_555
O1 P5 1.572015 1_555
O1 V2 2.009213 1_555
O2 P7 1.567071 1_655
O2 V1 1.995548 1_555
O3 P10 1.575537 1_555
O3 V1 2.053512 1_555
O4 P0 1.575537 1_455
O4 V6 2.053512 1_555
O5 P9 1.575562 1_555
O5 V5 2.004747 1_555
O6 P2 1.572015 1_555
O6 V0 2.009213 1_555
O7 V5 1.722752 1_455
O7 V3 2.101325 1_555
O8 P15 1.572015 1_555
O8 V6 2.009213 1_555
O9 P4 1.541192 1_555
O10 V1 1.722752 1_555
O10 V4 2.101325 1_555
O11 P13 1.531202 1_555
O12 V6 1.722752 1_655
O12 V7 2.101325 1_555
O13 P7 1.547493 1_555
O14 P6 1.572015 1_555
O14 V1 2.009213 1_555
O15 P9 1.575537 1_555
O15 V3 2.053512 1_555
O16 P8 1.575537 1_655
O16 V2 2.053512 1_555
O17 P13 1.547493 1_555
O18 V4 1.722752 1_655
O18 V1 2.101325 1_555
O19 P6 1.531202 1_555
O20 P13 1.567071 1_555
O20 V6 1.995548 1_555
O21 P12 1.531202 1_555
O22 V0 1.722752 1_555
O22 V2 2.101325 1_555
O23 P14 1.572015 1_555
O23 V5 2.009213 1_555
O24 P2 1.531202 1_555
O25 P3 1.536183 1_555
O26 P11 1.575562 1_555
O26 V3 2.004747 1_555
O27 P12 1.547493 1_555
O28 P10 1.575562 1_555
O28 V4 2.004747 1_555
O29 P5 1.567071 1_455
O29 V0 1.995548 1_555
O30 P3 1.575537 1_555
O30 V0 2.053512 1_555
O31 P7 1.572015 1_555
O31 V4 2.009213 1_555
O32 P0 1.575562 1_555
O32 V7 2.004747 1_555
O33 P14 1.567071 1_455
O33 V3 1.995548 1_555
O34 P8 1.575562 1_555
O34 V0 2.004747 1_555
O35 P6 1.567071 1_555
O35 V4 1.995548 1_555
O36 P15 1.567071 1_655
O36 V7 1.995548 1_555
O37 P4 1.575562 1_555
O37 V1 2.004747 1_555
O38 P11 1.541192 1_555
O39 P1 1.541192 1_555
O40 P14 1.547493 1_555
O41 P12 1.572015 1_555
O41 V3 2.009213 1_555
O42 P15 1.547493 1_555
O43 P5 1.531202 1_555
O44 V3 1.722752 1_555
O44 V5 2.101325 1_555
O45 P9 1.536183 1_555
O46 P0 1.541192 1_555
O47 P12 1.567071 1_555
O47 V5 1.995548 1_555
O48 P6 1.547493 1_555
O49 P13 1.572015 1_555
O49 V7 2.009213 1_555
O50 P1 1.575537 1_555
O50 V7 2.053512 1_555
O51 P11 1.575537 1_655
O51 V5 2.053512 1_555
O52 P0 1.536183 1_555
O53 P8 1.541192 1_555
O54 P8 1.536183 1_555
O55 P15 1.531202 1_555
O56 P4 1.575537 1_455
O56 V4 2.053512 1_555
O57 P1 1.536183 1_555
O58 V7 1.722752 1_555
O58 V6 2.101325 1_555
O59 P7 1.531202 1_555
O60 V2 1.722752 1_455
O60 V0 2.101325 1_555
O61 P1 1.575562 1_555
O61 V6 2.004747 1_555
O62 P4 1.536183 1_555
O63 P10 1.536183 1_555
O64 P3 1.575562 1_555
O64 V2 2.004747 1_555
O65 P3 1.541192 1_555
O66 P5 1.547493 1_555
O67 P9 1.541192 1_555
O68 P2 1.547493 1_555
O69 P10 1.541192 1_555
O70 P11 1.536183 1_555
O71 P14 1.531202 1_555
