# generated using pymatgen
data_K2(NbBr3)3
_symmetry_space_group_name_H-M   'P 1'
_cell_length_a   10.42017274
_cell_length_b   10.42017274
_cell_length_c   10.31827297
_cell_angle_alpha   77.53534214
_cell_angle_beta   77.53534214
_cell_angle_gamma   117.60343171
_symmetry_Int_Tables_number   1
_chemical_formula_structural   K2(NbBr3)3
_chemical_formula_sum   'K4 Nb6 Br18'
_cell_volume   902.54222464
_cell_formula_units_Z   2
loop_
 _symmetry_equiv_pos_site_id
 _symmetry_equiv_pos_as_xyz
  1  'x, y, z'
loop_
 _atom_site_type_symbol
 _atom_site_label
 _atom_site_symmetry_multiplicity
 _atom_site_fract_x
 _atom_site_fract_y
 _atom_site_fract_z
 _atom_site_occupancy
  K  K0  1  0.73189000  0.05499900  0.82751100  1
  K  K1  1  0.94491500  0.27056200  0.16643200  1
  K  K2  1  0.27153100  0.94594000  0.17143400  1
  K  K3  1  0.04807400  0.72724400  0.82887700  1
  Nb  Nb0  1  0.45135900  0.28289800  0.63505100  1
  Nb  Nb1  1  0.71696900  0.54851600  0.36571200  1
  Nb  Nb2  1  0.54017200  0.71090300  0.37050100  1
  Nb  Nb3  1  0.29225200  0.45418800  0.63117900  1
  Nb  Nb4  1  0.61188700  0.60972700  0.62572100  1
  Nb  Nb5  1  0.38365700  0.38804500  0.37919000  1
  Br  Br0  1  0.00543600  0.61113300  0.17616700  1
  Br  Br1  1  0.39242900  0.00043300  0.81557700  1
  Br  Br2  1  0.81427300  0.81972100  0.17377100  1
  Br  Br3  1  0.18580100  0.18145500  0.82881500  1
  Br  Br4  1  0.62076500  0.42073500  0.18554700  1
  Br  Br5  1  0.58503000  0.37638600  0.81350000  1
  Br  Br6  1  0.38104100  0.58967700  0.81284000  1
  Br  Br7  1  0.40958700  0.61541800  0.19054700  1
  Br  Br8  1  0.30513200  0.10307300  0.50966600  1
  Br  Br9  1  0.90592400  0.69508800  0.48561300  1
  Br  Br10  1  0.69485300  0.89849700  0.49153000  1
  Br  Br11  1  0.10227600  0.31163400  0.50925200  1
  Br  Br12  1  0.29037800  0.70541200  0.49925400  1
  Br  Br13  1  0.70426500  0.29328700  0.50520100  1
  Br  Br14  1  0.76944100  0.77401900  0.78435100  1
  Br  Br15  1  0.22689300  0.22687200  0.20941400  1
  Br  Br16  1  0.61162800  0.00478800  0.17639100  1
  Br  Br17  1  0.99467900  0.38888300  0.82393800  1
loop_
_geom_bond_atom_site_label_1
_geom_bond_atom_site_label_2
_geom_bond_distance
_geom_bond_site_symmetry_2
Br0 Nb1 2.894818 1_455
Br0 K2 3.281090 1_555
Br0 K1 3.333031 1_455
Br0 K3 3.383084 1_554
Br1 Nb0 2.823941 1_555
Br1 K3 3.339288 1_545
Br1 K0 3.347384 1_555
Br1 K2 3.439779 1_546
Br2 Nb1 2.645472 1_555
Br2 Nb2 2.658281 1_555
Br3 Nb0 2.600127 1_555
Br3 Nb3 2.658202 1_555
Br4 Nb1 2.621010 1_555
Br4 Nb5 2.647250 1_555
Br5 Nb4 2.616507 1_555
Br5 Nb0 2.627433 1_555
Br6 Nb4 2.629250 1_555
Br6 Nb3 2.653906 1_555
Br7 Nb5 2.581501 1_555
Br7 Nb2 2.631126 1_555
Br8 Nb0 2.599664 1_555
Br8 Nb5 2.616639 1_555
Br8 K3 3.776569 1_545
Br9 Nb1 2.611597 1_555
Br9 Nb4 2.697416 1_555
Br9 K2 3.692970 1_655
Br10 Nb2 2.642244 1_555
Br10 Nb4 2.644413 1_555
Br10 K1 3.784723 1_565
Br11 Nb5 2.590092 1_555
Br11 Nb3 2.620078 1_555
Br11 K0 3.742248 1_455
Br12 Nb2 2.622925 1_555
Br12 Nb3 2.688273 1_555
Br12 K2 3.852937 1_555
Br12 K3 3.892776 1_555
Br13 Nb0 2.626902 1_555
Br13 Nb1 2.664825 1_555
Br13 K0 3.849585 1_555
Br14 Nb4 2.840807 1_555
Br14 K0 3.236215 1_565
Br14 K3 3.266335 1_655
Br15 Nb5 2.919018 1_555
Br15 K2 3.258482 1_545
Br15 K1 3.279069 1_455
Br16 Nb2 2.922218 1_545
Br16 K1 3.248305 1_555
Br16 K2 3.318976 1_545
Br16 K0 3.381566 1_554
Br17 Nb3 2.971838 1_655
Br17 K0 3.267490 1_555
Br17 K1 3.318645 1_556
Br17 K3 3.318915 1_655
