# generated using pymatgen
data_Rb5(WO3)18
_symmetry_space_group_name_H-M   'P 1'
_cell_length_a   7.48520056
_cell_length_b   7.48520056
_cell_length_c   23.08679900
_cell_angle_alpha   90.00000000
_cell_angle_beta   90.00000000
_cell_angle_gamma   120.00000496
_symmetry_Int_Tables_number   1
_chemical_formula_structural   Rb5(WO3)18
_chemical_formula_sum   'Rb5 W18 O54'
_cell_volume   1120.21456433
_cell_formula_units_Z   1
loop_
 _symmetry_equiv_pos_site_id
 _symmetry_equiv_pos_as_xyz
  1  'x, y, z'
loop_
 _atom_site_type_symbol
 _atom_site_label
 _atom_site_symmetry_multiplicity
 _atom_site_fract_x
 _atom_site_fract_y
 _atom_site_fract_z
 _atom_site_occupancy
  Rb  Rb0  1  0.00000000  0.00000000  0.50000000  1
  Rb  Rb1  1  0.00000000  0.00000000  0.15447100  1
  Rb  Rb2  1  0.00000000  0.00000000  0.33126500  1
  Rb  Rb3  1  0.00000000  0.00000000  0.66873500  1
  Rb  Rb4  1  0.00000000  0.00000000  0.84552900  1
  W  W0  1  0.00000000  0.50737200  0.91725100  1
  W  W1  1  0.00000000  0.50019800  0.58349000  1
  W  W2  1  0.00000000  0.50289300  0.24967500  1
  W  W3  1  0.00000000  0.49710700  0.75032500  1
  W  W4  1  0.00000000  0.49262800  0.08274900  1
  W  W5  1  0.00000000  0.49980200  0.41651000  1
  W  W6  1  0.49710700  0.49710700  0.24967500  1
  W  W7  1  0.49262800  0.49262800  0.91725100  1
  W  W8  1  0.49980200  0.49980200  0.58349000  1
  W  W9  1  0.50019800  0.50019800  0.41651000  1
  W  W10  1  0.50737200  0.50737200  0.08274900  1
  W  W11  1  0.50289300  0.50289300  0.75032500  1
  W  W12  1  0.49262800  0.00000000  0.08274900  1
  W  W13  1  0.49980200  0.00000000  0.41651000  1
  W  W14  1  0.49710700  0.00000000  0.75032500  1
  W  W15  1  0.50289300  0.00000000  0.24967500  1
  W  W16  1  0.50019800  0.00000000  0.58349000  1
  W  W17  1  0.50737200  0.00000000  0.91725100  1
  O  O0  1  0.00000000  0.49979400  0.66653100  1
  O  O1  1  0.00000000  0.50020600  0.33346900  1
  O  O2  1  0.00000000  0.50000000  0.00000000  1
  O  O3  1  0.00000000  0.49953700  0.16716300  1
  O  O4  1  0.00000000  0.50046300  0.83283700  1
  O  O5  1  0.00000000  0.50000000  0.50000000  1
  O  O6  1  0.21327900  0.78652800  0.08400200  1
  O  O7  1  0.21207200  0.78812400  0.74970400  1
  O  O8  1  0.21202200  0.78833700  0.41672000  1
  O  O9  1  0.21347200  0.78672100  0.91599800  1
  O  O10  1  0.21166300  0.78797800  0.58328000  1
  O  O11  1  0.21187600  0.78792800  0.25029600  1
  O  O12  1  0.21207200  0.42394800  0.25029600  1
  O  O13  1  0.21202200  0.42368500  0.58328000  1
  O  O14  1  0.21327900  0.42675100  0.91599800  1
  O  O15  1  0.21166300  0.42368500  0.41672000  1
  O  O16  1  0.21347200  0.42675100  0.08400200  1
  O  O17  1  0.21187600  0.42394800  0.74970400  1
  O  O18  1  0.57631500  0.78797800  0.41672000  1
  O  O19  1  0.57605200  0.78792800  0.74970400  1
  O  O20  1  0.57324900  0.78672100  0.08400200  1
  O  O21  1  0.57631500  0.78833700  0.58328000  1
  O  O22  1  0.57605200  0.78812400  0.25029600  1
  O  O23  1  0.57324900  0.78652800  0.91599800  1
  O  O24  1  0.50020600  0.50020600  0.66653100  1
  O  O25  1  0.49953700  0.49953700  0.83283700  1
  O  O26  1  0.50046300  0.50046300  0.16716300  1
  O  O27  1  0.49979400  0.49979400  0.33346900  1
  O  O28  1  0.50000000  0.50000000  0.00000000  1
  O  O29  1  0.50000000  0.50000000  0.50000000  1
  O  O30  1  0.42675100  0.21347200  0.08400200  1
  O  O31  1  0.42368500  0.21166300  0.41672000  1
  O  O32  1  0.42394800  0.21187600  0.74970400  1
  O  O33  1  0.42368500  0.21202200  0.58328000  1
  O  O34  1  0.42394800  0.21207200  0.25029600  1
  O  O35  1  0.42675100  0.21327900  0.91599800  1
  O  O36  1  0.78652800  0.57324900  0.91599800  1
  O  O37  1  0.78812400  0.57605200  0.25029600  1
  O  O38  1  0.78833700  0.57631500  0.58328000  1
  O  O39  1  0.49979400  0.00000000  0.66653100  1
  O  O40  1  0.50000000  0.00000000  0.00000000  1
  O  O41  1  0.50046300  0.00000000  0.83283700  1
  O  O42  1  0.49953700  0.00000000  0.16716300  1
  O  O43  1  0.50020600  0.00000000  0.33346900  1
  O  O44  1  0.50000000  0.00000000  0.50000000  1
  O  O45  1  0.78792800  0.57605200  0.74970400  1
  O  O46  1  0.78797800  0.57631500  0.41672000  1
  O  O47  1  0.78672100  0.57324900  0.08400200  1
  O  O48  1  0.78812400  0.21207200  0.74970400  1
  O  O49  1  0.78652800  0.21327900  0.08400200  1
  O  O50  1  0.78833700  0.21202200  0.41672000  1
  O  O51  1  0.78792800  0.21187600  0.25029600  1
  O  O52  1  0.78672100  0.21347200  0.91599800  1
  O  O53  1  0.78797800  0.21166300  0.58328000  1
loop_
_geom_bond_atom_site_label_1
_geom_bond_atom_site_label_2
_geom_bond_distance
_geom_bond_site_symmetry_2
O0 W1 1.917153 1_555
O0 W3 1.934640 1_555
O1 W5 1.917153 1_555
O1 W2 1.934640 1_555
O2 W4 1.911206 1_555
O2 W0 1.911206 1_554
O3 W2 1.905104 1_555
O3 W4 1.949535 1_555
O4 W3 1.905104 1_555
O4 W0 1.949535 1_555
O5 W5 1.927517 1_555
O5 W1 1.927517 1_555
O6 W12 1.893444 1_565
O6 W4 1.969011 1_555
O6 Rb1 3.209293 1_565
O7 W14 1.919308 1_565
O7 W3 1.951220 1_555
O7 Rb3 3.323685 1_565
O7 Rb4 3.528000 1_565
O8 W13 1.933249 1_565
O8 W5 1.937936 1_555
O8 Rb0 3.352586 1_565
O8 Rb2 3.381633 1_565
O9 W0 1.893444 1_555
O9 W17 1.969011 1_565
O9 Rb4 3.209293 1_565
O10 W1 1.933249 1_555
O10 W16 1.937936 1_565
O10 Rb0 3.352586 1_565
O10 Rb3 3.381633 1_565
O11 W2 1.919308 1_555
O11 W15 1.951220 1_565
O11 Rb2 3.323685 1_565
O11 Rb1 3.528000 1_565
O12 W6 1.919308 1_555
O12 W2 1.951220 1_555
O12 Rb2 3.323685 1_555
O12 Rb1 3.528000 1_555
O13 W8 1.933249 1_555
O13 W1 1.937936 1_555
O13 Rb0 3.352586 1_555
O13 Rb3 3.381633 1_555
O14 W7 1.893444 1_555
O14 W0 1.969012 1_555
O14 Rb4 3.209293 1_555
O15 W5 1.933249 1_555
O15 W9 1.937936 1_555
O15 Rb0 3.352586 1_555
O15 Rb2 3.381633 1_555
O16 W4 1.893444 1_555
O16 W10 1.969012 1_555
O16 Rb1 3.209293 1_555
O17 W3 1.919308 1_555
O17 W11 1.951220 1_555
O17 Rb3 3.323685 1_555
O17 Rb4 3.528000 1_555
O18 W9 1.933249 1_555
O18 W13 1.937936 1_565
O18 Rb0 3.352586 1_665
O18 Rb2 3.381633 1_665
O19 W11 1.919308 1_555
O19 W14 1.951220 1_565
O19 Rb3 3.323685 1_665
O19 Rb4 3.528000 1_665
O20 W10 1.893444 1_555
O20 W12 1.969012 1_565
O20 Rb1 3.209293 1_665
O21 W16 1.933249 1_565
O21 W8 1.937936 1_555
O21 Rb0 3.352586 1_665
O21 Rb3 3.381633 1_665
O22 W15 1.919308 1_565
O22 W6 1.951220 1_555
O22 Rb2 3.323685 1_665
O22 Rb1 3.528000 1_665
O23 W17 1.893444 1_565
O23 W7 1.969012 1_555
O23 Rb4 3.209293 1_665
O24 W8 1.917153 1_555
O24 W11 1.934640 1_555
O25 W11 1.905104 1_555
O25 W7 1.949535 1_555
O26 W6 1.905104 1_555
O26 W10 1.949535 1_555
O27 W9 1.917153 1_555
O27 W6 1.934640 1_555
O28 W10 1.911206 1_555
O28 W7 1.911206 1_554
O29 W9 1.927517 1_555
O29 W8 1.927517 1_555
O30 W12 1.893444 1_555
O30 W10 1.969012 1_555
O30 Rb1 3.209293 1_555
O31 W13 1.933249 1_555
O31 W9 1.937936 1_555
O31 Rb0 3.352586 1_555
O31 Rb2 3.381633 1_555
O32 W14 1.919308 1_555
O32 W11 1.951220 1_555
O32 Rb3 3.323685 1_555
O32 Rb4 3.528000 1_555
O33 W8 1.933249 1_555
O33 W16 1.937936 1_555
O33 Rb0 3.352586 1_555
O33 Rb3 3.381633 1_555
O34 W6 1.919308 1_555
O34 W15 1.951220 1_555
O34 Rb2 3.323685 1_555
O34 Rb1 3.528000 1_555
O35 W7 1.893444 1_555
O35 W17 1.969012 1_555
O35 Rb4 3.209293 1_555
O36 W0 1.893444 1_655
O36 W7 1.969012 1_555
O36 Rb4 3.209293 1_665
O37 W2 1.919308 1_655
O37 W6 1.951220 1_555
O37 Rb2 3.323685 1_665
O37 Rb1 3.528000 1_665
O38 W1 1.933249 1_655
O38 W8 1.937936 1_555
O38 Rb0 3.352586 1_665
O38 Rb3 3.381633 1_665
O39 W16 1.917153 1_555
O39 W14 1.934640 1_555
O40 W12 1.911206 1_555
O40 W17 1.911206 1_554
O41 W14 1.905104 1_555
O41 W17 1.949535 1_555
O42 W15 1.905104 1_555
O42 W12 1.949535 1_555
O43 W13 1.917153 1_555
O43 W15 1.934640 1_555
O44 W13 1.927517 1_555
O44 W16 1.927517 1_555
O45 W11 1.919308 1_555
O45 W3 1.951220 1_655
O45 Rb3 3.323685 1_665
O45 Rb4 3.528000 1_665
O46 W9 1.933249 1_555
O46 W5 1.937936 1_655
O46 Rb0 3.352586 1_665
O46 Rb2 3.381633 1_665
O47 W10 1.893444 1_555
O47 W4 1.969012 1_655
O47 Rb1 3.209293 1_665
O48 W3 1.919308 1_655
O48 W14 1.951220 1_555
O48 Rb3 3.323685 1_655
O48 Rb4 3.528000 1_655
O49 W4 1.893444 1_655
O49 W12 1.969011 1_555
O49 Rb1 3.209293 1_655
O50 W5 1.933249 1_655
O50 W13 1.937936 1_555
O50 Rb0 3.352586 1_655
O50 Rb2 3.381633 1_655
O51 W15 1.919308 1_555
O51 W2 1.951220 1_655
O51 Rb2 3.323685 1_655
O51 Rb1 3.528000 1_655
O52 W17 1.893444 1_555
O52 W0 1.969011 1_655
O52 Rb4 3.209293 1_655
O53 W16 1.933249 1_555
O53 W1 1.937936 1_655
O53 Rb0 3.352586 1_655
O53 Rb3 3.381633 1_655
