# generated using pymatgen
data_LiMnF4
_symmetry_space_group_name_H-M   'P 1'
_cell_length_a   6.36313122
_cell_length_b   6.36313122
_cell_length_c   11.38294800
_cell_angle_alpha   90.00000000
_cell_angle_beta   90.00000000
_cell_angle_gamma   93.01058799
_symmetry_Int_Tables_number   1
_chemical_formula_structural   LiMnF4
_chemical_formula_sum   'Li6 Mn6 F24'
_cell_volume   460.25308054
_cell_formula_units_Z   6
loop_
 _symmetry_equiv_pos_site_id
 _symmetry_equiv_pos_as_xyz
  1  'x, y, z'
loop_
 _atom_site_type_symbol
 _atom_site_label
 _atom_site_symmetry_multiplicity
 _atom_site_fract_x
 _atom_site_fract_y
 _atom_site_fract_z
 _atom_site_occupancy
  Li  Li0  1  0.32946800  0.32946800  0.00000000  1
  Li  Li1  1  0.32946800  0.32946800  0.50000000  1
  Li  Li2  1  0.82640400  0.17359600  0.25000000  1
  Li  Li3  1  0.17359600  0.82640400  0.75000000  1
  Li  Li4  1  0.67053200  0.67053200  0.50000000  1
  Li  Li5  1  0.67053200  0.67053200  0.00000000  1
  Mn  Mn0  1  0.14743600  0.85256400  0.07167400  1
  Mn  Mn1  1  0.14743600  0.85256400  0.42832600  1
  Mn  Mn2  1  0.57335600  0.42664400  0.75000000  1
  Mn  Mn3  1  0.85256400  0.14743600  0.92832600  1
  Mn  Mn4  1  0.85256400  0.14743600  0.57167400  1
  Mn  Mn5  1  0.42664400  0.57335600  0.25000000  1
  F  F0  1  0.34877800  0.06612000  0.07336400  1
  F  F1  1  0.34877800  0.06612000  0.42663600  1
  F  F2  1  0.06612000  0.34877800  0.92663600  1
  F  F3  1  0.06612000  0.34877800  0.57336400  1
  F  F4  1  0.21227600  0.37126200  0.25000000  1
  F  F5  1  0.37126200  0.21227600  0.75000000  1
  F  F6  1  0.07679800  0.92320200  0.59816900  1
  F  F7  1  0.62967500  0.37032500  0.25000000  1
  F  F8  1  0.07679800  0.92320200  0.90183100  1
  F  F9  1  0.20350600  0.79649400  0.25000000  1
  F  F10  1  0.37032500  0.62967500  0.75000000  1
  F  F11  1  0.92320200  0.07679800  0.09816900  1
  F  F12  1  0.79649400  0.20350600  0.75000000  1
  F  F13  1  0.62655400  0.37344600  0.56025500  1
  F  F14  1  0.37344600  0.62655400  0.06025500  1
  F  F15  1  0.92320200  0.07679800  0.40183100  1
  F  F16  1  0.37344600  0.62655400  0.43974500  1
  F  F17  1  0.62655400  0.37344600  0.93974500  1
  F  F18  1  0.62873800  0.78772400  0.25000000  1
  F  F19  1  0.78772400  0.62873800  0.75000000  1
  F  F20  1  0.65122200  0.93388000  0.57336400  1
  F  F21  1  0.65122200  0.93388000  0.92663600  1
  F  F22  1  0.93388000  0.65122200  0.07336400  1
  F  F23  1  0.93388000  0.65122200  0.42663600  1
loop_
_geom_bond_atom_site_label_1
_geom_bond_atom_site_label_2
_geom_bond_distance
_geom_bond_site_symmetry_2
F0 Mn0 1.818090 1_545
F0 Li0 1.882059 1_555
F1 Mn1 1.818090 1_545
F1 Li1 1.882059 1_555
F2 Mn3 1.818090 1_455
F2 Li0 1.882059 1_556
F3 Mn4 1.818090 1_455
F3 Li1 1.882059 1_555
F4 Mn5 1.824843 1_555
F5 Mn2 1.824843 1_555
F6 Li3 1.945656 1_555
F6 Mn1 2.040340 1_555
F6 Mn4 2.092007 1_465
F7 Li2 1.816225 1_555
F7 Mn5 1.874405 1_555
F8 Li3 1.945656 1_555
F8 Mn0 2.040340 1_556
F8 Mn3 2.092007 1_465
F9 Mn5 2.060035 1_555
F9 Mn0 2.094839 1_555
F9 Mn1 2.094839 1_555
F10 Li3 1.816225 1_555
F10 Mn2 1.874405 1_555
F11 Li2 1.945656 1_555
F11 Mn3 2.040340 1_554
F11 Mn0 2.092007 1_645
F12 Mn2 2.060035 1_555
F12 Mn4 2.094839 1_555
F12 Mn3 2.094839 1_555
F13 Li1 2.016624 1_555
F13 Li4 2.016624 1_555
F13 Mn4 2.090595 1_555
F13 Mn2 2.214993 1_555
F14 Li5 2.016624 1_555
F14 Li0 2.016624 1_555
F14 Mn0 2.090595 1_555
F14 Mn5 2.214993 1_555
F15 Li2 1.945656 1_555
F15 Mn4 2.040340 1_555
F15 Mn1 2.092007 1_645
F16 Li4 2.016624 1_555
F16 Li1 2.016624 1_555
F16 Mn1 2.090595 1_555
F16 Mn5 2.214993 1_555
F17 Li5 2.016624 1_556
F17 Li0 2.016624 1_556
F17 Mn3 2.090595 1_555
F17 Mn2 2.214993 1_555
F18 Mn5 1.824843 1_555
F19 Mn2 1.824843 1_555
F20 Mn4 1.818090 1_565
F20 Li4 1.882059 1_555
F21 Mn3 1.818090 1_565
F21 Li5 1.882059 1_556
F22 Mn0 1.818090 1_655
F22 Li5 1.882059 1_555
F23 Mn1 1.818090 1_655
F23 Li4 1.882059 1_555
