# generated using pymatgen
data_Li4Mn3Sn2Sb3O16
_symmetry_space_group_name_H-M   'P 1'
_cell_length_a   6.36100308
_cell_length_b   6.36100308
_cell_length_c   10.00359055
_cell_angle_alpha   88.66048598
_cell_angle_beta   88.66048598
_cell_angle_gamma   59.15687399
_symmetry_Int_Tables_number   1
_chemical_formula_structural   Li4Mn3Sn2Sb3O16
_chemical_formula_sum   'Li4 Mn3 Sn2 Sb3 O16'
_cell_volume   347.39856950
_cell_formula_units_Z   1
loop_
 _symmetry_equiv_pos_site_id
 _symmetry_equiv_pos_as_xyz
  1  'x, y, z'
loop_
 _atom_site_type_symbol
 _atom_site_label
 _atom_site_symmetry_multiplicity
 _atom_site_fract_x
 _atom_site_fract_y
 _atom_site_fract_z
 _atom_site_occupancy
  Li  Li0  1  0.65607400  0.65607400  0.11100100  1
  Li  Li1  1  0.99409000  0.99409000  0.01690900  1
  Li  Li2  1  0.99626400  0.99626400  0.49979000  1
  Li  Li3  1  0.31883900  0.31883900  0.59211800  1
  Mn  Mn0  1  0.83161200  0.83161200  0.78633300  1
  Mn  Mn1  1  0.17425700  0.66371600  0.28908500  1
  Mn  Mn2  1  0.66371600  0.17425700  0.28908500  1
  Sn  Sn0  1  0.67777600  0.67777600  0.49925400  1
  Sn  Sn1  1  0.34496700  0.34496700  0.02116900  1
  Sb  Sb0  1  0.33837600  0.83129200  0.78472200  1
  Sb  Sb1  1  0.83129200  0.33837600  0.78472200  1
  Sb  Sb2  1  0.17308100  0.17308100  0.28471300  1
  O  O0  1  0.33181500  0.85259600  0.40540700  1
  O  O1  1  0.51796100  0.51796100  0.66313700  1
  O  O2  1  0.65605500  0.65605500  0.89473900  1
  O  O3  1  0.00821200  0.00821200  0.68594000  1
  O  O4  1  0.01603800  0.01603800  0.19693700  1
  O  O5  1  0.85259600  0.33181500  0.40540700  1
  O  O6  1  0.50415900  0.95656000  0.65915800  1
  O  O7  1  0.95656000  0.50415900  0.65915800  1
  O  O8  1  0.16012200  0.16012200  0.89389700  1
  O  O9  1  0.84199300  0.84199300  0.41256900  1
  O  O10  1  0.03270100  0.46643000  0.15352900  1
  O  O11  1  0.46643000  0.03270100  0.15352900  1
  O  O12  1  0.31840700  0.31840700  0.39653400  1
  O  O13  1  0.17374100  0.68022800  0.90085100  1
  O  O14  1  0.48144400  0.48144400  0.15161600  1
  O  O15  1  0.68022800  0.17374100  0.90085100  1
loop_
_geom_bond_atom_site_label_1
_geom_bond_atom_site_label_2
_geom_bond_distance
_geom_bond_site_symmetry_2
Li0 O14 1.963661 1_555
Li0 O11 2.106182 1_565
Li0 O10 2.106182 1_655
Li0 O2 2.163402 1_554
Li1 O4 1.823682 1_665
Li1 O15 2.084869 1_564
Li1 O13 2.084869 1_654
Li1 O8 2.183414 1_664
Li2 O3 1.870396 1_665
Li2 O9 1.937719 1_555
Li2 O0 2.056323 1_655
Li2 O5 2.056323 1_565
Li3 O12 1.956677 1_555
Li3 O6 2.080655 1_545
Li3 O7 2.080655 1_455
Li3 O1 2.332924 1_555
Mn0 O3 2.172763 1_665
Mn0 O2 2.199004 1_555
Mn0 O15 2.211789 1_565
Mn0 O13 2.211789 1_655
Mn0 O7 2.228880 1_555
Mn0 O6 2.228880 1_555
Mn1 O4 2.125859 1_565
Mn1 O14 2.163207 1_555
Mn1 O12 2.165944 1_555
Mn1 O9 2.182833 1_455
Mn1 O0 2.270820 1_555
Mn1 O10 2.349434 1_555
Mn2 O4 2.125859 1_655
Mn2 O14 2.163207 1_555
Mn2 O12 2.165944 1_555
Mn2 O9 2.182833 1_545
Mn2 O5 2.270820 1_555
Mn2 O11 2.349434 1_555
O0 Sb2 2.112927 1_565
O0 Sn0 2.121166 1_555
O1 Sb0 2.114365 1_555
O1 Sb1 2.114365 1_555
O1 Sn0 2.378741 1_555
O2 Sb1 2.067408 1_555
O2 Sb0 2.067408 1_555
O3 Sb1 2.067671 1_455
O3 Sb0 2.067671 1_545
O4 Sb2 1.967758 1_555
O5 Sb2 2.112927 1_655
O5 Sn0 2.121166 1_555
O6 Sb0 2.019323 1_555
O6 Sn0 2.228241 1_555
O7 Sb1 2.019323 1_555
O7 Sn0 2.228241 1_555
O8 Sb1 2.114382 1_455
O8 Sb0 2.114382 1_545
O8 Sn1 2.437942 1_556
O9 Sn0 1.992092 1_555
O10 Sb2 2.057480 1_555
O10 Sn1 2.155654 1_555
O11 Sb2 2.057480 1_555
O11 Sn1 2.155654 1_555
O12 Sb2 1.983261 1_555
O13 Sb0 2.071818 1_555
O13 Sn1 2.177732 1_556
O14 Sn1 2.022096 1_555
O15 Sb1 2.071818 1_555
O15 Sn1 2.177732 1_556
