# generated using pymatgen
data_Li5MnCr3O8
_symmetry_space_group_name_H-M   'P 1'
_cell_length_a   6.00464627
_cell_length_b   10.73718926
_cell_length_c   6.00472552
_cell_angle_alpha   90.11504492
_cell_angle_beta   60.25514723
_cell_angle_gamma   73.75040461
_symmetry_Int_Tables_number   1
_chemical_formula_structural   Li5MnCr3O8
_chemical_formula_sum   'Li10 Mn2 Cr6 O16'
_cell_volume   318.06663372
_cell_formula_units_Z   2
loop_
 _symmetry_equiv_pos_site_id
 _symmetry_equiv_pos_as_xyz
  1  'x, y, z'
loop_
 _atom_site_type_symbol
 _atom_site_label
 _atom_site_symmetry_multiplicity
 _atom_site_fract_x
 _atom_site_fract_y
 _atom_site_fract_z
 _atom_site_occupancy
  Li  Li0  1  0.93526700  0.09696600  0.03224500  1
  Li  Li1  1  0.93567500  0.59694700  0.53260500  1
  Li  Li2  1  0.06433100  0.40306400  0.46737700  1
  Li  Li3  1  0.06472100  0.90304900  0.96777400  1
  Li  Li4  1  0.49995100  0.24995900  0.24965400  1
  Li  Li5  1  0.50003600  0.75004700  0.75035300  1
  Li  Li6  1  0.99969700  0.24995900  0.74990600  1
  Li  Li7  1  0.00031100  0.75004700  0.25007900  1
  Li  Li8  1  0.00010800  0.24987400  0.24997900  1
  Li  Li9  1  0.99989500  0.75013600  0.75002800  1
  Mn  Mn0  1  0.50151700  0.74942400  0.25092900  1
  Mn  Mn1  1  0.49849200  0.25058200  0.74906300  1
  Cr  Cr0  1  0.49997400  0.99999400  0.50004200  1
  Cr  Cr1  1  0.49999100  0.50000300  0.50001200  1
  Cr  Cr2  1  0.99995100  0.50000800  0.00000700  1
  Cr  Cr3  1  0.50000300  0.49999600  0.99998300  1
  Cr  Cr4  1  0.50002700  0.99998400  0.99999800  1
  Cr  Cr5  1  0.00002400  0.99997900  0.49999900  1
  O  O0  1  0.74168100  0.38801600  0.12986200  1
  O  O1  1  0.74150000  0.88789400  0.62958800  1
  O  O2  1  0.25852400  0.11208400  0.37043100  1
  O  O3  1  0.25830200  0.61198500  0.87013000  1
  O  O4  1  0.74966800  0.61406800  0.88511800  1
  O  O5  1  0.75050100  0.11405500  0.38479700  1
  O  O6  1  0.75117400  0.61315100  0.36425500  1
  O  O7  1  0.75014300  0.11344700  0.86356600  1
  O  O8  1  0.27106300  0.61406000  0.36374200  1
  O  O9  1  0.27075900  0.11405800  0.86452500  1
  O  O10  1  0.72924200  0.88594600  0.13549200  1
  O  O11  1  0.72894200  0.38594500  0.63624000  1
  O  O12  1  0.24990800  0.88654700  0.13639600  1
  O  O13  1  0.24881000  0.38685700  0.63574000  1
  O  O14  1  0.24949500  0.88593700  0.61521900  1
  O  O15  1  0.25030800  0.38594400  0.11486700  1
loop_
_geom_bond_atom_site_label_1
_geom_bond_atom_site_label_2
_geom_bond_distance
_geom_bond_site_symmetry_2
Li0 O5 1.816621 1_555
Li0 O9 1.816778 1_654
Li0 O7 1.816793 1_554
Li1 O6 1.812087 1_555
Li1 O8 1.816377 1_655
Li1 O4 1.816442 1_555
Li2 O13 1.812038 1_555
Li2 O11 1.816409 1_455
Li2 O15 1.816426 1_555
Li3 O14 1.816619 1_555
Li3 O10 1.816760 1_456
Li3 O12 1.816807 1_556
Li4 O2 2.231866 1_555
Li4 O0 2.234731 1_555
Li4 O15 2.240026 1_555
Li4 O5 2.244740 1_555
Li4 O7 2.253475 1_554
Li4 O13 2.255242 1_555
Li5 O1 2.231761 1_555
Li5 O3 2.234793 1_555
Li5 O4 2.239861 1_555
Li5 O14 2.244597 1_555
Li5 O12 2.253238 1_556
Li5 O6 2.255282 1_555
Li6 O2 2.232488 1_655
Li6 O0 2.235335 1_556
Li6 O11 2.239987 1_555
Li6 O9 2.244675 1_655
Li6 O7 2.253466 1_555
Li6 O13 2.255019 1_655
Li7 O1 2.232485 1_455
Li7 O3 2.235332 1_554
Li7 O8 2.239967 1_555
Li7 O10 2.244566 1_455
Li7 O12 2.253534 1_555
Li7 O6 2.255100 1_455
Li8 O2 2.225515 1_555
Li8 O0 2.225989 1_455
Li8 O5 2.247764 1_455
Li8 O9 2.247780 1_554
Li8 O11 2.252337 1_455
Li8 O15 2.252456 1_555
Li9 O1 2.225220 1_555
Li9 O3 2.225894 1_655
Li9 O14 2.247573 1_655
Li9 O10 2.247792 1_556
Li9 O8 2.252462 1_655
Li9 O4 2.252542 1_555
Mn0 O6 2.154061 1_555
Mn0 O10 2.164340 1_555
Mn0 O14 2.164386 1_555
Mn0 O4 2.164478 1_554
Mn0 O8 2.164627 1_555
Mn0 O12 2.171060 1_555
Mn1 O13 2.154159 1_555
Mn1 O5 2.164362 1_555
Mn1 O9 2.164391 1_555
Mn1 O15 2.164480 1_556
Mn1 O11 2.164601 1_555
Mn1 O7 2.171170 1_555
Cr0 O9 2.059412 1_565
Cr0 O10 2.059628 1_555
Cr0 O14 2.059678 1_555
Cr0 O5 2.059913 1_565
Cr0 O2 2.074385 1_565
Cr0 O1 2.074474 1_555
Cr1 O13 2.055398 1_555
Cr1 O6 2.055429 1_555
Cr1 O11 2.058304 1_555
Cr1 O8 2.058387 1_555
Cr1 O3 2.074471 1_555
Cr1 O0 2.074631 1_555
Cr2 O6 2.054961 1_555
Cr2 O13 2.055091 1_654
Cr2 O4 2.058277 1_554
Cr2 O15 2.058497 1_655
Cr2 O0 2.075211 1_555
Cr2 O3 2.075437 1_654
Cr3 O11 2.056155 1_555
Cr3 O15 2.056245 1_556
Cr3 O8 2.056282 1_556
Cr3 O4 2.056288 1_555
Cr3 O0 2.076085 1_556
Cr3 O3 2.076109 1_555
Cr4 O12 2.053563 1_556
Cr4 O7 2.053781 1_565
Cr4 O10 2.056109 1_556
Cr4 O9 2.056397 1_565
Cr4 O1 2.076175 1_555
Cr4 O2 2.076317 1_566
Cr5 O7 2.053676 1_465
Cr5 O12 2.053679 1_555
Cr5 O14 2.056034 1_555
Cr5 O5 2.056329 1_465
Cr5 O1 2.077094 1_455
Cr5 O2 2.077159 1_565
