# generated using pymatgen
data_Li32Mn13Cr3O48
_symmetry_space_group_name_H-M   'P 1'
_cell_length_a   5.00420400
_cell_length_b   8.68648345
_cell_length_c   19.42083081
_cell_angle_alpha   98.42216656
_cell_angle_beta   94.75466503
_cell_angle_gamma   89.95699428
_symmetry_Int_Tables_number   1
_chemical_formula_structural   Li32Mn13Cr3O48
_chemical_formula_sum   'Li32 Mn13 Cr3 O48'
_cell_volume   832.16940901
_cell_formula_units_Z   1
loop_
 _symmetry_equiv_pos_site_id
 _symmetry_equiv_pos_as_xyz
  1  'x, y, z'
loop_
 _atom_site_type_symbol
 _atom_site_label
 _atom_site_symmetry_multiplicity
 _atom_site_fract_x
 _atom_site_fract_y
 _atom_site_fract_z
 _atom_site_occupancy
  Li  Li0  1  0.99032300  0.16692600  0.24959600  1
  Li  Li1  1  0.87250700  0.37563300  0.37525100  1
  Li  Li2  1  0.75020600  0.24989700  0.00006300  1
  Li  Li3  1  0.74151200  0.91982200  0.00059300  1
  Li  Li4  1  0.99256100  0.16805900  0.75017600  1
  Li  Li5  1  0.75612400  0.57857900  0.49980900  1
  Li  Li6  1  0.87576600  0.37468000  0.87525600  1
  Li  Li7  1  0.74896400  0.25153600  0.49993700  1
  Li  Li8  1  0.74403100  0.92023200  0.50004700  1
  Li  Li9  1  0.62485000  0.12502600  0.12499900  1
  Li  Li10  1  0.75689800  0.58044400  0.99978600  1
  Li  Li11  1  0.50985900  0.33102700  0.24966900  1
  Li  Li12  1  0.62373100  0.12452300  0.62511700  1
  Li  Li13  1  0.49922000  0.00000300  0.24994900  1
  Li  Li14  1  0.49149400  0.66850700  0.24971000  1
  Li  Li15  1  0.50745400  0.33271400  0.75023800  1
  Li  Li16  1  0.37447900  0.87515500  0.37473200  1
  Li  Li17  1  0.50042100  0.99966900  0.75020000  1
  Li  Li18  1  0.25206700  0.74911300  0.00014300  1
  Li  Li19  1  0.49109200  0.66778000  0.74946600  1
  Li  Li20  1  0.24282700  0.42027800  0.00018600  1
  Li  Li21  1  0.37760500  0.87515600  0.87470400  1
  Li  Li22  1  0.25865200  0.07889600  0.49956200  1
  Li  Li23  1  0.24978700  0.74985400  0.50002300  1
  Li  Li24  1  0.12488600  0.62505500  0.12500000  1
  Li  Li25  1  0.24312200  0.42123100  0.50045900  1
  Li  Li26  1  0.00910900  0.83251300  0.25044000  1
  Li  Li27  1  0.25635600  0.08052500  0.99984700  1
  Li  Li28  1  0.12459100  0.62414100  0.62485800  1
  Li  Li29  1  0.00052000  0.50038900  0.24981900  1
  Li  Li30  1  0.00684800  0.83188500  0.75021400  1
  Li  Li31  1  0.00174300  0.50031100  0.74990400  1
  Mn  Mn0  1  0.87493600  0.70843800  0.37483800  1
  Mn  Mn1  1  0.87337700  0.03977000  0.37418500  1
  Mn  Mn2  1  0.87361500  0.04193000  0.87442100  1
  Mn  Mn3  1  0.62575400  0.79132500  0.12493800  1
  Mn  Mn4  1  0.62470400  0.45850300  0.12500800  1
  Mn  Mn5  1  0.62608600  0.79136400  0.62500000  1
  Mn  Mn6  1  0.62418300  0.45984200  0.62469000  1
  Mn  Mn7  1  0.37740200  0.54308400  0.37556500  1
  Mn  Mn8  1  0.37745600  0.54063000  0.87585600  1
  Mn  Mn9  1  0.37375100  0.20851500  0.87514700  1
  Mn  Mn10  1  0.12464900  0.95837500  0.12493600  1
  Mn  Mn11  1  0.12565400  0.29140000  0.12499900  1
  Mn  Mn12  1  0.12561600  0.95685400  0.62535600  1
  Cr  Cr0  1  0.87993800  0.70897600  0.87500300  1
  Cr  Cr1  1  0.36810500  0.21025600  0.37500300  1
  Cr  Cr2  1  0.12274000  0.28908600  0.62509100  1
  O  O0  1  0.96396500  0.10645800  0.06914300  1
  O  O1  1  0.92836400  0.78515800  0.06901900  1
  O  O2  1  0.92786200  0.42742300  0.06831200  1
  O  O3  1  0.96660900  0.10600400  0.56934500  1
  O  O4  1  0.82170800  0.96459100  0.18062000  1
  O  O5  1  0.82238100  0.32247200  0.18184700  1
  O  O6  1  0.92799000  0.78487000  0.56914000  1
  O  O7  1  0.92402700  0.42939900  0.56758000  1
  O  O8  1  0.78607200  0.64342200  0.18076800  1
  O  O9  1  0.71194000  0.85556000  0.31902300  1
  O  O10  1  0.82213900  0.96501800  0.68068400  1
  O  O11  1  0.82592600  0.32446900  0.68178800  1
  O  O12  1  0.67898400  0.53500400  0.31904000  1
  O  O13  1  0.67774800  0.17685200  0.31813700  1
  O  O14  1  0.78678800  0.64387900  0.68082200  1
  O  O15  1  0.71213500  0.85972600  0.81840900  1
  O  O16  1  0.46423900  0.60628100  0.06928500  1
  O  O17  1  0.57210500  0.71592000  0.43079100  1
  O  O18  1  0.57260300  0.07383800  0.43176700  1
  O  O19  1  0.67815900  0.53748000  0.81938300  1
  O  O20  1  0.67788700  0.17866600  0.81834300  1
  O  O21  1  0.42785800  0.92753800  0.06814100  1
  O  O22  1  0.42816500  0.28517200  0.06916200  1
  O  O23  1  0.53791300  0.39788600  0.43149100  1
  O  O24  1  0.46289500  0.60746500  0.56935500  1
  O  O25  1  0.56920500  0.71452600  0.93117200  1
  O  O26  1  0.57120900  0.07230900  0.93180900  1
  O  O27  1  0.32243700  0.82237000  0.18158900  1
  O  O28  1  0.32197700  0.46470400  0.18092100  1
  O  O29  1  0.42854700  0.92751200  0.56824100  1
  O  O30  1  0.42624600  0.28697200  0.56922000  1
  O  O31  1  0.53795200  0.39278500  0.93099000  1
  O  O32  1  0.28598700  0.14346400  0.18082800  1
  O  O33  1  0.21889000  0.35591700  0.31925000  1
  O  O34  1  0.32221200  0.82157200  0.68172600  1
  O  O35  1  0.32376100  0.46554800  0.68124500  1
  O  O36  1  0.17757700  0.67763600  0.31813000  1
  O  O37  1  0.17287900  0.03222900  0.31833000  1
  O  O38  1  0.28729200  0.14048500  0.68127300  1
  O  O39  1  0.21376500  0.35628500  0.81935900  1
  O  O40  1  0.07245500  0.57232200  0.43151600  1
  O  O41  1  0.07474700  0.21277500  0.43066600  1
  O  O42  1  0.17722100  0.67609300  0.81845100  1
  O  O43  1  0.17771300  0.03497600  0.81934800  1
  O  O44  1  0.03596100  0.89307400  0.43064600  1
  O  O45  1  0.07602700  0.57081500  0.93245100  1
  O  O46  1  0.07194200  0.21483400  0.93092800  1
  O  O47  1  0.02996800  0.89233600  0.93072700  1
loop_
_geom_bond_atom_site_label_1
_geom_bond_atom_site_label_2
_geom_bond_distance
_geom_bond_site_symmetry_2
Li0 O37 2.058932 1_655
Li0 O32 2.064384 1_655
Li0 O13 2.130108 1_555
Li0 O5 2.144486 1_555
Li0 O4 2.172711 1_545
Li0 O33 2.220142 1_655
Li1 O23 2.067537 1_555
Li1 O12 2.076415 1_555
Li1 O40 2.094924 1_655
Li1 O13 2.103328 1_555
Li1 O41 2.108792 1_655
Li1 O33 2.115246 1_655
Li2 O2 2.033019 1_555
Li2 O26 2.036010 1_554
Li2 O31 2.172049 1_554
Li2 O46 2.173832 1_654
Li2 O22 2.174671 1_555
Li2 O0 2.178608 1_555
Li3 O47 2.052076 1_654
Li3 O1 2.063083 1_555
Li3 O21 2.122369 1_555
Li3 O26 2.143168 1_564
Li3 O0 2.182815 1_565
Li3 O25 2.201507 1_554
Li4 O43 2.060702 1_655
Li4 O38 2.063033 1_655
Li4 O20 2.133166 1_555
Li4 O11 2.156053 1_555
Li4 O10 2.184853 1_545
Li4 O39 2.194656 1_655
Li5 O24 2.066184 1_555
Li5 O17 2.080880 1_555
Li5 O7 2.105266 1_555
Li5 O23 2.137461 1_555
Li5 O40 2.143524 1_655
Li5 O6 2.206190 1_555
Li6 O31 2.075369 1_555
Li6 O39 2.077992 1_655
Li6 O46 2.079042 1_655
Li6 O20 2.090724 1_555
Li6 O45 2.098680 1_655
Li6 O19 2.103489 1_555
Li7 O7 2.024096 1_555
Li7 O18 2.030759 1_555
Li7 O30 2.179776 1_555
Li7 O23 2.181467 1_555
Li7 O41 2.193423 1_655
Li7 O3 2.203417 1_555
Li8 O44 2.058934 1_655
Li8 O6 2.070342 1_555
Li8 O29 2.138310 1_555
Li8 O18 2.145387 1_565
Li8 O3 2.184928 1_565
Li8 O17 2.193220 1_555
Li9 O32 2.080937 1_555
Li9 O0 2.082322 1_555
Li9 O4 2.083740 1_545
Li9 O22 2.083926 1_555
Li9 O21 2.097891 1_545
Li9 O5 2.098703 1_555
Li10 O16 2.062871 1_556
Li10 O25 2.063951 1_555
Li10 O45 2.140424 1_655
Li10 O2 2.144201 1_556
Li10 O31 2.182838 1_555
Li10 O1 2.194743 1_556
Li11 O33 2.057445 1_555
Li11 O28 2.063815 1_555
Li11 O5 2.121070 1_555
Li11 O13 2.145295 1_555
Li11 O12 2.187406 1_555
Li11 O32 2.193939 1_555
Li12 O38 2.074346 1_555
Li12 O10 2.080480 1_545
Li12 O29 2.091100 1_545
Li12 O3 2.097567 1_555
Li12 O30 2.101219 1_555
Li12 O11 2.123617 1_555
Li13 O13 2.030206 1_555
Li13 O27 2.033053 1_545
Li13 O32 2.178104 1_555
Li13 O4 2.179442 1_545
Li13 O37 2.181485 1_555
Li13 O9 2.182038 1_545
Li14 O8 2.062638 1_555
Li14 O12 2.069875 1_555
Li14 O36 2.134164 1_555
Li14 O27 2.140788 1_555
Li14 O28 2.181742 1_555
Li14 O9 2.187436 1_555
Li15 O35 2.053981 1_555
Li15 O39 2.061548 1_555
Li15 O20 2.144100 1_555
Li15 O11 2.152986 1_555
Li15 O19 2.192985 1_555
Li15 O38 2.213351 1_555
Li16 O9 2.073598 1_555
Li16 O44 2.080415 1_555
Li16 O37 2.081297 1_565
Li16 O17 2.082580 1_555
Li16 O36 2.096076 1_555
Li16 O18 2.109267 1_565
Li17 O34 2.039576 1_555
Li17 O20 2.040122 1_565
Li17 O15 2.142906 1_555
Li17 O38 2.160237 1_565
Li17 O43 2.177956 1_565
Li17 O10 2.178470 1_555
Li18 O45 2.028958 1_554
Li18 O21 2.032200 1_555
Li18 O25 2.153348 1_554
Li18 O16 2.172434 1_555
Li18 O1 2.178772 1_455
Li18 O47 2.200301 1_554
Li19 O19 2.058892 1_555
Li19 O14 2.062859 1_555
Li19 O34 2.135041 1_555
Li19 O42 2.141843 1_555
Li19 O35 2.163100 1_555
Li19 O15 2.213501 1_555
Li20 O31 2.068468 1_554
Li20 O22 2.070000 1_555
Li20 O45 2.111237 1_554
Li20 O2 2.135439 1_455
Li20 O16 2.181761 1_555
Li20 O46 2.198555 1_554
Li21 O15 2.067819 1_555
Li21 O43 2.083385 1_565
Li21 O25 2.083450 1_555
Li21 O26 2.090328 1_565
Li21 O42 2.111079 1_555
Li21 O47 2.120905 1_555
Li22 O41 2.059061 1_555
Li22 O3 2.064532 1_455
Li22 O18 2.128287 1_555
Li22 O29 2.134287 1_545
Li22 O44 2.182027 1_545
Li22 O30 2.213207 1_555
Li23 O40 2.034966 1_555
Li23 O29 2.035603 1_555
Li23 O6 2.173823 1_455
Li23 O24 2.174386 1_555
Li23 O17 2.176921 1_555
Li23 O44 2.181303 1_555
Li24 O8 2.080042 1_455
Li24 O16 2.081767 1_555
Li24 O1 2.084920 1_455
Li24 O28 2.087066 1_555
Li24 O27 2.096060 1_555
Li24 O2 2.097676 1_455
Li25 O30 2.057887 1_555
Li25 O23 2.063711 1_555
Li25 O40 2.137328 1_555
Li25 O7 2.138200 1_455
Li25 O24 2.177499 1_555
Li25 O41 2.218101 1_555
Li26 O9 2.067702 1_455
Li26 O4 2.068250 1_455
Li26 O27 2.137067 1_555
Li26 O37 2.138373 1_565
Li26 O36 2.140436 1_555
Li26 O8 2.208133 1_455
Li27 O0 2.059110 1_456
Li27 O46 2.062837 1_555
Li27 O26 2.133282 1_555
Li27 O21 2.141874 1_546
Li27 O22 2.195645 1_556
Li27 O47 2.205791 1_545
Li28 O24 2.074934 1_555
Li28 O14 2.077933 1_455
Li28 O35 2.085505 1_555
Li28 O6 2.086178 1_455
Li28 O7 2.091070 1_455
Li28 O34 2.098942 1_555
Li29 O36 2.030872 1_555
Li29 O5 2.033498 1_455
Li29 O28 2.169971 1_555
Li29 O12 2.173953 1_455
Li29 O8 2.177424 1_455
Li29 O33 2.199231 1_555
Li30 O15 2.053539 1_455
Li30 O10 2.064965 1_455
Li30 O34 2.140230 1_555
Li30 O42 2.156568 1_555
Li30 O43 2.182682 1_565
Li30 O14 2.192688 1_455
Li31 O11 2.018499 1_455
Li31 O42 2.021779 1_555
Li31 O35 2.168747 1_555
Li31 O14 2.182012 1_455
Li31 O39 2.182996 1_555
Li31 O19 2.186515 1_455
Mn0 O9 1.931626 1_555
Mn0 O17 1.932284 1_555
Mn0 O44 1.935011 1_655
Mn0 O12 1.937344 1_555
Mn0 O36 1.941058 1_655
Mn0 O40 1.945692 1_655
Mn1 O37 1.917249 1_655
Mn1 O9 1.927970 1_545
Mn1 O44 1.935956 1_645
Mn1 O13 1.939689 1_555
Mn1 O18 1.945508 1_555
Mn1 O41 1.952750 1_655
Mn2 O15 1.921754 1_545
Mn2 O43 1.927215 1_655
Mn2 O20 1.938182 1_555
Mn2 O47 1.941490 1_645
Mn2 O46 1.945239 1_655
Mn2 O26 1.948006 1_555
Mn3 O1 1.931551 1_555
Mn3 O8 1.931881 1_555
Mn3 O4 1.935425 1_555
Mn3 O16 1.937358 1_555
Mn3 O27 1.943297 1_555
Mn3 O21 1.948559 1_555
Mn4 O16 1.930045 1_555
Mn4 O28 1.931949 1_555
Mn4 O8 1.937109 1_555
Mn4 O22 1.938452 1_555
Mn4 O2 1.943189 1_555
Mn4 O5 1.947464 1_555
Mn5 O6 1.927748 1_555
Mn5 O14 1.929783 1_555
Mn5 O24 1.933008 1_555
Mn5 O10 1.938016 1_555
Mn5 O34 1.946107 1_555
Mn5 O29 1.946894 1_555
Mn6 O24 1.925877 1_555
Mn6 O35 1.930447 1_555
Mn6 O7 1.934142 1_555
Mn6 O30 1.935979 1_555
Mn6 O14 1.936631 1_555
Mn6 O11 1.956076 1_555
Mn7 O23 1.915925 1_555
Mn7 O17 1.926379 1_555
Mn7 O12 1.933791 1_555
Mn7 O40 1.940988 1_555
Mn7 O36 1.950747 1_555
Mn7 O33 1.950871 1_555
Mn8 O31 1.923425 1_555
Mn8 O25 1.926784 1_555
Mn8 O19 1.932025 1_555
Mn8 O45 1.934415 1_555
Mn8 O39 1.943546 1_555
Mn8 O42 1.956750 1_555
Mn9 O46 1.926479 1_555
Mn9 O39 1.929897 1_555
Mn9 O43 1.938185 1_555
Mn9 O31 1.938865 1_555
Mn9 O26 1.945901 1_555
Mn9 O20 1.947961 1_555
Mn10 O4 1.930065 1_455
Mn10 O0 1.933276 1_465
Mn10 O1 1.937735 1_455
Mn10 O32 1.939191 1_565
Mn10 O21 1.944460 1_555
Mn10 O27 1.945351 1_555
Mn11 O22 1.930118 1_555
Mn11 O32 1.932111 1_555
Mn11 O28 1.938387 1_555
Mn11 O0 1.938607 1_455
Mn11 O5 1.945466 1_455
Mn11 O2 1.945872 1_455
Mn12 O10 1.927170 1_455
Mn12 O38 1.930572 1_565
Mn12 O34 1.934901 1_555
Mn12 O6 1.935789 1_455
Mn12 O3 1.939783 1_465
Mn12 O29 1.946467 1_555
Cr0 O47 1.906275 1_655
Cr0 O42 1.918150 1_655
Cr0 O19 1.937951 1_555
Cr0 O45 1.963908 1_655
Cr0 O25 1.968729 1_555
Cr0 O15 1.973541 1_555
Cr1 O41 1.892165 1_555
Cr1 O33 1.896513 1_555
Cr1 O18 1.964834 1_555
Cr1 O37 1.970457 1_555
Cr1 O13 1.973324 1_555
Cr1 O23 1.976298 1_555
Cr2 O3 1.915464 1_455
Cr2 O11 1.919471 1_455
Cr2 O30 1.936954 1_555
Cr2 O38 1.948542 1_555
Cr2 O35 1.970178 1_555
Cr2 O7 1.983606 1_455
