# generated using pymatgen
data_NaMgH4SO6F
_symmetry_space_group_name_H-M   'P 1'
_cell_length_a   7.26465700
_cell_length_b   5.75266200
_cell_length_c   7.27248068
_cell_angle_alpha   67.55430877
_cell_angle_beta   90.00000000
_cell_angle_gamma   90.00000000
_symmetry_Int_Tables_number   1
_chemical_formula_structural   NaMgH4SO6F
_chemical_formula_sum   'Na2 Mg2 H8 S2 O12 F2'
_cell_volume   280.90028351
_cell_formula_units_Z   2
loop_
 _symmetry_equiv_pos_site_id
 _symmetry_equiv_pos_as_xyz
  1  'x, y, z'
loop_
 _atom_site_type_symbol
 _atom_site_label
 _atom_site_symmetry_multiplicity
 _atom_site_fract_x
 _atom_site_fract_y
 _atom_site_fract_z
 _atom_site_occupancy
  Na  Na0  1  0.25000000  0.63538300  0.80101900  1
  Na  Na1  1  0.75000000  0.36461700  0.19898100  1
  Mg  Mg0  1  0.00000000  0.00000000  0.00000000  1
  Mg  Mg1  1  0.50000000  0.00000000  0.00000000  1
  H  H0  1  0.56834600  0.42879300  0.69872600  1
  H  H1  1  0.93165400  0.42879300  0.69872600  1
  H  H2  1  0.09539100  0.29462500  0.63339000  1
  H  H3  1  0.40460900  0.29462500  0.63339000  1
  H  H4  1  0.59539100  0.70537500  0.36661000  1
  H  H5  1  0.90460900  0.70537500  0.36661000  1
  H  H6  1  0.06834600  0.57120700  0.30127400  1
  H  H7  1  0.43165400  0.57120700  0.30127400  1
  S  S0  1  0.75000000  0.85457900  0.69100400  1
  S  S1  1  0.25000000  0.14542100  0.30899600  1
  O  O0  1  0.58275000  0.80300500  0.82122100  1
  O  O1  1  0.91725000  0.80300500  0.82122100  1
  O  O2  1  0.04540400  0.32837300  0.74682900  1
  O  O3  1  0.45459600  0.32837300  0.74682900  1
  O  O4  1  0.75000000  0.66391200  0.59193300  1
  O  O5  1  0.25000000  0.88936400  0.45931000  1
  O  O6  1  0.75000000  0.11063600  0.54069000  1
  O  O7  1  0.25000000  0.33608800  0.40806700  1
  O  O8  1  0.95459600  0.67162700  0.25317100  1
  O  O9  1  0.54540400  0.67162700  0.25317100  1
  O  O10  1  0.08275000  0.19699500  0.17877900  1
  O  O11  1  0.41725000  0.19699500  0.17877900  1
  F  F0  1  0.25000000  0.88223300  0.97877500  1
  F  F1  1  0.75000000  0.11776700  0.02122500  1
loop_
_geom_bond_atom_site_label_1
_geom_bond_atom_site_label_2
_geom_bond_distance
_geom_bond_site_symmetry_2
Na0 O5 2.353237 1_555
Na0 O3 2.452580 1_555
Na0 O2 2.452580 1_555
Na0 O0 2.627356 1_555
Na0 O1 2.627356 1_455
Na1 O6 2.353237 1_555
Na1 O8 2.452580 1_555
Na1 O9 2.452580 1_555
Na1 O11 2.627356 1_555
Na1 O10 2.627356 1_655
Mg0 O2 2.100301 1_554
Mg0 O8 2.100301 1_445
Mg0 O10 2.112150 1_555
Mg0 O1 2.112150 1_444
Mg1 O9 2.100301 1_545
Mg1 O3 2.100301 1_554
Mg1 O11 2.112150 1_555
Mg1 O0 2.112150 1_544
H0 O3 0.992290 1_555
H1 O2 0.992290 1_655
H2 O2 0.986134 1_555
H3 O3 0.986134 1_555
H4 O9 0.986134 1_555
H5 O8 0.986134 1_555
H6 O8 0.992290 1_455
H7 O9 0.992290 1_555
O0 S0 1.498848 1_555
O1 S0 1.498848 1_555
O4 S0 1.525002 1_555
O5 S1 1.461216 1_565
O6 S0 1.461216 1_545
O7 S1 1.525002 1_555
O10 S1 1.498848 1_555
O11 S1 1.498848 1_555
F0 Mg0 1.964969 1_566
F0 Mg1 1.964969 1_566
F0 Na0 2.255983 1_555
F1 Mg0 1.964969 1_655
F1 Mg1 1.964969 1_555
F1 Na1 2.255983 1_555
