# generated using pymatgen
data_As2PHO6
_symmetry_space_group_name_H-M   'P 1'
_cell_length_a   11.22291700
_cell_length_b   4.94662700
_cell_length_c   11.85549504
_cell_angle_alpha   72.22489608
_cell_angle_beta   90.00000000
_cell_angle_gamma   90.00000000
_symmetry_Int_Tables_number   1
_chemical_formula_structural   As2PHO6
_chemical_formula_sum   'As8 P4 H4 O24'
_cell_volume   626.74535351
_cell_formula_units_Z   4
loop_
 _symmetry_equiv_pos_site_id
 _symmetry_equiv_pos_as_xyz
  1  'x, y, z'
loop_
 _atom_site_type_symbol
 _atom_site_label
 _atom_site_symmetry_multiplicity
 _atom_site_fract_x
 _atom_site_fract_y
 _atom_site_fract_z
 _atom_site_occupancy
  As  As0  1  0.60370200  0.59077300  0.65691800  1
  As  As1  1  0.89629800  0.59077300  0.15691800  1
  As  As2  1  0.39629800  0.40922700  0.34308200  1
  As  As3  1  0.10370200  0.40922700  0.84308200  1
  As  As4  1  0.64000900  0.83707900  0.87659200  1
  As  As5  1  0.85999100  0.83707900  0.37659200  1
  As  As6  1  0.35999100  0.16292100  0.12340800  1
  As  As7  1  0.14000900  0.16292100  0.62340800  1
  P  P0  1  0.82020600  0.36159700  0.85086900  1
  P  P1  1  0.67979400  0.36159700  0.35086900  1
  P  P2  1  0.17979400  0.63840300  0.14913100  1
  P  P3  1  0.32020600  0.63840300  0.64913100  1
  H  H0  1  0.46434600  0.35557400  0.80339300  1
  H  H1  1  0.03565400  0.35557400  0.30339300  1
  H  H2  1  0.53565400  0.64442600  0.19660700  1
  H  H3  1  0.96434600  0.64442600  0.69660700  1
  O  O0  1  0.55339600  0.33363200  0.79721600  1
  O  O1  1  0.94660400  0.33363200  0.29721600  1
  O  O2  1  0.44660400  0.66636800  0.20278400  1
  O  O3  1  0.05339600  0.66636800  0.70278400  1
  O  O4  1  0.62004900  0.88382800  0.72035200  1
  O  O5  1  0.87995100  0.88382800  0.22035200  1
  O  O6  1  0.37995100  0.11617200  0.27964800  1
  O  O7  1  0.12004900  0.11617200  0.77964800  1
  O  O8  1  0.77722600  0.04500300  0.87453900  1
  O  O9  1  0.72277400  0.04500300  0.37453900  1
  O  O10  1  0.22277400  0.95499700  0.12546100  1
  O  O11  1  0.27722600  0.95499700  0.62546100  1
  O  O12  1  0.94667900  0.32311800  0.90912400  1
  O  O13  1  0.55332100  0.32311800  0.40912400  1
  O  O14  1  0.05332100  0.67688200  0.09087600  1
  O  O15  1  0.44667900  0.67688200  0.59087600  1
  O  O16  1  0.23834200  0.49585300  0.57574300  1
  O  O17  1  0.26165800  0.49585300  0.07574300  1
  O  O18  1  0.76165800  0.50414700  0.42425700  1
  O  O19  1  0.73834200  0.50414700  0.92425700  1
  O  O20  1  0.82299000  0.52511700  0.72043100  1
  O  O21  1  0.67701000  0.52511700  0.22043100  1
  O  O22  1  0.17701000  0.47488300  0.27956900  1
  O  O23  1  0.32299000  0.47488300  0.77956900  1
loop_
_geom_bond_atom_site_label_1
_geom_bond_atom_site_label_2
_geom_bond_distance
_geom_bond_site_symmetry_2
As0 O4 1.834745 1_555
As0 O0 1.847024 1_555
As0 O15 1.922598 1_555
As1 O5 1.834745 1_555
As1 O1 1.847024 1_555
As1 O14 1.922598 1_655
As2 O6 1.834745 1_555
As2 O2 1.847024 1_555
As2 O13 1.922598 1_555
As3 O7 1.834745 1_555
As3 O3 1.847024 1_555
As3 O12 1.922598 1_455
As4 O4 1.809185 1_555
As4 O8 1.847888 1_565
As4 O19 1.918660 1_555
As5 O5 1.809185 1_555
As5 O9 1.847888 1_565
As5 O18 1.918660 1_555
As6 O6 1.809185 1_555
As6 O10 1.847888 1_545
As6 O17 1.918660 1_555
As7 O7 1.809185 1_555
As7 O11 1.847888 1_545
As7 O16 1.918660 1_555
H0 O0 1.010346 1_555
H1 O1 1.010346 1_455
H2 O2 1.010346 1_555
H3 O3 1.010346 1_655
O8 P0 1.579771 1_555
O9 P1 1.579771 1_555
O10 P2 1.579771 1_555
O11 P3 1.579771 1_555
O12 P0 1.564493 1_555
O13 P1 1.564493 1_555
O14 P2 1.564493 1_555
O15 P3 1.564493 1_555
O16 P3 1.572548 1_555
O17 P2 1.572548 1_555
O18 P1 1.572548 1_555
O19 P0 1.572548 1_555
O20 P0 1.510929 1_555
O21 P1 1.510929 1_555
O22 P2 1.510929 1_555
O23 P3 1.510929 1_555
