# generated using pymatgen
data_Li2Fe3F8
_symmetry_space_group_name_H-M   'P 1'
_cell_length_a   9.40465200
_cell_length_b   6.79365600
_cell_length_c   11.29224229
_cell_angle_alpha   88.47068512
_cell_angle_beta   90.00000000
_cell_angle_gamma   90.00000000
_symmetry_Int_Tables_number   1
_chemical_formula_structural   Li2Fe3F8
_chemical_formula_sum   'Li8 Fe12 F32'
_cell_volume   721.22661910
_cell_formula_units_Z   4
loop_
 _symmetry_equiv_pos_site_id
 _symmetry_equiv_pos_as_xyz
  1  'x, y, z'
loop_
 _atom_site_type_symbol
 _atom_site_label
 _atom_site_symmetry_multiplicity
 _atom_site_fract_x
 _atom_site_fract_y
 _atom_site_fract_z
 _atom_site_occupancy
  Li  Li0  1  0.05252800  0.90343300  0.85428200  1
  Li  Li1  1  0.44747200  0.90343300  0.35428200  1
  Li  Li2  1  0.60580300  0.59260300  0.86272900  1
  Li  Li3  1  0.89419700  0.59260300  0.36272900  1
  Li  Li4  1  0.10580300  0.40739700  0.63727100  1
  Li  Li5  1  0.39419700  0.40739700  0.13727100  1
  Li  Li6  1  0.55252800  0.09656700  0.64571800  1
  Li  Li7  1  0.94747200  0.09656700  0.14571800  1
  Fe  Fe0  1  0.19097800  0.90254100  0.56132000  1
  Fe  Fe1  1  0.30902200  0.90254100  0.06132000  1
  Fe  Fe2  1  0.84130200  0.75168000  0.64275900  1
  Fe  Fe3  1  0.65869800  0.75168000  0.14275900  1
  Fe  Fe4  1  0.45212000  0.60953800  0.62316400  1
  Fe  Fe5  1  0.04788000  0.60953800  0.12316400  1
  Fe  Fe6  1  0.95212000  0.39046200  0.87683600  1
  Fe  Fe7  1  0.54788000  0.39046200  0.37683600  1
  Fe  Fe8  1  0.34130200  0.24832000  0.85724100  1
  Fe  Fe9  1  0.15869800  0.24832000  0.35724100  1
  Fe  Fe10  1  0.69097800  0.09745900  0.93868000  1
  Fe  Fe11  1  0.80902200  0.09745900  0.43868000  1
  F  F0  1  0.24462900  0.96730200  0.89425500  1
  F  F1  1  0.25537100  0.96730200  0.39425500  1
  F  F2  1  0.40227600  0.90647700  0.62285100  1
  F  F3  1  0.09772400  0.90647700  0.12285100  1
  F  F4  1  0.03927800  0.86427400  0.68616200  1
  F  F5  1  0.46072200  0.86427400  0.18616200  1
  F  F6  1  0.60556700  0.80815400  0.96668300  1
  F  F7  1  0.89443300  0.80815400  0.46668300  1
  F  F8  1  0.99498500  0.66410100  0.93223800  1
  F  F9  1  0.65052300  0.68010500  0.70471200  1
  F  F10  1  0.50501500  0.66410100  0.43223800  1
  F  F11  1  0.84947700  0.68010500  0.20471200  1
  F  F12  1  0.23251500  0.60163300  0.57899900  1
  F  F13  1  0.26748500  0.60163300  0.07899900  1
  F  F14  1  0.42183600  0.51401400  0.80528300  1
  F  F15  1  0.07816400  0.51401400  0.30528300  1
  F  F16  1  0.92183600  0.48598600  0.69471700  1
  F  F17  1  0.57816400  0.48598600  0.19471700  1
  F  F18  1  0.73251500  0.39836700  0.92100100  1
  F  F19  1  0.76748500  0.39836700  0.42100100  1
  F  F20  1  0.15052300  0.31989500  0.79528800  1
  F  F21  1  0.49498500  0.33589900  0.56776200  1
  F  F22  1  0.34947700  0.31989500  0.29528800  1
  F  F23  1  0.00501500  0.33589900  0.06776200  1
  F  F24  1  0.10556700  0.19184600  0.53331700  1
  F  F25  1  0.39443300  0.19184600  0.03331700  1
  F  F26  1  0.53927800  0.13572600  0.81383800  1
  F  F27  1  0.96072200  0.13572600  0.31383800  1
  F  F28  1  0.90227600  0.09352300  0.87714900  1
  F  F29  1  0.59772400  0.09352300  0.37714900  1
  F  F30  1  0.74462900  0.03269800  0.60574500  1
  F  F31  1  0.75537100  0.03269800  0.10574500  1
loop_
_geom_bond_atom_site_label_1
_geom_bond_atom_site_label_2
_geom_bond_distance
_geom_bond_site_symmetry_2
F0 Li0 1.914794 1_555
F0 Fe1 2.018672 1_556
F0 Fe8 2.145582 1_565
F1 Li1 1.914794 1_555
F1 Fe0 2.018672 1_555
F1 Fe9 2.145582 1_565
F2 Li6 1.936225 1_565
F2 Fe4 2.070961 1_555
F2 Fe0 2.105561 1_555
F3 Li7 1.936225 1_465
F3 Fe5 2.070961 1_555
F3 Fe1 2.105561 1_555
F4 Li0 1.928050 1_555
F4 Fe0 2.017632 1_555
F4 Fe2 2.076533 1_455
F5 Li1 1.928050 1_555
F5 Fe1 2.017632 1_555
F5 Fe3 2.076533 1_555
F6 Li2 1.901091 1_555
F6 Fe3 2.075926 1_556
F6 Fe10 2.138924 1_565
F7 Li3 1.901091 1_555
F7 Fe2 2.075926 1_555
F7 Fe11 2.138924 1_565
F8 Li0 1.906586 1_655
F8 Fe6 2.017895 1_555
F8 Fe5 2.233937 1_656
F9 Li2 1.912488 1_555
F9 Fe2 1.981641 1_555
F9 Fe4 2.140795 1_555
F10 Li1 1.906586 1_555
F10 Fe7 2.017895 1_555
F10 Fe4 2.233937 1_555
F11 Li3 1.912488 1_555
F11 Fe3 1.981641 1_555
F11 Fe5 2.140795 1_655
F12 Li4 1.883620 1_555
F12 Fe0 2.085592 1_555
F12 Fe4 2.125685 1_555
F13 Li5 1.883620 1_555
F13 Fe1 2.085592 1_555
F13 Fe5 2.125685 1_555
F14 Li2 1.928147 1_555
F14 Fe8 2.029657 1_555
F14 Fe4 2.158784 1_555
F15 Li3 1.928147 1_455
F15 Fe9 2.029657 1_555
F15 Fe5 2.158784 1_555
F16 Li4 1.928147 1_655
F16 Fe2 2.029657 1_555
F16 Fe6 2.158784 1_555
F17 Li5 1.928147 1_555
F17 Fe3 2.029657 1_555
F17 Fe7 2.158784 1_555
F18 Li2 1.883620 1_555
F18 Fe10 2.085592 1_555
F18 Fe6 2.125685 1_555
F19 Li3 1.883620 1_555
F19 Fe11 2.085592 1_555
F19 Fe7 2.125685 1_555
F20 Li4 1.912488 1_555
F20 Fe8 1.981641 1_555
F20 Fe6 2.140795 1_455
F21 Li6 1.906586 1_555
F21 Fe4 2.017895 1_555
F21 Fe7 2.233937 1_555
F22 Li5 1.912488 1_555
F22 Fe9 1.981641 1_555
F22 Fe7 2.140795 1_555
F23 Li7 1.906586 1_455
F23 Fe5 2.017895 1_555
F23 Fe6 2.233937 1_454
F24 Li4 1.901091 1_555
F24 Fe9 2.075926 1_555
F24 Fe0 2.138924 1_545
F25 Li5 1.901091 1_555
F25 Fe8 2.075926 1_554
F25 Fe1 2.138924 1_545
F26 Li6 1.928050 1_555
F26 Fe10 2.017632 1_555
F26 Fe8 2.076533 1_555
F27 Li7 1.928050 1_555
F27 Fe11 2.017632 1_555
F27 Fe9 2.076533 1_655
F28 Li0 1.936225 1_645
F28 Fe6 2.070961 1_555
F28 Fe10 2.105561 1_555
F29 Li1 1.936225 1_545
F29 Fe7 2.070961 1_555
F29 Fe11 2.105561 1_555
F30 Li6 1.914794 1_555
F30 Fe11 2.018672 1_555
F30 Fe2 2.145582 1_545
F31 Li7 1.914794 1_555
F31 Fe10 2.018672 1_554
F31 Fe3 2.145582 1_545
