# generated using pymatgen
data_Li2CuF4
_symmetry_space_group_name_H-M   'P 1'
_cell_length_a   5.04966430
_cell_length_b   5.04966430
_cell_length_c   3.12649500
_cell_angle_alpha   90.00000000
_cell_angle_beta   90.00000000
_cell_angle_gamma   107.10462447
_symmetry_Int_Tables_number   1
_chemical_formula_structural   Li2CuF4
_chemical_formula_sum   'Li2 Cu1 F4'
_cell_volume   76.19663991
_cell_formula_units_Z   1
loop_
 _symmetry_equiv_pos_site_id
 _symmetry_equiv_pos_as_xyz
  1  'x, y, z'
loop_
 _atom_site_type_symbol
 _atom_site_label
 _atom_site_symmetry_multiplicity
 _atom_site_fract_x
 _atom_site_fract_y
 _atom_site_fract_z
 _atom_site_occupancy
  Li  Li0  1  0.50000000  0.00000000  0.50000000  1
  Li  Li1  1  0.00000000  0.50000000  0.50000000  1
  Cu  Cu0  1  0.00000000  0.00000000  0.00000000  1
  F  F0  1  0.76354300  0.23645700  0.00000000  1
  F  F1  1  0.23069400  0.23069400  0.50000000  1
  F  F2  1  0.76930600  0.76930600  0.50000000  1
  F  F3  1  0.23645700  0.76354300  0.00000000  1
loop_
_geom_bond_atom_site_label_1
_geom_bond_atom_site_label_2
_geom_bond_distance
_geom_bond_site_symmetry_2
Cu0 F0 1.920952 1_455
Cu0 F3 1.920952 1_545
Cu0 F2 2.087962 1_445
Cu0 F2 2.087962 1_444
Cu0 F1 2.087962 1_555
Cu0 F1 2.087962 1_554
F0 Li0 2.169279 1_555
F0 Li0 2.169279 1_554
F0 Li1 2.169279 1_655
F0 Li1 2.169279 1_654
F1 Li0 2.034275 1_555
F1 Li1 2.034275 1_555
F2 Li0 2.034275 1_565
F2 Li1 2.034275 1_655
F3 Li1 2.169279 1_554
F3 Li0 2.169279 1_564
F3 Li1 2.169279 1_555
F3 Li0 2.169279 1_565
