# generated using pymatgen
data_LiTmO2
_symmetry_space_group_name_H-M   'P 1'
_cell_length_a   5.39470475
_cell_length_b   5.39470475
_cell_length_c   5.39470373
_cell_angle_alpha   35.77247010
_cell_angle_beta   35.77247010
_cell_angle_gamma   35.77247346
_symmetry_Int_Tables_number   1
_chemical_formula_structural   LiTmO2
_chemical_formula_sum   'Li1 Tm1 O2'
_cell_volume   47.96729554
_cell_formula_units_Z   1
loop_
 _symmetry_equiv_pos_site_id
 _symmetry_equiv_pos_as_xyz
  1  'x, y, z'
loop_
 _atom_site_type_symbol
 _atom_site_label
 _atom_site_symmetry_multiplicity
 _atom_site_fract_x
 _atom_site_fract_y
 _atom_site_fract_z
 _atom_site_occupancy
  Li  Li0  1  0.00000000  0.00000000  0.00000000  1
  Tm  Tm0  1  0.50000000  0.50000000  0.50000000  1
  O  O0  1  0.24439100  0.24439100  0.24439100  1
  O  O1  1  0.75560900  0.75560900  0.75560900  1
loop_
_geom_bond_atom_site_label_1
_geom_bond_atom_site_label_2
_geom_bond_distance
_geom_bond_site_symmetry_2
Li0 O1 2.339165 1_445
Li0 O0 2.339165 1_554
Li0 O1 2.339165 1_544
Li0 O0 2.339165 1_455
Li0 O1 2.339165 1_454
Li0 O0 2.339165 1_545
O0 Tm0 2.245789 1_554
O0 Tm0 2.245790 1_545
O0 Tm0 2.245790 1_455
O1 Tm0 2.245789 1_556
O1 Tm0 2.245790 1_565
O1 Tm0 2.245790 1_655
