# generated using pymatgen
data_LiAlVO4
_symmetry_space_group_name_H-M   'P 1'
_cell_length_a   5.48808473
_cell_length_b   5.48808473
_cell_length_c   12.20561700
_cell_angle_alpha   90.00000000
_cell_angle_beta   90.00000000
_cell_angle_gamma   120.00000875
_symmetry_Int_Tables_number   1
_chemical_formula_structural   LiAlVO4
_chemical_formula_sum   'Li3 Al3 V3 O12'
_cell_volume   318.36985996
_cell_formula_units_Z   3
loop_
 _symmetry_equiv_pos_site_id
 _symmetry_equiv_pos_as_xyz
  1  'x, y, z'
loop_
 _atom_site_type_symbol
 _atom_site_label
 _atom_site_symmetry_multiplicity
 _atom_site_fract_x
 _atom_site_fract_y
 _atom_site_fract_z
 _atom_site_occupancy
  Li  Li0  1  0.00000000  0.00000000  0.16666700  1
  Li  Li1  1  0.00000000  0.00000000  0.50000000  1
  Li  Li2  1  0.00000000  0.00000000  0.83333300  1
  Al  Al0  1  0.00000000  0.50000000  0.16666700  1
  Al  Al1  1  0.50000000  0.50000000  0.83333300  1
  Al  Al2  1  0.50000000  0.00000000  0.50000000  1
  V  V0  1  0.00000000  0.50000000  0.66666700  1
  V  V1  1  0.50000000  0.50000000  0.33333300  1
  V  V2  1  0.50000000  0.00000000  0.00000000  1
  O  O0  1  0.19895100  0.81318100  0.09065300  1
  O  O1  1  0.18681900  0.80104900  0.57601400  1
  O  O2  1  0.19895100  0.38577000  0.24268100  1
  O  O3  1  0.18681900  0.38577000  0.75731900  1
  O  O4  1  0.61423000  0.80104900  0.42398600  1
  O  O5  1  0.61423000  0.81318100  0.90934700  1
  O  O6  1  0.38577000  0.19895100  0.42398600  1
  O  O7  1  0.38577000  0.18681900  0.90934700  1
  O  O8  1  0.80104900  0.61423000  0.24268100  1
  O  O9  1  0.81318100  0.61423000  0.75731900  1
  O  O10  1  0.80104900  0.18681900  0.09065300  1
  O  O11  1  0.81318100  0.19895100  0.57601400  1
loop_
_geom_bond_atom_site_label_1
_geom_bond_atom_site_label_2
_geom_bond_distance
_geom_bond_site_symmetry_2
Li0 O8 2.055145 1_445
Li0 O2 2.055145 1_555
Li0 O10 2.055146 1_455
Li0 O0 2.055146 1_545
Li1 O4 2.055145 1_445
Li1 O6 2.055145 1_555
Li1 O1 2.055146 1_545
Li1 O11 2.055146 1_455
Li2 O5 2.055145 1_445
Li2 O7 2.055145 1_555
Li2 O9 2.055145 1_445
Li2 O3 2.055145 1_555
Al0 O0 1.769312 1_555
Al0 O10 1.769312 1_455
Al0 O2 1.769313 1_555
Al0 O8 1.769313 1_455
Al1 O5 1.769312 1_555
Al1 O9 1.769312 1_555
Al1 O7 1.769312 1_555
Al1 O3 1.769312 1_555
Al2 O11 1.769312 1_555
Al2 O1 1.769312 1_545
Al2 O6 1.769313 1_555
Al2 O4 1.769313 1_545
O0 V2 1.819682 1_565
O1 V0 1.819682 1_555
O2 V1 1.819675 1_555
O3 V0 1.819675 1_555
O4 V1 1.819682 1_555
O5 V2 1.819683 1_566
O6 V1 1.819682 1_555
O7 V2 1.819683 1_556
O8 V1 1.819675 1_555
O9 V0 1.819675 1_655
O10 V2 1.819682 1_555
O11 V0 1.819682 1_655
