# generated using pymatgen
data_CaV2P3HO12
_symmetry_space_group_name_H-M   'P 1'
_cell_length_a   20.31129300
_cell_length_b   6.47966600
_cell_length_c   9.08745921
_cell_angle_alpha   45.91759322
_cell_angle_beta   90.00000000
_cell_angle_gamma   90.00000000
_symmetry_Int_Tables_number   1
_chemical_formula_structural   CaV2P3HO12
_chemical_formula_sum   'Ca4 V8 P12 H4 O48'
_cell_volume   859.13752120
_cell_formula_units_Z   4
loop_
 _symmetry_equiv_pos_site_id
 _symmetry_equiv_pos_as_xyz
  1  'x, y, z'
loop_
 _atom_site_type_symbol
 _atom_site_label
 _atom_site_symmetry_multiplicity
 _atom_site_fract_x
 _atom_site_fract_y
 _atom_site_fract_z
 _atom_site_occupancy
  Ca  Ca0  1  0.92085300  0.79469100  0.05935600  1
  Ca  Ca1  1  0.57914700  0.79469100  0.55935600  1
  Ca  Ca2  1  0.07914700  0.20530900  0.94064400  1
  Ca  Ca3  1  0.42085300  0.20530900  0.44064400  1
  V  V0  1  0.90304700  0.67252500  0.73238900  1
  V  V1  1  0.59695300  0.67252500  0.23239000  1
  V  V2  1  0.09695300  0.32747500  0.26761100  1
  V  V3  1  0.40304700  0.32747500  0.76761100  1
  V  V4  1  0.78928400  0.34898700  0.08613100  1
  V  V5  1  0.71071600  0.34898700  0.58613100  1
  V  V6  1  0.21071600  0.65101300  0.91386900  1
  V  V7  1  0.28928400  0.65101300  0.41386900  1
  P  P0  1  0.87814600  0.29879400  0.61711200  1
  P  P1  1  0.62185400  0.29879400  0.11711200  1
  P  P2  1  0.12185400  0.70120600  0.38288800  1
  P  P3  1  0.37814600  0.70120600  0.88288800  1
  P  P4  1  0.74797900  0.85767200  0.58079200  1
  P  P5  1  0.75202100  0.85767200  0.08079200  1
  P  P6  1  0.25202100  0.14232800  0.41920800  1
  P  P7  1  0.24797900  0.14232800  0.91920800  1
  P  P8  1  0.94951000  0.16357400  0.21848800  1
  P  P9  1  0.55049000  0.16357400  0.71848800  1
  P  P10  1  0.05049000  0.83642600  0.78151200  1
  P  P11  1  0.44951000  0.83642600  0.28151200  1
  H  H0  1  0.94370400  0.65895800  0.40697800  1
  H  H1  1  0.55629600  0.65895800  0.90697800  1
  H  H2  1  0.05629600  0.34104200  0.59302200  1
  H  H3  1  0.44370400  0.34104200  0.09302200  1
  O  O0  1  0.89414300  0.98982300  0.72377100  1
  O  O1  1  0.60585700  0.98982300  0.22377100  1
  O  O2  1  0.10585700  0.01017700  0.27622900  1
  O  O3  1  0.39414300  0.01017700  0.77622900  1
  O  O4  1  0.92741500  0.49805100  0.42420800  1
  O  O5  1  0.57258500  0.49805100  0.92420800  1
  O  O6  1  0.07258500  0.50194900  0.57579200  1
  O  O7  1  0.42741500  0.50194900  0.07579200  1
  O  O8  1  0.89992300  0.32130200  0.76930800  1
  O  O9  1  0.60007700  0.32130200  0.26930800  1
  O  O10  1  0.10007700  0.67869800  0.23069200  1
  O  O11  1  0.39992300  0.67869800  0.73069200  1
  O  O12  1  0.80873400  0.39159200  0.54154300  1
  O  O13  1  0.69126600  0.39159200  0.04154300  1
  O  O14  1  0.19126600  0.60840800  0.45845700  1
  O  O15  1  0.30873400  0.60840800  0.95845700  1
  O  O16  1  0.79991200  0.65043400  0.76111100  1
  O  O17  1  0.70008800  0.65043400  0.26111100  1
  O  O18  1  0.20008800  0.34956600  0.23888900  1
  O  O19  1  0.29991200  0.34956600  0.73888900  1
  O  O20  1  0.78865800  0.07528600  0.38580600  1
  O  O21  1  0.71134200  0.07528600  0.88580600  1
  O  O22  1  0.21134200  0.92471400  0.61419400  1
  O  O23  1  0.28865800  0.92471400  0.11419400  1
  O  O24  1  0.70286200  0.01225800  0.61561200  1
  O  O25  1  0.79713800  0.01225800  0.11561200  1
  O  O26  1  0.29713800  0.98774200  0.38438800  1
  O  O27  1  0.20286200  0.98774200  0.88438800  1
  O  O28  1  0.70105000  0.67614100  0.57280600  1
  O  O29  1  0.79895000  0.67614100  0.07280600  1
  O  O30  1  0.29895000  0.32385900  0.42719400  1
  O  O31  1  0.20105000  0.32385900  0.92719400  1
  O  O32  1  0.92027600  0.91639500  0.43129800  1
  O  O33  1  0.57972400  0.91639500  0.93129800  1
  O  O34  1  0.07972400  0.08360500  0.56870200  1
  O  O35  1  0.42027600  0.08360500  0.06870200  1
  O  O36  1  0.89414400  0.39254100  0.06333400  1
  O  O37  1  0.60585600  0.39254100  0.56333400  1
  O  O38  1  0.10585600  0.60745900  0.93666600  1
  O  O39  1  0.39414400  0.60745900  0.43666600  1
  O  O40  1  0.97815100  0.04021900  0.13571200  1
  O  O41  1  0.52184900  0.04021900  0.63571200  1
  O  O42  1  0.02184900  0.95978100  0.86428800  1
  O  O43  1  0.47815100  0.95978100  0.36428800  1
  O  O44  1  0.99880300  0.34389500  0.22181400  1
  O  O45  1  0.50119700  0.34389500  0.72181400  1
  O  O46  1  0.00119700  0.65610500  0.77818600  1
  O  O47  1  0.49880300  0.65610500  0.27818600  1
loop_
_geom_bond_atom_site_label_1
_geom_bond_atom_site_label_2
_geom_bond_distance
_geom_bond_site_symmetry_2
Ca0 O0 2.414148 1_554
Ca0 O4 2.416227 1_555
Ca0 O42 2.419981 1_654
Ca0 O40 2.429602 1_565
Ca0 O8 2.501506 1_564
Ca0 O29 2.570018 1_555
Ca0 O36 2.637180 1_555
Ca0 O44 2.686708 1_555
Ca1 O1 2.414148 1_555
Ca1 O5 2.416227 1_555
Ca1 O43 2.419981 1_555
Ca1 O41 2.429602 1_565
Ca1 O9 2.501506 1_565
Ca1 O28 2.570018 1_555
Ca1 O37 2.637180 1_555
Ca1 O45 2.686708 1_555
Ca2 O2 2.414148 1_556
Ca2 O6 2.416227 1_555
Ca2 O40 2.419981 1_456
Ca2 O42 2.429602 1_545
Ca2 O10 2.501506 1_546
Ca2 O31 2.570018 1_555
Ca2 O38 2.637180 1_555
Ca2 O46 2.686708 1_555
Ca3 O3 2.414148 1_555
Ca3 O7 2.416227 1_555
Ca3 O41 2.419981 1_555
Ca3 O43 2.429602 1_545
Ca3 O11 2.501506 1_545
Ca3 O30 2.570018 1_555
Ca3 O39 2.637180 1_555
Ca3 O47 2.686708 1_555
H0 O4 0.996944 1_555
H1 O5 0.996944 1_555
H2 O6 0.996944 1_555
H3 O7 0.996944 1_555
O0 P0 1.534013 1_565
O0 V0 2.010443 1_555
O1 P1 1.534013 1_565
O1 V1 2.010437 1_555
O2 P2 1.534013 1_545
O2 V2 2.010443 1_555
O3 P3 1.534013 1_545
O3 V3 2.010443 1_555
O4 P0 1.610056 1_555
O5 P1 1.610056 1_556
O6 P2 1.610056 1_555
O7 P3 1.610056 1_554
O8 P0 1.552570 1_555
O8 V0 2.057552 1_555
O9 P1 1.552570 1_555
O9 V1 2.057557 1_555
O10 P2 1.552570 1_555
O10 V2 2.057552 1_555
O11 P3 1.552570 1_555
O11 V3 2.057552 1_555
O12 P0 1.498761 1_555
O12 V5 2.012045 1_555
O13 P1 1.498761 1_555
O13 V4 2.012045 1_555
O14 P2 1.498761 1_555
O14 V7 2.012045 1_555
O15 P3 1.498761 1_555
O15 V6 2.012045 1_555
O16 P4 1.593541 1_555
O16 V0 2.103530 1_555
O16 V4 2.135062 1_556
O17 P5 1.593541 1_555
O17 V1 2.103530 1_555
O17 V5 2.135062 1_555
O18 P6 1.593541 1_555
O18 V2 2.103530 1_555
O18 V6 2.135062 1_554
O19 P7 1.593541 1_555
O19 V3 2.103530 1_555
O19 V7 2.135062 1_555
O20 P4 1.527831 1_545
O20 V4 1.960028 1_555
O21 P5 1.527831 1_546
O21 V5 1.960028 1_555
O22 P6 1.527831 1_565
O22 V6 1.960028 1_555
O23 P7 1.527831 1_564
O23 V7 1.960028 1_555
O24 P4 1.544093 1_545
O24 V5 2.011106 1_555
O25 P5 1.544093 1_545
O25 V4 2.011106 1_555
O26 P6 1.544093 1_565
O26 V7 2.011106 1_555
O27 P7 1.544093 1_565
O27 V6 2.011106 1_555
O28 P4 1.554412 1_555
O28 V5 2.046902 1_555
O29 P5 1.554412 1_555
O29 V4 2.046902 1_555
O30 P6 1.554412 1_555
O30 V7 2.046902 1_555
O31 P7 1.554412 1_555
O31 V6 2.046902 1_555
O32 P8 1.532353 1_565
O32 V0 2.022409 1_555
O33 P9 1.532353 1_565
O33 V1 2.022417 1_556
O34 P10 1.532353 1_545
O34 V2 2.022409 1_555
O35 P11 1.532353 1_545
O35 V3 2.022409 1_554
O36 P8 1.594737 1_555
O36 V4 2.139496 1_555
O36 V0 2.185685 1_554
O37 P9 1.594737 1_555
O37 V5 2.139496 1_555
O37 V1 2.185677 1_555
O38 P10 1.594737 1_555
O38 V6 2.139496 1_555
O38 V2 2.185685 1_556
O39 P11 1.594737 1_555
O39 V7 2.139496 1_555
O39 V3 2.185685 1_555
O40 P8 1.542630 1_555
O41 P9 1.542630 1_555
O42 P10 1.542630 1_555
O43 P11 1.542630 1_555
O44 P8 1.554885 1_555
O44 V2 2.024147 1_655
O45 P9 1.554885 1_555
O45 V3 2.024147 1_555
O46 P10 1.554885 1_555
O46 V0 2.024147 1_455
O47 P11 1.554885 1_555
O47 V1 2.024145 1_555
