# generated using pymatgen
data_ScMn2O5
_symmetry_space_group_name_H-M   'P 1'
_cell_length_a   5.72056400
_cell_length_b   7.10703800
_cell_length_c   8.30825700
_cell_angle_alpha   90.00000000
_cell_angle_beta   90.00000000
_cell_angle_gamma   90.00000000
_symmetry_Int_Tables_number   1
_chemical_formula_structural   ScMn2O5
_chemical_formula_sum   'Sc4 Mn8 O20'
_cell_volume   337.78270434
_cell_formula_units_Z   4
loop_
 _symmetry_equiv_pos_site_id
 _symmetry_equiv_pos_as_xyz
  1  'x, y, z'
loop_
 _atom_site_type_symbol
 _atom_site_label
 _atom_site_symmetry_multiplicity
 _atom_site_fract_x
 _atom_site_fract_y
 _atom_site_fract_z
 _atom_site_occupancy
  Sc  Sc0  1  0.00000000  0.14049400  0.16650600  1
  Sc  Sc1  1  0.00000000  0.35950600  0.66650600  1
  Sc  Sc2  1  0.00000000  0.64049400  0.33349400  1
  Sc  Sc3  1  0.00000000  0.85950600  0.83349400  1
  Mn  Mn0  1  0.25052500  0.00000000  0.50000000  1
  Mn  Mn1  1  0.74947500  0.00000000  0.50000000  1
  Mn  Mn2  1  0.50000000  0.08619800  0.84516500  1
  Mn  Mn3  1  0.50000000  0.41380200  0.34516500  1
  Mn  Mn4  1  0.25052500  0.50000000  0.00000000  1
  Mn  Mn5  1  0.74947500  0.50000000  0.00000000  1
  Mn  Mn6  1  0.50000000  0.58619800  0.65483500  1
  Mn  Mn7  1  0.50000000  0.91380200  0.15483500  1
  O  O0  1  0.26053000  0.00000000  0.00000000  1
  O  O1  1  0.73947000  0.00000000  0.00000000  1
  O  O2  1  0.23340100  0.12135800  0.70500000  1
  O  O3  1  0.76659900  0.12135800  0.70500000  1
  O  O4  1  0.50000000  0.14782900  0.42195600  1
  O  O5  1  0.00000000  0.16672200  0.43331600  1
  O  O6  1  0.00000000  0.33327800  0.93331600  1
  O  O7  1  0.50000000  0.35217100  0.92195600  1
  O  O8  1  0.23340100  0.37864200  0.20500000  1
  O  O9  1  0.76659900  0.37864200  0.20500000  1
  O  O10  1  0.26053000  0.50000000  0.50000000  1
  O  O11  1  0.73947000  0.50000000  0.50000000  1
  O  O12  1  0.23340100  0.62135800  0.79500000  1
  O  O13  1  0.76659900  0.62135800  0.79500000  1
  O  O14  1  0.50000000  0.64782900  0.07804400  1
  O  O15  1  0.00000000  0.66672200  0.06668400  1
  O  O16  1  0.00000000  0.83327800  0.56668400  1
  O  O17  1  0.50000000  0.85217100  0.57804400  1
  O  O18  1  0.23340100  0.87864200  0.29500000  1
  O  O19  1  0.76659900  0.87864200  0.29500000  1
loop_
_geom_bond_atom_site_label_1
_geom_bond_atom_site_label_2
_geom_bond_distance
_geom_bond_site_symmetry_2
Mn0 O17 1.887054 1_545
Mn0 O4 1.887054 1_555
Mn0 O2 1.911638 1_555
Mn0 O18 1.911638 1_545
Mn0 O16 1.940319 1_545
Mn0 O5 1.940319 1_555
Mn1 O17 1.887054 1_545
Mn1 O4 1.887054 1_555
Mn1 O3 1.911638 1_555
Mn1 O19 1.911638 1_545
Mn1 O5 1.940319 1_655
Mn1 O16 1.940319 1_645
Mn2 O3 1.935067 1_555
Mn2 O2 1.935067 1_555
Mn2 O1 1.976557 1_556
Mn2 O0 1.976557 1_556
Mn2 O7 1.995044 1_555
Mn3 O9 1.935067 1_555
Mn3 O8 1.935067 1_555
Mn3 O11 1.976557 1_555
Mn3 O10 1.976557 1_555
Mn3 O4 1.995044 1_555
Mn4 O7 1.887054 1_554
Mn4 O14 1.887054 1_555
Mn4 O12 1.911638 1_554
Mn4 O8 1.911638 1_555
Mn4 O6 1.940319 1_554
Mn4 O15 1.940319 1_555
Mn5 O7 1.887054 1_554
Mn5 O14 1.887054 1_555
Mn5 O13 1.911638 1_554
Mn5 O9 1.911638 1_555
Mn5 O6 1.940319 1_654
Mn5 O15 1.940319 1_655
Mn6 O13 1.935067 1_555
Mn6 O12 1.935067 1_555
Mn6 O11 1.976557 1_555
Mn6 O10 1.976557 1_555
Mn6 O17 1.995044 1_555
Mn7 O18 1.935067 1_555
Mn7 O19 1.935067 1_555
Mn7 O1 1.976557 1_565
Mn7 O0 1.976557 1_565
Mn7 O14 1.995044 1_555
O0 Sc0 2.265380 1_555
O0 Sc3 2.265380 1_544
O1 Sc0 2.265380 1_655
O1 Sc3 2.265380 1_644
O2 Sc1 2.179369 1_555
O2 Sc3 2.526994 1_545
O3 Sc1 2.179369 1_655
O3 Sc3 2.526994 1_645
O5 Sc0 2.224550 1_555
O5 Sc1 2.372923 1_555
O6 Sc1 2.224550 1_555
O6 Sc0 2.372923 1_556
O8 Sc0 2.179369 1_555
O8 Sc2 2.526994 1_555
O9 Sc0 2.179369 1_655
O9 Sc2 2.526994 1_655
O10 Sc2 2.265380 1_555
O10 Sc1 2.265380 1_555
O11 Sc2 2.265380 1_655
O11 Sc1 2.265380 1_655
O12 Sc3 2.179369 1_555
O12 Sc1 2.526994 1_555
O13 Sc3 2.179369 1_655
O13 Sc1 2.526994 1_655
O15 Sc2 2.224550 1_555
O15 Sc3 2.372923 1_554
O16 Sc3 2.224550 1_555
O16 Sc2 2.372923 1_555
O18 Sc2 2.179369 1_555
O18 Sc0 2.526994 1_565
O19 Sc2 2.179369 1_655
O19 Sc0 2.526994 1_665
