# generated using pymatgen
data_Li2Cr2O9
_symmetry_space_group_name_H-M   'P 1'
_cell_length_a   8.53267349
_cell_length_b   8.53267349
_cell_length_c   6.61208490
_cell_angle_alpha   83.09252253
_cell_angle_beta   96.90747747
_cell_angle_gamma   120.35945653
_symmetry_Int_Tables_number   1
_chemical_formula_structural   Li2Cr2O9
_chemical_formula_sum   'Li4 Cr4 O18'
_cell_volume   411.37844473
_cell_formula_units_Z   2
loop_
 _symmetry_equiv_pos_site_id
 _symmetry_equiv_pos_as_xyz
  1  'x, y, z'
loop_
 _atom_site_type_symbol
 _atom_site_label
 _atom_site_symmetry_multiplicity
 _atom_site_fract_x
 _atom_site_fract_y
 _atom_site_fract_z
 _atom_site_occupancy
  Li  Li0  1  0.68884700  0.42635100  0.29468600  1
  Li  Li1  1  0.42635100  0.68884700  0.20531400  1
  Li  Li2  1  0.31115300  0.57364900  0.70531400  1
  Li  Li3  1  0.57364900  0.31115300  0.79468600  1
  Cr  Cr0  1  0.89289900  0.69057700  0.86441400  1
  Cr  Cr1  1  0.69057700  0.89289900  0.63558600  1
  Cr  Cr2  1  0.10710100  0.30942300  0.13558600  1
  Cr  Cr3  1  0.30942300  0.10710100  0.36441400  1
  O  O0  1  0.74003600  0.57198200  0.03313900  1
  O  O1  1  0.57198200  0.74003600  0.46686100  1
  O  O2  1  0.25996400  0.42801800  0.96686100  1
  O  O3  1  0.42801800  0.25996400  0.53313900  1
  O  O4  1  0.09782700  0.73392700  0.92951500  1
  O  O5  1  0.73392700  0.09782700  0.57048500  1
  O  O6  1  0.90217300  0.26607300  0.07048500  1
  O  O7  1  0.26607300  0.90217300  0.42951500  1
  O  O8  1  0.79548400  0.53901600  0.66445600  1
  O  O9  1  0.53901600  0.79548400  0.83554400  1
  O  O10  1  0.20451600  0.46098400  0.33554400  1
  O  O11  1  0.46098400  0.20451600  0.16445600  1
  O  O12  1  0.89093700  0.89093700  0.75000000  1
  O  O13  1  0.10906300  0.10906300  0.25000000  1
  O  O14  1  0.88016400  0.57194200  0.49133400  1
  O  O15  1  0.57194200  0.88016400  0.00866600  1
  O  O16  1  0.11983600  0.42805800  0.50866600  1
  O  O17  1  0.42805800  0.11983600  0.99133400  1
loop_
_geom_bond_atom_site_label_1
_geom_bond_atom_site_label_2
_geom_bond_distance
_geom_bond_site_symmetry_2
Li0 O14 1.930497 1_555
Li0 O0 1.960042 1_555
Li0 O11 2.091358 1_555
Li1 O15 1.930497 1_555
Li1 O1 1.960042 1_555
Li1 O10 2.091358 1_555
Li2 O16 1.930497 1_555
Li2 O2 1.960042 1_555
Li2 O9 2.091358 1_555
Li3 O17 1.930497 1_555
Li3 O3 1.960042 1_555
Li3 O8 2.091358 1_555
Cr0 O4 1.607204 1_655
Cr0 O0 1.647469 1_556
Cr0 O8 1.780930 1_555
Cr0 O12 1.791687 1_555
Cr1 O5 1.607204 1_565
Cr1 O1 1.647469 1_555
Cr1 O9 1.780930 1_555
Cr1 O12 1.791687 1_555
Cr2 O6 1.607204 1_455
Cr2 O2 1.647469 1_554
Cr2 O10 1.780930 1_555
Cr2 O13 1.791687 1_555
Cr3 O7 1.607204 1_545
Cr3 O3 1.647469 1_555
Cr3 O11 1.780930 1_555
Cr3 O13 1.791687 1_555
O10 O16 1.351935 1_555
O11 O17 1.351935 1_554
O14 O8 1.351935 1_555
O15 O9 1.351935 1_554
