# generated using pymatgen
data_Fe2O3F
_symmetry_space_group_name_H-M   'P 1'
_cell_length_a   4.69813600
_cell_length_b   7.64879296
_cell_length_c   9.85834817
_cell_angle_alpha   69.72305190
_cell_angle_beta   86.17427877
_cell_angle_gamma   87.47012525
_symmetry_Int_Tables_number   1
_chemical_formula_structural   Fe2O3F
_chemical_formula_sum   'Fe10 O15 F5'
_cell_volume   331.48224115
_cell_formula_units_Z   5
loop_
 _symmetry_equiv_pos_site_id
 _symmetry_equiv_pos_as_xyz
  1  'x, y, z'
loop_
 _atom_site_type_symbol
 _atom_site_label
 _atom_site_symmetry_multiplicity
 _atom_site_fract_x
 _atom_site_fract_y
 _atom_site_fract_z
 _atom_site_occupancy
  Fe  Fe0  1  0.46502100  0.69377300  0.88541100  1
  Fe  Fe1  1  0.50090400  0.90104500  0.30024400  1
  Fe  Fe2  1  0.53400100  0.10548400  0.71413300  1
  Fe  Fe3  1  0.50547100  0.30303200  0.10148100  1
  Fe  Fe4  1  0.47216000  0.49294500  0.48939100  1
  Fe  Fe5  1  0.99651600  0.40013000  0.79691700  1
  Fe  Fe6  1  0.99493800  0.80129300  0.59750700  1
  Fe  Fe7  1  0.00259900  0.19701500  0.40378200  1
  Fe  Fe8  1  0.02259100  0.60875100  0.20718000  1
  Fe  Fe9  1  0.00285400  0.99609900  0.00270000  1
  O  O0  1  0.18485600  0.42921000  0.37682100  1
  O  O1  1  0.17517000  0.63648400  0.76846100  1
  O  O2  1  0.19095600  0.84673500  0.17259900  1
  O  O3  1  0.30961600  0.93683600  0.87995200  1
  O  O4  1  0.30846900  0.33789600  0.67788800  1
  O  O5  1  0.30417500  0.53867400  0.07424400  1
  O  O6  1  0.31117000  0.14152800  0.27901400  1
  O  O7  1  0.29800100  0.73759500  0.47573700  1
  O  O8  1  0.69408600  0.85999400  0.72372100  1
  O  O9  1  0.69716800  0.26050500  0.52331600  1
  O  O10  1  0.68696200  0.66109100  0.32175200  1
  O  O11  1  0.70029300  0.06485000  0.12411800  1
  O  O12  1  0.68799300  0.46100000  0.91927800  1
  O  O13  1  0.82062400  0.96596500  0.42806500  1
  O  O14  1  0.82372000  0.16100400  0.83147600  1
  F  F0  1  0.20099100  0.24148300  0.98057500  1
  F  F1  1  0.20308800  0.03792400  0.58314900  1
  F  F2  1  0.79429600  0.55958300  0.61719200  1
  F  F3  1  0.80629500  0.75590200  0.02458500  1
  F  F4  1  0.80501600  0.36617300  0.21931200  1
loop_
_geom_bond_atom_site_label_1
_geom_bond_atom_site_label_2
_geom_bond_distance
_geom_bond_site_symmetry_2
Fe0 O8 1.950033 1_555
Fe0 O5 1.950540 1_556
Fe0 O3 1.951518 1_555
Fe0 O12 1.961832 1_555
Fe0 O1 1.997000 1_555
Fe1 O10 1.947040 1_555
Fe1 O6 1.958345 1_565
Fe1 O11 1.959797 1_565
Fe1 O7 1.962351 1_555
Fe1 O2 2.129964 1_555
Fe1 O13 2.200642 1_555
Fe2 O4 1.963282 1_555
Fe2 O8 1.965236 1_545
Fe2 O9 1.968269 1_555
Fe2 O3 1.968773 1_545
Fe2 O14 1.993209 1_555
Fe3 O5 1.939847 1_555
Fe3 O12 1.950202 1_554
Fe3 O11 1.950591 1_555
Fe3 O6 1.951987 1_555
Fe4 O4 1.952784 1_555
Fe4 O10 1.955135 1_555
Fe4 O9 1.964525 1_555
Fe4 O7 1.973380 1_555
Fe4 O0 1.980936 1_555
Fe5 O14 1.944922 1_555
Fe5 O1 1.949983 1_655
Fe5 O4 1.961524 1_655
Fe5 O12 1.967039 1_555
Fe6 O13 1.918494 1_555
Fe6 O1 1.941667 1_655
Fe6 O7 1.954946 1_655
Fe6 O8 1.960640 1_555
Fe7 O13 1.929834 1_445
Fe7 O0 1.932551 1_555
Fe7 O9 1.947575 1_455
Fe7 O6 1.965770 1_555
Fe8 O2 1.927789 1_555
Fe8 O0 1.936433 1_555
Fe8 O10 1.985556 1_455
Fe8 O5 1.986915 1_555
Fe9 O2 1.916675 1_555
Fe9 O14 1.941305 1_464
Fe9 O3 1.958743 1_554
Fe9 O11 1.968024 1_465
F0 Fe5 2.068782 1_455
F0 Fe9 2.068869 1_546
F0 Fe3 2.089149 1_556
F1 Fe7 2.030860 1_555
F1 Fe6 2.052427 1_445
F1 Fe2 2.269973 1_555
F2 Fe5 2.038112 1_555
F2 Fe6 2.055486 1_555
F2 Fe4 2.214793 1_555
F3 Fe9 2.030553 1_655
F3 Fe8 2.068477 1_655
F3 Fe0 2.343448 1_554
F4 Fe3 2.056719 1_555
F4 Fe7 2.081179 1_655
F4 Fe8 2.121112 1_655
