# generated using pymatgen
data_LiFe3P3O11
_symmetry_space_group_name_H-M   'P 1'
_cell_length_a   9.07751400
_cell_length_b   8.04087700
_cell_length_c   11.47227928
_cell_angle_alpha   82.74458693
_cell_angle_beta   90.00000000
_cell_angle_gamma   90.00000000
_symmetry_Int_Tables_number   1
_chemical_formula_structural   LiFe3P3O11
_chemical_formula_sum   'Li4 Fe12 P12 O44'
_cell_volume   830.67028417
_cell_formula_units_Z   4
loop_
 _symmetry_equiv_pos_site_id
 _symmetry_equiv_pos_as_xyz
  1  'x, y, z'
loop_
 _atom_site_type_symbol
 _atom_site_label
 _atom_site_symmetry_multiplicity
 _atom_site_fract_x
 _atom_site_fract_y
 _atom_site_fract_z
 _atom_site_occupancy
  Li  Li0  1  0.73127300  0.87883000  0.46830400  1
  Li  Li1  1  0.76872700  0.87883000  0.96830400  1
  Li  Li2  1  0.23127300  0.12117000  0.03169600  1
  Li  Li3  1  0.26872700  0.12117000  0.53169600  1
  Fe  Fe0  1  0.36701400  0.93219100  0.76033900  1
  Fe  Fe1  1  0.13298600  0.93219100  0.26033900  1
  Fe  Fe2  1  0.35723600  0.54672700  0.92834000  1
  Fe  Fe3  1  0.37726900  0.57691000  0.64991900  1
  Fe  Fe4  1  0.14276400  0.54672700  0.42834000  1
  Fe  Fe5  1  0.87726900  0.42309000  0.85008100  1
  Fe  Fe6  1  0.12273100  0.57691000  0.14991900  1
  Fe  Fe7  1  0.85723600  0.45327300  0.57166000  1
  Fe  Fe8  1  0.62273100  0.42309000  0.35008100  1
  Fe  Fe9  1  0.64276400  0.45327300  0.07166000  1
  Fe  Fe10  1  0.86701400  0.06780900  0.73966100  1
  Fe  Fe11  1  0.63298600  0.06780900  0.23966100  1
  P  P0  1  0.06919100  0.78828200  0.89626500  1
  P  P1  1  0.06267500  0.77839700  0.64495900  1
  P  P2  1  0.43080900  0.78828200  0.39626500  1
  P  P3  1  0.67072900  0.68002300  0.79761700  1
  P  P4  1  0.43732500  0.77839700  0.14495900  1
  P  P5  1  0.82927100  0.68002300  0.29761700  1
  P  P6  1  0.17072900  0.31997700  0.70238300  1
  P  P7  1  0.56267500  0.22160300  0.85504100  1
  P  P8  1  0.32927100  0.31997700  0.20238300  1
  P  P9  1  0.56919100  0.21171800  0.60373500  1
  P  P10  1  0.93732500  0.22160300  0.35504100  1
  P  P11  1  0.93080900  0.21171800  0.10373500  1
  O  O0  1  0.99170200  0.95829500  0.88198900  1
  O  O1  1  0.97676100  0.93976800  0.61946800  1
  O  O2  1  0.50829800  0.95829500  0.38198900  1
  O  O3  1  0.71639400  0.86376400  0.78182700  1
  O  O4  1  0.23965200  0.79263600  0.89228400  1
  O  O5  1  0.52323900  0.93976800  0.11946800  1
  O  O6  1  0.78360600  0.86376400  0.28182700  1
  O  O7  1  0.23248800  0.79756600  0.64437400  1
  O  O8  1  0.26034800  0.79263600  0.39228400  1
  O  O9  1  0.49633600  0.67403600  0.78760900  1
  O  O10  1  0.02045000  0.69507800  0.78204000  1
  O  O11  1  0.26751200  0.79756600  0.14437400  1
  O  O12  1  0.48550600  0.67682100  0.50459100  1
  O  O13  1  0.72739500  0.60238600  0.92233400  1
  O  O14  1  0.01662800  0.64804100  0.56562900  1
  O  O15  1  0.00366400  0.67403600  0.28760900  1
  O  O16  1  0.47955000  0.69507800  0.28204000  1
  O  O17  1  0.74247600  0.56668500  0.71192100  1
  O  O18  1  0.01449400  0.67682100  0.00459100  1
  O  O19  1  0.77260500  0.60238600  0.42233400  1
  O  O20  1  0.48337200  0.64804100  0.06562900  1
  O  O21  1  0.75752400  0.56668500  0.21192100  1
  O  O22  1  0.24247600  0.43331500  0.78807900  1
  O  O23  1  0.51662800  0.35195900  0.93437100  1
  O  O24  1  0.22739500  0.39761400  0.57766600  1
  O  O25  1  0.98550600  0.32317900  0.99540900  1
  O  O26  1  0.25752400  0.43331500  0.28807900  1
  O  O27  1  0.52045000  0.30492200  0.71796000  1
  O  O28  1  0.99633600  0.32596400  0.71239100  1
  O  O29  1  0.98337200  0.35195900  0.43437100  1
  O  O30  1  0.27260500  0.39761400  0.07766600  1
  O  O31  1  0.51449400  0.32317900  0.49540900  1
  O  O32  1  0.73248800  0.20243400  0.85562600  1
  O  O33  1  0.97955000  0.30492200  0.21796000  1
  O  O34  1  0.50366400  0.32596400  0.21239100  1
  O  O35  1  0.73965200  0.20736400  0.60771600  1
  O  O36  1  0.76751200  0.20243400  0.35562600  1
  O  O37  1  0.21639400  0.13623600  0.71817300  1
  O  O38  1  0.47676100  0.06023200  0.88053200  1
  O  O39  1  0.76034800  0.20736400  0.10771600  1
  O  O40  1  0.28360600  0.13623600  0.21817300  1
  O  O41  1  0.49170200  0.04170500  0.61801100  1
  O  O42  1  0.02323900  0.06023200  0.38053200  1
  O  O43  1  0.00829800  0.04170500  0.11801100  1
loop_
_geom_bond_atom_site_label_1
_geom_bond_atom_site_label_2
_geom_bond_distance
_geom_bond_site_symmetry_2
Li0 O6 2.209635 1_555
Li0 O2 2.307776 1_555
Li0 O19 2.378250 1_555
Li1 O3 2.209635 1_555
Li1 O0 2.307776 1_555
Li1 O13 2.378250 1_555
Li2 O40 2.209635 1_555
Li2 O43 2.307776 1_555
Li2 O30 2.378250 1_555
Li3 O37 2.209635 1_555
Li3 O41 2.307776 1_555
Li3 O24 2.378250 1_555
Fe0 O38 2.076628 1_565
Fe0 O41 2.087937 1_565
Fe0 O4 2.111426 1_555
Fe0 O37 2.143553 1_565
Fe0 O7 2.190143 1_555
Fe0 O9 2.370834 1_555
Fe1 O42 2.076628 1_565
Fe1 O43 2.087937 1_565
Fe1 O8 2.111426 1_555
Fe1 O40 2.143553 1_565
Fe1 O11 2.190143 1_555
Fe1 O15 2.370834 1_555
Fe2 O30 2.108013 1_556
Fe2 O23 2.126870 1_555
Fe2 O20 2.186198 1_556
Fe2 O9 2.198056 1_555
Fe2 O22 2.208330 1_555
Fe2 O4 2.239107 1_555
Fe3 O12 2.012993 1_555
Fe3 O9 2.141243 1_555
Fe3 O7 2.202458 1_555
Fe3 O22 2.209147 1_555
Fe3 O24 2.217733 1_555
Fe3 O27 2.578850 1_555
Fe4 O24 2.108013 1_555
Fe4 O29 2.126870 1_455
Fe4 O14 2.186198 1_555
Fe4 O15 2.198056 1_555
Fe4 O26 2.208330 1_555
Fe4 O8 2.239107 1_555
Fe5 O25 2.012993 1_555
Fe5 O28 2.141243 1_555
Fe5 O32 2.202458 1_555
Fe5 O17 2.209147 1_555
Fe5 O13 2.217733 1_555
Fe5 O10 2.578850 1_655
Fe6 O18 2.012993 1_555
Fe6 O15 2.141243 1_555
Fe6 O11 2.202458 1_555
Fe6 O26 2.209147 1_555
Fe6 O30 2.217733 1_555
Fe6 O33 2.578850 1_455
Fe7 O19 2.108013 1_555
Fe7 O14 2.126870 1_655
Fe7 O29 2.186198 1_555
Fe7 O28 2.198056 1_555
Fe7 O17 2.208330 1_555
Fe7 O35 2.239107 1_555
Fe8 O31 2.012993 1_555
Fe8 O34 2.141243 1_555
Fe8 O36 2.202458 1_555
Fe8 O21 2.209147 1_555
Fe8 O19 2.217733 1_555
Fe8 O16 2.578850 1_555
Fe9 O13 2.108013 1_554
Fe9 O20 2.126870 1_555
Fe9 O23 2.186198 1_554
Fe9 O34 2.198056 1_555
Fe9 O21 2.208330 1_555
Fe9 O39 2.239107 1_555
Fe10 O1 2.076628 1_545
Fe10 O0 2.087937 1_545
Fe10 O35 2.111426 1_555
Fe10 O3 2.143553 1_545
Fe10 O32 2.190143 1_555
Fe10 O28 2.370834 1_555
Fe11 O5 2.076628 1_545
Fe11 O2 2.087937 1_545
Fe11 O39 2.111426 1_555
Fe11 O6 2.143553 1_545
Fe11 O36 2.190143 1_555
Fe11 O34 2.370834 1_555
O0 P0 1.527707 1_655
O1 P1 1.510487 1_655
O2 P2 1.527707 1_555
O3 P3 1.523112 1_555
O4 P0 1.548301 1_555
O5 P4 1.510487 1_555
O6 P5 1.523112 1_555
O7 P1 1.549097 1_555
O8 P2 1.548301 1_555
O9 P3 1.588382 1_555
O10 P0 1.650056 1_555
O10 P1 1.674159 1_555
O11 P4 1.549097 1_555
O12 P2 1.520811 1_555
O13 P3 1.573484 1_555
O14 P1 1.530561 1_555
O15 P5 1.588382 1_455
O16 P2 1.650056 1_555
O16 P4 1.674159 1_555
O17 P3 1.564466 1_555
O18 P0 1.520811 1_554
O19 P5 1.573484 1_555
O20 P4 1.530561 1_555
O21 P5 1.564466 1_555
O22 P6 1.564466 1_555
O23 P7 1.530561 1_555
O24 P6 1.573484 1_555
O25 P11 1.520811 1_556
O26 P8 1.564466 1_555
O27 P9 1.650056 1_555
O27 P7 1.674159 1_555
O28 P6 1.588382 1_655
O29 P10 1.530561 1_555
O30 P8 1.573484 1_555
O31 P9 1.520811 1_555
O32 P7 1.549097 1_555
O33 P11 1.650056 1_555
O33 P10 1.674159 1_555
O34 P8 1.588382 1_555
O35 P9 1.548301 1_555
O36 P10 1.549097 1_555
O37 P6 1.523112 1_555
O38 P7 1.510487 1_555
O39 P11 1.548301 1_555
O40 P8 1.523112 1_555
O41 P9 1.527707 1_555
O42 P10 1.510487 1_455
O43 P11 1.527707 1_455
