# generated using pymatgen
data_LiCrP2O7
_symmetry_space_group_name_H-M   'P 1'
_cell_length_a   5.27890477
_cell_length_b   5.27892214
_cell_length_c   9.01634064
_cell_angle_alpha   82.33334216
_cell_angle_beta   97.66563237
_cell_angle_gamma   75.87834779
_symmetry_Int_Tables_number   1
_chemical_formula_structural   LiCrP2O7
_chemical_formula_sum   'Li2 Cr2 P4 O14'
_cell_volume   237.85997065
_cell_formula_units_Z   2
loop_
 _symmetry_equiv_pos_site_id
 _symmetry_equiv_pos_as_xyz
  1  'x, y, z'
loop_
 _atom_site_type_symbol
 _atom_site_label
 _atom_site_symmetry_multiplicity
 _atom_site_fract_x
 _atom_site_fract_y
 _atom_site_fract_z
 _atom_site_occupancy
  Li  Li0  1  0.69186800  0.70210600  0.00229400  1
  Li  Li1  1  0.29788600  0.30811300  0.50230200  1
  Cr  Cr0  1  0.67799400  0.67521400  0.50001900  1
  Cr  Cr1  1  0.32480500  0.32200900  0.00005600  1
  P  P0  1  0.21193800  0.77102100  0.70259900  1
  P  P1  1  0.22898300  0.78806100  0.20259200  1
  P  P2  1  0.78404800  0.22242900  0.79676900  1
  P  P3  1  0.77758900  0.21596300  0.29676200  1
  O  O0  1  0.38206600  0.90593300  0.60964600  1
  O  O1  1  0.05765100  0.61480200  0.61110800  1
  O  O2  1  0.37435100  0.61995800  0.85768200  1
  O  O3  1  0.09409100  0.61792400  0.10966100  1
  O  O4  1  0.38518200  0.94235300  0.11111500  1
  O  O5  1  0.38005400  0.62565700  0.35768400  1
  O  O6  1  0.98347400  0.98657600  0.74786700  1
  O  O7  1  0.01339200  0.01647700  0.24787900  1
  O  O8  1  0.62465100  0.38346500  0.64326800  1
  O  O9  1  0.60436700  0.10045300  0.88925600  1
  O  O10  1  0.95289700  0.36338100  0.88944800  1
  O  O11  1  0.61657100  0.37537100  0.14328500  1
  O  O12  1  0.89957000  0.39561300  0.38926500  1
  O  O13  1  0.63657400  0.04712200  0.38944100  1
loop_
_geom_bond_atom_site_label_1
_geom_bond_atom_site_label_2
_geom_bond_distance
_geom_bond_site_symmetry_2
Li0 O9 2.121944 1_564
Li0 O3 2.125895 1_655
Li0 O2 2.149439 1_554
Li0 O11 2.152506 1_555
Li0 O4 2.223978 1_555
Li0 O10 2.405916 1_554
Li1 O12 2.121806 1_455
Li1 O0 2.125626 1_545
Li1 O5 2.149605 1_555
Li1 O8 2.152664 1_555
Li1 O1 2.223881 1_555
Li1 O13 2.405774 1_555
Cr0 O8 1.974170 1_555
Cr0 O5 1.985186 1_555
Cr0 O13 2.026420 1_565
Cr0 O1 2.046703 1_655
Cr0 O12 2.099128 1_555
Cr0 O0 2.169222 1_555
Cr1 O11 1.974192 1_555
Cr1 O2 1.985376 1_554
Cr1 O10 2.026573 1_454
Cr1 O4 2.046626 1_545
Cr1 O9 2.099214 1_554
Cr1 O3 2.169046 1_555
O0 P0 1.539427 1_555
O1 P0 1.534253 1_555
O2 P0 1.541174 1_555
O3 P1 1.539312 1_555
O4 P1 1.534107 1_555
O5 P1 1.541231 1_555
O6 P2 1.575932 1_565
O6 P0 1.581619 1_655
O7 P3 1.575836 1_455
O7 P1 1.581648 1_545
O8 P2 1.540304 1_555
O9 P2 1.541250 1_555
O10 P2 1.528797 1_555
O11 P3 1.540130 1_555
O12 P3 1.541232 1_555
O13 P3 1.528988 1_555
