# generated using pymatgen
data_Li3Sb2(PO4)3
_symmetry_space_group_name_H-M   'P 1'
_cell_length_a   8.50729884
_cell_length_b   8.50729884
_cell_length_c   8.54176247
_cell_angle_alpha   67.21017198
_cell_angle_beta   67.21017198
_cell_angle_gamma   66.95996322
_symmetry_Int_Tables_number   1
_chemical_formula_structural   Li3Sb2(PO4)3
_chemical_formula_sum   'Li6 Sb4 P6 O24'
_cell_volume   503.82111140
_cell_formula_units_Z   2
loop_
 _symmetry_equiv_pos_site_id
 _symmetry_equiv_pos_as_xyz
  1  'x, y, z'
loop_
 _atom_site_type_symbol
 _atom_site_label
 _atom_site_symmetry_multiplicity
 _atom_site_fract_x
 _atom_site_fract_y
 _atom_site_fract_z
 _atom_site_occupancy
  Li  Li0  1  0.50824800  0.00173600  0.23548200  1
  Li  Li1  1  0.35882700  0.64117300  0.50000000  1
  Li  Li2  1  0.99826400  0.49175200  0.76451800  1
  Li  Li3  1  0.63299600  0.36700400  0.00000000  1
  Li  Li4  1  0.25296200  0.13455700  0.61029300  1
  Li  Li5  1  0.86544300  0.74703800  0.38970700  1
  Sb  Sb0  1  0.34113900  0.85439400  0.09515700  1
  Sb  Sb1  1  0.14560600  0.65886100  0.90484300  1
  Sb  Sb2  1  0.83950700  0.34141100  0.59461000  1
  Sb  Sb3  1  0.65858900  0.16049300  0.40539000  1
  P  P0  1  0.75072900  0.59227400  0.15834700  1
  P  P1  1  0.40772600  0.24927100  0.84165300  1
  P  P2  1  0.08257900  0.91742100  0.50000000  1
  P  P3  1  0.91623200  0.08376800  0.00000000  1
  P  P4  1  0.57684700  0.74708200  0.65629800  1
  P  P5  1  0.25291800  0.42315300  0.34370200  1
  O  O0  1  0.20115100  0.47458500  0.17615300  1
  O  O1  1  0.93275300  0.92893300  0.94237400  1
  O  O2  1  0.59426200  0.76989700  0.15092900  1
  O  O3  1  0.44009500  0.68154300  0.64541000  1
  O  O4  1  0.90542200  0.60347700  0.97941400  1
  O  O5  1  0.68504600  0.43915600  0.17639300  1
  O  O6  1  0.39652300  0.09457800  0.02058600  1
  O  O7  1  0.23010300  0.40573800  0.84907100  1
  O  O8  1  0.09973800  0.73389800  0.64801400  1
  O  O9  1  0.07106700  0.06724700  0.05762600  1
  O  O10  1  0.73160600  0.11103500  0.15292700  1
  O  O11  1  0.52541500  0.79884900  0.82384700  1
  O  O12  1  0.43176200  0.17950300  0.68961500  1
  O  O13  1  0.26610200  0.90026200  0.35198600  1
  O  O14  1  0.93195500  0.93905400  0.42967700  1
  O  O15  1  0.88896500  0.26839400  0.84707300  1
  O  O16  1  0.76532600  0.59894400  0.64102700  1
  O  O17  1  0.60960000  0.90630300  0.48043400  1
  O  O18  1  0.31845700  0.55990500  0.35459000  1
  O  O19  1  0.09369700  0.39040000  0.51956600  1
  O  O20  1  0.56084400  0.31495400  0.82360700  1
  O  O21  1  0.40105600  0.23467400  0.35897300  1
  O  O22  1  0.06094600  0.06804500  0.57032300  1
  O  O23  1  0.82049700  0.56823800  0.31038500  1
loop_
_geom_bond_atom_site_label_1
_geom_bond_atom_site_label_2
_geom_bond_distance
_geom_bond_site_symmetry_2
Li0 O2 2.124043 1_545
Li0 O6 2.130130 1_555
Li0 O10 2.193058 1_555
Li0 O13 2.262188 1_545
Li0 O17 2.305228 1_545
Li0 O21 2.308886 1_555
Li1 O3 1.822151 1_555
Li1 O18 1.822151 1_555
Li1 O8 2.081292 1_555
Li1 O13 2.081292 1_555
Li2 O7 2.124043 1_655
Li2 O4 2.130130 1_555
Li2 O15 2.193058 1_555
Li2 O8 2.262188 1_655
Li2 O19 2.305228 1_655
Li2 O16 2.308886 1_555
Li3 O5 2.071018 1_555
Li3 O20 2.071018 1_554
Li3 O10 2.089834 1_555
Li3 O15 2.089834 1_554
Li4 O21 2.061388 1_555
Li4 O19 2.090945 1_555
Li4 O12 2.091277 1_555
Li4 O22 2.100098 1_555
Li5 O16 2.061388 1_555
Li5 O17 2.090945 1_555
Li5 O23 2.091277 1_555
Li5 O14 2.100098 1_555
O0 P5 1.511938 1_555
O0 Sb1 2.346392 1_554
O1 P3 1.516878 1_566
O1 Sb1 2.350524 1_655
O2 P0 1.573528 1_555
O2 Sb0 2.167618 1_555
O3 P4 1.518134 1_555
O3 Sb1 2.640199 1_555
O4 P0 1.582431 1_556
O4 Sb1 2.077416 1_655
O5 P0 1.542819 1_555
O5 Sb3 2.445611 1_555
O6 P1 1.582431 1_554
O6 Sb0 2.077416 1_545
O7 P1 1.573528 1_555
O7 Sb1 2.167618 1_555
O8 P2 1.578842 1_555
O8 Sb1 2.180755 1_555
O9 P3 1.516878 1_455
O9 Sb0 2.350524 1_545
O10 P3 1.608486 1_555
O10 Sb3 2.161916 1_555
O11 P4 1.511938 1_555
O11 Sb0 2.346392 1_556
O12 P1 1.541776 1_555
O12 Sb3 2.464647 1_555
O13 P2 1.578842 1_555
O13 Sb0 2.180755 1_555
O14 P2 1.537124 1_655
O14 Sb3 2.375304 1_565
O15 P3 1.608486 1_556
O15 Sb2 2.161916 1_555
O16 P4 1.599962 1_555
O16 Sb2 2.180000 1_555
O17 P4 1.601189 1_555
O17 Sb3 2.164597 1_565
O18 P5 1.518134 1_555
O18 Sb0 2.640199 1_555
O19 P5 1.601189 1_555
O19 Sb2 2.164597 1_455
O20 P1 1.542819 1_555
O20 Sb2 2.445611 1_555
O21 P5 1.599962 1_555
O21 Sb3 2.180000 1_555
O22 P2 1.537124 1_545
O22 Sb2 2.375304 1_455
O23 P0 1.541776 1_555
O23 Sb2 2.464647 1_555
