# generated using pymatgen
data_K2HgCl4
_symmetry_space_group_name_H-M   'P 1'
_cell_length_a   7.76311225
_cell_length_b   8.90057000
_cell_length_c   11.84819916
_cell_angle_alpha   90.00000000
_cell_angle_beta   90.00000000
_cell_angle_gamma   90.00000000
_symmetry_Int_Tables_number   1
_chemical_formula_structural   K2HgCl4
_chemical_formula_sum   'K8 Hg4 Cl16'
_cell_volume   818.66463832
_cell_formula_units_Z   4
loop_
 _symmetry_equiv_pos_site_id
 _symmetry_equiv_pos_as_xyz
  1  'x, y, z'
loop_
 _atom_site_type_symbol
 _atom_site_label
 _atom_site_symmetry_multiplicity
 _atom_site_fract_x
 _atom_site_fract_y
 _atom_site_fract_z
 _atom_site_occupancy
  K  K0  1  0.90768121  0.00000000  0.32103689  1
  K  K1  1  0.09231879  0.00000000  0.67896311  1
  K  K2  1  0.40768121  0.00000000  0.17896311  1
  K  K3  1  0.59231879  0.00000000  0.82103689  1
  K  K4  1  0.90682164  0.50000000  0.31809984  1
  K  K5  1  0.09317836  0.50000000  0.68190016  1
  K  K6  1  0.40682164  0.50000000  0.18190016  1
  K  K7  1  0.59317836  0.50000000  0.81809984  1
  Hg  Hg0  1  0.50000000  0.25006678  0.50000000  1
  Hg  Hg1  1  0.00000000  0.74993322  -0.00000000  1
  Hg  Hg2  1  0.50000000  0.74993322  0.50000000  1
  Hg  Hg3  1  0.00000000  0.25006678  -0.00000000  1
  Cl  Cl0  1  0.27252192  0.00000000  0.44023961  1
  Cl  Cl1  1  0.72747808  0.00000000  0.55976039  1
  Cl  Cl2  1  0.77252192  0.00000000  0.05976039  1
  Cl  Cl3  1  0.22747808  0.00000000  0.94023961  1
  Cl  Cl4  1  0.27061117  0.50000000  0.44203399  1
  Cl  Cl5  1  0.72938883  0.50000000  0.55796601  1
  Cl  Cl6  1  0.77061117  0.50000000  0.05796601  1
  Cl  Cl7  1  0.22938883  0.50000000  0.94203399  1
  Cl  Cl8  1  0.61984370  0.24954602  0.30730616  1
  Cl  Cl9  1  0.38015630  0.24954602  0.69269384  1
  Cl  Cl10  1  0.11984370  0.75045398  0.19269384  1
  Cl  Cl11  1  0.88015630  0.75045398  0.80730616  1
  Cl  Cl12  1  0.38015630  0.75045398  0.69269384  1
  Cl  Cl13  1  0.61984370  0.75045398  0.30730616  1
  Cl  Cl14  1  0.88015630  0.24954602  0.80730616  1
  Cl  Cl15  1  0.11984370  0.24954602  0.19269384  1
loop_
_geom_bond_atom_site_label_1
_geom_bond_atom_site_label_2
_geom_bond_distance
_geom_bond_site_symmetry_2
Cl0 Hg0 2.928102 1_555
Cl0 Hg2 2.928102 1_545
Cl0 K1 3.155490 1_555
Cl0 K0 3.164904 1_455
Cl0 K2 3.268643 1_555
Cl1 Hg0 2.928102 1_555
Cl1 Hg2 2.928102 1_545
Cl1 K0 3.155490 1_555
Cl1 K1 3.164904 1_655
Cl1 K3 3.268643 1_555
Cl2 Hg3 2.928102 1_655
Cl2 Hg1 2.928102 1_645
Cl2 K3 3.155490 1_554
Cl2 K2 3.164904 1_555
Cl2 K0 3.268643 1_555
Cl3 Hg3 2.928102 1_556
Cl3 Hg1 2.928102 1_546
Cl3 K2 3.155490 1_556
Cl3 K3 3.164904 1_555
Cl3 K1 3.268643 1_555
Cl4 Hg2 2.931117 1_555
Cl4 Hg0 2.931117 1_555
Cl4 K5 3.158192 1_555
Cl4 K4 3.183072 1_455
Cl4 K6 3.258463 1_555
Cl5 Hg2 2.931117 1_555
Cl5 Hg0 2.931117 1_555
Cl5 K4 3.158192 1_555
Cl5 K5 3.183072 1_655
Cl5 K7 3.258463 1_555
Cl6 Hg1 2.931117 1_655
Cl6 Hg3 2.931117 1_655
Cl6 K7 3.158192 1_554
Cl6 K6 3.183072 1_555
Cl6 K4 3.258463 1_555
Cl7 Hg1 2.931117 1_556
Cl7 Hg3 2.931117 1_556
Cl7 K6 3.158192 1_556
Cl7 K7 3.183072 1_555
Cl7 K5 3.258463 1_555
Cl8 Hg0 2.465365 1_555
Cl8 K6 3.148291 1_555
Cl8 K4 3.154186 1_555
Cl8 K0 3.154808 1_555
Cl8 K2 3.155688 1_555
Cl9 Hg0 2.465365 1_555
Cl9 K7 3.148291 1_555
Cl9 K5 3.154186 1_555
Cl9 K1 3.154808 1_555
Cl9 K3 3.155688 1_555
Cl10 Hg1 2.465365 1_555
Cl10 K4 3.148291 1_455
Cl10 K6 3.154186 1_555
Cl10 K2 3.154808 1_565
Cl10 K0 3.155688 1_465
Cl11 Hg1 2.465365 1_656
Cl11 K5 3.148291 1_655
Cl11 K7 3.154186 1_555
Cl11 K3 3.154808 1_565
Cl11 K1 3.155688 1_665
Cl12 Hg2 2.465365 1_555
Cl12 K7 3.148291 1_555
Cl12 K5 3.154186 1_555
Cl12 K1 3.154808 1_565
Cl12 K3 3.155688 1_565
Cl13 Hg2 2.465365 1_555
Cl13 K6 3.148291 1_555
Cl13 K4 3.154186 1_555
Cl13 K0 3.154808 1_565
Cl13 K2 3.155688 1_565
Cl14 Hg3 2.465365 1_656
Cl14 K5 3.148291 1_655
Cl14 K7 3.154186 1_555
Cl14 K3 3.154808 1_555
Cl14 K1 3.155688 1_655
Cl15 Hg3 2.465365 1_555
Cl15 K4 3.148291 1_455
Cl15 K6 3.154186 1_555
Cl15 K2 3.154808 1_555
Cl15 K0 3.155688 1_455
