# generated using pymatgen
data_TiV2Fe3(PO4)6
_symmetry_space_group_name_H-M   'P 1'
_cell_length_a   8.51763880
_cell_length_b   8.51763880
_cell_length_c   8.51763890
_cell_angle_alpha   61.11155582
_cell_angle_beta   61.11155582
_cell_angle_gamma   61.11155545
_symmetry_Int_Tables_number   1
_chemical_formula_structural   TiV2Fe3(PO4)6
_chemical_formula_sum   'Ti1 V2 Fe3 P6 O24'
_cell_volume   447.89317581
_cell_formula_units_Z   1
loop_
 _symmetry_equiv_pos_site_id
 _symmetry_equiv_pos_as_xyz
  1  'x, y, z'
loop_
 _atom_site_type_symbol
 _atom_site_label
 _atom_site_symmetry_multiplicity
 _atom_site_fract_x
 _atom_site_fract_y
 _atom_site_fract_z
 _atom_site_occupancy
  Ti  Ti0  1  0.85427700  0.85427700  0.85427700  1
  V  V0  1  0.00065600  0.00065600  0.00065600  1
  V  V1  1  0.50082400  0.50082400  0.50082400  1
  Fe  Fe0  1  0.35421500  0.35421500  0.35421500  1
  Fe  Fe1  1  0.14635300  0.14635300  0.14635300  1
  Fe  Fe2  1  0.64543600  0.64543600  0.64543600  1
  P  P0  1  0.74936700  0.04622100  0.45266900  1
  P  P1  1  0.04622100  0.45266900  0.74936700  1
  P  P2  1  0.45266900  0.74936700  0.04622100  1
  P  P3  1  0.54587700  0.25007400  0.95338500  1
  P  P4  1  0.95338500  0.54587700  0.25007400  1
  P  P5  1  0.25007400  0.95338500  0.54587700  1
  O  O0  1  0.89284900  0.49640500  0.67695800  1
  O  O1  1  0.49640500  0.67695800  0.89284900  1
  O  O2  1  0.67695800  0.89284900  0.49640500  1
  O  O3  1  0.90738600  0.06151100  0.25624700  1
  O  O4  1  0.82162600  0.99273800  0.61496800  1
  O  O5  1  0.59352600  0.24452000  0.44517600  1
  O  O6  1  0.06151100  0.25624700  0.90738600  1
  O  O7  1  0.24452000  0.44517600  0.59352600  1
  O  O8  1  0.39268300  0.17772700  0.99602600  1
  O  O9  1  0.44517600  0.59352600  0.24452000  1
  O  O10  1  0.74646600  0.09043500  0.93586000  1
  O  O11  1  0.99602600  0.39268300  0.17772700  1
  O  O12  1  0.99273800  0.61496800  0.82162600  1
  O  O13  1  0.25624700  0.90738600  0.06151100  1
  O  O14  1  0.56260400  0.40665500  0.75391200  1
  O  O15  1  0.61496800  0.82162600  0.99273800  1
  O  O16  1  0.75391200  0.56260400  0.40665500  1
  O  O17  1  0.93586000  0.74646600  0.09043500  1
  O  O18  1  0.40665500  0.75391200  0.56260400  1
  O  O19  1  0.17772700  0.99602600  0.39268300  1
  O  O20  1  0.09043500  0.93586000  0.74646600  1
  O  O21  1  0.31714800  0.10937800  0.50783100  1
  O  O22  1  0.50783100  0.31714800  0.10937800  1
  O  O23  1  0.10937800  0.50783100  0.31714800  1
loop_
_geom_bond_atom_site_label_1
_geom_bond_atom_site_label_2
_geom_bond_distance
_geom_bond_site_symmetry_2
Fe0 O23 1.939404 1_555
Fe0 O21 1.939404 1_555
Fe0 O22 1.939404 1_555
Fe0 O5 2.148135 1_555
Fe0 O9 2.148135 1_555
Fe0 O7 2.148135 1_555
Fe1 O11 1.930939 1_455
Fe1 O8 1.930939 1_554
Fe1 O19 1.930939 1_545
Fe1 O13 2.113802 1_545
Fe1 O3 2.113802 1_455
Fe1 O6 2.113802 1_554
Fe2 O0 1.938341 1_555
Fe2 O2 1.938341 1_555
Fe2 O1 1.938341 1_555
Fe2 O18 2.104503 1_555
Fe2 O14 2.104503 1_555
Fe2 O16 2.104503 1_555
O0 P1 1.520537 1_655
O1 P2 1.520537 1_556
O2 P0 1.520537 1_565
O3 P0 1.552651 1_555
O3 V0 2.158851 1_655
O4 P0 1.562077 1_565
O4 Ti0 1.879148 1_555
O5 P0 1.558954 1_555
O5 V1 2.141666 1_555
O6 P1 1.552651 1_555
O6 V0 2.158850 1_556
O7 P1 1.558954 1_555
O7 V1 2.141666 1_555
O8 P3 1.522182 1_555
O9 P2 1.558954 1_555
O9 V1 2.141666 1_555
O10 P3 1.579659 1_555
O10 Ti0 2.078837 1_545
O10 V0 2.173496 1_656
O11 P4 1.522182 1_555
O12 P1 1.562077 1_655
O12 Ti0 1.879148 1_555
O13 P2 1.552651 1_555
O13 V0 2.158850 1_565
O14 P3 1.563986 1_555
O14 V1 2.141244 1_555
O15 P2 1.562077 1_556
O15 Ti0 1.879148 1_555
O16 P4 1.563986 1_555
O16 V1 2.141244 1_555
O17 P4 1.579659 1_555
O17 Ti0 2.078837 1_554
O17 V0 2.173496 1_665
O18 P5 1.563986 1_555
O18 V1 2.141244 1_555
O19 P5 1.522182 1_555
O20 P5 1.579659 1_555
O20 Ti0 2.078837 1_455
O20 V0 2.173496 1_566
O21 P5 1.528192 1_545
O22 P3 1.528192 1_554
O23 P4 1.528192 1_455
