# generated using pymatgen
data_LiFePO4
_symmetry_space_group_name_H-M   'P 1'
_cell_length_a   5.15529151
_cell_length_b   5.15529151
_cell_length_c   8.20332385
_cell_angle_alpha   87.72865788
_cell_angle_beta   87.72865788
_cell_angle_gamma   120.16106354
_symmetry_Int_Tables_number   1
_chemical_formula_structural   LiFePO4
_chemical_formula_sum   'Li2 Fe2 P2 O8'
_cell_volume   187.90766530
_cell_formula_units_Z   2
loop_
 _symmetry_equiv_pos_site_id
 _symmetry_equiv_pos_as_xyz
  1  'x, y, z'
loop_
 _atom_site_type_symbol
 _atom_site_label
 _atom_site_symmetry_multiplicity
 _atom_site_fract_x
 _atom_site_fract_y
 _atom_site_fract_z
 _atom_site_occupancy
  Li  Li0  1  0.81154400  0.96605300  0.03674100  1
  Li  Li1  1  0.96605300  0.81154400  0.53674100  1
  Fe  Fe0  1  0.65558300  0.25046700  0.70374200  1
  Fe  Fe1  1  0.25046700  0.65558300  0.20374200  1
  P  P0  1  0.63432600  0.32174700  0.29460400  1
  P  P1  1  0.32174700  0.63432600  0.79460400  1
  O  O0  1  0.32458800  0.02783700  0.31257800  1
  O  O1  1  0.78644600  0.40082500  0.45956000  1
  O  O2  1  0.85332800  0.28257400  0.17496700  1
  O  O3  1  0.60863500  0.59151100  0.22640900  1
  O  O4  1  0.02783700  0.32458800  0.81257800  1
  O  O5  1  0.40082500  0.78644600  0.95956000  1
  O  O6  1  0.28257400  0.85332800  0.67496700  1
  O  O7  1  0.59151100  0.60863500  0.72640900  1
loop_
_geom_bond_atom_site_label_1
_geom_bond_atom_site_label_2
_geom_bond_distance
_geom_bond_site_symmetry_2
Li0 O2 1.951309 1_565
Li0 O5 1.980946 1_554
Li0 O3 2.201497 1_555
Li0 O4 2.353351 1_664
Li1 O6 1.951309 1_655
Li1 O1 1.980946 1_555
Li1 O7 2.201497 1_555
Li1 O0 2.353351 1_665
Fe0 O4 2.012950 1_655
Fe0 O6 2.015776 1_545
Fe0 O7 2.046537 1_555
Fe0 O1 2.076712 1_555
Fe1 O0 2.012950 1_565
Fe1 O2 2.015776 1_455
Fe1 O3 2.046537 1_555
Fe1 O5 2.076712 1_554
O0 P0 1.549097 1_555
O1 P0 1.555281 1_555
O2 P0 1.560657 1_555
O3 P0 1.547214 1_555
O4 P1 1.549097 1_555
O5 P1 1.555281 1_555
O6 P1 1.560657 1_555
O7 P1 1.547214 1_555
