# generated using pymatgen
data_Fe3(OF2)2
_symmetry_space_group_name_H-M   'P 1'
_cell_length_a   4.82973000
_cell_length_b   5.78217536
_cell_length_c   7.81474923
_cell_angle_alpha   84.29861354
_cell_angle_beta   87.61937805
_cell_angle_gamma   87.52671957
_symmetry_Int_Tables_number   1
_chemical_formula_structural   Fe3(OF2)2
_chemical_formula_sum   'Fe6 O4 F8'
_cell_volume   216.80315014
_cell_formula_units_Z   2
loop_
 _symmetry_equiv_pos_site_id
 _symmetry_equiv_pos_as_xyz
  1  'x, y, z'
loop_
 _atom_site_type_symbol
 _atom_site_label
 _atom_site_symmetry_multiplicity
 _atom_site_fract_x
 _atom_site_fract_y
 _atom_site_fract_z
 _atom_site_occupancy
  Fe  Fe0  1  0.49745800  0.83157100  0.66472500  1
  Fe  Fe1  1  0.52168000  0.48079700  0.99895900  1
  Fe  Fe2  1  0.47963900  0.18950300  0.33706700  1
  Fe  Fe3  1  0.99932500  0.33622400  0.66334300  1
  Fe  Fe4  1  0.01919500  0.65230000  0.32719200  1
  Fe  Fe5  1  0.97892000  0.01313100  0.00989700  1
  O  O0  1  0.69912000  0.19509300  0.10646800  1
  O  O1  1  0.67628800  0.55049400  0.77111700  1
  O  O2  1  0.31978700  0.11662300  0.56496800  1
  O  O3  1  0.31662900  0.46589100  0.22014200  1
  F  F0  1  0.79178700  0.36003200  0.43238600  1
  F  F1  1  0.80377700  0.02426500  0.77837100  1
  F  F2  1  0.80062600  0.71206700  0.09000400  1
  F  F3  1  0.70639500  0.86290900  0.42956300  1
  F  F4  1  0.28575200  0.80961600  0.90486100  1
  F  F5  1  0.19978300  0.97406800  0.22357800  1
  F  F6  1  0.20743600  0.64003300  0.57107600  1
  F  F7  1  0.19640200  0.28538300  0.90628600  1
loop_
_geom_bond_atom_site_label_1
_geom_bond_atom_site_label_2
_geom_bond_distance
_geom_bond_site_symmetry_2
Fe0 O2 1.933629 1_565
Fe0 O1 1.936148 1_555
Fe1 O1 1.913955 1_555
Fe1 O3 1.952291 1_556
Fe1 O0 1.957351 1_556
Fe2 O3 1.915669 1_555
Fe2 O2 1.926210 1_555
Fe2 O0 2.050579 1_555
Fe3 O2 2.127049 1_655
Fe3 O1 2.147052 1_555
Fe4 O3 1.967460 1_555
Fe5 O0 1.858232 1_555
F0 Fe2 2.041439 1_555
F0 Fe3 2.090512 1_555
F0 Fe4 2.132409 1_655
F1 Fe5 2.023021 1_556
F1 Fe0 2.160309 1_545
F1 Fe3 2.169807 1_555
F2 Fe5 2.007954 1_565
F2 Fe1 2.129235 1_554
F2 Fe4 2.161777 1_655
F3 Fe0 2.055226 1_555
F3 Fe4 2.083195 1_655
F3 Fe2 2.214517 1_565
F4 Fe5 2.048159 1_466
F4 Fe0 2.094681 1_555
F4 Fe1 2.249194 1_555
F5 Fe5 2.007380 1_465
F5 Fe2 2.151652 1_565
F5 Fe4 2.158692 1_555
F6 Fe0 2.025906 1_555
F6 Fe3 2.111066 1_455
F6 Fe4 2.139051 1_555
F7 Fe5 2.013911 1_456
F7 Fe3 2.147540 1_455
F7 Fe1 2.163231 1_555
