# generated using pymatgen
data_Fe4OF7
_symmetry_space_group_name_H-M   'P 1'
_cell_length_a   5.80840125
_cell_length_b   5.80840125
_cell_length_c   5.80840125
_cell_angle_alpha   113.75803558
_cell_angle_beta   107.77337988
_cell_angle_gamma   106.97006560
_symmetry_Int_Tables_number   1
_chemical_formula_structural   Fe4OF7
_chemical_formula_sum   'Fe4 O1 F7'
_cell_volume   150.20579088
_cell_formula_units_Z   1
loop_
 _symmetry_equiv_pos_site_id
 _symmetry_equiv_pos_as_xyz
  1  'x, y, z'
loop_
 _atom_site_type_symbol
 _atom_site_label
 _atom_site_symmetry_multiplicity
 _atom_site_fract_x
 _atom_site_fract_y
 _atom_site_fract_z
 _atom_site_occupancy
  Fe  Fe0  1  0.75869100  0.00000000  0.75869100  1
  Fe  Fe1  1  0.72806200  0.50000000  0.22806200  1
  Fe  Fe2  1  0.25872700  0.27025400  0.52898100  1
  Fe  Fe3  1  0.25872700  0.72974600  0.98847300  1
  O  O0  1  0.44445300  0.50000000  0.94445300  1
  F  F0  1  0.44947700  0.00000000  0.44947700  1
  F  F1  1  0.95763800  0.96049200  0.50452900  1
  F  F2  1  0.95763800  0.45310900  0.99714600  1
  F  F3  1  0.54403600  0.03950800  0.99714600  1
  F  F4  1  0.54403600  0.54689100  0.50452900  1
  F  F5  1  0.03359000  0.50000000  0.53359000  1
  F  F6  1  0.06492500  0.00000000  0.06492500  1
loop_
_geom_bond_atom_site_label_1
_geom_bond_atom_site_label_2
_geom_bond_distance
_geom_bond_site_symmetry_2
Fe1 O0 1.941802 1_554
Fe2 O0 1.934867 1_555
Fe3 O0 1.934867 1_555
F0 Fe0 2.117113 1_555
F0 Fe3 2.156022 1_544
F0 Fe2 2.156022 1_555
F1 Fe2 2.030149 1_665
F1 Fe0 2.119124 1_565
F1 Fe1 2.158899 1_555
F2 Fe3 2.030149 1_655
F2 Fe0 2.119124 1_555
F2 Fe1 2.158899 1_556
F3 Fe3 2.030146 1_545
F3 Fe0 2.119128 1_555
F3 Fe1 2.158899 1_556
F4 Fe2 2.030146 1_555
F4 Fe0 2.119124 1_565
F4 Fe1 2.158903 1_555
F5 Fe1 2.091876 1_455
F5 Fe2 2.121977 1_555
F5 Fe3 2.121977 1_555
F6 Fe0 2.096710 1_454
F6 Fe3 2.168744 1_544
F6 Fe2 2.168744 1_555
