# generated using pymatgen
data_V2OF5
_symmetry_space_group_name_H-M   'P 1'
_cell_length_a   5.08955136
_cell_length_b   5.31083291
_cell_length_c   11.32005362
_cell_angle_alpha   99.37626823
_cell_angle_beta   102.86085658
_cell_angle_gamma   90.03253851
_symmetry_Int_Tables_number   1
_chemical_formula_structural   V2OF5
_chemical_formula_sum   'V6 O3 F15'
_cell_volume   294.10113574
_cell_formula_units_Z   3
loop_
 _symmetry_equiv_pos_site_id
 _symmetry_equiv_pos_as_xyz
  1  'x, y, z'
loop_
 _atom_site_type_symbol
 _atom_site_label
 _atom_site_symmetry_multiplicity
 _atom_site_fract_x
 _atom_site_fract_y
 _atom_site_fract_z
 _atom_site_occupancy
  V  V0  1  0.16705613  0.16859440  0.33736493  1
  V  V1  1  0.36094389  0.34393235  0.68783898  1
  V  V2  1  0.49191181  0.50649266  0.01405145  1
  V  V3  1  0.66455425  0.66641922  0.33222539  1
  V  V4  1  0.99231683  0.99678443  0.99473202  1
  V  V5  1  0.84021792  0.82578517  0.65015277  1
  O  O0  1  0.51227199  0.41672627  0.83349392  1
  O  O1  1  0.84116625  0.75418377  0.50136007  1
  O  O2  1  0.49012433  0.58049443  0.16361526  1
  F  F0  1  0.80859072  0.91196351  0.82442266  1
  F  F1  1  0.62988242  0.13177700  0.63091819  1
  F  F2  1  0.50416753  0.62766718  0.63132711  1
  F  F3  1  0.15624834  0.25189060  0.50573853  1
  F  F4  1  0.82803270  0.70080361  0.03255421  1
  F  F5  1  0.16803935  0.03802467  0.70277852  1
  F  F6  1  0.96331430  0.45979083  0.29964726  1
  F  F7  1  0.28903223  0.79189827  0.95996075  1
  F  F8  1  0.69981514  0.20175143  0.03341100  1
  F  F9  1  0.16291632  0.29533860  0.96062215  1
  F  F10  1  0.83036405  0.96019113  0.29716093  1
  F  F11  1  0.04137340  0.53654930  0.70146256  1
  F  F12  1  0.50238950  0.37532911  0.37120589  1
  F  F13  1  0.36637742  0.87106077  0.36691461  1
  F  F14  1  0.18889420  0.08654730  0.16704283  1
loop_
_geom_bond_atom_site_label_1
_geom_bond_atom_site_label_2
_geom_bond_distance
_geom_bond_site_symmetry_2
O0 V1 1.639484 1_555
O0 V2 2.047553 1_556
O1 V5 1.666300 1_555
O1 V3 1.906197 1_555
O2 V2 1.676627 1_555
O2 V3 1.897587 1_555
F0 V4 1.925658 1_555
F0 V5 1.993579 1_555
F1 V1 1.927706 1_555
F1 V5 1.961573 1_545
F2 V1 1.931757 1_555
F2 V5 1.959694 1_555
F3 V0 1.898293 1_555
F3 V1 2.070915 1_555
F4 V4 1.931444 1_554
F4 V2 1.950222 1_555
F5 V5 1.935399 1_445
F5 V1 1.947706 1_555
F6 V0 1.915489 1_655
F6 V3 1.942157 1_555
F7 V4 1.935562 1_455
F7 V2 1.939411 1_556
F8 V4 1.931215 1_544
F8 V2 1.949685 1_555
F9 V2 1.937301 1_556
F9 V4 1.940155 1_445
F10 V3 1.911352 1_555
F10 V0 1.963447 1_665
F11 V5 1.942380 1_455
F11 V1 1.943651 1_555
F12 V3 1.910173 1_555
F12 V0 1.958263 1_555
F13 V0 1.913341 1_565
F13 V3 1.940759 1_555
F14 V0 1.934251 1_555
F14 V4 1.964859 1_444
