# generated using pymatgen
data_Na3AlP2H2O9
_symmetry_space_group_name_H-M   'P 1'
_cell_length_a   8.49875331
_cell_length_b   8.49875331
_cell_length_c   7.13941117
_cell_angle_alpha   83.97033247
_cell_angle_beta   83.97033247
_cell_angle_gamma   49.49915625
_symmetry_Int_Tables_number   1
_chemical_formula_structural   Na3AlP2H2O9
_chemical_formula_sum   'Na6 Al2 P4 H4 O18'
_cell_volume   389.48259547
_cell_formula_units_Z   2
loop_
 _symmetry_equiv_pos_site_id
 _symmetry_equiv_pos_as_xyz
  1  'x, y, z'
loop_
 _atom_site_type_symbol
 _atom_site_label
 _atom_site_symmetry_multiplicity
 _atom_site_fract_x
 _atom_site_fract_y
 _atom_site_fract_z
 _atom_site_occupancy
  Na  Na0  1  0.76510500  0.23489500  0.00000000  1
  Na  Na1  1  0.23489500  0.76510500  0.00000000  1
  Na  Na2  1  0.61023500  0.61023500  0.29072700  1
  Na  Na3  1  0.38976500  0.38976500  0.70927300  1
  Na  Na4  1  0.00000000  0.50000000  0.50000000  1
  Na  Na5  1  0.50000000  0.00000000  0.50000000  1
  Al  Al0  1  0.00000000  0.50000000  0.00000000  1
  Al  Al1  1  0.50000000  0.00000000  0.00000000  1
  P  P0  1  0.37711100  0.37711100  0.22583800  1
  P  P1  1  0.62288900  0.62288900  0.77416200  1
  P  P2  1  0.11976800  0.11976800  0.29002800  1
  P  P3  1  0.88023200  0.88023200  0.70997200  1
  H  H0  1  0.06247000  0.06247000  0.59624200  1
  H  H1  1  0.93753000  0.93753000  0.40375800  1
  H  H2  1  0.19318600  0.19318600  0.82478000  1
  H  H3  1  0.80681400  0.80681400  0.17522000  1
  O  O0  1  0.47645100  0.47645100  0.21267800  1
  O  O1  1  0.52354900  0.52354900  0.78732200  1
  O  O2  1  0.33358600  0.33358600  0.43024700  1
  O  O3  1  0.66641400  0.66641400  0.56975300  1
  O  O4  1  0.16830000  0.52761800  0.11918800  1
  O  O5  1  0.52761800  0.16830000  0.11918800  1
  O  O6  1  0.83170000  0.47238200  0.88081200  1
  O  O7  1  0.47238200  0.83170000  0.88081200  1
  O  O8  1  0.99027000  0.35052200  0.22340300  1
  O  O9  1  0.35052200  0.99027000  0.22340300  1
  O  O10  1  0.00973000  0.64947800  0.77659700  1
  O  O11  1  0.64947800  0.00973000  0.77659700  1
  O  O12  1  0.02587400  0.02587400  0.24145100  1
  O  O13  1  0.97412600  0.97412600  0.75854900  1
  O  O14  1  0.12095900  0.12095900  0.51577100  1
  O  O15  1  0.87904100  0.87904100  0.48422900  1
  O  O16  1  0.24343100  0.24343100  0.89507800  1
  O  O17  1  0.75656900  0.75656900  0.10492200  1
loop_
_geom_bond_atom_site_label_1
_geom_bond_atom_site_label_2
_geom_bond_distance
_geom_bond_site_symmetry_2
Na0 O0 2.422575 1_555
Na0 O1 2.422575 1_554
Na0 O12 2.466645 1_655
Na0 O13 2.466645 1_544
Na0 O5 2.477886 1_555
Na0 O6 2.477886 1_554
Na1 O0 2.422575 1_555
Na1 O1 2.422575 1_554
Na1 O12 2.466645 1_565
Na1 O13 2.466645 1_454
Na1 O4 2.477886 1_555
Na1 O7 2.477886 1_554
Na2 O0 2.200323 1_555
Na2 O3 2.262752 1_555
Na2 O17 2.483726 1_555
Na2 O8 2.484241 1_555
Na2 O9 2.484241 1_555
Na3 O1 2.200323 1_555
Na3 O2 2.262752 1_555
Na3 O16 2.483726 1_555
Na3 O11 2.484241 1_555
Na3 O10 2.484241 1_555
Na4 O2 2.220135 1_555
Na4 O3 2.220135 1_455
Na4 O10 2.493609 1_555
Na4 O8 2.493609 1_455
Na4 O15 2.663339 1_455
Na4 O14 2.663339 1_555
Na5 O2 2.220135 1_555
Na5 O3 2.220135 1_545
Na5 O11 2.493609 1_555
Na5 O9 2.493609 1_545
Na5 O15 2.663339 1_545
Na5 O14 2.663339 1_555
Al0 O4 1.886477 1_555
Al0 O6 1.886477 1_454
Al0 O17 1.937490 1_455
Al0 O16 1.937490 1_554
Al0 O8 1.961549 1_455
Al0 O10 1.961549 1_554
Al1 O5 1.886477 1_555
Al1 O7 1.886477 1_544
Al1 O17 1.937490 1_545
Al1 O16 1.937490 1_554
Al1 O9 1.961549 1_545
Al1 O11 1.961549 1_554
H0 O14 1.012527 1_555
H0 O13 1.684302 1_445
H1 O15 1.012527 1_555
H1 O12 1.684302 1_665
H2 O16 0.971331 1_555
H3 O17 0.971331 1_555
O0 P0 1.525424 1_555
O1 P1 1.525424 1_555
O2 P0 1.534375 1_555
O3 P1 1.534375 1_555
O4 P0 1.579870 1_555
O5 P0 1.579870 1_555
O6 P1 1.579870 1_555
O7 P1 1.579870 1_555
O8 P2 1.547252 1_655
O9 P2 1.547252 1_565
O10 P3 1.547252 1_455
O11 P3 1.547252 1_545
O12 P2 1.528800 1_555
O13 P3 1.528800 1_555
O14 P2 1.613902 1_555
O15 P3 1.613902 1_555
