# generated using pymatgen
data_Mn2OF3
_symmetry_space_group_name_H-M   'P 1'
_cell_length_a   4.83055000
_cell_length_b   5.80410546
_cell_length_c   13.64285095
_cell_angle_alpha   78.87221998
_cell_angle_beta   89.15188311
_cell_angle_gamma   88.97626111
_symmetry_Int_Tables_number   1
_chemical_formula_structural   Mn2OF3
_chemical_formula_sum   'Mn10 O5 F15'
_cell_volume   375.22847138
_cell_formula_units_Z   5
loop_
 _symmetry_equiv_pos_site_id
 _symmetry_equiv_pos_as_xyz
  1  'x, y, z'
loop_
 _atom_site_type_symbol
 _atom_site_label
 _atom_site_symmetry_multiplicity
 _atom_site_fract_x
 _atom_site_fract_y
 _atom_site_fract_z
 _atom_site_occupancy
  Mn  Mn0  1  0.49563400  0.50266600  0.00189600  1
  Mn  Mn1  1  0.49728400  0.29989000  0.59999000  1
  Mn  Mn2  1  0.54839800  0.68613700  0.40464400  1
  Mn  Mn3  1  0.47786400  0.90434200  0.78638200  1
  Mn  Mn4  1  0.49644400  0.09694900  0.20109300  1
  Mn  Mn5  1  0.97035700  0.40099400  0.81414100  1
  Mn  Mn6  1  0.01464100  0.79221400  0.59584200  1
  Mn  Mn7  1  0.00992300  0.60716700  0.19805000  1
  Mn  Mn8  1  0.98737900  0.22078000  0.39839800  1
  Mn  Mn9  1  0.99263700  0.99704900  0.99965000  1
  O  O0  1  0.81789700  0.52981500  0.33429200  1
  O  O1  1  0.79290100  0.30263200  0.94845000  1
  O  O2  1  0.69195200  0.59103500  0.54012700  1
  O  O3  1  0.31210600  0.00064600  0.65588800  1
  O  O4  1  0.19237600  0.69444100  0.06048900  1
  F  F0  1  0.80877900  0.92217400  0.13971300  1
  F  F1  1  0.80346700  0.72708800  0.73807200  1
  F  F2  1  0.79731300  0.10700700  0.53917300  1
  F  F3  1  0.68763800  0.82144200  0.92674700  1
  F  F4  1  0.69573200  0.22737700  0.73806400  1
  F  F5  1  0.69083000  0.42644200  0.13961900  1
  F  F6  1  0.70163800  0.02413600  0.34014700  1
  F  F7  1  0.30532300  0.57738100  0.86046700  1
  F  F8  1  0.29503200  0.18569900  0.06094400  1
  F  F9  1  0.32390600  0.76834600  0.27036900  1
  F  F10  1  0.29964100  0.37081800  0.46468900  1
  F  F11  1  0.21138100  0.88377100  0.45287900  1
  F  F12  1  0.19845100  0.47661100  0.67189300  1
  F  F13  1  0.19322500  0.07080500  0.86153600  1
  F  F14  1  0.18985200  0.28414700  0.25635700  1
loop_
_geom_bond_atom_site_label_1
_geom_bond_atom_site_label_2
_geom_bond_distance
_geom_bond_site_symmetry_2
Mn0 O1 2.043972 1_554
Mn0 O4 2.067465 1_555
Mn1 O2 1.976904 1_555
Mn1 O3 1.980507 1_555
Mn2 O0 1.922532 1_555
Mn2 O2 1.957673 1_555
Mn3 O3 1.940402 1_565
Mn5 O1 1.996365 1_555
Mn6 O3 2.163064 1_565
Mn6 O2 2.194007 1_455
Mn7 O4 2.038504 1_555
Mn7 O0 2.039263 1_455
Mn8 O0 2.003902 1_555
Mn9 O1 2.011269 1_565
Mn9 O4 2.026114 1_656
F0 Mn4 2.059707 1_565
F0 Mn9 2.066891 1_554
F0 Mn7 2.077991 1_655
F1 Mn3 2.034669 1_555
F1 Mn5 2.126324 1_555
F1 Mn6 2.149596 1_655
F2 Mn1 2.075378 1_555
F2 Mn8 2.108918 1_555
F2 Mn6 2.109108 1_645
F3 Mn3 2.147055 1_555
F3 Mn0 2.153045 1_556
F3 Mn9 2.164967 1_555
F4 Mn5 2.084412 1_555
F4 Mn1 2.092249 1_555
F4 Mn3 2.151835 1_545
F5 Mn0 2.081314 1_555
F5 Mn7 2.128045 1_655
F5 Mn4 2.159668 1_555
F6 Mn8 2.068404 1_555
F6 Mn4 2.119262 1_555
F6 Mn2 2.130046 1_545
F7 Mn5 2.098791 1_455
F7 Mn0 2.114574 1_556
F7 Mn3 2.146807 1_555
F8 Mn0 2.107374 1_555
F8 Mn9 2.116284 1_444
F8 Mn4 2.127156 1_555
F9 Mn2 2.112439 1_555
F9 Mn4 2.136161 1_565
F9 Mn7 2.144831 1_555
F10 Mn1 2.057449 1_555
F10 Mn8 2.059825 1_455
F10 Mn2 2.221523 1_555
F11 Mn6 2.133737 1_555
F11 Mn2 2.142918 1_555
F11 Mn8 2.221793 1_465
F12 Mn1 2.095635 1_555
F12 Mn6 2.110898 1_555
F12 Mn5 2.190442 1_455
F13 Mn3 2.041678 1_545
F13 Mn9 2.078944 1_445
F13 Mn5 2.172202 1_455
F14 Mn4 2.041569 1_555
F14 Mn7 2.071187 1_555
F14 Mn8 2.128084 1_455
