# generated using pymatgen
data_UH12S2O15
_symmetry_space_group_name_H-M   'P 1'
_cell_length_a   6.95785298
_cell_length_b   6.95785298
_cell_length_c   14.85050497
_cell_angle_alpha   77.25377098
_cell_angle_beta   77.25377098
_cell_angle_gamma   68.18166919
_symmetry_Int_Tables_number   1
_chemical_formula_structural   UH12S2O15
_chemical_formula_sum   'U2 H24 S4 O30'
_cell_volume   643.31605698
_cell_formula_units_Z   2
loop_
 _symmetry_equiv_pos_site_id
 _symmetry_equiv_pos_as_xyz
  1  'x, y, z'
loop_
 _atom_site_type_symbol
 _atom_site_label
 _atom_site_symmetry_multiplicity
 _atom_site_fract_x
 _atom_site_fract_y
 _atom_site_fract_z
 _atom_site_occupancy
  U  U0  1  0.22936900  0.77063100  0.75000000  1
  U  U1  1  0.77063100  0.22936900  0.25000000  1
  H  H0  1  0.54406400  0.31953100  0.78325300  1
  H  H1  1  0.68046900  0.45593600  0.71674700  1
  H  H2  1  0.45593600  0.68046900  0.21674700  1
  H  H3  1  0.31953100  0.54406400  0.28325300  1
  H  H4  1  0.30446800  0.12869100  0.91470600  1
  H  H5  1  0.87130900  0.69553200  0.58529400  1
  H  H6  1  0.69553200  0.87130900  0.08529400  1
  H  H7  1  0.12869100  0.30446800  0.41470600  1
  H  H8  1  0.20765100  0.19200900  0.01652400  1
  H  H9  1  0.80799100  0.79234900  0.48347600  1
  H  H10  1  0.79234900  0.80799100  0.98347600  1
  H  H11  1  0.19200900  0.20765100  0.51652400  1
  H  H12  1  0.77799800  0.47020700  0.90605700  1
  H  H13  1  0.52979300  0.22200200  0.59394300  1
  H  H14  1  0.22200200  0.52979300  0.09394300  1
  H  H15  1  0.47020700  0.77799800  0.40605700  1
  H  H16  1  0.99503500  0.24046900  0.94106300  1
  H  H17  1  0.75953100  0.00496500  0.55893700  1
  H  H18  1  0.00496500  0.75953100  0.05893700  1
  H  H19  1  0.24046900  0.99503500  0.44106300  1
  H  H20  1  0.73703400  0.27210000  0.97924600  1
  H  H21  1  0.72790000  0.26296600  0.52075400  1
  H  H22  1  0.26296600  0.72790000  0.02075400  1
  H  H23  1  0.27210000  0.73703400  0.47924600  1
  S  S0  1  0.11343600  0.34410500  0.68899700  1
  S  S1  1  0.65589500  0.88656400  0.81100200  1
  S  S2  1  0.88656400  0.65589500  0.31100200  1
  S  S3  1  0.34410500  0.11343600  0.18899800  1
  O  O0  1  0.18818000  0.72728300  0.87649200  1
  O  O1  1  0.27271700  0.81182000  0.62350800  1
  O  O2  1  0.81182000  0.27271700  0.12350800  1
  O  O3  1  0.72728300  0.18818000  0.37649200  1
  O  O4  1  0.14308700  0.46787200  0.75235900  1
  O  O5  1  0.53212800  0.85691300  0.74764100  1
  O  O6  1  0.85691300  0.53212800  0.24764100  1
  O  O7  1  0.46787200  0.14308700  0.25235900  1
  O  O8  1  0.11066100  0.14043700  0.74651100  1
  O  O9  1  0.85956300  0.88933900  0.75348900  1
  O  O10  1  0.88933900  0.85956300  0.25348900  1
  O  O11  1  0.14043700  0.11066100  0.24651100  1
  O  O12  1  0.53781400  0.46218600  0.75000000  1
  O  O13  1  0.46218600  0.53781400  0.25000000  1
  O  O14  1  0.54189600  0.08910700  0.84616900  1
  O  O15  1  0.91089300  0.45810400  0.65383100  1
  O  O16  1  0.45810400  0.91089300  0.15383100  1
  O  O17  1  0.08910700  0.54189600  0.34616900  1
  O  O18  1  0.68811200  0.71589500  0.89279300  1
  O  O19  1  0.28410500  0.31188800  0.60720700  1
  O  O20  1  0.31188800  0.28410500  0.10720700  1
  O  O21  1  0.71589500  0.68811200  0.39279300  1
  O  O22  1  0.18029400  0.14127400  0.96507600  1
  O  O23  1  0.85872600  0.81970600  0.53492400  1
  O  O24  1  0.81970600  0.85872600  0.03492400  1
  O  O25  1  0.14127400  0.18029400  0.46507600  1
  O  O26  1  0.82852800  0.31090800  0.92383900  1
  O  O27  1  0.68909200  0.17147200  0.57616100  1
  O  O28  1  0.17147200  0.68909200  0.07616100  1
  O  O29  1  0.31090800  0.82852800  0.42383900  1
loop_
_geom_bond_atom_site_label_1
_geom_bond_atom_site_label_2
_geom_bond_distance
_geom_bond_site_symmetry_2
H0 O12 0.996020 1_555
H0 O14 1.671643 1_555
H1 O12 0.996020 1_555
H1 O15 1.671643 1_555
H2 O13 0.996020 1_555
H2 O16 1.671643 1_555
H3 O13 0.996020 1_555
H3 O17 1.671643 1_555
H4 O22 1.000579 1_555
H4 O14 1.698352 1_555
H5 O23 1.000579 1_555
H5 O15 1.698352 1_555
H6 O24 1.000579 1_555
H6 O16 1.698352 1_555
H7 O25 1.000579 1_555
H7 O17 1.698352 1_555
H8 O22 0.988796 1_554
H9 O23 0.988796 1_555
H10 O24 0.988796 1_556
H11 O25 0.988796 1_555
H12 O26 1.021761 1_555
H12 O18 1.569479 1_555
H13 O27 1.021761 1_555
H13 O19 1.569479 1_555
H14 O28 1.021761 1_555
H14 O20 1.569479 1_555
H15 O29 1.021761 1_555
H15 O21 1.569479 1_555
H16 O26 1.140703 1_555
H16 O22 1.303066 1_655
H17 O27 1.140703 1_555
H17 O23 1.303066 1_545
H18 O28 1.140703 1_555
H18 O24 1.303066 1_455
H19 O29 1.140703 1_555
H19 O25 1.303066 1_565
H20 O26 0.976629 1_555
H21 O27 0.976629 1_555
H22 O28 0.976629 1_555
H23 O29 0.976629 1_555
O0 U0 1.810647 1_555
O1 U0 1.810647 1_555
O2 U1 1.810647 1_555
O3 U1 1.810647 1_555
O4 S0 1.498277 1_555
O4 U0 2.386922 1_555
O5 S1 1.498265 1_555
O5 U0 2.386922 1_555
O6 S2 1.498265 1_555
O6 U1 2.386922 1_555
O7 S3 1.498265 1_555
O7 U1 2.386922 1_555
O8 S0 1.488960 1_555
O8 U0 2.384494 1_545
O9 S1 1.488955 1_555
O9 U0 2.384494 1_655
O10 S2 1.488955 1_555
O10 U1 2.384494 1_565
O11 S3 1.488955 1_555
O11 U1 2.384494 1_455
O12 U0 2.405823 1_555
O13 U1 2.405823 1_555
O14 S1 1.482899 1_545
O15 S0 1.482892 1_655
O16 S3 1.482899 1_565
O17 S2 1.482899 1_455
O18 S1 1.490481 1_555
O19 S0 1.490471 1_555
O20 S3 1.490481 1_555
O21 S2 1.490481 1_555
