# generated using pymatgen
data_Li5Mn3Bi2(PO4)6
_symmetry_space_group_name_H-M   'P 1'
_cell_length_a   8.86543300
_cell_length_b   8.93910476
_cell_length_c   8.97490318
_cell_angle_alpha   119.35432566
_cell_angle_beta   119.44173503
_cell_angle_gamma   89.97634229
_symmetry_Int_Tables_number   1
_chemical_formula_structural   Li5Mn3Bi2(PO4)6
_chemical_formula_sum   'Li5 Mn3 Bi2 P6 O24'
_cell_volume   512.04445107
_cell_formula_units_Z   1
loop_
 _symmetry_equiv_pos_site_id
 _symmetry_equiv_pos_as_xyz
  1  'x, y, z'
loop_
 _atom_site_type_symbol
 _atom_site_label
 _atom_site_symmetry_multiplicity
 _atom_site_fract_x
 _atom_site_fract_y
 _atom_site_fract_z
 _atom_site_occupancy
  Li  Li0  1  0.51213900  0.17659600  0.34929100  1
  Li  Li1  1  0.74549100  0.64750500  0.50500800  1
  Li  Li2  1  0.30576700  0.32464300  0.47338200  1
  Li  Li3  1  0.31981400  0.14933100  0.99223700  1
  Li  Li4  1  0.31072400  0.84050400  0.16072700  1
  Mn  Mn0  1  0.96015400  0.65326400  0.31000200  1
  Mn  Mn1  1  0.53343100  0.84367800  0.68391800  1
  Mn  Mn2  1  0.03673500  0.34114800  0.68601500  1
  Bi  Bi0  1  0.98451200  0.00975800  0.00127200  1
  Bi  Bi1  1  0.51126200  0.50405000  0.99508200  1
  P  P0  1  0.74115800  0.54831000  0.79466900  1
  P  P1  1  0.74550100  0.24904300  0.19563600  1
  P  P2  1  0.73713100  0.94651200  0.48981000  1
  P  P3  1  0.24143300  0.04345700  0.49711700  1
  P  P4  1  0.22405900  0.74644500  0.78416200  1
  P  P5  1  0.26496100  0.45747100  0.20633600  1
  O  O0  1  0.92151300  0.29376400  0.39157600  1
  O  O1  1  0.90807200  0.09657000  0.60351000  1
  O  O2  1  0.90777800  0.50423400  0.79824500  1
  O  O3  1  0.74674300  0.72907300  0.80063800  1
  O  O4  1  0.75246300  0.59398100  0.99340900  1
  O  O5  1  0.55947700  0.40005800  0.60653600  1
  O  O6  1  0.74226400  0.09107600  0.00641700  1
  O  O7  1  0.74555100  0.41901000  0.17819500  1
  O  O8  1  0.73120800  0.75037700  0.33291600  1
  O  O9  1  0.41696300  0.01626200  0.62188200  1
  O  O10  1  0.22784300  0.03791100  0.31184600  1
  O  O11  1  0.37789800  0.77645000  0.76090400  1
  O  O12  1  0.57034900  0.20296800  0.17940500  1
  O  O13  1  0.75018600  0.92046100  0.65812900  1
  O  O14  1  0.55875200  0.97205300  0.36714000  1
  O  O15  1  0.25294100  0.24442800  0.64152100  1
  O  O16  1  0.25237400  0.61315700  0.85659400  1
  O  O17  1  0.23604800  0.92510900  0.96555100  1
  O  O18  1  0.45202200  0.60173700  0.39323900  1
  O  O19  1  0.26285200  0.39026000  0.00620500  1
  O  O20  1  0.24372000  0.27999100  0.20441000  1
  O  O21  1  0.10547600  0.52425800  0.20017600  1
  O  O22  1  0.07023500  0.90323300  0.40785900  1
  O  O23  1  0.03299600  0.68087100  0.58903600  1
loop_
_geom_bond_atom_site_label_1
_geom_bond_atom_site_label_2
_geom_bond_distance
_geom_bond_site_symmetry_2
Li0 O14 1.939345 1_545
Li0 O12 1.942332 1_555
Li0 O5 2.005815 1_555
Li0 O20 2.518399 1_555
Li0 O10 2.600716 1_555
Li1 O8 2.108864 1_555
Li1 O13 2.121361 1_555
Li1 O18 2.230576 1_555
Li1 O23 2.246061 1_655
Li1 O3 2.376099 1_555
Li1 O7 2.627352 1_555
Li2 O5 1.873674 1_555
Li2 O20 2.009822 1_555
Li2 O10 2.126591 1_555
Li2 O15 2.183246 1_555
Li3 O12 1.878376 1_556
Li3 O17 1.995488 1_545
Li3 O20 2.127683 1_556
Li3 O19 2.169273 1_556
Li4 O14 1.873910 1_555
Li4 O10 2.031131 1_565
Li4 O17 2.058410 1_554
Li4 O16 2.241078 1_554
Mn0 O22 1.987938 1_655
Mn0 O21 2.023364 1_655
Mn0 O23 2.133970 1_655
Mn0 O7 2.183145 1_555
Mn0 O4 2.264049 1_554
Mn0 O8 2.269242 1_555
Mn1 O9 2.007948 1_565
Mn1 O11 2.020941 1_555
Mn1 O18 2.150080 1_555
Mn1 O13 2.193492 1_555
Mn1 O3 2.196868 1_555
Mn1 O6 2.270625 1_566
Mn2 O2 2.034191 1_455
Mn2 O1 2.052769 1_455
Mn2 O0 2.110753 1_455
Mn2 O15 2.234625 1_555
Mn2 O16 2.321162 1_555
Mn2 O19 2.360074 1_556
Bi0 O6 2.281700 1_555
Bi0 O13 2.395606 1_544
Bi0 O3 2.413419 1_544
Bi0 O10 2.426497 1_655
Bi0 O20 2.451129 1_655
Bi0 O17 2.472191 1_644
Bi1 O4 2.294308 1_555
Bi1 O7 2.336822 1_556
Bi1 O8 2.343011 1_556
Bi1 O16 2.479126 1_555
Bi1 O19 2.492411 1_556
Bi1 O15 2.517959 1_555
O0 P1 1.516855 1_555
O1 P2 1.508857 1_545
O2 P0 1.517753 1_555
O3 P0 1.590256 1_555
O4 P0 1.571165 1_555
O5 P0 1.528358 1_555
O6 P1 1.574742 1_555
O7 P1 1.601928 1_555
O8 P2 1.602006 1_555
O9 P3 1.512647 1_555
O10 P3 1.582429 1_555
O11 P4 1.520086 1_555
O12 P1 1.523606 1_555
O13 P2 1.588293 1_555
O14 P2 1.516451 1_555
O15 P3 1.582701 1_555
O16 P4 1.582380 1_555
O17 P4 1.578984 1_555
O18 P5 1.540534 1_555
O19 P5 1.580025 1_555
O20 P5 1.588377 1_555
O21 P5 1.520995 1_555
O22 P3 1.529157 1_565
O23 P4 1.535523 1_555
