# generated using pymatgen
data_LiCuPO4
_symmetry_space_group_name_H-M   'P 1'
_cell_length_a   5.87591500
_cell_length_b   7.37079600
_cell_length_c   14.07005500
_cell_angle_alpha   90.00000000
_cell_angle_beta   90.00000000
_cell_angle_gamma   90.00000000
_symmetry_Int_Tables_number   1
_chemical_formula_structural   LiCuPO4
_chemical_formula_sum   'Li8 Cu8 P8 O32'
_cell_volume   609.37648491
_cell_formula_units_Z   8
loop_
 _symmetry_equiv_pos_site_id
 _symmetry_equiv_pos_as_xyz
  1  'x, y, z'
loop_
 _atom_site_type_symbol
 _atom_site_label
 _atom_site_symmetry_multiplicity
 _atom_site_fract_x
 _atom_site_fract_y
 _atom_site_fract_z
 _atom_site_occupancy
  Li  Li0  1  0.15709700  0.19671100  0.21721800  1
  Li  Li1  1  0.65709700  0.19671100  0.28278200  1
  Li  Li2  1  0.65709700  0.30328900  0.78278200  1
  Li  Li3  1  0.15709700  0.30328900  0.71721800  1
  Li  Li4  1  0.34290300  0.69671100  0.21721800  1
  Li  Li5  1  0.84290300  0.69671100  0.28278200  1
  Li  Li6  1  0.34290300  0.80328900  0.71721800  1
  Li  Li7  1  0.84290300  0.80328900  0.78278200  1
  Cu  Cu0  1  0.37872900  0.18058400  0.53105500  1
  Cu  Cu1  1  0.87872900  0.18058400  0.96894500  1
  Cu  Cu2  1  0.37872900  0.31941600  0.03105500  1
  Cu  Cu3  1  0.87872900  0.31941600  0.46894500  1
  Cu  Cu4  1  0.12127100  0.68058400  0.53105500  1
  Cu  Cu5  1  0.62127100  0.68058400  0.96894500  1
  Cu  Cu6  1  0.12127100  0.81941600  0.03105500  1
  Cu  Cu7  1  0.62127100  0.81941600  0.46894500  1
  P  P0  1  0.90472300  0.03203700  0.62550100  1
  P  P1  1  0.40472300  0.03203700  0.87449900  1
  P  P2  1  0.90472300  0.46796300  0.12550100  1
  P  P3  1  0.40472300  0.46796300  0.37449900  1
  P  P4  1  0.59527700  0.53203700  0.62550100  1
  P  P5  1  0.09527700  0.53203700  0.87449900  1
  P  P6  1  0.59527700  0.96796300  0.12550100  1
  P  P7  1  0.09527700  0.96796300  0.37449900  1
  O  O0  1  0.81288600  0.99103400  0.06194200  1
  O  O1  1  0.31288600  0.99103400  0.43805800  1
  O  O2  1  0.34473300  0.09142200  0.77425200  1
  O  O3  1  0.84473300  0.09142200  0.72574800  1
  O  O4  1  0.45769500  0.14794000  0.13170300  1
  O  O5  1  0.95769500  0.14794000  0.36829700  1
  O  O6  1  0.05776300  0.18578600  0.57873600  1
  O  O7  1  0.55776300  0.18578600  0.92126400  1
  O  O8  1  0.05776300  0.31421400  0.07873600  1
  O  O9  1  0.55776300  0.31421400  0.42126400  1
  O  O10  1  0.45769500  0.35206000  0.63170300  1
  O  O11  1  0.95769500  0.35206000  0.86829700  1
  O  O12  1  0.84473300  0.40857800  0.22574800  1
  O  O13  1  0.34473300  0.40857800  0.27425200  1
  O  O14  1  0.81288600  0.50896600  0.56194200  1
  O  O15  1  0.31288600  0.50896600  0.93805800  1
  O  O16  1  0.18711400  0.49103400  0.43805800  1
  O  O17  1  0.68711400  0.49103400  0.06194200  1
  O  O18  1  0.65526700  0.59142200  0.72574800  1
  O  O19  1  0.15526700  0.59142200  0.77425200  1
  O  O20  1  0.04230500  0.64794000  0.13170300  1
  O  O21  1  0.54230500  0.64794000  0.36829700  1
  O  O22  1  0.44223700  0.68578600  0.57873600  1
  O  O23  1  0.94223700  0.68578600  0.92126400  1
  O  O24  1  0.44223700  0.81421400  0.07873600  1
  O  O25  1  0.94223700  0.81421400  0.42126400  1
  O  O26  1  0.04230500  0.85206000  0.63170300  1
  O  O27  1  0.54230500  0.85206000  0.86829700  1
  O  O28  1  0.65526700  0.90857800  0.22574800  1
  O  O29  1  0.15526700  0.90857800  0.27425200  1
  O  O30  1  0.68711400  0.00896600  0.56194200  1
  O  O31  1  0.18711400  0.00896600  0.93805800  1
loop_
_geom_bond_atom_site_label_1
_geom_bond_atom_site_label_2
_geom_bond_distance
_geom_bond_site_symmetry_2
Li0 O13 2.073216 1_555
Li0 O4 2.167186 1_555
Li0 O8 2.210712 1_555
Li0 O29 2.270347 1_545
Li0 O12 2.412855 1_455
Li0 O5 2.453690 1_455
Li1 O12 2.073216 1_555
Li1 O5 2.167186 1_555
Li1 O9 2.210712 1_555
Li1 O28 2.270347 1_545
Li1 O13 2.412855 1_555
Li1 O4 2.453690 1_555
Li2 O3 2.073216 1_555
Li2 O11 2.167186 1_555
Li2 O7 2.210712 1_555
Li2 O18 2.270347 1_555
Li2 O2 2.412855 1_555
Li2 O10 2.453690 1_555
Li3 O2 2.073216 1_555
Li3 O10 2.167186 1_555
Li3 O6 2.210712 1_555
Li3 O19 2.270347 1_555
Li3 O3 2.412855 1_455
Li3 O11 2.453690 1_455
Li4 O29 2.073216 1_555
Li4 O20 2.167186 1_555
Li4 O24 2.210712 1_555
Li4 O13 2.270347 1_555
Li4 O28 2.412855 1_555
Li4 O21 2.453690 1_555
Li5 O28 2.073216 1_555
Li5 O21 2.167186 1_555
Li5 O25 2.210712 1_555
Li5 O12 2.270347 1_555
Li5 O29 2.412855 1_655
Li5 O20 2.453690 1_655
Li6 O19 2.073216 1_555
Li6 O26 2.167186 1_555
Li6 O22 2.210712 1_555
Li6 O2 2.270347 1_565
Li6 O18 2.412855 1_555
Li6 O27 2.453690 1_555
Li7 O18 2.073216 1_555
Li7 O27 2.167186 1_555
Li7 O23 2.210712 1_555
Li7 O3 2.270347 1_565
Li7 O19 2.412855 1_655
Li7 O26 2.453690 1_655
Cu0 O1 1.952887 1_545
Cu0 O10 1.954016 1_555
Cu0 O6 2.002104 1_555
Cu0 O9 2.112611 1_555
Cu0 O30 2.252219 1_555
Cu1 O0 1.952887 1_546
Cu1 O11 1.954016 1_555
Cu1 O7 2.002104 1_555
Cu1 O8 2.112611 1_656
Cu1 O31 2.252219 1_655
Cu2 O15 1.952887 1_554
Cu2 O4 1.954016 1_555
Cu2 O8 2.002104 1_555
Cu2 O7 2.112611 1_554
Cu2 O17 2.252219 1_555
Cu3 O14 1.952887 1_555
Cu3 O5 1.954016 1_555
Cu3 O9 2.002104 1_555
Cu3 O6 2.112611 1_655
Cu3 O16 2.252219 1_655
Cu4 O16 1.952887 1_555
Cu4 O26 1.954016 1_555
Cu4 O22 2.002104 1_555
Cu4 O25 2.112611 1_455
Cu4 O14 2.252219 1_455
Cu5 O17 1.952887 1_556
Cu5 O27 1.954016 1_555
Cu5 O23 2.002104 1_555
Cu5 O24 2.112611 1_556
Cu5 O15 2.252219 1_555
Cu6 O31 1.952887 1_564
Cu6 O20 1.954016 1_555
Cu6 O24 2.002104 1_555
Cu6 O23 2.112611 1_454
Cu6 O0 2.252219 1_455
Cu7 O30 1.952887 1_565
Cu7 O21 1.954016 1_555
Cu7 O25 2.002104 1_555
Cu7 O22 2.112611 1_555
Cu7 O1 2.252219 1_555
O0 P6 1.569587 1_555
O1 P7 1.569587 1_555
O2 P1 1.518323 1_555
O3 P0 1.518323 1_555
O4 P6 1.555942 1_545
O5 P7 1.555942 1_645
O6 P0 1.589295 1_455
O7 P1 1.589295 1_555
O8 P2 1.589295 1_455
O9 P3 1.589295 1_555
O10 P4 1.555942 1_555
O11 P5 1.555942 1_655
O12 P2 1.518323 1_555
O13 P3 1.518323 1_555
O14 P4 1.569587 1_555
O15 P5 1.569587 1_555
O16 P3 1.569587 1_555
O17 P2 1.569587 1_555
O18 P4 1.518323 1_555
O19 P5 1.518323 1_555
O20 P2 1.555942 1_455
O21 P3 1.555942 1_555
O22 P4 1.589295 1_555
O23 P5 1.589295 1_655
O24 P6 1.589295 1_555
O25 P7 1.589295 1_655
O26 P0 1.555942 1_465
O27 P1 1.555942 1_565
O28 P6 1.518323 1_555
O29 P7 1.518323 1_555
O30 P0 1.569587 1_555
O31 P1 1.569587 1_555
