# generated using pymatgen
data_Li32Mn11Cr5O48
_symmetry_space_group_name_H-M   'P 1'
_cell_length_a   5.00652200
_cell_length_b   5.00668730
_cell_length_c   38.44843382
_cell_angle_alpha   91.02927353
_cell_angle_beta   91.02389951
_cell_angle_gamma   119.67221047
_symmetry_Int_Tables_number   1
_chemical_formula_structural   Li32Mn11Cr5O48
_chemical_formula_sum   'Li32 Mn11 Cr5 O48'
_cell_volume   836.84429972
_cell_formula_units_Z   1
loop_
 _symmetry_equiv_pos_site_id
 _symmetry_equiv_pos_as_xyz
  1  'x, y, z'
loop_
 _atom_site_type_symbol
 _atom_site_label
 _atom_site_symmetry_multiplicity
 _atom_site_fract_x
 _atom_site_fract_y
 _atom_site_fract_z
 _atom_site_occupancy
  Li  Li0  1  0.90827300  0.08576800  0.24998200  1
  Li  Li1  1  0.49994000  0.00119900  0.99988400  1
  Li  Li2  1  0.56410700  0.06036300  0.18754500  1
  Li  Li3  1  0.62510700  0.12590800  0.37492000  1
  Li  Li4  1  0.69015100  0.18535400  0.56249700  1
  Li  Li5  1  0.75062200  0.25077200  0.74985500  1
  Li  Li6  1  0.81243700  0.31250900  0.93751300  1
  Li  Li7  1  0.20746600  0.02964700  0.12504200  1
  Li  Li8  1  0.87484300  0.37450700  0.12514000  1
  Li  Li9  1  0.33719200  0.16109500  0.50005700  1
  Li  Li10  1  0.46601100  0.28989000  0.87507400  1
  Li  Li11  1  0.93767400  0.43747900  0.31251800  1
  Li  Li12  1  0.00131100  0.50078900  0.49995000  1
  Li  Li13  1  0.59174400  0.41629300  0.25018600  1
  Li  Li14  1  0.71535700  0.53941500  0.62498100  1
  Li  Li15  1  0.03419300  0.21230400  0.62513400  1
  Li  Li16  1  0.15721100  0.33310700  0.99976300  1
  Li  Li17  1  0.84295100  0.66471200  0.99996100  1
  Li  Li18  1  0.96014600  0.78321000  0.37479000  1
  Li  Li19  1  0.28929700  0.46637000  0.37502500  1
  Li  Li20  1  0.41300500  0.59116100  0.74977200  1
  Li  Li21  1  0.06243700  0.56255500  0.68746800  1
  Li  Li22  1  0.54307200  0.72089300  0.12526300  1
  Li  Li23  1  0.66022000  0.83839900  0.49991300  1
  Li  Li24  1  0.12499800  0.62479300  0.87510200  1
  Li  Li25  1  0.78386500  0.96117100  0.87521600  1
  Li  Li26  1  0.18505400  0.68988000  0.06241500  1
  Li  Li27  1  0.25028200  0.74869600  0.25008000  1
  Li  Li28  1  0.31294600  0.81078500  0.43746600  1
  Li  Li29  1  0.37511300  0.87415700  0.62503500  1
  Li  Li30  1  0.43922900  0.93438000  0.81246800  1
  Li  Li31  1  0.08556300  0.90881300  0.74988400  1
  Mn  Mn0  1  0.85475300  0.01990800  0.06243900  1
  Mn  Mn1  1  0.27032700  0.10486800  0.31250900  1
  Mn  Mn2  1  0.39534400  0.22964700  0.68747100  1
  Mn  Mn3  1  0.64515900  0.47952500  0.43750200  1
  Mn  Mn4  1  0.77011400  0.60497300  0.81247200  1
  Mn  Mn5  1  0.89517600  0.72987000  0.18752500  1
  Mn  Mn6  1  0.47967600  0.64514100  0.93753200  1
  Mn  Mn7  1  0.60471500  0.77062500  0.31253000  1
  Mn  Mn8  1  0.72974300  0.89536200  0.68747700  1
  Mn  Mn9  1  0.02023800  0.85523600  0.56256400  1
  Mn  Mn10  1  0.14544200  0.97956100  0.93750400  1
  Cr  Cr0  1  0.98258600  0.14200700  0.43750400  1
  Cr  Cr1  1  0.51679100  0.35775200  0.06246400  1
  Cr  Cr2  1  0.10787500  0.26710400  0.81250000  1
  Cr  Cr3  1  0.23294100  0.39220900  0.18749600  1
  Cr  Cr4  1  0.35809700  0.51745700  0.56253500  1
  O  O0  1  0.94579000  0.08860000  0.34050900  1
  O  O1  1  0.90600700  0.04821000  0.15921700  1
  O  O2  1  0.57087300  0.07106900  0.28402300  1
  O  O3  1  0.69589300  0.19591200  0.65900300  1
  O  O4  1  0.55632900  0.05569000  0.09098300  1
  O  O5  1  0.67975000  0.18053000  0.46601000  1
  O  O6  1  0.80528500  0.30622900  0.84099000  1
  O  O7  1  0.82007100  0.31893500  0.03395400  1
  O  O8  1  0.94420600  0.44494800  0.40895700  1
  O  O9  1  0.21134700  0.07279000  0.21541100  1
  O  O10  1  0.92987600  0.43086500  0.21597700  1
  O  O11  1  0.33634600  0.19840100  0.59050000  1
  O  O12  1  0.46343200  0.32069400  0.96550700  1
  O  O13  1  0.17259600  0.03087600  0.03405900  1
  O  O14  1  0.30257900  0.16368700  0.40954900  1
  O  O15  1  0.42699900  0.28903400  0.78451200  1
  O  O16  1  0.07079900  0.21351500  0.71548300  1
  O  O17  1  0.03118800  0.17266700  0.53414200  1
  O  O18  1  0.16155600  0.30396700  0.90952800  1
  O  O19  1  0.58845000  0.44578000  0.34043900  1
  O  O20  1  0.71344500  0.57050900  0.71539600  1
  O  O21  1  0.55219700  0.41359300  0.15954100  1
  O  O22  1  0.67749000  0.53886100  0.53465000  1
  O  O23  1  0.80467900  0.66124200  0.90961400  1
  O  O24  1  0.19797100  0.33596500  0.09047000  1
  O  O25  1  0.32665500  0.46818600  0.46585000  1
  O  O26  1  0.45234000  0.59385100  0.84088800  1
  O  O27  1  0.28654100  0.42943100  0.28450300  1
  O  O28  1  0.41145300  0.55416600  0.65947900  1
  O  O29  1  0.84388000  0.70225300  0.09083600  1
  O  O30  1  0.96137600  0.82182300  0.46541800  1
  O  O31  1  0.92950900  0.78676200  0.28456700  1
  O  O32  1  0.57708500  0.71874300  0.21585100  1
  O  O33  1  0.70210500  0.84436200  0.59090000  1
  O  O34  1  0.82046400  0.96344600  0.96544200  1
  O  O35  1  0.53873500  0.67669900  0.03451800  1
  O  O36  1  0.65651100  0.79820400  0.40920600  1
  O  O37  1  0.06891600  0.56990600  0.78394900  1
  O  O38  1  0.78103400  0.92279700  0.78411400  1
  O  O39  1  0.05462800  0.55584800  0.59104400  1
  O  O40  1  0.17920700  0.67891700  0.96599300  1
  O  O41  1  0.19454400  0.69521500  0.15901500  1
  O  O42  1  0.31905600  0.81999100  0.53405700  1
  O  O43  1  0.44600800  0.94591700  0.90905500  1
  O  O44  1  0.30405400  0.80446000  0.34098300  1
  O  O45  1  0.42904300  0.92926400  0.71596100  1
  O  O46  1  0.08633300  0.94802600  0.84045900  1
  O  O47  1  0.05457300  0.91155100  0.65956100  1
loop_
_geom_bond_atom_site_label_1
_geom_bond_atom_site_label_2
_geom_bond_distance
_geom_bond_site_symmetry_2
Li0 O9 2.059109 1_655
Li0 O31 2.060256 1_545
Li0 O2 2.128668 1_555
Li0 O10 2.146522 1_555
Li0 O32 2.160332 1_545
Li0 O27 2.215995 1_655
Li1 O7 2.034979 1_556
Li1 O40 2.040688 1_545
Li1 O12 2.167017 1_555
Li1 O34 2.175247 1_545
Li1 O13 2.178415 1_556
Li1 O35 2.198045 1_546
Li2 O1 2.070598 1_555
Li2 O32 2.070859 1_545
Li2 O9 2.108296 1_555
Li2 O21 2.112112 1_555
Li2 O41 2.115488 1_545
Li2 O10 2.117028 1_555
Li3 O8 2.034696 1_555
Li3 O44 2.040763 1_545
Li3 O19 2.171324 1_555
Li3 O0 2.174156 1_555
Li3 O36 2.186347 1_545
Li3 O14 2.187707 1_555
Li4 O33 2.068002 1_545
Li4 O17 2.068633 1_655
Li4 O22 2.111784 1_555
Li4 O39 2.116440 1_655
Li4 O11 2.116908 1_555
Li4 O42 2.117626 1_545
Li5 O37 2.034679 1_655
Li5 O45 2.040887 1_545
Li5 O16 2.171107 1_655
Li5 O20 2.171407 1_555
Li5 O38 2.184645 1_545
Li5 O15 2.193785 1_555
Li6 O23 2.081726 1_555
Li6 O34 2.084325 1_545
Li6 O12 2.085603 1_555
Li6 O18 2.086669 1_655
Li6 O43 2.110417 1_545
Li6 O40 2.111167 1_655
Li7 O1 2.053875 1_455
Li7 O24 2.065029 1_555
Li7 O41 2.118565 1_545
Li7 O29 2.147754 1_445
Li7 O4 2.155182 1_555
Li7 O21 2.230516 1_555
Li8 O41 2.035262 1_655
Li8 O4 2.035983 1_555
Li8 O1 2.175272 1_555
Li8 O21 2.185651 1_555
Li8 O29 2.185987 1_555
Li8 O24 2.192751 1_655
Li9 O17 2.055428 1_555
Li9 O25 2.060814 1_555
Li9 O42 2.136503 1_545
Li9 O5 2.141025 1_555
Li9 O30 2.205470 1_445
Li9 O22 2.210696 1_555
Li10 O26 2.054286 1_555
Li10 O18 2.063576 1_555
Li10 O6 2.134258 1_555
Li10 O43 2.144207 1_545
Li10 O23 2.192020 1_555
Li10 O46 2.218258 1_545
Li11 O0 2.084990 1_555
Li11 O27 2.085148 1_655
Li11 O19 2.085302 1_555
Li11 O31 2.086012 1_555
Li11 O44 2.111281 1_655
Li11 O2 2.111519 1_555
Li12 O42 2.034068 1_555
Li12 O5 2.039523 1_455
Li12 O25 2.174996 1_555
Li12 O17 2.182495 1_555
Li12 O30 2.184396 1_455
Li12 O22 2.195174 1_455
Li13 O32 2.054149 1_555
Li13 O27 2.061185 1_555
Li13 O10 2.135843 1_555
Li13 O2 2.144240 1_555
Li13 O31 2.184937 1_555
Li13 O9 2.226208 1_555
Li14 O33 2.054640 1_555
Li14 O28 2.063881 1_555
Li14 O39 2.130533 1_655
Li14 O3 2.144250 1_555
Li14 O47 2.195631 1_655
Li14 O11 2.212335 1_555
Li15 O11 2.058968 1_555
Li15 O47 2.061250 1_545
Li15 O3 2.125128 1_455
Li15 O39 2.144398 1_555
Li15 O33 2.166246 1_445
Li15 O28 2.206736 1_555
Li16 O13 2.053744 1_556
Li16 O12 2.062171 1_555
Li16 O7 2.132196 1_456
Li16 O40 2.143058 1_555
Li16 O34 2.180021 1_445
Li16 O35 2.228533 1_556
Li17 O34 2.060061 1_555
Li17 O35 2.061220 1_556
Li17 O40 2.123250 1_655
Li17 O7 2.146778 1_556
Li17 O13 2.155028 1_666
Li17 O12 2.218023 1_555
Li18 O36 2.061257 1_555
Li18 O0 2.063507 1_565
Li18 O8 2.133106 1_555
Li18 O44 2.137520 1_655
Li18 O19 2.186504 1_555
Li18 O14 2.224235 1_665
Li19 O14 2.057143 1_555
Li19 O19 2.059419 1_555
Li19 O44 2.131450 1_555
Li19 O8 2.144914 1_455
Li19 O36 2.162966 1_555
Li19 O0 2.214473 1_455
Li20 O20 2.059177 1_555
Li20 O15 2.061867 1_555
Li20 O45 2.123700 1_555
Li20 O37 2.147123 1_555
Li20 O38 2.168094 1_555
Li20 O16 2.206990 1_555
Li21 O47 2.083243 1_555
Li21 O20 2.083710 1_455
Li21 O28 2.085982 1_555
Li21 O16 2.086694 1_555
Li21 O3 2.110905 1_455
Li21 O45 2.111705 1_555
Li22 O29 2.057862 1_555
Li22 O21 2.060699 1_555
Li22 O4 2.126884 1_565
Li22 O1 2.140489 1_565
Li22 O41 2.147120 1_555
Li22 O24 2.239844 1_555
Li23 O30 2.056841 1_555
Li23 O22 2.058288 1_555
Li23 O5 2.135846 1_565
Li23 O42 2.139612 1_555
Li23 O25 2.170179 1_555
Li23 O17 2.176778 1_665
Li24 O6 2.036742 1_455
Li24 O43 2.040428 1_555
Li24 O23 2.173236 1_455
Li24 O18 2.173570 1_555
Li24 O26 2.182058 1_555
Li24 O46 2.192939 1_555
Li25 O23 2.058228 1_555
Li25 O46 2.061831 1_655
Li25 O43 2.124626 1_555
Li25 O6 2.151993 1_565
Li25 O26 2.165965 1_555
Li25 O18 2.208607 1_665
Li26 O13 2.068122 1_565
Li26 O29 2.069916 1_455
Li26 O35 2.114537 1_555
Li26 O7 2.116888 1_455
Li26 O24 2.118282 1_555
Li26 O4 2.121354 1_565
Li27 O10 2.036477 1_455
Li27 O2 2.041814 1_565
Li27 O27 2.166660 1_555
Li27 O31 2.177999 1_455
Li27 O32 2.178130 1_555
Li27 O9 2.197575 1_565
Li28 O36 2.077209 1_555
Li28 O25 2.078228 1_555
Li28 O30 2.101889 1_455
Li28 O14 2.105605 1_565
Li28 O8 2.114757 1_455
Li28 O5 2.119658 1_565
Li29 O39 2.034893 1_555
Li29 O3 2.041561 1_565
Li29 O28 2.170214 1_555
Li29 O33 2.176318 1_555
Li29 O47 2.176524 1_555
Li29 O11 2.194616 1_565
Li30 O26 2.068874 1_555
Li30 O38 2.069511 1_555
Li30 O46 2.114057 1_555
Li30 O37 2.115510 1_555
Li30 O15 2.117981 1_565
Li30 O6 2.122277 1_565
Li31 O38 2.058053 1_455
Li31 O16 2.064665 1_565
Li31 O37 2.131958 1_555
Li31 O45 2.139962 1_555
Li31 O20 2.191992 1_455
Li31 O15 2.219087 1_565
Mn0 O29 1.924369 1_545
Mn0 O13 1.924461 1_655
Mn0 O7 1.944356 1_555
Mn0 O4 1.945589 1_555
Mn0 O35 1.946708 1_545
Mn0 O24 1.949008 1_655
Mn1 O0 1.933967 1_455
Mn1 O27 1.934431 1_555
Mn1 O31 1.945418 1_445
Mn1 O19 1.945428 1_555
Mn1 O44 1.947618 1_545
Mn1 O2 1.948492 1_555
Mn2 O28 1.934132 1_555
Mn2 O16 1.934512 1_555
Mn2 O47 1.944649 1_545
Mn2 O20 1.945170 1_555
Mn2 O45 1.947804 1_545
Mn2 O3 1.947960 1_555
Mn3 O36 1.925443 1_555
Mn3 O25 1.925781 1_555
Mn3 O5 1.944523 1_555
Mn3 O30 1.944833 1_555
Mn3 O8 1.945399 1_555
Mn3 O14 1.945540 1_555
Mn4 O38 1.924105 1_555
Mn4 O26 1.924698 1_555
Mn4 O37 1.945030 1_655
Mn4 O6 1.945047 1_555
Mn4 O15 1.947124 1_555
Mn4 O46 1.948033 1_655
Mn5 O32 1.923980 1_555
Mn5 O1 1.925280 1_565
Mn5 O10 1.943577 1_555
Mn5 O9 1.945608 1_665
Mn5 O41 1.946128 1_655
Mn5 O21 1.947905 1_555
Mn6 O12 1.933213 1_555
Mn6 O23 1.934405 1_555
Mn6 O34 1.945081 1_555
Mn6 O18 1.947514 1_555
Mn6 O40 1.947569 1_555
Mn6 O43 1.949069 1_555
Mn7 O19 1.933378 1_555
Mn7 O31 1.934459 1_555
Mn7 O0 1.946511 1_565
Mn7 O27 1.948123 1_555
Mn7 O44 1.948322 1_555
Mn7 O2 1.948760 1_565
Mn8 O47 1.933482 1_655
Mn8 O20 1.933570 1_555
Mn8 O16 1.947342 1_665
Mn8 O28 1.947762 1_555
Mn8 O3 1.948487 1_565
Mn8 O45 1.949321 1_555
Mn9 O17 1.923864 1_565
Mn9 O33 1.924847 1_455
Mn9 O39 1.945063 1_555
Mn9 O42 1.945153 1_555
Mn9 O22 1.946139 1_455
Mn9 O11 1.947070 1_565
Mn10 O18 1.933301 1_565
Mn10 O34 1.934715 1_455
Mn10 O23 1.944649 1_455
Mn10 O12 1.947155 1_565
Mn10 O43 1.947402 1_555
Mn10 O40 1.949012 1_555
Cr0 O14 1.904512 1_655
Cr0 O30 1.905333 1_545
Cr0 O5 1.969386 1_555
Cr0 O8 1.970510 1_555
Cr0 O36 1.974548 1_545
Cr0 O25 1.976312 1_655
Cr1 O35 1.899666 1_555
Cr1 O24 1.900636 1_555
Cr1 O4 1.968977 1_555
Cr1 O7 1.972006 1_555
Cr1 O13 1.979124 1_555
Cr1 O29 1.979567 1_555
Cr2 O46 1.901198 1_545
Cr2 O15 1.901235 1_555
Cr2 O6 1.969432 1_455
Cr2 O37 1.971382 1_555
Cr2 O38 1.978930 1_445
Cr2 O26 1.979145 1_555
Cr3 O9 1.901528 1_555
Cr3 O21 1.901994 1_555
Cr3 O41 1.969377 1_555
Cr3 O10 1.970103 1_455
Cr3 O1 1.976272 1_455
Cr3 O32 1.977347 1_555
Cr4 O11 1.900876 1_555
Cr4 O22 1.900961 1_555
Cr4 O42 1.968867 1_555
Cr4 O39 1.971768 1_555
Cr4 O33 1.977956 1_555
Cr4 O17 1.980295 1_555
