# generated using pymatgen
data_Li3V3P8O29
_symmetry_space_group_name_H-M   'P 1'
_cell_length_a   9.77776400
_cell_length_b   9.78890007
_cell_length_c   14.10947925
_cell_angle_alpha   89.66218410
_cell_angle_beta   89.69419997
_cell_angle_gamma   60.10567591
_symmetry_Int_Tables_number   1
_chemical_formula_structural   Li3V3P8O29
_chemical_formula_sum   'Li6 V6 P16 O58'
_cell_volume   1170.75852942
_cell_formula_units_Z   2
loop_
 _symmetry_equiv_pos_site_id
 _symmetry_equiv_pos_as_xyz
  1  'x, y, z'
loop_
 _atom_site_type_symbol
 _atom_site_label
 _atom_site_symmetry_multiplicity
 _atom_site_fract_x
 _atom_site_fract_y
 _atom_site_fract_z
 _atom_site_occupancy
  Li  Li0  1  0.08691500  0.68907400  0.05502400  1
  Li  Li1  1  0.22525500  0.08516700  0.05518600  1
  Li  Li2  1  0.30701600  0.91301800  0.44797900  1
  Li  Li3  1  0.68477700  0.08693300  0.56354800  1
  Li  Li4  1  0.77418200  0.31827400  0.44540100  1
  Li  Li5  1  0.90512000  0.31951000  0.93840700  1
  V  V0  1  0.00384400  0.43375600  0.74191000  1
  V  V1  1  0.42948100  0.56905600  0.75120400  1
  V  V2  1  0.43844800  0.99871200  0.24897700  1
  V  V3  1  0.57076800  0.99481400  0.75686400  1
  V  V4  1  0.56322000  0.43210800  0.24340800  1
  V  V5  1  0.99706000  0.57046900  0.25764500  1
  P  P0  1  0.08546600  0.68151000  0.84068600  1
  P  P1  1  0.23324400  0.68328500  0.34281300  1
  P  P2  1  0.08790700  0.22779200  0.34110500  1
  P  P3  1  0.34152600  0.32978100  0.62957800  1
  P  P4  1  0.32674000  0.33556700  0.12968800  1
  P  P5  1  0.22737600  0.09098600  0.84049100  1
  P  P6  1  0.31995400  0.91215700  0.66051600  1
  P  P7  1  0.68319400  0.23043200  0.84163800  1
  P  P8  1  0.31489200  0.77132800  0.15758900  1
  P  P9  1  0.68271600  0.08898200  0.34167800  1
  P  P10  1  0.77436000  0.91413600  0.15763700  1
  P  P11  1  0.66934400  0.65921700  0.87027500  1
  P  P12  1  0.66238400  0.66446800  0.37021900  1
  P  P13  1  0.91417200  0.77380300  0.65706300  1
  P  P14  1  0.76705100  0.31985200  0.65897800  1
  P  P15  1  0.91434900  0.32112000  0.15876800  1
  O  O0  1  0.00036100  0.76421500  0.56931700  1
  O  O1  1  0.08964100  0.65599100  0.33491500  1
  O  O2  1  0.21082800  0.79232200  0.25086800  1
  O  O3  1  0.23497600  0.76007100  0.07200100  1
  O  O4  1  0.09367100  0.52160900  0.81904700  1
  O  O5  1  0.25442700  0.65741100  0.83189200  1
  O  O6  1  0.18103200  0.48571500  0.17160900  1
  O  O7  1  0.09621000  0.38183700  0.32393700  1
  O  O8  1  0.99726300  0.24830000  0.06791100  1
  O  O9  1  0.08092500  0.25874600  0.83593100  1
  O  O10  1  0.34044800  0.47635400  0.67583100  1
  O  O11  1  0.18767600  0.33368100  0.67291500  1
  O  O12  1  0.38527700  0.52306700  0.32159800  1
  O  O13  1  0.34045600  0.33189600  0.52440500  1
  O  O14  1  0.32876100  0.33266500  0.02475700  1
  O  O15  1  0.52390700  0.38350400  0.82537900  1
  O  O16  1  0.32792500  0.18329800  0.17158600  1
  O  O17  1  0.47755500  0.33508200  0.17418200  1
  O  O18  1  0.25668600  0.08235100  0.33977900  1
  O  O19  1  0.20790900  0.00315600  0.75015300  1
  O  O20  1  0.23750000  0.00971300  0.93155000  1
  O  O21  1  0.24836800  0.99290100  0.57002700  1
  O  O22  1  0.38092100  0.09929200  0.82166500  1
  O  O23  1  0.49015400  0.17906800  0.66971100  1
  O  O24  1  0.66138200  0.25714000  0.33447600  1
  O  O25  1  0.33863400  0.91723700  0.16035300  1
  O  O26  1  0.52075600  0.09803600  0.31857700  1
  O  O27  1  0.24246400  0.76223300  0.42893100  1
  O  O28  1  0.75857300  0.24360100  0.56884200  1
  O  O29  1  0.47903200  0.90597000  0.68104500  1
  O  O30  1  0.65566700  0.08735500  0.83576900  1
  O  O31  1  0.78759100  0.20586500  0.74615000  1
  O  O32  1  0.34425500  0.74370200  0.66868600  1
  O  O33  1  0.51267900  0.81623900  0.32748900  1
  O  O34  1  0.61919100  0.90498100  0.17983800  1
  O  O35  1  0.76017600  0.00170800  0.07026900  1
  O  O36  1  0.74472400  0.01323300  0.43446200  1
  O  O37  1  0.79430600  0.99480600  0.25380700  1
  O  O38  1  0.74332200  0.91816700  0.66319000  1
  O  O39  1  0.52190200  0.66070700  0.82537900  1
  O  O40  1  0.47782100  0.61845300  0.17601300  1
  O  O41  1  0.66623300  0.81266300  0.82648500  1
  O  O42  1  0.66248400  0.66823500  0.47516900  1
  O  O43  1  0.66765800  0.66194100  0.97545900  1
  O  O44  1  0.61610600  0.47850800  0.67597400  1
  O  O45  1  0.81280300  0.66609700  0.32569700  1
  O  O46  1  0.66661400  0.51414000  0.32961500  1
  O  O47  1  0.91862700  0.74370300  0.16385800  1
  O  O48  1  0.99207000  0.79474200  0.75321100  1
  O  O49  1  0.00798900  0.74862500  0.93262300  1
  O  O50  1  0.90459500  0.61916200  0.67633100  1
  O  O51  1  0.81997500  0.51170000  0.82954900  1
  O  O52  1  0.74579900  0.34452000  0.16653700  1
  O  O53  1  0.90716300  0.47932700  0.17964400  1
  O  O54  1  0.76997600  0.23549600  0.92582900  1
  O  O55  1  0.91236900  0.34304900  0.66464300  1
  O  O56  1  0.99247400  0.23883800  0.42537100  1
  O  O57  1  0.00960800  0.20523300  0.24534700  1
loop_
_geom_bond_atom_site_label_1
_geom_bond_atom_site_label_2
_geom_bond_distance
_geom_bond_site_symmetry_2
Li0 O49 1.863297 1_554
Li0 O3 1.909138 1_555
Li0 O47 2.111209 1_455
Li0 O6 2.380537 1_555
Li1 O20 1.878235 1_554
Li1 O8 2.000619 1_455
Li1 O25 2.074921 1_545
Li1 O16 2.371763 1_555
Li2 O21 1.861201 1_555
Li2 O27 1.893246 1_555
Li2 O18 2.117894 1_565
Li2 O33 2.432077 1_555
Li3 O36 1.940075 1_555
Li3 O28 1.995785 1_555
Li3 O38 2.017916 1_545
Li3 O23 2.225570 1_555
Li4 O56 1.892611 1_555
Li4 O28 1.919489 1_555
Li4 O24 2.170598 1_555
Li4 O46 2.328626 1_555
Li5 O54 1.881871 1_555
Li5 O8 2.003232 1_556
Li5 O9 2.088942 1_655
Li5 O51 2.238281 1_555
O0 P13 1.470772 1_455
O1 P1 1.559268 1_555
O1 V5 1.866984 1_455
O2 P8 1.609407 1_555
O2 P1 1.619806 1_555
O3 P8 1.475975 1_555
O4 P0 1.558806 1_555
O4 V0 1.862710 1_555
O5 P0 1.552426 1_555
O5 V1 1.867888 1_555
O6 P4 1.566472 1_555
O6 V5 1.974505 1_455
O7 P2 1.567366 1_555
O7 V5 1.851814 1_455
O8 P15 1.494119 1_555
O9 P5 1.551495 1_555
O9 V0 1.989874 1_555
O10 P3 1.574965 1_555
O10 V1 1.876433 1_555
O11 P3 1.603590 1_555
O11 V0 1.837273 1_555
O12 P1 1.560757 1_555
O12 V4 1.866536 1_555
O13 P3 1.483979 1_555
O14 P4 1.480799 1_555
O15 P7 1.548244 1_555
O15 V1 1.887629 1_555
O16 P4 1.594929 1_555
O16 V2 1.915196 1_545
O17 P4 1.603606 1_555
O17 V4 1.835858 1_555
O18 P2 1.551998 1_555
O18 V2 2.001972 1_545
O19 P5 1.605838 1_555
O19 P6 1.618327 1_545
O20 P5 1.484667 1_555
O21 P6 1.480177 1_555
O22 P5 1.564709 1_555
O22 V3 1.851543 1_545
O23 P3 1.571915 1_555
O23 V3 1.988369 1_545
O24 P9 1.555444 1_555
O24 V4 1.963240 1_555
O25 P8 1.557781 1_555
O25 V2 1.988178 1_555
O26 P9 1.577076 1_555
O26 V2 1.832220 1_545
O27 P1 1.470877 1_555
O28 P14 1.501800 1_555
O29 P6 1.554870 1_555
O29 V3 1.871929 1_555
O30 P7 1.555073 1_555
O30 V3 1.876302 1_545
O31 P14 1.600381 1_555
O31 P7 1.630775 1_555
O32 P6 1.548031 1_555
O32 V1 1.881354 1_555
O33 P12 1.595140 1_555
O33 V2 1.907205 1_555
O34 P10 1.593172 1_555
O34 V2 1.814532 1_555
O35 P10 1.464422 1_545
O36 P9 1.476531 1_555
O37 P9 1.604335 1_565
O37 P10 1.634561 1_555
O38 P13 1.562655 1_555
O38 V3 1.970399 1_555
O39 P11 1.571154 1_555
O39 V1 1.883122 1_555
O40 P8 1.571105 1_555
O40 V4 1.843527 1_555
O41 P11 1.607043 1_555
O41 V3 1.829105 1_555
O42 P12 1.481484 1_555
O43 P11 1.484344 1_555
O44 P14 1.537394 1_555
O44 V1 1.902711 1_555
O45 P12 1.603560 1_555
O45 V5 1.831691 1_555
O46 P12 1.563456 1_555
O46 V4 1.995040 1_555
O47 P10 1.560335 1_555
O47 V5 1.975576 1_555
O48 P0 1.603985 1_655
O48 P13 1.622479 1_555
O49 P0 1.480421 1_555
O50 P13 1.584404 1_555
O50 V0 1.823728 1_655
O51 P11 1.570155 1_555
O51 V0 1.990836 1_655
O52 P15 1.550032 1_555
O52 V4 1.887605 1_555
O53 P15 1.544919 1_555
O53 V5 1.892999 1_555
O54 P7 1.478829 1_555
O55 P14 1.549163 1_555
O55 V0 1.894831 1_655
O56 P2 1.478211 1_655
O57 P15 1.609119 1_455
O57 P2 1.625864 1_555
