# generated using pymatgen
data_Na3CuO2
_symmetry_space_group_name_H-M   'P 1'
_cell_length_a   7.86753100
_cell_length_b   7.86753100
_cell_length_c   11.58227400
_cell_angle_alpha   90.00000000
_cell_angle_beta   90.00000000
_cell_angle_gamma   90.00000000
_symmetry_Int_Tables_number   1
_chemical_formula_structural   Na3CuO2
_chemical_formula_sum   'Na24 Cu8 O16'
_cell_volume   716.92010609
_cell_formula_units_Z   8
loop_
 _symmetry_equiv_pos_site_id
 _symmetry_equiv_pos_as_xyz
  1  'x, y, z'
loop_
 _atom_site_type_symbol
 _atom_site_label
 _atom_site_symmetry_multiplicity
 _atom_site_fract_x
 _atom_site_fract_y
 _atom_site_fract_z
 _atom_site_occupancy
  Na  Na0  1  0.01516200  0.98483800  0.75000000  1
  Na  Na1  1  0.02629800  0.55494500  0.74839600  1
  Na  Na2  1  0.04779800  0.04779800  0.50000000  1
  Na  Na3  1  0.05494500  0.47370200  0.49839600  1
  Na  Na4  1  0.15079500  0.26466400  0.89534400  1
  Na  Na5  1  0.23533600  0.65079500  0.14534400  1
  Na  Na6  1  0.26466400  0.15079500  0.10465600  1
  Na  Na7  1  0.34920500  0.76466400  0.35465600  1
  Na  Na8  1  0.44505500  0.97370200  0.75160400  1
  Na  Na9  1  0.45220200  0.54779800  0.75000000  1
  Na  Na10  1  0.47370200  0.05494500  0.50160400  1
  Na  Na11  1  0.48483800  0.48483800  0.50000000  1
  Na  Na12  1  0.51516200  0.51516200  0.00000000  1
  Na  Na13  1  0.52629800  0.94505500  0.00160400  1
  Na  Na14  1  0.54779800  0.45220200  0.25000000  1
  Na  Na15  1  0.55494500  0.02629800  0.25160400  1
  Na  Na16  1  0.65079500  0.23533600  0.85465600  1
  Na  Na17  1  0.73533600  0.84920500  0.60465600  1
  Na  Na18  1  0.76466400  0.34920500  0.64534400  1
  Na  Na19  1  0.84920500  0.73533600  0.39534400  1
  Na  Na20  1  0.94505500  0.52629800  0.99839600  1
  Na  Na21  1  0.95220200  0.95220200  0.00000000  1
  Na  Na22  1  0.97370200  0.44505500  0.24839600  1
  Na  Na23  1  0.98483800  0.01516200  0.25000000  1
  Cu  Cu0  1  0.23556300  0.76434300  0.59133100  1
  Cu  Cu1  1  0.23565700  0.76443700  0.90866900  1
  Cu  Cu2  1  0.26434300  0.26443700  0.34133100  1
  Cu  Cu3  1  0.26443700  0.26434300  0.65866900  1
  Cu  Cu4  1  0.73556300  0.73565700  0.15866900  1
  Cu  Cu5  1  0.73565700  0.73556300  0.84133100  1
  Cu  Cu6  1  0.76434300  0.23556300  0.40866900  1
  Cu  Cu7  1  0.76443700  0.23565700  0.09133100  1
  O  O0  1  0.00601300  0.76145500  0.58829600  1
  O  O1  1  0.03472100  0.26600900  0.66600100  1
  O  O2  1  0.23399100  0.53472100  0.91600100  1
  O  O3  1  0.23854500  0.99398700  0.91170400  1
  O  O4  1  0.26145500  0.49398700  0.33829600  1
  O  O5  1  0.26600900  0.03472100  0.33399900  1
  O  O6  1  0.46527900  0.76600900  0.58399900  1
  O  O7  1  0.49398700  0.26145500  0.66170400  1
  O  O8  1  0.50601300  0.73854500  0.16170400  1
  O  O9  1  0.53472100  0.23399100  0.08399900  1
  O  O10  1  0.73399100  0.96527900  0.83399900  1
  O  O11  1  0.73854500  0.50601300  0.83829600  1
  O  O12  1  0.76145500  0.00601300  0.41170400  1
  O  O13  1  0.76600900  0.46527900  0.41600100  1
  O  O14  1  0.96527900  0.73399100  0.16600100  1
  O  O15  1  0.99398700  0.23854500  0.08829600  1
loop_
_geom_bond_atom_site_label_1
_geom_bond_atom_site_label_2
_geom_bond_distance
_geom_bond_site_symmetry_2
Na0 O10 2.421507 1_455
Na0 O1 2.421507 1_565
Na0 O3 2.569367 1_555
Na0 O0 2.569367 1_555
Na1 O1 2.466296 1_555
Na1 O0 2.470568 1_555
Na1 O11 2.521442 1_455
Na1 O2 2.542403 1_555
Na2 O0 2.495814 1_545
Na2 O12 2.495814 1_455
Na2 O1 2.579647 1_555
Na2 O5 2.579647 1_555
Na3 O13 2.466296 1_455
Na3 O4 2.470568 1_555
Na3 O0 2.521442 1_555
Na3 O1 2.542403 1_555
Na4 O2 2.236056 1_555
Na4 O3 2.246675 1_545
Na4 O15 2.560987 1_456
Na4 O1 2.808928 1_555
Na5 O14 2.236056 1_455
Na5 O8 2.246675 1_555
Na5 O4 2.560987 1_555
Na5 O2 2.808928 1_554
Na6 O9 2.236056 1_555
Na6 O15 2.246675 1_455
Na6 O3 2.560987 1_544
Na6 O5 2.808928 1_555
Na7 O5 2.236056 1_565
Na7 O4 2.246675 1_555
Na7 O8 2.560987 1_555
Na7 O6 2.808928 1_555
Na8 O10 2.466296 1_555
Na8 O3 2.470568 1_555
Na8 O7 2.521442 1_565
Na8 O6 2.542403 1_555
Na9 O11 2.495814 1_555
Na9 O7 2.495814 1_555
Na9 O6 2.579647 1_555
Na9 O2 2.579647 1_555
Na10 O6 2.466296 1_545
Na10 O7 2.470568 1_555
Na10 O12 2.521442 1_555
Na10 O5 2.542403 1_555
Na11 O6 2.421507 1_555
Na11 O13 2.421507 1_555
Na11 O7 2.569367 1_555
Na11 O4 2.569367 1_555
Na12 O9 2.421507 1_555
Na12 O2 2.421507 1_554
Na12 O8 2.569367 1_555
Na12 O11 2.569367 1_554
Na13 O9 2.466296 1_565
Na13 O8 2.470568 1_555
Na13 O3 2.521442 1_554
Na13 O10 2.542403 1_554
Na14 O4 2.495814 1_555
Na14 O8 2.495814 1_555
Na14 O13 2.579647 1_555
Na14 O9 2.579647 1_555
Na15 O5 2.466296 1_555
Na15 O12 2.470568 1_555
Na15 O8 2.521442 1_545
Na15 O9 2.542403 1_555
Na16 O10 2.236056 1_545
Na16 O11 2.246675 1_555
Na16 O7 2.560987 1_555
Na16 O9 2.808928 1_556
Na17 O6 2.236056 1_555
Na17 O0 2.246675 1_655
Na17 O12 2.560987 1_565
Na17 O10 2.808928 1_555
Na18 O1 2.236056 1_655
Na18 O7 2.246675 1_555
Na18 O11 2.560987 1_555
Na18 O13 2.808928 1_555
Na19 O13 2.236056 1_555
Na19 O12 2.246675 1_565
Na19 O0 2.560987 1_655
Na19 O14 2.808928 1_555
Na20 O2 2.466296 1_655
Na20 O11 2.470568 1_555
Na20 O15 2.521442 1_556
Na20 O14 2.542403 1_556
Na21 O15 2.495814 1_565
Na21 O3 2.495814 1_654
Na21 O14 2.579647 1_555
Na21 O10 2.579647 1_554
Na22 O14 2.466296 1_555
Na22 O15 2.470568 1_555
Na22 O4 2.521442 1_655
Na22 O13 2.542403 1_555
Na23 O5 2.421507 1_655
Na23 O14 2.421507 1_545
Na23 O12 2.569367 1_555
Na23 O15 2.569367 1_555
Cu0 O0 1.806477 1_555
Cu0 O6 1.809339 1_555
Cu1 O3 1.806477 1_555
Cu1 O2 1.809339 1_555
Cu2 O4 1.806477 1_555
Cu2 O5 1.809339 1_555
Cu3 O7 1.806477 1_555
Cu3 O1 1.809339 1_555
Cu4 O8 1.806477 1_555
Cu4 O14 1.809339 1_555
Cu5 O11 1.806477 1_555
Cu5 O10 1.809339 1_555
Cu6 O12 1.806477 1_555
Cu6 O13 1.809339 1_555
Cu7 O15 1.806477 1_555
Cu7 O9 1.809339 1_555
