# generated using pymatgen
data_MnNb4O12
_symmetry_space_group_name_H-M   'P 1'
_cell_length_a   7.68108031
_cell_length_b   9.08301280
_cell_length_c   14.30221999
_cell_angle_alpha   77.90636676
_cell_angle_beta   98.73450423
_cell_angle_gamma   112.61364216
_symmetry_Int_Tables_number   1
_chemical_formula_structural   MnNb4O12
_chemical_formula_sum   'Mn4 Nb16 O48'
_cell_volume   897.85693090
_cell_formula_units_Z   4
loop_
 _symmetry_equiv_pos_site_id
 _symmetry_equiv_pos_as_xyz
  1  'x, y, z'
loop_
 _atom_site_type_symbol
 _atom_site_label
 _atom_site_symmetry_multiplicity
 _atom_site_fract_x
 _atom_site_fract_y
 _atom_site_fract_z
 _atom_site_occupancy
  Mn  Mn0  1  0.94977800  0.31699800  0.97637000  1
  Mn  Mn1  1  0.44973300  0.06695700  0.22648200  1
  Mn  Mn2  1  0.44966200  0.56692600  0.72640000  1
  Mn  Mn3  1  0.94974100  0.81690700  0.47632900  1
  Nb  Nb0  1  0.99984000  0.98740700  0.98996700  1
  Nb  Nb1  1  0.49979600  0.23751800  0.73997200  1
  Nb  Nb2  1  0.49974100  0.73752100  0.23997200  1
  Nb  Nb3  1  0.99983400  0.48736000  0.48998500  1
  Nb  Nb4  1  0.23607200  0.63898000  0.87291200  1
  Nb  Nb5  1  0.73609700  0.88888500  0.62298700  1
  Nb  Nb6  1  0.73605300  0.38888300  0.12298700  1
  Nb  Nb7  1  0.23603000  0.13895700  0.37293100  1
  Nb  Nb8  1  0.24686900  0.36973500  0.12895600  1
  Nb  Nb9  1  0.74703200  0.61986700  0.87896400  1
  Nb  Nb10  1  0.74705000  0.11982800  0.37899400  1
  Nb  Nb11  1  0.24684200  0.86974200  0.62894500  1
  Nb  Nb12  1  0.50936600  0.00798600  0.99313200  1
  Nb  Nb13  1  0.00922000  0.25784100  0.74322000  1
  Nb  Nb14  1  0.00922800  0.75788000  0.24318200  1
  Nb  Nb15  1  0.50934600  0.50797900  0.49311700  1
  O  O0  1  0.71803800  0.69170700  0.72305300  1
  O  O1  1  0.21833100  0.94176600  0.47293300  1
  O  O2  1  0.21835000  0.44178200  0.97293900  1
  O  O3  1  0.71808300  0.19174300  0.22305500  1
  O  O4  1  0.90079200  0.83083600  0.89344500  1
  O  O5  1  0.40096200  0.08037600  0.64384300  1
  O  O6  1  0.40097000  0.58039000  0.14384600  1
  O  O7  1  0.90073200  0.33080200  0.39346400  1
  O  O8  1  0.25201800  0.05997400  0.97342500  1
  O  O9  1  0.75183800  0.30956000  0.72322800  1
  O  O10  1  0.75180700  0.80956600  0.22326600  1
  O  O11  1  0.25203700  0.55998700  0.47344700  1
  O  O12  1  0.93707700  0.51895900  0.88663000  1
  O  O13  1  0.43693700  0.76879000  0.63688800  1
  O  O14  1  0.43703500  0.26880700  0.13690200  1
  O  O15  1  0.93709800  0.01892200  0.38664800  1
  O  O16  1  0.50158100  0.08867700  0.85084700  1
  O  O17  1  0.00127600  0.33846400  0.60087700  1
  O  O18  1  0.00125200  0.83847500  0.10086900  1
  O  O19  1  0.50158500  0.58867900  0.35083800  1
  O  O20  1  0.31083900  0.78437600  0.95407000  1
  O  O21  1  0.81110600  0.03415800  0.70419400  1
  O  O22  1  0.81111000  0.53416400  0.20419000  1
  O  O23  1  0.31084900  0.28436000  0.45407700  1
  O  O24  1  0.69182300  0.22834700  0.00904200  1
  O  O25  1  0.19129100  0.47823600  0.75891000  1
  O  O26  1  0.19131500  0.97824200  0.25893000  1
  O  O27  1  0.69180800  0.72833300  0.50903500  1
  O  O28  1  0.44992300  0.94435500  0.13371300  1
  O  O29  1  0.94959400  0.19320600  0.88390500  1
  O  O30  1  0.94954800  0.69316100  0.38388100  1
  O  O31  1  0.44990400  0.44427300  0.63368800  1
  O  O32  1  0.98894100  0.42332600  0.08931700  1
  O  O33  1  0.48857300  0.67296100  0.83902600  1
  O  O34  1  0.48862500  0.17296500  0.33908900  1
  O  O35  1  0.98890000  0.92327600  0.58928000  1
  O  O36  1  0.69388900  0.92625800  0.99956600  1
  O  O37  1  0.19359100  0.17613400  0.74915000  1
  O  O38  1  0.19363000  0.67616400  0.24917000  1
  O  O39  1  0.69388700  0.42625800  0.49957000  1
  O  O40  1  0.02782600  0.16856300  0.06595600  1
  O  O41  1  0.52832100  0.41852900  0.81607600  1
  O  O42  1  0.52842500  0.91859700  0.31616800  1
  O  O43  1  0.02780900  0.66852900  0.56594700  1
  O  O44  1  0.17457600  0.27985100  0.25387100  1
  O  O45  1  0.67499200  0.53022100  0.00395800  1
  O  O46  1  0.67498000  0.03021500  0.50398200  1
  O  O47  1  0.17460000  0.77983200  0.75388300  1
loop_
_geom_bond_atom_site_label_1
_geom_bond_atom_site_label_2
_geom_bond_distance
_geom_bond_site_symmetry_2
Mn0 O40 1.866348 1_656
Mn0 O29 1.906425 1_555
Mn0 O24 1.920719 1_556
Mn0 O2 1.937014 1_655
Mn0 O32 1.978744 1_556
Mn0 O12 2.033460 1_555
Mn1 O42 1.869017 1_545
Mn1 O28 1.903011 1_545
Mn1 O26 1.922933 1_545
Mn1 O3 1.935574 1_555
Mn1 O34 1.972976 1_555
Mn1 O14 2.031664 1_555
Mn2 O41 1.869057 1_555
Mn2 O31 1.902814 1_555
Mn2 O25 1.922887 1_555
Mn2 O0 1.935662 1_555
Mn2 O33 1.973343 1_555
Mn2 O13 2.031404 1_555
Mn3 O43 1.866283 1_655
Mn3 O30 1.905896 1_555
Mn3 O27 1.920737 1_555
Mn3 O1 1.937214 1_655
Mn3 O35 1.979024 1_555
Mn3 O15 2.033347 1_565
Nb0 O8 1.826030 1_665
Nb0 O18 1.858196 1_656
Nb0 O4 2.044163 1_555
Nb0 O40 2.083557 1_666
Nb0 O36 2.216361 1_555
Nb0 O29 2.265622 1_565
Nb1 O9 1.826030 1_555
Nb1 O16 1.857919 1_555
Nb1 O5 2.043475 1_555
Nb1 O41 2.082376 1_555
Nb1 O37 2.216880 1_555
Nb1 O31 2.272586 1_555
Nb2 O10 1.826084 1_555
Nb2 O19 1.857906 1_555
Nb2 O6 2.043372 1_555
Nb2 O42 2.083429 1_555
Nb2 O38 2.216267 1_555
Nb2 O28 2.272738 1_555
Nb3 O11 1.826158 1_655
Nb3 O17 1.857952 1_655
Nb3 O7 2.044071 1_555
Nb3 O43 2.083422 1_655
Nb3 O39 2.216370 1_555
Nb3 O30 2.266037 1_555
Nb4 O20 1.810473 1_555
Nb4 O33 1.963204 1_555
Nb4 O47 2.016339 1_555
Nb4 O2 2.017752 1_555
Nb4 O12 2.150154 1_455
Nb4 O25 2.312891 1_555
Nb5 O21 1.810055 1_565
Nb5 O35 1.963494 1_555
Nb5 O0 2.017492 1_555
Nb5 O46 2.017534 1_565
Nb5 O13 2.151717 1_555
Nb5 O27 2.311812 1_555
Nb6 O22 1.810045 1_555
Nb6 O32 1.963804 1_555
Nb6 O3 2.017374 1_555
Nb6 O45 2.017656 1_555
Nb6 O14 2.150766 1_555
Nb6 O24 2.311717 1_555
Nb7 O23 1.810368 1_555
Nb7 O34 1.963605 1_555
Nb7 O44 2.016799 1_555
Nb7 O1 2.017546 1_545
Nb7 O15 2.149733 1_455
Nb7 O26 2.312791 1_545
Nb8 O6 1.860087 1_555
Nb8 O44 1.873012 1_555
Nb8 O14 1.980555 1_555
Nb8 O32 2.183630 1_455
Nb8 O2 2.192088 1_554
Nb8 O40 2.201519 1_555
Nb9 O4 1.860452 1_555
Nb9 O45 1.873243 1_556
Nb9 O12 1.980189 1_555
Nb9 O33 2.185514 1_555
Nb9 O0 2.190653 1_555
Nb9 O41 2.200734 1_555
Nb10 O7 1.860320 1_555
Nb10 O46 1.873192 1_555
Nb10 O15 1.980223 1_555
Nb10 O34 2.185430 1_555
Nb10 O3 2.191101 1_555
Nb10 O42 2.199462 1_545
Nb11 O5 1.859992 1_565
Nb11 O47 1.873232 1_555
Nb11 O13 1.980227 1_555
Nb11 O35 2.183492 1_455
Nb11 O1 2.191991 1_555
Nb11 O43 2.201707 1_555
Nb12 O36 1.819139 1_545
Nb12 O24 1.989684 1_556
Nb12 O16 2.013385 1_555
Nb12 O28 2.043050 1_546
Nb12 O20 2.144185 1_545
Nb12 O8 2.168560 1_555
Nb13 O37 1.819040 1_555
Nb13 O25 1.988345 1_555
Nb13 O17 2.014076 1_555
Nb13 O29 2.044780 1_455
Nb13 O21 2.143515 1_455
Nb13 O9 2.167278 1_455
Nb14 O38 1.819188 1_555
Nb14 O26 1.988335 1_555
Nb14 O18 2.013639 1_555
Nb14 O30 2.045078 1_455
Nb14 O22 2.143572 1_455
Nb14 O10 2.167465 1_455
Nb15 O39 1.819181 1_555
Nb15 O27 1.989672 1_555
Nb15 O19 2.013316 1_555
Nb15 O31 2.042905 1_555
Nb15 O23 2.144063 1_555
Nb15 O11 2.168395 1_555
