# generated using pymatgen
data_Li4FeO3F
_symmetry_space_group_name_H-M   'P 1'
_cell_length_a   5.17214900
_cell_length_b   5.21955280
_cell_length_c   8.07242224
_cell_angle_alpha   71.25930733
_cell_angle_beta   82.89881489
_cell_angle_gamma   69.88323606
_symmetry_Int_Tables_number   1
_chemical_formula_structural   Li4FeO3F
_chemical_formula_sum   'Li8 Fe2 O6 F2'
_cell_volume   193.76058945
_cell_formula_units_Z   2
loop_
 _symmetry_equiv_pos_site_id
 _symmetry_equiv_pos_as_xyz
  1  'x, y, z'
loop_
 _atom_site_type_symbol
 _atom_site_label
 _atom_site_symmetry_multiplicity
 _atom_site_fract_x
 _atom_site_fract_y
 _atom_site_fract_z
 _atom_site_occupancy
  Li  Li0  1  0.21518300  0.82937200  0.27024700  1
  Li  Li1  1  0.75630800  0.96000800  0.05403100  1
  Li  Li2  1  0.75484900  0.50132800  0.92116900  1
  Li  Li3  1  0.76758800  0.73788200  0.49452900  1
  Li  Li4  1  0.23241200  0.26211800  0.50547100  1
  Li  Li5  1  0.24515100  0.49867200  0.07883100  1
  Li  Li6  1  0.24369200  0.03999200  0.94596900  1
  Li  Li7  1  0.78481700  0.17062800  0.72975300  1
  Fe  Fe0  1  0.21806400  0.59705500  0.73984600  1
  Fe  Fe1  1  0.78193600  0.40294500  0.26015400  1
  O  O0  1  0.99029700  0.43124200  0.68311100  1
  O  O1  1  0.49225200  0.30790000  0.88595300  1
  O  O2  1  0.01715300  0.81853700  0.87932400  1
  O  O3  1  0.98284700  0.18146300  0.12067600  1
  O  O4  1  0.50774800  0.69210000  0.11404700  1
  O  O5  1  0.00970300  0.56875800  0.31688900  1
  F  F0  1  0.34266800  0.83240300  0.50878700  1
  F  F1  1  0.65733200  0.16759700  0.49121300  1
loop_
_geom_bond_atom_site_label_1
_geom_bond_atom_site_label_2
_geom_bond_distance
_geom_bond_site_symmetry_2
Li0 O5 1.920425 1_555
Li0 O3 1.921726 1_465
Li0 O4 1.938043 1_555
Li1 O2 1.966685 1_654
Li1 O1 2.042683 1_564
Li1 O3 2.117888 1_565
Li1 O4 2.118996 1_555
Li1 O5 2.540202 1_655
Li2 O3 2.039426 1_556
Li2 O1 2.041549 1_555
Li2 O4 2.162862 1_556
Li2 O0 2.208264 1_555
Li2 O2 2.401752 1_655
Li3 O0 1.950823 1_555
Li3 O5 2.003181 1_655
Li4 O5 1.950823 1_555
Li4 O0 2.003181 1_455
Li5 O2 2.039426 1_554
Li5 O4 2.041549 1_555
Li5 O1 2.162862 1_554
Li5 O5 2.208264 1_555
Li5 O3 2.401752 1_455
Li6 O3 1.966685 1_456
Li6 O4 2.042683 1_546
Li6 O2 2.117888 1_545
Li6 O1 2.118996 1_555
Li6 O0 2.540202 1_455
Li7 O0 1.920425 1_555
Li7 O2 1.921726 1_645
Li7 O1 1.938043 1_555
Fe0 O2 1.845189 1_555
Fe0 O0 1.853646 1_455
Fe0 O1 1.864806 1_555
Fe1 O3 1.845189 1_555
Fe1 O5 1.853646 1_655
Fe1 O4 1.864806 1_555
F0 Fe0 2.044115 1_555
F0 Li3 2.077224 1_555
F0 Li4 2.107601 1_565
F0 Li0 2.117454 1_555
F1 Fe1 2.044115 1_555
F1 Li4 2.077224 1_555
F1 Li3 2.107601 1_545
F1 Li7 2.117454 1_555
