# generated using pymatgen
data_LiP5W3O19
_symmetry_space_group_name_H-M   'P 1'
_cell_length_a   8.77771365
_cell_length_b   8.77771365
_cell_length_c   6.55686487
_cell_angle_alpha   81.19641975
_cell_angle_beta   81.19641975
_cell_angle_gamma   113.75750781
_symmetry_Int_Tables_number   1
_chemical_formula_structural   LiP5W3O19
_chemical_formula_sum   'Li1 P5 W3 O19'
_cell_volume   443.87590682
_cell_formula_units_Z   1
loop_
 _symmetry_equiv_pos_site_id
 _symmetry_equiv_pos_as_xyz
  1  'x, y, z'
loop_
 _atom_site_type_symbol
 _atom_site_label
 _atom_site_symmetry_multiplicity
 _atom_site_fract_x
 _atom_site_fract_y
 _atom_site_fract_z
 _atom_site_occupancy
  Li  Li0  1  0.09464000  0.09464000  0.46647500  1
  P  P0  1  0.67708700  0.67708700  0.69564000  1
  P  P1  1  0.60685200  0.31048800  0.27200900  1
  P  P2  1  0.31048800  0.60685200  0.27200900  1
  P  P3  1  0.81225000  0.18500900  0.00379000  1
  P  P4  1  0.18500900  0.81225000  0.00379000  1
  W  W0  1  0.76236300  0.76236300  0.15852200  1
  W  W1  1  0.49385000  0.24222400  0.82021200  1
  W  W2  1  0.24222400  0.49385000  0.82021200  1
  O  O0  1  0.78203100  0.78203100  0.83994500  1
  O  O1  1  0.78135100  0.78135100  0.46409700  1
  O  O2  1  0.32246800  0.98707600  0.88326800  1
  O  O3  1  0.98707600  0.32246800  0.88326800  1
  O  O4  1  0.67588400  0.49944700  0.73406700  1
  O  O5  1  0.49944700  0.67588400  0.73406700  1
  O  O6  1  0.50497800  0.70622000  0.22389800  1
  O  O7  1  0.70622000  0.50497800  0.22389800  1
  O  O8  1  0.68401400  0.16289500  0.86432500  1
  O  O9  1  0.16289500  0.68401400  0.86432500  1
  O  O10  1  0.24357400  0.75023500  0.21055600  1
  O  O11  1  0.75023500  0.24357400  0.21055600  1
  O  O12  1  0.52294300  0.22494800  0.50493300  1
  O  O13  1  0.22494800  0.52294300  0.50493300  1
  O  O14  1  0.32532500  0.32532500  0.80470000  1
  O  O15  1  0.02186700  0.82513900  0.09623200  1
  O  O16  1  0.82513900  0.02186700  0.09623200  1
  O  O17  1  0.46926100  0.24470000  0.14625100  1
  O  O18  1  0.24470000  0.46926100  0.14625100  1
loop_
_geom_bond_atom_site_label_1
_geom_bond_atom_site_label_2
_geom_bond_distance
_geom_bond_site_symmetry_2
O0 P0 1.562771 1_555
O0 W0 2.044062 1_556
O1 P0 1.566722 1_555
O1 W0 2.062058 1_555
O2 P4 1.510063 1_556
O2 W1 2.064319 1_565
O3 P3 1.510063 1_556
O3 W2 2.064319 1_655
O4 P0 1.536421 1_555
O4 W1 2.096785 1_555
O5 P0 1.536421 1_555
O5 W2 2.096785 1_555
O6 P2 1.525092 1_555
O6 W0 2.067037 1_555
O7 P1 1.525092 1_555
O7 W0 2.067037 1_555
O8 P3 1.527834 1_556
O8 W1 2.092230 1_555
O9 P4 1.527834 1_556
O9 W2 2.092230 1_555
O10 P2 1.613749 1_555
O10 P4 1.616016 1_555
O11 P1 1.613749 1_555
O11 P3 1.616016 1_555
O12 P1 1.515859 1_555
O12 W1 2.080208 1_555
O13 P2 1.515859 1_555
O13 W2 2.080208 1_555
O14 W2 1.903523 1_555
O14 W1 1.903523 1_555
O15 P4 1.522071 1_555
O15 W0 2.072213 1_455
O16 P3 1.522071 1_555
O16 W0 2.072213 1_545
O17 P1 1.536445 1_555
O17 W1 2.119902 1_554
O18 P2 1.536445 1_555
O18 W2 2.119902 1_554
