# generated using pymatgen
data_Li3MnF6
_symmetry_space_group_name_H-M   'P 1'
_cell_length_a   8.56539361
_cell_length_b   8.56539361
_cell_length_c   10.39441800
_cell_angle_alpha   83.53446114
_cell_angle_beta   83.53446114
_cell_angle_gamma   61.19188535
_symmetry_Int_Tables_number   1
_chemical_formula_structural   Li3MnF6
_chemical_formula_sum   'Li18 Mn6 F36'
_cell_volume   662.47398173
_cell_formula_units_Z   6
loop_
 _symmetry_equiv_pos_site_id
 _symmetry_equiv_pos_as_xyz
  1  'x, y, z'
loop_
 _atom_site_type_symbol
 _atom_site_label
 _atom_site_symmetry_multiplicity
 _atom_site_fract_x
 _atom_site_fract_y
 _atom_site_fract_z
 _atom_site_occupancy
  Li  Li0  1  0.94260600  0.65882700  0.93057500  1
  Li  Li1  1  0.65882700  0.94260600  0.43057500  1
  Li  Li2  1  0.47574900  0.85809500  0.95153000  1
  Li  Li3  1  0.85809500  0.47574900  0.45153000  1
  Li  Li4  1  0.99204000  0.28590200  0.72231200  1
  Li  Li5  1  0.28590200  0.99204000  0.22231200  1
  Li  Li6  1  0.67089300  0.37999200  0.96704300  1
  Li  Li7  1  0.37999200  0.67089300  0.46704300  1
  Li  Li8  1  0.19772500  0.80227500  0.75000000  1
  Li  Li9  1  0.80227500  0.19772500  0.25000000  1
  Li  Li10  1  0.62000800  0.32910700  0.53295700  1
  Li  Li11  1  0.32910700  0.62000800  0.03295700  1
  Li  Li12  1  0.71409800  0.00796000  0.77768800  1
  Li  Li13  1  0.00796000  0.71409800  0.27768800  1
  Li  Li14  1  0.14190500  0.52425100  0.54847000  1
  Li  Li15  1  0.52425100  0.14190500  0.04847000  1
  Li  Li16  1  0.34117300  0.05739400  0.56942500  1
  Li  Li17  1  0.05739400  0.34117300  0.06942500  1
  Mn  Mn0  1  0.66335100  0.66653900  0.70309400  1
  Mn  Mn1  1  0.66653900  0.66335100  0.20309400  1
  Mn  Mn2  1  0.00000000  0.00000000  0.50000000  1
  Mn  Mn3  1  0.00000000  0.00000000  0.00000000  1
  Mn  Mn4  1  0.33346100  0.33664900  0.79690600  1
  Mn  Mn5  1  0.33664900  0.33346100  0.29690600  1
  F  F0  1  0.93371500  0.92532900  0.66367600  1
  F  F1  1  0.92532900  0.93371500  0.16367600  1
  F  F2  1  0.73215500  0.78277800  0.84569900  1
  F  F3  1  0.58609500  0.89361200  0.60764200  1
  F  F4  1  0.78277800  0.73215500  0.34569900  1
  F  F5  1  0.89125100  0.57422800  0.61106600  1
  F  F6  1  0.89361200  0.58609500  0.10764200  1
  F  F7  1  0.57422800  0.89125100  0.11106600  1
  F  F8  1  0.75881700  0.44428200  0.80271400  1
  F  F9  1  0.44004200  0.75341700  0.80072500  1
  F  F10  1  0.44428200  0.75881700  0.30271400  1
  F  F11  1  0.75341700  0.44004200  0.30072500  1
  F  F12  1  0.59967000  0.56160200  0.55482200  1
  F  F13  1  0.91427900  0.23668800  0.56021900  1
  F  F14  1  0.25290100  0.89331800  0.57011000  1
  F  F15  1  0.56160200  0.59967000  0.05482200  1
  F  F16  1  0.23668800  0.91427900  0.06022000  1
  F  F17  1  0.89331800  0.25290100  0.07011000  1
  F  F18  1  0.10668200  0.74709900  0.92989000  1
  F  F19  1  0.76331200  0.08572100  0.93978100  1
  F  F20  1  0.43839800  0.40033000  0.94517800  1
  F  F21  1  0.74709900  0.10668200  0.42989000  1
  F  F22  1  0.08572100  0.76331200  0.43978100  1
  F  F23  1  0.40033000  0.43839800  0.44517800  1
  F  F24  1  0.24658300  0.55995800  0.69927500  1
  F  F25  1  0.55571800  0.24118300  0.69728600  1
  F  F26  1  0.55995800  0.24658300  0.19927500  1
  F  F27  1  0.24118300  0.55571800  0.19728600  1
  F  F28  1  0.42577200  0.10874900  0.88893400  1
  F  F29  1  0.10638800  0.41390500  0.89235800  1
  F  F30  1  0.10874900  0.42577200  0.38893400  1
  F  F31  1  0.21722200  0.26784500  0.65430100  1
  F  F32  1  0.41390500  0.10638800  0.39235800  1
  F  F33  1  0.26784500  0.21722200  0.15430100  1
  F  F34  1  0.07467100  0.06628500  0.83632400  1
  F  F35  1  0.06628500  0.07467100  0.33632400  1
loop_
_geom_bond_atom_site_label_1
_geom_bond_atom_site_label_2
_geom_bond_distance
_geom_bond_site_symmetry_2
F0 Mn2 1.874371 1_665
F0 Li12 1.961540 1_565
F0 Li8 2.230840 1_655
F1 Mn3 1.874371 1_665
F1 Li13 1.961540 1_655
F1 Li9 2.230840 1_565
F2 Li0 1.859477 1_555
F2 Li12 1.916738 1_565
F2 Mn0 2.151837 1_555
F2 Li2 2.167930 1_555
F3 Mn0 1.917826 1_555
F3 Li16 1.937177 1_565
F3 Li1 1.942026 1_555
F4 Li1 1.859477 1_555
F4 Li13 1.916738 1_655
F4 Mn1 2.151837 1_555
F4 Li3 2.167930 1_555
F5 Mn0 1.900795 1_555
F5 Li14 2.019498 1_655
F5 Li3 2.047931 1_555
F5 Li4 2.389222 1_555
F6 Mn1 1.917826 1_555
F6 Li17 1.937177 1_655
F6 Li0 1.942026 1_554
F7 Mn1 1.900795 1_555
F7 Li15 2.019498 1_565
F7 Li2 2.047931 1_554
F7 Li5 2.389222 1_555
F8 Mn0 1.900397 1_555
F8 Li6 1.919938 1_555
F8 Li4 1.948577 1_555
F9 Mn0 1.898237 1_555
F9 Li2 2.010815 1_555
F9 Li8 2.029940 1_555
F10 Mn1 1.900397 1_555
F10 Li7 1.919938 1_555
F10 Li5 1.948577 1_555
F11 Mn1 1.898237 1_555
F11 Li3 2.010815 1_555
F11 Li9 2.029940 1_555
F12 Li7 1.935469 1_555
F12 Li10 1.950999 1_555
F12 Mn0 2.110571 1_555
F12 Li3 2.160320 1_555
F13 Mn2 1.946447 1_655
F13 Li4 2.035524 1_555
F13 Li3 2.086284 1_555
F13 Li10 2.290737 1_555
F14 Li16 1.888756 1_565
F14 Li8 2.038528 1_555
F14 Li7 2.039763 1_555
F14 Mn2 2.087188 1_565
F15 Li6 1.935469 1_554
F15 Li11 1.950999 1_555
F15 Mn1 2.110571 1_555
F15 Li2 2.160320 1_554
F16 Mn3 1.946452 1_565
F16 Li5 2.035515 1_555
F16 Li2 2.086289 1_554
F16 Li11 2.290739 1_555
F17 Li17 1.888756 1_655
F17 Li9 2.038528 1_555
F17 Li6 2.039763 1_554
F17 Mn3 2.087188 1_655
F18 Li0 1.888756 1_455
F18 Li8 2.038528 1_555
F18 Li11 2.039763 1_556
F18 Mn3 2.087188 1_566
F19 Mn3 1.946447 1_656
F19 Li12 2.035524 1_555
F19 Li15 2.086284 1_556
F19 Li6 2.290737 1_555
F20 Li11 1.935469 1_556
F20 Li6 1.950999 1_555
F20 Mn4 2.110571 1_555
F20 Li15 2.160320 1_556
F21 Li1 1.888756 1_545
F21 Li9 2.038528 1_555
F21 Li10 2.039763 1_555
F21 Mn2 2.087188 1_655
F22 Mn2 1.946447 1_565
F22 Li13 2.035524 1_555
F22 Li14 2.086284 1_555
F22 Li7 2.290737 1_555
F23 Li10 1.935469 1_555
F23 Li7 1.950999 1_555
F23 Mn5 2.110571 1_555
F23 Li14 2.160320 1_555
F24 Mn4 1.898237 1_555
F24 Li14 2.010815 1_555
F24 Li8 2.029940 1_555
F25 Mn4 1.900397 1_555
F25 Li10 1.919938 1_555
F25 Li12 1.948577 1_555
F26 Mn5 1.898237 1_555
F26 Li15 2.010815 1_555
F26 Li9 2.029940 1_555
F27 Mn5 1.900397 1_555
F27 Li11 1.919938 1_555
F27 Li13 1.948577 1_555
F28 Mn4 1.900795 1_555
F28 Li2 2.019498 1_545
F28 Li15 2.047931 1_556
F28 Li12 2.389222 1_555
F29 Mn4 1.917826 1_555
F29 Li0 1.937177 1_455
F29 Li17 1.942026 1_556
F30 Mn5 1.900795 1_555
F30 Li3 2.019498 1_455
F30 Li14 2.047931 1_555
F30 Li13 2.389222 1_555
F31 Li16 1.859477 1_555
F31 Li4 1.916738 1_455
F31 Mn4 2.151837 1_555
F31 Li14 2.167930 1_555
F32 Mn5 1.917826 1_555
F32 Li1 1.937177 1_545
F32 Li16 1.942026 1_555
F33 Li17 1.859477 1_555
F33 Li5 1.916738 1_545
F33 Mn5 2.151837 1_555
F33 Li15 2.167930 1_555
F34 Mn3 1.874371 1_556
F34 Li4 1.961540 1_455
F34 Li8 2.230840 1_545
F35 Mn2 1.874371 1_555
F35 Li5 1.961540 1_545
F35 Li9 2.230840 1_455
