# generated using pymatgen
data_Li7Ni5O12
_symmetry_space_group_name_H-M   'P 1'
_cell_length_a   4.99010635
_cell_length_b   4.99010616
_cell_length_c   9.47664577
_cell_angle_alpha   85.06421414
_cell_angle_beta   94.93578837
_cell_angle_gamma   60.77189622
_symmetry_Int_Tables_number   1
_chemical_formula_structural   Li7Ni5O12
_chemical_formula_sum   'Li7 Ni5 O12'
_cell_volume   202.93414730
_cell_formula_units_Z   1
loop_
 _symmetry_equiv_pos_site_id
 _symmetry_equiv_pos_as_xyz
  1  'x, y, z'
loop_
 _atom_site_type_symbol
 _atom_site_label
 _atom_site_symmetry_multiplicity
 _atom_site_fract_x
 _atom_site_fract_y
 _atom_site_fract_z
 _atom_site_occupancy
  Li  Li0  1  0.25854300  0.25854300  0.75000000  1
  Li  Li1  1  0.17663400  0.65530400  0.51008900  1
  Li  Li2  1  0.32645500  0.83674100  0.99054400  1
  Li  Li3  1  0.65530400  0.17663400  0.98991100  1
  Li  Li4  1  0.83674100  0.32645500  0.50945600  1
  Li  Li5  1  0.74595300  0.74595300  0.25000000  1
  Li  Li6  1  0.91877600  0.91877600  0.75000000  1
  Ni  Ni0  1  0.07594700  0.07594700  0.25000000  1
  Ni  Ni1  1  0.00336300  0.50395500  0.99546100  1
  Ni  Ni2  1  0.50395500  0.00336300  0.50453900  1
  Ni  Ni3  1  0.41304300  0.41304300  0.25000000  1
  Ni  Ni4  1  0.58567600  0.58567600  0.75000000  1
  O  O0  1  0.93807700  0.25620100  0.87324300  1
  O  O1  1  0.25620100  0.93807700  0.62675700  1
  O  O2  1  0.15945000  0.34207600  0.37437000  1
  O  O3  1  0.34207600  0.15945000  0.12563000  1
  O  O4  1  0.30144300  0.55132400  0.86746200  1
  O  O5  1  0.55132400  0.30144300  0.63253800  1
  O  O6  1  0.42249100  0.71906300  0.35895300  1
  O  O7  1  0.71906300  0.42249100  0.14104700  1
  O  O8  1  0.65110000  0.83545600  0.88012500  1
  O  O9  1  0.83545600  0.65110000  0.61987500  1
  O  O10  1  0.75463300  0.06829700  0.36946800  1
  O  O11  1  0.06829700  0.75463300  0.13053200  1
loop_
_geom_bond_atom_site_label_1
_geom_bond_atom_site_label_2
_geom_bond_distance
_geom_bond_site_symmetry_2
Li0 O4 1.990918 1_555
Li0 O5 1.990918 1_555
Li0 O1 2.063687 1_545
Li0 O0 2.063687 1_455
Li0 O8 2.216482 1_545
Li0 O9 2.216482 1_455
Li1 O5 2.002582 1_555
Li1 O1 2.027613 1_555
Li1 O6 2.064685 1_555
Li1 O9 2.077826 1_455
Li1 O2 2.136002 1_555
Li1 O10 2.294323 1_465
Li2 O4 1.959341 1_555
Li2 O8 2.000539 1_555
Li2 O11 2.074452 1_556
Li2 O0 2.154134 1_465
Li2 O3 2.167552 1_566
Li2 O7 2.280889 1_556
Li3 O4 2.002582 1_555
Li3 O0 2.027613 1_555
Li3 O7 2.064685 1_556
Li3 O8 2.077826 1_545
Li3 O3 2.136002 1_556
Li3 O11 2.294323 1_646
Li4 O5 1.959341 1_555
Li4 O9 2.000539 1_555
Li4 O10 2.074452 1_555
Li4 O1 2.154134 1_645
Li4 O2 2.167552 1_655
Li4 O6 2.280889 1_555
Li5 O7 2.040560 1_555
Li5 O6 2.040560 1_555
Li5 O10 2.060097 1_565
Li5 O11 2.060097 1_655
Li5 O3 2.195484 1_565
Li5 O2 2.195484 1_655
Li6 O5 2.027627 1_565
Li6 O4 2.027628 1_655
Li6 O9 2.053113 1_555
Li6 O8 2.053113 1_555
Li6 O0 2.164692 1_565
Li6 O1 2.164692 1_655
Ni0 O6 1.896547 1_545
Ni0 O7 1.896547 1_455
Ni0 O2 2.012859 1_555
Ni0 O3 2.012859 1_555
Ni0 O11 2.053973 1_545
Ni0 O10 2.053973 1_455
Ni1 O8 1.881381 1_455
Ni1 O0 1.884382 1_455
Ni1 O3 1.942308 1_556
Ni1 O11 1.976920 1_556
Ni1 O4 2.084288 1_555
Ni1 O7 2.210185 1_456
Ni2 O9 1.881381 1_545
Ni2 O1 1.884382 1_545
Ni2 O2 1.942308 1_555
Ni2 O10 1.976920 1_555
Ni2 O5 2.084288 1_555
Ni2 O6 2.210185 1_545
Ni3 O10 1.901548 1_555
Ni3 O11 1.901548 1_555
Ni3 O6 1.932226 1_555
Ni3 O7 1.932227 1_555
Ni3 O3 1.933490 1_555
Ni3 O2 1.933490 1_555
Ni4 O1 1.911082 1_555
Ni4 O0 1.911082 1_555
Ni4 O5 1.938167 1_555
Ni4 O4 1.938167 1_555
Ni4 O8 1.942532 1_555
Ni4 O9 1.942532 1_555
