# generated using pymatgen
data_Li2Mn3F8
_symmetry_space_group_name_H-M   'P 1'
_cell_length_a   5.78363300
_cell_length_b   6.37557600
_cell_length_c   10.28835100
_cell_angle_alpha   90.00000000
_cell_angle_beta   90.00000000
_cell_angle_gamma   90.00000000
_symmetry_Int_Tables_number   1
_chemical_formula_structural   Li2Mn3F8
_chemical_formula_sum   'Li4 Mn6 F16'
_cell_volume   379.37256987
_cell_formula_units_Z   2
loop_
 _symmetry_equiv_pos_site_id
 _symmetry_equiv_pos_as_xyz
  1  'x, y, z'
loop_
 _atom_site_type_symbol
 _atom_site_label
 _atom_site_symmetry_multiplicity
 _atom_site_fract_x
 _atom_site_fract_y
 _atom_site_fract_z
 _atom_site_occupancy
  Li  Li0  1  0.27453100  0.50000000  0.77565700  1
  Li  Li1  1  0.25648300  0.00000000  0.72031000  1
  Li  Li2  1  0.74351700  0.50000000  0.22031000  1
  Li  Li3  1  0.72546900  0.00000000  0.27565700  1
  Mn  Mn0  1  0.97969200  0.75296100  0.50215200  1
  Mn  Mn1  1  0.97969200  0.24703900  0.50215200  1
  Mn  Mn2  1  0.47996300  0.50000000  0.49334800  1
  Mn  Mn3  1  0.52003700  0.00000000  0.99334800  1
  Mn  Mn4  1  0.02030800  0.74703900  0.00215200  1
  Mn  Mn5  1  0.02030800  0.25296100  0.00215200  1
  F  F0  1  0.80316400  0.50000000  0.59800200  1
  F  F1  1  0.85304300  0.00000000  0.90205400  1
  F  F2  1  0.69695500  0.77814600  0.11647200  1
  F  F3  1  0.69695500  0.22185400  0.11647200  1
  F  F4  1  0.66781000  0.72144200  0.37771100  1
  F  F5  1  0.66781000  0.27855800  0.37771100  1
  F  F6  1  0.94440400  0.00000000  0.63389300  1
  F  F7  1  0.97650200  0.50000000  0.86924500  1
  F  F8  1  0.02349800  0.00000000  0.36924500  1
  F  F9  1  0.05559600  0.50000000  0.13389300  1
  F  F10  1  0.33219000  0.77855800  0.87771100  1
  F  F11  1  0.33219000  0.22144200  0.87771100  1
  F  F12  1  0.30304500  0.72185400  0.61647200  1
  F  F13  1  0.30304500  0.27814600  0.61647200  1
  F  F14  1  0.14695700  0.50000000  0.40205400  1
  F  F15  1  0.19683600  0.00000000  0.09800200  1
loop_
_geom_bond_atom_site_label_1
_geom_bond_atom_site_label_2
_geom_bond_distance
_geom_bond_site_symmetry_2
F0 Mn0 2.148462 1_555
F0 Mn1 2.148462 1_555
F0 Mn2 2.157200 1_555
F1 Mn3 2.142810 1_555
F1 Mn5 2.144172 1_656
F1 Mn4 2.144172 1_646
F2 Li2 2.087719 1_555
F2 Mn3 2.156918 1_564
F2 Li3 2.170273 1_565
F2 Mn4 2.218147 1_655
F3 Li2 2.087719 1_555
F3 Mn3 2.156918 1_554
F3 Li3 2.170273 1_555
F3 Mn5 2.218147 1_655
F4 Li3 2.089904 1_565
F4 Mn2 2.142196 1_555
F4 Li2 2.192580 1_555
F4 Mn0 2.221095 1_555
F5 Li3 2.089904 1_555
F5 Mn2 2.142196 1_555
F5 Li2 2.192580 1_555
F5 Mn1 2.221095 1_555
F6 Li1 2.012045 1_655
F6 Mn1 2.087925 1_555
F6 Mn0 2.087925 1_545
F7 Li0 1.974391 1_655
F7 Mn4 2.101102 1_656
F7 Mn5 2.101102 1_656
F8 Li3 1.974391 1_455
F8 Mn1 2.101102 1_455
F8 Mn0 2.101102 1_445
F9 Li2 2.012045 1_455
F9 Mn5 2.087925 1_555
F9 Mn4 2.087925 1_555
F10 Li0 2.089904 1_555
F10 Mn3 2.142196 1_565
F10 Li1 2.192580 1_565
F10 Mn4 2.221095 1_556
F11 Li0 2.089904 1_555
F11 Mn3 2.142196 1_555
F11 Li1 2.192580 1_555
F11 Mn5 2.221095 1_556
F12 Li1 2.087719 1_565
F12 Mn2 2.156918 1_555
F12 Li0 2.170273 1_555
F12 Mn0 2.218147 1_455
F13 Li1 2.087719 1_555
F13 Mn2 2.156918 1_555
F13 Li0 2.170273 1_555
F13 Mn1 2.218147 1_455
F14 Mn2 2.142810 1_555
F14 Mn0 2.144172 1_455
F14 Mn1 2.144172 1_455
F15 Mn5 2.148462 1_555
F15 Mn4 2.148462 1_545
F15 Mn3 2.157200 1_554
