# generated using pymatgen
data_CrH12(ClO2)3
_symmetry_space_group_name_H-M   'P 1'
_cell_length_a   8.05277724
_cell_length_b   8.05277724
_cell_length_c   8.05277733
_cell_angle_alpha   97.92861607
_cell_angle_beta   97.92861607
_cell_angle_gamma   97.92861851
_symmetry_Int_Tables_number   1
_chemical_formula_structural   CrH12(ClO2)3
_chemical_formula_sum   'Cr2 H24 Cl6 O12'
_cell_volume   505.66379657
_cell_formula_units_Z   2
loop_
 _symmetry_equiv_pos_site_id
 _symmetry_equiv_pos_as_xyz
  1  'x, y, z'
loop_
 _atom_site_type_symbol
 _atom_site_label
 _atom_site_symmetry_multiplicity
 _atom_site_fract_x
 _atom_site_fract_y
 _atom_site_fract_z
 _atom_site_occupancy
  Cr  Cr0  1  0.50000000  0.50000000  0.50000000  1
  Cr  Cr1  1  0.00000000  0.00000000  0.00000000  1
  H  H0  1  0.27895500  0.23713100  0.54133400  1
  H  H1  1  0.54133400  0.27895500  0.23713100  1
  H  H2  1  0.23713100  0.54133400  0.27895500  1
  H  H3  1  0.04133400  0.73713100  0.77895500  1
  H  H4  1  0.77895500  0.04133400  0.73713100  1
  H  H5  1  0.73713100  0.77895500  0.04133400  1
  H  H6  1  0.72104500  0.76286900  0.45866600  1
  H  H7  1  0.45866600  0.72104500  0.76286900  1
  H  H8  1  0.76286900  0.45866600  0.72104500  1
  H  H9  1  0.95866600  0.26286900  0.22104500  1
  H  H10  1  0.22104500  0.95866600  0.26286900  1
  H  H11  1  0.26286900  0.22104500  0.95866600  1
  H  H12  1  0.20442200  0.40834600  0.61390400  1
  H  H13  1  0.61390400  0.20442200  0.40834600  1
  H  H14  1  0.40834600  0.61390400  0.20442200  1
  H  H15  1  0.11390400  0.90834600  0.70442200  1
  H  H16  1  0.70442200  0.11390400  0.90834600  1
  H  H17  1  0.90834600  0.70442200  0.11390400  1
  H  H18  1  0.79557800  0.59165400  0.38609600  1
  H  H19  1  0.38609600  0.79557800  0.59165400  1
  H  H20  1  0.59165400  0.38609600  0.79557800  1
  H  H21  1  0.88609600  0.09165400  0.29557800  1
  H  H22  1  0.29557800  0.88609600  0.09165400  1
  H  H23  1  0.09165400  0.29557800  0.88609600  1
  Cl  Cl0  1  0.97793100  0.52206900  0.25000000  1
  Cl  Cl1  1  0.25000000  0.97793100  0.52206900  1
  Cl  Cl2  1  0.52206900  0.25000000  0.97793100  1
  Cl  Cl3  1  0.75000000  0.02206900  0.47793100  1
  Cl  Cl4  1  0.47793100  0.75000000  0.02206900  1
  Cl  Cl5  1  0.02206900  0.47793100  0.75000000  1
  O  O0  1  0.29129100  0.36386700  0.55039700  1
  O  O1  1  0.55039700  0.29129100  0.36386700  1
  O  O2  1  0.36386700  0.55039700  0.29129100  1
  O  O3  1  0.05039700  0.86386700  0.79129100  1
  O  O4  1  0.79129100  0.05039700  0.86386700  1
  O  O5  1  0.86386700  0.79129100  0.05039700  1
  O  O6  1  0.70870900  0.63613300  0.44960300  1
  O  O7  1  0.44960300  0.70870900  0.63613300  1
  O  O8  1  0.63613300  0.44960300  0.70870900  1
  O  O9  1  0.94960300  0.13613300  0.20870900  1
  O  O10  1  0.20870900  0.94960300  0.13613300  1
  O  O11  1  0.13613300  0.20870900  0.94960300  1
loop_
_geom_bond_atom_site_label_1
_geom_bond_atom_site_label_2
_geom_bond_distance
_geom_bond_site_symmetry_2
Cr0 O6 1.998447 1_555
Cr0 O0 1.998447 1_555
Cr0 O7 1.998447 1_555
Cr0 O1 1.998447 1_555
Cr0 O8 1.998447 1_555
Cr0 O2 1.998447 1_555
Cr1 O11 1.998447 1_554
Cr1 O5 1.998447 1_445
Cr1 O10 1.998447 1_545
Cr1 O4 1.998447 1_454
Cr1 O9 1.998447 1_455
Cr1 O3 1.998447 1_544
H0 O0 1.003122 1_555
H1 O1 1.003122 1_555
H2 O2 1.003122 1_555
H3 O3 1.003122 1_555
H4 O4 1.003122 1_555
H5 O5 1.003122 1_555
H6 O6 1.003122 1_555
H7 O7 1.003122 1_555
H8 O8 1.003122 1_555
H9 O9 1.003122 1_555
H10 O10 1.003122 1_555
H11 O11 1.003122 1_555
H12 O0 0.998232 1_555
H13 O1 0.998232 1_555
H14 O2 0.998232 1_555
H15 O3 0.998232 1_555
H16 O4 0.998232 1_555
H17 O5 0.998232 1_555
H18 O6 0.998232 1_555
H19 O7 0.998232 1_555
H20 O8 0.998232 1_555
H21 O9 0.998232 1_555
H22 O10 0.998232 1_555
H23 O11 0.998232 1_555
Cl0 H18 2.042795 1_555
Cl0 H17 2.042795 1_555
Cl0 H2 2.049779 1_655
Cl0 H9 2.049779 1_555
Cl1 H15 2.042795 1_555
Cl1 H19 2.042795 1_555
Cl1 H0 2.049779 1_565
Cl1 H10 2.049779 1_555
Cl2 H20 2.042795 1_555
Cl2 H16 2.042795 1_555
Cl2 H11 2.049779 1_555
Cl2 H1 2.049779 1_556
Cl3 H21 2.042795 1_555
Cl3 H13 2.042795 1_555
Cl3 H6 2.049779 1_545
Cl3 H4 2.049779 1_555
Cl4 H14 2.042795 1_555
Cl4 H22 2.042795 1_555
Cl4 H5 2.049779 1_555
Cl4 H7 2.049779 1_554
Cl5 H12 2.042795 1_555
Cl5 H23 2.042795 1_555
Cl5 H8 2.049779 1_455
Cl5 H3 2.049779 1_555
