# generated using pymatgen
data_Li6V3P8O29
_symmetry_space_group_name_H-M   'P 1'
_cell_length_a   9.83320660
_cell_length_b   9.80992305
_cell_length_c   13.96832592
_cell_angle_alpha   90.40488915
_cell_angle_beta   90.72448551
_cell_angle_gamma   59.99954932
_symmetry_Int_Tables_number   1
_chemical_formula_structural   Li6V3P8O29
_chemical_formula_sum   'Li12 V6 P16 O58'
_cell_volume   1166.80667139
_cell_formula_units_Z   2
loop_
 _symmetry_equiv_pos_site_id
 _symmetry_equiv_pos_as_xyz
  1  'x, y, z'
loop_
 _atom_site_type_symbol
 _atom_site_label
 _atom_site_symmetry_multiplicity
 _atom_site_fract_x
 _atom_site_fract_y
 _atom_site_fract_z
 _atom_site_occupancy
  Li  Li0  1  0.67522100  0.66416000  0.38970500  1
  Li  Li1  1  0.67743900  0.66803600  0.88750800  1
  Li  Li2  1  0.77536800  0.30713600  0.06084700  1
  Li  Li3  1  0.30987900  0.91308500  0.06129800  1
  Li  Li4  1  0.66242600  0.23531300  0.44074900  1
  Li  Li5  1  0.32326200  0.76637300  0.56431200  1
  Li  Li6  1  0.68391700  0.09009500  0.93571100  1
  Li  Li7  1  0.22683500  0.67749100  0.94187000  1
  Li  Li8  1  0.09942700  0.66617800  0.43957500  1
  Li  Li9  1  0.23052200  0.10124500  0.44478100  1
  Li  Li10  1  0.09705200  0.22804800  0.93740200  1
  Li  Li11  1  0.95753800  0.02478300  0.50928400  1
  V  V0  1  0.56951400  0.42947700  0.24954100  1
  V  V1  1  0.43418700  0.56544800  0.75023600  1
  V  V2  1  0.56901200  0.99861200  0.74708100  1
  V  V3  1  0.43424900  0.00407000  0.25169200  1
  V  V4  1  0.00251200  0.56767900  0.24746200  1
  V  V5  1  0.99855700  0.43596500  0.74431700  1
  P  P0  1  0.91286400  0.77264800  0.83902300  1
  P  P1  1  0.78012400  0.91332300  0.33820900  1
  P  P2  1  0.91370800  0.31151100  0.34106300  1
  P  P3  1  0.66408000  0.66764400  0.12959100  1
  P  P4  1  0.66458700  0.66752900  0.62924900  1
  P  P5  1  0.77236100  0.32109300  0.84134400  1
  P  P6  1  0.68438800  0.22815600  0.65773400  1
  P  P7  1  0.32493600  0.90759100  0.84318200  1
  P  P8  1  0.68007300  0.08479500  0.15301700  1
  P  P9  1  0.32004800  0.77301100  0.34407700  1
  P  P10  1  0.23182900  0.67995100  0.16026800  1
  P  P11  1  0.33572200  0.33315300  0.37348300  1
  P  P12  1  0.33204800  0.33389300  0.87069400  1
  P  P13  1  0.08286400  0.68848200  0.65380300  1
  P  P14  1  0.22712200  0.08463000  0.65893100  1
  P  P15  1  0.08404800  0.23314900  0.15551700  1
  O  O0  1  0.01221500  0.77258400  0.56113100  1
  O  O1  1  0.92230500  0.74147300  0.34075100  1
  O  O2  1  0.74573900  0.00980900  0.06014700  1
  O  O3  1  0.74466100  0.91935700  0.84126700  1
  O  O4  1  0.89148600  0.62656300  0.82649300  1
  O  O5  1  0.80927100  0.66949000  0.17333100  1
  O  O6  1  0.90217000  0.47407900  0.33379300  1
  O  O7  1  0.99788700  0.24977000  0.06288100  1
  O  O8  1  0.92218100  0.33305200  0.84372500  1
  O  O9  1  0.67304900  0.80973100  0.67162800  1
  O  O10  1  0.62851200  0.90020400  0.33250800  1
  O  O11  1  0.81049600  0.51649800  0.67218600  1
  O  O12  1  0.65652000  0.67160900  0.02229600  1
  O  O13  1  0.66173600  0.66620600  0.52184100  1
  O  O14  1  0.66849500  0.51334500  0.16581300  1
  O  O15  1  0.49032300  0.88525900  0.82697600  1
  O  O16  1  0.51236700  0.81704300  0.17146000  1
  O  O17  1  0.74240600  0.34030000  0.34166100  1
  O  O18  1  0.79243100  0.21227500  0.74991500  1
  O  O19  1  0.77055900  0.21502200  0.56701900  1
  O  O20  1  0.75132600  0.24709100  0.92969900  1
  O  O21  1  0.63019200  0.48931800  0.82375600  1
  O  O22  1  0.50957600  0.67501800  0.66676600  1
  O  O23  1  0.66870100  0.24920200  0.16254300  1
  O  O24  1  0.48507900  0.62790500  0.32971000  1
  O  O25  1  0.33475400  0.92216500  0.34578300  1
  O  O26  1  0.79906600  0.98280800  0.23896200  1
  O  O27  1  0.78988100  0.00927100  0.41886800  1
  O  O28  1  0.22332900  0.99691300  0.56981200  1
  O  O29  1  0.65593700  0.08877800  0.66657200  1
  O  O30  1  0.53001500  0.38613200  0.66909500  1
  O  O31  1  0.34032700  0.74303100  0.84593500  1
  O  O32  1  0.48956200  0.32325300  0.33551500  1
  O  O33  1  0.38289500  0.51997800  0.18174300  1
  O  O34  1  0.24948700  0.75197500  0.07017400  1
  O  O35  1  0.23589600  0.76346600  0.43122500  1
  O  O36  1  0.21352900  0.79224600  0.25016200  1
  O  O37  1  0.24964800  0.66775100  0.66501300  1
  O  O38  1  0.48132600  0.18504200  0.83167400  1
  O  O39  1  0.51899200  0.10145000  0.17580500  1
  O  O40  1  0.33435700  0.48407700  0.83076600  1
  O  O41  1  0.32370000  0.33790300  0.97729700  1
  O  O42  1  0.33690100  0.32269100  0.47995600  1
  O  O43  1  0.19056200  0.48586600  0.33347900  1
  O  O44  1  0.38333400  0.08302300  0.67074700  1
  O  O45  1  0.32830900  0.18488300  0.32921600  1
  O  O46  1  0.08708500  0.66049100  0.16164600  1
  O  O47  1  0.98415000  0.79884500  0.74153600  1
  O  O48  1  0.01150900  0.76505600  0.92225600  1
  O  O49  1  0.08854000  0.52989100  0.66572200  1
  O  O50  1  0.18173400  0.33773600  0.82521900  1
  O  O51  1  0.09769000  0.38031700  0.17910200  1
  O  O52  1  0.24673800  0.08406400  0.15883300  1
  O  O53  1  0.24720800  0.00195000  0.93173300  1
  O  O54  1  0.21447300  0.99263800  0.75176100  1
  O  O55  1  0.08661000  0.24965400  0.66208800  1
  O  O56  1  0.00760600  0.20521900  0.42164500  1
  O  O57  1  0.98340500  0.21886800  0.24079500  1
loop_
_geom_bond_atom_site_label_1
_geom_bond_atom_site_label_2
_geom_bond_distance
_geom_bond_site_symmetry_2
Li0 O13 1.851396 1_555
Li0 O6 2.220211 1_555
Li0 O24 2.223901 1_555
Li0 O10 2.272545 1_555
Li1 O12 1.894726 1_556
Li1 O4 2.122754 1_555
Li1 O15 2.169445 1_555
Li1 O21 2.205584 1_555
Li2 O20 1.967697 1_554
Li2 O7 1.967857 1_555
Li2 O23 2.021443 1_555
Li2 O14 2.284161 1_555
Li3 O34 1.951701 1_555
Li3 O53 1.967738 1_564
Li3 O52 2.000654 1_565
Li3 O16 2.299359 1_555
Li4 O27 1.949927 1_555
Li4 O19 2.006743 1_555
Li4 O32 2.069449 1_555
Li4 O17 2.110125 1_555
Li5 O28 1.965534 1_555
Li5 O35 2.044040 1_555
Li5 O37 2.045454 1_555
Li5 O22 2.125468 1_555
Li6 O2 1.877474 1_556
Li6 O20 1.960228 1_555
Li6 O3 1.972498 1_545
Li6 O38 2.244623 1_555
Li7 O48 1.861699 1_555
Li7 O34 1.982326 1_556
Li7 O31 2.054768 1_555
Li7 O40 2.262782 1_555
Li8 O0 1.955658 1_555
Li8 O35 2.002873 1_555
Li8 O1 2.037565 1_455
Li8 O43 2.130620 1_555
Li9 O56 1.923671 1_555
Li9 O28 2.050240 1_545
Li9 O25 2.061518 1_545
Li9 O45 2.247335 1_555
Li10 O53 1.957402 1_555
Li10 O7 1.974454 1_456
Li10 O8 1.980139 1_455
Li10 O50 2.293379 1_555
Li11 O19 2.024495 1_555
Li11 O27 2.128763 1_555
Li11 O0 2.370607 1_645
Li11 O56 2.406540 1_655
Li11 O28 2.617859 1_645
O0 P13 1.502713 1_555
O1 P1 1.562233 1_555
O1 V4 1.968937 1_655
O2 P8 1.474309 1_555
O3 P0 1.558255 1_555
O3 V2 1.983089 1_555
O4 P0 1.557348 1_555
O4 V5 1.988387 1_555
O5 P3 1.554209 1_555
O5 V4 1.935831 1_655
O6 P2 1.545175 1_555
O6 V4 2.054891 1_655
O7 P15 1.501956 1_655
O8 P5 1.535174 1_555
O8 V5 2.077444 1_555
O9 P4 1.551291 1_555
O9 V2 1.922168 1_555
O10 P1 1.560194 1_555
O10 V3 1.994200 1_565
O11 P4 1.574296 1_555
O11 V5 1.887368 1_555
O12 P3 1.499450 1_555
O13 P4 1.500303 1_555
O14 P3 1.579115 1_555
O14 V0 1.958368 1_555
O15 P7 1.548020 1_555
O15 V2 1.995114 1_555
O16 P3 1.593441 1_555
O16 V3 1.948227 1_565
O17 P2 1.562624 1_555
O17 V0 1.945418 1_555
O18 P5 1.608085 1_555
O18 P6 1.616682 1_555
O19 P6 1.501961 1_555
O20 P5 1.504078 1_555
O21 P5 1.558226 1_555
O21 V1 1.961747 1_555
O22 P4 1.584630 1_555
O22 V1 1.975021 1_555
O23 P8 1.564733 1_555
O23 V0 1.957109 1_555
O24 P9 1.547308 1_555
O24 V0 2.027062 1_555
O25 P9 1.540588 1_555
O25 V3 2.040508 1_565
O26 P1 1.602513 1_555
O26 P8 1.619280 1_565
O27 P1 1.495699 1_545
O28 P14 1.518967 1_565
O29 P6 1.532569 1_555
O29 V2 1.889993 1_545
O30 P6 1.543127 1_555
O30 V1 1.899503 1_555
O31 P7 1.544936 1_555
O31 V1 2.015935 1_555
O32 P11 1.565800 1_555
O32 V0 2.001740 1_555
O33 P10 1.556772 1_555
O33 V0 1.841533 1_555
O34 P10 1.501288 1_555
O35 P9 1.509938 1_555
O36 P10 1.615720 1_555
O36 P9 1.620098 1_555
O37 P13 1.554339 1_555
O37 V1 1.964234 1_555
O38 P12 1.565092 1_555
O38 V2 1.975529 1_545
O39 P8 1.545998 1_555
O39 V3 1.887668 1_555
O40 P12 1.589828 1_555
O40 V1 1.921036 1_555
O41 P12 1.491521 1_555
O42 P11 1.491010 1_555
O43 P11 1.564369 1_555
O43 V4 1.995097 1_555
O44 P14 1.535055 1_555
O44 V2 1.899347 1_545
O45 P11 1.611040 1_555
O45 V3 1.886170 1_555
O46 P10 1.528086 1_555
O46 V4 1.937856 1_555
O47 P13 1.605169 1_655
O47 P0 1.618932 1_555
O48 P0 1.482768 1_455
O49 P13 1.538776 1_555
O49 V5 1.921277 1_455
O50 P12 1.584447 1_555
O50 V5 1.917863 1_455
O51 P15 1.548110 1_555
O51 V4 1.855679 1_555
O52 P15 1.536135 1_555
O52 V3 2.050592 1_555
O53 P7 1.507044 1_545
O54 P7 1.606354 1_555
O54 P14 1.626069 1_565
O55 P14 1.515082 1_555
O55 V5 1.955097 1_455
O56 P2 1.494749 1_455
O57 P15 1.608967 1_655
O57 P2 1.625019 1_555
