# generated using pymatgen
data_LiTiSiO4
_symmetry_space_group_name_H-M   'P 1'
_cell_length_a   4.80163600
_cell_length_b   5.93272400
_cell_length_c   10.34762800
_cell_angle_alpha   90.00000000
_cell_angle_beta   90.00000000
_cell_angle_gamma   90.00000000
_symmetry_Int_Tables_number   1
_chemical_formula_structural   LiTiSiO4
_chemical_formula_sum   'Li4 Ti4 Si4 O16'
_cell_volume   294.77061412
_cell_formula_units_Z   4
loop_
 _symmetry_equiv_pos_site_id
 _symmetry_equiv_pos_as_xyz
  1  'x, y, z'
loop_
 _atom_site_type_symbol
 _atom_site_label
 _atom_site_symmetry_multiplicity
 _atom_site_fract_x
 _atom_site_fract_y
 _atom_site_fract_z
 _atom_site_occupancy
  Li  Li0  1  0.00029200  0.25460500  0.24635300  1
  Li  Li1  1  0.50029200  0.24539500  0.75364700  1
  Li  Li2  1  0.99970800  0.75460500  0.25364700  1
  Li  Li3  1  0.49970800  0.74539500  0.74635300  1
  Ti  Ti0  1  0.99839600  0.99864000  0.97675600  1
  Ti  Ti1  1  0.49839600  0.50136000  0.02324400  1
  Ti  Ti2  1  0.00160400  0.49864000  0.52324400  1
  Ti  Ti3  1  0.50160400  0.00136000  0.47675600  1
  Si  Si0  1  0.55175700  0.00051500  0.15666800  1
  Si  Si1  1  0.05175700  0.49948500  0.84333200  1
  Si  Si2  1  0.44824300  0.50051500  0.34333200  1
  Si  Si3  1  0.94824300  0.99948500  0.65666800  1
  O  O0  1  0.69055000  0.99967200  0.30170700  1
  O  O1  1  0.21579300  0.00112000  0.15341000  1
  O  O2  1  0.79877400  0.21291500  0.57607500  1
  O  O3  1  0.70195900  0.21362800  0.07643100  1
  O  O4  1  0.20195900  0.28637200  0.92356900  1
  O  O5  1  0.30945000  0.49967200  0.19829300  1
  O  O6  1  0.71579300  0.49888000  0.84659000  1
  O  O7  1  0.29877400  0.28708500  0.42392500  1
  O  O8  1  0.20122600  0.71291500  0.92392500  1
  O  O9  1  0.78420700  0.50112000  0.34659000  1
  O  O10  1  0.19055000  0.50032800  0.69829300  1
  O  O11  1  0.29804100  0.71362800  0.42356900  1
  O  O12  1  0.79804100  0.78637200  0.57643100  1
  O  O13  1  0.70122600  0.78708500  0.07607500  1
  O  O14  1  0.28420700  0.99888000  0.65341000  1
  O  O15  1  0.80945000  0.00032800  0.80170700  1
loop_
_geom_bond_atom_site_label_1
_geom_bond_atom_site_label_2
_geom_bond_distance
_geom_bond_site_symmetry_2
Li0 O1 2.063311 1_555
Li0 O9 2.071538 1_455
Li0 O5 2.136543 1_555
Li0 O0 2.197167 1_445
Li0 O3 2.280943 1_455
Li0 O7 2.338251 1_555
Li1 O6 2.063311 1_555
Li1 O14 2.071538 1_545
Li1 O15 2.136543 1_555
Li1 O10 2.197167 1_555
Li1 O4 2.280943 1_555
Li1 O2 2.338251 1_555
Li2 O9 2.063311 1_555
Li2 O1 2.071538 1_665
Li2 O0 2.136543 1_555
Li2 O5 2.197167 1_655
Li2 O11 2.280943 1_655
Li2 O13 2.338251 1_555
Li3 O14 2.063311 1_555
Li3 O6 2.071538 1_555
Li3 O10 2.136543 1_555
Li3 O15 2.197167 1_565
Li3 O12 2.280943 1_555
Li3 O8 2.338251 1_555
O0 Si0 1.642129 1_565
O0 Ti3 2.025873 1_565
O1 Si0 1.613533 1_555
O1 Ti0 2.105057 1_444
O2 Si3 1.677459 1_545
O2 Ti2 2.029981 1_655
O2 Ti3 2.160444 1_555
O3 Si0 1.675722 1_555
O3 Ti1 2.042607 1_555
O3 Ti0 2.171776 1_544
O4 Si1 1.675722 1_555
O4 Ti0 2.042607 1_445
O4 Ti1 2.171776 1_556
O5 Si2 1.642129 1_555
O5 Ti1 2.025873 1_555
O6 Si1 1.613533 1_655
O6 Ti1 2.105057 1_556
O7 Si2 1.677459 1_555
O7 Ti3 2.029981 1_555
O7 Ti2 2.160444 1_555
O8 Si1 1.677459 1_555
O8 Ti0 2.029981 1_455
O8 Ti1 2.160444 1_556
O9 Si2 1.613533 1_555
O9 Ti2 2.105057 1_655
O10 Si1 1.642129 1_555
O10 Ti2 2.025873 1_555
O11 Si2 1.675722 1_555
O11 Ti3 2.042607 1_565
O11 Ti2 2.171776 1_555
O12 Si3 1.675722 1_555
O12 Ti2 2.042607 1_655
O12 Ti3 2.171776 1_565
O13 Si0 1.677459 1_565
O13 Ti1 2.029981 1_555
O13 Ti0 2.160444 1_554
O14 Si3 1.613533 1_455
O14 Ti3 2.105057 1_565
O15 Si3 1.642129 1_545
O15 Ti0 2.025873 1_545
