# generated using pymatgen
data_Fe5O7F3
_symmetry_space_group_name_H-M   'P 1'
_cell_length_a   4.66629574
_cell_length_b   4.66629574
_cell_length_c   15.26319089
_cell_angle_alpha   89.92892878
_cell_angle_beta   89.92892878
_cell_angle_gamma   88.49819491
_symmetry_Int_Tables_number   1
_chemical_formula_structural   Fe5O7F3
_chemical_formula_sum   'Fe10 O14 F6'
_cell_volume   332.23088200
_cell_formula_units_Z   2
loop_
 _symmetry_equiv_pos_site_id
 _symmetry_equiv_pos_as_xyz
  1  'x, y, z'
loop_
 _atom_site_type_symbol
 _atom_site_label
 _atom_site_symmetry_multiplicity
 _atom_site_fract_x
 _atom_site_fract_y
 _atom_site_fract_z
 _atom_site_occupancy
  Fe  Fe0  1  0.03281400  0.01463700  0.70620000  1
  Fe  Fe1  1  0.02370600  0.01899300  0.90111100  1
  Fe  Fe2  1  0.98100700  0.97629400  0.09888900  1
  Fe  Fe3  1  0.98536300  0.96718600  0.29380000  1
  Fe  Fe4  1  0.01486800  0.98513200  0.50000000  1
  Fe  Fe5  1  0.49102000  0.48085500  0.79916400  1
  Fe  Fe6  1  0.51914500  0.50898000  0.20083600  1
  Fe  Fe7  1  0.50210000  0.49790000  0.00000000  1
  Fe  Fe8  1  0.48704000  0.52518500  0.40448200  1
  Fe  Fe9  1  0.47481500  0.51296000  0.59551800  1
  O  O0  1  0.20876200  0.80699100  0.80468300  1
  O  O1  1  0.19674200  0.80325800  0.00000000  1
  O  O2  1  0.19300900  0.79123800  0.19531700  1
  O  O3  1  0.17900100  0.80907200  0.39613000  1
  O  O4  1  0.19092800  0.82099900  0.60387000  1
  O  O5  1  0.68687900  0.67825300  0.09622600  1
  O  O6  1  0.68185500  0.68578800  0.30211200  1
  O  O7  1  0.69231500  0.70570800  0.50197000  1
  O  O8  1  0.31421200  0.31814500  0.69788800  1
  O  O9  1  0.32174700  0.31312100  0.90377400  1
  O  O10  1  0.29429200  0.30768500  0.49803000  1
  O  O11  1  0.81652500  0.19884000  0.80192900  1
  O  O12  1  0.80116000  0.18347500  0.19807100  1
  O  O13  1  0.80885100  0.19114900  0.00000000  1
  F  F0  1  0.70340500  0.70375200  0.69993700  1
  F  F1  1  0.70563900  0.69906600  0.89847800  1
  F  F2  1  0.30093400  0.29436100  0.10152200  1
  F  F3  1  0.29624800  0.29659500  0.30006300  1
  F  F4  1  0.80123600  0.20561700  0.60212100  1
  F  F5  1  0.79438300  0.19876400  0.39787900  1
loop_
_geom_bond_atom_site_label_1
_geom_bond_atom_site_label_2
_geom_bond_distance
_geom_bond_site_symmetry_2
Fe0 O4 1.940612 1_545
Fe0 O0 1.957084 1_545
Fe0 O8 1.960280 1_555
Fe0 O11 1.961206 1_455
Fe1 O0 1.961172 1_545
Fe1 O13 1.971221 1_456
Fe1 O11 1.971947 1_455
Fe1 O1 1.974889 1_546
Fe1 O9 1.979870 1_555
Fe2 O2 1.961172 1_655
Fe2 O13 1.971221 1_565
Fe2 O12 1.971947 1_565
Fe2 O1 1.974889 1_655
Fe2 O5 1.979870 1_555
Fe3 O3 1.940612 1_655
Fe3 O2 1.957084 1_655
Fe3 O6 1.960280 1_555
Fe3 O12 1.961206 1_565
Fe4 O3 1.934483 1_555
Fe4 O4 1.934483 1_555
Fe4 O7 2.017192 1_455
Fe4 O10 2.017192 1_565
Fe5 O8 1.919777 1_555
Fe5 O9 1.952458 1_555
Fe5 O11 1.983900 1_555
Fe5 O0 1.988176 1_555
Fe6 O6 1.919777 1_555
Fe6 O5 1.952458 1_555
Fe6 O12 1.983900 1_555
Fe6 O2 1.988176 1_555
Fe7 O5 1.911302 1_555
Fe7 O9 1.911302 1_554
Fe7 O1 1.988518 1_555
Fe7 O13 1.997590 1_555
Fe8 O3 1.933244 1_555
Fe8 O6 1.964356 1_555
Fe8 O7 1.972342 1_555
Fe8 O10 1.979599 1_555
Fe9 O4 1.933244 1_555
Fe9 O8 1.964356 1_555
Fe9 O10 1.972342 1_555
Fe9 O7 1.979599 1_555
F0 Fe5 2.098611 1_555
F0 Fe9 2.127912 1_555
F0 Fe0 2.143349 1_665
F1 Fe7 2.055189 1_556
F1 Fe5 2.097285 1_555
F1 Fe1 2.132970 1_665
F2 Fe7 2.055189 1_555
F2 Fe6 2.097285 1_555
F2 Fe2 2.132970 1_445
F3 Fe6 2.098611 1_555
F3 Fe8 2.127912 1_555
F3 Fe3 2.143349 1_445
F4 Fe9 2.067012 1_555
F4 Fe4 2.104320 1_645
F4 Fe0 2.106122 1_655
F5 Fe8 2.067012 1_555
F5 Fe4 2.104320 1_645
F5 Fe3 2.106122 1_545
