# generated using pymatgen
data_Li7Ti12NbO30
_symmetry_space_group_name_H-M   'P 1'
_cell_length_a   23.75377501
_cell_length_b   23.75377501
_cell_length_c   23.75377473
_cell_angle_alpha   12.42428854
_cell_angle_beta   12.42428854
_cell_angle_gamma   12.42429009
_symmetry_Int_Tables_number   1
_chemical_formula_structural   Li7Ti12NbO30
_chemical_formula_sum   'Li7 Ti12 Nb1 O30'
_cell_volume   539.39506097
_cell_formula_units_Z   1
loop_
 _symmetry_equiv_pos_site_id
 _symmetry_equiv_pos_as_xyz
  1  'x, y, z'
loop_
 _atom_site_type_symbol
 _atom_site_label
 _atom_site_symmetry_multiplicity
 _atom_site_fract_x
 _atom_site_fract_y
 _atom_site_fract_z
 _atom_site_occupancy
  Li  Li0  1  0.02584200  0.02584200  0.02584200  1
  Li  Li1  1  0.24570200  0.24570200  0.24570200  1
  Li  Li2  1  0.60841300  0.60841300  0.60841300  1
  Li  Li3  1  0.39089900  0.39089900  0.39089900  1
  Li  Li4  1  0.52625500  0.52625500  0.52625500  1
  Li  Li5  1  0.97383900  0.97383900  0.97383900  1
  Li  Li6  1  0.89011200  0.89011200  0.89011200  1
  Ti  Ti0  1  0.10492800  0.10492800  0.10492800  1
  Ti  Ti1  1  0.16205400  0.16205400  0.16205400  1
  Ti  Ti2  1  0.20383800  0.20383800  0.20383800  1
  Ti  Ti3  1  0.06505200  0.06505200  0.06505200  1
  Ti  Ti4  1  0.29601300  0.29601300  0.29601300  1
  Ti  Ti5  1  0.66216500  0.66216500  0.66216500  1
  Ti  Ti6  1  0.33820300  0.33820300  0.33820300  1
  Ti  Ti7  1  0.43244900  0.43244900  0.43244900  1
  Ti  Ti8  1  0.56621900  0.56621900  0.56621900  1
  Ti  Ti9  1  0.70439200  0.70439200  0.70439200  1
  Ti  Ti10  1  0.79772400  0.79772400  0.79772400  1
  Ti  Ti11  1  0.83805400  0.83805400  0.83805400  1
  Nb  Nb0  1  0.93209400  0.93209400  0.93209400  1
  O  O0  1  0.59578800  0.00596800  0.35083800  1
  O  O1  1  0.75956300  0.01574700  0.37477800  1
  O  O2  1  0.35083800  0.59578800  0.00596800  1
  O  O3  1  0.90472800  0.14892500  0.49537700  1
  O  O4  1  0.00596800  0.35083800  0.59578800  1
  O  O5  1  0.86981600  0.25471200  0.62511500  1
  O  O6  1  0.77936200  0.11194400  0.45738300  1
  O  O7  1  0.50640400  0.06782100  0.87610700  1
  O  O8  1  0.62175700  0.24410900  0.98516800  1
  O  O9  1  0.76295400  0.32751000  0.16390000  1
  O  O10  1  0.87975500  0.50774600  0.26355100  1
  O  O11  1  0.98516800  0.62175700  0.24410900  1
  O  O12  1  0.87610700  0.50640400  0.06782100  1
  O  O13  1  0.50774600  0.26355100  0.87975500  1
  O  O14  1  0.32751000  0.16390000  0.76295400  1
  O  O15  1  0.62511500  0.86981600  0.25471200  1
  O  O16  1  0.45738300  0.77936200  0.11194400  1
  O  O17  1  0.14892500  0.49537700  0.90472800  1
  O  O18  1  0.01574700  0.37477800  0.75956300  1
  O  O19  1  0.11194400  0.45738300  0.77936200  1
  O  O20  1  0.25471200  0.62511500  0.86981600  1
  O  O21  1  0.37477800  0.75956300  0.01574700  1
  O  O22  1  0.49537700  0.90472800  0.14892500  1
  O  O23  1  0.26355100  0.87975500  0.50774600  1
  O  O24  1  0.16390000  0.76295400  0.32751000  1
  O  O25  1  0.99475700  0.64811500  0.40670500  1
  O  O26  1  0.06782100  0.87610700  0.50640400  1
  O  O27  1  0.64811500  0.40670500  0.99475700  1
  O  O28  1  0.24410900  0.98516800  0.62175700  1
  O  O29  1  0.40670500  0.99475700  0.64811500  1
loop_
_geom_bond_atom_site_label_1
_geom_bond_atom_site_label_2
_geom_bond_distance
_geom_bond_site_symmetry_2
Li0 O29 2.060410 1_544
Li0 O25 2.060410 1_445
Li0 O27 2.060411 1_454
Li0 O1 2.334190 1_455
Li0 O18 2.334190 1_554
Li0 O21 2.334190 1_545
Li1 O5 1.963892 1_455
Li1 O20 1.963892 1_554
Li1 O15 1.963892 1_545
Li1 O13 2.600319 1_554
Li1 O23 2.600319 1_545
Li1 O10 2.600319 1_455
Li2 O8 1.999587 1_555
Li2 O11 1.999587 1_555
Li2 O28 1.999587 1_555
Li2 O15 2.389292 1_555
Li2 O20 2.389292 1_555
Li2 O5 2.389292 1_555
Li3 O21 1.985133 1_555
Li3 O18 1.985133 1_555
Li3 O1 1.985133 1_555
Li3 O14 2.497639 1_555
Li3 O9 2.497639 1_555
Li3 O24 2.497639 1_555
Li4 O22 2.067353 1_555
Li4 O17 2.067353 1_555
Li4 O3 2.067353 1_555
Li4 O13 2.333891 1_555
Li4 O10 2.333891 1_555
Li4 O23 2.333891 1_555
Li5 O0 2.076642 1_566
Li5 O4 2.076642 1_665
Li5 O2 2.076642 1_656
Li5 O28 2.311354 1_655
Li5 O11 2.311354 1_556
Li5 O8 2.311354 1_565
Li6 O23 1.995248 1_655
Li6 O10 1.995248 1_556
Li6 O13 1.995248 1_565
Li6 O15 2.481064 1_556
Li6 O5 2.481064 1_565
Li6 O20 2.481064 1_655
Nb0 O5 1.967334 1_565
Nb0 O15 1.967334 1_556
Nb0 O20 1.967334 1_655
Nb0 O11 2.061096 1_556
Nb0 O28 2.061096 1_655
Nb0 O8 2.061096 1_565
O0 Ti5 1.879931 1_545
O0 Ti6 2.111061 1_555
O0 Ti4 2.152938 1_555
O1 Ti9 1.872859 1_545
O1 Ti3 1.911049 1_655
O2 Ti5 1.879931 1_554
O2 Ti6 2.111061 1_555
O2 Ti4 2.152938 1_555
O3 Ti11 1.886092 1_545
O3 Ti2 2.120499 1_655
O3 Ti1 2.126794 1_655
O4 Ti5 1.879931 1_455
O4 Ti6 2.111061 1_555
O4 Ti4 2.152938 1_555
O5 Ti8 1.994603 1_555
O6 Ti0 1.917330 1_655
O6 Ti10 1.982435 1_545
O6 Ti7 2.099613 1_555
O7 Ti1 1.863343 1_556
O7 Ti10 1.991721 1_545
O7 Ti11 2.101235 1_545
O8 Ti4 1.862542 1_556
O9 Ti7 1.886777 1_555
O9 Ti3 2.043761 1_655
O9 Ti0 2.063369 1_655
O10 Ti2 1.875313 1_655
O10 Ti8 1.950237 1_555
O11 Ti4 1.862542 1_655
O12 Ti1 1.863343 1_655
O12 Ti10 1.991721 1_554
O12 Ti11 2.101235 1_554
O13 Ti2 1.875313 1_556
O13 Ti8 1.950237 1_555
O14 Ti7 1.886777 1_555
O14 Ti3 2.043761 1_556
O14 Ti0 2.063369 1_556
O15 Ti8 1.994603 1_555
O16 Ti0 1.917331 1_565
O16 Ti10 1.982435 1_554
O16 Ti7 2.099613 1_555
O17 Ti11 1.886092 1_455
O17 Ti2 2.120499 1_556
O17 Ti1 2.126794 1_556
O18 Ti9 1.872860 1_455
O18 Ti3 1.911049 1_556
O19 Ti0 1.917330 1_556
O19 Ti10 1.982435 1_455
O19 Ti7 2.099613 1_555
O20 Ti8 1.994603 1_555
O21 Ti9 1.872859 1_554
O21 Ti3 1.911049 1_565
O22 Ti11 1.886092 1_554
O22 Ti2 2.120499 1_565
O22 Ti1 2.126794 1_565
O23 Ti2 1.875313 1_565
O23 Ti8 1.950237 1_555
O24 Ti7 1.886777 1_555
O24 Ti3 2.043761 1_565
O24 Ti0 2.063369 1_565
O25 Ti6 1.887740 1_655
O25 Ti5 2.125878 1_555
O25 Ti9 2.134417 1_555
O26 Ti1 1.863343 1_565
O26 Ti10 1.991721 1_455
O26 Ti11 2.101235 1_455
O27 Ti6 1.887740 1_556
O27 Ti5 2.125878 1_555
O27 Ti9 2.134417 1_555
O28 Ti4 1.862542 1_565
O29 Ti6 1.887740 1_565
O29 Ti5 2.125878 1_555
O29 Ti9 2.134417 1_555
