# generated using pymatgen
data_Ti17(NO4)6
_symmetry_space_group_name_H-M   'P 1'
_cell_length_a   10.03944300
_cell_length_b   7.50049700
_cell_length_c   15.00148162
_cell_angle_alpha   80.27427204
_cell_angle_beta   90.00000000
_cell_angle_gamma   90.00000000
_symmetry_Int_Tables_number   1
_chemical_formula_structural   Ti17(NO4)6
_chemical_formula_sum   'Ti34 N12 O48'
_cell_volume   1113.38847046
_cell_formula_units_Z   2
loop_
 _symmetry_equiv_pos_site_id
 _symmetry_equiv_pos_as_xyz
  1  'x, y, z'
loop_
 _atom_site_type_symbol
 _atom_site_label
 _atom_site_symmetry_multiplicity
 _atom_site_fract_x
 _atom_site_fract_y
 _atom_site_fract_z
 _atom_site_occupancy
  Ti  Ti0  1  0.92792900  0.85896100  0.57019800  1
  Ti  Ti1  1  0.57207100  0.85896100  0.57019800  1
  Ti  Ti2  1  0.42792900  0.14103900  0.42980200  1
  Ti  Ti3  1  0.07207100  0.14103900  0.42980200  1
  Ti  Ti4  1  0.25000000  0.13288700  0.26308500  1
  Ti  Ti5  1  0.75000000  0.53053500  0.56737400  1
  Ti  Ti6  1  0.56948600  0.53326400  0.40033000  1
  Ti  Ti7  1  0.25000000  0.46946500  0.43262600  1
  Ti  Ti8  1  0.93051400  0.53326400  0.40033000  1
  Ti  Ti9  1  0.06002900  0.80547100  0.26378600  1
  Ti  Ti10  1  0.43997100  0.80547100  0.26378600  1
  Ti  Ti11  1  0.75000000  0.20007600  0.40270500  1
  Ti  Ti12  1  0.25000000  0.80750400  0.09967300  1
  Ti  Ti13  1  0.92292300  0.86411200  0.07258500  1
  Ti  Ti14  1  0.57707700  0.86411200  0.07258500  1
  Ti  Ti15  1  0.07707700  0.13588800  0.92741500  1
  Ti  Ti16  1  0.42292300  0.13588800  0.92741500  1
  Ti  Ti17  1  0.92265000  0.18632400  0.23579700  1
  Ti  Ti18  1  0.75000000  0.53068700  0.06656900  1
  Ti  Ti19  1  0.57735000  0.18632400  0.23579700  1
  Ti  Ti20  1  0.42970000  0.47180100  0.09791900  1
  Ti  Ti21  1  0.07030000  0.47180100  0.09791900  1
  Ti  Ti22  1  0.92970000  0.52819900  0.90208100  1
  Ti  Ti23  1  0.57030000  0.52819900  0.90208100  1
  Ti  Ti24  1  0.75000000  0.86711300  0.73691500  1
  Ti  Ti25  1  0.25000000  0.46931300  0.93343100  1
  Ti  Ti26  1  0.42265000  0.81367600  0.76420300  1
  Ti  Ti27  1  0.07735000  0.81367600  0.76420300  1
  Ti  Ti28  1  0.25000000  0.79992400  0.59729500  1
  Ti  Ti29  1  0.75000000  0.19249600  0.90032700  1
  Ti  Ti30  1  0.93997100  0.19452900  0.73621400  1
  Ti  Ti31  1  0.43051400  0.46673600  0.59967000  1
  Ti  Ti32  1  0.06948600  0.46673600  0.59967000  1
  Ti  Ti33  1  0.56002900  0.19452900  0.73621400  1
  N  N0  1  0.75000000  0.12614200  0.28290900  1
  N  N1  1  0.25000000  0.56611600  0.55119000  1
  N  N2  1  0.75000000  0.43388400  0.44881000  1
  N  N3  1  0.25000000  0.89834400  0.21689600  1
  N  N4  1  0.25000000  0.22861800  0.38392600  1
  N  N5  1  0.75000000  0.76715400  0.10353400  1
  N  N6  1  0.75000000  0.10165600  0.78310400  1
  N  N7  1  0.25000000  0.56193000  0.05355700  1
  N  N8  1  0.75000000  0.43807000  0.94644300  1
  N  N9  1  0.25000000  0.87385800  0.71709100  1
  N  N10  1  0.25000000  0.23284600  0.89646600  1
  N  N11  1  0.75000000  0.77138200  0.61607400  1
  O  O0  1  0.11850300  0.95257300  0.52338200  1
  O  O1  1  0.38149700  0.95257300  0.52338200  1
  O  O2  1  0.88149700  0.04742700  0.47661800  1
  O  O3  1  0.61850300  0.04742700  0.47661800  1
  O  O4  1  0.43737300  0.02100500  0.32227800  1
  O  O5  1  0.06262700  0.02100500  0.32227800  1
  O  O6  1  0.93251000  0.64755300  0.50908200  1
  O  O7  1  0.56749000  0.64755300  0.50908200  1
  O  O8  1  0.43251000  0.35244700  0.49091800  1
  O  O9  1  0.06749000  0.35244700  0.49091800  1
  O  O10  1  0.12191400  0.61705800  0.35806300  1
  O  O11  1  0.37808600  0.61705800  0.35806300  1
  O  O12  1  0.60876900  0.71039600  0.31055100  1
  O  O13  1  0.89123100  0.71039600  0.31055100  1
  O  O14  1  0.95072800  0.99018600  0.17160100  1
  O  O15  1  0.54927200  0.99018600  0.17160100  1
  O  O16  1  0.06291400  0.68796700  0.15559600  1
  O  O17  1  0.88016500  0.05106000  0.97744700  1
  O  O18  1  0.56199300  0.30927900  0.34597100  1
  O  O19  1  0.11983500  0.94894000  0.02255300  1
  O  O20  1  0.93800700  0.30927900  0.34597100  1
  O  O21  1  0.43708600  0.68796700  0.15559600  1
  O  O22  1  0.38016500  0.94894000  0.02255300  1
  O  O23  1  0.61983500  0.05106000  0.97744700  1
  O  O24  1  0.37978900  0.28808800  0.19123900  1
  O  O25  1  0.12021100  0.28808800  0.19123900  1
  O  O26  1  0.88175600  0.38066000  0.14214900  1
  O  O27  1  0.93633100  0.64265300  0.01087300  1
  O  O28  1  0.45072800  0.00981400  0.82839900  1
  O  O29  1  0.04927200  0.00981400  0.82839900  1
  O  O30  1  0.61824400  0.38066000  0.14214900  1
  O  O31  1  0.56366900  0.64265300  0.01087300  1
  O  O32  1  0.43633100  0.35734700  0.98912700  1
  O  O33  1  0.87978900  0.71191200  0.80876100  1
  O  O34  1  0.62021100  0.71191200  0.80876100  1
  O  O35  1  0.56262700  0.97899500  0.67772200  1
  O  O36  1  0.93737300  0.97899500  0.67772200  1
  O  O37  1  0.06366900  0.35734700  0.98912700  1
  O  O38  1  0.38175600  0.61934000  0.85785100  1
  O  O39  1  0.11824400  0.61934000  0.85785100  1
  O  O40  1  0.56291400  0.31203300  0.84440400  1
  O  O41  1  0.93708600  0.31203300  0.84440400  1
  O  O42  1  0.43800700  0.69072100  0.65402900  1
  O  O43  1  0.06199300  0.69072100  0.65402900  1
  O  O44  1  0.87808600  0.38294200  0.64193700  1
  O  O45  1  0.10876900  0.28960400  0.68944900  1
  O  O46  1  0.39123100  0.28960400  0.68944900  1
  O  O47  1  0.62191400  0.38294200  0.64193700  1
loop_
_geom_bond_atom_site_label_1
_geom_bond_atom_site_label_2
_geom_bond_distance
_geom_bond_site_symmetry_2
N0 Ti19 1.897322 1_555
N0 Ti17 1.897322 1_555
N0 Ti11 1.968211 1_555
N1 Ti28 1.990867 1_555
N1 Ti7 2.030937 1_555
N1 Ti31 2.045892 1_555
N1 Ti32 2.045892 1_555
N2 Ti11 1.990867 1_555
N2 Ti5 2.030937 1_555
N2 Ti8 2.045892 1_555
N2 Ti6 2.045892 1_555
N3 Ti12 1.990335 1_555
N3 Ti4 1.996672 1_565
N3 Ti10 2.109956 1_555
N3 Ti9 2.109956 1_555
N4 Ti2 1.985771 1_555
N4 Ti3 1.985771 1_555
N4 Ti4 2.059506 1_555
N4 Ti7 2.059849 1_555
N5 Ti13 1.908984 1_555
N5 Ti14 1.908984 1_555
N5 Ti18 1.945644 1_555
N6 Ti29 1.990335 1_555
N6 Ti24 1.996672 1_545
N6 Ti30 2.109956 1_555
N6 Ti33 2.109956 1_555
N7 Ti21 2.000653 1_555
N7 Ti20 2.000653 1_555
N7 Ti25 2.037885 1_554
N7 Ti12 2.074083 1_555
N8 Ti23 2.000653 1_555
N8 Ti22 2.000653 1_555
N8 Ti18 2.037885 1_556
N8 Ti29 2.074083 1_555
N9 Ti27 1.897322 1_555
N9 Ti26 1.897322 1_555
N9 Ti28 1.968211 1_555
N10 Ti16 1.908984 1_555
N10 Ti15 1.908984 1_555
N10 Ti25 1.945644 1_555
N11 Ti0 1.985771 1_555
N11 Ti1 1.985771 1_555
N11 Ti24 2.059506 1_555
N11 Ti5 2.059849 1_555
O0 Ti3 1.875052 1_565
O0 Ti28 1.963220 1_555
O0 Ti0 2.116643 1_455
O1 Ti2 1.875052 1_565
O1 Ti28 1.963220 1_555
O1 Ti1 2.116643 1_555
O2 Ti0 1.875052 1_545
O2 Ti11 1.963220 1_555
O2 Ti3 2.116643 1_655
O3 Ti1 1.875052 1_545
O3 Ti11 1.963220 1_555
O3 Ti2 2.116643 1_555
O4 Ti10 1.965536 1_545
O4 Ti2 1.977888 1_555
O4 Ti19 2.156842 1_555
O4 Ti4 2.186223 1_555
O5 Ti9 1.965536 1_545
O5 Ti3 1.977888 1_555
O5 Ti17 2.156842 1_455
O5 Ti4 2.186223 1_555
O6 Ti0 1.961685 1_555
O6 Ti8 1.967064 1_555
O6 Ti5 2.152450 1_555
O6 Ti32 2.225861 1_655
O7 Ti1 1.961685 1_555
O7 Ti6 1.967064 1_555
O7 Ti5 2.152450 1_555
O7 Ti31 2.225861 1_555
O8 Ti2 1.961685 1_555
O8 Ti31 1.967064 1_555
O8 Ti7 2.152450 1_555
O8 Ti6 2.225861 1_555
O9 Ti3 1.961685 1_555
O9 Ti32 1.967064 1_555
O9 Ti7 2.152450 1_555
O9 Ti8 2.225861 1_455
O10 Ti9 1.925633 1_555
O10 Ti7 1.926621 1_555
O10 Ti8 2.086806 1_455
O11 Ti10 1.925633 1_555
O11 Ti7 1.926621 1_555
O11 Ti6 2.086806 1_555
O12 Ti6 1.769185 1_555
O12 Ti10 1.924438 1_555
O13 Ti8 1.769185 1_555
O13 Ti9 1.924438 1_655
O14 Ti17 1.910444 1_565
O14 Ti13 1.911297 1_555
O14 Ti9 2.094924 1_655
O15 Ti19 1.910444 1_565
O15 Ti14 1.911297 1_555
O15 Ti10 2.094924 1_555
O16 Ti21 1.963899 1_555
O16 Ti9 1.973587 1_555
O16 Ti13 2.171547 1_455
O16 Ti12 2.186623 1_555
O17 Ti13 1.873827 1_546
O17 Ti29 1.938261 1_555
O17 Ti15 2.171379 1_655
O18 Ti6 1.988946 1_555
O18 Ti19 2.030002 1_555
O18 Ti2 2.109321 1_555
O18 Ti11 2.173090 1_555
O19 Ti15 1.873827 1_564
O19 Ti12 1.938261 1_555
O19 Ti13 2.171379 1_455
O20 Ti8 1.988946 1_555
O20 Ti17 2.030002 1_555
O20 Ti3 2.109321 1_655
O20 Ti11 2.173090 1_555
O21 Ti20 1.963899 1_555
O21 Ti10 1.973587 1_555
O21 Ti14 2.171547 1_555
O21 Ti12 2.186623 1_555
O22 Ti16 1.873827 1_564
O22 Ti12 1.938261 1_555
O22 Ti14 2.171379 1_555
O23 Ti14 1.873827 1_546
O23 Ti29 1.938261 1_555
O23 Ti16 2.171379 1_555
O24 Ti20 1.859536 1_555
O24 Ti4 1.946965 1_555
O24 Ti19 2.188815 1_555
O25 Ti21 1.859536 1_555
O25 Ti4 1.946965 1_555
O25 Ti17 2.188815 1_455
O26 Ti17 1.890759 1_555
O26 Ti18 1.967333 1_555
O26 Ti21 2.082618 1_655
O27 Ti22 1.969342 1_554
O27 Ti13 2.038092 1_555
O27 Ti21 2.142644 1_655
O27 Ti18 2.160014 1_555
O28 Ti26 1.910444 1_545
O28 Ti16 1.911297 1_555
O28 Ti33 2.094924 1_555
O29 Ti27 1.910444 1_545
O29 Ti15 1.911297 1_555
O29 Ti30 2.094924 1_455
O30 Ti19 1.890759 1_555
O30 Ti18 1.967333 1_555
O30 Ti20 2.082618 1_555
O31 Ti23 1.969342 1_554
O31 Ti14 2.038092 1_555
O31 Ti20 2.142644 1_555
O31 Ti18 2.160014 1_555
O32 Ti20 1.969342 1_556
O32 Ti16 2.038092 1_555
O32 Ti23 2.142644 1_555
O32 Ti25 2.160014 1_555
O33 Ti22 1.859536 1_555
O33 Ti24 1.946965 1_555
O33 Ti27 2.188815 1_655
O34 Ti23 1.859536 1_555
O34 Ti24 1.946965 1_555
O34 Ti26 2.188815 1_555
O35 Ti33 1.965536 1_565
O35 Ti1 1.977888 1_555
O35 Ti26 2.156842 1_555
O35 Ti24 2.186223 1_555
O36 Ti30 1.965536 1_565
O36 Ti0 1.977888 1_555
O36 Ti27 2.156842 1_655
O36 Ti24 2.186223 1_555
O37 Ti21 1.969342 1_556
O37 Ti15 2.038092 1_555
O37 Ti22 2.142644 1_455
O37 Ti25 2.160014 1_555
O38 Ti26 1.890759 1_555
O38 Ti25 1.967333 1_555
O38 Ti23 2.082618 1_555
O39 Ti27 1.890759 1_555
O39 Ti25 1.967333 1_555
O39 Ti22 2.082618 1_455
O40 Ti23 1.963899 1_555
O40 Ti33 1.973587 1_555
O40 Ti16 2.171547 1_555
O40 Ti29 2.186623 1_555
O41 Ti22 1.963899 1_555
O41 Ti30 1.973587 1_555
O41 Ti15 2.171547 1_655
O41 Ti29 2.186623 1_555
O42 Ti31 1.988946 1_555
O42 Ti26 2.030002 1_555
O42 Ti1 2.109321 1_555
O42 Ti28 2.173090 1_555
O43 Ti32 1.988946 1_555
O43 Ti27 2.030002 1_555
O43 Ti0 2.109321 1_455
O43 Ti28 2.173090 1_555
O44 Ti30 1.925633 1_555
O44 Ti5 1.926621 1_555
O44 Ti32 2.086806 1_655
O45 Ti32 1.769185 1_555
O45 Ti30 1.924438 1_455
O46 Ti31 1.769185 1_555
O46 Ti33 1.924438 1_555
O47 Ti33 1.925633 1_555
O47 Ti5 1.926621 1_555
O47 Ti31 2.086806 1_555
