# generated using pymatgen
data_TaSb3O8
_symmetry_space_group_name_H-M   'P 1'
_cell_length_a   5.57879800
_cell_length_b   4.96108960
_cell_length_c   23.91264076
_cell_angle_alpha   90.00410259
_cell_angle_beta   90.04287005
_cell_angle_gamma   90.02807570
_symmetry_Int_Tables_number   1
_chemical_formula_structural   TaSb3O8
_chemical_formula_sum   'Ta4 Sb12 O32'
_cell_volume   661.82790017
_cell_formula_units_Z   4
loop_
 _symmetry_equiv_pos_site_id
 _symmetry_equiv_pos_as_xyz
  1  'x, y, z'
loop_
 _atom_site_type_symbol
 _atom_site_label
 _atom_site_symmetry_multiplicity
 _atom_site_fract_x
 _atom_site_fract_y
 _atom_site_fract_z
 _atom_site_occupancy
  Ta  Ta0  1  0.87067900  0.99694900  0.42768300  1
  Ta  Ta1  1  0.63457200  0.50256800  0.17778700  1
  Ta  Ta2  1  0.37035200  0.50248500  0.42762900  1
  Ta  Ta3  1  0.36547600  0.49736300  0.92773000  1
  Sb  Sb0  1  0.01777400  0.45181600  0.30222700  1
  Sb  Sb1  1  0.01826000  0.45698800  0.80211400  1
  Sb  Sb2  1  0.86573000  0.99779800  0.92688300  1
  Sb  Sb3  1  0.63383000  0.50059900  0.67786200  1
  Sb  Sb4  1  0.48301700  0.95338700  0.05227300  1
  Sb  Sb5  1  0.48532500  0.95505500  0.55249900  1
  Sb  Sb6  1  0.52011900  0.04831400  0.30244300  1
  Sb  Sb7  1  0.51611300  0.04348800  0.80232500  1
  Sb  Sb8  1  0.13414500  0.00274100  0.17704100  1
  Sb  Sb9  1  0.13386800  0.99952000  0.67774700  1
  Sb  Sb10  1  0.98304500  0.54605900  0.05195100  1
  Sb  Sb11  1  0.98509800  0.54459200  0.55255400  1
  O  O0  1  0.91894600  0.28960700  0.14938500  1
  O  O1  1  0.92192300  0.29531400  0.64827200  1
  O  O2  1  0.85609700  0.78974800  0.70648800  1
  O  O3  1  0.86256100  0.78487300  0.20378500  1
  O  O4  1  0.84506500  0.16523800  0.34914100  1
  O  O5  1  0.84383400  0.16303200  0.84773900  1
  O  O6  1  0.82153000  0.83746800  0.50502200  1
  O  O7  1  0.82033500  0.84122200  0.00477600  1
  O  O8  1  0.68011100  0.34189400  0.25439700  1
  O  O9  1  0.67907300  0.34296400  0.75516700  1
  O  O10  1  0.65786500  0.66116500  0.59876700  1
  O  O11  1  0.65613200  0.66444200  0.09860000  1
  O  O12  1  0.63734500  0.28370000  0.95210800  1
  O  O13  1  0.63170900  0.27970600  0.45237200  1
  O  O14  1  0.57646200  0.78845900  0.40082500  1
  O  O15  1  0.57856600  0.79109300  0.90032600  1
  O  O16  1  0.42242800  0.20448100  0.64829000  1
  O  O17  1  0.42111500  0.20939200  0.15058300  1
  O  O18  1  0.35589600  0.71024500  0.70632600  1
  O  O19  1  0.36302700  0.71665600  0.20212800  1
  O  O20  1  0.34514300  0.33484500  0.34870700  1
  O  O21  1  0.34373400  0.33443800  0.84873300  1
  O  O22  1  0.32155100  0.66239200  0.50491200  1
  O  O23  1  0.32140200  0.65813700  0.00456800  1
  O  O24  1  0.18055800  0.15695300  0.25522800  1
  O  O25  1  0.17945300  0.15880900  0.75459200  1
  O  O26  1  0.15600700  0.83813500  0.09810800  1
  O  O27  1  0.15782600  0.83861500  0.59873200  1
  O  O28  1  0.13196100  0.21963400  0.45243300  1
  O  O29  1  0.13739500  0.21568000  0.95379000  1
  O  O30  1  0.08112500  0.71090600  0.89931400  1
  O  O31  1  0.07642400  0.71103800  0.40083700  1
loop_
_geom_bond_atom_site_label_1
_geom_bond_atom_site_label_2
_geom_bond_distance
_geom_bond_site_symmetry_2
O0 Sb8 1.976033 1_655
O0 Ta1 2.024234 1_555
O0 Sb10 2.678853 1_555
O1 Sb9 2.012184 1_645
O1 Sb3 2.030816 1_555
O1 Sb11 2.625591 1_555
O2 Sb9 1.989186 1_655
O2 Sb3 2.015130 1_555
O3 Sb8 1.967933 1_665
O3 Ta1 1.990650 1_555
O4 Sb0 2.051515 1_655
O4 Ta0 2.060302 1_545
O4 Sb6 2.205801 1_555
O5 Sb1 2.065042 1_655
O5 Sb2 2.066056 1_545
O5 Sb7 2.206711 1_555
O6 Ta0 2.030305 1_555
O6 Sb11 2.058087 1_555
O6 Sb5 2.269654 1_555
O7 Sb2 2.034118 1_554
O7 Sb10 2.059320 1_555
O7 Sb4 2.268272 1_555
O8 Ta1 2.013873 1_555
O8 Sb6 2.058757 1_555
O8 Sb0 2.269304 1_655
O9 Sb3 2.022918 1_555
O9 Sb7 2.075086 1_555
O9 Sb1 2.270815 1_655
O10 Sb3 2.056768 1_555
O10 Sb5 2.067958 1_555
O10 Sb11 2.211857 1_555
O11 Sb4 2.052997 1_555
O11 Ta1 2.060452 1_555
O11 Sb10 2.217984 1_555
O12 Ta3 1.940142 1_555
O12 Sb2 2.000457 1_545
O13 Ta2 1.922996 1_555
O13 Ta0 2.023998 1_545
O14 Ta2 1.935312 1_555
O14 Ta0 2.042821 1_555
O14 Sb6 2.700939 1_565
O15 Ta3 1.991414 1_555
O15 Sb2 2.004538 1_555
O15 Sb7 2.679687 1_565
O16 Sb3 2.011475 1_555
O16 Sb9 2.030228 1_545
O16 Sb5 2.627258 1_545
O17 Ta1 1.988406 1_555
O17 Sb8 2.003592 1_555
O17 Sb4 2.694446 1_545
O18 Sb3 1.988029 1_555
O18 Sb9 2.015309 1_555
O19 Ta1 1.940253 1_555
O19 Sb8 2.001365 1_565
O20 Sb6 2.049438 1_555
O20 Ta2 2.066973 1_555
O20 Sb0 2.214871 1_555
O21 Ta3 2.058107 1_555
O21 Sb7 2.059742 1_555
O21 Sb1 2.215287 1_555
O22 Ta2 2.029649 1_555
O22 Sb5 2.057830 1_555
O22 Sb11 2.272616 1_455
O23 Ta3 2.018252 1_554
O23 Sb4 2.063173 1_555
O23 Sb10 2.271204 1_455
O24 Sb8 2.036383 1_555
O24 Sb0 2.056769 1_555
O24 Sb6 2.269720 1_555
O25 Sb9 2.016113 1_545
O25 Sb1 2.071455 1_555
O25 Sb7 2.270590 1_555
O26 Sb8 2.060247 1_565
O26 Sb10 2.060523 1_455
O26 Sb4 2.204186 1_555
O27 Sb9 2.055579 1_555
O27 Sb11 2.066985 1_455
O27 Sb5 2.212723 1_555
O28 Ta0 1.921592 1_445
O28 Ta2 2.022154 1_555
O29 Sb2 1.968799 1_445
O29 Ta3 1.989932 1_555
O30 Sb2 1.976628 1_455
O30 Ta3 2.025010 1_555
O30 Sb1 2.666497 1_555
O31 Ta0 1.934965 1_455
O31 Ta2 2.042051 1_555
O31 Sb0 2.705401 1_555
