# generated using pymatgen
data_LiV(CO3)2
_symmetry_space_group_name_H-M   'P 1'
_cell_length_a   7.42650220
_cell_length_b   4.76125300
_cell_length_c   6.20540092
_cell_angle_alpha   89.99990203
_cell_angle_beta   107.63724864
_cell_angle_gamma   89.99988695
_symmetry_Int_Tables_number   1
_chemical_formula_structural   LiV(CO3)2
_chemical_formula_sum   'Li2 V2 C4 O12'
_cell_volume   209.10553846
_cell_formula_units_Z   2
loop_
 _symmetry_equiv_pos_site_id
 _symmetry_equiv_pos_as_xyz
  1  'x, y, z'
loop_
 _atom_site_type_symbol
 _atom_site_label
 _atom_site_symmetry_multiplicity
 _atom_site_fract_x
 _atom_site_fract_y
 _atom_site_fract_z
 _atom_site_occupancy
  Li  Li0  1  0.06982100  0.02792500  0.18159000  1
  Li  Li1  1  0.93017200  0.52792500  0.81839900  1
  V  V0  1  0.38351200  0.50536800  0.76121600  1
  V  V1  1  0.61649400  0.00536400  0.23879400  1
  C  C0  1  0.13704000  0.02412100  0.75960500  1
  C  C1  1  0.38479300  0.45937200  0.24765100  1
  C  C2  1  0.61520800  0.95937300  0.75234700  1
  C  C3  1  0.86295900  0.52412000  0.24039400  1
  O  O0  1  0.02953300  0.91767700  0.86200400  1
  O  O1  1  0.14486100  0.30486000  0.74313000  1
  O  O2  1  0.23874100  0.88002100  0.66542000  1
  O  O3  1  0.36295500  0.55267100  0.42814800  1
  O  O4  1  0.36383100  0.19409600  0.19491600  1
  O  O5  1  0.57266900  0.13388900  0.89541500  1
  O  O6  1  0.42732800  0.63388600  0.10459400  1
  O  O7  1  0.63617200  0.69409100  0.80508200  1
  O  O8  1  0.63704600  0.05267800  0.57184800  1
  O  O9  1  0.76126000  0.38002500  0.33458700  1
  O  O10  1  0.85514100  0.80485700  0.25687100  1
  O  O11  1  0.97046300  0.41767600  0.13798800  1
loop_
_geom_bond_atom_site_label_1
_geom_bond_atom_site_label_2
_geom_bond_distance
_geom_bond_site_symmetry_2
Li0 O0 1.984546 1_544
Li0 O11 1.985025 1_455
Li0 O10 2.083132 1_445
Li0 O4 2.300201 1_555
Li1 O11 1.984559 1_556
Li1 O0 1.985040 1_655
Li1 O1 2.083144 1_655
Li1 O7 2.300134 1_555
C0 O0 1.267081 1_545
C0 O2 1.284626 1_545
C0 O1 1.343171 1_555
C1 O3 1.260253 1_555
C1 O4 1.302205 1_555
C1 O6 1.322185 1_555
C2 O8 1.260274 1_565
C2 O7 1.302232 1_555
C2 O5 1.322256 1_565
C3 O11 1.267093 1_555
C3 O9 1.284635 1_555
C3 O10 1.343161 1_555
O1 V0 1.986116 1_555
O2 V0 2.074610 1_555
O3 V0 2.038276 1_555
O4 V1 2.023091 1_555
O5 V1 2.144871 1_556
O5 V0 2.255280 1_555
O6 V0 2.144868 1_554
O6 V1 2.255318 1_565
O7 V0 2.023067 1_555
O8 V1 2.038205 1_555
O9 V1 2.074629 1_555
O10 V1 1.986096 1_565
