# generated using pymatgen
data_Cs4HfO4
_symmetry_space_group_name_H-M   'P 1'
_cell_length_a   7.37301492
_cell_length_b   11.78327292
_cell_length_c   11.80260525
_cell_angle_alpha   68.28481060
_cell_angle_beta   90.00000000
_cell_angle_gamma   90.00000000
_symmetry_Int_Tables_number   1
_chemical_formula_structural   Cs4HfO4
_chemical_formula_sum   'Cs16 Hf4 O16'
_cell_volume   952.62238306
_cell_formula_units_Z   4
loop_
 _symmetry_equiv_pos_site_id
 _symmetry_equiv_pos_as_xyz
  1  'x, y, z'
loop_
 _atom_site_type_symbol
 _atom_site_label
 _atom_site_symmetry_multiplicity
 _atom_site_fract_x
 _atom_site_fract_y
 _atom_site_fract_z
 _atom_site_occupancy
  Cs  Cs0  1  0.58666200  0.29850598  0.06203716  1
  Cs  Cs1  1  0.11361952  0.41531482  0.15661411  1
  Cs  Cs2  1  0.91333800  0.79850598  0.06203716  1
  Cs  Cs3  1  0.34019757  0.10823047  0.36875452  1
  Cs  Cs4  1  0.38638048  0.91531482  0.15661411  1
  Cs  Cs5  1  0.82595918  0.20736070  0.42766444  1
  Cs  Cs6  1  0.15980243  0.60823047  0.36875452  1
  Cs  Cs7  1  0.32595918  0.29263930  0.57233556  1
  Cs  Cs8  1  0.67404082  0.70736070  0.42766444  1
  Cs  Cs9  1  0.84019757  0.39176953  0.63124548  1
  Cs  Cs10  1  0.17404082  0.79263930  0.57233556  1
  Cs  Cs11  1  0.61361952  0.08468518  0.84338589  1
  Cs  Cs12  1  0.65980243  0.89176953  0.63124548  1
  Cs  Cs13  1  0.08666200  0.20149402  0.93796284  1
  Cs  Cs14  1  0.88638048  0.58468518  0.84338589  1
  Cs  Cs15  1  0.41333800  0.70149402  0.93796284  1
  Hf  Hf0  1  0.87490715  0.00813627  0.24229799  1
  Hf  Hf1  1  0.62509285  0.50813627  0.24229799  1
  Hf  Hf2  1  0.37490715  0.49186373  0.75770201  1
  Hf  Hf3  1  0.12509285  0.99186373  0.75770201  1
  O  O0  1  0.76915730  0.02213156  0.08596503  1
  O  O1  1  0.01101327  0.15813324  0.21803468  1
  O  O2  1  0.73084270  0.52213156  0.08596503  1
  O  O3  1  0.47131541  0.36192663  0.30386890  1
  O  O4  1  0.48898673  0.65813324  0.21803468  1
  O  O5  1  0.82004817  0.48913325  0.36041238  1
  O  O6  1  0.02868459  0.86192663  0.30386890  1
  O  O7  1  0.32004817  0.01086675  0.63958762  1
  O  O8  1  0.67995183  0.98913325  0.36041238  1
  O  O9  1  0.97131541  0.13807337  0.69613110  1
  O  O10  1  0.17995183  0.51086675  0.63958762  1
  O  O11  1  0.51101327  0.34186676  0.78196532  1
  O  O12  1  0.52868459  0.63807337  0.69613110  1
  O  O13  1  0.26915730  0.47786844  0.91403497  1
  O  O14  1  0.98898673  0.84186676  0.78196532  1
  O  O15  1  0.23084270  0.97786844  0.91403497  1
loop_
_geom_bond_atom_site_label_1
_geom_bond_atom_site_label_2
_geom_bond_distance
_geom_bond_site_symmetry_2
Cs0 O2 2.950244 1_555
Cs0 O11 3.201438 1_554
Cs0 O13 3.204114 1_554
Cs0 O3 3.317653 1_555
Cs0 O0 3.437308 1_555
Cs0 O1 3.696123 1_655
Cs1 O13 2.914436 1_554
Cs1 O1 2.942070 1_555
Cs1 O2 3.076977 1_455
Cs1 O3 3.092351 1_555
Cs1 O5 3.574298 1_455
Cs2 O0 2.950244 1_565
Cs2 O14 3.201438 1_554
Cs2 O15 3.204114 1_654
Cs2 O6 3.317653 1_655
Cs2 O2 3.437308 1_555
Cs2 O4 3.696123 1_555
Cs3 O8 2.890750 1_545
Cs3 O1 2.937156 1_555
Cs3 O3 2.960292 1_555
Cs3 O7 2.973617 1_555
Cs4 O15 2.914436 1_554
Cs4 O4 2.942070 1_555
Cs4 O0 3.076977 1_565
Cs4 O6 3.092351 1_555
Cs4 O8 3.574298 1_555
Cs5 O1 3.062946 1_655
Cs5 O5 3.115368 1_555
Cs5 O8 3.148263 1_545
Cs5 O9 3.152917 1_555
Cs5 O3 3.212462 1_555
Cs6 O5 2.890750 1_455
Cs6 O4 2.937156 1_555
Cs6 O6 2.960292 1_555
Cs6 O10 2.973617 1_555
Cs7 O11 3.062946 1_555
Cs7 O7 3.115368 1_555
Cs7 O10 3.148263 1_555
Cs7 O3 3.152917 1_555
Cs7 O9 3.212462 1_455
Cs8 O4 3.062946 1_555
Cs8 O8 3.115368 1_555
Cs8 O5 3.148263 1_555
Cs8 O12 3.152917 1_555
Cs8 O6 3.212462 1_655
Cs9 O10 2.890750 1_655
Cs9 O11 2.937156 1_555
Cs9 O9 2.960292 1_555
Cs9 O5 2.973617 1_555
Cs10 O14 3.062946 1_455
Cs10 O10 3.115368 1_555
Cs10 O7 3.148263 1_565
Cs10 O6 3.152917 1_555
Cs10 O12 3.212462 1_555
Cs11 O0 2.914436 1_556
Cs11 O11 2.942070 1_555
Cs11 O15 3.076977 1_545
Cs11 O9 3.092351 1_555
Cs11 O7 3.574298 1_555
Cs12 O7 2.890750 1_565
Cs12 O14 2.937156 1_555
Cs12 O12 2.960292 1_555
Cs12 O8 2.973617 1_555
Cs13 O15 2.950244 1_545
Cs13 O1 3.201438 1_556
Cs13 O0 3.204114 1_456
Cs13 O9 3.317653 1_455
Cs13 O13 3.437308 1_555
Cs13 O11 3.696123 1_555
Cs14 O2 2.914436 1_556
Cs14 O14 2.942070 1_555
Cs14 O13 3.076977 1_655
Cs14 O12 3.092351 1_555
Cs14 O10 3.574298 1_655
Cs15 O13 2.950244 1_555
Cs15 O4 3.201438 1_556
Cs15 O2 3.204114 1_556
Cs15 O12 3.317653 1_555
Cs15 O15 3.437308 1_555
Cs15 O14 3.696123 1_455
Hf0 O0 1.953070 1_555
Hf0 O8 1.956704 1_545
Hf0 O1 1.959184 1_655
Hf0 O6 1.963490 1_645
Hf1 O2 1.953070 1_555
Hf1 O5 1.956704 1_555
Hf1 O4 1.959184 1_555
Hf1 O3 1.963490 1_555
Hf2 O13 1.953070 1_555
Hf2 O10 1.956704 1_555
Hf2 O11 1.959184 1_555
Hf2 O12 1.963490 1_555
Hf3 O15 1.953070 1_555
Hf3 O7 1.956704 1_565
Hf3 O14 1.959184 1_455
Hf3 O9 1.963490 1_465
