# generated using pymatgen
data_LiCoSiO4
_symmetry_space_group_name_H-M   'P 1'
_cell_length_a   5.50274500
_cell_length_b   6.26268100
_cell_length_c   8.09632200
_cell_angle_alpha   89.99987227
_cell_angle_beta   90.00000000
_cell_angle_gamma   90.00000000
_symmetry_Int_Tables_number   1
_chemical_formula_structural   LiCoSiO4
_chemical_formula_sum   'Li4 Co4 Si4 O16'
_cell_volume   279.01493513
_cell_formula_units_Z   4
loop_
 _symmetry_equiv_pos_site_id
 _symmetry_equiv_pos_as_xyz
  1  'x, y, z'
loop_
 _atom_site_type_symbol
 _atom_site_label
 _atom_site_symmetry_multiplicity
 _atom_site_fract_x
 _atom_site_fract_y
 _atom_site_fract_z
 _atom_site_occupancy
  Li  Li0  1  0.00000000  0.75000000  0.32657300  1
  Li  Li1  1  0.50000000  0.75000000  0.82657200  1
  Li  Li2  1  0.00000000  0.25000000  0.67342700  1
  Li  Li3  1  0.50000000  0.25000000  0.17342800  1
  Co  Co0  1  0.50000000  0.00000000  0.50000000  1
  Co  Co1  1  0.50000000  0.50000000  0.50000000  1
  Co  Co2  1  0.00000000  0.00000000  0.00000000  1
  Co  Co3  1  0.00000000  0.50000000  0.00000000  1
  Si  Si0  1  0.00000000  0.25000000  0.34779100  1
  Si  Si1  1  0.50000000  0.25000100  0.84779100  1
  Si  Si2  1  0.00000000  0.75000000  0.65220900  1
  Si  Si3  1  0.50000000  0.74999900  0.15220900  1
  O  O0  1  0.24009500  0.75000000  0.52763600  1
  O  O1  1  0.74009500  0.75000000  0.02763500  1
  O  O2  1  0.24009500  0.25000000  0.47236400  1
  O  O3  1  0.74009500  0.25000000  0.97236500  1
  O  O4  1  0.75990500  0.25000000  0.47236400  1
  O  O5  1  0.25990500  0.25000000  0.97236500  1
  O  O6  1  0.75990500  0.75000000  0.52763600  1
  O  O7  1  0.25990500  0.75000000  0.02763500  1
  O  O8  1  0.00000000  0.03669400  0.23061400  1
  O  O9  1  0.50000000  0.03668900  0.73061400  1
  O  O10  1  0.00000000  0.46330500  0.23061400  1
  O  O11  1  0.50000000  0.46331000  0.73061500  1
  O  O12  1  0.00000000  0.53669500  0.76938600  1
  O  O13  1  0.50000000  0.53669000  0.26938500  1
  O  O14  1  0.00000000  0.96330600  0.76938600  1
  O  O15  1  0.50000000  0.96331100  0.26938600  1
loop_
_geom_bond_atom_site_label_1
_geom_bond_atom_site_label_2
_geom_bond_distance
_geom_bond_site_symmetry_2
Li0 O8 1.956352 1_565
Li0 O10 1.956361 1_555
Li0 O0 2.096541 1_555
Li0 O6 2.096541 1_455
Li1 O9 1.956320 1_565
Li1 O11 1.956326 1_555
Li1 O7 2.096541 1_556
Li1 O1 2.096541 1_556
Li2 O14 1.956352 1_545
Li2 O12 1.956361 1_555
Li2 O2 2.096541 1_555
Li2 O4 2.096541 1_455
Li3 O15 1.956320 1_545
Li3 O13 1.956326 1_555
Li3 O5 2.096541 1_554
Li3 O3 2.096541 1_554
Co0 O9 1.881211 1_555
Co0 O15 1.881211 1_545
Co0 O4 2.132330 1_555
Co0 O6 2.132330 1_545
Co0 O0 2.132330 1_545
Co0 O2 2.132330 1_555
Co1 O11 1.881218 1_555
Co1 O13 1.881218 1_555
Co1 O4 2.132331 1_555
Co1 O6 2.132331 1_555
Co1 O2 2.132331 1_555
Co1 O0 2.132331 1_555
Co2 O8 1.881214 1_555
Co2 O14 1.881214 1_544
Co2 O7 2.132329 1_545
Co2 O1 2.132329 1_445
Co2 O3 2.132329 1_454
Co2 O5 2.132329 1_554
Co3 O10 1.881214 1_555
Co3 O12 1.881214 1_554
Co3 O1 2.132330 1_455
Co3 O7 2.132330 1_555
Co3 O5 2.132330 1_554
Co3 O3 2.132330 1_454
O0 Si2 1.662155 1_555
O1 Si3 1.662160 1_555
O2 Si0 1.662155 1_555
O3 Si1 1.662160 1_555
O4 Si0 1.662155 1_655
O5 Si1 1.662160 1_555
O6 Si2 1.662155 1_655
O7 Si3 1.662160 1_555
O8 Si0 1.638470 1_555
O9 Si1 1.638501 1_555
O10 Si0 1.638462 1_555
O11 Si1 1.638477 1_555
O12 Si2 1.638462 1_555
O13 Si3 1.638477 1_555
O14 Si2 1.638470 1_555
O15 Si3 1.638501 1_555
