# generated using pymatgen
data_Li3V3P8O29
_symmetry_space_group_name_H-M   'P 1'
_cell_length_a   9.75641000
_cell_length_b   9.77127110
_cell_length_c   14.23165197
_cell_angle_alpha   90.31589400
_cell_angle_beta   89.97658513
_cell_angle_gamma   119.86465860
_symmetry_Int_Tables_number   1
_chemical_formula_structural   Li3V3P8O29
_chemical_formula_sum   'Li6 V6 P16 O58'
_cell_volume   1176.54772028
_cell_formula_units_Z   2
loop_
 _symmetry_equiv_pos_site_id
 _symmetry_equiv_pos_as_xyz
  1  'x, y, z'
loop_
 _atom_site_type_symbol
 _atom_site_label
 _atom_site_symmetry_multiplicity
 _atom_site_fract_x
 _atom_site_fract_y
 _atom_site_fract_z
 _atom_site_occupancy
  Li  Li0  1  0.30755300  0.08379400  0.94408200  1
  Li  Li1  1  0.91439500  0.22245700  0.94379000  1
  Li  Li2  1  0.77686900  0.69256400  0.94212700  1
  Li  Li3  1  0.90289000  0.67222100  0.44081600  1
  Li  Li4  1  0.33780100  0.66689800  0.39400300  1
  Li  Li5  1  0.02017800  0.05090300  0.49345800  1
  V  V0  1  0.00098100  0.43472000  0.74692100  1
  V  V1  1  0.99920700  0.56904300  0.24619000  1
  V  V2  1  0.43098900  0.42523400  0.25024600  1
  V  V3  1  0.56063500  0.56273100  0.74636400  1
  V  V4  1  0.43767800  0.99942600  0.74430200  1
  V  V5  1  0.57223500  0.00414000  0.25308800  1
  P  P0  1  0.31423300  0.08131300  0.15927800  1
  P  P1  1  0.30543300  0.22197800  0.65658000  1
  P  P2  1  0.77855100  0.08218100  0.65596600  1
  P  P3  1  0.66700300  0.33326500  0.86752200  1
  P  P4  1  0.66953600  0.33726800  0.37082500  1
  P  P5  1  0.91344500  0.22881200  0.15944800  1
  P  P6  1  0.08870400  0.31125100  0.34072000  1
  P  P7  1  0.76591800  0.68283300  0.15681200  1
  P  P8  1  0.22834400  0.31436400  0.84103100  1
  P  P9  1  0.91160800  0.68454800  0.65721900  1
  P  P10  1  0.08864700  0.77306100  0.83778400  1
  P  P11  1  0.33177100  0.66534100  0.63071200  1
  P  P12  1  0.33726000  0.66736900  0.13264600  1
  P  P13  1  0.22035600  0.91186200  0.34227500  1
  P  P14  1  0.68947000  0.77705800  0.33915500  1
  P  P15  1  0.68513500  0.91341700  0.84003900  1
  O  O0  1  0.19889200  0.99362000  0.42369100  1
  O  O1  1  0.34658400  0.08823300  0.67022900  1
  O  O2  1  0.23929800  0.23253500  0.92545400  1
  O  O3  1  0.33907000  0.25155400  0.17027400  1
  O  O4  1  0.47456000  0.09181500  0.18335700  1
  O  O5  1  0.52010700  0.18231000  0.82450300  1
  O  O6  1  0.61796900  0.08193900  0.67021800  1
  O  O7  1  0.76779500  0.00592500  0.92497700  1
  O  O8  1  0.74385000  0.08509000  0.17062600  1
  O  O9  1  0.52269300  0.33847900  0.32463500  1
  O  O10  1  0.46434500  0.38238600  0.67134300  1
  O  O11  1  0.66557900  0.18672300  0.32719500  1
  O  O12  1  0.66730200  0.33497800  0.97199300  1
  O  O13  1  0.66995400  0.34407200  0.47479500  1
  O  O14  1  0.81880600  0.33574700  0.82655200  1
  O  O15  1  0.61716400  0.52360900  0.18011000  1
  O  O16  1  0.66262700  0.48011600  0.82458500  1
  O  O17  1  0.91282500  0.25666900  0.67131500  1
  O  O18  1  0.01152600  0.21287300  0.24405200  1
  O  O19  1  0.00729300  0.21205900  0.42258900  1
  O  O20  1  0.98749800  0.23994500  0.06719700  1
  O  O21  1  0.90328800  0.38024600  0.18268500  1
  O  O22  1  0.81925200  0.48676500  0.32965500  1
  O  O23  1  0.08416800  0.34120500  0.83965800  1
  O  O24  1  0.90814500  0.52483400  0.67519500  1
  O  O25  1  0.74127200  0.65504900  0.67184300  1
  O  O26  1  0.20265600  0.20816900  0.74821300  1
  O  O27  1  0.21606400  0.20703500  0.57022600  1
  O  O28  1  0.79442200  0.78708400  0.41770100  1
  O  O29  1  0.26432100  0.34873000  0.33362400  1
  O  O30  1  0.09650200  0.47355100  0.33203100  1
  O  O31  1  0.91195200  0.65805000  0.16972400  1
  O  O32  1  0.18463800  0.51656700  0.67336900  1
  O  O33  1  0.09505300  0.61877100  0.82014200  1
  O  O34  1  0.99214500  0.76389500  0.92032300  1
  O  O35  1  0.97914100  0.75438300  0.56483800  1
  O  O36  1  0.01236600  0.79860200  0.74190900  1
  O  O37  1  0.08068500  0.73505200  0.33794900  1
  O  O38  1  0.34265000  0.52411900  0.17813700  1
  O  O39  1  0.38106900  0.47525500  0.82141700  1
  O  O40  1  0.18273600  0.65833400  0.17898900  1
  O  O41  1  0.33349200  0.66835800  0.02896400  1
  O  O42  1  0.33064800  0.66479300  0.52630000  1
  O  O43  1  0.33033100  0.81346200  0.67329400  1
  O  O44  1  0.52554100  0.62453700  0.33262600  1
  O  O45  1  0.48137900  0.66765400  0.67374600  1
  O  O46  1  0.25859100  0.91692800  0.83789300  1
  O  O47  1  0.19913700  0.98346600  0.24369700  1
  O  O48  1  0.24962700  0.00817800  0.06679700  1
  O  O49  1  0.37521000  0.90276400  0.33380800  1
  O  O50  1  0.47717200  0.81818600  0.18039600  1
  O  O51  1  0.52498600  0.90720600  0.81994200  1
  O  O52  1  0.65706000  0.74217600  0.83855900  1
  O  O53  1  0.76054200  0.74841000  0.06463500  1
  O  O54  1  0.78282200  0.79970900  0.24065800  1
  O  O55  1  0.65563700  0.91737500  0.33764100  1
  O  O56  1  0.79549900  0.01003800  0.56890500  1
  O  O57  1  0.79162200  0.99336700  0.74767900  1
loop_
_geom_bond_atom_site_label_1
_geom_bond_atom_site_label_2
_geom_bond_distance
_geom_bond_site_symmetry_2
Li0 O48 1.874279 1_556
Li0 O2 1.895877 1_555
Li0 O46 2.090046 1_545
Li0 O5 2.479997 1_555
Li1 O20 1.870498 1_556
Li1 O7 1.890569 1_555
Li1 O23 2.095007 1_655
Li1 O14 2.434918 1_555
Li2 O53 1.854389 1_556
Li2 O34 1.880791 1_555
Li2 O52 2.085060 1_555
Li2 O16 2.451301 1_555
Li3 O28 1.917042 1_555
Li3 O35 1.924571 1_555
Li3 O37 2.115734 1_655
Li3 O22 2.224688 1_555
Li4 O42 1.883915 1_555
Li4 O44 2.244794 1_555
Li4 O49 2.315725 1_555
Li4 O30 2.333082 1_555
Li5 O19 1.930669 1_555
Li5 O27 2.062327 1_555
Li5 O56 2.290976 1_455
Li5 O0 2.302980 1_545
O0 P13 1.476758 1_555
O1 P1 1.559552 1_555
O1 V4 1.852861 1_545
O2 P8 1.479895 1_555
O3 P0 1.563989 1_555
O3 V2 1.855664 1_555
O4 P0 1.554003 1_555
O4 V5 1.857441 1_555
O5 P3 1.577961 1_555
O5 V4 1.920923 1_545
O6 P2 1.578532 1_555
O6 V4 1.857740 1_545
O7 P15 1.480347 1_545
O8 P5 1.556727 1_555
O8 V5 1.869767 1_555
O9 P4 1.581935 1_555
O9 V2 1.845510 1_555
O10 P1 1.575155 1_555
O10 V3 1.859890 1_555
O11 P4 1.576172 1_555
O11 V5 1.867225 1_555
O12 P3 1.486785 1_555
O13 P4 1.480708 1_555
O14 P3 1.580428 1_555
O14 V0 1.917614 1_655
O15 P7 1.547053 1_555
O15 V2 1.868113 1_555
O16 P3 1.582695 1_555
O16 V3 1.921428 1_555
O17 P2 1.562859 1_555
O17 V0 1.847768 1_655
O18 P5 1.594092 1_455
O18 P6 1.627610 1_555
O19 P6 1.474051 1_555
O20 P5 1.476489 1_555
O21 P5 1.565028 1_555
O21 V1 1.832704 1_555
O22 P4 1.579403 1_555
O22 V1 1.934668 1_555
O23 P8 1.554121 1_555
O23 V0 1.997070 1_555
O24 P9 1.566516 1_555
O24 V0 1.855433 1_655
O25 P9 1.552908 1_555
O25 V3 1.862849 1_555
O26 P1 1.609489 1_555
O26 P8 1.615744 1_555
O27 P1 1.471059 1_555
O28 P14 1.485756 1_555
O29 P6 1.566967 1_555
O29 V2 1.846243 1_555
O30 P6 1.555018 1_555
O30 V1 2.039553 1_455
O31 P7 1.570569 1_555
O31 V1 1.847676 1_555
O32 P11 1.572650 1_555
O32 V0 1.877906 1_555
O33 P10 1.558680 1_555
O33 V0 1.870512 1_555
O34 P10 1.480063 1_655
O35 P9 1.479766 1_555
O36 P9 1.598798 1_455
O36 P10 1.633239 1_555
O37 P13 1.581072 1_555
O37 V1 1.913586 1_455
O38 P12 1.569870 1_555
O38 V2 1.889601 1_555
O39 P8 1.562454 1_555
O39 V3 1.859552 1_555
O40 P12 1.607146 1_555
O40 V1 1.825932 1_455
O41 P12 1.476244 1_555
O42 P11 1.485961 1_555
O43 P11 1.572509 1_555
O43 V4 1.872245 1_555
O44 P14 1.553202 1_555
O44 V2 2.050517 1_555
O45 P11 1.572852 1_555
O45 V3 1.875885 1_555
O46 P10 1.550479 1_555
O46 V4 2.020895 1_555
O47 P0 1.600257 1_565
O47 P13 1.629694 1_555
O48 P0 1.477149 1_555
O49 P13 1.561567 1_555
O49 V5 2.027413 1_565
O50 P12 1.575810 1_555
O50 V5 1.879813 1_565
O51 P15 1.559668 1_555
O51 V4 1.863402 1_555
O52 P15 1.555115 1_555
O52 V3 2.003471 1_555
O53 P7 1.475478 1_555
O54 P7 1.597771 1_555
O54 P14 1.626377 1_555
O55 P14 1.562154 1_555
O55 V5 1.878290 1_565
O56 P2 1.471641 1_555
O57 P2 1.611163 1_565
O57 P15 1.618430 1_555
