# generated using pymatgen
data_ThH20C4S2N8O15
_symmetry_space_group_name_H-M   'P 1'
_cell_length_a   9.08642216
_cell_length_b   9.08642216
_cell_length_c   32.36221583
_cell_angle_alpha   86.61233822
_cell_angle_beta   93.38766178
_cell_angle_gamma   125.94170516
_symmetry_Int_Tables_number   1
_chemical_formula_structural   ThH20C4S2N8O15
_chemical_formula_sum   'Th4 H80 C16 S8 N32 O60'
_cell_volume   2158.46355522
_cell_formula_units_Z   4
loop_
 _symmetry_equiv_pos_site_id
 _symmetry_equiv_pos_as_xyz
  1  'x, y, z'
loop_
 _atom_site_type_symbol
 _atom_site_label
 _atom_site_symmetry_multiplicity
 _atom_site_fract_x
 _atom_site_fract_y
 _atom_site_fract_z
 _atom_site_occupancy
  Th  Th0  1  0.15588027  0.68631473  0.62113893  1
  Th  Th1  1  0.68631473  0.15588027  0.87886107  1
  Th  Th2  1  0.84411973  0.31368527  0.37886107  1
  Th  Th3  1  0.31368527  0.84411973  0.12113893  1
  H  H0  1  0.38833759  0.18253251  0.73397417  1
  H  H1  1  0.18253251  0.38833759  0.76602583  1
  H  H2  1  0.61166241  0.81746749  0.26602583  1
  H  H3  1  0.81746749  0.61166241  0.23397417  1
  H  H4  1  0.37086990  0.98904874  0.72051683  1
  H  H5  1  0.98904874  0.37086990  0.77948317  1
  H  H6  1  0.62913010  0.01095126  0.27948317  1
  H  H7  1  0.01095126  0.62913010  0.22051683  1
  H  H8  1  0.27419851  0.30549786  0.68337495  1
  H  H9  1  0.30549786  0.27419851  0.81662505  1
  H  H10  1  0.72580149  0.69450214  0.31662505  1
  H  H11  1  0.69450214  0.72580149  0.18337495  1
  H  H12  1  0.20267198  0.20828208  0.63456086  1
  H  H13  1  0.20828208  0.20267198  0.86543914  1
  H  H14  1  0.79732802  0.79171792  0.36543914  1
  H  H15  1  0.79171792  0.79732802  0.13456086  1
  H  H16  1  0.65663958  0.33405519  0.57682731  1
  H  H17  1  0.33405519  0.65663958  0.92317269  1
  H  H18  1  0.34336042  0.66594481  0.42317269  1
  H  H19  1  0.66594481  0.34336042  0.07682731  1
  H  H20  1  0.46661526  0.18170018  0.60729874  1
  H  H21  1  0.18170018  0.46661526  0.89270126  1
  H  H22  1  0.53338474  0.81829982  0.39270126  1
  H  H23  1  0.81829982  0.53338474  0.10729874  1
  H  H24  1  0.77080682  0.21191856  0.53493296  1
  H  H25  1  0.21191856  0.77080682  0.96506704  1
  H  H26  1  0.22919318  0.78808144  0.46506704  1
  H  H27  1  0.78808144  0.22919318  0.03493296  1
  H  H28  1  0.62715954  0.97689478  0.52893670  1
  H  H29  1  0.97689478  0.62715954  0.97106330  1
  H  H30  1  0.37284046  0.02310522  0.47106330  1
  H  H31  1  0.02310522  0.37284046  0.02893670  1
  H  H32  1  0.54751376  0.63111848  0.63535576  1
  H  H33  1  0.63111848  0.54751376  0.86464424  1
  H  H34  1  0.45248624  0.36888152  0.36464424  1
  H  H35  1  0.36888152  0.45248624  0.13535576  1
  H  H36  1  0.67332944  0.61963146  0.59776171  1
  H  H37  1  0.61963146  0.67332944  0.90223829  1
  H  H38  1  0.32667056  0.38036854  0.40223829  1
  H  H39  1  0.38036854  0.32667056  0.09776171  1
  H  H40  1  0.60732144  0.59590149  0.70701324  1
  H  H41  1  0.59590149  0.60732144  0.79298676  1
  H  H42  1  0.39267856  0.40409851  0.29298676  1
  H  H43  1  0.40409851  0.39267856  0.20701324  1
  H  H44  1  0.79375011  0.59105796  0.71980515  1
  H  H45  1  0.59105796  0.79375011  0.78019485  1
  H  H46  1  0.20624989  0.40894204  0.28019485  1
  H  H47  1  0.40894204  0.20624989  0.21980515  1
  H  H48  1  0.69443988  0.95560499  0.65306407  1
  H  H49  1  0.95560499  0.69443988  0.84693593  1
  H  H50  1  0.30556012  0.04439501  0.34693593  1
  H  H51  1  0.04439501  0.30556012  0.15306407  1
  H  H52  1  0.87084220  0.07041130  0.61643346  1
  H  H53  1  0.07041130  0.87084220  0.88356654  1
  H  H54  1  0.12915780  0.92958870  0.38356654  1
  H  H55  1  0.92958870  0.12915780  0.11643346  1
  H  H56  1  0.71078873  0.13200617  0.70796651  1
  H  H57  1  0.13200617  0.71078873  0.79203349  1
  H  H58  1  0.28921127  0.86799383  0.29203349  1
  H  H59  1  0.86799383  0.28921127  0.20796651  1
  H  H60  1  0.86884482  0.36945396  0.70296507  1
  H  H61  1  0.36945396  0.86884482  0.79703493  1
  H  H62  1  0.13115518  0.63054604  0.29703493  1
  H  H63  1  0.63054604  0.13115518  0.20296507  1
  H  H64  1  0.21419597  0.41305754  0.58075352  1
  H  H65  1  0.41305754  0.21419597  0.91924648  1
  H  H66  1  0.78580403  0.58694246  0.41924648  1
  H  H67  1  0.58694246  0.78580403  0.08075352  1
  H  H68  1  0.36557128  0.60064385  0.55892789  1
  H  H69  1  0.60064385  0.36557128  0.94107211  1
  H  H70  1  0.63442872  0.39935615  0.44107211  1
  H  H71  1  0.39935615  0.63442872  0.05892789  1
  H  H72  1  0.03227678  0.17476255  0.54806804  1
  H  H73  1  0.17476255  0.03227678  0.95193196  1
  H  H74  1  0.96772322  0.82523745  0.45193196  1
  H  H75  1  0.82523745  0.96772322  0.04806804  1
  H  H76  1  0.04343097  0.02575289  0.57227598  1
  H  H77  1  0.02575289  0.04343097  0.92772402  1
  H  H78  1  0.95656903  0.97424711  0.42772402  1
  H  H79  1  0.97424711  0.95656903  0.07227598  1
  C  C0  1  0.28228025  0.08520461  0.67508504  1
  C  C1  1  0.08520461  0.28228025  0.82491496  1
  C  C2  1  0.71771975  0.91479539  0.32491496  1
  C  C3  1  0.91479539  0.71771975  0.17508504  1
  C  C4  1  0.53714324  0.06324935  0.57007930  1
  C  C5  1  0.06324935  0.53714324  0.92992070  1
  C  C6  1  0.46285676  0.93675065  0.42992070  1
  C  C7  1  0.93675065  0.46285676  0.07007930  1
  C  C8  1  0.75220931  0.61154222  0.65792270  1
  C  C9  1  0.61154222  0.75220931  0.84207730  1
  C  C10  1  0.24779069  0.38845778  0.34207730  1
  C  C11  1  0.38845778  0.24779069  0.15792270  1
  C  C12  1  0.87963663  0.23245102  0.65786179  1
  C  C13  1  0.23245102  0.87963663  0.84213821  1
  C  C14  1  0.12036337  0.76754898  0.34213821  1
  C  C15  1  0.76754898  0.12036337  0.15786179  1
  S  S0  1  0.36738693  0.69364354  0.70466762  1
  S  S1  1  0.69364354  0.36738693  0.79533238  1
  S  S2  1  0.63261307  0.30635646  0.29533238  1
  S  S3  1  0.30635646  0.63261307  0.20466762  1
  S  S4  1  0.92606764  0.67227824  0.54056208  1
  S  S5  1  0.67227824  0.92606764  0.95943792  1
  S  S6  1  0.07393236  0.32772176  0.45943792  1
  S  S7  1  0.32772176  0.07393236  0.04056208  1
  N  N0  1  0.34345271  0.08174700  0.71359980  1
  N  N1  1  0.08174700  0.34345271  0.78640020  1
  N  N2  1  0.65654729  0.91825300  0.28640020  1
  N  N3  1  0.91825300  0.65654729  0.21359980  1
  N  N4  1  0.25464300  0.21212448  0.66354898  1
  N  N5  1  0.21212448  0.25464300  0.83645102  1
  N  N6  1  0.74535700  0.78787552  0.33645102  1
  N  N7  1  0.78787552  0.74535700  0.16354898  1
  N  N8  1  0.56267514  0.20619147  0.58791453  1
  N  N9  1  0.20619147  0.56267514  0.91208547  1
  N  N10  1  0.43732486  0.79380853  0.41208547  1
  N  N11  1  0.79380853  0.43732486  0.08791453  1
  N  N12  1  0.65276675  0.08942812  0.54178590  1
  N  N13  1  0.08942812  0.65276675  0.95821410  1
  N  N14  1  0.34723325  0.91057188  0.45821410  1
  N  N15  1  0.91057188  0.34723325  0.04178590  1
  N  N16  1  0.64738756  0.61858686  0.62823978  1
  N  N17  1  0.61858686  0.64738756  0.87176022  1
  N  N18  1  0.35261244  0.38141314  0.37176022  1
  N  N19  1  0.38141314  0.35261244  0.12823978  1
  N  N20  1  0.72227681  0.61303540  0.69800966  1
  N  N21  1  0.61303540  0.72227681  0.80199034  1
  N  N22  1  0.27772319  0.38696460  0.30199034  1
  N  N23  1  0.38696460  0.27772319  0.19800966  1
  N  N24  1  0.81256060  0.06989700  0.64276950  1
  N  N25  1  0.06989700  0.81256060  0.85723050  1
  N  N26  1  0.18743940  0.93010300  0.35723050  1
  N  N27  1  0.93010300  0.18743940  0.14276950  1
  N  N28  1  0.80823760  0.24404422  0.69168274  1
  N  N29  1  0.24404422  0.80823760  0.80831726  1
  N  N30  1  0.19176240  0.75595578  0.30831726  1
  N  N31  1  0.75595578  0.19176240  0.19168274  1
  O  O0  1  0.43346665  0.74169242  0.66032490  1
  O  O1  1  0.74169242  0.43346665  0.83967510  1
  O  O2  1  0.56653335  0.25830758  0.33967510  1
  O  O3  1  0.25830758  0.56653335  0.16032490  1
  O  O4  1  0.18147561  0.65211319  0.70102586  1
  O  O5  1  0.65211319  0.18147561  0.79897414  1
  O  O6  1  0.81852439  0.34788681  0.29897414  1
  O  O7  1  0.34788681  0.81852439  0.20102586  1
  O  O8  1  0.48991545  0.85287753  0.73089746  1
  O  O9  1  0.85287753  0.48991545  0.76910254  1
  O  O10  1  0.51008455  0.14712247  0.26910254  1
  O  O11  1  0.14712247  0.51008455  0.23089746  1
  O  O12  1  0.36160025  0.53348210  0.72005052  1
  O  O13  1  0.53348210  0.36160025  0.77994948  1
  O  O14  1  0.63839975  0.46651790  0.27994948  1
  O  O15  1  0.46651790  0.63839975  0.22005052  1
  O  O16  1  0.04009619  0.82735180  0.57029383  1
  O  O17  1  0.82735180  0.04009619  0.92970617  1
  O  O18  1  0.95990381  0.17264820  0.42970617  1
  O  O19  1  0.17264820  0.95990381  0.07029383  1
  O  O20  1  0.95070789  0.52957765  0.55904157  1
  O  O21  1  0.52957765  0.95070789  0.94095843  1
  O  O22  1  0.04929211  0.47042235  0.44095843  1
  O  O23  1  0.47042235  0.04929211  0.05904157  1
  O  O24  1  0.99453541  0.72802807  0.49859712  1
  O  O25  1  0.72802807  0.99453541  0.00140288  1
  O  O26  1  0.00546459  0.27197193  0.50140288  1
  O  O27  1  0.27197193  0.00546459  0.99859712  1
  O  O28  1  0.73130227  0.59769879  0.54267247  1
  O  O29  1  0.59769879  0.73130227  0.95732753  1
  O  O30  1  0.26869773  0.40230121  0.45732753  1
  O  O31  1  0.40230121  0.26869773  0.04267247  1
  O  O32  1  0.25336618  0.97060785  0.64860737  1
  O  O33  1  0.97060785  0.25336618  0.85139263  1
  O  O34  1  0.74663382  0.02939215  0.35139263  1
  O  O35  1  0.02939215  0.74663382  0.14860737  1
  O  O36  1  0.40373783  0.90071398  0.58002062  1
  O  O37  1  0.90071398  0.40373783  0.91997938  1
  O  O38  1  0.59626217  0.09928602  0.41997938  1
  O  O39  1  0.09928602  0.59626217  0.08002062  1
  O  O40  1  0.88210004  0.60254268  0.64856516  1
  O  O41  1  0.60254268  0.88210004  0.85143484  1
  O  O42  1  0.11789996  0.39745732  0.35143484  1
  O  O43  1  0.39745732  0.11789996  0.14856516  1
  O  O44  1  0.01374589  0.37595313  0.64021526  1
  O  O45  1  0.37595313  0.01374589  0.85978474  1
  O  O46  1  0.98625411  0.62404687  0.35978474  1
  O  O47  1  0.62404687  0.98625411  0.14021526  1
  O  O48  1  0.28971088  0.54471312  0.58397274  1
  O  O49  1  0.54471312  0.28971088  0.91602726  1
  O  O50  1  0.71028912  0.45528688  0.41602726  1
  O  O51  1  0.45528688  0.71028912  0.08397274  1
  O  O52  1  0.03766282  0.12954959  0.57633535  1
  O  O53  1  0.12954959  0.03766282  0.92366465  1
  O  O54  1  0.96233718  0.87045041  0.42366465  1
  O  O55  1  0.87045041  0.96233718  0.07633535  1
  O  O56  1  0.52656190  0.70836778  0.51935459  1
  O  O57  1  0.70836778  0.52656190  0.98064541  1
  O  O58  1  0.47343810  0.29163222  0.48064541  1
  O  O59  1  0.29163222  0.47343810  0.01935459  1
loop_
_geom_bond_atom_site_label_1
_geom_bond_atom_site_label_2
_geom_bond_distance
_geom_bond_site_symmetry_2
H0 N0 1.020231 1_555
H1 N1 1.020231 1_555
H2 N2 1.020231 1_555
H3 N3 1.020231 1_555
H4 N0 1.019358 1_565
H5 N1 1.019358 1_655
H6 N2 1.019358 1_545
H7 N3 1.019358 1_455
H8 N4 1.018311 1_555
H9 N5 1.018311 1_555
H10 N6 1.018311 1_555
H11 N7 1.018311 1_555
H12 N4 1.018062 1_555
H13 N5 1.018062 1_555
H14 N6 1.018062 1_555
H15 N7 1.018062 1_555
H16 N8 1.014888 1_555
H17 N9 1.014888 1_555
H18 N10 1.014888 1_555
H19 N11 1.014888 1_555
H20 N8 1.012466 1_555
H21 N9 1.012466 1_555
H22 N10 1.012466 1_555
H23 N11 1.012466 1_555
H24 N12 1.017791 1_555
H25 N13 1.017791 1_555
H26 N14 1.017791 1_555
H27 N15 1.017791 1_555
H28 N12 1.015937 1_565
H29 N13 1.015937 1_655
H30 N14 1.015937 1_545
H31 N15 1.015937 1_455
H32 N16 1.019142 1_555
H33 N17 1.019142 1_555
H34 N18 1.019142 1_555
H35 N19 1.019142 1_555
H36 N16 1.025797 1_555
H37 N17 1.025797 1_555
H38 N18 1.025797 1_555
H39 N19 1.025797 1_555
H40 N20 1.019751 1_555
H41 N21 1.019751 1_555
H42 N22 1.019751 1_555
H43 N23 1.019751 1_555
H44 N20 1.020112 1_555
H45 N21 1.020112 1_555
H46 N22 1.020112 1_555
H47 N23 1.020112 1_555
H48 N24 1.017023 1_565
H49 N25 1.017023 1_655
H50 N26 1.017023 1_545
H51 N27 1.017023 1_455
H52 N24 1.028025 1_555
H53 N25 1.028025 1_555
H54 N26 1.028025 1_555
H55 N27 1.028025 1_555
H56 N28 1.015710 1_555
H57 N29 1.015710 1_555
H58 N30 1.015710 1_555
H59 N31 1.015710 1_555
H60 N28 1.011845 1_555
H61 N29 1.011845 1_555
H62 N30 1.011845 1_555
H63 N31 1.011845 1_555
H64 O48 0.977461 1_555
H65 O49 0.977461 1_555
H66 O50 0.977461 1_555
H67 O51 0.977461 1_555
H68 O48 0.998220 1_555
H69 O49 0.998220 1_555
H70 O50 0.998220 1_555
H71 O51 0.998220 1_555
H72 O52 0.990915 1_555
H73 O53 0.990915 1_555
H74 O54 0.990915 1_555
H75 O55 0.990915 1_555
H76 O52 0.991466 1_555
H77 O53 0.991466 1_555
H78 O54 0.991466 1_555
H79 O55 0.991466 1_555
C0 O32 1.282656 1_545
C0 N0 1.340712 1_555
C0 N4 1.345524 1_555
C1 O33 1.282656 1_455
C1 N1 1.340712 1_555
C1 N5 1.345524 1_555
C2 O34 1.282656 1_565
C2 N2 1.340712 1_555
C2 N6 1.345524 1_555
C3 O35 1.282656 1_655
C3 N3 1.340712 1_555
C3 N7 1.345524 1_555
C4 O36 1.281547 1_545
C4 N8 1.339021 1_555
C4 N12 1.339148 1_555
C5 O37 1.281547 1_455
C5 N9 1.339021 1_555
C5 N13 1.339148 1_555
C6 O38 1.281547 1_565
C6 N10 1.339021 1_555
C6 N14 1.339148 1_555
C7 O39 1.281547 1_655
C7 N11 1.339021 1_555
C7 N15 1.339148 1_555
C8 O40 1.284457 1_555
C8 N16 1.337985 1_555
C8 N20 1.343601 1_555
C9 O41 1.284457 1_555
C9 N17 1.337985 1_555
C9 N21 1.343601 1_555
C10 O42 1.284457 1_555
C10 N18 1.337985 1_555
C10 N22 1.343601 1_555
C11 O43 1.284457 1_555
C11 N19 1.337985 1_555
C11 N23 1.343601 1_555
C12 O44 1.280714 1_655
C12 N24 1.336014 1_555
C12 N28 1.344521 1_555
C13 O45 1.280714 1_565
C13 N25 1.336014 1_555
C13 N29 1.344521 1_555
C14 O46 1.280714 1_455
C14 N26 1.336014 1_555
C14 N30 1.344521 1_555
C15 O47 1.280714 1_545
C15 N27 1.336014 1_555
C15 N31 1.344521 1_555
O0 S0 1.526593 1_555
O0 Th0 2.535884 1_555
O1 S1 1.526593 1_555
O1 Th1 2.535884 1_555
O2 S2 1.526593 1_555
O2 Th2 2.535884 1_555
O3 S3 1.526593 1_555
O3 Th3 2.535884 1_555
O4 S0 1.497769 1_555
O4 Th0 2.598725 1_555
O5 S1 1.497769 1_555
O5 Th1 2.598725 1_555
O6 S2 1.497769 1_555
O6 Th2 2.598725 1_555
O7 S3 1.497769 1_555
O7 Th3 2.598725 1_555
O8 S0 1.481873 1_555
O9 S1 1.481873 1_555
O10 S2 1.481873 1_555
O11 S3 1.481873 1_555
O12 S0 1.481931 1_555
O13 S1 1.481931 1_555
O14 S2 1.481931 1_555
O15 S3 1.481931 1_555
O16 S4 1.520964 1_455
O16 Th0 2.566244 1_555
O17 S5 1.520964 1_545
O17 Th1 2.566244 1_555
O18 S6 1.520964 1_655
O18 Th2 2.566244 1_555
O19 S7 1.520964 1_565
O19 Th3 2.566244 1_555
O20 S4 1.523934 1_555
O20 Th0 2.514157 1_655
O21 S5 1.523934 1_555
O21 Th1 2.514157 1_565
O22 S6 1.523934 1_555
O22 Th2 2.514157 1_455
O23 S7 1.523934 1_555
O23 Th3 2.514157 1_545
O24 S4 1.461717 1_555
O25 S5 1.461717 1_554
O26 S6 1.461717 1_555
O27 S7 1.461717 1_556
O28 S4 1.482148 1_555
O29 S5 1.482148 1_555
O30 S6 1.482148 1_555
O31 S7 1.482148 1_555
O32 Th0 2.395822 1_555
O33 Th1 2.395822 1_555
O34 Th2 2.395822 1_555
O35 Th3 2.395822 1_555
O36 Th0 2.352723 1_555
O37 Th1 2.352723 1_555
O38 Th2 2.352723 1_555
O39 Th3 2.352723 1_555
O40 Th0 2.348175 1_655
O41 Th1 2.348175 1_565
O42 Th2 2.348175 1_455
O43 Th3 2.348175 1_545
O44 Th0 2.369562 1_555
O45 Th1 2.369562 1_555
O46 Th2 2.369562 1_555
O47 Th3 2.369562 1_555
O48 Th0 2.602578 1_555
O49 Th1 2.602578 1_555
O50 Th2 2.602578 1_555
O51 Th3 2.602578 1_555
