# generated using pymatgen
data_Mn5Fe(PO4)6
_symmetry_space_group_name_H-M   'P 1'
_cell_length_a   8.60992999
_cell_length_b   8.60992999
_cell_length_c   8.60993032
_cell_angle_alpha   59.72862362
_cell_angle_beta   59.72862362
_cell_angle_gamma   59.72862960
_symmetry_Int_Tables_number   1
_chemical_formula_structural   Mn5Fe(PO4)6
_chemical_formula_sum   'Mn5 Fe1 P6 O24'
_cell_volume   448.53772290
_cell_formula_units_Z   1
loop_
 _symmetry_equiv_pos_site_id
 _symmetry_equiv_pos_as_xyz
  1  'x, y, z'
loop_
 _atom_site_type_symbol
 _atom_site_label
 _atom_site_symmetry_multiplicity
 _atom_site_fract_x
 _atom_site_fract_y
 _atom_site_fract_z
 _atom_site_occupancy
  Mn  Mn0  1  0.99895200  0.99895200  0.99895200  1
  Mn  Mn1  1  0.35660100  0.35660100  0.35660100  1
  Mn  Mn2  1  0.50041800  0.50041800  0.50041800  1
  Mn  Mn3  1  0.14381000  0.14381000  0.14381000  1
  Mn  Mn4  1  0.64388500  0.64388500  0.64388500  1
  Fe  Fe0  1  0.85547700  0.85547700  0.85547700  1
  P  P0  1  0.04132000  0.45704700  0.74945500  1
  P  P1  1  0.45704700  0.74945500  0.04132000  1
  P  P2  1  0.74945500  0.04132000  0.45704700  1
  P  P3  1  0.25106900  0.96267600  0.53924500  1
  P  P4  1  0.53924500  0.25106900  0.96267600  1
  P  P5  1  0.96267600  0.53924500  0.25106900  1
  O  O0  1  0.48684400  0.69807800  0.88033900  1
  O  O1  1  0.69807800  0.88033900  0.48684400  1
  O  O2  1  0.88033900  0.48684400  0.69807800  1
  O  O3  1  0.05956300  0.26102900  0.91484700  1
  O  O4  1  0.01225400  0.61617700  0.80187700  1
  O  O5  1  0.23777700  0.44050800  0.57954900  1
  O  O6  1  0.26102900  0.91484700  0.05956300  1
  O  O7  1  0.44050800  0.57954900  0.23777700  1
  O  O8  1  0.19891400  0.99045800  0.37942500  1
  O  O9  1  0.57954900  0.23777700  0.44050800  1
  O  O10  1  0.08769200  0.94572400  0.73433000  1
  O  O11  1  0.37942500  0.19891400  0.99045800  1
  O  O12  1  0.61617700  0.80187700  0.01225400  1
  O  O13  1  0.91484700  0.05956300  0.26102900  1
  O  O14  1  0.41875700  0.76693800  0.55356900  1
  O  O15  1  0.80187700  0.01225400  0.61617700  1
  O  O16  1  0.55356900  0.41875700  0.76693800  1
  O  O17  1  0.73433000  0.08769200  0.94572400  1
  O  O18  1  0.76693800  0.55356900  0.41875700  1
  O  O19  1  0.99045800  0.37942500  0.19891400  1
  O  O20  1  0.94572400  0.73433000  0.08769200  1
  O  O21  1  0.12540600  0.50392800  0.30606400  1
  O  O22  1  0.30606400  0.12540600  0.50392800  1
  O  O23  1  0.50392800  0.30606400  0.12540600  1
loop_
_geom_bond_atom_site_label_1
_geom_bond_atom_site_label_2
_geom_bond_distance
_geom_bond_site_symmetry_2
Mn0 O20 2.220234 1_556
Mn0 O17 2.220234 1_565
Mn0 O10 2.220234 1_655
Mn0 O3 2.246591 1_665
Mn0 O6 2.246591 1_656
Mn0 O13 2.246591 1_566
Mn1 O22 1.879317 1_555
Mn1 O23 1.879317 1_555
Mn1 O21 1.879318 1_555
Mn1 O7 1.981501 1_555
Mn1 O5 1.981501 1_555
Mn1 O9 1.981501 1_555
Mn2 O18 2.253267 1_555
Mn2 O14 2.253267 1_555
Mn2 O16 2.253267 1_555
Mn2 O5 2.261022 1_555
Mn2 O9 2.261022 1_555
Mn2 O7 2.261022 1_555
Mn3 O11 1.929274 1_554
Mn3 O8 1.929274 1_545
Mn3 O19 1.929275 1_455
Mn3 O13 2.031915 1_455
Mn3 O3 2.031915 1_554
Mn3 O6 2.031915 1_545
Mn4 O1 1.933134 1_555
Mn4 O0 1.933135 1_555
Mn4 O2 1.933135 1_555
Mn4 O16 2.025559 1_555
Mn4 O18 2.025559 1_555
Mn4 O14 2.025559 1_555
Fe0 O12 1.951092 1_556
Fe0 O15 1.951092 1_565
Fe0 O4 1.951092 1_655
Fe0 O10 2.082250 1_655
Fe0 O20 2.082250 1_556
Fe0 O17 2.082250 1_565
O0 P1 1.525716 1_556
O1 P2 1.525716 1_565
O2 P0 1.525716 1_655
O3 P0 1.560790 1_555
O4 P0 1.519016 1_555
O5 P0 1.579201 1_555
O6 P1 1.560790 1_555
O7 P1 1.579201 1_555
O8 P3 1.528130 1_555
O9 P2 1.579202 1_555
O10 P3 1.548882 1_555
O11 P4 1.528130 1_555
O12 P1 1.519016 1_555
O13 P2 1.560790 1_555
O14 P3 1.567407 1_555
O15 P2 1.519016 1_555
O16 P4 1.567407 1_555
O17 P4 1.548882 1_555
O18 P5 1.567407 1_555
O19 P5 1.528130 1_555
O20 P5 1.548882 1_555
O21 P5 1.540746 1_455
O22 P3 1.540746 1_545
O23 P4 1.540746 1_554
