# generated using pymatgen
data_LiMnPCO7
_symmetry_space_group_name_H-M   'P 1'
_cell_length_a   6.24042700
_cell_length_b   5.11569600
_cell_length_c   16.70919067
_cell_angle_alpha   85.84321394
_cell_angle_beta   90.00000000
_cell_angle_gamma   90.00000000
_symmetry_Int_Tables_number   1
_chemical_formula_structural   LiMnPCO7
_chemical_formula_sum   'Li4 Mn4 P4 C4 O28'
_cell_volume   532.02311792
_cell_formula_units_Z   4
loop_
 _symmetry_equiv_pos_site_id
 _symmetry_equiv_pos_as_xyz
  1  'x, y, z'
loop_
 _atom_site_type_symbol
 _atom_site_label
 _atom_site_symmetry_multiplicity
 _atom_site_fract_x
 _atom_site_fract_y
 _atom_site_fract_z
 _atom_site_occupancy
  Li  Li0  1  0.47121900  0.24181500  0.13180200  1
  Li  Li1  1  0.97121900  0.75818500  0.36819800  1
  Li  Li2  1  0.02878100  0.24181500  0.63180200  1
  Li  Li3  1  0.52878100  0.75818500  0.86819800  1
  Mn  Mn0  1  0.76042700  0.79456300  0.16487400  1
  Mn  Mn1  1  0.26042700  0.20543700  0.33512600  1
  Mn  Mn2  1  0.73957300  0.79456300  0.66487400  1
  Mn  Mn3  1  0.23957300  0.20543700  0.83512600  1
  P  P0  1  0.25426000  0.72304100  0.21287000  1
  P  P1  1  0.75426000  0.27695900  0.28713000  1
  P  P2  1  0.24574000  0.72304100  0.71287000  1
  P  P3  1  0.74574000  0.27695900  0.78713000  1
  C  C0  1  0.73403400  0.71039000  0.02574300  1
  C  C1  1  0.23403400  0.28961000  0.47425700  1
  C  C2  1  0.76596600  0.71039000  0.52574300  1
  C  C3  1  0.26596600  0.28961000  0.97425700  1
  O  O0  1  0.74972200  0.94547000  0.05296600  1
  O  O1  1  0.27951900  0.33720400  0.04518100  1
  O  O2  1  0.73523100  0.52832500  0.08707400  1
  O  O3  1  0.06289600  0.79228600  0.15700300  1
  O  O4  1  0.44803700  0.82527100  0.16187400  1
  O  O5  1  0.73872300  0.14284600  0.20759400  1
  O  O6  1  0.27465200  0.42146100  0.23261700  1
  O  O7  1  0.77465200  0.57853900  0.26738300  1
  O  O8  1  0.23872300  0.85715400  0.29240600  1
  O  O9  1  0.94803700  0.17472900  0.33812600  1
  O  O10  1  0.56289600  0.20771400  0.34299700  1
  O  O11  1  0.23523100  0.47167500  0.41292600  1
  O  O12  1  0.77951900  0.66279600  0.45481900  1
  O  O13  1  0.24972200  0.05453000  0.44703400  1
  O  O14  1  0.75027800  0.94547000  0.55296600  1
  O  O15  1  0.22048100  0.33720400  0.54518100  1
  O  O16  1  0.76476900  0.52832500  0.58707400  1
  O  O17  1  0.05196300  0.82527100  0.66187400  1
  O  O18  1  0.43710400  0.79228600  0.65700300  1
  O  O19  1  0.76127700  0.14284600  0.70759400  1
  O  O20  1  0.22534800  0.42146100  0.73261700  1
  O  O21  1  0.72534800  0.57853900  0.76738300  1
  O  O22  1  0.26127700  0.85715400  0.79240600  1
  O  O23  1  0.93710400  0.20771400  0.84299700  1
  O  O24  1  0.55196300  0.17472900  0.83812600  1
  O  O25  1  0.26476900  0.47167500  0.91292600  1
  O  O26  1  0.72048100  0.66279600  0.95481900  1
  O  O27  1  0.25027800  0.05453000  0.94703400  1
loop_
_geom_bond_atom_site_label_1
_geom_bond_atom_site_label_2
_geom_bond_distance
_geom_bond_site_symmetry_2
Li0 O1 1.913560 1_555
Li0 O5 2.133987 1_555
Li0 O4 2.158466 1_545
Li0 O2 2.294001 1_555
Li0 O6 2.326238 1_555
Li1 O12 1.913560 1_555
Li1 O8 2.133987 1_655
Li1 O9 2.158466 1_565
Li1 O11 2.294001 1_655
Li1 O7 2.326238 1_555
Li2 O15 1.913560 1_555
Li2 O19 2.133987 1_455
Li2 O17 2.158466 1_545
Li2 O16 2.294001 1_455
Li2 O20 2.326238 1_555
Li3 O26 1.913560 1_555
Li3 O22 2.133987 1_555
Li3 O24 2.158466 1_565
Li3 O25 2.294001 1_555
Li3 O21 2.326238 1_555
Mn0 O3 1.892207 1_655
Mn0 O2 1.956109 1_555
Mn0 O4 1.956117 1_555
Mn0 O5 1.971483 1_565
Mn0 O0 1.971715 1_555
Mn0 O7 1.971946 1_555
Mn1 O10 1.892207 1_555
Mn1 O11 1.956109 1_555
Mn1 O9 1.956117 1_455
Mn1 O8 1.971483 1_545
Mn1 O13 1.971715 1_555
Mn1 O6 1.971946 1_555
Mn2 O18 1.892207 1_555
Mn2 O16 1.956109 1_555
Mn2 O17 1.956117 1_655
Mn2 O19 1.971483 1_565
Mn2 O14 1.971715 1_555
Mn2 O21 1.971946 1_555
Mn3 O23 1.892207 1_455
Mn3 O25 1.956109 1_555
Mn3 O24 1.956117 1_555
Mn3 O22 1.971483 1_545
Mn3 O27 1.971715 1_555
Mn3 O20 1.971946 1_555
C0 O26 1.229913 1_554
C0 O0 1.319864 1_555
C0 O2 1.333929 1_555
C1 O15 1.229913 1_555
C1 O13 1.319864 1_555
C1 O11 1.333929 1_555
C2 O12 1.229913 1_555
C2 O14 1.319864 1_555
C2 O16 1.333929 1_555
C3 O1 1.229913 1_556
C3 O27 1.319864 1_555
C3 O25 1.333929 1_555
O3 P0 1.541120 1_555
O4 P0 1.548311 1_555
O5 P1 1.542234 1_555
O6 P0 1.559318 1_555
O7 P1 1.559318 1_555
O8 P0 1.542234 1_555
O9 P1 1.548311 1_555
O10 P1 1.541120 1_555
O17 P2 1.548311 1_555
O18 P2 1.541120 1_555
O19 P3 1.542234 1_555
O20 P2 1.559318 1_555
O21 P3 1.559318 1_555
O22 P2 1.542234 1_555
O23 P3 1.541120 1_555
O24 P3 1.548311 1_555
