# generated using pymatgen
data_LiVP2HO8
_symmetry_space_group_name_H-M   'P 1'
_cell_length_a   4.86069900
_cell_length_b   7.47356359
_cell_length_c   7.99234305
_cell_angle_alpha   89.86597156
_cell_angle_beta   89.93406822
_cell_angle_gamma   74.43596965
_symmetry_Int_Tables_number   1
_chemical_formula_structural   LiVP2HO8
_chemical_formula_sum   'Li2 V2 P4 H2 O16'
_cell_volume   279.68872148
_cell_formula_units_Z   2
loop_
 _symmetry_equiv_pos_site_id
 _symmetry_equiv_pos_as_xyz
  1  'x, y, z'
loop_
 _atom_site_type_symbol
 _atom_site_label
 _atom_site_symmetry_multiplicity
 _atom_site_fract_x
 _atom_site_fract_y
 _atom_site_fract_z
 _atom_site_occupancy
  Li  Li0  1  0.39683800  0.14889600  0.86949200  1
  Li  Li1  1  0.90767600  0.64715200  0.63255700  1
  V  V0  1  0.49164400  0.00168500  0.49091300  1
  V  V1  1  0.98919200  0.50749600  0.01021000  1
  P  P0  1  0.13512000  0.73259400  0.34924100  1
  P  P1  1  0.36853900  0.76864800  0.84769000  1
  P  P2  1  0.62778400  0.23834300  0.15550100  1
  P  P3  1  0.87021900  0.26388500  0.65448600  1
  H  H0  1  0.51355900  0.49499000  0.50423800  1
  H  H1  1  0.96477100  0.01043600  0.01004200  1
  O  O0  1  0.13291000  0.14299700  0.55539200  1
  O  O1  1  0.04510000  0.68292200  0.17484200  1
  O  O2  1  0.15746400  0.64626000  0.82952900  1
  O  O3  1  0.26074500  0.56034300  0.45578900  1
  O  O4  1  0.35958700  0.34470300  0.05216500  1
  O  O5  1  0.54135500  0.18415100  0.32825200  1
  O  O6  1  0.23934600  0.94882500  0.94018100  1
  O  O7  1  0.33102300  0.86382700  0.32885900  1
  O  O8  1  0.65317700  0.14694900  0.67345900  1
  O  O9  1  0.74798900  0.06072500  0.04818700  1
  O  O10  1  0.48911900  0.80937400  0.67665200  1
  O  O11  1  0.63428100  0.64570600  0.94644900  1
  O  O12  1  0.74202400  0.44666900  0.55973400  1
  O  O13  1  0.83226000  0.36215700  0.17194100  1
  O  O14  1  0.98698800  0.31259000  0.82289200  1
  O  O15  1  0.86147700  0.84381400  0.44915500  1
loop_
_geom_bond_atom_site_label_1
_geom_bond_atom_site_label_2
_geom_bond_distance
_geom_bond_site_symmetry_2
Li0 O6 1.936561 1_545
Li0 O8 1.998331 1_555
Li0 O4 2.042794 1_556
Li0 O14 2.072626 1_455
Li0 O9 2.187440 1_556
Li1 O12 1.970941 1_555
Li1 O2 1.988094 1_655
Li1 O15 2.042745 1_555
Li1 O10 2.099973 1_555
Li1 O3 2.182503 1_655
H0 O12 1.159970 1_555
H0 O3 1.255667 1_555
H1 O9 1.063854 1_555
H1 O6 1.405245 1_644
O0 P3 1.567112 1_455
O0 V0 1.853017 1_555
O1 P0 1.537236 1_555
O1 V1 1.929799 1_455
O2 P1 1.553985 1_555
O2 V1 2.067674 1_456
O3 P0 1.526264 1_555
O4 P2 1.567393 1_555
O4 V1 1.912605 1_455
O5 P2 1.527798 1_555
O5 V0 1.943167 1_555
O6 P1 1.517840 1_555
O7 P0 1.547663 1_555
O7 V0 1.946480 1_565
O8 P3 1.547091 1_555
O8 V0 2.095510 1_555
O9 P2 1.557908 1_555
O10 P1 1.548151 1_555
O10 V0 2.066152 1_565
O11 P1 1.580435 1_555
O11 V1 1.829201 1_556
O12 P3 1.538607 1_555
O13 P2 1.534840 1_555
O13 V1 1.966805 1_555
O14 P3 1.543102 1_555
O14 V1 2.093292 1_556
O15 P0 1.582754 1_655
O15 V0 1.896648 1_565
