# generated using pymatgen
data_Li2CoGe3O8
_symmetry_space_group_name_H-M   'P 1'
_cell_length_a   8.18914220
_cell_length_b   8.18914220
_cell_length_c   8.18914220
_cell_angle_alpha   90.00000000
_cell_angle_beta   90.00000000
_cell_angle_gamma   90.00000000
_symmetry_Int_Tables_number   1
_chemical_formula_structural   Li2CoGe3O8
_chemical_formula_sum   'Li8 Co4 Ge12 O32'
_cell_volume   549.18066344
_cell_formula_units_Z   4
loop_
 _symmetry_equiv_pos_site_id
 _symmetry_equiv_pos_as_xyz
  1  'x, y, z'
loop_
 _atom_site_type_symbol
 _atom_site_label
 _atom_site_symmetry_multiplicity
 _atom_site_fract_x
 _atom_site_fract_y
 _atom_site_fract_z
 _atom_site_occupancy
  Li  Li0  1  0.00211436  0.00211436  0.00211436  1
  Li  Li1  1  0.99788564  0.50211436  0.49788564  1
  Li  Li2  1  0.12548893  0.87451107  0.37451107  1
  Li  Li3  1  0.37451107  0.12548893  0.87451107  1
  Li  Li4  1  0.50211436  0.49788564  0.99788564  1
  Li  Li5  1  0.49788564  0.99788564  0.50211436  1
  Li  Li6  1  0.62548893  0.62548893  0.62548893  1
  Li  Li7  1  0.87451107  0.37451107  0.12548893  1
  Co  Co0  1  0.24664604  0.24664604  0.24664604  1
  Co  Co1  1  0.25335396  0.75335396  0.74664604  1
  Co  Co2  1  0.74664604  0.25335396  0.75335396  1
  Co  Co3  1  0.75335396  0.74664604  0.25335396  1
  Ge  Ge0  1  0.12867153  0.12572991  0.62774347  1
  Ge  Ge1  1  0.12572991  0.62774347  0.12867153  1
  Ge  Ge2  1  0.12774347  0.37132847  0.87427009  1
  Ge  Ge3  1  0.37427009  0.37225653  0.62867153  1
  Ge  Ge4  1  0.37225653  0.62867153  0.37427009  1
  Ge  Ge5  1  0.37132847  0.87427009  0.12774347  1
  Ge  Ge6  1  0.62774347  0.12867153  0.12572991  1
  Ge  Ge7  1  0.62867153  0.37427009  0.37225653  1
  Ge  Ge8  1  0.62572991  0.87225653  0.87132847  1
  Ge  Ge9  1  0.87427009  0.12774347  0.37132847  1
  Ge  Ge10  1  0.87132847  0.62572991  0.87225653  1
  Ge  Ge11  1  0.87225653  0.87132847  0.62572991  1
  O  O0  1  0.12841489  0.39378748  0.10094957  1
  O  O1  1  0.13518028  0.36481972  0.63518028  1
  O  O2  1  0.14800676  0.85627624  0.11893523  1
  O  O3  1  0.10621252  0.89905043  0.62841489  1
  O  O4  1  0.10094957  0.12841489  0.39378748  1
  O  O5  1  0.11893523  0.14800676  0.85627624  1
  O  O6  1  0.14372376  0.61893523  0.35199324  1
  O  O7  1  0.11299754  0.61299754  0.88700246  1
  O  O8  1  0.39378748  0.10094957  0.12841489  1
  O  O9  1  0.38700246  0.38700246  0.38700246  1
  O  O10  1  0.35199324  0.14372376  0.61893523  1
  O  O11  1  0.35627624  0.38106477  0.85199324  1
  O  O12  1  0.36481972  0.63518028  0.13518028  1
  O  O13  1  0.38106477  0.85199324  0.35627624  1
  O  O14  1  0.37158511  0.60621252  0.60094957  1
  O  O15  1  0.39905043  0.87158511  0.89378748  1
  O  O16  1  0.63518028  0.13518028  0.36481972  1
  O  O17  1  0.62841489  0.10621252  0.89905043  1
  O  O18  1  0.61893523  0.35199324  0.14372376  1
  O  O19  1  0.60094957  0.37158511  0.60621252  1
  O  O20  1  0.60621252  0.60094957  0.37158511  1
  O  O21  1  0.64800676  0.64372376  0.88106477  1
  O  O22  1  0.61299754  0.88700246  0.11299754  1
  O  O23  1  0.64372376  0.88106477  0.64800676  1
  O  O24  1  0.85627624  0.11893523  0.14800676  1
  O  O25  1  0.88700246  0.11299754  0.61299754  1
  O  O26  1  0.85199324  0.35627624  0.38106477  1
  O  O27  1  0.89378748  0.39905043  0.87158511  1
  O  O28  1  0.89905043  0.62841489  0.10621252  1
  O  O29  1  0.88106477  0.64800676  0.64372376  1
  O  O30  1  0.87158511  0.89378748  0.39905043  1
  O  O31  1  0.86481972  0.86481972  0.86481972  1
loop_
_geom_bond_atom_site_label_1
_geom_bond_atom_site_label_2
_geom_bond_distance
_geom_bond_site_symmetry_2
Li0 O24 1.941370 1_455
Li0 O2 1.941370 1_545
Li0 O5 1.941370 1_554
Li0 O31 1.947389 1_444
Li1 O29 1.941370 1_555
Li1 O26 1.941370 1_555
Li1 O6 1.941370 1_655
Li1 O1 1.947389 1_655
Li2 O3 2.094899 1_555
Li2 O30 2.094899 1_455
Li2 O4 2.094899 1_565
Li2 O2 2.106355 1_555
Li2 O6 2.106355 1_555
Li2 O13 2.106355 1_555
Li3 O17 2.094899 1_555
Li3 O15 2.094899 1_545
Li3 O8 2.094899 1_556
Li3 O11 2.106355 1_555
Li3 O10 2.106355 1_555
Li3 O5 2.106355 1_555
Li4 O21 1.941370 1_555
Li4 O11 1.941370 1_555
Li4 O18 1.941370 1_556
Li4 O12 1.947389 1_556
Li5 O23 1.941370 1_555
Li5 O13 1.941370 1_555
Li5 O10 1.941370 1_565
Li5 O16 1.947389 1_565
Li6 O14 2.094899 1_555
Li6 O20 2.094899 1_555
Li6 O19 2.094899 1_555
Li6 O21 2.106355 1_555
Li6 O23 2.106355 1_555
Li6 O29 2.106355 1_555
Li7 O27 2.094899 1_554
Li7 O28 2.094899 1_555
Li7 O0 2.094899 1_655
Li7 O24 2.106355 1_555
Li7 O26 2.106355 1_555
Li7 O18 2.106355 1_555
Co0 O0 1.952671 1_555
Co0 O4 1.952671 1_555
Co0 O8 1.952671 1_555
Co0 O9 1.990817 1_555
Co1 O14 1.952671 1_555
Co1 O3 1.952671 1_555
Co1 O15 1.952671 1_555
Co1 O7 1.990817 1_555
Co2 O19 1.952671 1_555
Co2 O17 1.952671 1_555
Co2 O27 1.952671 1_555
Co2 O25 1.990817 1_555
Co3 O20 1.952671 1_555
Co3 O28 1.952671 1_555
Co3 O30 1.952671 1_555
Co3 O22 1.990817 1_555
Ge0 O10 1.836157 1_555
Ge0 O3 1.865408 1_545
Ge0 O5 1.882047 1_555
Ge0 O4 1.929427 1_555
Ge0 O1 1.959612 1_555
Ge0 O25 1.985483 1_455
Ge1 O6 1.836157 1_555
Ge1 O28 1.865408 1_455
Ge1 O2 1.882047 1_555
Ge1 O0 1.929427 1_555
Ge1 O12 1.959612 1_555
Ge1 O7 1.985483 1_554
Ge2 O5 1.836157 1_555
Ge2 O0 1.865408 1_556
Ge2 O11 1.882047 1_555
Ge2 O27 1.929427 1_455
Ge2 O1 1.959612 1_555
Ge2 O7 1.985483 1_555
Ge3 O11 1.836157 1_555
Ge3 O19 1.865408 1_555
Ge3 O10 1.882047 1_555
Ge3 O14 1.929427 1_555
Ge3 O1 1.959612 1_555
Ge3 O9 1.985483 1_555
Ge4 O13 1.836157 1_555
Ge4 O14 1.865408 1_555
Ge4 O6 1.882047 1_555
Ge4 O20 1.929427 1_555
Ge4 O12 1.959612 1_555
Ge4 O9 1.985483 1_555
Ge5 O2 1.836157 1_555
Ge5 O8 1.865408 1_565
Ge5 O13 1.882047 1_555
Ge5 O15 1.929427 1_554
Ge5 O12 1.959612 1_555
Ge5 O22 1.985483 1_555
Ge6 O18 1.836157 1_555
Ge6 O17 1.865408 1_554
Ge6 O24 1.882047 1_555
Ge6 O8 1.929427 1_555
Ge6 O16 1.959612 1_555
Ge6 O22 1.985483 1_545
Ge7 O26 1.836157 1_555
Ge7 O20 1.865408 1_555
Ge7 O18 1.882047 1_555
Ge7 O19 1.929427 1_555
Ge7 O16 1.959612 1_555
Ge7 O9 1.985483 1_555
Ge8 O23 1.836157 1_555
Ge8 O15 1.865408 1_555
Ge8 O21 1.882047 1_555
Ge8 O17 1.929427 1_565
Ge8 O31 1.959612 1_555
Ge8 O22 1.985483 1_556
Ge9 O24 1.836157 1_555
Ge9 O4 1.865408 1_655
Ge9 O26 1.882047 1_555
Ge9 O30 1.929427 1_545
Ge9 O16 1.959612 1_555
Ge9 O25 1.985483 1_555
Ge10 O21 1.836157 1_555
Ge10 O27 1.865408 1_555
Ge10 O29 1.882047 1_555
Ge10 O28 1.929427 1_556
Ge10 O31 1.959612 1_555
Ge10 O7 1.985483 1_655
Ge11 O29 1.836157 1_555
Ge11 O30 1.865408 1_555
Ge11 O23 1.882047 1_555
Ge11 O3 1.929427 1_655
Ge11 O31 1.959612 1_555
Ge11 O25 1.985483 1_565
