# generated using pymatgen
data_LiLa4MnO8
_symmetry_space_group_name_H-M   'P 1'
_cell_length_a   7.66712300
_cell_length_b   7.66690700
_cell_length_c   13.46453345
_cell_angle_alpha   73.46028396
_cell_angle_beta   89.99990830
_cell_angle_gamma   89.99983559
_symmetry_Int_Tables_number   1
_chemical_formula_structural   LiLa4MnO8
_chemical_formula_sum   'Li4 La16 Mn4 O32'
_cell_volume   758.73761209
_cell_formula_units_Z   4
loop_
 _symmetry_equiv_pos_site_id
 _symmetry_equiv_pos_as_xyz
  1  'x, y, z'
loop_
 _atom_site_type_symbol
 _atom_site_label
 _atom_site_symmetry_multiplicity
 _atom_site_fract_x
 _atom_site_fract_y
 _atom_site_fract_z
 _atom_site_occupancy
  Li  Li0  1  0.75000400  0.99999900  0.50000000  1
  Li  Li1  1  0.25000500  0.49999900  0.50000000  1
  Li  Li2  1  0.49999500  0.99999800  0.00000000  1
  Li  Li3  1  0.99999600  0.50000500  0.99999900  1
  La  La0  1  0.75000800  0.81964000  0.86074000  1
  La  La1  1  0.25000100  0.31966100  0.86073100  1
  La  La2  1  0.74999300  0.18036900  0.13927200  1
  La  La3  1  0.25001300  0.68036500  0.13927100  1
  La  La4  1  0.49999100  0.81962100  0.36073100  1
  La  La5  1  0.99999400  0.31964500  0.36072400  1
  La  La6  1  0.99999800  0.68036500  0.63927000  1
  La  La7  1  0.49999800  0.18038200  0.63927000  1
  La  La8  1  0.49999800  0.68179600  0.63640700  1
  La  La9  1  0.00001400  0.18179000  0.63641800  1
  La  La10  1  0.99999600  0.81820300  0.36358400  1
  La  La11  1  0.50000800  0.31818600  0.36358900  1
  La  La12  1  0.75001000  0.68178400  0.13641500  1
  La  La13  1  0.25000800  0.18181300  0.13641300  1
  La  La14  1  0.74999400  0.31818000  0.86358900  1
  La  La15  1  0.24998300  0.81817100  0.86359800  1
  Mn  Mn0  1  0.49996300  0.50000400  0.99999800  1
  Mn  Mn1  1  0.74998900  0.50000800  0.49999600  1
  Mn  Mn2  1  0.99998800  0.99997900  0.99999300  1
  Mn  Mn3  1  0.25001100  0.00000600  0.50000200  1
  O  O0  1  0.74999800  0.90902500  0.68197000  1
  O  O1  1  0.24999800  0.40902700  0.68196600  1
  O  O2  1  0.74999800  0.09098200  0.31803000  1
  O  O3  1  0.25000800  0.59097000  0.31803200  1
  O  O4  1  0.99999800  0.59097600  0.81803700  1
  O  O5  1  0.50000400  0.09097600  0.81803400  1
  O  O6  1  0.50000000  0.90902200  0.18196700  1
  O  O7  1  0.99999900  0.40902900  0.18196500  1
  O  O8  1  0.99999200  0.90960100  0.18085100  1
  O  O9  1  0.49999900  0.40960900  0.18084100  1
  O  O10  1  0.49999900  0.59038900  0.81916100  1
  O  O11  1  0.99999700  0.09039500  0.81915000  1
  O  O12  1  0.75000200  0.59039800  0.31915200  1
  O  O13  1  0.25000800  0.09039800  0.31915400  1
  O  O14  1  0.75000000  0.40960700  0.68084500  1
  O  O15  1  0.25000600  0.90960000  0.68085100  1
  O  O16  1  0.75000200  0.25305200  0.50000800  1
  O  O17  1  0.25000300  0.75305100  0.50001100  1
  O  O18  1  0.49999800  0.25305400  0.00001000  1
  O  O19  1  0.99999800  0.75304200  0.00000900  1
  O  O20  1  0.99695000  0.50000100  0.49999800  1
  O  O21  1  0.49694400  0.00000300  0.49999900  1
  O  O22  1  0.50305000  0.50000200  0.49999700  1
  O  O23  1  0.00304800  0.00000300  0.49999800  1
  O  O24  1  0.75305200  0.00000100  0.00000100  1
  O  O25  1  0.25307100  0.50000600  0.00000000  1
  O  O26  1  0.75000200  0.74694900  0.49999100  1
  O  O27  1  0.25000400  0.24695100  0.49998600  1
  O  O28  1  0.24695700  0.99999800  0.00000000  1
  O  O29  1  0.74695600  0.50000000  0.00000100  1
  O  O30  1  0.50000100  0.74694800  0.99998900  1
  O  O31  1  0.00000100  0.24696500  0.99998600  1
loop_
_geom_bond_atom_site_label_1
_geom_bond_atom_site_label_2
_geom_bond_distance
_geom_bond_site_symmetry_2
Li0 O23 1.940119 1_665
Li0 O26 1.940145 1_555
Li0 O16 1.940164 1_565
Li0 O21 1.940242 1_565
Li0 O0 2.348761 1_555
Li0 O2 2.348761 1_565
Li1 O22 1.940127 1_555
Li1 O27 1.940149 1_555
Li1 O17 1.940168 1_555
Li1 O20 1.940204 1_455
Li1 O1 2.348709 1_555
Li1 O3 2.348735 1_555
Li2 O28 1.940073 1_555
Li2 O30 1.940153 1_554
Li2 O18 1.940195 1_565
Li2 O24 1.940219 1_565
Li2 O5 2.348709 1_564
Li2 O6 2.348722 1_555
Li3 O19 1.940049 1_556
Li3 O31 1.940084 1_655
Li3 O29 1.940089 1_556
Li3 O25 1.940357 1_656
Li3 O4 2.348658 1_555
Li3 O7 2.348709 1_556
La0 O0 2.307457 1_555
La0 O24 2.627725 1_566
La0 O30 2.627784 1_555
La0 O19 2.627864 1_556
La0 O29 2.627902 1_556
La0 O11 2.763086 1_565
La0 O10 2.763572 1_555
La0 O5 2.766116 1_565
La0 O4 2.766184 1_555
La1 O1 2.307393 1_555
La1 O25 2.627730 1_556
La1 O31 2.627798 1_555
La1 O18 2.627992 1_556
La1 O28 2.628078 1_546
La1 O10 2.762993 1_555
La1 O11 2.763636 1_455
La1 O4 2.766000 1_455
La1 O5 2.766333 1_555
La2 O2 2.307302 1_555
La2 O18 2.627833 1_555
La2 O24 2.627881 1_555
La2 O29 2.627911 1_555
La2 O31 2.628114 1_654
La2 O8 2.763203 1_545
La2 O9 2.763374 1_555
La2 O6 2.766124 1_545
La2 O7 2.766204 1_555
La3 O3 2.307341 1_555
La3 O25 2.627831 1_555
La3 O28 2.627923 1_555
La3 O19 2.627944 1_455
La3 O30 2.627967 1_554
La3 O9 2.763071 1_555
La3 O8 2.763553 1_455
La3 O6 2.766102 1_555
La3 O7 2.766177 1_455
La4 O6 2.307380 1_555
La4 O22 2.627815 1_555
La4 O26 2.627904 1_555
La4 O21 2.627924 1_565
La4 O17 2.627950 1_555
La4 O13 2.763166 1_565
La4 O12 2.763426 1_555
La4 O3 2.766065 1_555
La4 O2 2.766272 1_565
La5 O7 2.307315 1_555
La5 O20 2.627848 1_555
La5 O27 2.627917 1_655
La5 O23 2.627991 1_655
La5 O16 2.628007 1_555
La5 O12 2.763087 1_555
La5 O13 2.763523 1_655
La5 O3 2.766119 1_655
La5 O2 2.766172 1_555
La6 O4 2.307418 1_555
La6 O17 2.627860 1_655
La6 O20 2.627870 1_555
La6 O23 2.627957 1_665
La6 O26 2.627988 1_555
La6 O14 2.763152 1_555
La6 O15 2.763492 1_655
La6 O1 2.766106 1_655
La6 O0 2.766200 1_555
La7 O5 2.307380 1_555
La7 O22 2.627862 1_555
La7 O16 2.627880 1_555
La7 O21 2.627943 1_555
La7 O27 2.628022 1_555
La7 O15 2.763247 1_545
La7 O14 2.763376 1_555
La7 O1 2.766099 1_555
La7 O0 2.766207 1_545
La8 O10 2.358880 1_555
La8 O17 2.602669 1_555
La8 O22 2.602735 1_555
La8 O21 2.602814 1_565
La8 O26 2.602891 1_555
La8 O14 2.770578 1_555
La8 O15 2.770815 1_555
La8 O1 2.773710 1_555
La8 O0 2.773809 1_555
La9 O11 2.358596 1_455
La9 O23 2.602809 1_555
La9 O16 2.602887 1_455
La9 O20 2.602909 1_455
La9 O27 2.602952 1_555
La9 O15 2.770530 1_545
La9 O14 2.770910 1_455
La9 O1 2.773686 1_555
La9 O0 2.773773 1_445
La10 O8 2.358609 1_555
La10 O26 2.602757 1_555
La10 O23 2.602815 1_665
La10 O20 2.602821 1_555
La10 O17 2.603007 1_655
La10 O13 2.770670 1_665
La10 O12 2.770775 1_555
La10 O2 2.773745 1_565
La10 O3 2.773827 1_655
La11 O9 2.358803 1_555
La11 O21 2.602692 1_555
La11 O27 2.602725 1_555
La11 O22 2.602835 1_555
La11 O16 2.602864 1_555
La11 O12 2.770665 1_555
La11 O13 2.770733 1_555
La11 O2 2.773594 1_555
La11 O3 2.773782 1_555
La12 O12 2.358661 1_555
La12 O19 2.602714 1_555
La12 O29 2.602725 1_555
La12 O24 2.602906 1_565
La12 O30 2.603008 1_554
La12 O9 2.770559 1_555
La12 O8 2.770796 1_555
La12 O7 2.773570 1_555
La12 O6 2.773843 1_555
La13 O13 2.358712 1_555
La13 O18 2.602698 1_555
La13 O25 2.602766 1_555
La13 O28 2.602888 1_545
La13 O31 2.603007 1_554
La13 O9 2.770690 1_555
La13 O8 2.770782 1_445
La13 O7 2.773721 1_455
La13 O6 2.773777 1_545
La14 O14 2.358751 1_555
La14 O24 2.602680 1_556
La14 O31 2.602742 1_655
La14 O18 2.602891 1_556
La14 O29 2.602904 1_556
La14 O10 2.770647 1_555
La14 O11 2.770746 1_555
La14 O5 2.773581 1_555
La14 O4 2.773874 1_555
La15 O15 2.358790 1_555
La15 O25 2.602544 1_556
La15 O19 2.602741 1_456
La15 O30 2.602753 1_555
La15 O28 2.602827 1_556
La15 O11 2.770679 1_465
La15 O10 2.770788 1_555
La15 O4 2.773539 1_455
La15 O5 2.774012 1_565
Mn0 O25 1.892951 1_556
Mn0 O30 1.893262 1_555
Mn0 O18 1.893297 1_556
Mn0 O29 1.893726 1_556
Mn0 O10 2.334137 1_555
Mn0 O9 2.334214 1_556
Mn1 O26 1.893255 1_555
Mn1 O22 1.893312 1_555
Mn1 O16 1.893343 1_555
Mn1 O20 1.893480 1_555
Mn1 O12 2.334227 1_555
Mn1 O14 2.334292 1_555
Mn2 O19 1.893182 1_556
Mn2 O24 1.893289 1_566
Mn2 O28 1.893542 1_656
Mn2 O31 1.893592 1_665
Mn2 O11 2.334214 1_565
Mn2 O8 2.334408 1_556
Mn3 O27 1.893243 1_555
Mn3 O21 1.893266 1_555
Mn3 O17 1.893347 1_545
Mn3 O23 1.893496 1_555
Mn3 O13 2.334279 1_555
Mn3 O15 2.334292 1_545
