# generated using pymatgen
data_LiCrSiO4
_symmetry_space_group_name_H-M   'P 1'
_cell_length_a   5.55907623
_cell_length_b   5.90708096
_cell_length_c   8.19792100
_cell_angle_alpha   89.99938321
_cell_angle_beta   90.00005069
_cell_angle_gamma   90.00081231
_symmetry_Int_Tables_number   1
_chemical_formula_structural   LiCrSiO4
_chemical_formula_sum   'Li4 Cr4 Si4 O16'
_cell_volume   269.20261927
_cell_formula_units_Z   4
loop_
 _symmetry_equiv_pos_site_id
 _symmetry_equiv_pos_as_xyz
  1  'x, y, z'
loop_
 _atom_site_type_symbol
 _atom_site_label
 _atom_site_symmetry_multiplicity
 _atom_site_fract_x
 _atom_site_fract_y
 _atom_site_fract_z
 _atom_site_occupancy
  Li  Li0  1  0.49999300  0.50000400  0.50529300  1
  Li  Li1  1  0.00000000  0.99999700  0.00529300  1
  Li  Li2  1  0.99999900  0.50000100  0.24473500  1
  Li  Li3  1  0.49999100  0.00000000  0.74473200  1
  Cr  Cr0  1  0.99997700  0.25010500  0.62490600  1
  Cr  Cr1  1  0.49994900  0.24998100  0.12501100  1
  Cr  Cr2  1  0.49996600  0.75001700  0.12493400  1
  Cr  Cr3  1  0.00000600  0.74988100  0.62507700  1
  Si  Si0  1  0.75003000  0.49999900  0.87501100  1
  Si  Si1  1  0.25002600  0.99998400  0.37501100  1
  Si  Si2  1  0.24995900  0.50001600  0.87503300  1
  Si  Si3  1  0.74996000  0.00000100  0.37503200  1
  O  O0  1  0.23912500  0.50004000  0.65800000  1
  O  O1  1  0.73916100  0.99997900  0.15799400  1
  O  O2  1  0.76088900  0.50002500  0.65799500  1
  O  O3  1  0.26089000  0.99995000  0.15798300  1
  O  O4  1  0.26091600  0.49997500  0.09201000  1
  O  O5  1  0.76087500  0.00003900  0.59201100  1
  O  O6  1  0.73914000  0.49995200  0.09199300  1
  O  O7  1  0.23914100  0.00002500  0.59200200  1
  O  O8  1  0.99999600  0.29197000  0.87091600  1
  O  O9  1  0.50001500  0.79198400  0.37095300  1
  O  O10  1  0.00000500  0.70803100  0.87093100  1
  O  O11  1  0.49998700  0.20803100  0.37091500  1
  O  O12  1  0.49998000  0.29196800  0.87903700  1
  O  O13  1  0.99999700  0.79199700  0.37906800  1
  O  O14  1  0.50002300  0.70801400  0.87908800  1
  O  O15  1  0.00000200  0.20803300  0.37903800  1
loop_
_geom_bond_atom_site_label_1
_geom_bond_atom_site_label_2
_geom_bond_distance
_geom_bond_site_symmetry_2
Li0 O0 1.915788 1_555
Li0 O2 1.915877 1_555
Li0 O9 2.046363 1_555
Li0 O11 2.046516 1_555
Li1 O1 1.915634 1_455
Li1 O3 1.915788 1_555
Li1 O10 2.046410 1_554
Li1 O8 2.046491 1_464
Li2 O6 1.915936 1_555
Li2 O4 1.916091 1_655
Li2 O15 2.046140 1_655
Li2 O13 2.046432 1_555
Li3 O7 1.915834 1_555
Li3 O5 1.915930 1_555
Li3 O12 2.046169 1_555
Li3 O14 2.046463 1_545
Cr0 O2 2.004902 1_555
Cr0 O0 2.005166 1_655
Cr0 O5 2.005346 1_555
Cr0 O7 2.005673 1_655
Cr0 O15 2.030873 1_655
Cr0 O8 2.031879 1_555
Cr1 O4 2.004919 1_555
Cr1 O3 2.005116 1_545
Cr1 O6 2.005393 1_555
Cr1 O1 2.005594 1_545
Cr1 O11 2.031072 1_555
Cr1 O12 2.031668 1_554
Cr2 O3 2.004870 1_555
Cr2 O4 2.005082 1_555
Cr2 O1 2.005419 1_555
Cr2 O6 2.005686 1_555
Cr2 O14 2.030644 1_554
Cr2 O9 2.032025 1_555
Cr3 O0 2.004484 1_555
Cr3 O2 2.004509 1_455
Cr3 O7 2.006002 1_565
Cr3 O5 2.006066 1_465
Cr3 O10 2.030593 1_555
Cr3 O13 2.032046 1_455
O0 Si2 1.780238 1_555
O1 Si3 1.780273 1_565
O2 Si0 1.780104 1_555
O3 Si1 1.780203 1_555
O4 Si2 1.779803 1_554
O5 Si3 1.779811 1_555
O6 Si0 1.779831 1_554
O7 Si1 1.779904 1_545
O8 Si0 1.855308 1_555
O8 Si2 1.855339 1_655
O9 Si3 1.855145 1_565
O9 Si1 1.855285 1_555
O10 Si2 1.855204 1_555
O10 Si0 1.855328 1_455
O11 Si1 1.855331 1_545
O11 Si3 1.855344 1_555
O12 Si2 1.855597 1_555
O12 Si0 1.855629 1_555
O13 Si1 1.855374 1_655
O13 Si3 1.855496 1_565
O14 Si0 1.855421 1_555
O14 Si2 1.855563 1_555
O15 Si3 1.855597 1_455
O15 Si1 1.855618 1_545
