# generated using pymatgen
data_Li5V2Co5O12
_symmetry_space_group_name_H-M   'P 1'
_cell_length_a   5.20091588
_cell_length_b   5.20091588
_cell_length_c   9.85829650
_cell_angle_alpha   84.60869922
_cell_angle_beta   84.60869922
_cell_angle_gamma   121.87834111
_symmetry_Int_Tables_number   1
_chemical_formula_structural   Li5V2Co5O12
_chemical_formula_sum   'Li5 V2 Co5 O12'
_cell_volume   222.16530561
_cell_formula_units_Z   1
loop_
 _symmetry_equiv_pos_site_id
 _symmetry_equiv_pos_as_xyz
  1  'x, y, z'
loop_
 _atom_site_type_symbol
 _atom_site_label
 _atom_site_symmetry_multiplicity
 _atom_site_fract_x
 _atom_site_fract_y
 _atom_site_fract_z
 _atom_site_occupancy
  Li  Li0  1  0.82885400  0.67655400  0.75197300  1
  Li  Li1  1  0.67312900  0.82865300  0.24533700  1
  Li  Li2  1  0.32344600  0.17114600  0.24802700  1
  Li  Li3  1  0.17134700  0.32687100  0.75466300  1
  Li  Li4  1  0.07777000  0.92223000  0.00000000  1
  V  V0  1  0.74051800  0.25948200  0.00000000  1
  V  V1  1  0.25273400  0.74726600  0.50000000  1
  Co  Co0  1  0.92199200  0.07800800  0.50000000  1
  Co  Co1  1  0.00279700  0.50637400  0.24631000  1
  Co  Co2  1  0.49362600  0.99720300  0.75369000  1
  Co  Co3  1  0.58098600  0.41901400  0.50000000  1
  Co  Co4  1  0.41652700  0.58347300  0.00000000  1
  O  O0  1  0.05289500  0.23991600  0.11623600  1
  O  O1  1  0.76008400  0.94710500  0.88376400  1
  O  O2  1  0.89725800  0.39577900  0.61491400  1
  O  O3  1  0.60422100  0.10274200  0.38508600  1
  O  O4  1  0.70914400  0.52146800  0.11799900  1
  O  O5  1  0.47853200  0.29085600  0.88200100  1
  O  O6  1  0.52415300  0.71089600  0.62135100  1
  O  O7  1  0.28910400  0.47584700  0.37864900  1
  O  O8  1  0.40801100  0.89727700  0.11456500  1
  O  O9  1  0.10272300  0.59198900  0.88543500  1
  O  O10  1  0.21505100  0.02490300  0.62201700  1
  O  O11  1  0.97509700  0.78494900  0.37798300  1
loop_
_geom_bond_atom_site_label_1
_geom_bond_atom_site_label_2
_geom_bond_distance
_geom_bond_site_symmetry_2
Li0 O10 2.048103 1_665
Li0 O5 2.050435 1_555
Li0 O1 2.140958 1_555
Li0 O6 2.200151 1_555
Li0 O9 2.204192 1_655
Li0 O2 2.216717 1_555
Li1 O7 2.065406 1_555
Li1 O8 2.111400 1_555
Li1 O0 2.156347 1_665
Li1 O4 2.193671 1_555
Li1 O3 2.207811 1_565
Li1 O11 2.221547 1_555
Li2 O11 2.048103 1_445
Li2 O4 2.050435 1_555
Li2 O0 2.140958 1_555
Li2 O7 2.200151 1_555
Li2 O8 2.204192 1_545
Li2 O3 2.216717 1_555
Li3 O6 2.065406 1_555
Li3 O9 2.111400 1_555
Li3 O1 2.156347 1_445
Li3 O5 2.193671 1_555
Li3 O2 2.207811 1_455
Li3 O10 2.221547 1_555
Li4 O4 2.068275 1_455
Li4 O5 2.068275 1_564
Li4 O0 2.147895 1_565
Li4 O1 2.147895 1_454
Li4 O8 2.194273 1_555
Li4 O9 2.194273 1_554
Co0 O6 2.071423 1_545
Co0 O7 2.071423 1_655
Co0 O10 2.138468 1_655
Co0 O11 2.138468 1_545
Co0 O3 2.140170 1_555
Co0 O2 2.140170 1_555
Co1 O0 2.070086 1_555
Co1 O11 2.084138 1_455
Co1 O4 2.099940 1_455
Co1 O7 2.126129 1_555
Co1 O8 2.173826 1_555
Co1 O3 2.215112 1_455
Co2 O1 2.070086 1_555
Co2 O10 2.084138 1_565
Co2 O5 2.099940 1_565
Co2 O6 2.126129 1_555
Co2 O9 2.173826 1_555
Co2 O2 2.215112 1_565
Co3 O10 2.063143 1_555
Co3 O11 2.063143 1_555
Co3 O2 2.130275 1_555
Co3 O3 2.130275 1_555
Co3 O6 2.138174 1_555
Co3 O7 2.138174 1_555
Co4 O0 1.929040 1_555
Co4 O1 1.929040 1_554
Co4 O9 2.086748 1_554
Co4 O8 2.086748 1_555
Co4 O4 2.133977 1_555
Co4 O5 2.133977 1_554
O0 V0 2.113158 1_455
O1 V0 2.113158 1_566
O2 V1 1.921124 1_655
O3 V1 1.921124 1_545
O4 V0 1.932208 1_555
O5 V0 1.932208 1_556
O6 V1 2.004119 1_555
O7 V1 2.004119 1_555
O8 V0 1.899247 1_565
O9 V0 1.899247 1_456
O10 V1 2.037492 1_545
O11 V1 2.037492 1_655
