# generated using pymatgen
data_Ca2SiB2O7
_symmetry_space_group_name_H-M   'P 1'
_cell_length_a   7.17018400
_cell_length_b   7.17018400
_cell_length_c   4.86305700
_cell_angle_alpha   90.00000000
_cell_angle_beta   90.00000000
_cell_angle_gamma   90.00000000
_symmetry_Int_Tables_number   1
_chemical_formula_structural   Ca2SiB2O7
_chemical_formula_sum   'Ca4 Si2 B4 O14'
_cell_volume   250.01724264
_cell_formula_units_Z   2
loop_
 _symmetry_equiv_pos_site_id
 _symmetry_equiv_pos_as_xyz
  1  'x, y, z'
loop_
 _atom_site_type_symbol
 _atom_site_label
 _atom_site_symmetry_multiplicity
 _atom_site_fract_x
 _atom_site_fract_y
 _atom_site_fract_z
 _atom_site_occupancy
  Ca  Ca0  1  0.66083400  0.16083400  0.48929600  1
  Ca  Ca1  1  0.16083400  0.33916600  0.51070400  1
  Ca  Ca2  1  0.83916600  0.66083400  0.51070400  1
  Ca  Ca3  1  0.33916600  0.83916600  0.48929600  1
  Si  Si0  1  0.00000000  0.00000000  0.00000000  1
  Si  Si1  1  0.50000000  0.50000000  0.00000000  1
  B  B0  1  0.36739000  0.13261000  0.96301300  1
  B  B1  1  0.86739000  0.36739000  0.03698700  1
  B  B2  1  0.13261000  0.63261000  0.03698700  1
  B  B3  1  0.63261000  0.86739000  0.96301300  1
  O  O0  1  0.50000000  0.00000000  0.84112500  1
  O  O1  1  0.17669400  0.07896500  0.81367800  1
  O  O2  1  0.35612900  0.14387100  0.24801600  1
  O  O3  1  0.92103500  0.17669400  0.18632200  1
  O  O4  1  0.42103500  0.32330600  0.81367800  1
  O  O5  1  0.85612900  0.35612900  0.75198400  1
  O  O6  1  0.67669400  0.42103500  0.18632200  1
  O  O7  1  0.00000000  0.50000000  0.15887500  1
  O  O8  1  0.32330600  0.57896500  0.18632200  1
  O  O9  1  0.14387100  0.64387100  0.75198400  1
  O  O10  1  0.57896500  0.67669400  0.81367800  1
  O  O11  1  0.07896500  0.82330600  0.18632200  1
  O  O12  1  0.64387100  0.85612900  0.24801600  1
  O  O13  1  0.82330600  0.92103500  0.81367800  1
loop_
_geom_bond_atom_site_label_1
_geom_bond_atom_site_label_2
_geom_bond_distance
_geom_bond_site_symmetry_2
Ca0 O5 2.356609 1_555
Ca0 O0 2.363722 1_555
Ca0 O3 2.380037 1_555
Ca0 O6 2.380037 1_555
Ca0 O2 2.482917 1_555
Ca0 O12 2.482917 1_545
Ca0 O4 2.608052 1_555
Ca0 O13 2.608052 1_545
Ca1 O2 2.356609 1_555
Ca1 O7 2.363722 1_555
Ca1 O1 2.380037 1_555
Ca1 O4 2.380037 1_555
Ca1 O9 2.482917 1_555
Ca1 O5 2.482917 1_455
Ca1 O3 2.608052 1_455
Ca1 O8 2.608052 1_555
Ca2 O12 2.356609 1_555
Ca2 O7 2.363722 1_655
Ca2 O13 2.380037 1_555
Ca2 O10 2.380037 1_555
Ca2 O5 2.482917 1_555
Ca2 O9 2.482917 1_655
Ca2 O6 2.608052 1_555
Ca2 O11 2.608052 1_655
Ca3 O9 2.356609 1_555
Ca3 O0 2.363722 1_565
Ca3 O11 2.380037 1_555
Ca3 O8 2.380037 1_555
Ca3 O2 2.482917 1_565
Ca3 O12 2.482917 1_555
Ca3 O1 2.608052 1_565
Ca3 O10 2.608052 1_555
B0 O2 1.390682 1_556
B0 O0 1.469536 1_555
B0 O4 1.595284 1_555
B0 O1 1.595284 1_555
B1 O5 1.390682 1_554
B1 O7 1.469536 1_655
B1 O3 1.595284 1_555
B1 O6 1.595284 1_555
B2 O9 1.390682 1_554
B2 O7 1.469536 1_555
B2 O11 1.595284 1_555
B2 O8 1.595284 1_555
B3 O12 1.390682 1_556
B3 O0 1.469536 1_565
B3 O13 1.595284 1_555
B3 O10 1.595284 1_555
O1 Si0 1.657314 1_556
O3 Si0 1.657314 1_655
O4 Si1 1.657314 1_556
O6 Si1 1.657314 1_555
O8 Si1 1.657314 1_555
O10 Si1 1.657314 1_556
O11 Si0 1.657314 1_565
O13 Si0 1.657314 1_666
