# generated using pymatgen
data_LiTi2(PO4)3
_symmetry_space_group_name_H-M   'P 1'
_cell_length_a   11.99911900
_cell_length_b   8.63991400
_cell_length_c   8.71758354
_cell_angle_alpha   89.91089742
_cell_angle_beta   90.00000000
_cell_angle_gamma   90.00000000
_symmetry_Int_Tables_number   1
_chemical_formula_structural   LiTi2(PO4)3
_chemical_formula_sum   'Li4 Ti8 P12 O48'
_cell_volume   903.76261599
_cell_formula_units_Z   4
loop_
 _symmetry_equiv_pos_site_id
 _symmetry_equiv_pos_as_xyz
  1  'x, y, z'
loop_
 _atom_site_type_symbol
 _atom_site_label
 _atom_site_symmetry_multiplicity
 _atom_site_fract_x
 _atom_site_fract_y
 _atom_site_fract_z
 _atom_site_occupancy
  Li  Li0  1  0.81759700  0.28759400  0.22900900  1
  Li  Li1  1  0.68240300  0.78759400  0.22900900  1
  Li  Li2  1  0.31759700  0.21240600  0.77099100  1
  Li  Li3  1  0.18240300  0.71240600  0.77099100  1
  Ti  Ti0  1  0.88394100  0.75431100  0.03213500  1
  Ti  Ti1  1  0.87900200  0.24952800  0.54891500  1
  Ti  Ti2  1  0.62099800  0.74952800  0.54891500  1
  Ti  Ti3  1  0.61605900  0.25431100  0.03213500  1
  Ti  Ti4  1  0.37900200  0.25047200  0.45108500  1
  Ti  Ti5  1  0.38394100  0.74568900  0.96786500  1
  Ti  Ti6  1  0.11605900  0.24568900  0.96786500  1
  Ti  Ti7  1  0.12099800  0.75047200  0.45108500  1
  P  P0  1  0.99833100  0.03982800  0.25245200  1
  P  P1  1  0.85522500  0.39849200  0.89609800  1
  P  P2  1  0.85540800  0.60854000  0.39489700  1
  P  P3  1  0.64459200  0.10854000  0.39489700  1
  P  P4  1  0.64477500  0.89849200  0.89609800  1
  P  P5  1  0.50166900  0.53982800  0.25245200  1
  P  P6  1  0.49833100  0.46017200  0.74754800  1
  P  P7  1  0.35540800  0.89146000  0.60510300  1
  P  P8  1  0.35522500  0.10150800  0.10390200  1
  P  P9  1  0.14477500  0.60150800  0.10390200  1
  P  P10  1  0.14459200  0.39146000  0.60510300  1
  P  P11  1  0.00166900  0.96017200  0.74754800  1
  O  O0  1  0.97473600  0.34333100  0.93374300  1
  O  O1  1  0.97404900  0.66294100  0.43315300  1
  O  O2  1  0.92734500  0.06356300  0.64774100  1
  O  O3  1  0.92458200  0.93682300  0.15093400  1
  O  O4  1  0.92122600  0.14853300  0.34407900  1
  O  O5  1  0.92459700  0.86209700  0.85216100  1
  O  O6  1  0.84586800  0.42997700  0.40134900  1
  O  O7  1  0.84433800  0.57446700  0.91089300  1
  O  O8  1  0.82605600  0.34931500  0.73087900  1
  O  O9  1  0.82284600  0.66259300  0.23090600  1
  O  O10  1  0.77691900  0.32173400  0.01565900  1
  O  O11  1  0.77155200  0.67974600  0.50980900  1
  O  O12  1  0.72308100  0.82173400  0.01565900  1
  O  O13  1  0.72844800  0.17974600  0.50980900  1
  O  O14  1  0.67715400  0.16259300  0.23090600  1
  O  O15  1  0.67394400  0.84931500  0.73087900  1
  O  O16  1  0.65566200  0.07446700  0.91089300  1
  O  O17  1  0.65413200  0.92997700  0.40134900  1
  O  O18  1  0.57540300  0.36209700  0.85216100  1
  O  O19  1  0.57877400  0.64853300  0.34407900  1
  O  O20  1  0.57541800  0.43682300  0.15093400  1
  O  O21  1  0.57265500  0.56356300  0.64774100  1
  O  O22  1  0.52595100  0.16294100  0.43315300  1
  O  O23  1  0.52526400  0.84333100  0.93374300  1
  O  O24  1  0.47404900  0.83705900  0.56684700  1
  O  O25  1  0.47473600  0.15666900  0.06625700  1
  O  O26  1  0.42734500  0.43643700  0.35225900  1
  O  O27  1  0.42458200  0.56317700  0.84906600  1
  O  O28  1  0.42122600  0.35146700  0.65592100  1
  O  O29  1  0.42459700  0.63790300  0.14783900  1
  O  O30  1  0.34586800  0.07002300  0.59865100  1
  O  O31  1  0.34433800  0.92553300  0.08910700  1
  O  O32  1  0.32284600  0.83740700  0.76909400  1
  O  O33  1  0.32605600  0.15068500  0.26912100  1
  O  O34  1  0.27691900  0.17826600  0.98434100  1
  O  O35  1  0.27155200  0.82025400  0.49019100  1
  O  O36  1  0.22308100  0.67826600  0.98434100  1
  O  O37  1  0.22844800  0.32025400  0.49019100  1
  O  O38  1  0.17394400  0.65068500  0.26912100  1
  O  O39  1  0.17715400  0.33740700  0.76909400  1
  O  O40  1  0.15566200  0.42553300  0.08910700  1
  O  O41  1  0.15413200  0.57002300  0.59865100  1
  O  O42  1  0.07540300  0.13790300  0.14783900  1
  O  O43  1  0.07541800  0.06317700  0.84906600  1
  O  O44  1  0.07877400  0.85146700  0.65592100  1
  O  O45  1  0.07265500  0.93643700  0.35225900  1
  O  O46  1  0.02526400  0.65666900  0.06625700  1
  O  O47  1  0.02595100  0.33705900  0.56684700  1
loop_
_geom_bond_atom_site_label_1
_geom_bond_atom_site_label_2
_geom_bond_distance
_geom_bond_site_symmetry_2
Li0 O10 1.944931 1_555
Li0 O6 1.972645 1_555
Li0 O4 1.998062 1_555
Li0 O14 2.001621 1_555
Li1 O12 1.944931 1_555
Li1 O17 1.972645 1_555
Li1 O19 1.998062 1_555
Li1 O9 2.001621 1_555
Li2 O34 1.944931 1_555
Li2 O30 1.972645 1_555
Li2 O28 1.998062 1_555
Li2 O39 2.001621 1_555
Li3 O36 1.944931 1_555
Li3 O41 1.972645 1_555
Li3 O44 1.998062 1_555
Li3 O32 2.001621 1_555
O0 P1 1.546214 1_555
O0 Ti6 1.917021 1_655
O1 P2 1.535978 1_555
O1 Ti7 1.925049 1_655
O2 P11 1.532295 1_645
O2 Ti1 1.912056 1_555
O3 P0 1.536479 1_565
O3 Ti0 1.949875 1_555
O4 P0 1.542219 1_555
O4 Ti1 2.052215 1_555
O5 P11 1.550018 1_655
O5 Ti0 1.887394 1_556
O6 P2 1.547945 1_555
O6 Ti1 2.058491 1_555
O7 P1 1.531651 1_555
O7 Ti0 1.939703 1_556
O8 P1 1.542539 1_555
O8 Ti1 1.915065 1_555
O9 P2 1.553208 1_555
O9 Ti0 2.040516 1_555
O10 P1 1.551409 1_554
O10 Ti3 2.021212 1_555
O11 P2 1.548016 1_555
O11 Ti2 1.934905 1_555
O12 P4 1.551409 1_554
O12 Ti0 2.021212 1_555
O13 P3 1.548016 1_555
O13 Ti1 1.934905 1_555
O14 P3 1.553208 1_555
O14 Ti3 2.040516 1_555
O15 P4 1.542539 1_555
O15 Ti2 1.915065 1_555
O16 P4 1.531651 1_545
O16 Ti3 1.939703 1_556
O17 P3 1.547945 1_565
O17 Ti2 2.058491 1_555
O18 P6 1.550018 1_555
O18 Ti3 1.887394 1_556
O19 P5 1.542219 1_555
O19 Ti2 2.052215 1_555
O20 P5 1.536479 1_555
O20 Ti3 1.949875 1_555
O21 P6 1.532295 1_555
O21 Ti2 1.912056 1_555
O22 P3 1.535978 1_555
O22 Ti4 1.925049 1_555
O23 P4 1.546214 1_555
O23 Ti5 1.917021 1_555
O24 P7 1.535978 1_555
O24 Ti2 1.925049 1_555
O25 P8 1.546214 1_555
O25 Ti3 1.917021 1_555
O26 P5 1.532295 1_555
O26 Ti4 1.912056 1_555
O27 P6 1.536479 1_555
O27 Ti5 1.949875 1_555
O28 P6 1.542219 1_555
O28 Ti4 2.052215 1_555
O29 P5 1.550018 1_555
O29 Ti5 1.887394 1_554
O30 P7 1.547945 1_545
O30 Ti4 2.058491 1_555
O31 P8 1.531651 1_565
O31 Ti5 1.939703 1_554
O32 P7 1.553208 1_555
O32 Ti5 2.040516 1_555
O33 P8 1.542539 1_555
O33 Ti4 1.915065 1_555
O34 P8 1.551409 1_556
O34 Ti6 2.021212 1_555
O35 P7 1.548016 1_555
O35 Ti7 1.934905 1_555
O36 P9 1.551409 1_556
O36 Ti5 2.021212 1_555
O37 P10 1.548016 1_555
O37 Ti4 1.934905 1_555
O38 P9 1.542539 1_555
O38 Ti7 1.915065 1_555
O39 P10 1.553208 1_555
O39 Ti6 2.040516 1_555
O40 P9 1.531651 1_555
O40 Ti6 1.939703 1_554
O41 P10 1.547945 1_555
O41 Ti7 2.058491 1_555
O42 P0 1.550018 1_455
O42 Ti6 1.887394 1_554
O43 P11 1.536479 1_545
O43 Ti6 1.949875 1_555
O44 P11 1.542219 1_555
O44 Ti7 2.052215 1_555
O45 P0 1.532295 1_465
O45 Ti7 1.912056 1_555
O46 P9 1.546214 1_555
O46 Ti0 1.917021 1_455
O47 P10 1.535978 1_555
O47 Ti1 1.925049 1_455
