# generated using pymatgen
data_Li24Ti5Cr7O36
_symmetry_space_group_name_H-M   'P 1'
_cell_length_a   5.05823400
_cell_length_b   9.79399030
_cell_length_c   13.40285366
_cell_angle_alpha   97.15466333
_cell_angle_beta   100.68910438
_cell_angle_gamma   94.81454779
_symmetry_Int_Tables_number   1
_chemical_formula_structural   Li24Ti5Cr7O36
_chemical_formula_sum   'Li24 Ti5 Cr7 O36'
_cell_volume   643.46704475
_cell_formula_units_Z   1
loop_
 _symmetry_equiv_pos_site_id
 _symmetry_equiv_pos_as_xyz
  1  'x, y, z'
loop_
 _atom_site_type_symbol
 _atom_site_label
 _atom_site_symmetry_multiplicity
 _atom_site_fract_x
 _atom_site_fract_y
 _atom_site_fract_z
 _atom_site_occupancy
  Li  Li0  1  0.17514500  0.99897700  0.83216000  1
  Li  Li1  1  0.04562300  0.00042800  0.61310800  1
  Li  Li2  1  0.00036500  0.74893500  0.24891200  1
  Li  Li3  1  0.33116300  0.74905100  0.91716500  1
  Li  Li4  1  0.04822000  0.50038900  0.11313300  1
  Li  Li5  1  0.37671700  0.50012800  0.77930700  1
  Li  Li6  1  0.16618500  0.50161500  0.33314200  1
  Li  Li7  1  0.50456500  0.49948000  0.99937700  1
  Li  Li8  1  0.28667100  0.50256900  0.55555900  1
  Li  Li9  1  0.33339900  0.24963400  0.41691400  1
  Li  Li10  1  0.50800100  0.99796300  0.49999700  1
  Li  Li11  1  0.28356200  0.99739800  0.05223100  1
  Li  Li12  1  0.61481800  0.99896200  0.71994600  1
  Li  Li13  1  0.38334000  0.99849000  0.28037000  1
  Li  Li14  1  0.71465700  0.00189600  0.94680500  1
  Li  Li15  1  0.66614000  0.75038700  0.58255900  1
  Li  Li16  1  0.70792800  0.49872400  0.44492600  1
  Li  Li17  1  0.84393700  0.49968900  0.66589800  1
  Li  Li18  1  0.61948800  0.50042400  0.22141900  1
  Li  Li19  1  0.94628000  0.49843500  0.88575400  1
  Li  Li20  1  0.66415300  0.24948100  0.08349900  1
  Li  Li21  1  0.82758000  0.00272700  0.16689700  1
  Li  Li22  1  0.99896400  0.25035900  0.74875700  1
  Li  Li23  1  0.95254500  0.00217000  0.38719800  1
  Ti  Ti0  1  0.10749900  0.24682000  0.97190400  1
  Ti  Ti1  1  0.11817400  0.75770900  0.47369800  1
  Ti  Ti2  1  0.22228500  0.24783600  0.19404200  1
  Ti  Ti3  1  0.45352200  0.25741700  0.64031100  1
  Ti  Ti4  1  0.77508300  0.74669900  0.80775200  1
  Cr  Cr0  1  0.21791900  0.75023000  0.69385200  1
  Cr  Cr1  1  0.55048200  0.24946200  0.85969900  1
  Cr  Cr2  1  0.43743700  0.74697100  0.13513700  1
  Cr  Cr3  1  0.56274000  0.74862800  0.35851800  1
  Cr  Cr4  1  0.77205900  0.24917300  0.30730500  1
  Cr  Cr5  1  0.89902400  0.24982800  0.52650900  1
  Cr  Cr6  1  0.89000700  0.75121300  0.03152300  1
  O  O0  1  0.99816700  0.86236300  0.93078100  1
  O  O1  1  0.06840200  0.63365100  0.78672400  1
  O  O2  1  0.00297300  0.36235300  0.43316700  1
  O  O3  1  0.14777300  0.36405800  0.64454800  1
  O  O4  1  0.27106700  0.36419200  0.88040400  1
  O  O5  1  0.33943800  0.86605900  0.59475000  1
  O  O6  1  0.06698800  0.13596000  0.28698000  1
  O  O7  1  0.18214100  0.13728100  0.52267700  1
  O  O8  1  0.40098200  0.13312800  0.95275000  1
  O  O9  1  0.13320600  0.86175000  0.14096700  1
  O  O10  1  0.26537500  0.86479800  0.37973200  1
  O  O11  1  0.47189000  0.86162000  0.80907100  1
  O  O12  1  0.33604300  0.13839800  0.74100700  1
  O  O13  1  0.19685400  0.63693300  0.02586100  1
  O  O14  1  0.40434300  0.63568800  0.44985100  1
  O  O15  1  0.51906300  0.63878700  0.68917100  1
  O  O16  1  0.33057900  0.63707500  0.23491200  1
  O  O17  1  0.66617700  0.63742200  0.90691600  1
  O  O18  1  0.33111800  0.36360800  0.09564000  1
  O  O19  1  0.67241800  0.36523400  0.76132900  1
  O  O20  1  0.48470700  0.36260500  0.31183500  1
  O  O21  1  0.59898600  0.36491800  0.54680800  1
  O  O22  1  0.80594400  0.36119600  0.97535100  1
  O  O23  1  0.66372500  0.85952100  0.26335200  1
  O  O24  1  0.51904300  0.13513700  0.18941500  1
  O  O25  1  0.73846900  0.13612300  0.61635200  1
  O  O26  1  0.85187900  0.13842700  0.85487100  1
  O  O27  1  0.59094400  0.86437000  0.05252800  1
  O  O28  1  0.81360200  0.86427000  0.47717000  1
  O  O29  1  0.93790600  0.86475000  0.71437700  1
  O  O30  1  0.66304500  0.13829500  0.40071900  1
  O  O31  1  0.74299200  0.63525300  0.11612200  1
  O  O32  1  0.84941300  0.63707500  0.35581400  1
  O  O33  1  0.00339300  0.63885900  0.57451500  1
  O  O34  1  0.92803300  0.36383500  0.21718800  1
  O  O35  1  0.99724300  0.13471000  0.07106400  1
loop_
_geom_bond_atom_site_label_1
_geom_bond_atom_site_label_2
_geom_bond_distance
_geom_bond_site_symmetry_2
Li0 O29 2.043482 1_455
Li0 O8 2.043930 1_565
Li0 O11 2.136846 1_555
Li0 O12 2.148802 1_565
Li0 O0 2.239911 1_455
Li0 O26 2.255588 1_465
Li1 O7 2.074163 1_555
Li1 O5 2.093912 1_545
Li1 O29 2.122964 1_445
Li1 O25 2.130548 1_455
Li1 O28 2.194098 1_445
Li1 O12 2.253465 1_555
Li2 O16 2.097041 1_555
Li2 O9 2.097539 1_555
Li2 O23 2.118886 1_455
Li2 O32 2.119567 1_455
Li2 O31 2.122643 1_455
Li2 O10 2.129792 1_555
Li3 O13 2.104782 1_556
Li3 O17 2.108481 1_555
Li3 O11 2.114198 1_555
Li3 O0 2.116453 1_455
Li3 O1 2.119925 1_555
Li3 O27 2.156363 1_556
Li4 O18 2.065247 1_555
Li4 O13 2.066137 1_555
Li4 O31 2.117079 1_455
Li4 O34 2.178508 1_455
Li4 O16 2.183123 1_555
Li4 O22 2.241303 1_454
Li5 O15 2.095071 1_555
Li5 O19 2.103996 1_555
Li5 O4 2.119584 1_555
Li5 O1 2.125941 1_555
Li5 O3 2.178243 1_555
Li5 O17 2.246054 1_555
Li6 O14 2.036194 1_555
Li6 O34 2.048800 1_455
Li6 O16 2.200214 1_555
Li6 O32 2.203831 1_455
Li6 O20 2.230024 1_555
Li6 O2 2.239677 1_555
Li7 O31 2.045374 1_556
Li7 O4 2.050771 1_555
Li7 O17 2.153286 1_555
Li7 O22 2.163779 1_555
Li7 O13 2.190559 1_556
Li7 O18 2.203808 1_556
Li8 O33 2.066663 1_555
Li8 O3 2.076141 1_555
Li8 O14 2.168884 1_555
Li8 O21 2.171122 1_555
Li8 O15 2.174695 1_555
Li8 O2 2.207006 1_555
Li9 O30 2.096910 1_555
Li9 O20 2.106965 1_555
Li9 O2 2.108215 1_555
Li9 O7 2.110722 1_555
Li9 O6 2.117274 1_555
Li9 O21 2.120995 1_555
Li10 O25 2.038909 1_565
Li10 O10 2.068615 1_555
Li10 O28 2.147793 1_555
Li10 O5 2.152708 1_555
Li10 O30 2.221776 1_565
Li10 O7 2.265192 1_565
Li11 O9 2.077837 1_555
Li11 O35 2.085129 1_465
Li11 O27 2.110443 1_555
Li11 O8 2.121418 1_564
Li11 O0 2.180431 1_454
Li11 O24 2.217941 1_565
Li12 O12 2.075556 1_565
Li12 O11 2.077572 1_555
Li12 O5 2.175943 1_555
Li12 O25 2.183878 1_565
Li12 O29 2.187602 1_555
Li12 O26 2.208891 1_565
Li13 O23 2.069457 1_555
Li13 O24 2.076288 1_565
Li13 O10 2.107610 1_555
Li13 O30 2.180929 1_565
Li13 O6 2.183048 1_565
Li13 O9 2.258453 1_555
Li14 O0 2.083343 1_545
Li14 O26 2.088058 1_555
Li14 O8 2.130597 1_555
Li14 O35 2.184947 1_556
Li14 O27 2.208287 1_546
Li14 O11 2.246635 1_545
Li15 O5 2.099840 1_555
Li15 O15 2.106368 1_555
Li15 O28 2.106949 1_555
Li15 O33 2.113419 1_655
Li15 O14 2.134950 1_555
Li15 O29 2.147854 1_555
Li16 O32 2.081378 1_555
Li16 O2 2.098905 1_655
Li16 O21 2.118807 1_555
Li16 O14 2.126777 1_555
Li16 O20 2.154509 1_555
Li16 O33 2.287567 1_655
Li17 O1 2.042459 1_655
Li17 O21 2.071750 1_555
Li17 O33 2.146226 1_655
Li17 O3 2.149320 1_655
Li17 O19 2.182243 1_555
Li17 O15 2.261351 1_555
Li18 O20 2.077195 1_555
Li18 O16 2.079800 1_555
Li18 O34 2.143118 1_555
Li18 O32 2.179331 1_555
Li18 O31 2.185985 1_555
Li18 O18 2.227582 1_555
Li19 O22 2.076226 1_555
Li19 O17 2.077848 1_555
Li19 O1 2.121725 1_655
Li19 O19 2.167869 1_555
Li19 O4 2.194429 1_655
Li19 O13 2.273030 1_656
Li20 O24 2.110129 1_555
Li20 O22 2.112232 1_554
Li20 O18 2.118039 1_555
Li20 O35 2.122598 1_555
Li20 O8 2.127001 1_554
Li20 O34 2.146748 1_555
Li21 O27 2.036740 1_545
Li21 O6 2.061102 1_655
Li21 O24 2.150683 1_555
Li21 O35 2.166440 1_555
Li21 O9 2.203442 1_645
Li21 O23 2.231449 1_545
Li22 O19 2.095338 1_555
Li22 O3 2.096208 1_655
Li22 O26 2.102864 1_555
Li22 O12 2.114586 1_655
Li22 O25 2.127846 1_555
Li22 O4 2.145256 1_655
Li23 O30 2.078606 1_555
Li23 O28 2.081569 1_545
Li23 O6 2.110884 1_655
Li23 O10 2.169476 1_645
Li23 O7 2.181323 1_655
Li23 O23 2.240887 1_545
Cr0 O33 1.910083 1_555
Cr0 O29 1.916804 1_455
Cr0 O15 1.952700 1_555
Cr0 O11 1.958164 1_555
Cr0 O1 1.995825 1_555
Cr0 O5 1.997536 1_555
Cr1 O12 1.902956 1_555
Cr1 O4 1.916138 1_555
Cr1 O26 1.951504 1_555
Cr1 O22 1.966486 1_555
Cr1 O19 1.990228 1_555
Cr1 O8 1.996142 1_555
Cr2 O13 1.874287 1_555
Cr2 O27 1.907095 1_555
Cr2 O16 1.941113 1_555
Cr2 O9 1.987723 1_555
Cr2 O31 2.002863 1_555
Cr2 O23 2.016182 1_555
Cr3 O23 1.887069 1_555
Cr3 O32 1.890295 1_555
Cr3 O14 1.978963 1_555
Cr3 O16 1.982258 1_555
Cr3 O28 1.995854 1_555
Cr3 O10 2.000785 1_555
Cr4 O30 1.882850 1_555
Cr4 O20 1.907232 1_555
Cr4 O6 1.970373 1_655
Cr4 O34 1.971054 1_555
Cr4 O24 1.988024 1_555
Cr4 O2 2.006147 1_655
Cr5 O2 1.883170 1_655
Cr5 O7 1.883258 1_655
Cr5 O25 1.973494 1_555
Cr5 O3 1.980425 1_655
Cr5 O21 2.002952 1_555
Cr5 O30 2.009049 1_555
Cr6 O9 1.883741 1_655
Cr6 O31 1.902704 1_555
Cr6 O0 1.961552 1_554
Cr6 O17 1.983989 1_554
Cr6 O27 1.989354 1_555
Cr6 O13 1.995412 1_655
O0 Ti4 1.976226 1_555
O1 Ti4 1.964621 1_455
O3 Ti3 1.942897 1_555
O4 Ti0 2.019367 1_555
O5 Ti1 1.925928 1_555
O6 Ti2 1.981848 1_555
O7 Ti3 2.053885 1_555
O8 Ti0 1.963971 1_555
O10 Ti1 1.945857 1_555
O11 Ti4 1.978381 1_555
O12 Ti3 2.026443 1_555
O14 Ti1 1.998123 1_555
O15 Ti4 1.976953 1_555
O17 Ti4 1.934510 1_555
O18 Ti2 1.966007 1_555
O18 Ti0 1.988097 1_554
O19 Ti3 1.919044 1_555
O20 Ti2 2.011974 1_555
O21 Ti3 1.939363 1_555
O22 Ti0 1.970710 1_655
O24 Ti2 1.941901 1_555
O25 Ti3 1.988935 1_555
O26 Ti0 1.965113 1_655
O28 Ti1 1.936290 1_655
O29 Ti4 2.040653 1_555
O32 Ti1 2.051579 1_655
O33 Ti1 2.021689 1_555
O34 Ti2 1.992387 1_655
O35 Ti0 1.954129 1_654
O35 Ti2 1.969127 1_655
