# generated using pymatgen
data_LiMn7O12
_symmetry_space_group_name_H-M   'P 1'
_cell_length_a   6.43458964
_cell_length_b   6.43468548
_cell_length_c   6.43465836
_cell_angle_alpha   109.45339074
_cell_angle_beta   109.46866652
_cell_angle_gamma   109.48992740
_symmetry_Int_Tables_number   1
_chemical_formula_structural   LiMn7O12
_chemical_formula_sum   'Li1 Mn7 O12'
_cell_volume   205.09767551
_cell_formula_units_Z   1
loop_
 _symmetry_equiv_pos_site_id
 _symmetry_equiv_pos_as_xyz
  1  'x, y, z'
loop_
 _atom_site_type_symbol
 _atom_site_label
 _atom_site_symmetry_multiplicity
 _atom_site_fract_x
 _atom_site_fract_y
 _atom_site_fract_z
 _atom_site_occupancy
  Li  Li0  1  0.00000000  0.00000200  0.00000100  1
  Mn  Mn0  1  0.49999800  0.00000100  0.00000200  1
  Mn  Mn1  1  0.50000400  0.49999200  0.99999500  1
  Mn  Mn2  1  0.49999800  0.99998800  0.49999700  1
  Mn  Mn3  1  0.99999700  0.50000100  0.00000100  1
  Mn  Mn4  1  0.00000100  0.00000500  0.49999700  1
  Mn  Mn5  1  0.50000100  0.49999900  0.49999500  1
  Mn  Mn6  1  0.99999800  0.50000200  0.50000500  1
  O  O0  1  0.81766700  0.12866900  0.31099200  1
  O  O1  1  0.87135300  0.68902600  0.18232500  1
  O  O2  1  0.49330000  0.31097400  0.18232200  1
  O  O3  1  0.31096400  0.18230600  0.49327700  1
  O  O4  1  0.68903600  0.18230500  0.87135400  1
  O  O5  1  0.81766500  0.50668500  0.68902400  1
  O  O6  1  0.18233300  0.49331800  0.31097900  1
  O  O7  1  0.31096200  0.81769600  0.12864700  1
  O  O8  1  0.68904100  0.81769600  0.50672600  1
  O  O9  1  0.12864900  0.31097600  0.81767600  1
  O  O10  1  0.50670200  0.68902600  0.81767800  1
  O  O11  1  0.18233200  0.87133300  0.68900900  1
loop_
_geom_bond_atom_site_label_1
_geom_bond_atom_site_label_2
_geom_bond_distance
_geom_bond_site_symmetry_2
Li0 O9 2.677960 1_554
Li0 O1 2.677963 1_445
Li0 O10 2.677979 1_444
Li0 O2 2.677986 1_555
Li0 O4 2.678429 1_454
Li0 O7 2.678433 1_545
Li0 O8 2.678534 1_444
Li0 O3 2.678548 1_555
Li0 O0 2.678816 1_455
Li0 O6 2.678817 1_555
Li0 O5 2.678818 1_444
Li0 O11 2.678819 1_544
Mn0 O7 1.976545 1_545
Mn0 O4 1.976564 1_554
Mn0 O11 1.977047 1_544
Mn0 O0 1.977047 1_555
Mn0 O2 1.977333 1_555
Mn0 O10 1.977372 1_544
Mn1 O2 1.951099 1_556
Mn1 O10 1.951130 1_555
Mn1 O1 1.951135 1_556
Mn1 O9 1.951166 1_555
Mn2 O8 1.951481 1_555
Mn2 O3 1.951569 1_565
Mn2 O7 1.951607 1_555
Mn2 O4 1.951642 1_565
Mn3 O4 1.976668 1_554
Mn3 O7 1.976680 1_655
Mn3 O5 1.976999 1_554
Mn3 O6 1.977007 1_655
Mn3 O1 1.977300 1_555
Mn3 O9 1.977346 1_654
Mn4 O3 1.976568 1_555
Mn4 O8 1.976598 1_445
Mn4 O0 1.977053 1_455
Mn4 O11 1.977110 1_545
Mn4 O9 1.977388 1_555
Mn4 O1 1.977390 1_445
Mn5 O8 1.976659 1_555
Mn5 O3 1.976677 1_555
Mn5 O5 1.977017 1_555
Mn5 O6 1.977033 1_555
Mn5 O2 1.977342 1_555
Mn5 O10 1.977399 1_555
Mn6 O11 1.951276 1_655
Mn6 O0 1.951287 1_555
Mn6 O5 1.951328 1_555
Mn6 O6 1.951376 1_655
