# generated using pymatgen
data_LiY3WO8
_symmetry_space_group_name_H-M   'P 1'
_cell_length_a   6.29208179
_cell_length_b   6.29208179
_cell_length_c   6.15228700
_cell_angle_alpha   90.00000000
_cell_angle_beta   90.00000000
_cell_angle_gamma   125.52249454
_symmetry_Int_Tables_number   1
_chemical_formula_structural   LiY3WO8
_chemical_formula_sum   'Li1 Y3 W1 O8'
_cell_volume   198.23925981
_cell_formula_units_Z   1
loop_
 _symmetry_equiv_pos_site_id
 _symmetry_equiv_pos_as_xyz
  1  'x, y, z'
loop_
 _atom_site_type_symbol
 _atom_site_label
 _atom_site_symmetry_multiplicity
 _atom_site_fract_x
 _atom_site_fract_y
 _atom_site_fract_z
 _atom_site_occupancy
  Li  Li0  1  0.50000000  0.50000000  0.00000000  1
  Y  Y0  1  0.50000000  0.00000000  0.74160400  1
  Y  Y1  1  0.00000000  0.50000000  0.25839600  1
  Y  Y2  1  0.50000000  0.50000000  0.50000000  1
  W  W0  1  0.00000000  0.00000000  0.00000000  1
  O  O0  1  0.82385700  0.17614300  0.00000000  1
  O  O1  1  0.69562900  0.30437100  0.50000000  1
  O  O2  1  0.27523500  0.21769300  0.78553400  1
  O  O3  1  0.21769300  0.27523500  0.21446600  1
  O  O4  1  0.78230700  0.72476500  0.21446600  1
  O  O5  1  0.72476500  0.78230700  0.78553400  1
  O  O6  1  0.30437100  0.69562900  0.50000000  1
  O  O7  1  0.17614300  0.82385700  0.00000000  1
loop_
_geom_bond_atom_site_label_1
_geom_bond_atom_site_label_2
_geom_bond_distance
_geom_bond_site_symmetry_2
Li0 O4 1.994264 1_555
Li0 O3 1.994264 1_555
Li0 O5 1.994264 1_554
Li0 O2 1.994264 1_554
O0 W0 1.970806 1_655
O0 Y1 2.298594 1_655
O0 Y0 2.298594 1_554
O1 Y0 2.157068 1_555
O1 Y1 2.157068 1_655
O1 Y2 2.188828 1_555
O2 W0 1.964633 1_556
O2 Y2 2.306962 1_555
O2 Y0 2.490053 1_555
O3 W0 1.964633 1_555
O3 Y2 2.306962 1_555
O3 Y1 2.490053 1_555
O4 W0 1.964633 1_665
O4 Y2 2.306962 1_555
O4 Y1 2.490053 1_655
O5 W0 1.964633 1_666
O5 Y2 2.306962 1_555
O5 Y0 2.490053 1_565
O6 Y0 2.157068 1_565
O6 Y1 2.157068 1_555
O6 Y2 2.188828 1_555
O7 W0 1.970806 1_565
O7 Y1 2.298594 1_555
O7 Y0 2.298594 1_564
