# generated using pymatgen
data_Li4MnFe2(BO3)4
_symmetry_space_group_name_H-M   'P 1'
_cell_length_a   9.00665500
_cell_length_b   5.29164700
_cell_length_c   9.95652407
_cell_angle_alpha   89.10302316
_cell_angle_beta   90.00000000
_cell_angle_gamma   90.00000000
_symmetry_Int_Tables_number   1
_chemical_formula_structural   Li4MnFe2(BO3)4
_chemical_formula_sum   'Li8 Mn2 Fe4 B8 O24'
_cell_volume   474.47017601
_cell_formula_units_Z   2
loop_
 _symmetry_equiv_pos_site_id
 _symmetry_equiv_pos_as_xyz
  1  'x, y, z'
loop_
 _atom_site_type_symbol
 _atom_site_label
 _atom_site_symmetry_multiplicity
 _atom_site_fract_x
 _atom_site_fract_y
 _atom_site_fract_z
 _atom_site_occupancy
  Li  Li0  1  0.39468300  0.83195900  0.60235800  1
  Li  Li1  1  0.73529000  0.84165300  0.08702700  1
  Li  Li2  1  0.90837200  0.64915300  0.88775800  1
  Li  Li3  1  0.22940600  0.65382900  0.83689800  1
  Li  Li4  1  0.26471000  0.34165300  0.58702700  1
  Li  Li5  1  0.60531700  0.33195900  0.10235800  1
  Li  Li6  1  0.09162800  0.14915300  0.38775800  1
  Li  Li7  1  0.77059400  0.15382900  0.33689800  1
  Mn  Mn0  1  0.72222300  0.85444000  0.66874800  1
  Mn  Mn1  1  0.27777700  0.35444000  0.16874800  1
  Fe  Fe0  1  0.06450600  0.84815900  0.12616600  1
  Fe  Fe1  1  0.57358700  0.64992800  0.36905700  1
  Fe  Fe2  1  0.93549400  0.34815900  0.62616600  1
  Fe  Fe3  1  0.42641300  0.14992800  0.86905700  1
  B  B0  1  0.08047200  0.83177700  0.62346400  1
  B  B1  1  0.41564400  0.84382900  0.12827200  1
  B  B2  1  0.56709500  0.65993500  0.88065600  1
  B  B3  1  0.91004300  0.65871800  0.37212600  1
  B  B4  1  0.58435600  0.34382900  0.62827200  1
  B  B5  1  0.91952800  0.33177700  0.12346400  1
  B  B6  1  0.08995700  0.15871800  0.87212600  1
  B  B7  1  0.43290500  0.15993500  0.38065600  1
  O  O0  1  0.07502700  0.91049000  0.92000100  1
  O  O1  1  0.43461800  0.90473500  0.41043600  1
  O  O2  1  0.70045700  0.78801500  0.87529900  1
  O  O3  1  0.43350800  0.78655300  0.85523100  1
  O  O4  1  0.02753900  0.79913200  0.32034600  1
  O  O5  1  0.77105200  0.78023900  0.37382600  1
  O  O6  1  0.93845300  0.72305900  0.64603300  1
  O  O7  1  0.27403700  0.73659900  0.13164200  1
  O  O8  1  0.53848100  0.69712700  0.16379900  1
  O  O9  1  0.20231900  0.68301700  0.63870200  1
  O  O10  1  0.56883700  0.59586000  0.58913700  1
  O  O11  1  0.91237400  0.58900800  0.08874300  1
  O  O12  1  0.56538200  0.40473500  0.91043600  1
  O  O13  1  0.92497300  0.41049000  0.42000100  1
  O  O14  1  0.97246100  0.29913200  0.82034600  1
  O  O15  1  0.29954300  0.28801500  0.37529900  1
  O  O16  1  0.22894800  0.28023900  0.87382600  1
  O  O17  1  0.56649200  0.28655300  0.35523100  1
  O  O18  1  0.72596300  0.23659900  0.63164200  1
  O  O19  1  0.06154700  0.22305900  0.14603300  1
  O  O20  1  0.46151900  0.19712700  0.66379900  1
  O  O21  1  0.79768100  0.18301700  0.13870200  1
  O  O22  1  0.08762600  0.08900800  0.58874300  1
  O  O23  1  0.43116300  0.09586000  0.08913700  1
loop_
_geom_bond_atom_site_label_1
_geom_bond_atom_site_label_2
_geom_bond_distance
_geom_bond_site_symmetry_2
Li0 O9 1.935185 1_555
Li0 O1 1.976381 1_555
Li0 O10 2.010893 1_555
Li0 O20 2.123097 1_565
Li0 O3 2.549522 1_555
Li1 O21 1.967888 1_565
Li1 O8 2.071942 1_555
Li1 O11 2.081037 1_555
Li1 O2 2.154461 1_554
Li2 O2 2.014740 1_555
Li2 O11 2.021658 1_556
Li2 O14 2.062331 1_555
Li2 O0 2.069394 1_655
Li2 O6 2.447301 1_555
Li3 O3 1.977336 1_555
Li3 O9 1.991962 1_555
Li3 O16 2.005144 1_555
Li3 O0 2.120783 1_555
Li4 O9 1.967888 1_555
Li4 O20 2.071942 1_555
Li4 O22 2.081037 1_555
Li4 O15 2.154461 1_555
Li5 O21 1.935185 1_555
Li5 O12 1.976381 1_554
Li5 O23 2.010893 1_555
Li5 O8 2.123097 1_555
Li5 O17 2.549522 1_555
Li6 O15 2.014740 1_555
Li6 O22 2.021658 1_555
Li6 O4 2.062331 1_545
Li6 O13 2.069394 1_455
Li6 O19 2.447301 1_555
Li7 O17 1.977336 1_555
Li7 O21 1.991962 1_555
Li7 O5 2.005144 1_545
Li7 O13 2.120783 1_555
Mn0 O18 2.050300 1_565
Mn0 O6 2.081393 1_555
Mn0 O2 2.090135 1_555
Mn0 O10 2.107857 1_555
Mn1 O7 2.050300 1_555
Mn1 O19 2.081393 1_555
Mn1 O15 2.090135 1_555
Mn1 O23 2.107857 1_555
Fe0 O4 1.974925 1_555
Fe0 O7 1.977849 1_555
Fe0 O11 1.978090 1_455
Fe0 O19 1.996932 1_565
Fe0 O0 2.076077 1_554
Fe1 O1 1.889918 1_555
Fe1 O5 1.908358 1_555
Fe1 O17 1.930979 1_555
Fe1 O8 2.079160 1_555
Fe1 O10 2.205801 1_555
Fe2 O14 1.974925 1_555
Fe2 O18 1.977849 1_555
Fe2 O22 1.978090 1_655
Fe2 O6 1.996932 1_555
Fe2 O13 2.076077 1_555
Fe3 O12 1.889918 1_555
Fe3 O16 1.908358 1_555
Fe3 O3 1.930979 1_545
Fe3 O20 2.079160 1_555
Fe3 O23 2.205801 1_556
B0 O9 1.357682 1_555
B0 O22 1.400617 1_565
B0 O6 1.418997 1_455
B1 O23 1.390590 1_565
B1 O8 1.393976 1_555
B1 O7 1.396122 1_555
B2 O12 1.378141 1_555
B2 O2 1.379788 1_555
B2 O3 1.398327 1_555
B3 O4 1.387718 1_655
B3 O13 1.396806 1_555
B3 O5 1.407569 1_555
B4 O10 1.390590 1_555
B4 O20 1.393976 1_555
B4 O18 1.396122 1_555
B5 O21 1.357682 1_555
B5 O11 1.400617 1_555
B5 O19 1.418997 1_655
B6 O14 1.387718 1_455
B6 O0 1.396806 1_545
B6 O16 1.407569 1_555
B7 O1 1.378141 1_545
B7 O15 1.379788 1_555
B7 O17 1.398327 1_555
