# generated using pymatgen
data_Li6Hf2O7
_symmetry_space_group_name_H-M   'P 1'
_cell_length_a   5.96776214
_cell_length_b   5.27705425
_cell_length_c   10.23557879
_cell_angle_alpha   69.95347861
_cell_angle_beta   90.00000000
_cell_angle_gamma   90.00000000
_symmetry_Int_Tables_number   1
_chemical_formula_structural   Li6Hf2O7
_chemical_formula_sum   'Li12 Hf4 O14'
_cell_volume   302.81178859
_cell_formula_units_Z   2
loop_
 _symmetry_equiv_pos_site_id
 _symmetry_equiv_pos_as_xyz
  1  'x, y, z'
loop_
 _atom_site_type_symbol
 _atom_site_label
 _atom_site_symmetry_multiplicity
 _atom_site_fract_x
 _atom_site_fract_y
 _atom_site_fract_z
 _atom_site_occupancy
  Li  Li0  1  0.77981306  0.20718826  0.14272138  1
  Li  Li1  1  0.23530913  0.21517517  0.13777288  1
  Li  Li2  1  0.49538963  0.84008373  0.12407796  1
  Li  Li3  1  0.99538963  0.15991627  0.37592204  1
  Li  Li4  1  0.73530913  0.78482483  0.36222712  1
  Li  Li5  1  0.27981306  0.79281174  0.35727862  1
  Li  Li6  1  0.72018694  0.20718826  0.64272138  1
  Li  Li7  1  0.26469087  0.21517517  0.63777288  1
  Li  Li8  1  0.00461037  0.84008373  0.62407796  1
  Li  Li9  1  0.50461037  0.15991627  0.87592204  1
  Li  Li10  1  0.76469087  0.78482483  0.86222712  1
  Li  Li11  1  0.22018694  0.79281174  0.85727862  1
  Hf  Hf0  1  0.00636289  0.72931749  0.13331188  1
  Hf  Hf1  1  0.50636289  0.27068251  0.36668812  1
  Hf  Hf2  1  0.49363711  0.72931749  0.63331188  1
  Hf  Hf3  1  0.99363711  0.27068251  0.86668812  1
  O  O0  1  -0.00000000  0.50000000  -0.00000000  1
  O  O1  1  0.76563631  0.99001228  0.00334762  1
  O  O2  1  0.50754176  0.03977434  0.24547020  1
  O  O3  1  0.27789553  0.51920947  0.23727455  1
  O  O4  1  0.77789553  0.48079053  0.26272545  1
  O  O5  1  0.00754176  0.96022566  0.25452980  1
  O  O6  1  0.26563631  0.00998772  0.49665238  1
  O  O7  1  0.50000000  0.50000000  0.50000000  1
  O  O8  1  0.73436369  0.99001228  0.50334762  1
  O  O9  1  0.99245824  0.03977434  0.74547020  1
  O  O10  1  0.22210447  0.51920947  0.73727455  1
  O  O11  1  0.72210447  0.48079053  0.76272545  1
  O  O12  1  0.49245824  0.96022566  0.75452980  1
  O  O13  1  0.23436369  0.00998772  0.99665238  1
loop_
_geom_bond_atom_site_label_1
_geom_bond_atom_site_label_2
_geom_bond_distance
_geom_bond_site_symmetry_2
Li0 O5 1.957703 1_645
Li0 O2 1.972235 1_555
Li0 O1 2.115783 1_545
Li0 O0 2.168131 1_655
Li0 O4 2.193011 1_555
Li1 O5 1.995889 1_545
Li1 O2 2.002944 1_555
Li1 O13 2.081138 1_554
Li1 O0 2.183257 1_555
Li1 O3 2.190020 1_555
Li2 O2 1.886055 1_565
Li2 O1 2.020836 1_555
Li2 O13 2.032207 1_564
Li2 O3 2.132904 1_555
Li2 O4 2.570312 1_555
Li3 O5 1.886055 1_645
Li3 O6 2.020836 1_655
Li3 O8 2.032207 1_545
Li3 O4 2.132904 1_555
Li3 O3 2.570312 1_655
Li4 O2 1.995889 1_565
Li4 O5 2.002944 1_655
Li4 O8 2.081138 1_555
Li4 O7 2.183257 1_555
Li4 O4 2.190020 1_555
Li5 O2 1.957703 1_565
Li5 O5 1.972235 1_555
Li5 O6 2.115783 1_565
Li5 O7 2.168131 1_555
Li5 O3 2.193011 1_555
Li6 O12 1.957703 1_545
Li6 O9 1.972235 1_555
Li6 O8 2.115783 1_545
Li6 O7 2.168131 1_555
Li6 O11 2.193011 1_555
Li7 O12 1.995889 1_545
Li7 O9 2.002944 1_455
Li7 O6 2.081138 1_555
Li7 O7 2.183257 1_555
Li7 O10 2.190020 1_555
Li8 O9 1.886055 1_465
Li8 O8 2.020836 1_455
Li8 O6 2.032207 1_565
Li8 O10 2.132904 1_555
Li8 O11 2.570312 1_455
Li9 O12 1.886055 1_545
Li9 O13 2.020836 1_555
Li9 O1 2.032207 1_546
Li9 O11 2.132904 1_555
Li9 O10 2.570312 1_555
Li10 O9 1.995889 1_565
Li10 O12 2.002944 1_555
Li10 O1 2.081138 1_556
Li10 O0 2.183257 1_656
Li10 O11 2.190020 1_555
Li11 O9 1.957703 1_465
Li11 O12 1.972235 1_555
Li11 O13 2.115783 1_565
Li11 O0 2.168131 1_556
Li11 O10 2.193011 1_555
Hf0 O5 2.015125 1_555
Hf0 O4 2.035341 1_455
Hf0 O3 2.044175 1_555
Hf0 O0 2.111823 1_555
Hf0 O1 2.114556 1_455
Hf0 O13 2.140410 1_564
Hf1 O2 2.015125 1_555
Hf1 O3 2.035341 1_555
Hf1 O4 2.044175 1_555
Hf1 O7 2.111823 1_555
Hf1 O6 2.114556 1_555
Hf1 O8 2.140410 1_545
Hf2 O12 2.015125 1_555
Hf2 O11 2.035341 1_555
Hf2 O10 2.044175 1_555
Hf2 O7 2.111823 1_555
Hf2 O8 2.114556 1_555
Hf2 O6 2.140410 1_565
Hf3 O9 2.015125 1_555
Hf3 O10 2.035341 1_655
Hf3 O11 2.044175 1_555
Hf3 O0 2.111823 1_656
Hf3 O13 2.114556 1_655
Hf3 O1 2.140410 1_546
