# generated using pymatgen
data_Li2MnFe(BO3)2
_symmetry_space_group_name_H-M   'P 1'
_cell_length_a   5.15813890
_cell_length_b   6.02871674
_cell_length_c   9.14290334
_cell_angle_alpha   104.07427642
_cell_angle_beta   89.56756239
_cell_angle_gamma   113.21519427
_symmetry_Int_Tables_number   1
_chemical_formula_structural   Li2MnFe(BO3)2
_chemical_formula_sum   'Li4 Mn2 Fe2 B4 O12'
_cell_volume   252.20512892
_cell_formula_units_Z   2
loop_
 _symmetry_equiv_pos_site_id
 _symmetry_equiv_pos_as_xyz
  1  'x, y, z'
loop_
 _atom_site_type_symbol
 _atom_site_label
 _atom_site_symmetry_multiplicity
 _atom_site_fract_x
 _atom_site_fract_y
 _atom_site_fract_z
 _atom_site_occupancy
  Li  Li0  1  0.25823300  0.68033200  0.18951800  1
  Li  Li1  1  0.74188800  0.31971200  0.81045900  1
  Li  Li2  1  0.74901300  0.66732500  0.68473400  1
  Li  Li3  1  0.25087700  0.33259900  0.31524700  1
  Mn  Mn0  1  0.71329600  0.23604500  0.12595900  1
  Mn  Mn1  1  0.28677700  0.76454600  0.87434600  1
  Fe  Fe0  1  0.79349900  0.76731800  0.37399900  1
  Fe  Fe1  1  0.20647200  0.23229300  0.62581100  1
  B  B0  1  0.77196400  0.73858000  0.03977400  1
  B  B1  1  0.22801200  0.26153000  0.96016300  1
  B  B2  1  0.27332100  0.74001100  0.53809300  1
  B  B3  1  0.72667500  0.25982000  0.46195100  1
  O  O0  1  0.55773600  0.82666200  0.06715700  1
  O  O1  1  0.44240800  0.17356800  0.93296200  1
  O  O2  1  0.05380000  0.82407800  0.56465800  1
  O  O3  1  0.94620000  0.17579300  0.43518400  1
  O  O4  1  0.36893900  0.70778200  0.39633300  1
  O  O5  1  0.63122600  0.29211900  0.60371000  1
  O  O6  1  0.88600300  0.68583200  0.15833400  1
  O  O7  1  0.11422300  0.31424300  0.84152600  1
  O  O8  1  0.38284100  0.67843900  0.65367600  1
  O  O9  1  0.61676400  0.32134400  0.34647700  1
  O  O10  1  0.14113500  0.30427700  0.10356900  1
  O  O11  1  0.85869800  0.69575200  0.89636100  1
loop_
_geom_bond_atom_site_label_1
_geom_bond_atom_site_label_2
_geom_bond_distance
_geom_bond_site_symmetry_2
Li0 O4 1.928351 1_555
Li0 O0 1.948315 1_555
Li0 O6 1.957522 1_455
Li0 O10 2.045321 1_555
Li1 O5 1.927478 1_555
Li1 O1 1.948810 1_555
Li1 O7 1.957808 1_655
Li1 O11 2.045396 1_555
Li2 O8 1.941566 1_555
Li2 O11 1.967754 1_555
Li2 O2 1.969056 1_655
Li2 O5 2.035422 1_555
Li3 O9 1.940756 1_555
Li3 O3 1.967960 1_455
Li3 O10 1.968448 1_555
Li3 O4 2.035157 1_555
Mn0 O9 2.063926 1_555
Mn0 O10 2.097564 1_655
Mn0 O1 2.122959 1_554
Mn0 O0 2.196379 1_545
Mn0 O6 2.437905 1_555
Mn1 O8 2.064919 1_555
Mn1 O11 2.097642 1_455
Mn1 O0 2.122448 1_556
Mn1 O1 2.194393 1_565
Mn1 O7 2.440290 1_555
Fe0 O6 2.014074 1_555
Fe0 O2 2.083632 1_655
Fe0 O4 2.091788 1_555
Fe0 O3 2.192057 1_565
Fe0 O9 2.421840 1_555
Fe1 O7 2.014344 1_555
Fe1 O3 2.083770 1_455
Fe1 O5 2.092108 1_555
Fe1 O2 2.190632 1_545
Fe1 O8 2.422416 1_555
B0 O11 1.379728 1_554
B0 O6 1.395316 1_555
B0 O0 1.399821 1_555
B1 O10 1.379918 1_556
B1 O7 1.395115 1_555
B1 O1 1.400032 1_555
B2 O4 1.379964 1_555
B2 O8 1.392404 1_555
B2 O2 1.409401 1_555
B3 O5 1.379624 1_555
B3 O9 1.392447 1_555
B3 O3 1.409414 1_555
