# generated using pymatgen
data_V2OF5
_symmetry_space_group_name_H-M   'P 1'
_cell_length_a   8.55196617
_cell_length_b   8.55196617
_cell_length_c   4.62184800
_cell_angle_alpha   90.00000000
_cell_angle_beta   90.00000000
_cell_angle_gamma   120.00000128
_symmetry_Int_Tables_number   1
_chemical_formula_structural   V2OF5
_chemical_formula_sum   'V6 O3 F15'
_cell_volume   292.73741447
_cell_formula_units_Z   3
loop_
 _symmetry_equiv_pos_site_id
 _symmetry_equiv_pos_as_xyz
  1  'x, y, z'
loop_
 _atom_site_type_symbol
 _atom_site_label
 _atom_site_symmetry_multiplicity
 _atom_site_fract_x
 _atom_site_fract_y
 _atom_site_fract_z
 _atom_site_occupancy
  V  V0  1  0.66619300  0.66461300  0.99988000  1
  V  V1  1  0.34281500  0.35191700  0.47654700  1
  V  V2  1  0.00910200  0.65718500  0.47654700  1
  V  V3  1  0.33538700  0.00157900  0.99988000  1
  V  V4  1  0.99842100  0.33380700  0.99988000  1
  V  V5  1  0.64808300  0.99089800  0.47654700  1
  O  O0  1  0.45150200  0.53518900  0.25832300  1
  O  O1  1  0.08368700  0.54849800  0.25832300  1
  O  O2  1  0.46481100  0.91631300  0.25832300  1
  F  F0  1  0.21793500  0.42882400  0.74801300  1
  F  F1  1  0.86753600  0.11833900  0.74205100  1
  F  F2  1  0.11572700  0.23339800  0.25143800  1
  F  F3  1  0.25080400  0.13246400  0.74205100  1
  F  F4  1  0.57117600  0.78911000  0.74801300  1
  F  F5  1  0.76660200  0.88232900  0.25143800  1
  F  F6  1  0.11767100  0.88427300  0.25143800  1
  F  F7  1  0.88166100  0.74919600  0.74205100  1
  F  F8  1  0.21089000  0.78206500  0.74801300  1
  F  F9  1  0.55117300  0.44985800  0.74983800  1
  F  F10  1  0.78502400  0.56887100  0.25579300  1
  F  F11  1  0.43112900  0.21615300  0.25579300  1
  F  F12  1  0.89868500  0.44882700  0.74983800  1
  F  F13  1  0.55014200  0.10131500  0.74983800  1
  F  F14  1  0.78384700  0.21497600  0.25579300  1
loop_
_geom_bond_atom_site_label_1
_geom_bond_atom_site_label_2
_geom_bond_distance
_geom_bond_site_symmetry_2
O0 V1 1.697333 1_555
O0 V0 1.997673 1_554
O1 V2 1.697333 1_555
O1 V4 1.997674 1_454
O2 V5 1.697333 1_555
O2 V3 1.997668 1_564
F0 V1 1.962079 1_555
F0 V4 2.003528 1_455
F1 V4 2.001452 1_555
F1 V5 2.042162 1_545
F2 V1 1.978117 1_555
F2 V4 1.989217 1_454
F3 V3 2.001452 1_555
F3 V1 2.042163 1_555
F4 V5 1.962085 1_555
F4 V0 2.003528 1_555
F5 V5 1.978117 1_555
F5 V0 1.989223 1_554
F6 V2 1.978117 1_555
F6 V3 1.989223 1_564
F7 V0 2.001452 1_555
F7 V2 2.042157 1_655
F8 V2 1.962084 1_555
F8 V3 2.003528 1_565
F9 V0 1.967124 1_555
F9 V1 1.994891 1_555
F10 V2 1.958657 1_655
F10 V0 1.983486 1_554
F11 V1 1.958657 1_555
F11 V3 1.983493 1_554
F12 V4 1.967130 1_555
F12 V2 1.994891 1_655
F13 V3 1.967123 1_555
F13 V5 1.994891 1_545
F14 V5 1.958657 1_545
F14 V4 1.983492 1_554
