# generated using pymatgen
data_K(CoO2)2
_symmetry_space_group_name_H-M   'P 1'
_cell_length_a   5.62578873
_cell_length_b   4.87426774
_cell_length_c   12.42633730
_cell_angle_alpha   90.01961025
_cell_angle_beta   90.04393852
_cell_angle_gamma   90.01529106
_symmetry_Int_Tables_number   1
_chemical_formula_structural   K(CoO2)2
_chemical_formula_sum   'K4 Co8 O16'
_cell_volume   340.74992514
_cell_formula_units_Z   4
loop_
 _symmetry_equiv_pos_site_id
 _symmetry_equiv_pos_as_xyz
  1  'x, y, z'
loop_
 _atom_site_type_symbol
 _atom_site_label
 _atom_site_symmetry_multiplicity
 _atom_site_fract_x
 _atom_site_fract_y
 _atom_site_fract_z
 _atom_site_occupancy
  K  K0  1  0.00005025  0.03890026  0.24996587  1
  K  K1  1  0.99887051  0.36394154  0.75020709  1
  K  K2  1  0.50119790  0.63603510  0.24965293  1
  K  K3  1  0.49995035  0.96108954  0.75017072  1
  Co  Co0  1  -0.00000003  0.99980751  0.99852916  1
  Co  Co1  1  -0.00056991  0.99983765  0.50139555  1
  Co  Co2  1  0.24999571  0.49995794  0.00000528  1
  Co  Co3  1  0.24999792  0.50002322  0.50000646  1
  Co  Co4  1  0.49998049  0.00012628  0.00147171  1
  Co  Co5  1  0.50060187  0.00019364  0.49860184  1
  Co  Co6  1  0.75001107  0.50002606  0.50000443  1
  Co  Co7  1  0.75000454  0.49996469  0.00000296  1
  O  O0  1  0.00022527  0.33406806  0.42470114  1
  O  O1  1  0.00007603  0.33366520  0.07539170  1
  O  O2  1  -0.00010057  0.66839129  0.57699069  1
  O  O3  1  -0.00012844  0.66813180  0.92296005  1
  O  O4  1  0.24844824  0.83258892  0.42181826  1
  O  O5  1  0.24885487  0.83394679  0.07802867  1
  O  O6  1  0.25153021  0.16746924  0.57818422  1
  O  O7  1  0.25112884  0.16595585  0.92196686  1
  O  O8  1  0.50011236  0.33164198  0.42302417  1
  O  O9  1  0.50011400  0.33180307  0.07704864  1
  O  O10  1  0.49978837  0.66602261  0.57527953  1
  O  O11  1  0.49990637  0.66624659  0.92459961  1
  O  O12  1  0.75101682  0.83517405  0.42217657  1
  O  O13  1  0.75138323  0.83396286  0.07802303  1
  O  O14  1  0.74903350  0.16488445  0.57782232  1
  O  O15  1  0.74862124  0.16594080  0.92197153  1
loop_
_geom_bond_atom_site_label_1
_geom_bond_atom_site_label_2
_geom_bond_distance
_geom_bond_site_symmetry_2
K0 O1 2.602376 1_555
K0 O0 2.604308 1_555
K0 O13 2.741031 1_445
K0 O4 2.742640 1_545
K0 O5 2.743344 1_545
K0 O12 2.744740 1_445
K1 O3 2.608545 1_655
K1 O2 2.614846 1_655
K1 O15 2.733943 1_555
K1 O7 2.738286 1_655
K1 O14 2.738391 1_555
K1 O6 2.740601 1_655
K2 O9 2.607142 1_555
K2 O8 2.616275 1_555
K2 O13 2.732326 1_555
K2 O5 2.737093 1_555
K2 O12 2.739830 1_555
K2 O4 2.742384 1_555
K3 O11 2.601081 1_555
K3 O10 2.605652 1_555
K3 O15 2.739514 1_565
K3 O7 2.741872 1_565
K3 O6 2.744123 1_565
K3 O14 2.746339 1_565
Co0 O3 1.869334 1_555
Co0 O7 1.886525 1_565
Co0 O1 1.886619 1_566
Co0 O15 1.886748 1_465
Co0 O13 1.894089 1_456
Co0 O5 1.894349 1_556
Co1 O2 1.869088 1_555
Co1 O14 1.880330 1_465
Co1 O12 1.887605 1_455
Co1 O0 1.887700 1_565
Co1 O6 1.893769 1_565
Co1 O4 1.899257 1_555
Co2 O1 1.874381 1_555
Co2 O11 1.874454 1_554
Co2 O9 1.888756 1_555
Co2 O3 1.888833 1_554
Co2 O5 1.894523 1_555
Co2 O7 1.894674 1_554
Co3 O10 1.871159 1_555
Co3 O0 1.871191 1_555
Co3 O2 1.889561 1_555
Co3 O8 1.889644 1_555
Co3 O6 1.890077 1_555
Co3 O4 1.890193 1_555
Co4 O9 1.869388 1_555
Co4 O5 1.886543 1_545
Co4 O11 1.886772 1_544
Co4 O13 1.886873 1_545
Co4 O15 1.894167 1_554
Co4 O7 1.894305 1_554
Co5 O8 1.868987 1_555
Co5 O12 1.880341 1_545
Co5 O10 1.887346 1_545
Co5 O14 1.887747 1_555
Co5 O4 1.893906 1_545
Co5 O6 1.899568 1_555
Co6 O10 1.874394 1_555
Co6 O0 1.874452 1_655
Co6 O2 1.887269 1_655
Co6 O8 1.887314 1_555
Co6 O14 1.898615 1_555
Co6 O12 1.898705 1_555
Co7 O1 1.874297 1_655
Co7 O11 1.874464 1_554
Co7 O3 1.888494 1_654
Co7 O9 1.888599 1_555
Co7 O13 1.894537 1_555
Co7 O15 1.894717 1_554
