# generated using pymatgen
data_LiFe2(PO4)2
_symmetry_space_group_name_H-M   'P 1'
_cell_length_a   5.17604700
_cell_length_b   10.33519000
_cell_length_c   13.89348700
_cell_angle_alpha   90.00000000
_cell_angle_beta   90.00000000
_cell_angle_gamma   90.00000000
_symmetry_Int_Tables_number   1
_chemical_formula_structural   LiFe2(PO4)2
_chemical_formula_sum   'Li4 Fe8 P8 O32'
_cell_volume   743.23805007
_cell_formula_units_Z   4
loop_
 _symmetry_equiv_pos_site_id
 _symmetry_equiv_pos_as_xyz
  1  'x, y, z'
loop_
 _atom_site_type_symbol
 _atom_site_label
 _atom_site_symmetry_multiplicity
 _atom_site_fract_x
 _atom_site_fract_y
 _atom_site_fract_z
 _atom_site_occupancy
  Li  Li0  1  0.55229200  0.22262500  0.25067700  1
  Li  Li1  1  0.55229200  0.27737500  0.75067700  1
  Li  Li2  1  0.44770800  0.72262500  0.25067700  1
  Li  Li3  1  0.44770800  0.77737500  0.75067700  1
  Fe  Fe0  1  0.06158600  0.03743400  0.24636500  1
  Fe  Fe1  1  0.55768800  0.22382900  0.00075600  1
  Fe  Fe2  1  0.55768800  0.27617100  0.50075600  1
  Fe  Fe3  1  0.06158600  0.46256600  0.74636500  1
  Fe  Fe4  1  0.93841400  0.53743400  0.24636500  1
  Fe  Fe5  1  0.44231200  0.72382900  0.00075600  1
  Fe  Fe6  1  0.44231200  0.77617100  0.50075600  1
  Fe  Fe7  1  0.93841400  0.96256600  0.74636500  1
  P  P0  1  0.43785600  0.02973200  0.62434000  1
  P  P1  1  0.05491400  0.21615100  0.87134600  1
  P  P2  1  0.05491400  0.28384900  0.37134600  1
  P  P3  1  0.43785600  0.47026800  0.12434000  1
  P  P4  1  0.56214400  0.52973200  0.62434000  1
  P  P5  1  0.94508600  0.71615100  0.87134600  1
  P  P6  1  0.94508600  0.78384900  0.37134600  1
  P  P7  1  0.56214400  0.97026800  0.12434000  1
  O  O0  1  0.85616900  0.99222600  0.14187500  1
  O  O1  1  0.48071200  0.03303000  0.03011400  1
  O  O2  1  0.42185000  0.03876600  0.21289500  1
  O  O3  1  0.99285700  0.07170900  0.85093900  1
  O  O4  1  0.49761800  0.17620000  0.62756800  1
  O  O5  1  0.92651300  0.24376800  0.46496400  1
  O  O6  1  0.93697700  0.20550200  0.28302800  1
  O  O7  1  0.34858300  0.24431600  0.87109800  1
  O  O8  1  0.34858300  0.25568400  0.37109800  1
  O  O9  1  0.93697700  0.29449800  0.78302800  1
  O  O10  1  0.92651300  0.25623200  0.96496400  1
  O  O11  1  0.49761800  0.32380000  0.12756800  1
  O  O12  1  0.99285700  0.42829100  0.35093900  1
  O  O13  1  0.42185000  0.46123400  0.71289500  1
  O  O14  1  0.48071200  0.46697000  0.53011400  1
  O  O15  1  0.85616900  0.50777400  0.64187500  1
  O  O16  1  0.14383100  0.49222600  0.14187500  1
  O  O17  1  0.51928800  0.53303000  0.03011400  1
  O  O18  1  0.57815000  0.53876600  0.21289500  1
  O  O19  1  0.00714300  0.57170900  0.85093900  1
  O  O20  1  0.50238200  0.67620000  0.62756800  1
  O  O21  1  0.07348700  0.74376800  0.46496400  1
  O  O22  1  0.06302300  0.70550200  0.28302800  1
  O  O23  1  0.65141700  0.74431600  0.87109800  1
  O  O24  1  0.65141700  0.75568400  0.37109800  1
  O  O25  1  0.06302300  0.79449800  0.78302800  1
  O  O26  1  0.07348700  0.75623200  0.96496400  1
  O  O27  1  0.50238200  0.82380000  0.12756800  1
  O  O28  1  0.00714300  0.92829100  0.35093900  1
  O  O29  1  0.57815000  0.96123400  0.71289500  1
  O  O30  1  0.51928800  0.96697000  0.53011400  1
  O  O31  1  0.14383100  0.00777400  0.64187500  1
loop_
_geom_bond_atom_site_label_1
_geom_bond_atom_site_label_2
_geom_bond_distance
_geom_bond_site_symmetry_2
Li0 O8 2.006905 1_555
Li0 O11 2.024601 1_555
Li0 O6 2.048904 1_555
Li0 O2 2.083802 1_555
Li1 O7 2.006905 1_555
Li1 O4 2.024601 1_555
Li1 O9 2.048904 1_555
Li1 O13 2.083802 1_555
Li2 O24 2.006905 1_555
Li2 O27 2.024601 1_555
Li2 O22 2.048904 1_555
Li2 O18 2.083802 1_555
Li3 O23 2.006905 1_555
Li3 O20 2.024601 1_555
Li3 O25 2.048904 1_555
Li3 O29 2.083802 1_555
Fe0 O0 1.859119 1_445
Fe0 O28 1.860843 1_545
Fe0 O6 1.921636 1_455
Fe0 O2 1.921899 1_555
Fe1 O10 2.000982 1_554
Fe1 O1 2.052725 1_555
Fe1 O11 2.066003 1_555
Fe1 O7 2.112187 1_554
Fe2 O5 2.000982 1_555
Fe2 O14 2.052725 1_555
Fe2 O4 2.066003 1_555
Fe2 O8 2.112187 1_555
Fe3 O15 1.859119 1_455
Fe3 O19 1.860843 1_555
Fe3 O9 1.921636 1_455
Fe3 O13 1.921899 1_555
Fe4 O16 1.859119 1_655
Fe4 O12 1.860843 1_555
Fe4 O22 1.921636 1_655
Fe4 O18 1.921899 1_555
Fe5 O26 2.000982 1_554
Fe5 O17 2.052725 1_555
Fe5 O27 2.066003 1_555
Fe5 O23 2.112187 1_554
Fe6 O21 2.000982 1_555
Fe6 O30 2.052725 1_555
Fe6 O20 2.066003 1_555
Fe6 O24 2.112187 1_555
Fe7 O31 1.859119 1_665
Fe7 O3 1.860843 1_565
Fe7 O25 1.921636 1_655
Fe7 O29 1.921899 1_555
O0 P7 1.557881 1_555
O1 P7 1.520602 1_545
O2 P7 1.594437 1_545
O3 P1 1.553100 1_655
O4 P0 1.545707 1_555
O5 P2 1.518247 1_655
O6 P2 1.591839 1_655
O7 P1 1.547670 1_555
O8 P2 1.547670 1_555
O9 P1 1.591839 1_655
O10 P1 1.518247 1_655
O11 P3 1.545707 1_555
O12 P2 1.553100 1_655
O13 P4 1.594437 1_555
O14 P4 1.520602 1_555
O15 P4 1.557881 1_555
O16 P3 1.557881 1_555
O17 P3 1.520602 1_555
O18 P3 1.594437 1_555
O19 P5 1.553100 1_455
O20 P4 1.545707 1_555
O21 P6 1.518247 1_455
O22 P6 1.591839 1_455
O23 P5 1.547670 1_555
O24 P6 1.547670 1_555
O25 P5 1.591839 1_455
O26 P5 1.518247 1_455
O27 P7 1.545707 1_555
O28 P6 1.553100 1_455
O29 P0 1.594437 1_565
O30 P0 1.520602 1_565
O31 P0 1.557881 1_555
