# generated using pymatgen
data_Sr2La2Mg(RuO4)3
_symmetry_space_group_name_H-M   'P 1'
_cell_length_a   5.63536600
_cell_length_b   5.63750300
_cell_length_c   15.97138884
_cell_angle_alpha   89.71409370
_cell_angle_beta   90.00000000
_cell_angle_gamma   90.00000000
_symmetry_Int_Tables_number   1
_chemical_formula_structural   Sr2La2Mg(RuO4)3
_chemical_formula_sum   'Sr4 La4 Mg2 Ru6 O24'
_cell_volume   507.39500749
_cell_formula_units_Z   2
loop_
 _symmetry_equiv_pos_site_id
 _symmetry_equiv_pos_as_xyz
  1  'x, y, z'
loop_
 _atom_site_type_symbol
 _atom_site_label
 _atom_site_symmetry_multiplicity
 _atom_site_fract_x
 _atom_site_fract_y
 _atom_site_fract_z
 _atom_site_occupancy
  Sr  Sr0  1  0.99345300  0.97345200  0.12316900  1
  Sr  Sr1  1  0.50654700  0.47345200  0.12316900  1
  Sr  Sr2  1  0.49345300  0.52654800  0.87683100  1
  Sr  Sr3  1  0.00654700  0.02654800  0.87683100  1
  La  La0  1  0.98425200  0.96897500  0.61656400  1
  La  La1  1  0.51574800  0.46897500  0.61656400  1
  La  La2  1  0.48425200  0.53102500  0.38343600  1
  La  La3  1  0.01574800  0.03102500  0.38343600  1
  Mg  Mg0  1  0.00000000  0.50000000  0.50000000  1
  Mg  Mg1  1  0.50000000  0.00000000  0.50000000  1
  Ru  Ru0  1  0.00000000  0.50000000  0.00000000  1
  Ru  Ru1  1  0.99303100  0.49815600  0.24865100  1
  Ru  Ru2  1  0.00696900  0.50184400  0.75134900  1
  Ru  Ru3  1  0.50696900  0.99815600  0.24865100  1
  Ru  Ru4  1  0.49303100  0.00184400  0.75134900  1
  Ru  Ru5  1  0.50000000  0.00000000  0.00000000  1
  O  O0  1  0.91346100  0.48033900  0.36953800  1
  O  O1  1  0.92970600  0.48901700  0.87594900  1
  O  O2  1  0.77957200  0.22006600  0.52304500  1
  O  O3  1  0.77228200  0.22795100  0.01918000  1
  O  O4  1  0.77738400  0.22267300  0.22750500  1
  O  O5  1  0.77582700  0.22618000  0.72417600  1
  O  O6  1  0.72771800  0.72795100  0.01918000  1
  O  O7  1  0.72042800  0.72006600  0.52304500  1
  O  O8  1  0.72261600  0.72267300  0.22750500  1
  O  O9  1  0.72417300  0.72618000  0.72417600  1
  O  O10  1  0.57029400  0.98901700  0.87594900  1
  O  O11  1  0.58653900  0.98033900  0.36953800  1
  O  O12  1  0.41346100  0.01966100  0.63046200  1
  O  O13  1  0.42970600  0.01098300  0.12405100  1
  O  O14  1  0.27582700  0.27382000  0.27582400  1
  O  O15  1  0.27738400  0.27732700  0.77249500  1
  O  O16  1  0.27957200  0.27993400  0.47695500  1
  O  O17  1  0.27228200  0.27204900  0.98082000  1
  O  O18  1  0.22042800  0.77993400  0.47695500  1
  O  O19  1  0.22417300  0.77382000  0.27582400  1
  O  O20  1  0.22261600  0.77732700  0.77249500  1
  O  O21  1  0.22771800  0.77204900  0.98082000  1
  O  O22  1  0.07029400  0.51098300  0.12405100  1
  O  O23  1  0.08653900  0.51966100  0.63046200  1
loop_
_geom_bond_atom_site_label_1
_geom_bond_atom_site_label_2
_geom_bond_distance
_geom_bond_site_symmetry_2
La0 O2 2.354566 1_565
La0 O12 2.445793 1_665
La0 O7 2.536000 1_555
La0 O5 2.541830 1_565
La0 O23 2.606158 1_655
La0 O9 2.636683 1_555
La0 O18 2.811166 1_655
La1 O7 2.354566 1_555
La1 O23 2.445793 1_555
La1 O2 2.536000 1_555
La1 O9 2.541830 1_555
La1 O12 2.606158 1_555
La1 O5 2.636683 1_555
La1 O16 2.811166 1_555
La2 O16 2.354566 1_555
La2 O0 2.445793 1_555
La2 O18 2.536000 1_555
La2 O14 2.541830 1_555
La2 O11 2.606158 1_555
La2 O19 2.636683 1_555
La2 O7 2.811166 1_555
La3 O18 2.354566 1_545
La3 O11 2.445793 1_445
La3 O16 2.536000 1_555
La3 O19 2.541830 1_545
La3 O0 2.606158 1_455
La3 O14 2.636683 1_555
La3 O2 2.811166 1_455
Mg0 O16 2.039937 1_555
Mg0 O7 2.039937 1_455
Mg0 O2 2.040393 1_455
Mg0 O18 2.040393 1_555
Mg0 O23 2.143375 1_555
Mg0 O0 2.143375 1_455
Mg1 O18 2.039937 1_545
Mg1 O2 2.039937 1_555
Mg1 O16 2.040393 1_555
Mg1 O7 2.040393 1_545
Mg1 O12 2.143375 1_555
Mg1 O11 2.143375 1_545
O0 Ru1 1.984176 1_555
O1 Ru0 2.021731 1_656
O1 Ru2 2.038041 1_655
O1 Sr2 2.467579 1_555
O1 Sr3 2.642855 1_655
O3 Ru0 2.021907 1_655
O3 Ru5 2.025733 1_555
O3 Sr0 2.519241 1_545
O3 Sr1 2.634274 1_555
O3 Sr3 2.868208 1_654
O4 Ru1 2.002012 1_555
O4 Ru3 2.008498 1_545
O4 Sr0 2.501364 1_545
O4 Sr1 2.661122 1_555
O5 Ru2 2.075297 1_655
O5 Ru4 2.078959 1_555
O5 Sr3 2.978941 1_655
O6 Ru5 2.021907 1_565
O6 Ru0 2.025733 1_655
O6 Sr1 2.519241 1_555
O6 Sr0 2.634274 1_555
O6 Sr2 2.868208 1_554
O8 Ru3 2.002012 1_555
O8 Ru1 2.008498 1_555
O8 Sr1 2.501364 1_555
O8 Sr0 2.661122 1_555
O9 Ru4 2.075297 1_565
O9 Ru2 2.078959 1_655
O9 Sr2 2.978941 1_555
O10 Ru5 2.021731 1_566
O10 Ru4 2.038041 1_565
O10 Sr3 2.467579 1_665
O10 Sr2 2.642855 1_555
O11 Ru3 1.984176 1_555
O12 Ru4 1.984176 1_555
O13 Ru5 2.021731 1_555
O13 Ru3 2.038041 1_545
O13 Sr0 2.467579 1_445
O13 Sr1 2.642855 1_555
O14 Ru3 2.075297 1_545
O14 Ru1 2.078959 1_455
O14 Sr1 2.978941 1_555
O15 Ru4 2.002012 1_555
O15 Ru2 2.008498 1_555
O15 Sr2 2.501364 1_555
O15 Sr3 2.661122 1_555
O17 Ru5 2.021907 1_556
O17 Ru0 2.025733 1_556
O17 Sr2 2.519241 1_555
O17 Sr3 2.634274 1_555
O17 Sr1 2.868208 1_556
O19 Ru1 2.075297 1_455
O19 Ru3 2.078959 1_555
O19 Sr0 2.978941 1_455
O20 Ru2 2.002012 1_555
O20 Ru4 2.008498 1_565
O20 Sr3 2.501364 1_565
O20 Sr2 2.661122 1_555
O21 Ru0 2.021907 1_556
O21 Ru5 2.025733 1_566
O21 Sr3 2.519241 1_565
O21 Sr2 2.634274 1_555
O21 Sr0 2.868208 1_456
O22 Ru0 2.021731 1_555
O22 Ru1 2.038041 1_455
O22 Sr1 2.467579 1_555
O22 Sr0 2.642855 1_455
O23 Ru2 1.984176 1_555
