# generated using pymatgen
data_Na2LaSiO5
_symmetry_space_group_name_H-M   'P 1'
_cell_length_a   6.75009800
_cell_length_b   7.54954600
_cell_length_c   9.59265100
_cell_angle_alpha   90.00000000
_cell_angle_beta   90.00000000
_cell_angle_gamma   90.00000000
_symmetry_Int_Tables_number   1
_chemical_formula_structural   Na2LaSiO5
_chemical_formula_sum   'Na8 La4 Si4 O20'
_cell_volume   488.84317708
_cell_formula_units_Z   4
loop_
 _symmetry_equiv_pos_site_id
 _symmetry_equiv_pos_as_xyz
  1  'x, y, z'
loop_
 _atom_site_type_symbol
 _atom_site_label
 _atom_site_symmetry_multiplicity
 _atom_site_fract_x
 _atom_site_fract_y
 _atom_site_fract_z
 _atom_site_occupancy
  Na  Na0  1  0.87332500  0.53297800  0.33401000  1
  Na  Na1  1  0.62667500  0.96702200  0.83401000  1
  Na  Na2  1  0.12667500  0.03297800  0.66599000  1
  Na  Na3  1  0.37332500  0.46702200  0.16599000  1
  Na  Na4  1  0.12667500  0.46702200  0.66599000  1
  Na  Na5  1  0.37332500  0.03297800  0.16599000  1
  Na  Na6  1  0.87332500  0.96702200  0.33401000  1
  Na  Na7  1  0.62667500  0.53297800  0.83401000  1
  La  La0  1  0.38387800  0.75000000  0.45526700  1
  La  La1  1  0.11612200  0.75000000  0.95526700  1
  La  La2  1  0.61612200  0.25000000  0.54473300  1
  La  La3  1  0.88387800  0.25000000  0.04473300  1
  Si  Si0  1  0.68324200  0.75000000  0.10028400  1
  Si  Si1  1  0.81675800  0.75000000  0.60028400  1
  Si  Si2  1  0.31675800  0.25000000  0.89971600  1
  Si  Si3  1  0.18324200  0.25000000  0.39971600  1
  O  O0  1  0.81997700  0.57456700  0.06137400  1
  O  O1  1  0.68002300  0.92543300  0.56137400  1
  O  O2  1  0.18002300  0.07456700  0.93862600  1
  O  O3  1  0.31997700  0.42543300  0.43862600  1
  O  O4  1  0.18002300  0.42543300  0.93862600  1
  O  O5  1  0.31997700  0.07456700  0.43862600  1
  O  O6  1  0.81997700  0.92543300  0.06137400  1
  O  O7  1  0.68002300  0.57456700  0.56137400  1
  O  O8  1  0.47803600  0.75000000  0.00593400  1
  O  O9  1  0.02196400  0.75000000  0.50593400  1
  O  O10  1  0.52196400  0.25000000  0.99406600  1
  O  O11  1  0.97803600  0.25000000  0.49406600  1
  O  O12  1  0.62910000  0.75000000  0.26675100  1
  O  O13  1  0.87090000  0.75000000  0.76675100  1
  O  O14  1  0.37090000  0.25000000  0.73324900  1
  O  O15  1  0.12910000  0.25000000  0.23324900  1
  O  O16  1  0.20967600  0.75000000  0.21310500  1
  O  O17  1  0.29032400  0.75000000  0.71310500  1
  O  O18  1  0.79032400  0.25000000  0.78689500  1
  O  O19  1  0.70967600  0.25000000  0.28689500  1
loop_
_geom_bond_atom_site_label_1
_geom_bond_atom_site_label_2
_geom_bond_distance
_geom_bond_site_symmetry_2
Na0 O12 2.412131 1_555
Na0 O19 2.447146 1_555
Na0 O9 2.531988 1_655
Na0 O7 2.560853 1_555
Na0 O0 2.658583 1_555
Na0 O11 2.724138 1_555
Na0 O15 2.911887 1_655
Na0 O16 3.030557 1_655
Na1 O13 2.412131 1_555
Na1 O18 2.447146 1_565
Na1 O8 2.531988 1_556
Na1 O6 2.560853 1_556
Na1 O1 2.658583 1_555
Na1 O10 2.724138 1_565
Na1 O14 2.911887 1_565
Na1 O17 3.030557 1_555
Na2 O14 2.412131 1_555
Na2 O17 2.447146 1_545
Na2 O11 2.531988 1_455
Na2 O5 2.560853 1_555
Na2 O2 2.658583 1_555
Na2 O9 2.724138 1_545
Na2 O13 2.911887 1_445
Na2 O18 3.030557 1_455
Na3 O15 2.412131 1_555
Na3 O16 2.447146 1_555
Na3 O10 2.531988 1_554
Na3 O4 2.560853 1_554
Na3 O3 2.658583 1_555
Na3 O8 2.724138 1_555
Na3 O12 2.911887 1_555
Na3 O19 3.030557 1_555
Na4 O14 2.412131 1_555
Na4 O17 2.447146 1_555
Na4 O11 2.531988 1_455
Na4 O3 2.560853 1_555
Na4 O4 2.658583 1_555
Na4 O9 2.724138 1_555
Na4 O13 2.911887 1_455
Na4 O18 3.030557 1_455
Na5 O15 2.412131 1_555
Na5 O16 2.447146 1_545
Na5 O10 2.531988 1_554
Na5 O2 2.560853 1_554
Na5 O5 2.658583 1_555
Na5 O8 2.724138 1_545
Na5 O12 2.911887 1_545
Na5 O19 3.030557 1_555
Na6 O12 2.412131 1_555
Na6 O19 2.447146 1_565
Na6 O9 2.531988 1_655
Na6 O1 2.560853 1_555
Na6 O6 2.658583 1_555
Na6 O11 2.724138 1_565
Na6 O15 2.911887 1_665
Na6 O16 3.030557 1_655
Na7 O13 2.412131 1_555
Na7 O18 2.447146 1_555
Na7 O8 2.531988 1_556
Na7 O0 2.560853 1_556
Na7 O7 2.658583 1_555
Na7 O10 2.724138 1_555
Na7 O14 2.911887 1_555
Na7 O17 3.030557 1_555
La0 O12 2.451555 1_555
La0 O9 2.490834 1_555
La0 O3 2.493124 1_555
La0 O5 2.493124 1_565
La0 O17 2.552695 1_555
La0 O16 2.603634 1_555
La0 O1 2.605031 1_555
La0 O7 2.605031 1_555
La1 O13 2.451555 1_455
La1 O8 2.490834 1_556
La1 O4 2.493124 1_555
La1 O2 2.493124 1_565
La1 O16 2.552695 1_556
La1 O17 2.603634 1_555
La1 O6 2.605031 1_456
La1 O0 2.605031 1_456
La2 O14 2.451555 1_555
La2 O11 2.490834 1_555
La2 O7 2.493124 1_555
La2 O1 2.493124 1_545
La2 O19 2.552695 1_555
La2 O18 2.603634 1_555
La2 O3 2.605031 1_555
La2 O5 2.605031 1_555
La3 O15 2.451555 1_655
La3 O10 2.490834 1_554
La3 O0 2.493124 1_555
La3 O6 2.493124 1_545
La3 O18 2.552695 1_554
La3 O19 2.603634 1_555
La3 O4 2.605031 1_654
La3 O2 2.605031 1_654
O0 Si0 1.656906 1_555
O1 Si1 1.656906 1_555
O2 Si2 1.656906 1_555
O3 Si3 1.656906 1_555
O4 Si2 1.656906 1_555
O5 Si3 1.656906 1_555
O6 Si0 1.656906 1_555
O7 Si1 1.656906 1_555
O8 Si0 1.654635 1_555
O9 Si1 1.654635 1_455
O10 Si2 1.654635 1_555
O11 Si3 1.654635 1_655
O12 Si0 1.638147 1_555
O13 Si1 1.638147 1_555
O14 Si2 1.638147 1_555
O15 Si3 1.638147 1_555
