# generated using pymatgen
data_Li5FeO3F
_symmetry_space_group_name_H-M   'P 1'
_cell_length_a   7.48641465
_cell_length_b   7.48642134
_cell_length_c   9.02340477
_cell_angle_alpha   110.57333246
_cell_angle_beta   70.41222513
_cell_angle_gamma   80.07522595
_symmetry_Int_Tables_number   1
_chemical_formula_structural   Li5FeO3F
_chemical_formula_sum   'Li20 Fe4 O12 F4'
_cell_volume   421.24737374
_cell_formula_units_Z   4
loop_
 _symmetry_equiv_pos_site_id
 _symmetry_equiv_pos_as_xyz
  1  'x, y, z'
loop_
 _atom_site_type_symbol
 _atom_site_label
 _atom_site_symmetry_multiplicity
 _atom_site_fract_x
 _atom_site_fract_y
 _atom_site_fract_z
 _atom_site_occupancy
  Li  Li0  1  0.01745600  0.00026100  0.98280500  1
  Li  Li1  1  0.01745100  0.50026500  0.48281200  1
  Li  Li2  1  0.73254500  0.12473400  0.39219000  1
  Li  Li3  1  0.73254100  0.62473900  0.89219800  1
  Li  Li4  1  0.03109900  0.34009800  0.88308100  1
  Li  Li5  1  0.03111300  0.84009800  0.38307500  1
  Li  Li6  1  0.29298700  0.71081600  0.99191800  1
  Li  Li7  1  0.29298000  0.21081000  0.49192400  1
  Li  Li8  1  0.45701100  0.91418200  0.88308200  1
  Li  Li9  1  0.45702000  0.41418800  0.38307700  1
  Li  Li10  1  0.71889800  0.28490500  0.99191700  1
  Li  Li11  1  0.71888400  0.78490500  0.49192400  1
  Li  Li12  1  0.22051300  0.53659100  0.75102400  1
  Li  Li13  1  0.22051900  0.03657700  0.25101800  1
  Li  Li14  1  0.78557000  0.97153900  0.75102200  1
  Li  Li15  1  0.78555800  0.47154100  0.25101700  1
  Li  Li16  1  0.52947700  0.58841900  0.62398600  1
  Li  Li17  1  0.52948300  0.08840400  0.12398000  1
  Li  Li18  1  0.96443800  0.15345900  0.62398400  1
  Li  Li19  1  0.96442900  0.65346200  0.12397900  1
  Fe  Fe0  1  0.50211300  0.74530500  0.24319500  1
  Fe  Fe1  1  0.24790500  0.87968900  0.63179100  1
  Fe  Fe2  1  0.50212700  0.24530200  0.74317500  1
  Fe  Fe3  1  0.24788500  0.37968100  0.13180000  1
  O  O0  1  0.22898100  0.45850800  0.93750100  1
  O  O1  1  0.22898400  0.95852000  0.43750700  1
  O  O2  1  0.52101200  0.16648800  0.93750600  1
  O  O3  1  0.52100900  0.66648000  0.43750300  1
  O  O4  1  0.77109600  0.03842000  0.56401000  1
  O  O5  1  0.77109600  0.53841000  0.06399500  1
  O  O6  1  0.47439900  0.33510600  0.56400900  1
  O  O7  1  0.47440800  0.83509200  0.06399400  1
  O  O8  1  0.27557900  0.78990400  0.81101200  1
  O  O9  1  0.27559200  0.28990200  0.31100300  1
  O  O10  1  0.97890300  0.08660300  0.81101800  1
  O  O11  1  0.97889800  0.58658700  0.31100100  1
  F  F0  1  0.01894700  0.41856000  0.68751000  1
  F  F1  1  0.01896300  0.91855900  0.18748900  1
  F  F2  1  0.73105700  0.70644600  0.68749400  1
  F  F3  1  0.73107600  0.20644400  0.18747300  1
loop_
_geom_bond_atom_site_label_1
_geom_bond_atom_site_label_2
_geom_bond_distance
_geom_bond_site_symmetry_2
Li0 O10 1.960566 1_455
Li0 O8 1.960617 1_545
Li1 O11 1.960686 1_455
Li1 O9 1.960737 1_555
Li2 O4 1.960723 1_555
Li2 O6 1.960799 1_555
Li3 O5 1.960601 1_556
Li3 O7 1.960655 1_556
Li4 O10 1.932812 1_455
Li4 O5 1.956489 1_456
Li4 O0 1.963694 1_555
Li5 O11 1.932994 1_455
Li5 O4 1.956617 1_465
Li5 O1 1.963700 1_555
Li6 O7 1.932842 1_556
Li6 O8 1.956415 1_555
Li6 O0 1.963799 1_555
Li7 O6 1.932933 1_555
Li7 O9 1.956519 1_555
Li7 O1 1.963639 1_545
Li8 O8 1.932901 1_555
Li8 O7 1.956452 1_556
Li8 O2 1.963766 1_565
Li9 O9 1.932918 1_555
Li9 O6 1.956551 1_555
Li9 O3 1.963626 1_555
Li10 O5 1.932895 1_556
Li10 O10 1.956444 1_555
Li10 O2 1.963720 1_555
Li11 O4 1.933017 1_565
Li11 O11 1.956570 1_555
Li11 O3 1.963705 1_555
Li12 O8 1.938291 1_555
Li12 O6 1.951349 1_555
Li12 O0 1.981695 1_555
Li13 O9 1.938398 1_555
Li13 O7 1.951383 1_545
Li13 O1 1.981679 1_545
Li14 O10 1.938404 1_565
Li14 O4 1.951351 1_565
Li14 O2 1.981732 1_565
Li15 O11 1.938348 1_555
Li15 O5 1.951362 1_555
Li15 O3 1.981678 1_555
Li16 O6 1.938333 1_555
Li16 O8 1.951425 1_555
Li16 O3 1.981651 1_555
Li17 O7 1.938316 1_545
Li17 O9 1.951418 1_555
Li17 O2 1.981679 1_554
Li18 O4 1.938303 1_555
Li18 O10 1.951421 1_555
Li18 O1 1.981644 1_645
Li19 O5 1.938321 1_555
Li19 O11 1.951403 1_555
Li19 O0 1.981702 1_654
Fe0 O5 2.012500 1_555
Fe0 O7 2.012528 1_555
Fe0 O3 2.075351 1_555
Fe0 O1 2.075391 1_555
Fe1 O8 2.012618 1_555
Fe1 O10 2.012678 1_465
Fe1 O3 2.075218 1_555
Fe1 O1 2.075224 1_555
Fe2 O4 2.012344 1_555
Fe2 O6 2.012356 1_555
Fe2 O0 2.075474 1_555
Fe2 O2 2.075480 1_555
Fe3 O9 2.012514 1_555
Fe3 O11 2.012546 1_455
Fe3 O2 2.075293 1_554
Fe3 O0 2.075299 1_554
F0 Li12 2.017412 1_555
F0 Li18 2.017534 1_455
F0 Li4 2.070095 1_555
F0 Li7 2.070210 1_555
F0 Li3 2.142765 1_455
F0 Li1 2.142781 1_555
F1 Li13 2.017349 1_565
F1 Li19 2.017593 1_455
F1 Li6 2.070121 1_554
F1 Li5 2.070217 1_555
F1 Li0 2.142666 1_564
F1 Li2 2.142843 1_465
F2 Li16 2.017474 1_555
F2 Li14 2.017493 1_555
F2 Li11 2.070118 1_555
F2 Li8 2.070241 1_555
F2 Li1 2.142701 1_655
F2 Li3 2.142820 1_555
F3 Li15 2.017413 1_555
F3 Li17 2.017557 1_555
F3 Li10 2.070014 1_554
F3 Li9 2.070338 1_555
F3 Li0 2.142609 1_654
F3 Li2 2.142919 1_555
