# generated using pymatgen
data_Na3VBPO7
_symmetry_space_group_name_H-M   'P 1'
_cell_length_a   8.48956183
_cell_length_b   8.49118019
_cell_length_c   8.99493187
_cell_angle_alpha   89.06130719
_cell_angle_beta   89.07076206
_cell_angle_gamma   102.32914249
_symmetry_Int_Tables_number   1
_chemical_formula_structural   Na3VBPO7
_chemical_formula_sum   'Na12 V4 B4 P4 O28'
_cell_volume   633.24393985
_cell_formula_units_Z   4
loop_
 _symmetry_equiv_pos_site_id
 _symmetry_equiv_pos_as_xyz
  1  'x, y, z'
loop_
 _atom_site_type_symbol
 _atom_site_label
 _atom_site_symmetry_multiplicity
 _atom_site_fract_x
 _atom_site_fract_y
 _atom_site_fract_z
 _atom_site_occupancy
  Na  Na0  1  0.50281600  0.25276700  0.07157200  1
  Na  Na1  1  0.00356600  0.75353300  0.07163100  1
  Na  Na2  1  0.49669400  0.74657500  0.92869300  1
  Na  Na3  1  0.99675000  0.24677500  0.92874300  1
  Na  Na4  1  0.12782500  0.12494600  0.25180900  1
  Na  Na5  1  0.62795800  0.62491100  0.25183800  1
  Na  Na6  1  0.37496700  0.87782300  0.25177600  1
  Na  Na7  1  0.87496000  0.37804000  0.25179300  1
  Na  Na8  1  0.62526600  0.12230700  0.74848500  1
  Na  Na9  1  0.12528100  0.62220500  0.74810600  1
  Na  Na10  1  0.87257400  0.87522200  0.74830600  1
  Na  Na11  1  0.37274200  0.37522200  0.74867100  1
  V  V0  1  0.26544400  0.51552400  0.33581300  1
  V  V1  1  0.73445400  0.48460600  0.66417200  1
  V  V2  1  0.76553200  0.01540300  0.33586700  1
  V  V3  1  0.23454200  0.98474400  0.66407900  1
  B  B0  1  0.74000700  0.98984100  0.06609100  1
  B  B1  1  0.23996700  0.48997500  0.06610400  1
  B  B2  1  0.25976000  0.00982500  0.93386200  1
  B  B3  1  0.75997400  0.51002700  0.93393400  1
  P  P0  1  0.48375600  0.23374700  0.42139100  1
  P  P1  1  0.98369400  0.73372800  0.42127600  1
  P  P2  1  0.51630700  0.76628700  0.57855000  1
  P  P3  1  0.01621200  0.26641700  0.57852600  1
  O  O0  1  0.27756000  0.02759200  0.08145700  1
  O  O1  1  0.77840500  0.52845600  0.08138900  1
  O  O2  1  0.72211000  0.97174100  0.91854000  1
  O  O3  1  0.22207500  0.47208800  0.91853400  1
  O  O4  1  0.85744400  0.10747700  0.13392000  1
  O  O5  1  0.35743300  0.60754900  0.13403800  1
  O  O6  1  0.14193700  0.89253500  0.86596000  1
  O  O7  1  0.64199100  0.39247900  0.86660400  1
  O  O8  1  0.64070300  0.89066200  0.17467800  1
  O  O9  1  0.14076700  0.39064700  0.17462700  1
  O  O10  1  0.35931600  0.10878700  0.82534900  1
  O  O11  1  0.85924400  0.60874600  0.82493000  1
  O  O12  1  0.34051300  0.09080800  0.46061400  1
  O  O13  1  0.84043400  0.59079600  0.46046600  1
  O  O14  1  0.65966000  0.90922500  0.53949500  1
  O  O15  1  0.15912700  0.40978600  0.53951200  1
  O  O16  1  0.43962300  0.68974000  0.43456900  1
  O  O17  1  0.93968100  0.18971000  0.43452900  1
  O  O18  1  0.56065500  0.31050200  0.56522600  1
  O  O19  1  0.06057900  0.81040300  0.56513200  1
  O  O20  1  0.42395800  0.36116700  0.32295000  1
  O  O21  1  0.92413700  0.86133000  0.32281700  1
  O  O22  1  0.61095600  0.17376100  0.32285500  1
  O  O23  1  0.11100800  0.67383800  0.32273600  1
  O  O24  1  0.38898200  0.82621200  0.67697300  1
  O  O25  1  0.88851800  0.32570900  0.67704000  1
  O  O26  1  0.57581200  0.63864200  0.67702100  1
  O  O27  1  0.07632500  0.13916500  0.67695200  1
loop_
_geom_bond_atom_site_label_1
_geom_bond_atom_site_label_2
_geom_bond_distance
_geom_bond_site_symmetry_2
Na0 O7 2.337006 1_554
Na0 O0 2.397517 1_555
Na0 O22 2.585026 1_555
Na0 O20 2.586572 1_555
Na0 O10 2.724726 1_554
Na0 O1 2.938730 1_555
Na1 O6 2.336958 1_554
Na1 O1 2.396478 1_455
Na1 O23 2.582995 1_555
Na1 O21 2.584443 1_455
Na1 O11 2.733343 1_454
Na1 O0 2.921572 1_565
Na2 O5 2.337664 1_556
Na2 O2 2.398349 1_555
Na2 O26 2.587913 1_555
Na2 O24 2.588652 1_555
Na2 O8 2.724867 1_556
Na2 O3 2.927345 1_555
Na3 O4 2.337530 1_556
Na3 O3 2.398652 1_655
Na3 O25 2.588471 1_555
Na3 O27 2.588937 1_655
Na3 O9 2.723472 1_656
Na3 O2 2.930392 1_545
Na4 O0 2.252621 1_555
Na4 O9 2.329045 1_555
Na4 O17 2.423737 1_455
Na4 O4 2.520732 1_455
Na4 O21 2.583210 1_445
Na4 O12 2.680967 1_555
Na5 O1 2.253241 1_555
Na5 O8 2.329670 1_555
Na5 O16 2.425142 1_555
Na5 O5 2.521607 1_555
Na5 O20 2.585473 1_555
Na5 O13 2.678516 1_555
Na6 O0 2.252666 1_565
Na6 O8 2.328952 1_555
Na6 O16 2.423402 1_555
Na6 O5 2.519795 1_555
Na6 O23 2.586293 1_555
Na6 O12 2.684083 1_565
Na7 O1 2.253062 1_555
Na7 O9 2.330025 1_655
Na7 O17 2.424728 1_555
Na7 O4 2.522565 1_555
Na7 O22 2.587972 1_555
Na7 O13 2.681800 1_555
Na8 O2 2.252965 1_545
Na8 O10 2.329147 1_555
Na8 O18 2.426736 1_555
Na8 O7 2.521400 1_555
Na8 O25 2.580570 1_555
Na8 O14 2.685513 1_545
Na9 O3 2.252608 1_555
Na9 O11 2.329835 1_455
Na9 O19 2.425323 1_555
Na9 O6 2.521650 1_555
Na9 O24 2.585153 1_555
Na9 O15 2.677880 1_555
Na10 O2 2.252292 1_555
Na10 O11 2.333378 1_555
Na10 O19 2.425836 1_655
Na10 O6 2.512161 1_655
Na10 O27 2.586158 1_665
Na10 O14 2.682088 1_555
Na11 O3 2.252594 1_555
Na11 O10 2.333048 1_555
Na11 O18 2.426615 1_555
Na11 O7 2.512445 1_555
Na11 O26 2.580786 1_555
Na11 O15 2.689672 1_555
B0 O2 1.345900 1_554
B0 O4 1.406548 1_565
B0 O8 1.420244 1_555
B1 O3 1.345874 1_554
B1 O5 1.406821 1_555
B1 O9 1.420033 1_555
B2 O0 1.345908 1_556
B2 O6 1.407043 1_545
B2 O10 1.419939 1_555
B3 O1 1.345825 1_556
B3 O7 1.406705 1_555
B3 O11 1.420852 1_555
O4 V2 2.041258 1_555
O5 V0 2.039969 1_555
O6 V3 2.042757 1_555
O7 V1 2.046556 1_555
O8 V2 1.991963 1_565
O9 V0 1.991885 1_555
O10 V3 1.989763 1_545
O11 V1 1.986740 1_555
O12 P0 1.555041 1_555
O12 V3 2.125206 1_545
O13 P1 1.555033 1_555
O13 V1 2.127409 1_555
O14 P2 1.555304 1_555
O14 V2 2.126490 1_565
O15 P3 1.555195 1_555
O15 V0 2.127048 1_555
O16 P2 1.548480 1_555
O16 V0 2.077372 1_555
O17 P3 1.548623 1_655
O17 V2 2.077285 1_555
O18 P0 1.548601 1_555
O18 V1 2.075778 1_555
O19 P1 1.548487 1_455
O19 V3 2.077711 1_555
O20 P0 1.558889 1_555
O20 V0 2.072523 1_555
O21 P1 1.559159 1_555
O21 V2 2.071362 1_565
O22 P0 1.558774 1_555
O22 V2 2.072980 1_555
O23 P1 1.559129 1_455
O23 V0 2.071802 1_555
O24 P2 1.558752 1_555
O24 V3 2.073186 1_555
O25 P3 1.558984 1_655
O25 V1 2.073141 1_555
O26 P2 1.559283 1_555
O26 V1 2.071265 1_555
O27 P3 1.559032 1_555
O27 V3 2.070973 1_545
