# generated using pymatgen
data_Bi2SeO6
_symmetry_space_group_name_H-M   'P 1'
_cell_length_a   8.49934672
_cell_length_b   8.49934672
_cell_length_c   5.37973500
_cell_angle_alpha   90.00000000
_cell_angle_beta   90.00000000
_cell_angle_gamma   143.17718854
_symmetry_Int_Tables_number   1
_chemical_formula_structural   Bi2SeO6
_chemical_formula_sum   'Bi4 Se2 O12'
_cell_volume   232.92008634
_cell_formula_units_Z   2
loop_
 _symmetry_equiv_pos_site_id
 _symmetry_equiv_pos_as_xyz
  1  'x, y, z'
loop_
 _atom_site_type_symbol
 _atom_site_label
 _atom_site_symmetry_multiplicity
 _atom_site_fract_x
 _atom_site_fract_y
 _atom_site_fract_z
 _atom_site_occupancy
  Bi  Bi0  1  0.16837100  0.83162900  0.50197100  1
  Bi  Bi1  1  0.66837100  0.33162900  0.99802900  1
  Bi  Bi2  1  0.33162900  0.66837100  0.00197100  1
  Bi  Bi3  1  0.83162900  0.16837100  0.49802900  1
  Se  Se0  1  0.00000000  0.00000000  0.00000000  1
  Se  Se1  1  0.50000000  0.50000000  0.50000000  1
  O  O0  1  0.78259200  0.71740800  0.75000000  1
  O  O1  1  0.10577100  0.89422900  0.07015200  1
  O  O2  1  0.28259200  0.21740800  0.75000000  1
  O  O3  1  0.60577100  0.39422900  0.42984800  1
  O  O4  1  0.50000400  0.99999600  0.75000000  1
  O  O5  1  0.49999600  0.00000400  0.25000000  1
  O  O6  1  0.00000400  0.49999600  0.75000000  1
  O  O7  1  0.99999600  0.50000400  0.25000000  1
  O  O8  1  0.39422900  0.60577100  0.57015200  1
  O  O9  1  0.71740800  0.78259200  0.25000000  1
  O  O10  1  0.89422900  0.10577100  0.92984800  1
  O  O11  1  0.21740800  0.28259200  0.25000000  1
loop_
_geom_bond_atom_site_label_1
_geom_bond_atom_site_label_2
_geom_bond_distance
_geom_bond_site_symmetry_2
Bi0 O6 2.305528 1_555
Bi0 O4 2.305528 1_555
Bi0 O7 2.317793 1_455
Bi0 O5 2.317793 1_565
Bi0 O1 2.532993 1_555
Bi1 O4 2.305528 1_545
Bi1 O6 2.305528 1_655
Bi1 O5 2.317793 1_556
Bi1 O7 2.317793 1_556
Bi1 O3 2.532993 1_556
Bi2 O7 2.305528 1_455
Bi2 O5 2.305528 1_565
Bi2 O6 2.317793 1_554
Bi2 O4 2.317793 1_554
Bi2 O8 2.532993 1_554
Bi3 O5 2.305528 1_555
Bi3 O7 2.305528 1_555
Bi3 O4 2.317793 1_545
Bi3 O6 2.317793 1_655
Bi3 O10 2.532993 1_555
O0 Se1 1.971469 1_555
O0 Se0 1.971469 1_666
O1 Se0 1.747183 1_565
O2 Se0 1.971469 1_556
O2 Se1 1.971469 1_555
O3 Se1 1.747183 1_555
O8 Se1 1.747183 1_555
O9 Se1 1.971469 1_555
O9 Se0 1.971469 1_665
O10 Se0 1.747183 1_656
O11 Se1 1.971469 1_555
O11 Se0 1.971469 1_555
