# generated using pymatgen
data_MnCo(PO4)2
_symmetry_space_group_name_H-M   'P 1'
_cell_length_a   5.92174400
_cell_length_b   4.83642300
_cell_length_c   9.90590243
_cell_angle_alpha   88.73810015
_cell_angle_beta   90.00000000
_cell_angle_gamma   90.00000000
_symmetry_Int_Tables_number   1
_chemical_formula_structural   MnCo(PO4)2
_chemical_formula_sum   'Mn2 Co2 P4 O16'
_cell_volume   283.63682314
_cell_formula_units_Z   2
loop_
 _symmetry_equiv_pos_site_id
 _symmetry_equiv_pos_as_xyz
  1  'x, y, z'
loop_
 _atom_site_type_symbol
 _atom_site_label
 _atom_site_symmetry_multiplicity
 _atom_site_fract_x
 _atom_site_fract_y
 _atom_site_fract_z
 _atom_site_occupancy
  Mn  Mn0  1  0.25000000  0.56377700  0.78427300  1
  Mn  Mn1  1  0.75000000  0.43622300  0.21572700  1
  Co  Co0  1  0.75000000  0.05473200  0.71865500  1
  Co  Co1  1  0.25000000  0.94526800  0.28134500  1
  P  P0  1  0.75000000  0.58258900  0.90194900  1
  P  P1  1  0.25000000  0.08734700  0.59807500  1
  P  P2  1  0.75000000  0.91265300  0.40192500  1
  P  P3  1  0.25000000  0.41741100  0.09805100  1
  O  O0  1  0.25000000  0.34803300  0.94701600  1
  O  O1  1  0.75000000  0.27036500  0.88410200  1
  O  O2  1  0.95009400  0.73672800  0.82857700  1
  O  O3  1  0.54990600  0.73672800  0.82857700  1
  O  O4  1  0.04390500  0.22478700  0.67219400  1
  O  O5  1  0.45609500  0.22478700  0.67219400  1
  O  O6  1  0.25000000  0.77051100  0.61896700  1
  O  O7  1  0.75000000  0.84065600  0.55257300  1
  O  O8  1  0.25000000  0.15934400  0.44742700  1
  O  O9  1  0.75000000  0.22948900  0.38103300  1
  O  O10  1  0.95609500  0.77521300  0.32780600  1
  O  O11  1  0.54390500  0.77521300  0.32780600  1
  O  O12  1  0.45009400  0.26327200  0.17142300  1
  O  O13  1  0.04990600  0.26327200  0.17142300  1
  O  O14  1  0.25000000  0.72963500  0.11589800  1
  O  O15  1  0.75000000  0.65196700  0.05298400  1
loop_
_geom_bond_atom_site_label_1
_geom_bond_atom_site_label_2
_geom_bond_distance
_geom_bond_site_symmetry_2
Mn0 O6 1.899741 1_555
Mn0 O0 1.900940 1_555
Mn0 O2 2.015566 1_455
Mn0 O3 2.015566 1_555
Mn0 O4 2.343128 1_555
Mn0 O5 2.343128 1_555
Mn1 O9 1.899741 1_555
Mn1 O15 1.900940 1_555
Mn1 O13 2.015566 1_655
Mn1 O12 2.015566 1_555
Mn1 O10 2.343128 1_555
Mn1 O11 2.343128 1_555
Co0 O1 1.961863 1_555
Co0 O7 1.963073 1_545
Co0 O5 1.975014 1_555
Co0 O4 1.975014 1_655
Co0 O2 2.209376 1_545
Co0 O3 2.209376 1_545
Co1 O14 1.961863 1_555
Co1 O8 1.963073 1_565
Co1 O11 1.975014 1_555
Co1 O10 1.975014 1_455
Co1 O12 2.209376 1_565
Co1 O13 2.209376 1_565
O0 P3 1.540496 1_556
O1 P0 1.524223 1_555
O2 P0 1.569758 1_555
O3 P0 1.569758 1_555
O4 P1 1.578574 1_555
O5 P1 1.578574 1_555
O6 P1 1.541742 1_565
O7 P2 1.524905 1_555
O8 P1 1.524905 1_555
O9 P2 1.541742 1_545
O10 P2 1.578574 1_555
O11 P2 1.578574 1_555
O12 P3 1.569758 1_555
O13 P3 1.569758 1_555
O14 P3 1.524223 1_555
O15 P0 1.540496 1_554
