# generated using pymatgen
data_AgGeO3
_symmetry_space_group_name_H-M   'P 1'
_cell_length_a   10.40786161
_cell_length_b   8.85007515
_cell_length_c   3.17289304
_cell_angle_alpha   89.98576194
_cell_angle_beta   89.99137248
_cell_angle_gamma   90.09551478
_symmetry_Int_Tables_number   1
_chemical_formula_structural   AgGeO3
_chemical_formula_sum   'Ag4 Ge4 O12'
_cell_volume   292.25589368
_cell_formula_units_Z   4
loop_
 _symmetry_equiv_pos_site_id
 _symmetry_equiv_pos_as_xyz
  1  'x, y, z'
loop_
 _atom_site_type_symbol
 _atom_site_label
 _atom_site_symmetry_multiplicity
 _atom_site_fract_x
 _atom_site_fract_y
 _atom_site_fract_z
 _atom_site_occupancy
  Ag  Ag0  1  0.99583600  0.99937200  0.02695100  1
  Ag  Ag1  1  0.99540500  0.50170800  0.02565100  1
  Ag  Ag2  1  0.49532600  0.99833400  0.04753200  1
  Ag  Ag3  1  0.49589800  0.50056200  0.03085900  1
  Ge  Ge0  1  0.20828800  0.75345700  0.53460100  1
  Ge  Ge1  1  0.28477200  0.25139600  0.54139100  1
  Ge  Ge2  1  0.70820300  0.74742300  0.53203800  1
  Ge  Ge3  1  0.78475900  0.24775500  0.52561400  1
  O  O0  1  0.10707100  0.59160400  0.52757600  1
  O  O1  1  0.11563400  0.92173300  0.52897300  1
  O  O2  1  0.19521200  0.25043900  0.04132000  1
  O  O3  1  0.29814000  0.75035100  0.03429700  1
  O  O4  1  0.37720400  0.42103500  0.53323200  1
  O  O5  1  0.38319700  0.08766500  0.54791100  1
  O  O6  1  0.60697000  0.90857700  0.54493800  1
  O  O7  1  0.61548800  0.57809300  0.52949000  1
  O  O8  1  0.69528400  0.24940200  0.02565000  1
  O  O9  1  0.79815500  0.74991400  0.03213600  1
  O  O10  1  0.87698900  0.07904000  0.52560300  1
  O  O11  1  0.88320500  0.41214300  0.52474200  1
loop_
_geom_bond_atom_site_label_1
_geom_bond_atom_site_label_2
_geom_bond_distance
_geom_bond_site_symmetry_2
Ag0 O1 2.127448 1_654
Ag0 O10 2.129151 1_565
Ag0 O10 2.135531 1_564
Ag0 O1 2.137020 1_655
Ag1 O0 2.115865 1_654
Ag1 O11 2.120230 1_555
Ag1 O11 2.125099 1_554
Ag1 O0 2.125561 1_655
Ag2 O6 2.115410 1_555
Ag2 O5 2.122022 1_564
Ag2 O5 2.123850 1_565
Ag2 O6 2.127753 1_554
Ag3 O4 2.124306 1_554
Ag3 O7 2.126349 1_555
Ag3 O7 2.132289 1_554
Ag3 O4 2.134986 1_555
Ge0 O1 1.775644 1_555
Ge0 O0 1.776810 1_555
Ge0 O3 1.841075 1_556
Ge0 O3 1.842506 1_555
Ge1 O5 1.776075 1_555
Ge1 O4 1.781927 1_555
Ge1 O2 1.839716 1_556
Ge1 O2 1.840350 1_555
Ge2 O6 1.775087 1_555
Ge2 O7 1.781056 1_555
Ge2 O9 1.841810 1_555
Ge2 O9 1.842598 1_556
Ge3 O10 1.776426 1_555
Ge3 O11 1.778045 1_555
Ge3 O8 1.839623 1_556
Ge3 O8 1.839662 1_555
