# generated using pymatgen
data_Li2VCr3O8
_symmetry_space_group_name_H-M   'P 1'
_cell_length_a   5.24035900
_cell_length_b   7.81963962
_cell_length_c   7.84151255
_cell_angle_alpha   94.63498263
_cell_angle_beta   95.13423881
_cell_angle_gamma   109.27245414
_symmetry_Int_Tables_number   1
_chemical_formula_structural   Li2VCr3O8
_chemical_formula_sum   'Li4 V2 Cr6 O16'
_cell_volume   300.01511786
_cell_formula_units_Z   2
loop_
 _symmetry_equiv_pos_site_id
 _symmetry_equiv_pos_as_xyz
  1  'x, y, z'
loop_
 _atom_site_type_symbol
 _atom_site_label
 _atom_site_symmetry_multiplicity
 _atom_site_fract_x
 _atom_site_fract_y
 _atom_site_fract_z
 _atom_site_occupancy
  Li  Li0  1  0.01222100  0.00583000  0.99397900  1
  Li  Li1  1  0.25204900  0.23515200  0.74787200  1
  Li  Li2  1  0.51003200  0.51020500  0.51444700  1
  Li  Li3  1  0.75992100  0.76102400  0.26138100  1
  V  V0  1  0.94079600  0.42419600  0.31242600  1
  V  V1  1  0.20301800  0.68249400  0.05553200  1
  Cr  Cr0  1  0.79270400  0.31692900  0.93572900  1
  Cr  Cr1  1  0.69872800  0.17978800  0.56380300  1
  Cr  Cr2  1  0.54358700  0.06392300  0.18832800  1
  Cr  Cr3  1  0.04844400  0.56873700  0.68432300  1
  Cr  Cr4  1  0.45258400  0.93349600  0.80935300  1
  Cr  Cr5  1  0.29999300  0.81604400  0.43667500  1
  O  O0  1  0.42707900  0.14418500  0.96520300  1
  O  O1  1  0.33130900  0.03006200  0.60509600  1
  O  O2  1  0.67786900  0.39462900  0.71487000  1
  O  O3  1  0.59049200  0.29105600  0.35005000  1
  O  O4  1  0.07463100  0.77539500  0.86592900  1
  O  O5  1  0.91615400  0.63509300  0.45677700  1
  O  O6  1  0.84225500  0.53667100  0.11383200  1
  O  O7  1  0.82855900  0.10721300  0.78794600  1
  O  O8  1  0.16698400  0.88745300  0.20477800  1
  O  O9  1  0.17814300  0.48322500  0.90592700  1
  O  O10  1  0.07807300  0.36154200  0.51911700  1
  O  O11  1  0.92725000  0.23109200  0.15644000  1
  O  O12  1  0.41574300  0.71838300  0.64288300  1
  O  O13  1  0.30915400  0.59729900  0.27395100  1
  O  O14  1  0.66574800  0.96864700  0.39271200  1
  O  O15  1  0.55647600  0.84023500  0.04064200  1
loop_
_geom_bond_atom_site_label_1
_geom_bond_atom_site_label_2
_geom_bond_distance
_geom_bond_site_symmetry_2
Li0 O4 2.125438 1_545
Li0 O0 2.126575 1_555
Li0 O7 2.144153 1_455
Li0 O8 2.179421 1_546
Li0 O11 2.276091 1_456
Li0 O15 2.388720 1_446
Li1 O1 2.056863 1_555
Li1 O0 2.144396 1_555
Li1 O7 2.175928 1_455
Li1 O2 2.218118 1_555
Li1 O10 2.369443 1_555
Li1 O9 2.375366 1_555
Li2 O12 2.064827 1_555
Li2 O5 2.135228 1_555
Li2 O2 2.137104 1_555
Li2 O10 2.182052 1_555
Li2 O3 2.234612 1_555
Li2 O13 2.335358 1_555
Li3 O14 2.071139 1_555
Li3 O5 2.130533 1_555
Li3 O8 2.138456 1_655
Li3 O15 2.189817 1_555
Li3 O6 2.205350 1_555
Li3 O13 2.300960 1_555
Cr0 O2 1.988858 1_555
Cr0 O0 1.992581 1_555
Cr0 O7 2.000686 1_555
Cr0 O6 2.055041 1_556
Cr0 O11 2.055419 1_556
Cr0 O9 2.055503 1_655
Cr1 O1 1.966616 1_555
Cr1 O14 1.991958 1_545
Cr1 O2 2.015021 1_555
Cr1 O7 2.018972 1_555
Cr1 O3 2.068700 1_555
Cr1 O10 2.105852 1_655
Cr2 O14 1.964088 1_545
Cr2 O0 2.016713 1_554
Cr2 O8 2.022940 1_545
Cr2 O3 2.028582 1_555
Cr2 O15 2.042029 1_545
Cr2 O11 2.054613 1_555
Cr3 O12 1.966283 1_555
Cr3 O2 2.018114 1_455
Cr3 O5 2.024664 1_455
Cr3 O4 2.026064 1_555
Cr3 O10 2.046998 1_555
Cr3 O9 2.050640 1_555
Cr4 O1 1.967115 1_565
Cr4 O12 1.989073 1_555
Cr4 O0 2.018633 1_565
Cr4 O7 2.021041 1_565
Cr4 O4 2.068230 1_555
Cr4 O15 2.101596 1_556
Cr5 O14 1.972670 1_555
Cr5 O12 1.973719 1_555
Cr5 O1 1.998643 1_565
Cr5 O13 2.066095 1_555
Cr5 O5 2.070490 1_455
Cr5 O8 2.073276 1_555
O3 V0 1.850884 1_555
O4 V1 1.873244 1_556
O5 V0 1.970444 1_555
O6 V0 1.960243 1_555
O6 V1 1.974645 1_655
O8 V1 1.977411 1_555
O9 V1 1.834221 1_556
O10 V0 1.880624 1_455
O11 V0 1.842956 1_555
O13 V1 1.986235 1_555
O13 V0 2.023571 1_455
O15 V1 1.876092 1_555
