# generated using pymatgen
data_Eu2Mo5O18
_symmetry_space_group_name_H-M   'P 1'
_cell_length_a   9.53173800
_cell_length_b   9.62478800
_cell_length_c   19.59061200
_cell_angle_alpha   90.00000000
_cell_angle_beta   90.00000000
_cell_angle_gamma   90.00000000
_symmetry_Int_Tables_number   1
_chemical_formula_structural   Eu2Mo5O18
_chemical_formula_sum   'Eu8 Mo20 O72'
_cell_volume   1797.26150331
_cell_formula_units_Z   4
loop_
 _symmetry_equiv_pos_site_id
 _symmetry_equiv_pos_as_xyz
  1  'x, y, z'
loop_
 _atom_site_type_symbol
 _atom_site_label
 _atom_site_symmetry_multiplicity
 _atom_site_fract_x
 _atom_site_fract_y
 _atom_site_fract_z
 _atom_site_occupancy
  Eu  Eu0  1  0.02679200  0.73232100  0.11505200  1
  Eu  Eu1  1  0.52679200  0.76767900  0.38494800  1
  Eu  Eu2  1  0.97320800  0.26767900  0.88494800  1
  Eu  Eu3  1  0.47320800  0.73232100  0.88494800  1
  Eu  Eu4  1  0.47320800  0.23232100  0.61505200  1
  Eu  Eu5  1  0.02679200  0.23232100  0.38494800  1
  Eu  Eu6  1  0.97320800  0.76767900  0.61505200  1
  Eu  Eu7  1  0.52679200  0.26767900  0.11505200  1
  Mo  Mo0  1  0.56118000  0.64263500  0.58987600  1
  Mo  Mo1  1  0.25000000  0.96522400  0.50000000  1
  Mo  Mo2  1  0.32368900  0.86782200  0.69885200  1
  Mo  Mo3  1  0.93882000  0.14263500  0.08987600  1
  Mo  Mo4  1  0.56118000  0.14263500  0.91012400  1
  Mo  Mo5  1  0.43882000  0.35736500  0.41012400  1
  Mo  Mo6  1  0.17631100  0.36782200  0.19885200  1
  Mo  Mo7  1  0.93882000  0.64263500  0.41012400  1
  Mo  Mo8  1  0.17631100  0.86782200  0.30114800  1
  Mo  Mo9  1  0.32368900  0.36782200  0.80114800  1
  Mo  Mo10  1  0.06118000  0.85736500  0.91012400  1
  Mo  Mo11  1  0.67631100  0.13217800  0.30114800  1
  Mo  Mo12  1  0.82368900  0.63217800  0.80114800  1
  Mo  Mo13  1  0.75000000  0.03477600  0.50000000  1
  Mo  Mo14  1  0.75000000  0.53477600  0.00000000  1
  Mo  Mo15  1  0.82368900  0.13217800  0.69885200  1
  Mo  Mo16  1  0.06118000  0.35736500  0.58987600  1
  Mo  Mo17  1  0.43882000  0.85736500  0.08987600  1
  Mo  Mo18  1  0.25000000  0.46522400  0.00000000  1
  Mo  Mo19  1  0.67631100  0.63217800  0.19885200  1
  O  O0  1  0.43410100  0.74684600  0.64368700  1
  O  O1  1  0.11224500  0.07133400  0.46779300  1
  O  O2  1  0.68566000  0.64071400  0.93026100  1
  O  O3  1  0.85072700  0.45639300  0.82419700  1
  O  O4  1  0.64927300  0.45639300  0.17580300  1
  O  O5  1  0.98873900  0.65868300  0.49600800  1
  O  O6  1  0.10683700  0.34673000  0.28113400  1
  O  O7  1  0.39316300  0.84673000  0.78113400  1
  O  O8  1  0.64273500  0.67488700  0.79511400  1
  O  O9  1  0.88775500  0.92866600  0.53220700  1
  O  O10  1  0.94046100  0.96666400  0.11610800  1
  O  O11  1  0.06589900  0.74684600  0.35631300  1
  O  O12  1  0.06589900  0.24684600  0.14368700  1
  O  O13  1  0.51126100  0.65868300  0.50399200  1
  O  O14  1  0.43410100  0.24684600  0.85631300  1
  O  O15  1  0.61224500  0.92866600  0.46779300  1
  O  O16  1  0.05953900  0.03333600  0.88389200  1
  O  O17  1  0.81434000  0.64071400  0.06973900  1
  O  O18  1  0.14273500  0.32511300  0.79511400  1
  O  O19  1  0.14927300  0.04360700  0.32419700  1
  O  O20  1  0.93410100  0.25315400  0.64368700  1
  O  O21  1  0.48873900  0.84131700  0.00399200  1
  O  O22  1  0.56589900  0.75315400  0.14368700  1
  O  O23  1  0.18566000  0.35928600  0.93026100  1
  O  O24  1  0.55953900  0.96666400  0.88389200  1
  O  O25  1  0.68566000  0.14071400  0.56973900  1
  O  O26  1  0.98873900  0.15868300  0.00399200  1
  O  O27  1  0.31434000  0.85928600  0.43026100  1
  O  O28  1  0.23413300  0.79488000  0.90189200  1
  O  O29  1  0.73413300  0.70512000  0.59810800  1
  O  O30  1  0.35726500  0.32511300  0.20488600  1
  O  O31  1  0.35072700  0.54360700  0.82419700  1
  O  O32  1  0.35726500  0.82511300  0.29511400  1
  O  O33  1  0.39316300  0.34673000  0.71886600  1
  O  O34  1  0.38775500  0.57133400  0.96779300  1
  O  O35  1  0.61224500  0.42866600  0.03220700  1
  O  O36  1  0.38775500  0.07133400  0.53220700  1
  O  O37  1  0.26586700  0.29488000  0.40189200  1
  O  O38  1  0.11224500  0.57133400  0.03220700  1
  O  O39  1  0.89316300  0.15327000  0.78113400  1
  O  O40  1  0.94046100  0.46666400  0.38389200  1
  O  O41  1  0.60683700  0.65327000  0.28113400  1
  O  O42  1  0.81434000  0.14071400  0.43026100  1
  O  O43  1  0.76586700  0.70512000  0.40189200  1
  O  O44  1  0.88775500  0.42866600  0.96779300  1
  O  O45  1  0.10683700  0.84673000  0.21886600  1
  O  O46  1  0.14273500  0.82511300  0.70488600  1
  O  O47  1  0.64927300  0.95639300  0.32419700  1
  O  O48  1  0.05953900  0.53333600  0.61610800  1
  O  O49  1  0.55953900  0.46666400  0.61610800  1
  O  O50  1  0.23413300  0.29488000  0.59810800  1
  O  O51  1  0.76586700  0.20512000  0.09810800  1
  O  O52  1  0.18566000  0.85928600  0.56973900  1
  O  O53  1  0.14927300  0.54360700  0.17580300  1
  O  O54  1  0.26586700  0.79488000  0.09810800  1
  O  O55  1  0.60683700  0.15327000  0.21886600  1
  O  O56  1  0.31434000  0.35928600  0.06973900  1
  O  O57  1  0.85072700  0.95639300  0.67580300  1
  O  O58  1  0.93410100  0.75315400  0.85631300  1
  O  O59  1  0.85726500  0.67488700  0.20488600  1
  O  O60  1  0.89316300  0.65327000  0.71886600  1
  O  O61  1  0.48873900  0.34131700  0.49600800  1
  O  O62  1  0.51126100  0.15868300  0.99600800  1
  O  O63  1  0.01126100  0.34131700  0.50399200  1
  O  O64  1  0.73413300  0.20512000  0.90189200  1
  O  O65  1  0.44046100  0.53333600  0.38389200  1
  O  O66  1  0.85726500  0.17488700  0.29511400  1
  O  O67  1  0.44046100  0.03333600  0.11610800  1
  O  O68  1  0.35072700  0.04360700  0.67580300  1
  O  O69  1  0.01126100  0.84131700  0.99600800  1
  O  O70  1  0.56589900  0.25315400  0.35631300  1
  O  O71  1  0.64273500  0.17488700  0.70488600  1
loop_
_geom_bond_atom_site_label_1
_geom_bond_atom_site_label_2
_geom_bond_distance
_geom_bond_site_symmetry_2
Eu0 O54 2.380265 1_555
Eu0 O17 2.380377 1_455
Eu0 O38 2.387123 1_555
Eu0 O10 2.401011 1_455
Eu0 O45 2.435352 1_555
Eu0 O59 2.452331 1_455
Eu0 O53 2.465456 1_555
Eu0 O69 2.561513 1_554
Eu1 O43 2.380265 1_555
Eu1 O27 2.380377 1_555
Eu1 O15 2.387123 1_555
Eu1 O65 2.401011 1_555
Eu1 O41 2.435352 1_555
Eu1 O32 2.452331 1_555
Eu1 O47 2.465456 1_555
Eu1 O13 2.561513 1_555
Eu2 O64 2.380265 1_555
Eu2 O23 2.380377 1_655
Eu2 O44 2.387123 1_555
Eu2 O16 2.401011 1_655
Eu2 O39 2.435352 1_555
Eu2 O18 2.452331 1_655
Eu2 O3 2.465456 1_555
Eu2 O26 2.561513 1_556
Eu3 O28 2.380265 1_555
Eu3 O2 2.380377 1_555
Eu3 O34 2.387123 1_555
Eu3 O24 2.401011 1_555
Eu3 O7 2.435352 1_555
Eu3 O8 2.452331 1_555
Eu3 O31 2.465456 1_555
Eu3 O21 2.561513 1_556
Eu4 O50 2.380265 1_555
Eu4 O25 2.380377 1_555
Eu4 O36 2.387123 1_555
Eu4 O49 2.401011 1_555
Eu4 O33 2.435352 1_555
Eu4 O71 2.452331 1_555
Eu4 O68 2.465456 1_555
Eu4 O61 2.561513 1_555
Eu5 O37 2.380265 1_555
Eu5 O42 2.380377 1_455
Eu5 O1 2.387123 1_555
Eu5 O40 2.401011 1_455
Eu5 O6 2.435352 1_555
Eu5 O66 2.452331 1_455
Eu5 O19 2.465456 1_555
Eu5 O63 2.561513 1_555
Eu6 O29 2.380265 1_555
Eu6 O52 2.380377 1_655
Eu6 O9 2.387123 1_555
Eu6 O48 2.401011 1_655
Eu6 O60 2.435352 1_555
Eu6 O46 2.452331 1_655
Eu6 O57 2.465456 1_555
Eu6 O5 2.561513 1_555
Eu7 O51 2.380265 1_555
Eu7 O56 2.380377 1_555
Eu7 O35 2.387123 1_555
Eu7 O67 2.401011 1_555
Eu7 O55 2.435352 1_555
Eu7 O30 2.452331 1_555
Eu7 O4 2.465456 1_555
Eu7 O62 2.561513 1_554
Mo0 O13 1.755315 1_555
Mo0 O29 1.762211 1_555
Mo0 O49 1.770001 1_555
Mo0 O0 1.893291 1_555
Mo1 O36 1.779105 1_565
Mo1 O1 1.779105 1_565
Mo1 O52 1.811721 1_555
Mo1 O27 1.811721 1_555
Mo2 O7 1.754460 1_555
Mo2 O68 1.769976 1_565
Mo2 O46 1.777049 1_555
Mo2 O0 1.905593 1_555
Mo3 O26 1.755315 1_555
Mo3 O51 1.762211 1_555
Mo3 O10 1.770001 1_545
Mo3 O12 1.893291 1_655
Mo4 O62 1.755315 1_555
Mo4 O64 1.762211 1_555
Mo4 O24 1.770001 1_545
Mo4 O14 1.893291 1_555
Mo5 O61 1.755315 1_555
Mo5 O37 1.762211 1_555
Mo5 O65 1.770001 1_555
Mo5 O70 1.893291 1_555
Mo6 O6 1.754460 1_555
Mo6 O53 1.769976 1_555
Mo6 O30 1.777049 1_555
Mo6 O12 1.905593 1_555
Mo7 O5 1.755315 1_555
Mo7 O43 1.762211 1_555
Mo7 O40 1.770001 1_555
Mo7 O11 1.893291 1_655
Mo8 O45 1.754460 1_555
Mo8 O19 1.769976 1_565
Mo8 O32 1.777049 1_555
Mo8 O11 1.905593 1_555
Mo9 O33 1.754460 1_555
Mo9 O31 1.769976 1_555
Mo9 O18 1.777049 1_555
Mo9 O14 1.905593 1_555
Mo10 O69 1.755315 1_555
Mo10 O28 1.762211 1_555
Mo10 O16 1.770001 1_565
Mo10 O58 1.893291 1_455
Mo11 O55 1.754460 1_555
Mo11 O47 1.769976 1_545
Mo11 O66 1.777049 1_555
Mo11 O70 1.905593 1_555
Mo12 O60 1.754460 1_555
Mo12 O3 1.769976 1_555
Mo12 O8 1.777049 1_555
Mo12 O58 1.905593 1_555
Mo13 O9 1.779105 1_545
Mo13 O15 1.779105 1_545
Mo13 O25 1.811721 1_555
Mo13 O42 1.811721 1_555
Mo14 O44 1.779105 1_554
Mo14 O35 1.779105 1_555
Mo14 O2 1.811721 1_554
Mo14 O17 1.811721 1_555
Mo15 O39 1.754460 1_555
Mo15 O57 1.769976 1_545
Mo15 O71 1.777049 1_555
Mo15 O20 1.905593 1_555
Mo16 O63 1.755315 1_555
Mo16 O50 1.762211 1_555
Mo16 O48 1.770001 1_555
Mo16 O20 1.893291 1_455
Mo17 O21 1.755315 1_555
Mo17 O54 1.762211 1_555
Mo17 O67 1.770001 1_565
Mo17 O22 1.893291 1_555
Mo18 O34 1.779105 1_554
Mo18 O38 1.779105 1_555
Mo18 O23 1.811721 1_554
Mo18 O56 1.811721 1_555
Mo19 O41 1.754460 1_555
Mo19 O4 1.769976 1_555
Mo19 O59 1.777049 1_555
Mo19 O22 1.905593 1_555
