# generated using pymatgen
data_Tl2Te(PO7)2
_symmetry_space_group_name_H-M   'P 1'
_cell_length_a   16.12915200
_cell_length_b   4.97285300
_cell_length_c   7.42282636
_cell_angle_alpha   72.46631950
_cell_angle_beta   90.00000000
_cell_angle_gamma   90.00000000
_symmetry_Int_Tables_number   1
_chemical_formula_structural   Tl2Te(PO7)2
_chemical_formula_sum   'Tl4 Te2 P4 O28'
_cell_volume   567.70848182
_cell_formula_units_Z   2
loop_
 _symmetry_equiv_pos_site_id
 _symmetry_equiv_pos_as_xyz
  1  'x, y, z'
loop_
 _atom_site_type_symbol
 _atom_site_label
 _atom_site_symmetry_multiplicity
 _atom_site_fract_x
 _atom_site_fract_y
 _atom_site_fract_z
 _atom_site_occupancy
  Tl  Tl0  1  0.62434000  0.38280200  0.76792000  1
  Tl  Tl1  1  0.87566000  0.38280200  0.26792000  1
  Tl  Tl2  1  0.37566000  0.61719800  0.23208000  1
  Tl  Tl3  1  0.12434000  0.61719800  0.73208000  1
  Te  Te0  1  0.50000000  0.00000000  0.50000000  1
  Te  Te1  1  0.00000000  0.00000000  0.00000000  1
  P  P0  1  0.67624800  0.72298800  0.08584800  1
  P  P1  1  0.82375200  0.72298800  0.58584800  1
  P  P2  1  0.32375200  0.27701200  0.91415200  1
  P  P3  1  0.17624800  0.27701200  0.41415200  1
  O  O0  1  0.48733200  0.38300500  0.35377900  1
  O  O1  1  0.01266800  0.38300500  0.85377900  1
  O  O2  1  0.51266800  0.61699500  0.64622100  1
  O  O3  1  0.98733200  0.61699500  0.14622100  1
  O  O4  1  0.89876700  0.08475600  0.10580100  1
  O  O5  1  0.60123300  0.08475600  0.60580100  1
  O  O6  1  0.10123300  0.91524400  0.89419900  1
  O  O7  1  0.39876700  0.91524400  0.39419900  1
  O  O8  1  0.56548900  0.95249900  0.24931300  1
  O  O9  1  0.93451100  0.95249900  0.74931300  1
  O  O10  1  0.43451100  0.04750100  0.75068700  1
  O  O11  1  0.06548900  0.04750100  0.25068700  1
  O  O12  1  0.62555900  0.75398800  0.29347700  1
  O  O13  1  0.87444100  0.75398800  0.79347700  1
  O  O14  1  0.37444100  0.24601200  0.70652300  1
  O  O15  1  0.12555900  0.24601200  0.20652300  1
  O  O16  1  0.74790300  0.54597200  0.18447400  1
  O  O17  1  0.75209700  0.54597200  0.68447400  1
  O  O18  1  0.25209700  0.45402800  0.81552600  1
  O  O19  1  0.24790300  0.45402800  0.31552600  1
  O  O20  1  0.61012900  0.57254100  0.00677500  1
  O  O21  1  0.88987100  0.57254100  0.50677500  1
  O  O22  1  0.38987100  0.42745900  0.99322500  1
  O  O23  1  0.11012900  0.42745900  0.49322500  1
  O  O24  1  0.69550000  0.02603300  0.97394000  1
  O  O25  1  0.80450000  0.02603300  0.47394000  1
  O  O26  1  0.30450000  0.97396700  0.02606000  1
  O  O27  1  0.19550000  0.97396700  0.52606000  1
loop_
_geom_bond_atom_site_label_1
_geom_bond_atom_site_label_2
_geom_bond_distance
_geom_bond_site_symmetry_2
O0 Te0 1.897845 1_555
O0 Tl2 2.186936 1_555
O1 Te1 1.897845 1_556
O1 Tl3 2.186936 1_555
O2 Te0 1.897845 1_565
O2 Tl0 2.186936 1_555
O3 Te1 1.897845 1_665
O3 Tl1 2.186936 1_555
O4 Te1 1.913085 1_655
O4 Tl1 2.204184 1_555
O5 Te0 1.913085 1_555
O5 Tl0 2.204184 1_555
O6 Te1 1.913085 1_566
O6 Tl3 2.204184 1_555
O7 Te0 1.913085 1_565
O7 Tl2 2.204184 1_555
O8 Te0 2.213362 1_565
O9 Te1 2.213362 1_666
O10 O14 1.351185 1_555
O10 Te0 2.213362 1_555
O11 O15 1.351185 1_555
O11 Te1 2.213362 1_555
O12 O8 1.351185 1_555
O12 P0 1.791820 1_555
O13 O9 1.351185 1_555
O13 P1 1.791820 1_555
O14 P2 1.791820 1_555
O15 P3 1.791820 1_555
O16 P0 1.502750 1_555
O16 Tl1 2.232791 1_555
O17 P1 1.502750 1_555
O17 Tl0 2.232791 1_555
O18 P2 1.502750 1_555
O18 Tl3 2.232791 1_555
O19 P3 1.502750 1_555
O19 Tl2 2.232791 1_555
O20 P0 1.518592 1_555
O20 Tl0 2.257041 1_554
O21 P1 1.518592 1_555
O21 Tl1 2.257041 1_555
O22 P2 1.518592 1_555
O22 Tl2 2.257041 1_556
O23 P3 1.518592 1_555
O23 Tl3 2.257041 1_555
O24 P0 1.517636 1_546
O24 Tl0 2.273506 1_555
O25 P1 1.517636 1_545
O25 Tl1 2.273506 1_555
O26 P2 1.517636 1_564
O26 Tl2 2.273506 1_555
O27 P3 1.517636 1_565
O27 Tl3 2.273506 1_555
