# generated using pymatgen
data_CsRbO
_symmetry_space_group_name_H-M   'P 1'
_cell_length_a   5.04008400
_cell_length_b   7.15408300
_cell_length_c   9.95291300
_cell_angle_alpha   90.00000000
_cell_angle_beta   90.00000000
_cell_angle_gamma   90.00000000
_symmetry_Int_Tables_number   1
_chemical_formula_structural   CsRbO
_chemical_formula_sum   'Cs4 Rb4 O4'
_cell_volume   358.87396823
_cell_formula_units_Z   4
loop_
 _symmetry_equiv_pos_site_id
 _symmetry_equiv_pos_as_xyz
  1  'x, y, z'
loop_
 _atom_site_type_symbol
 _atom_site_label
 _atom_site_symmetry_multiplicity
 _atom_site_fract_x
 _atom_site_fract_y
 _atom_site_fract_z
 _atom_site_occupancy
  Cs  Cs0  1  0.25000000  0.10954000  0.61650900  1
  Cs  Cs1  1  0.75000000  0.39046000  0.11650900  1
  Cs  Cs2  1  0.25000000  0.60954000  0.88349100  1
  Cs  Cs3  1  0.75000000  0.89046000  0.38349100  1
  Rb  Rb0  1  0.75000000  0.01324700  0.87453100  1
  Rb  Rb1  1  0.25000000  0.48675300  0.37453100  1
  Rb  Rb2  1  0.75000000  0.51324700  0.62546900  1
  Rb  Rb3  1  0.25000000  0.98675300  0.12546900  1
  O  O0  1  0.75000000  0.28463600  0.40645600  1
  O  O1  1  0.25000000  0.21536400  0.90645600  1
  O  O2  1  0.75000000  0.78463600  0.09354400  1
  O  O3  1  0.25000000  0.71536400  0.59354400  1
loop_
_geom_bond_atom_site_label_1
_geom_bond_atom_site_label_2
_geom_bond_distance
_geom_bond_site_symmetry_2
Cs0 O3 2.829216 1_545
Cs0 O1 2.983471 1_555
Cs0 O0 3.505784 1_555
Cs0 O0 3.505784 1_455
Cs1 O2 2.829216 1_555
Cs1 O0 2.983471 1_555
Cs1 O1 3.505784 1_654
Cs1 O1 3.505784 1_554
Cs2 O1 2.829216 1_555
Cs2 O3 2.983471 1_555
Cs2 O2 3.505784 1_556
Cs2 O2 3.505784 1_456
Cs3 O0 2.829216 1_565
Cs3 O2 2.983471 1_555
Cs3 O3 3.505784 1_655
Cs3 O3 3.505784 1_555
O0 Rb2 2.725155 1_555
O0 Rb1 2.922735 1_655
O0 Rb1 2.922735 1_555
O1 Rb3 2.725155 1_546
O1 Rb0 2.922735 1_455
O1 Rb0 2.922735 1_555
O2 Rb0 2.725155 1_564
O2 Rb3 2.922735 1_655
O2 Rb3 2.922735 1_555
O3 Rb1 2.725155 1_555
O3 Rb2 2.922735 1_455
O3 Rb2 2.922735 1_555
