# generated using pymatgen
data_LiNiP2O7
_symmetry_space_group_name_H-M   'P 1'
_cell_length_a   7.98762200
_cell_length_b   7.19952200
_cell_length_c   9.42496055
_cell_angle_alpha   70.35112234
_cell_angle_beta   90.00000000
_cell_angle_gamma   90.00000000
_symmetry_Int_Tables_number   1
_chemical_formula_structural   LiNiP2O7
_chemical_formula_sum   'Li4 Ni4 P8 O28'
_cell_volume   510.44152346
_cell_formula_units_Z   4
loop_
 _symmetry_equiv_pos_site_id
 _symmetry_equiv_pos_as_xyz
  1  'x, y, z'
loop_
 _atom_site_type_symbol
 _atom_site_label
 _atom_site_symmetry_multiplicity
 _atom_site_fract_x
 _atom_site_fract_y
 _atom_site_fract_z
 _atom_site_occupancy
  Li  Li0  1  0.52701400  0.19604900  0.28351400  1
  Li  Li1  1  0.47298600  0.80395100  0.71648600  1
  Li  Li2  1  0.97298600  0.19604900  0.78351400  1
  Li  Li3  1  0.02701400  0.80395100  0.21648600  1
  Ni  Ni0  1  0.50458900  0.23961600  0.74825100  1
  Ni  Ni1  1  0.49541100  0.76038400  0.25174900  1
  Ni  Ni2  1  0.00458900  0.76038400  0.75174900  1
  Ni  Ni3  1  0.99541100  0.23961600  0.24825100  1
  P  P0  1  0.20924100  0.17043200  0.54863800  1
  P  P1  1  0.26300700  0.58422500  0.54522500  1
  P  P2  1  0.23699300  0.58422500  0.04522500  1
  P  P3  1  0.29075900  0.17043200  0.04863800  1
  P  P4  1  0.70924100  0.82956800  0.95136200  1
  P  P5  1  0.76300700  0.41577500  0.95477500  1
  P  P6  1  0.73699300  0.41577500  0.45477500  1
  P  P7  1  0.79075900  0.82956800  0.45136200  1
  O  O0  1  0.60826100  0.87983100  0.39924900  1
  O  O1  1  0.63779000  0.28890000  0.90707700  1
  O  O2  1  0.36221000  0.71110000  0.09292300  1
  O  O3  1  0.57947900  0.46479100  0.35656300  1
  O  O4  1  0.33627600  0.38280000  0.06457300  1
  O  O5  1  0.16372400  0.38280000  0.56457300  1
  O  O6  1  0.92052100  0.46479100  0.85656300  1
  O  O7  1  0.20034200  0.18559500  0.38297600  1
  O  O8  1  0.42230100  0.04758700  0.15667500  1
  O  O9  1  0.71236300  0.30947300  0.62452900  1
  O  O10  1  0.13779000  0.71110000  0.59292300  1
  O  O11  1  0.92230100  0.95241300  0.34332500  1
  O  O12  1  0.79965800  0.81440500  0.61702400  1
  O  O13  1  0.29965800  0.18559500  0.88297600  1
  O  O14  1  0.89173900  0.87983100  0.89924900  1
  O  O15  1  0.83627600  0.61720000  0.43542700  1
  O  O16  1  0.86221000  0.28890000  0.40707700  1
  O  O17  1  0.78763700  0.30947300  0.12452900  1
  O  O18  1  0.07947900  0.53520900  0.14343700  1
  O  O19  1  0.39173900  0.12016900  0.60075100  1
  O  O20  1  0.70034200  0.81440500  0.11702400  1
  O  O21  1  0.10826100  0.12016900  0.10075100  1
  O  O22  1  0.28763700  0.69052700  0.37547100  1
  O  O23  1  0.42052100  0.53520900  0.64343700  1
  O  O24  1  0.07769900  0.04758700  0.65667500  1
  O  O25  1  0.57769900  0.95241300  0.84332500  1
  O  O26  1  0.21236300  0.69052700  0.87547100  1
  O  O27  1  0.66372400  0.61720000  0.93542700  1
loop_
_geom_bond_atom_site_label_1
_geom_bond_atom_site_label_2
_geom_bond_distance
_geom_bond_site_symmetry_2
Li0 O8 2.032350 1_555
Li0 O0 2.263610 1_545
Li0 O3 2.299778 1_555
Li0 O17 2.534352 1_555
Li0 O4 2.553656 1_555
Li1 O25 2.032350 1_555
Li1 O19 2.263610 1_565
Li1 O23 2.299778 1_555
Li1 O26 2.534352 1_555
Li1 O27 2.553656 1_555
Li2 O24 2.032350 1_655
Li2 O14 2.263610 1_545
Li2 O6 2.299778 1_555
Li2 O9 2.534352 1_555
Li2 O5 2.553656 1_655
Li3 O11 2.032350 1_455
Li3 O21 2.263610 1_565
Li3 O18 2.299778 1_555
Li3 O22 2.534352 1_555
Li3 O15 2.553656 1_455
Ni0 O1 1.963645 1_555
Ni0 O9 1.993142 1_555
Ni0 O13 2.027550 1_555
Ni0 O25 2.042892 1_545
Ni0 O19 2.070907 1_555
Ni0 O23 2.131175 1_555
Ni1 O2 1.963645 1_555
Ni1 O22 1.993142 1_555
Ni1 O20 2.027550 1_555
Ni1 O8 2.042892 1_565
Ni1 O0 2.070907 1_555
Ni1 O3 2.131175 1_555
Ni2 O10 1.963645 1_555
Ni2 O26 1.993142 1_555
Ni2 O12 2.027550 1_455
Ni2 O24 2.042892 1_565
Ni2 O14 2.070907 1_455
Ni2 O6 2.131175 1_455
Ni3 O16 1.963645 1_555
Ni3 O17 1.993142 1_555
Ni3 O7 2.027550 1_655
Ni3 O11 2.042892 1_545
Ni3 O21 2.070907 1_655
Ni3 O18 2.131175 1_655
O0 P7 1.541954 1_555
O1 P5 1.520855 1_555
O2 P2 1.520855 1_555
O3 P6 1.531223 1_555
O4 P2 1.608506 1_555
O4 P3 1.626914 1_555
O5 P1 1.608506 1_555
O5 P0 1.626914 1_555
O6 P5 1.531223 1_555
O7 P0 1.529765 1_555
O8 P3 1.522294 1_555
O9 P6 1.536464 1_555
O10 P1 1.520855 1_555
O11 P7 1.522294 1_555
O12 P7 1.529765 1_555
O13 P3 1.529765 1_556
O14 P4 1.541954 1_555
O15 P6 1.608506 1_555
O15 P7 1.626914 1_555
O16 P6 1.520855 1_555
O17 P5 1.536464 1_554
O18 P2 1.531223 1_555
O19 P0 1.541954 1_555
O20 P4 1.529765 1_554
O21 P3 1.541954 1_555
O22 P1 1.536464 1_555
O23 P1 1.531223 1_555
O24 P0 1.522294 1_555
O25 P4 1.522294 1_555
O26 P2 1.536464 1_556
O27 P5 1.608506 1_555
O27 P4 1.626914 1_555
