# generated using pymatgen
data_Li2MnBPO7
_symmetry_space_group_name_H-M   'P 1'
_cell_length_a   6.21993500
_cell_length_b   5.09633800
_cell_length_c   8.64763703
_cell_angle_alpha   86.87356424
_cell_angle_beta   90.00000000
_cell_angle_gamma   90.00000000
_symmetry_Int_Tables_number   1
_chemical_formula_structural   Li2MnBPO7
_chemical_formula_sum   'Li4 Mn2 B2 P2 O14'
_cell_volume   273.71250709
_cell_formula_units_Z   2
loop_
 _symmetry_equiv_pos_site_id
 _symmetry_equiv_pos_as_xyz
  1  'x, y, z'
loop_
 _atom_site_type_symbol
 _atom_site_label
 _atom_site_symmetry_multiplicity
 _atom_site_fract_x
 _atom_site_fract_y
 _atom_site_fract_z
 _atom_site_occupancy
  Li  Li0  1  0.48421500  0.76693300  0.79602800  1
  Li  Li1  1  0.01578500  0.76693300  0.79602800  1
  Li  Li2  1  0.51578500  0.23306700  0.20397200  1
  Li  Li3  1  0.98421500  0.23306700  0.20397200  1
  Mn  Mn0  1  0.25000000  0.21503700  0.66478500  1
  Mn  Mn1  1  0.75000000  0.78496300  0.33521500  1
  B  B0  1  0.25000000  0.26603300  0.94052300  1
  B  B1  1  0.75000000  0.73396700  0.05947700  1
  P  P0  1  0.75000000  0.28064000  0.57044600  1
  P  P1  1  0.25000000  0.71936000  0.42955400  1
  O  O0  1  0.75000000  0.70709600  0.90844400  1
  O  O1  1  0.25000000  0.02682100  0.86516000  1
  O  O2  1  0.25000000  0.47043500  0.82181900  1
  O  O3  1  0.94287300  0.19472600  0.67366000  1
  O  O4  1  0.55712700  0.19472600  0.67366000  1
  O  O5  1  0.25000000  0.85470000  0.58507400  1
  O  O6  1  0.75000000  0.58202200  0.53402900  1
  O  O7  1  0.25000000  0.41797800  0.46597100  1
  O  O8  1  0.75000000  0.14530000  0.41492600  1
  O  O9  1  0.44287300  0.80527400  0.32634000  1
  O  O10  1  0.05712700  0.80527400  0.32634000  1
  O  O11  1  0.75000000  0.52956500  0.17818100  1
  O  O12  1  0.75000000  0.97317900  0.13484000  1
  O  O13  1  0.25000000  0.29290400  0.09155600  1
loop_
_geom_bond_atom_site_label_1
_geom_bond_atom_site_label_2
_geom_bond_distance
_geom_bond_site_symmetry_2
Li0 O0 1.933560 1_555
Li0 O1 2.078528 1_565
Li0 O2 2.102032 1_555
Li0 O5 2.358227 1_555
Li0 O4 2.413911 1_565
Li1 O0 1.933560 1_455
Li1 O1 2.078528 1_565
Li1 O2 2.102032 1_555
Li1 O5 2.358227 1_555
Li1 O3 2.413911 1_465
Li2 O13 1.933560 1_555
Li2 O12 2.078528 1_545
Li2 O11 2.102032 1_555
Li2 O8 2.358227 1_555
Li2 O9 2.413911 1_545
Li3 O13 1.933560 1_655
Li3 O12 2.078528 1_545
Li3 O11 2.102032 1_555
Li3 O8 2.358227 1_555
Li3 O10 2.413911 1_645
Mn0 O4 1.914425 1_555
Mn0 O3 1.914425 1_455
Mn0 O2 1.931590 1_555
Mn0 O1 1.934239 1_555
Mn0 O7 1.957452 1_555
Mn0 O5 1.996394 1_545
Mn1 O10 1.914425 1_655
Mn1 O9 1.914425 1_555
Mn1 O11 1.931590 1_555
Mn1 O12 1.934239 1_555
Mn1 O6 1.957452 1_555
Mn1 O8 1.996394 1_565
B0 O13 1.320646 1_556
B0 O1 1.413368 1_555
B0 O2 1.422049 1_555
B1 O0 1.320646 1_554
B1 O12 1.413368 1_555
B1 O11 1.422049 1_555
O3 P0 1.544318 1_555
O4 P0 1.544318 1_555
O5 P1 1.544547 1_555
O6 P0 1.550980 1_555
O7 P1 1.550980 1_555
O8 P0 1.544547 1_555
O9 P1 1.544318 1_555
O10 P1 1.544318 1_555
