# generated using pymatgen
data_LiCoPO4
_symmetry_space_group_name_H-M   'P 1'
_cell_length_a   5.75710300
_cell_length_b   7.64943000
_cell_length_c   13.90751200
_cell_angle_alpha   90.00000000
_cell_angle_beta   90.00000000
_cell_angle_gamma   90.00000000
_symmetry_Int_Tables_number   1
_chemical_formula_structural   LiCoPO4
_chemical_formula_sum   'Li8 Co8 P8 O32'
_cell_volume   612.46675161
_cell_formula_units_Z   8
loop_
 _symmetry_equiv_pos_site_id
 _symmetry_equiv_pos_as_xyz
  1  'x, y, z'
loop_
 _atom_site_type_symbol
 _atom_site_label
 _atom_site_symmetry_multiplicity
 _atom_site_fract_x
 _atom_site_fract_y
 _atom_site_fract_z
 _atom_site_occupancy
  Li  Li0  1  0.15067300  0.19630900  0.22166900  1
  Li  Li1  1  0.65067300  0.19630900  0.27833100  1
  Li  Li2  1  0.15067300  0.30369100  0.72166900  1
  Li  Li3  1  0.65067300  0.30369100  0.77833100  1
  Li  Li4  1  0.34932700  0.69630900  0.22166900  1
  Li  Li5  1  0.84932700  0.69630900  0.27833100  1
  Li  Li6  1  0.34932700  0.80369100  0.72166900  1
  Li  Li7  1  0.84932700  0.80369100  0.77833100  1
  Co  Co0  1  0.40496300  0.18343600  0.53991200  1
  Co  Co1  1  0.90496300  0.18343600  0.96008800  1
  Co  Co2  1  0.40496300  0.31656400  0.03991200  1
  Co  Co3  1  0.90496300  0.31656400  0.46008800  1
  Co  Co4  1  0.09503700  0.68343600  0.53991200  1
  Co  Co5  1  0.59503700  0.68343600  0.96008800  1
  Co  Co6  1  0.09503700  0.81656400  0.03991200  1
  Co  Co7  1  0.59503700  0.81656400  0.46008800  1
  P  P0  1  0.89788700  0.04655600  0.62739800  1
  P  P1  1  0.39788700  0.04655600  0.87260200  1
  P  P2  1  0.89788700  0.45344400  0.12739800  1
  P  P3  1  0.39788700  0.45344400  0.37260200  1
  P  P4  1  0.60211300  0.54655600  0.62739800  1
  P  P5  1  0.10211300  0.54655600  0.87260200  1
  P  P6  1  0.60211300  0.95344400  0.12739800  1
  P  P7  1  0.10211300  0.95344400  0.37260200  1
  O  O0  1  0.81979600  0.97888100  0.06096600  1
  O  O1  1  0.31979600  0.97888100  0.43903400  1
  O  O2  1  0.33624000  0.11342300  0.77296800  1
  O  O3  1  0.83624000  0.11342300  0.72703200  1
  O  O4  1  0.47054500  0.12929600  0.13762800  1
  O  O5  1  0.97054500  0.12929600  0.36237200  1
  O  O6  1  0.05898400  0.18815000  0.57736100  1
  O  O7  1  0.55898400  0.18815000  0.92263900  1
  O  O8  1  0.05898400  0.31185000  0.07736100  1
  O  O9  1  0.55898400  0.31185000  0.42263900  1
  O  O10  1  0.47054500  0.37070400  0.63762800  1
  O  O11  1  0.97054500  0.37070400  0.86237200  1
  O  O12  1  0.83624000  0.38657700  0.22703200  1
  O  O13  1  0.33624000  0.38657700  0.27296800  1
  O  O14  1  0.81979600  0.52111900  0.56096600  1
  O  O15  1  0.31979600  0.52111900  0.93903400  1
  O  O16  1  0.18020400  0.47888100  0.43903400  1
  O  O17  1  0.68020400  0.47888100  0.06096600  1
  O  O18  1  0.66376000  0.61342300  0.72703200  1
  O  O19  1  0.16376000  0.61342300  0.77296800  1
  O  O20  1  0.02945500  0.62929600  0.13762800  1
  O  O21  1  0.52945500  0.62929600  0.36237200  1
  O  O22  1  0.44101600  0.68815000  0.57736100  1
  O  O23  1  0.94101600  0.68815000  0.92263900  1
  O  O24  1  0.44101600  0.81185000  0.07736100  1
  O  O25  1  0.94101600  0.81185000  0.42263900  1
  O  O26  1  0.02945500  0.87070400  0.63762800  1
  O  O27  1  0.52945500  0.87070400  0.86237200  1
  O  O28  1  0.66376000  0.88657700  0.22703200  1
  O  O29  1  0.16376000  0.88657700  0.27296800  1
  O  O30  1  0.68020400  0.02111900  0.56096600  1
  O  O31  1  0.18020400  0.02111900  0.93903400  1
loop_
_geom_bond_atom_site_label_1
_geom_bond_atom_site_label_2
_geom_bond_distance
_geom_bond_site_symmetry_2
Li0 O13 1.941297 1_555
Li0 O4 2.240563 1_555
Li0 O8 2.255591 1_555
Li0 O5 2.273181 1_455
Li0 O12 2.323958 1_455
Li0 O29 2.475506 1_545
Li1 O12 1.941297 1_555
Li1 O5 2.240563 1_555
Li1 O9 2.255591 1_555
Li1 O4 2.273181 1_555
Li1 O13 2.323958 1_555
Li1 O28 2.475506 1_545
Li2 O2 1.941297 1_555
Li2 O10 2.240563 1_555
Li2 O6 2.255591 1_555
Li2 O11 2.273181 1_455
Li2 O3 2.323958 1_455
Li2 O19 2.475506 1_555
Li3 O3 1.941297 1_555
Li3 O11 2.240563 1_555
Li3 O7 2.255591 1_555
Li3 O10 2.273181 1_555
Li3 O2 2.323958 1_555
Li3 O18 2.475506 1_555
Li4 O29 1.941297 1_555
Li4 O20 2.240563 1_555
Li4 O24 2.255591 1_555
Li4 O21 2.273181 1_555
Li4 O28 2.323958 1_555
Li4 O13 2.475506 1_555
Li5 O28 1.941297 1_555
Li5 O21 2.240563 1_555
Li5 O25 2.255591 1_555
Li5 O20 2.273181 1_655
Li5 O29 2.323958 1_655
Li5 O12 2.475506 1_555
Li6 O19 1.941297 1_555
Li6 O26 2.240563 1_555
Li6 O22 2.255591 1_555
Li6 O27 2.273181 1_555
Li6 O18 2.323958 1_555
Li6 O2 2.475506 1_565
Li7 O18 1.941297 1_555
Li7 O27 2.240563 1_555
Li7 O23 2.255591 1_555
Li7 O26 2.273181 1_655
Li7 O19 2.323958 1_655
Li7 O3 2.475506 1_565
Co0 O10 2.010332 1_555
Co0 O30 2.034285 1_555
Co0 O6 2.059119 1_555
Co0 O9 2.100297 1_555
Co0 O1 2.158029 1_545
Co1 O11 2.010332 1_555
Co1 O31 2.034285 1_655
Co1 O7 2.059119 1_555
Co1 O8 2.100297 1_656
Co1 O0 2.158029 1_546
Co2 O4 2.010332 1_555
Co2 O17 2.034285 1_555
Co2 O8 2.059119 1_555
Co2 O7 2.100297 1_554
Co2 O15 2.158029 1_554
Co3 O5 2.010332 1_555
Co3 O16 2.034285 1_655
Co3 O9 2.059119 1_555
Co3 O6 2.100297 1_655
Co3 O14 2.158029 1_555
Co4 O26 2.010332 1_555
Co4 O14 2.034285 1_455
Co4 O22 2.059119 1_555
Co4 O25 2.100297 1_455
Co4 O16 2.158029 1_555
Co5 O27 2.010332 1_555
Co5 O15 2.034285 1_555
Co5 O23 2.059119 1_555
Co5 O24 2.100297 1_556
Co5 O17 2.158029 1_556
Co6 O20 2.010332 1_555
Co6 O0 2.034285 1_455
Co6 O24 2.059119 1_555
Co6 O23 2.100297 1_454
Co6 O31 2.158029 1_564
Co7 O21 2.010332 1_555
Co7 O1 2.034285 1_555
Co7 O25 2.059119 1_555
Co7 O22 2.100297 1_555
Co7 O30 2.158029 1_565
O0 P6 1.569085 1_555
O1 P7 1.569085 1_555
O2 P1 1.519093 1_555
O3 P0 1.519093 1_555
O4 P6 1.550306 1_545
O5 P7 1.550306 1_645
O6 P0 1.586684 1_455
O7 P1 1.586684 1_555
O8 P2 1.586684 1_455
O9 P3 1.586684 1_555
O10 P4 1.550306 1_555
O11 P5 1.550306 1_655
O12 P2 1.519093 1_555
O13 P3 1.519093 1_555
O14 P4 1.569085 1_555
O15 P5 1.569085 1_555
O16 P3 1.569085 1_555
O17 P2 1.569085 1_555
O18 P4 1.519093 1_555
O19 P5 1.519093 1_555
O20 P2 1.550306 1_455
O21 P3 1.550306 1_555
O22 P4 1.586684 1_555
O23 P5 1.586684 1_655
O24 P6 1.586684 1_555
O25 P7 1.586684 1_655
O26 P0 1.550306 1_465
O27 P1 1.550306 1_565
O28 P6 1.519093 1_555
O29 P7 1.519093 1_555
O30 P0 1.569085 1_555
O31 P1 1.569085 1_555
