# generated using pymatgen
data_Li6MnFe5(BO3)6
_symmetry_space_group_name_H-M   'P 1'
_cell_length_a   12.54398300
_cell_length_b   8.25536000
_cell_length_c   8.25559546
_cell_angle_alpha   60.03742366
_cell_angle_beta   90.00000000
_cell_angle_gamma   90.00000000
_symmetry_Int_Tables_number   1
_chemical_formula_structural   Li6MnFe5(BO3)6
_chemical_formula_sum   'Li12 Mn2 Fe10 B12 O36'
_cell_volume   740.65193178
_cell_formula_units_Z   2
loop_
 _symmetry_equiv_pos_site_id
 _symmetry_equiv_pos_as_xyz
  1  'x, y, z'
loop_
 _atom_site_type_symbol
 _atom_site_label
 _atom_site_symmetry_multiplicity
 _atom_site_fract_x
 _atom_site_fract_y
 _atom_site_fract_z
 _atom_site_occupancy
  Li  Li0  1  0.12596600  0.98359500  0.30147100  1
  Li  Li1  1  0.87403400  0.98359500  0.30147100  1
  Li  Li2  1  0.62486300  0.98341000  0.30204700  1
  Li  Li3  1  0.37513700  0.98341000  0.30204700  1
  Li  Li4  1  0.12543200  0.30131800  0.71541200  1
  Li  Li5  1  0.37515200  0.30216200  0.71431100  1
  Li  Li6  1  0.62484800  0.30216200  0.71431100  1
  Li  Li7  1  0.87456800  0.30131800  0.71541200  1
  Li  Li8  1  0.37500600  0.71456700  0.98384700  1
  Li  Li9  1  0.62499400  0.71456700  0.98384700  1
  Li  Li10  1  0.12557600  0.71414800  0.98425900  1
  Li  Li11  1  0.87442400  0.71414800  0.98425900  1
  Mn  Mn0  1  0.00000000  0.35944700  0.01215000  1
  Mn  Mn1  1  0.00000000  0.01197200  0.62885500  1
  Fe  Fe0  1  0.50000000  0.36024900  0.00770600  1
  Fe  Fe1  1  0.25143300  0.36079800  0.00759400  1
  Fe  Fe2  1  0.74856700  0.36079800  0.00759400  1
  Fe  Fe3  1  0.50000000  0.00771000  0.63250000  1
  Fe  Fe4  1  0.25136300  0.00779200  0.63164800  1
  Fe  Fe5  1  0.74863700  0.00779200  0.63164800  1
  Fe  Fe6  1  0.50000000  0.63258100  0.35961800  1
  Fe  Fe7  1  0.00000000  0.63448600  0.35817000  1
  Fe  Fe8  1  0.24975800  0.63232800  0.35978300  1
  Fe  Fe9  1  0.75024200  0.63232800  0.35978300  1
  B  B0  1  0.00000000  0.99780700  0.00059000  1
  B  B1  1  0.25050400  0.99993000  0.00012600  1
  B  B2  1  0.50000000  0.00015500  0.99997000  1
  B  B3  1  0.74949600  0.99993000  0.00012600  1
  B  B4  1  0.87225500  0.66663100  0.66545600  1
  B  B5  1  0.12774500  0.66663100  0.66545600  1
  B  B6  1  0.37582900  0.66658500  0.66647200  1
  B  B7  1  0.62417100  0.66658500  0.66647200  1
  B  B8  1  0.12677100  0.33403000  0.33397900  1
  B  B9  1  0.37519500  0.33346700  0.33320100  1
  B  B10  1  0.62480500  0.33346700  0.33320100  1
  B  B11  1  0.87322900  0.33403000  0.33397900  1
  O  O0  1  0.25059800  0.91482100  0.19440800  1
  O  O1  1  0.00000000  0.91766900  0.19529300  1
  O  O2  1  0.50000000  0.91507000  0.19444900  1
  O  O3  1  0.74940200  0.91482100  0.19440800  1
  O  O4  1  0.87486000  0.58024900  0.55764600  1
  O  O5  1  0.12514000  0.58024900  0.55764600  1
  O  O6  1  0.37508600  0.58081000  0.55796500  1
  O  O7  1  0.62491400  0.58081000  0.55796500  1
  O  O8  1  0.00000000  0.19145700  0.88663700  1
  O  O9  1  0.50000000  0.19434900  0.89080900  1
  O  O10  1  0.74911800  0.19431000  0.89092000  1
  O  O11  1  0.25088200  0.19431000  0.89092000  1
  O  O12  1  0.87168300  0.86064200  0.57947900  1
  O  O13  1  0.62388500  0.86082000  0.58077000  1
  O  O14  1  0.12831700  0.86064200  0.57947900  1
  O  O15  1  0.37611500  0.86082000  0.58077000  1
  O  O16  1  0.87191900  0.55890700  0.85960100  1
  O  O17  1  0.12808100  0.55890700  0.85960100  1
  O  O18  1  0.62397500  0.55848000  0.86081300  1
  O  O19  1  0.37602500  0.55848000  0.86081300  1
  O  O20  1  0.12721500  0.25339300  0.22037400  1
  O  O21  1  0.62458900  0.25460600  0.21795200  1
  O  O22  1  0.37541100  0.25460600  0.21795200  1
  O  O23  1  0.87278500  0.25339300  0.22037400  1
  O  O24  1  0.00000000  0.88285400  0.92210100  1
  O  O25  1  0.25071500  0.89067400  0.91491600  1
  O  O26  1  0.50000000  0.89076000  0.91510500  1
  O  O27  1  0.74928500  0.89067400  0.91491600  1
  O  O28  1  0.12493100  0.52770500  0.25403200  1
  O  O29  1  0.37474600  0.52720300  0.25468200  1
  O  O30  1  0.62525400  0.52720300  0.25468200  1
  O  O31  1  0.87506900  0.52770500  0.25403200  1
  O  O32  1  0.37552100  0.21819200  0.52711800  1
  O  O33  1  0.12710700  0.22014500  0.52774100  1
  O  O34  1  0.62447900  0.21819200  0.52711800  1
  O  O35  1  0.87289300  0.22014500  0.52774100  1
loop_
_geom_bond_atom_site_label_1
_geom_bond_atom_site_label_2
_geom_bond_distance
_geom_bond_site_symmetry_2
Li0 O20 1.979841 1_565
Li0 O14 1.992927 1_555
Li0 O1 2.009440 1_555
Li0 O0 2.012209 1_555
Li1 O23 1.979841 1_565
Li1 O12 1.992927 1_555
Li1 O1 2.009440 1_655
Li1 O3 2.012209 1_555
Li2 O21 1.985388 1_565
Li2 O13 1.998249 1_555
Li2 O3 2.013300 1_555
Li2 O2 2.015229 1_555
Li3 O22 1.985388 1_565
Li3 O15 1.998249 1_555
Li3 O0 2.013300 1_555
Li3 O2 2.015229 1_555
Li4 O33 1.971545 1_555
Li4 O5 2.000745 1_555
Li4 O8 2.003941 1_555
Li4 O11 2.019305 1_555
Li5 O32 1.984650 1_555
Li5 O6 1.997946 1_555
Li5 O11 2.012918 1_555
Li5 O9 2.018052 1_555
Li6 O34 1.984650 1_555
Li6 O7 1.997946 1_555
Li6 O10 2.012918 1_555
Li6 O9 2.018052 1_555
Li7 O35 1.971545 1_555
Li7 O4 2.000745 1_555
Li7 O8 2.003941 1_655
Li7 O10 2.019305 1_555
Li8 O29 1.984250 1_556
Li8 O19 1.999887 1_555
Li8 O25 2.010439 1_555
Li8 O26 2.017820 1_555
Li9 O30 1.984250 1_556
Li9 O18 1.999887 1_555
Li9 O27 2.010439 1_555
Li9 O26 2.017820 1_555
Li10 O28 1.976151 1_556
Li10 O24 1.992605 1_555
Li10 O17 2.004973 1_555
Li10 O25 2.020442 1_555
Li11 O31 1.976151 1_556
Li11 O24 1.992605 1_655
Li11 O16 2.004973 1_555
Li11 O27 2.020442 1_555
Mn0 O8 2.105307 1_554
Mn0 O20 2.182828 1_555
Mn0 O23 2.182828 1_455
Mn0 O16 2.192561 1_454
Mn0 O17 2.192561 1_554
Mn1 O24 2.102250 1_545
Mn1 O33 2.181620 1_555
Mn1 O35 2.181620 1_455
Mn1 O14 2.196900 1_545
Mn1 O12 2.196900 1_445
Fe0 O9 2.031562 1_554
Fe0 O18 2.141220 1_554
Fe0 O19 2.141220 1_554
Fe0 O21 2.168805 1_555
Fe0 O22 2.168805 1_555
Fe1 O11 2.034506 1_554
Fe1 O17 2.136767 1_554
Fe1 O19 2.144504 1_554
Fe1 O22 2.163859 1_555
Fe1 O20 2.178092 1_555
Fe2 O10 2.034506 1_554
Fe2 O16 2.136767 1_554
Fe2 O18 2.144504 1_554
Fe2 O21 2.163859 1_555
Fe2 O23 2.178092 1_555
Fe3 O26 2.031108 1_545
Fe3 O15 2.141281 1_545
Fe3 O13 2.141281 1_545
Fe3 O34 2.168947 1_555
Fe3 O32 2.168947 1_555
Fe4 O25 2.035976 1_545
Fe4 O14 2.136848 1_545
Fe4 O15 2.146265 1_545
Fe4 O32 2.165646 1_555
Fe4 O33 2.176322 1_555
Fe5 O27 2.035976 1_545
Fe5 O12 2.136848 1_545
Fe5 O13 2.146265 1_545
Fe5 O34 2.165646 1_555
Fe5 O35 2.176322 1_555
Fe6 O2 2.030138 1_555
Fe6 O7 2.149458 1_555
Fe6 O6 2.149458 1_555
Fe6 O30 2.174551 1_555
Fe6 O29 2.174551 1_555
Fe7 O1 2.033064 1_555
Fe7 O4 2.154071 1_455
Fe7 O5 2.154071 1_555
Fe7 O31 2.174648 1_455
Fe7 O28 2.174648 1_555
Fe8 O0 2.030359 1_555
Fe8 O5 2.143645 1_555
Fe8 O6 2.152725 1_555
Fe8 O28 2.170986 1_555
Fe8 O29 2.171706 1_555
Fe9 O3 2.030359 1_555
Fe9 O4 2.143645 1_555
Fe9 O7 2.152725 1_555
Fe9 O31 2.170986 1_555
Fe9 O30 2.171706 1_555
B0 O24 1.390916 1_554
B0 O8 1.392288 1_564
B0 O1 1.399706 1_555
B1 O0 1.393037 1_555
B1 O25 1.393606 1_554
B1 O11 1.393824 1_564
B2 O26 1.392278 1_545
B2 O9 1.392518 1_555
B2 O2 1.394513 1_546
B3 O3 1.393037 1_555
B3 O27 1.393606 1_554
B3 O10 1.393824 1_564
B4 O12 1.390517 1_555
B4 O4 1.391310 1_555
B4 O16 1.391417 1_555
B5 O14 1.390517 1_555
B5 O5 1.391310 1_555
B5 O17 1.391417 1_555
B6 O6 1.391952 1_555
B6 O15 1.392313 1_555
B6 O19 1.392963 1_555
B7 O7 1.391952 1_555
B7 O13 1.392313 1_555
B7 O18 1.392963 1_555
B8 O28 1.392272 1_555
B8 O33 1.393021 1_555
B8 O20 1.395138 1_555
B9 O29 1.393775 1_555
B9 O32 1.395263 1_555
B9 O22 1.395641 1_555
B10 O30 1.393775 1_555
B10 O34 1.395263 1_555
B10 O21 1.395641 1_555
B11 O31 1.392272 1_555
B11 O35 1.393021 1_555
B11 O23 1.395138 1_555
