# generated using pymatgen
data_LiMn2(PO4)2
_symmetry_space_group_name_H-M   'P 1'
_cell_length_a   8.59087446
_cell_length_b   8.47626768
_cell_length_c   7.32672207
_cell_angle_alpha   87.41360195
_cell_angle_beta   84.68124624
_cell_angle_gamma   60.26588652
_symmetry_Int_Tables_number   1
_chemical_formula_structural   LiMn2(PO4)2
_chemical_formula_sum   'Li3 Mn6 P6 O24'
_cell_volume   461.28103973
_cell_formula_units_Z   3
loop_
 _symmetry_equiv_pos_site_id
 _symmetry_equiv_pos_as_xyz
  1  'x, y, z'
loop_
 _atom_site_type_symbol
 _atom_site_label
 _atom_site_symmetry_multiplicity
 _atom_site_fract_x
 _atom_site_fract_y
 _atom_site_fract_z
 _atom_site_occupancy
  Li  Li0  1  0.02240800  0.66519500  0.93492000  1
  Li  Li1  1  0.66366200  0.30609900  0.91235600  1
  Li  Li2  1  0.98174300  0.34717900  0.40680100  1
  Mn  Mn0  1  0.02655400  0.98111300  0.25605300  1
  Mn  Mn1  1  0.00971700  0.98572700  0.72096100  1
  Mn  Mn2  1  0.34970900  0.32623600  0.20477500  1
  Mn  Mn3  1  0.32838900  0.32679700  0.78062300  1
  Mn  Mn4  1  0.64558000  0.68722700  0.28728700  1
  Mn  Mn5  1  0.67053600  0.65640400  0.69616700  1
  P  P0  1  0.31985200  0.03601700  0.49830700  1
  P  P1  1  0.03957800  0.64516600  0.50179900  1
  P  P2  1  0.35645900  0.68018300  0.00184300  1
  P  P3  1  0.65272100  0.32617200  0.49045900  1
  P  P4  1  0.95180400  0.35737200  0.01055000  1
  P  P5  1  0.67646600  0.95877400  0.98185900  1
  O  O0  1  0.03079600  0.15397100  0.04606700  1
  O  O1  1  0.09986500  0.41124700  0.97844500  1
  O  O2  1  0.25952100  0.18012900  0.33794000  1
  O  O3  1  0.28841700  0.13284300  0.67878900  1
  O  O4  1  0.14312200  0.58878000  0.67452800  1
  O  O5  1  0.15702400  0.54774000  0.32467000  1
  O  O6  1  0.48166800  0.12269900  0.01260000  1
  O  O7  1  0.14963100  0.79627800  0.99478500  1
  O  O8  1  0.40535100  0.47224400  0.00846200  1
  O  O9  1  0.19615600  0.95298200  0.49876300  1
  O  O10  1  0.57325000  0.29398800  0.32804600  1
  O  O11  1  0.57370500  0.29679100  0.67639000  1
  O  O12  1  0.41871000  0.72967900  0.16690100  1
  O  O13  1  0.44427900  0.70859500  0.81790500  1
  O  O14  1  0.80637300  0.03549100  0.93903900  1
  O  O15  1  0.61170000  0.53400600  0.49333600  1
  O  O16  1  0.86079400  0.20523700  0.48064100  1
  O  O17  1  0.52078400  0.88514000  0.46649700  1
  O  O18  1  0.82509100  0.41419000  0.85260700  1
  O  O19  1  0.83669400  0.45919800  0.19013200  1
  O  O20  1  0.73693400  0.83465100  0.15306400  1
  O  O21  1  0.70586800  0.83537600  0.81783700  1
  O  O22  1  0.88605700  0.59107500  0.52183800  1
  O  O23  1  0.95568500  0.85122700  0.47713300  1
loop_
_geom_bond_atom_site_label_1
_geom_bond_atom_site_label_2
_geom_bond_distance
_geom_bond_site_symmetry_2
Li0 O1 1.932471 1_555
Li0 O7 1.989706 1_555
Li0 O4 2.052606 1_555
Li1 O11 1.978105 1_555
Li1 O14 2.004254 1_555
Li1 O18 2.016425 1_555
Li1 O8 2.025679 1_556
Li2 O16 1.974076 1_555
Li2 O22 2.000762 1_555
Li2 O19 2.007843 1_555
Li2 O2 2.107999 1_655
Mn0 O0 2.086683 1_565
Mn0 O23 2.127816 1_455
Mn0 O9 2.332271 1_555
Mn0 O7 2.342878 1_554
Mn0 O16 2.347062 1_465
Mn1 O9 2.099790 1_555
Mn1 O14 2.143589 1_465
Mn1 O23 2.359898 1_455
Mn1 O16 2.441245 1_465
Mn1 O7 2.508000 1_555
Mn2 O2 1.946427 1_555
Mn2 O5 1.957866 1_555
Mn2 O8 2.031665 1_555
Mn2 O6 2.056048 1_555
Mn2 O10 2.087341 1_555
Mn2 O1 2.625609 1_554
Mn3 O3 2.023748 1_555
Mn3 O11 2.068048 1_555
Mn3 O4 2.153213 1_555
Mn3 O1 2.153941 1_555
Mn3 O6 2.346361 1_556
Mn3 O8 2.437742 1_556
Mn4 O19 1.922972 1_555
Mn4 O17 1.959955 1_555
Mn4 O20 1.965544 1_555
Mn4 O15 2.041344 1_555
Mn4 O12 2.073765 1_555
Mn5 O13 1.905424 1_555
Mn5 O21 1.953742 1_555
Mn5 O22 1.993619 1_555
Mn5 O15 2.082997 1_555
Mn5 O18 2.158129 1_555
Mn5 O17 2.424537 1_555
O0 P4 1.527210 1_455
O1 P4 1.546869 1_456
O2 P0 1.580082 1_555
O3 P0 1.518878 1_555
O4 P1 1.534169 1_555
O5 P1 1.552949 1_555
O6 P5 1.560043 1_544
O7 P2 1.551189 1_556
O8 P2 1.595948 1_555
O9 P0 1.538070 1_565
O10 P3 1.523545 1_555
O11 P3 1.531083 1_555
O12 P2 1.520775 1_555
O13 P2 1.551074 1_556
O14 P5 1.550265 1_545
O15 P3 1.616855 1_555
O16 P3 1.554486 1_555
O17 P0 1.559504 1_565
O18 P4 1.555397 1_556
O19 P4 1.571202 1_555
O20 P5 1.552344 1_554
O21 P5 1.548260 1_555
O22 P1 1.590303 1_655
O23 P1 1.532896 1_655
