# generated using pymatgen
data_TiCo(PO4)2
_symmetry_space_group_name_H-M   'P 1'
_cell_length_a   5.97197719
_cell_length_b   9.86712830
_cell_length_c   11.07346328
_cell_angle_alpha   115.73701679
_cell_angle_beta   89.97723725
_cell_angle_gamma   90.02404119
_symmetry_Int_Tables_number   1
_chemical_formula_structural   TiCo(PO4)2
_chemical_formula_sum   'Ti4 Co4 P8 O32'
_cell_volume   587.78581692
_cell_formula_units_Z   4
loop_
 _symmetry_equiv_pos_site_id
 _symmetry_equiv_pos_as_xyz
  1  'x, y, z'
loop_
 _atom_site_type_symbol
 _atom_site_label
 _atom_site_symmetry_multiplicity
 _atom_site_fract_x
 _atom_site_fract_y
 _atom_site_fract_z
 _atom_site_occupancy
  Ti  Ti0  1  0.75043300  0.34862100  0.22460200  1
  Ti  Ti1  1  0.75033600  0.84849700  0.22424300  1
  Ti  Ti2  1  0.25027300  0.65162500  0.77551600  1
  Ti  Ti3  1  0.25021200  0.15145000  0.77584200  1
  Co  Co0  1  0.25014100  0.11828600  0.27088800  1
  Co  Co1  1  0.74999200  0.88154700  0.72879900  1
  Co  Co2  1  0.25135700  0.61896400  0.27359100  1
  Co  Co3  1  0.74904200  0.38138700  0.72551700  1
  P  P0  1  0.24966600  0.27082800  0.09844600  1
  P  P1  1  0.25002400  0.76865400  0.09835600  1
  P  P2  1  0.74964400  0.72927200  0.90162300  1
  P  P3  1  0.75019800  0.23129800  0.90158000  1
  P  P4  1  0.74964300  0.64784700  0.40012300  1
  P  P5  1  0.75033600  0.14754100  0.39977100  1
  P  P6  1  0.24924600  0.35199600  0.59993800  1
  P  P7  1  0.25037700  0.85242000  0.60015800  1
  O  O0  1  0.75171600  0.34766900  0.05227900  1
  O  O1  1  0.74969700  0.84672600  0.05177100  1
  O  O2  1  0.25148200  0.65214300  0.94772500  1
  O  O3  1  0.24995100  0.15310400  0.94834800  1
  O  O4  1  0.24823300  0.42789200  0.10745000  1
  O  O5  1  0.24950500  0.92590000  0.10835100  1
  O  O6  1  0.74874200  0.57213400  0.89223600  1
  O  O7  1  0.74871600  0.07395900  0.89138000  1
  O  O8  1  0.74998300  0.27976700  0.36002700  1
  O  O9  1  0.75107500  0.77855700  0.35860200  1
  O  O10  1  0.25013700  0.72009900  0.63988300  1
  O  O11  1  0.25138300  0.22111900  0.64131000  1
  O  O12  1  0.24849400  0.29475500  0.45060300  1
  O  O13  1  0.25116100  0.79888500  0.45088800  1
  O  O14  1  0.74859600  0.70539200  0.54948700  1
  O  O15  1  0.75169100  0.20122200  0.54900800  1
  O  O16  1  0.04504800  0.23641700  0.17122700  1
  O  O17  1  0.04441400  0.73399800  0.16975600  1
  O  O18  1  0.45520900  0.23740400  0.17112100  1
  O  O19  1  0.45491200  0.73659500  0.17212100  1
  O  O20  1  0.54493000  0.76381900  0.82903100  1
  O  O21  1  0.54479500  0.26629300  0.83035500  1
  O  O22  1  0.95541200  0.76319100  0.82928600  1
  O  O23  1  0.95554500  0.26304800  0.82796500  1
  O  O24  1  0.55296100  0.53466400  0.32619600  1
  O  O25  1  0.55326800  0.03524400  0.32571300  1
  O  O26  1  0.94637800  0.53446100  0.32739300  1
  O  O27  1  0.94680100  0.03486100  0.32499500  1
  O  O28  1  0.05273100  0.46517000  0.67410700  1
  O  O29  1  0.05334600  0.96461900  0.67451400  1
  O  O30  1  0.44594500  0.46553900  0.67296000  1
  O  O31  1  0.44682500  0.96512200  0.67492200  1
loop_
_geom_bond_atom_site_label_1
_geom_bond_atom_site_label_2
_geom_bond_distance
_geom_bond_site_symmetry_2
Co0 O5 1.968680 1_545
Co0 O12 1.995729 1_555
Co0 O27 2.178183 1_455
Co0 O25 2.179720 1_555
Co0 O16 2.279515 1_555
Co0 O18 2.286305 1_555
Co1 O7 1.969079 1_565
Co1 O14 1.991602 1_555
Co1 O29 2.177389 1_655
Co1 O31 2.177913 1_555
Co1 O20 2.280022 1_555
Co1 O22 2.288634 1_555
Co2 O4 1.981704 1_555
Co2 O13 1.994787 1_555
Co2 O24 2.167566 1_555
Co2 O26 2.190136 1_455
Co2 O19 2.284258 1_555
Co2 O17 2.296417 1_555
Co3 O6 1.983174 1_555
Co3 O15 1.990768 1_555
Co3 O28 2.168733 1_655
Co3 O30 2.174024 1_555
Co3 O21 2.295203 1_555
Co3 O23 2.307392 1_555
O0 P3 1.561786 1_554
O0 Ti0 1.904165 1_555
O1 P2 1.560151 1_554
O1 Ti1 1.902345 1_555
O2 P1 1.561593 1_556
O2 Ti2 1.904753 1_555
O3 P0 1.560489 1_556
O3 Ti3 1.903209 1_555
O4 P0 1.509177 1_555
O5 P1 1.506811 1_555
O6 P2 1.508280 1_555
O7 P3 1.506898 1_555
O8 P5 1.547449 1_555
O8 Ti0 1.896123 1_555
O9 P4 1.545922 1_555
O9 Ti1 1.892511 1_555
O10 P7 1.548216 1_555
O10 Ti2 1.895675 1_555
O11 P6 1.546461 1_555
O11 Ti3 1.892437 1_555
O12 P6 1.497481 1_555
O13 P7 1.500980 1_555
O14 P4 1.497482 1_555
O15 P5 1.500471 1_555
O16 P0 1.579420 1_555
O16 Ti0 2.025632 1_455
O17 P1 1.575903 1_555
O17 Ti1 2.033122 1_455
O18 P0 1.579491 1_555
O18 Ti0 2.024400 1_555
O19 P1 1.577965 1_555
O19 Ti1 2.027465 1_555
O20 P2 1.579903 1_555
O20 Ti2 2.025495 1_555
O21 P3 1.575956 1_555
O21 Ti3 2.036787 1_555
O22 P2 1.579684 1_555
O22 Ti2 2.024521 1_655
O23 P3 1.577088 1_555
O23 Ti3 2.022676 1_655
O24 P4 1.581986 1_555
O24 Ti0 2.057522 1_555
O25 P5 1.579827 1_555
O25 Ti1 2.060483 1_545
O26 P4 1.580670 1_555
O26 Ti0 2.052794 1_555
O27 P5 1.580875 1_555
O27 Ti1 2.054326 1_545
O28 P6 1.581982 1_555
O28 Ti2 2.059730 1_555
O29 P7 1.580121 1_555
O29 Ti3 2.059720 1_565
O30 P6 1.581698 1_555
O30 Ti2 2.053382 1_555
O31 P7 1.580670 1_555
O31 Ti3 2.055260 1_565
