# generated using pymatgen
data_Li4Ti15O32
_symmetry_space_group_name_H-M   'P 1'
_cell_length_a   19.68046305
_cell_length_b   19.68046305
_cell_length_c   19.68046242
_cell_angle_alpha   17.47135166
_cell_angle_beta   17.47135166
_cell_angle_gamma   17.47135368
_symmetry_Int_Tables_number   1
_chemical_formula_structural   Li4Ti15O32
_chemical_formula_sum   'Li4 Ti15 O32'
_cell_volume   599.64367940
_cell_formula_units_Z   1
loop_
 _symmetry_equiv_pos_site_id
 _symmetry_equiv_pos_as_xyz
  1  'x, y, z'
loop_
 _atom_site_type_symbol
 _atom_site_label
 _atom_site_symmetry_multiplicity
 _atom_site_fract_x
 _atom_site_fract_y
 _atom_site_fract_z
 _atom_site_occupancy
  Li  Li0  1  0.34428300  0.34428300  0.34428300  1
  Li  Li1  1  0.40570500  0.40570500  0.40570500  1
  Li  Li2  1  0.59429500  0.59429500  0.59429500  1
  Li  Li3  1  0.65571700  0.65571700  0.65571700  1
  Ti  Ti0  1  0.25120200  0.25120200  0.25120200  1
  Ti  Ti1  1  0.87934900  0.36101800  0.87934900  1
  Ti  Ti2  1  0.12146000  0.62668000  0.62668000  1
  Ti  Ti3  1  0.87854000  0.37332000  0.37332000  1
  Ti  Ti4  1  0.37332000  0.37332000  0.87854000  1
  Ti  Ti5  1  0.50000000  0.50000000  0.50000000  1
  Ti  Ti6  1  0.62668000  0.62668000  0.12146000  1
  Ti  Ti7  1  0.74879800  0.74879800  0.74879800  1
  Ti  Ti8  1  0.87934900  0.87934900  0.36101800  1
  Ti  Ti9  1  0.37332000  0.87854000  0.37332000  1
  Ti  Ti10  1  0.62668000  0.12146000  0.62668000  1
  Ti  Ti11  1  0.36101800  0.87934900  0.87934900  1
  Ti  Ti12  1  0.12065100  0.63898200  0.12065100  1
  Ti  Ti13  1  0.12065100  0.12065100  0.63898200  1
  Ti  Ti14  1  0.63898200  0.12065100  0.12065100  1
  O  O0  1  0.70342100  0.18535000  0.18535000  1
  O  O1  1  0.76767100  0.33264900  0.33264900  1
  O  O2  1  0.30980000  0.30980000  0.30980000  1
  O  O3  1  0.19108000  0.19108000  0.19108000  1
  O  O4  1  0.18535000  0.18535000  0.70342100  1
  O  O5  1  0.33264900  0.33264900  0.76767100  1
  O  O6  1  0.44017500  0.44017500  0.44017500  1
  O  O7  1  0.33264900  0.76767100  0.33264900  1
  O  O8  1  0.97777600  0.41828800  0.41828800  1
  O  O9  1  0.81465000  0.29657900  0.81465000  1
  O  O10  1  0.18535000  0.70342100  0.18535000  1
  O  O11  1  0.66735100  0.23232900  0.66735100  1
  O  O12  1  0.91876700  0.47978000  0.91876700  1
  O  O13  1  0.02222400  0.58171200  0.58171200  1
  O  O14  1  0.69020000  0.69020000  0.69020000  1
  O  O15  1  0.55982500  0.55982500  0.55982500  1
  O  O16  1  0.80892000  0.80892000  0.80892000  1
  O  O17  1  0.41828800  0.41828800  0.97777600  1
  O  O18  1  0.66735100  0.66735100  0.23232900  1
  O  O19  1  0.81465000  0.81465000  0.29657900  1
  O  O20  1  0.91876700  0.91876700  0.47978000  1
  O  O21  1  0.58171200  0.58171200  0.02222400  1
  O  O22  1  0.58171200  0.02222400  0.58171200  1
  O  O23  1  0.47978000  0.91876700  0.91876700  1
  O  O24  1  0.23232900  0.66735100  0.66735100  1
  O  O25  1  0.08123300  0.52022000  0.08123300  1
  O  O26  1  0.29657900  0.81465000  0.81465000  1
  O  O27  1  0.41828800  0.97777600  0.41828800  1
  O  O28  1  0.08123300  0.08123300  0.52022000  1
  O  O29  1  0.05820500  0.05820500  0.05820500  1
  O  O30  1  0.94179500  0.94179500  0.94179500  1
  O  O31  1  0.52022000  0.08123300  0.08123300  1
loop_
_geom_bond_atom_site_label_1
_geom_bond_atom_site_label_2
_geom_bond_distance
_geom_bond_site_symmetry_2
Li0 O4 1.958736 1_555
Li0 O10 1.958737 1_555
Li0 O0 1.958737 1_555
Li0 O2 2.004372 1_555
Li1 O6 2.003616 1_555
Li1 O21 2.024977 1_555
Li1 O22 2.024978 1_555
Li1 O13 2.024978 1_555
Li2 O15 2.003616 1_555
Li2 O17 2.024977 1_555
Li2 O27 2.024978 1_555
Li2 O8 2.024978 1_555
Li3 O19 1.958736 1_555
Li3 O9 1.958737 1_555
Li3 O26 1.958737 1_555
Li3 O14 2.004372 1_555
O0 Ti1 1.882977 1_554
O0 Ti8 1.882978 1_545
O1 Ti5 1.985213 1_555
O1 Ti6 1.986489 1_555
O1 Ti10 1.986489 1_555
O2 Ti13 2.026333 1_555
O2 Ti14 2.026333 1_555
O2 Ti12 2.026333 1_555
O3 Ti4 1.982155 1_554
O3 Ti9 1.982155 1_545
O3 Ti3 1.982155 1_455
O4 Ti11 1.882978 1_545
O4 Ti1 1.882978 1_455
O5 Ti5 1.985213 1_555
O5 Ti10 1.986489 1_555
O5 Ti2 1.986489 1_555
O6 Ti6 2.036473 1_555
O6 Ti2 2.036473 1_555
O6 Ti10 2.036473 1_555
O7 Ti5 1.985213 1_555
O7 Ti6 1.986489 1_555
O7 Ti2 1.986489 1_555
O8 Ti0 1.922718 1_655
O8 Ti13 2.103320 1_655
O8 Ti12 2.103320 1_655
O9 Ti14 1.882977 1_556
O9 Ti13 1.882978 1_655
O10 Ti11 1.882977 1_554
O10 Ti8 1.882978 1_455
O11 Ti5 1.985213 1_555
O11 Ti4 1.986489 1_555
O11 Ti3 1.986489 1_555
O12 Ti6 1.966182 1_556
O12 Ti2 1.966182 1_655
O12 Ti7 2.045422 1_555
O13 Ti7 1.922718 1_455
O13 Ti8 2.103320 1_455
O13 Ti1 2.103320 1_455
O14 Ti8 2.026333 1_555
O14 Ti1 2.026333 1_555
O14 Ti11 2.026333 1_555
O15 Ti4 2.036473 1_555
O15 Ti9 2.036473 1_555
O15 Ti3 2.036473 1_555
O16 Ti6 1.982155 1_556
O16 Ti2 1.982155 1_655
O16 Ti10 1.982155 1_565
O17 Ti0 1.922718 1_556
O17 Ti12 2.103321 1_556
O17 Ti14 2.103321 1_556
O18 Ti5 1.985213 1_555
O18 Ti3 1.986489 1_555
O18 Ti9 1.986489 1_555
O19 Ti14 1.882978 1_565
O19 Ti12 1.882978 1_655
O20 Ti2 1.966182 1_655
O20 Ti10 1.966182 1_565
O20 Ti7 2.045422 1_555
O21 Ti7 1.922718 1_554
O21 Ti11 2.103321 1_554
O21 Ti1 2.103321 1_554
O22 Ti7 1.922718 1_545
O22 Ti8 2.103320 1_545
O22 Ti11 2.103320 1_545
O23 Ti6 1.966182 1_556
O23 Ti10 1.966182 1_565
O23 Ti7 2.045422 1_555
O24 Ti5 1.985213 1_555
O24 Ti4 1.986489 1_555
O24 Ti9 1.986489 1_555
O25 Ti4 1.966182 1_554
O25 Ti3 1.966182 1_455
O25 Ti0 2.045422 1_555
O26 Ti12 1.882977 1_556
O26 Ti13 1.882978 1_565
O27 Ti0 1.922718 1_565
O27 Ti13 2.103320 1_565
O27 Ti14 2.103320 1_565
O28 Ti3 1.966182 1_455
O28 Ti9 1.966182 1_545
O28 Ti0 2.045422 1_555
O29 Ti8 1.973605 1_445
O29 Ti1 1.973605 1_454
O29 Ti11 1.973605 1_544
O30 Ti13 1.973605 1_665
O30 Ti14 1.973605 1_566
O30 Ti12 1.973605 1_656
O31 Ti4 1.966182 1_554
O31 Ti9 1.966182 1_545
O31 Ti0 2.045422 1_555
