# generated using pymatgen
data_Mo4H8N2O13
_symmetry_space_group_name_H-M   'P 1'
_cell_length_a   8.42606800
_cell_length_b   8.48663972
_cell_length_c   10.41942723
_cell_angle_alpha   104.15953558
_cell_angle_beta   105.99577616
_cell_angle_gamma   109.93289073
_symmetry_Int_Tables_number   1
_chemical_formula_structural   Mo4H8N2O13
_chemical_formula_sum   'Mo8 H16 N4 O26'
_cell_volume   624.28620591
_cell_formula_units_Z   2
loop_
 _symmetry_equiv_pos_site_id
 _symmetry_equiv_pos_as_xyz
  1  'x, y, z'
loop_
 _atom_site_type_symbol
 _atom_site_label
 _atom_site_symmetry_multiplicity
 _atom_site_fract_x
 _atom_site_fract_y
 _atom_site_fract_z
 _atom_site_occupancy
  Mo  Mo0  1  0.22665700  0.53942300  0.03937700  1
  Mo  Mo1  1  0.77334300  0.46057700  0.96062300  1
  Mo  Mo2  1  0.93897700  0.11934600  0.72771600  1
  Mo  Mo3  1  0.06102300  0.88065400  0.27228400  1
  Mo  Mo4  1  0.92201700  0.50497700  0.70728900  1
  Mo  Mo5  1  0.07798300  0.49502300  0.29271100  1
  Mo  Mo6  1  0.77389600  0.84943400  0.94627200  1
  Mo  Mo7  1  0.22610400  0.15056600  0.05372800  1
  H  H0  1  0.75585200  0.12176900  0.33487000  1
  H  H1  1  0.24414800  0.87823100  0.66513000  1
  H  H2  1  0.41196500  0.08826000  0.71342000  1
  H  H3  1  0.58803500  0.91174000  0.28658000  1
  H  H4  1  0.44197600  0.90426400  0.63818800  1
  H  H5  1  0.55802400  0.09573600  0.36181200  1
  H  H6  1  0.44140200  0.95881800  0.80480200  1
  H  H7  1  0.55859800  0.04118200  0.19519800  1
  H  H8  1  0.68180800  0.55210400  0.46575100  1
  H  H9  1  0.31819200  0.44789600  0.53424900  1
  H  H10  1  0.64959500  0.74234900  0.48614300  1
  H  H11  1  0.35040500  0.25765100  0.51385700  1
  H  H12  1  0.81440000  0.72012500  0.42931000  1
  H  H13  1  0.18560000  0.27987500  0.57069000  1
  H  H14  1  0.40958900  0.40545500  0.67989200  1
  H  H15  1  0.59041100  0.59454500  0.32010800  1
  N  N0  1  0.61543900  0.04378100  0.29703700  1
  N  N1  1  0.38456100  0.95621900  0.70296300  1
  N  N2  1  0.68438800  0.65303200  0.42577800  1
  N  N3  1  0.31561200  0.34696800  0.57422200  1
  O  O0  1  0.92900700  0.01951600  0.88374800  1
  O  O1  1  0.07099300  0.98048400  0.11625200  1
  O  O2  1  0.21872700  0.30510300  0.93438100  1
  O  O3  1  0.78127300  0.69489700  0.06561900  1
  O  O4  1  0.45391000  0.66026800  0.16324800  1
  O  O5  1  0.54609000  0.33973200  0.83675200  1
  O  O6  1  0.02983200  0.66029000  0.64160900  1
  O  O7  1  0.97016800  0.33971000  0.35839100  1
  O  O8  1  0.89842800  0.35099600  0.86719900  1
  O  O9  1  0.10157200  0.64900400  0.13280100  1
  O  O10  1  0.87712000  0.64110200  0.85766600  1
  O  O11  1  0.12288000  0.35889800  0.14233400  1
  O  O12  1  0.04851800  0.00964100  0.65095000  1
  O  O13  1  0.95148200  0.99035900  0.34905000  1
  O  O14  1  0.29528000  0.01545300  0.95175800  1
  O  O15  1  0.70472000  0.98454700  0.04824200  1
  O  O16  1  0.00333400  0.31290400  0.65908200  1
  O  O17  1  0.99666600  0.68709600  0.34091800  1
  O  O18  1  0.70583300  0.98783000  0.61639700  1
  O  O19  1  0.29416700  0.01217000  0.38360300  1
  O  O20  1  0.69587200  0.38573200  0.57590100  1
  O  O21  1  0.30412800  0.61426800  0.42409900  1
  O  O22  1  0.21294100  0.62109200  0.89779300  1
  O  O23  1  0.78705900  0.37890800  0.10220700  1
  O  O24  1  0.42165800  0.27882100  0.21130700  1
  O  O25  1  0.57834200  0.72117900  0.78869300  1
loop_
_geom_bond_atom_site_label_1
_geom_bond_atom_site_label_2
_geom_bond_distance
_geom_bond_site_symmetry_2
Mo0 O4 1.742289 1_555
Mo0 O22 1.769439 1_554
Mo0 O9 1.927210 1_555
Mo0 O2 1.990110 1_554
Mo0 O11 2.161073 1_555
Mo0 O8 2.504194 1_454
Mo1 O5 1.742289 1_555
Mo1 O23 1.769439 1_556
Mo1 O8 1.927210 1_555
Mo1 O3 1.990110 1_556
Mo1 O10 2.161073 1_555
Mo1 O9 2.504194 1_656
Mo2 O12 1.728291 1_655
Mo2 O18 1.751029 1_545
Mo2 O16 1.919603 1_655
Mo2 O0 2.017070 1_555
Mo2 O8 2.329722 1_555
Mo2 O2 2.384623 1_655
Mo3 O13 1.728291 1_455
Mo3 O19 1.751029 1_565
Mo3 O17 1.919603 1_455
Mo3 O1 2.017070 1_555
Mo3 O9 2.329722 1_555
Mo3 O3 2.384623 1_455
Mo4 O6 1.731612 1_655
Mo4 O20 1.760370 1_555
Mo4 O10 1.916192 1_555
Mo4 O16 1.982293 1_655
Mo4 O8 2.365158 1_555
Mo4 O22 2.373696 1_655
Mo5 O7 1.731612 1_455
Mo5 O21 1.760370 1_555
Mo5 O11 1.916192 1_555
Mo5 O17 1.982293 1_455
Mo5 O9 2.365158 1_555
Mo5 O23 2.373696 1_455
Mo6 O15 1.727541 1_556
Mo6 O25 1.734168 1_555
Mo6 O0 1.964454 1_565
Mo6 O3 2.020184 1_556
Mo6 O1 2.309743 1_656
Mo6 O10 2.329656 1_555
Mo7 O14 1.727541 1_554
Mo7 O24 1.734168 1_555
Mo7 O1 1.964454 1_545
Mo7 O2 2.020184 1_554
Mo7 O0 2.309743 1_454
Mo7 O11 2.329656 1_555
H0 N0 1.036645 1_555
H1 N1 1.036645 1_555
H2 N1 1.034830 1_545
H3 N0 1.034830 1_565
H4 N1 1.031396 1_555
H5 N0 1.031396 1_555
H6 N1 1.028140 1_555
H7 N0 1.028140 1_555
H8 N2 1.036548 1_555
H9 N3 1.036548 1_555
H10 N2 1.037308 1_555
H11 N3 1.037308 1_555
H12 N2 1.033385 1_555
H13 N3 1.033385 1_555
H14 N3 1.034304 1_555
H15 N2 1.034304 1_555
