# generated using pymatgen
data_LiVSiO4
_symmetry_space_group_name_H-M   'P 1'
_cell_length_a   9.33677658
_cell_length_b   5.63001787
_cell_length_c   6.39466545
_cell_angle_alpha   106.04881219
_cell_angle_beta   104.20602430
_cell_angle_gamma   80.27496617
_symmetry_Int_Tables_number   1
_chemical_formula_structural   LiVSiO4
_chemical_formula_sum   'Li4 V4 Si4 O16'
_cell_volume   311.31541614
_cell_formula_units_Z   4
loop_
 _symmetry_equiv_pos_site_id
 _symmetry_equiv_pos_as_xyz
  1  'x, y, z'
loop_
 _atom_site_type_symbol
 _atom_site_label
 _atom_site_symmetry_multiplicity
 _atom_site_fract_x
 _atom_site_fract_y
 _atom_site_fract_z
 _atom_site_occupancy
  Li  Li0  1  0.13784100  0.19638500  0.38337200  1
  Li  Li1  1  0.22060200  0.69823900  0.43176100  1
  Li  Li2  1  0.77942300  0.30189000  0.56810300  1
  Li  Li3  1  0.86207100  0.80385000  0.61666700  1
  V  V0  1  0.20615700  0.70745000  0.92888800  1
  V  V1  1  0.42552500  0.21516100  0.16524300  1
  V  V2  1  0.57445000  0.78482900  0.83465700  1
  V  V3  1  0.79370600  0.29255000  0.07129100  1
  Si  Si0  1  0.09543300  0.16468300  0.82784000  1
  Si  Si1  1  0.46241800  0.32228100  0.70948000  1
  Si  Si2  1  0.53761800  0.67770100  0.29045100  1
  Si  Si3  1  0.90460400  0.83525000  0.17208500  1
  O  O0  1  0.14686000  0.36434200  0.72650500  1
  O  O1  1  0.10070600  0.86867300  0.67610700  1
  O  O2  1  0.07595700  0.75356900  0.14239500  1
  O  O3  1  0.21264100  0.11576600  0.05969100  1
  O  O4  1  0.44653600  0.12603800  0.84650000  1
  O  O5  1  0.38565100  0.61714000  0.77762400  1
  O  O6  1  0.38775800  0.22106000  0.45140800  1
  O  O7  1  0.36093600  0.61340500  0.21751600  1
  O  O8  1  0.63908300  0.38660500  0.78249100  1
  O  O9  1  0.61230200  0.77891700  0.54870300  1
  O  O10  1  0.61436300  0.38279800  0.22242900  1
  O  O11  1  0.55349000  0.87395000  0.15360000  1
  O  O12  1  0.78734800  0.88421600  0.94029800  1
  O  O13  1  0.92402900  0.24635500  0.85756200  1
  O  O14  1  0.89934300  0.13130900  0.32386700  1
  O  O15  1  0.85314900  0.63558800  0.27346700  1
loop_
_geom_bond_atom_site_label_1
_geom_bond_atom_site_label_2
_geom_bond_distance
_geom_bond_site_symmetry_2
Li0 O0 2.122464 1_555
Li0 O14 2.240610 1_455
Li0 O3 2.249652 1_555
Li0 O6 2.287192 1_555
Li1 O7 2.032175 1_555
Li1 O1 2.069289 1_555
Li1 O2 2.072423 1_555
Li1 O5 2.474380 1_555
Li2 O8 2.032961 1_555
Li2 O14 2.069035 1_555
Li2 O13 2.073067 1_555
Li2 O10 2.473110 1_555
Li3 O15 2.123262 1_555
Li3 O1 2.241508 1_655
Li3 O12 2.249140 1_555
Li3 O9 2.286131 1_555
O0 Si0 1.628447 1_555
O0 V0 2.083329 1_555
O1 Si0 1.680146 1_565
O1 V0 2.033317 1_555
O2 Si3 1.630768 1_455
O2 V0 1.980217 1_554
O3 Si0 1.673071 1_554
O3 V1 2.056194 1_555
O3 V0 2.224164 1_544
O4 Si1 1.632417 1_555
O4 V1 2.010537 1_556
O4 V2 2.076354 1_545
O5 Si1 1.676537 1_555
O5 V2 2.046463 1_555
O5 V0 2.058792 1_555
O6 Si1 1.607392 1_555
O6 V1 1.937328 1_555
O7 Si2 1.673511 1_555
O7 V1 2.174917 1_555
O7 V0 2.178987 1_554
O8 Si1 1.673396 1_555
O8 V2 2.174912 1_555
O8 V3 2.179231 1_556
O9 Si2 1.608388 1_555
O9 V2 1.936306 1_555
O10 Si2 1.676609 1_555
O10 V1 2.046469 1_555
O10 V3 2.057063 1_555
O11 Si2 1.631608 1_555
O11 V2 2.011632 1_554
O11 V1 2.076667 1_565
O12 Si3 1.673021 1_556
O12 V2 2.056309 1_555
O12 V3 2.224233 1_566
O13 Si0 1.631279 1_655
O13 V3 1.982163 1_556
O14 Si3 1.680471 1_545
O14 V3 2.032700 1_555
O15 Si3 1.628793 1_555
O15 V3 2.082986 1_555
