# generated using pymatgen
data_Li4Mn8O13F3
_symmetry_space_group_name_H-M   'P 1'
_cell_length_a   5.99201100
_cell_length_b   6.08147820
_cell_length_c   10.33563587
_cell_angle_alpha   74.03737761
_cell_angle_beta   76.12369595
_cell_angle_gamma   60.50778426
_symmetry_Int_Tables_number   1
_chemical_formula_structural   Li4Mn8O13F3
_chemical_formula_sum   'Li4 Mn8 O13 F3'
_cell_volume   312.72555002
_cell_formula_units_Z   1
loop_
 _symmetry_equiv_pos_site_id
 _symmetry_equiv_pos_as_xyz
  1  'x, y, z'
loop_
 _atom_site_type_symbol
 _atom_site_label
 _atom_site_symmetry_multiplicity
 _atom_site_fract_x
 _atom_site_fract_y
 _atom_site_fract_z
 _atom_site_occupancy
  Li  Li0  1  0.78322200  0.83635800  0.06095400  1
  Li  Li1  1  0.72980600  0.65774500  0.44322200  1
  Li  Li2  1  0.26482600  0.34120300  0.55747800  1
  Li  Li3  1  0.23118700  0.15907100  0.94423300  1
  Mn  Mn0  1  0.24342700  0.26000300  0.24695500  1
  Mn  Mn1  1  0.99991300  0.99402000  0.50056300  1
  Mn  Mn2  1  0.24386200  0.74562400  0.24592300  1
  Mn  Mn3  1  0.48511700  0.51109100  0.00275200  1
  Mn  Mn4  1  0.24779700  0.75150500  0.75039400  1
  Mn  Mn5  1  0.74854800  0.24888000  0.25002100  1
  Mn  Mn6  1  0.74794400  0.25142600  0.75146300  1
  Mn  Mn7  1  0.74798500  0.75026700  0.75123200  1
  O  O0  1  0.11997700  0.65029700  0.13407400  1
  O  O1  1  0.58631200  0.17794300  0.13434700  1
  O  O2  1  0.14157800  0.09819100  0.14886700  1
  O  O3  1  0.08711900  0.10456600  0.63452700  1
  O  O4  1  0.57941500  0.61953400  0.13564100  1
  O  O5  1  0.08648200  0.67316600  0.63492900  1
  O  O6  1  0.35622400  0.40107700  0.35333700  1
  O  O7  1  0.65411900  0.59579700  0.64620800  1
  O  O8  1  0.91205500  0.31797000  0.36788300  1
  O  O9  1  0.91917700  0.87854600  0.36666900  1
  O  O10  1  0.40703700  0.39861900  0.86582300  1
  O  O11  1  0.84214700  0.90631000  0.85471300  1
  O  O12  1  0.40953000  0.83008700  0.86468100  1
  F  F0  1  0.39224000  0.84460500  0.37259800  1
  F  F1  1  0.60292400  0.13660900  0.61338900  1
  F  F2  1  0.89338100  0.36651500  0.88683800  1
loop_
_geom_bond_atom_site_label_1
_geom_bond_atom_site_label_2
_geom_bond_distance
_geom_bond_site_symmetry_2
Li0 O0 1.983981 1_655
Li0 O11 2.034112 1_554
Li0 O1 2.075334 1_565
Li0 O4 2.097494 1_555
Li1 O7 2.006561 1_555
Li1 O9 2.049864 1_555
Li1 O8 2.079410 1_555
Li2 O6 2.025793 1_555
Li2 O5 2.052515 1_555
Li2 O3 2.076240 1_555
Li3 O2 2.029538 1_556
Li3 O12 2.049167 1_545
Li3 O10 2.083694 1_555
Mn0 O2 1.950742 1_555
Mn0 O6 1.961650 1_555
Mn0 O1 1.996962 1_555
Mn0 O8 1.997942 1_455
Mn0 O0 2.168927 1_555
Mn1 O9 1.957668 1_555
Mn1 O3 1.961388 1_665
Mn1 O5 1.965615 1_655
Mn1 O8 1.969288 1_565
Mn2 O0 1.851346 1_555
Mn2 O6 1.940706 1_555
Mn2 O4 1.947641 1_555
Mn2 O2 1.948640 1_565
Mn2 O9 1.959020 1_455
Mn3 O10 1.963360 1_554
Mn3 O4 1.969273 1_555
Mn3 O12 1.981737 1_554
Mn3 O1 1.998179 1_555
Mn3 O0 2.174813 1_555
Mn4 O12 1.969370 1_555
Mn4 O5 1.976093 1_555
Mn4 O10 2.015182 1_555
Mn4 O3 2.018570 1_565
Mn4 O11 2.237206 1_455
Mn4 O7 2.239923 1_555
Mn5 O1 1.953093 1_555
Mn5 O8 1.969693 1_555
Mn5 O4 2.089357 1_555
Mn5 O9 2.098032 1_545
Mn5 O2 2.167969 1_655
Mn5 O6 2.172662 1_555
Mn6 O11 1.937267 1_545
Mn6 O7 1.940752 1_555
Mn6 O10 1.998631 1_555
Mn6 O3 2.004284 1_655
Mn7 O11 1.933314 1_555
Mn7 O7 1.936765 1_555
Mn7 O12 1.981563 1_555
Mn7 O5 1.995717 1_655
F0 Li1 1.975919 1_555
F0 Mn2 2.094220 1_555
F0 Mn1 2.273272 1_455
F0 Mn0 2.323018 1_565
F1 Li2 1.915843 1_555
F1 Mn1 2.228221 1_545
F1 Mn6 2.240431 1_555
F1 Mn7 2.246694 1_545
F2 Li3 1.921098 1_655
F2 Mn6 2.220607 1_555
F2 Mn7 2.225896 1_555
F2 Mn3 2.290997 1_556
