# generated using pymatgen
data_Ta2CrNO5
_symmetry_space_group_name_H-M   'P 1'
_cell_length_a   4.77224100
_cell_length_b   10.36250168
_cell_length_c   9.53769326
_cell_angle_alpha   62.83094986
_cell_angle_beta   90.00007175
_cell_angle_gamma   90.00031004
_symmetry_Int_Tables_number   1
_chemical_formula_structural   Ta2CrNO5
_chemical_formula_sum   'Ta8 Cr4 N4 O20'
_cell_volume   419.61976728
_cell_formula_units_Z   4
loop_
 _symmetry_equiv_pos_site_id
 _symmetry_equiv_pos_as_xyz
  1  'x, y, z'
loop_
 _atom_site_type_symbol
 _atom_site_label
 _atom_site_symmetry_multiplicity
 _atom_site_fract_x
 _atom_site_fract_y
 _atom_site_fract_z
 _atom_site_occupancy
  Ta  Ta0  1  0.99091100  0.33460800  0.84118600  1
  Ta  Ta1  1  0.99090900  0.33461000  0.34118300  1
  Ta  Ta2  1  0.50908800  0.83461300  0.84118500  1
  Ta  Ta3  1  0.50909500  0.83461300  0.34118300  1
  Ta  Ta4  1  0.99164500  0.67694500  0.15892800  1
  Ta  Ta5  1  0.99165200  0.67694600  0.65893600  1
  Ta  Ta6  1  0.50834500  0.17695000  0.15893000  1
  Ta  Ta7  1  0.50835100  0.17694800  0.65893100  1
  Cr  Cr0  1  0.00071300  0.99855300  0.00029200  1
  Cr  Cr1  1  0.49932500  0.49862400  0.50027200  1
  Cr  Cr2  1  0.00068200  0.99868200  0.50019200  1
  Cr  Cr3  1  0.49935000  0.49868000  0.00018200  1
  N  N0  1  0.69786100  0.33122600  0.98538500  1
  N  N1  1  0.69785100  0.33122300  0.48538300  1
  N  N2  1  0.80214700  0.83122500  0.98538100  1
  N  N3  1  0.80214700  0.83122500  0.48538300  1
  O  O0  1  0.19785700  0.49589100  0.84847100  1
  O  O1  1  0.19787300  0.49589100  0.34847300  1
  O  O2  1  0.30212700  0.99589000  0.84847300  1
  O  O3  1  0.30213500  0.99588900  0.34847500  1
  O  O4  1  0.19529500  0.82882100  0.68331400  1
  O  O5  1  0.19529200  0.82882600  0.18331500  1
  O  O6  1  0.30470000  0.32882200  0.18331300  1
  O  O7  1  0.30471000  0.32882600  0.68331100  1
  O  O8  1  0.19979000  0.16826300  0.01283100  1
  O  O9  1  0.19979900  0.16826400  0.51283100  1
  O  O10  1  0.30019700  0.66826600  0.01282900  1
  O  O11  1  0.30020400  0.66826300  0.51283200  1
  O  O12  1  0.68980600  0.99858300  0.65317500  1
  O  O13  1  0.68981800  0.99858400  0.15318000  1
  O  O14  1  0.81016800  0.49857700  0.15317600  1
  O  O15  1  0.81016000  0.49858000  0.65317700  1
  O  O16  1  0.69326000  0.66702400  0.81646800  1
  O  O17  1  0.69325100  0.66702100  0.31647300  1
  O  O18  1  0.80674000  0.16702300  0.31647100  1
  O  O19  1  0.80674700  0.16702100  0.81647400  1
loop_
_geom_bond_atom_site_label_1
_geom_bond_atom_site_label_2
_geom_bond_distance
_geom_bond_site_symmetry_2
Cr0 N2 2.037130 1_454
Cr0 O19 2.045265 1_464
Cr0 O5 2.049150 1_555
Cr0 O8 2.049800 1_565
Cr0 O2 2.050128 1_554
Cr0 O13 2.080395 1_455
Cr1 N1 2.037622 1_555
Cr1 O17 2.044747 1_555
Cr1 O11 2.049346 1_555
Cr1 O7 2.049636 1_555
Cr1 O1 2.050360 1_555
Cr1 O15 2.080053 1_555
Cr2 N3 2.037796 1_455
Cr2 O18 2.044172 1_465
Cr2 O9 2.049145 1_565
Cr2 O3 2.050018 1_555
Cr2 O4 2.050309 1_555
Cr2 O12 2.080534 1_455
Cr3 N0 2.037671 1_554
Cr3 O16 2.044080 1_554
Cr3 O10 2.049305 1_555
Cr3 O0 2.050095 1_554
Cr3 O6 2.050408 1_555
Cr3 O14 2.080394 1_555
N0 Ta6 1.922738 1_556
N0 Ta0 1.950526 1_555
N1 Ta7 1.922712 1_555
N1 Ta1 1.950545 1_555
N2 Ta4 1.922731 1_556
N2 Ta2 1.950516 1_555
N3 Ta5 1.922770 1_555
N3 Ta3 1.950519 1_555
O0 Ta0 1.969628 1_455
O0 Ta5 2.158466 1_455
O1 Ta1 1.969673 1_455
O1 Ta4 2.158553 1_455
O2 Ta2 1.969631 1_555
O2 Ta7 2.158545 1_565
O3 Ta3 1.969636 1_555
O3 Ta6 2.158542 1_565
O4 Ta5 1.951805 1_455
O4 Ta2 2.143789 1_555
O5 Ta4 1.951910 1_455
O5 Ta3 2.143783 1_555
O6 Ta6 1.951815 1_555
O6 Ta1 2.143764 1_455
O7 Ta7 1.951845 1_555
O7 Ta0 2.143803 1_455
O8 Ta0 2.016921 1_454
O8 Ta6 2.057328 1_555
O9 Ta1 2.016964 1_455
O9 Ta7 2.057313 1_555
O10 Ta2 2.016948 1_554
O10 Ta4 2.057292 1_455
O11 Ta3 2.016983 1_555
O11 Ta5 2.057340 1_455
O12 Ta2 2.015898 1_555
O12 Ta7 2.064413 1_565
O13 Ta3 2.015879 1_555
O13 Ta6 2.064434 1_565
O14 Ta1 2.015923 1_555
O14 Ta4 2.064461 1_555
O15 Ta0 2.015976 1_555
O15 Ta5 2.064501 1_555
O16 Ta5 2.038321 1_555
O16 Ta2 2.053748 1_555
O17 Ta4 2.038410 1_555
O17 Ta3 2.053710 1_555
O18 Ta6 2.038375 1_555
O18 Ta1 2.053692 1_555
O19 Ta7 2.038392 1_555
O19 Ta0 2.053681 1_555
