# generated using pymatgen
data_Li5V3P8O29
_symmetry_space_group_name_H-M   'P 1'
_cell_length_a   9.77597600
_cell_length_b   9.78511963
_cell_length_c   14.09332431
_cell_angle_alpha   89.79001539
_cell_angle_beta   89.60093575
_cell_angle_gamma   60.39273520
_symmetry_Int_Tables_number   1
_chemical_formula_structural   Li5V3P8O29
_chemical_formula_sum   'Li10 V6 P16 O58'
_cell_volume   1172.10071443
_cell_formula_units_Z   2
loop_
 _symmetry_equiv_pos_site_id
 _symmetry_equiv_pos_as_xyz
  1  'x, y, z'
loop_
 _atom_site_type_symbol
 _atom_site_label
 _atom_site_symmetry_multiplicity
 _atom_site_fract_x
 _atom_site_fract_y
 _atom_site_fract_z
 _atom_site_occupancy
  Li  Li0  1  0.32518900  0.33497000  0.39201400  1
  Li  Li1  1  0.22769500  0.68742100  0.05799900  1
  Li  Li2  1  0.68328600  0.09073700  0.06192800  1
  Li  Li3  1  0.32653900  0.76844200  0.44331800  1
  Li  Li4  1  0.67828100  0.22793000  0.56324900  1
  Li  Li5  1  0.31159200  0.91747300  0.93448200  1
  Li  Li6  1  0.77207600  0.32186200  0.94149200  1
  Li  Li7  1  0.90038400  0.33330900  0.44131800  1
  Li  Li8  1  0.90375700  0.77012600  0.93860100  1
  Li  Li9  1  0.01003000  0.94021300  0.51019600  1
  V  V0  1  0.43406600  0.56894200  0.25176500  1
  V  V1  1  0.56644000  0.43358500  0.75152200  1
  V  V2  1  0.43104100  0.00404200  0.74633100  1
  V  V3  1  0.57076500  0.99316400  0.25217600  1
  V  V4  1  0.00085100  0.43097500  0.24903900  1
  V  V5  1  0.00127000  0.56534400  0.74287000  1
  P  P0  1  0.08409600  0.23113600  0.83787900  1
  P  P1  1  0.22141200  0.08597300  0.33792400  1
  P  P2  1  0.08454100  0.69330700  0.34454100  1
  P  P3  1  0.33662200  0.33566900  0.13091300  1
  P  P4  1  0.33447000  0.33280200  0.62922200  1
  P  P5  1  0.22871500  0.67901600  0.83927400  1
  P  P6  1  0.31620000  0.77125300  0.65812100  1
  P  P7  1  0.67969500  0.08684400  0.84483300  1
  P  P8  1  0.31616900  0.91693600  0.15315500  1
  P  P9  1  0.67962700  0.22746700  0.34075500  1
  P  P10  1  0.76913600  0.32137000  0.15972300  1
  P  P11  1  0.67129900  0.65991800  0.37126700  1
  P  P12  1  0.66814500  0.66853000  0.86868800  1
  P  P13  1  0.91390800  0.31292700  0.65470600  1
  P  P14  1  0.77935700  0.91662500  0.66135300  1
  P  P15  1  0.91712900  0.76687900  0.15897500  1
  O  O0  1  0.98447700  0.23717900  0.56216600  1
  O  O1  1  0.07879900  0.25889500  0.34092700  1
  O  O2  1  0.25551300  0.99204700  0.06023900  1
  O  O3  1  0.25187000  0.08717600  0.83873800  1
  O  O4  1  0.09128200  0.38412200  0.81849300  1
  O  O5  1  0.18779200  0.33958900  0.18285300  1
  O  O6  1  0.09004600  0.53086000  0.33408700  1
  O  O7  1  0.00293900  0.74883100  0.06702600  1
  O  O8  1  0.08040600  0.66073800  0.83987000  1
  O  O9  1  0.32472200  0.19252600  0.67165600  1
  O  O10  1  0.37207600  0.10052700  0.33178500  1
  O  O11  1  0.18724400  0.48578800  0.67318300  1
  O  O12  1  0.32043200  0.35090900  0.02651500  1
  O  O13  1  0.32794700  0.33976800  0.52323600  1
  O  O14  1  0.33550300  0.48595100  0.17407600  1
  O  O15  1  0.52099000  0.09681900  0.82291900  1
  O  O16  1  0.48632400  0.18582700  0.16686000  1
  O  O17  1  0.25660600  0.66077100  0.34362000  1
  O  O18  1  0.20562400  0.78868500  0.74891000  1
  O  O19  1  0.22835800  0.78756200  0.56876500  1
  O  O20  1  0.24138700  0.75694500  0.92815600  1
  O  O21  1  0.37798800  0.51876200  0.82125400  1
  O  O22  1  0.48911300  0.32518500  0.66512700  1
  O  O23  1  0.33413900  0.75138100  0.16132700  1
  O  O24  1  0.51491400  0.37462900  0.32911100  1
  O  O25  1  0.65688900  0.08220100  0.33513600  1
  O  O26  1  0.19844900  0.01975000  0.23788200  1
  O  O27  1  0.21004300  0.98978600  0.41651000  1
  O  O28  1  0.80466000  0.00361200  0.58176200  1
  O  O29  1  0.34746500  0.91064000  0.66982000  1
  O  O30  1  0.47006200  0.61603700  0.67004800  1
  O  O31  1  0.66103800  0.25349800  0.84340100  1
  O  O32  1  0.51738900  0.66344000  0.33035000  1
  O  O33  1  0.62186400  0.48099900  0.17582800  1
  O  O34  1  0.76241500  0.24200700  0.07049900  1
  O  O35  1  0.76215500  0.23167800  0.42912500  1
  O  O36  1  0.78754800  0.20961400  0.24940300  1
  O  O37  1  0.74424800  0.33880300  0.66482500  1
  O  O38  1  0.51653800  0.81572800  0.83163500  1
  O  O39  1  0.47486200  0.90835800  0.18071800  1
  O  O40  1  0.67001500  0.51536800  0.83078800  1
  O  O41  1  0.68322600  0.66375900  0.97404300  1
  O  O42  1  0.67246800  0.64297100  0.47594000  1
  O  O43  1  0.81813200  0.50640200  0.32787300  1
  O  O44  1  0.62052400  0.92238200  0.66607600  1
  O  O45  1  0.67358800  0.80344400  0.32800900  1
  O  O46  1  0.91864000  0.33944200  0.16621800  1
  O  O47  1  0.00862100  0.20312600  0.74178800  1
  O  O48  1  0.98761300  0.24136600  0.92156700  1
  O  O49  1  0.91000400  0.47281900  0.67054900  1
  O  O50  1  0.81616500  0.67008300  0.82150600  1
  O  O51  1  0.90459500  0.61764200  0.18207500  1
  O  O52  1  0.75176900  0.91380200  0.16008600  1
  O  O53  1  0.75189900  0.00042200  0.93556400  1
  O  O54  1  0.79861800  0.99219500  0.75965300  1
  O  O55  1  0.91748600  0.74395900  0.66540900  1
  O  O56  1  0.99352500  0.79451500  0.42507300  1
  O  O57  1  0.01254100  0.78593400  0.24435300  1
loop_
_geom_bond_atom_site_label_1
_geom_bond_atom_site_label_2
_geom_bond_distance
_geom_bond_site_symmetry_2
Li0 O13 1.850844 1_555
Li0 O24 2.249971 1_555
Li0 O10 2.272252 1_555
Li0 O6 2.299069 1_555
Li1 O7 1.974097 1_555
Li1 O20 1.976555 1_554
Li1 O23 2.065540 1_555
Li1 O14 2.370821 1_555
Li2 O53 1.952346 1_554
Li2 O34 1.984435 1_555
Li2 O52 2.051699 1_545
Li2 O16 2.227195 1_555
Li3 O27 1.921842 1_555
Li3 O19 1.970609 1_555
Li3 O17 2.070653 1_555
Li3 O32 2.268894 1_555
Li4 O28 1.932127 1_555
Li4 O35 2.062604 1_555
Li4 O37 2.087532 1_555
Li4 O22 2.149686 1_555
Li5 O2 1.890730 1_556
Li5 O3 1.988887 1_565
Li5 O20 2.003366 1_555
Li5 O38 2.259528 1_555
Li6 O48 1.868829 1_555
Li6 O34 1.996304 1_556
Li6 O31 2.069327 1_555
Li6 O40 2.268973 1_555
Li7 O0 1.924845 1_555
Li7 O35 2.043754 1_555
Li7 O1 2.071813 1_655
Li7 O43 2.173445 1_555
Li8 O53 1.994606 1_565
Li8 O7 2.020261 1_656
Li8 O8 2.053060 1_655
Li8 O50 2.296675 1_555
Li9 O56 1.933987 1_455
Li9 O28 2.044175 1_465
Li9 O19 2.081667 1_555
O0 P13 1.488469 1_555
O1 P1 1.573954 1_555
O1 V4 1.955224 1_555
O2 P8 1.476382 1_555
O3 P0 1.546544 1_555
O3 V2 1.998466 1_555
O4 P0 1.556019 1_555
O4 V5 1.874058 1_555
O5 P3 1.607618 1_555
O5 V4 1.837708 1_555
O6 P2 1.571112 1_555
O6 V4 2.004379 1_555
O7 P15 1.501440 1_455
O8 P5 1.546032 1_555
O8 V5 2.018982 1_555
O9 P4 1.540534 1_555
O9 V2 1.922583 1_555
O10 P1 1.550020 1_555
O10 V3 2.024171 1_545
O11 P4 1.600552 1_555
O11 V5 1.859633 1_555
O12 P3 1.479990 1_555
O13 P4 1.495367 1_555
O14 P3 1.588452 1_555
O14 V0 1.892373 1_555
O15 P7 1.539113 1_555
O15 V2 1.889884 1_555
O16 P3 1.559764 1_555
O16 V3 2.034882 1_545
O17 P2 1.549699 1_555
O17 V0 1.982387 1_555
O18 P5 1.605943 1_555
O18 P6 1.623249 1_555
O19 P6 1.492306 1_555
O20 P5 1.506134 1_555
O21 P5 1.545844 1_555
O21 V1 1.875661 1_555
O22 P4 1.564018 1_555
O22 V1 1.998418 1_555
O23 P8 1.544719 1_555
O23 V0 2.010776 1_555
O24 P9 1.550538 1_555
O24 V0 1.984955 1_555
O25 P9 1.545790 1_555
O25 V3 1.892328 1_545
O26 P8 1.614938 1_545
O26 P1 1.616486 1_555
O27 P1 1.489584 1_565
O28 P14 1.497026 1_545
O29 P6 1.547626 1_555
O29 V2 1.850112 1_565
O30 P6 1.530298 1_555
O30 V1 1.931702 1_555
O31 P7 1.548829 1_555
O31 V1 2.006715 1_555
O32 P11 1.599471 1_555
O32 V0 1.873357 1_555
O33 P10 1.529739 1_555
O33 V0 1.916959 1_555
O34 P10 1.499109 1_555
O35 P9 1.500307 1_555
O36 P9 1.612998 1_555
O36 P10 1.619939 1_555
O37 P13 1.554794 1_555
O37 V1 1.939160 1_555
O38 P12 1.562002 1_555
O38 V2 2.003823 1_565
O39 P8 1.563396 1_555
O39 V3 1.835719 1_555
O40 P12 1.584432 1_555
O40 V1 1.933026 1_555
O41 P12 1.491407 1_555
O42 P11 1.483370 1_555
O43 P11 1.598404 1_555
O43 V4 1.909325 1_655
O44 P14 1.526691 1_555
O44 V2 1.965705 1_565
O45 P11 1.539205 1_555
O45 V3 1.937913 1_555
O46 P10 1.559851 1_555
O46 V4 1.882165 1_655
O47 P13 1.594073 1_455
O47 P0 1.634002 1_555
O48 P0 1.477442 1_655
O49 P13 1.562884 1_555
O49 V5 1.863384 1_655
O50 P12 1.595170 1_555
O50 V5 1.923803 1_655
O51 P15 1.557642 1_555
O51 V4 1.847659 1_655
O52 P15 1.543944 1_555
O52 V3 2.009028 1_555
O53 P7 1.504420 1_555
O54 P7 1.604768 1_565
O54 P14 1.627956 1_555
O55 P14 1.557988 1_555
O55 V5 1.871176 1_655
O56 P2 1.477862 1_655
O57 P15 1.594283 1_455
O57 P2 1.638510 1_555
