# generated using pymatgen
data_Li2MnV3O8
_symmetry_space_group_name_H-M   'P 1'
_cell_length_a   8.19129400
_cell_length_b   8.52424700
_cell_length_c   8.70641600
_cell_angle_alpha   90.00000000
_cell_angle_beta   90.00000000
_cell_angle_gamma   90.00000000
_symmetry_Int_Tables_number   1
_chemical_formula_structural   Li2MnV3O8
_chemical_formula_sum   'Li8 Mn4 V12 O32'
_cell_volume   607.92213048
_cell_formula_units_Z   4
loop_
 _symmetry_equiv_pos_site_id
 _symmetry_equiv_pos_as_xyz
  1  'x, y, z'
loop_
 _atom_site_type_symbol
 _atom_site_label
 _atom_site_symmetry_multiplicity
 _atom_site_fract_x
 _atom_site_fract_y
 _atom_site_fract_z
 _atom_site_occupancy
  Li  Li0  1  0.74563100  0.74706200  0.74762800  1
  Li  Li1  1  0.50460100  0.50207300  0.50044200  1
  Li  Li2  1  0.49539900  0.00207300  0.99955800  1
  Li  Li3  1  0.25436900  0.24706200  0.75237200  1
  Li  Li4  1  0.24563100  0.75293800  0.25237200  1
  Li  Li5  1  0.00460100  0.99792700  0.49955800  1
  Li  Li6  1  0.99539900  0.49792700  0.00044200  1
  Li  Li7  1  0.75436900  0.25293800  0.24762800  1
  Mn  Mn0  1  0.62678800  0.37453900  0.87689000  1
  Mn  Mn1  1  0.37321200  0.87453900  0.62311000  1
  Mn  Mn2  1  0.12678800  0.12546100  0.12311000  1
  Mn  Mn3  1  0.87321200  0.62546100  0.37689000  1
  V  V0  1  0.62747300  0.12348400  0.62041700  1
  V  V1  1  0.62417800  0.87607900  0.36879900  1
  V  V2  1  0.62322700  0.62731400  0.12278400  1
  V  V3  1  0.37677300  0.12731400  0.37721600  1
  V  V4  1  0.37582200  0.37607900  0.13120100  1
  V  V5  1  0.37252700  0.62348400  0.87958300  1
  V  V6  1  0.12747300  0.37651600  0.37958300  1
  V  V7  1  0.12417800  0.62392100  0.63120100  1
  V  V8  1  0.12322700  0.87268600  0.87721600  1
  V  V9  1  0.87677300  0.37268600  0.62278400  1
  V  V10  1  0.87582200  0.12392100  0.86879900  1
  V  V11  1  0.87252700  0.87651600  0.12041700  1
  O  O0  1  0.64792000  0.36168500  0.63104000  1
  O  O1  1  0.64522200  0.13050900  0.86264700  1
  O  O2  1  0.62718200  0.86169600  0.13927300  1
  O  O3  1  0.61154300  0.88699400  0.60401800  1
  O  O4  1  0.63546200  0.64199900  0.35965100  1
  O  O5  1  0.61081500  0.11306300  0.37859000  1
  O  O6  1  0.60822500  0.39174600  0.12219500  1
  O  O7  1  0.61477700  0.61697000  0.89566100  1
  O  O8  1  0.38522300  0.11697000  0.60433900  1
  O  O9  1  0.39177500  0.89174600  0.37780500  1
  O  O10  1  0.38918500  0.61306300  0.12141000  1
  O  O11  1  0.36453800  0.14199900  0.14034900  1
  O  O12  1  0.38845700  0.38699400  0.89598200  1
  O  O13  1  0.37281800  0.36169600  0.36072700  1
  O  O14  1  0.35477800  0.63050900  0.63735300  1
  O  O15  1  0.35208000  0.86168500  0.86896000  1
  O  O16  1  0.14792000  0.13831500  0.36896000  1
  O  O17  1  0.14522200  0.36949100  0.13735300  1
  O  O18  1  0.12718200  0.63830400  0.86072700  1
  O  O19  1  0.11154300  0.61300600  0.39598200  1
  O  O20  1  0.13546200  0.85800100  0.64034900  1
  O  O21  1  0.11081500  0.38693700  0.62141000  1
  O  O22  1  0.10822500  0.10825400  0.87780500  1
  O  O23  1  0.11477700  0.88303000  0.10433900  1
  O  O24  1  0.88522300  0.38303000  0.39566100  1
  O  O25  1  0.89177500  0.60825400  0.62219500  1
  O  O26  1  0.88918500  0.88693700  0.87859000  1
  O  O27  1  0.86453800  0.35800100  0.85965100  1
  O  O28  1  0.88845700  0.11300600  0.10401800  1
  O  O29  1  0.87281800  0.13830400  0.63927300  1
  O  O30  1  0.85477800  0.86949100  0.36264700  1
  O  O31  1  0.85208000  0.63831500  0.13104000  1
loop_
_geom_bond_atom_site_label_1
_geom_bond_atom_site_label_2
_geom_bond_distance
_geom_bond_site_symmetry_2
Li0 O25 2.006423 1_555
Li0 O7 2.009908 1_555
Li0 O26 2.025944 1_555
Li0 O3 2.047562 1_555
Li1 O4 2.018477 1_555
Li1 O13 2.019110 1_555
Li1 O0 2.025625 1_555
Li1 O14 2.031166 1_555
Li2 O11 2.018477 1_556
Li2 O2 2.019110 1_546
Li2 O15 2.025625 1_545
Li2 O1 2.031166 1_555
Li3 O22 2.006423 1_555
Li3 O8 2.009908 1_555
Li3 O21 2.025944 1_555
Li3 O12 2.047562 1_555
Li4 O9 2.006423 1_555
Li4 O23 2.009908 1_555
Li4 O10 2.025944 1_555
Li4 O19 2.047562 1_555
Li5 O20 2.018477 1_555
Li5 O29 2.019110 1_465
Li5 O16 2.025625 1_565
Li5 O30 2.031166 1_455
Li6 O27 2.018477 1_554
Li6 O18 2.019110 1_654
Li6 O31 2.025625 1_555
Li6 O17 2.031166 1_655
Li7 O6 2.006423 1_555
Li7 O24 2.009908 1_555
Li7 O5 2.025944 1_555
Li7 O28 2.047562 1_555
Mn0 O27 1.958336 1_555
Mn0 O12 1.962177 1_555
Mn0 O7 2.075327 1_555
Mn0 O1 2.089328 1_555
Mn0 O6 2.146151 1_556
Mn0 O0 2.150254 1_555
Mn1 O20 1.958336 1_555
Mn1 O3 1.962177 1_555
Mn1 O8 2.075327 1_565
Mn1 O14 2.089328 1_555
Mn1 O9 2.146151 1_555
Mn1 O15 2.150254 1_555
Mn2 O11 1.958336 1_555
Mn2 O28 1.962177 1_455
Mn2 O23 2.075327 1_545
Mn2 O17 2.089328 1_555
Mn2 O22 2.146151 1_554
Mn2 O16 2.150254 1_555
Mn3 O4 1.958336 1_555
Mn3 O19 1.962177 1_655
Mn3 O24 2.075327 1_555
Mn3 O30 2.089328 1_555
Mn3 O25 2.146151 1_555
Mn3 O31 2.150254 1_555
O0 V9 1.878322 1_555
O0 V0 2.039478 1_555
O1 V10 1.890506 1_555
O1 V0 2.114809 1_555
O2 V1 2.002258 1_555
O2 V2 2.003343 1_555
O2 V11 2.020341 1_555
O3 V0 2.025157 1_565
O3 V1 2.052638 1_555
O4 V1 1.999083 1_555
O4 V2 2.068488 1_555
O5 V3 1.920989 1_555
O5 V1 2.024869 1_545
O5 V0 2.111733 1_555
O6 V4 1.909970 1_555
O6 V2 2.011803 1_555
O7 V2 1.980602 1_556
O7 V5 1.990047 1_555
O8 V3 1.980602 1_555
O8 V0 1.990047 1_555
O9 V1 1.909970 1_555
O9 V3 2.011803 1_565
O10 V2 1.920989 1_555
O10 V4 2.024869 1_555
O10 V5 2.111733 1_554
O11 V4 1.999083 1_555
O11 V3 2.068488 1_555
O12 V5 2.025157 1_555
O12 V4 2.052638 1_556
O13 V4 2.002258 1_555
O13 V3 2.003343 1_555
O13 V6 2.020341 1_555
O14 V7 1.890506 1_555
O14 V5 2.114809 1_555
O15 V8 1.878322 1_555
O15 V5 2.039478 1_555
O16 V3 1.878322 1_555
O16 V6 2.039478 1_555
O17 V4 1.890506 1_555
O17 V6 2.114809 1_555
O18 V7 2.002258 1_555
O18 V8 2.003343 1_555
O18 V5 2.020341 1_555
O19 V6 2.025157 1_555
O19 V7 2.052638 1_555
O20 V7 1.999083 1_555
O20 V8 2.068488 1_555
O21 V9 1.920989 1_455
O21 V7 2.024869 1_555
O21 V6 2.111733 1_555
O22 V10 1.909970 1_455
O22 V8 2.011803 1_545
O23 V8 1.980602 1_554
O23 V11 1.990047 1_455
O24 V9 1.980602 1_555
O24 V6 1.990047 1_655
O25 V7 1.909970 1_655
O25 V9 2.011803 1_555
O26 V8 1.920989 1_655
O26 V10 2.024869 1_565
O26 V11 2.111733 1_556
O27 V10 1.999083 1_555
O27 V9 2.068488 1_555
O28 V11 2.025157 1_545
O28 V10 2.052638 1_554
O29 V10 2.002258 1_555
O29 V9 2.003343 1_555
O29 V0 2.020341 1_555
O30 V1 1.890506 1_555
O30 V11 2.114809 1_555
O31 V2 1.878322 1_555
O31 V11 2.039478 1_555
