# generated using pymatgen
data_Bi3O4F
_symmetry_space_group_name_H-M   'P 1'
_cell_length_a   9.23033185
_cell_length_b   9.23033185
_cell_length_c   5.83210803
_cell_angle_alpha   81.62377079
_cell_angle_beta   81.62377079
_cell_angle_gamma   36.68697191
_symmetry_Int_Tables_number   1
_chemical_formula_structural   Bi3O4F
_chemical_formula_sum   'Bi6 O8 F2'
_cell_volume   293.34642662
_cell_formula_units_Z   2
loop_
 _symmetry_equiv_pos_site_id
 _symmetry_equiv_pos_as_xyz
  1  'x, y, z'
loop_
 _atom_site_type_symbol
 _atom_site_label
 _atom_site_symmetry_multiplicity
 _atom_site_fract_x
 _atom_site_fract_y
 _atom_site_fract_z
 _atom_site_occupancy
  Bi  Bi0  1  0.36028300  0.95159900  0.47340200  1
  Bi  Bi1  1  0.70378900  0.29621100  0.50000000  1
  Bi  Bi2  1  0.94499500  0.36637300  0.97207900  1
  Bi  Bi3  1  0.29155800  0.70844200  0.00000000  1
  Bi  Bi4  1  0.04840100  0.63971700  0.52659800  1
  Bi  Bi5  1  0.63362700  0.05500500  0.02792100  1
  O  O0  1  0.50400500  0.64084100  0.65247700  1
  O  O1  1  0.15316800  0.04832100  0.19127200  1
  O  O2  1  0.95167900  0.84683200  0.80872800  1
  O  O3  1  0.63700800  0.50726600  0.15343800  1
  O  O4  1  0.35915900  0.49599500  0.34752300  1
  O  O5  1  0.04480200  0.15413700  0.69437600  1
  O  O6  1  0.84586300  0.95519800  0.30562400  1
  O  O7  1  0.49273400  0.36299200  0.84656200  1
  F  F0  1  0.00650300  0.49453500  0.24905900  1
  F  F1  1  0.50546500  0.99349700  0.75094100  1
loop_
_geom_bond_atom_site_label_1
_geom_bond_atom_site_label_2
_geom_bond_distance
_geom_bond_site_symmetry_2
Bi0 O0 2.122802 1_555
Bi0 O5 2.124385 1_565
Bi0 O1 2.215925 1_565
Bi0 F1 2.492163 1_555
Bi1 O0 2.291002 1_555
Bi1 O4 2.291002 1_555
Bi1 O7 2.355880 1_555
Bi1 O3 2.355880 1_555
Bi1 O5 2.626560 1_655
Bi1 O6 2.626560 1_545
Bi2 O3 2.118240 1_556
Bi2 O1 2.126015 1_656
Bi2 O5 2.214655 1_655
Bi2 F0 2.496461 1_656
Bi3 O3 2.295031 1_555
Bi3 O7 2.295031 1_554
Bi3 O0 2.364460 1_554
Bi3 O4 2.364460 1_555
Bi3 O1 2.625902 1_565
Bi3 O2 2.625902 1_454
Bi4 O4 2.122802 1_555
Bi4 O6 2.124385 1_455
Bi4 O2 2.215925 1_455
Bi4 F0 2.492163 1_555
Bi5 O7 2.118240 1_554
Bi5 O2 2.126015 1_544
Bi5 O6 2.214655 1_545
Bi5 F1 2.496461 1_544
