# generated using pymatgen
data_LiBiB2O5
_symmetry_space_group_name_H-M   'P 1'
_cell_length_a   5.28498576
_cell_length_b   5.28498576
_cell_length_c   3.84214723
_cell_angle_alpha   86.14324582
_cell_angle_beta   86.14324582
_cell_angle_gamma   110.05952685
_symmetry_Int_Tables_number   1
_chemical_formula_structural   LiBiB2O5
_chemical_formula_sum   'Li1 Bi1 B2 O5'
_cell_volume   100.10864466
_cell_formula_units_Z   1
loop_
 _symmetry_equiv_pos_site_id
 _symmetry_equiv_pos_as_xyz
  1  'x, y, z'
loop_
 _atom_site_type_symbol
 _atom_site_label
 _atom_site_symmetry_multiplicity
 _atom_site_fract_x
 _atom_site_fract_y
 _atom_site_fract_z
 _atom_site_occupancy
  Li  Li0  1  0.39874800  0.60125200  0.50000000  1
  Bi  Bi0  1  0.01258700  0.98741300  0.00000000  1
  B  B0  1  0.87567100  0.48958200  0.62929800  1
  B  B1  1  0.51041800  0.12432900  0.37070200  1
  O  O0  1  0.78821800  0.70002700  0.53223400  1
  O  O1  1  0.47136800  0.92890800  0.14810900  1
  O  O2  1  0.76479600  0.23520400  0.50000000  1
  O  O3  1  0.07109200  0.52863200  0.85189100  1
  O  O4  1  0.29997300  0.21178200  0.46776600  1
loop_
_geom_bond_atom_site_label_1
_geom_bond_atom_site_label_2
_geom_bond_distance
_geom_bond_site_symmetry_2
Li0 O4 1.957170 1_555
Li0 O0 1.957170 1_555
Li0 O3 2.033031 1_555
Li0 O1 2.033031 1_555
Bi0 O0 2.432107 1_455
Bi0 O4 2.432107 1_564
Bi0 O0 2.522177 1_454
Bi0 O4 2.522177 1_565
Bi0 O3 2.640945 1_554
Bi0 O1 2.640945 1_555
Bi0 O1 2.784171 1_455
Bi0 O3 2.784171 1_564
Bi0 O2 2.880442 1_464
Bi0 O2 2.880442 1_465
B0 O3 1.355374 1_655
B0 O0 1.381921 1_555
B0 O2 1.409299 1_555
B1 O1 1.355374 1_545
B1 O4 1.381921 1_555
B1 O2 1.409299 1_555
