# generated using pymatgen
data_YAlO3
_symmetry_space_group_name_H-M   'P 1'
_cell_length_a   3.48856842
_cell_length_b   3.48856842
_cell_length_c   11.48382000
_cell_angle_alpha   90.00000000
_cell_angle_beta   90.00000000
_cell_angle_gamma   120.00000803
_symmetry_Int_Tables_number   1
_chemical_formula_structural   YAlO3
_chemical_formula_sum   'Y2 Al2 O6'
_cell_volume   121.03513647
_cell_formula_units_Z   2
loop_
 _symmetry_equiv_pos_site_id
 _symmetry_equiv_pos_as_xyz
  1  'x, y, z'
loop_
 _atom_site_type_symbol
 _atom_site_label
 _atom_site_symmetry_multiplicity
 _atom_site_fract_x
 _atom_site_fract_y
 _atom_site_fract_z
 _atom_site_occupancy
  Y  Y0  1  0.00000000  0.00000000  0.50000000  1
  Y  Y1  1  0.00000000  0.00000000  0.00000000  1
  Al  Al0  1  0.66666700  0.33333300  0.75000000  1
  Al  Al1  1  0.33333300  0.66666700  0.25000000  1
  O  O0  1  0.33333300  0.66666700  0.40829100  1
  O  O1  1  0.66666700  0.33333300  0.90829100  1
  O  O2  1  0.66666700  0.33333300  0.59170900  1
  O  O3  1  0.33333300  0.66666700  0.09170900  1
  O  O4  1  0.00000000  0.00000000  0.25000000  1
  O  O5  1  0.00000000  0.00000000  0.75000000  1
loop_
_geom_bond_atom_site_label_1
_geom_bond_atom_site_label_2
_geom_bond_distance
_geom_bond_site_symmetry_2
Al0 O1 1.817785 1_555
Al0 O2 1.817785 1_555
Al0 O5 2.014124 1_655
Al0 O5 2.014127 1_665
Al0 O5 2.014127 1_555
Al1 O0 1.817785 1_555
Al1 O3 1.817785 1_555
Al1 O4 2.014124 1_565
Al1 O4 2.014127 1_665
Al1 O4 2.014127 1_555
O0 Y0 2.272853 1_565
O0 Y0 2.272856 1_665
O0 Y0 2.272856 1_555
O1 Y1 2.272853 1_656
O1 Y1 2.272856 1_556
O1 Y1 2.272856 1_666
O2 Y0 2.272853 1_655
O2 Y0 2.272856 1_665
O2 Y0 2.272856 1_555
O3 Y1 2.272853 1_565
O3 Y1 2.272856 1_665
O3 Y1 2.272856 1_555
