# generated using pymatgen
data_Li5Cr3NiO8
_symmetry_space_group_name_H-M   'P 1'
_cell_length_a   5.99322108
_cell_length_b   5.99322108
_cell_length_c   9.81932000
_cell_angle_alpha   90.00000000
_cell_angle_beta   90.00000000
_cell_angle_gamma   120.41118884
_symmetry_Int_Tables_number   1
_chemical_formula_structural   Li5Cr3NiO8
_chemical_formula_sum   'Li10 Cr6 Ni2 O16'
_cell_volume   304.17129530
_cell_formula_units_Z   2
loop_
 _symmetry_equiv_pos_site_id
 _symmetry_equiv_pos_as_xyz
  1  'x, y, z'
loop_
 _atom_site_type_symbol
 _atom_site_label
 _atom_site_symmetry_multiplicity
 _atom_site_fract_x
 _atom_site_fract_y
 _atom_site_fract_z
 _atom_site_occupancy
  Li  Li0  1  0.50528600  0.49471400  0.01437700  1
  Li  Li1  1  0.49471400  0.50528600  0.51437700  1
  Li  Li2  1  0.88786900  0.68742800  0.44008700  1
  Li  Li3  1  0.31257100  0.11213100  0.44008700  1
  Li  Li4  1  0.29881600  0.70118400  0.44365000  1
  Li  Li5  1  0.17156000  0.82844000  0.21631800  1
  Li  Li6  1  0.68742800  0.88786900  0.94008700  1
  Li  Li7  1  0.70118400  0.29881600  0.94365000  1
  Li  Li8  1  0.82844000  0.17156000  0.71631800  1
  Li  Li9  1  0.11213100  0.31257200  0.94008700  1
  Cr  Cr0  1  0.83222500  0.67209200  0.71411300  1
  Cr  Cr1  1  0.32790800  0.16777500  0.71411300  1
  Cr  Cr2  1  0.32745900  0.67254100  0.71430100  1
  Cr  Cr3  1  0.67254100  0.32745900  0.21430100  1
  Cr  Cr4  1  0.67209200  0.83222500  0.21411300  1
  Cr  Cr5  1  0.16777500  0.32790800  0.21411300  1
  Ni  Ni0  1  0.16501300  0.83498700  0.97020500  1
  Ni  Ni1  1  0.83498700  0.16501300  0.47020500  1
  O  O0  1  0.49506300  0.50493700  0.82417800  1
  O  O1  1  0.50493700  0.49506300  0.32417800  1
  O  O2  1  0.82770300  0.65771700  0.09764300  1
  O  O3  1  0.00540100  0.99459900  0.83294300  1
  O  O4  1  0.34228300  0.17229700  0.09764300  1
  O  O5  1  0.16320700  0.83679300  0.59921200  1
  O  O6  1  0.00379600  0.52019900  0.83193100  1
  O  O7  1  0.47980100  0.99620400  0.83193100  1
  O  O8  1  0.65689000  0.34311000  0.59524300  1
  O  O9  1  0.34311000  0.65689000  0.09524300  1
  O  O10  1  0.52019900  0.00379600  0.33193100  1
  O  O11  1  0.65771700  0.82770300  0.59764300  1
  O  O12  1  0.99620400  0.47980100  0.33193100  1
  O  O13  1  0.83679300  0.16320700  0.09921200  1
  O  O14  1  0.99459900  0.00540100  0.33294300  1
  O  O15  1  0.17229700  0.34228300  0.59764300  1
loop_
_geom_bond_atom_site_label_1
_geom_bond_atom_site_label_2
_geom_bond_distance
_geom_bond_site_symmetry_2
Li0 O2 1.856227 1_555
Li0 O4 1.856227 1_555
Li0 O9 1.864492 1_555
Li0 O0 1.870650 1_554
Li1 O15 1.856227 1_555
Li1 O11 1.856227 1_555
Li1 O8 1.864492 1_555
Li1 O1 1.870650 1_555
Li2 O14 1.978272 1_565
Li2 O12 1.978841 1_555
Li2 O5 2.114301 1_655
Li2 O1 2.283165 1_555
Li2 O8 2.367218 1_555
Li2 O11 2.485334 1_555
Li3 O14 1.978267 1_455
Li3 O10 1.978846 1_555
Li3 O5 2.114301 1_545
Li3 O1 2.283165 1_555
Li3 O8 2.367222 1_555
Li3 O15 2.485331 1_555
Li4 O12 1.953682 1_455
Li4 O10 1.953682 1_565
Li4 O5 2.079207 1_555
Li4 O15 2.415964 1_555
Li4 O11 2.415964 1_555
Li4 O1 2.444030 1_555
Li5 O4 2.125334 1_565
Li5 O2 2.125334 1_455
Li5 O10 2.129786 1_565
Li5 O12 2.129786 1_455
Li5 O9 2.144232 1_555
Li5 O14 2.167900 1_465
Li6 O3 1.978272 1_655
Li6 O7 1.978841 1_555
Li6 O13 2.114301 1_566
Li6 O0 2.283165 1_555
Li6 O9 2.367218 1_556
Li6 O2 2.485334 1_556
Li7 O7 1.953682 1_545
Li7 O6 1.953682 1_655
Li7 O13 2.079207 1_556
Li7 O4 2.415964 1_556
Li7 O2 2.415964 1_556
Li7 O0 2.444030 1_555
Li8 O15 2.125334 1_655
Li8 O11 2.125334 1_545
Li8 O6 2.129786 1_655
Li8 O7 2.129786 1_545
Li8 O8 2.144232 1_555
Li8 O3 2.167900 1_645
Li9 O3 1.978272 1_545
Li9 O6 1.978841 1_555
Li9 O13 2.114301 1_456
Li9 O0 2.283165 1_555
Li9 O9 2.367218 1_556
Li9 O4 2.485334 1_556
Cr0 O3 2.035599 1_655
Cr0 O6 2.042570 1_655
Cr0 O5 2.049348 1_655
Cr0 O0 2.050705 1_555
Cr0 O8 2.063134 1_555
Cr0 O11 2.063742 1_555
Cr1 O3 2.035599 1_545
Cr1 O7 2.042570 1_545
Cr1 O5 2.049348 1_545
Cr1 O0 2.050705 1_555
Cr1 O8 2.063134 1_555
Cr1 O15 2.063742 1_555
Cr2 O6 2.034077 1_555
Cr2 O7 2.034077 1_555
Cr2 O5 2.048477 1_555
Cr2 O0 2.050260 1_555
Cr2 O15 2.056979 1_555
Cr2 O11 2.056979 1_555
Cr3 O10 2.034077 1_555
Cr3 O12 2.034077 1_555
Cr3 O13 2.048477 1_555
Cr3 O1 2.050260 1_555
Cr3 O4 2.056979 1_555
Cr3 O2 2.056979 1_555
Cr4 O14 2.035599 1_565
Cr4 O10 2.042570 1_565
Cr4 O13 2.049348 1_565
Cr4 O1 2.050705 1_555
Cr4 O9 2.063134 1_555
Cr4 O2 2.063742 1_555
Cr5 O14 2.035599 1_455
Cr5 O12 2.042570 1_455
Cr5 O13 2.049348 1_455
Cr5 O1 2.050705 1_555
Cr5 O9 2.063134 1_555
Cr5 O4 2.063742 1_555
Ni0 O6 2.119161 1_555
Ni0 O7 2.119161 1_555
Ni0 O3 2.138495 1_555
Ni0 O2 2.146388 1_456
Ni0 O4 2.146388 1_566
Ni0 O9 2.222490 1_556
Ni1 O10 2.119161 1_555
Ni1 O12 2.119161 1_555
Ni1 O14 2.138495 1_555
Ni1 O11 2.146388 1_545
Ni1 O15 2.146388 1_655
Ni1 O8 2.222490 1_555
