# generated using pymatgen
data_Ce3Y4O12
_symmetry_space_group_name_H-M   'P 1'
_cell_length_a   13.94079884
_cell_length_b   13.94079884
_cell_length_c   5.49971289
_cell_angle_alpha   78.81214631
_cell_angle_beta   78.81214631
_cell_angle_gamma   15.49671748
_symmetry_Int_Tables_number   1
_chemical_formula_structural   Ce3Y4O12
_chemical_formula_sum   'Ce3 Y4 O12'
_cell_volume   280.04929651
_cell_formula_units_Z   1
loop_
 _symmetry_equiv_pos_site_id
 _symmetry_equiv_pos_as_xyz
  1  'x, y, z'
loop_
 _atom_site_type_symbol
 _atom_site_label
 _atom_site_symmetry_multiplicity
 _atom_site_fract_x
 _atom_site_fract_y
 _atom_site_fract_z
 _atom_site_occupancy
  Ce  Ce0  1  0.85675500  0.85675500  0.14532000  1
  Ce  Ce1  1  0.28030900  0.28030900  0.72180000  1
  Ce  Ce2  1  0.42494100  0.42494100  0.56783400  1
  Y  Y0  1  0.00415100  0.00415100  0.05097500  1
  Y  Y1  1  0.57252200  0.57252200  0.42815600  1
  Y  Y2  1  0.71817800  0.71817800  0.29256500  1
  Y  Y3  1  0.14231500  0.14231500  0.80501300  1
  O  O0  1  0.20228600  0.20228600  0.03948200  1
  O  O1  1  0.08572000  0.08572000  0.16494300  1
  O  O2  1  0.92637300  0.92637300  0.32824800  1
  O  O3  1  0.35720000  0.35720000  0.38896900  1
  O  O4  1  0.50171300  0.50171300  0.26630000  1
  O  O5  1  0.78773500  0.78773500  0.46637300  1
  O  O6  1  0.05489300  0.05489300  0.68689400  1
  O  O7  1  0.21703100  0.21703100  0.53210200  1
  O  O8  1  0.64056700  0.64056700  0.59118500  1
  O  O9  1  0.78463800  0.78463800  0.97020500  1
  O  O10  1  0.35944900  0.35944900  0.88724400  1
  O  O11  1  0.94037700  0.94037700  0.80924700  1
loop_
_geom_bond_atom_site_label_1
_geom_bond_atom_site_label_2
_geom_bond_distance
_geom_bond_site_symmetry_2
Ce0 O3 2.309729 1_655
Ce0 O3 2.309729 1_565
Ce0 O5 2.331327 1_555
Ce0 O2 2.338624 1_555
Ce0 O10 2.347627 1_654
Ce0 O10 2.347627 1_564
Ce0 O9 2.376671 1_554
Ce0 O11 2.661039 1_554
Ce1 O7 2.204282 1_555
Ce1 O5 2.331365 1_545
Ce1 O5 2.331365 1_455
Ce1 O9 2.340368 1_545
Ce1 O9 2.340368 1_455
Ce1 O0 2.494801 1_556
Ce1 O3 2.518004 1_555
Ce1 O10 2.527325 1_555
Ce2 O10 2.261604 1_555
Ce2 O3 2.278401 1_555
Ce2 O2 2.291290 1_545
Ce2 O2 2.291290 1_455
Ce2 O11 2.387267 1_455
Ce2 O11 2.387267 1_545
Ce2 O4 2.423057 1_555
O0 Y3 2.290111 1_554
O0 Y2 2.429419 1_455
O0 Y2 2.429419 1_545
O1 Y3 2.269591 1_554
O1 Y1 2.356782 1_455
O1 Y1 2.356782 1_545
O1 Y0 2.454453 1_555
O2 Y0 2.378943 1_665
O4 Y0 2.215477 1_565
O4 Y0 2.215477 1_655
O4 Y1 2.302443 1_555
O5 Y2 2.307784 1_555
O6 Y0 2.207999 1_556
O6 Y1 2.350175 1_455
O6 Y1 2.350175 1_545
O6 Y3 2.621012 1_555
O7 Y2 2.291900 1_545
O7 Y2 2.291900 1_455
O7 Y3 2.302238 1_555
O8 Y3 2.222652 1_655
O8 Y3 2.222652 1_565
O8 Y1 2.235614 1_555
O8 Y2 2.432195 1_555
O9 Y2 2.289005 1_556
O11 Y0 2.406025 1_666
