# generated using pymatgen
data_Lu2WO6
_symmetry_space_group_name_H-M   'P 1'
_cell_length_a   9.72634689
_cell_length_b   9.72634689
_cell_length_c   5.30146903
_cell_angle_alpha   75.72127858
_cell_angle_beta   75.72127858
_cell_angle_gamma   68.18518457
_symmetry_Int_Tables_number   1
_chemical_formula_structural   Lu2WO6
_chemical_formula_sum   'Lu8 W4 O24'
_cell_volume   444.48463452
_cell_formula_units_Z   4
loop_
 _symmetry_equiv_pos_site_id
 _symmetry_equiv_pos_as_xyz
  1  'x, y, z'
loop_
 _atom_site_type_symbol
 _atom_site_label
 _atom_site_symmetry_multiplicity
 _atom_site_fract_x
 _atom_site_fract_y
 _atom_site_fract_z
 _atom_site_occupancy
  Lu  Lu0  1  0.94509900  0.71716200  0.38125800  1
  Lu  Lu1  1  0.71716200  0.94509900  0.88125800  1
  Lu  Lu2  1  0.36456900  0.63543100  0.25000000  1
  Lu  Lu3  1  0.89628500  0.10371500  0.25000000  1
  Lu  Lu4  1  0.10371500  0.89628500  0.75000000  1
  Lu  Lu5  1  0.63543100  0.36456900  0.75000000  1
  Lu  Lu6  1  0.28283800  0.05490100  0.11874200  1
  Lu  Lu7  1  0.05490100  0.28283800  0.61874200  1
  W  W0  1  0.80087900  0.50663200  0.06781800  1
  W  W1  1  0.50663200  0.80087900  0.56781800  1
  W  W2  1  0.49336800  0.19912100  0.43218200  1
  W  W3  1  0.19912100  0.49336800  0.93218200  1
  O  O0  1  0.89188400  0.92636900  0.07808300  1
  O  O1  1  0.92636900  0.89188400  0.57808300  1
  O  O2  1  0.52613400  0.94172900  0.25624000  1
  O  O3  1  0.78438300  0.68769300  0.14988800  1
  O  O4  1  0.94172900  0.52613400  0.75624000  1
  O  O5  1  0.68769300  0.78438300  0.64988800  1
  O  O6  1  0.82343500  0.37823800  0.39150400  1
  O  O7  1  0.37823800  0.82343500  0.89150400  1
  O  O8  1  0.60876900  0.54479100  0.01893100  1
  O  O9  1  0.30853600  0.84169900  0.42135400  1
  O  O10  1  0.54479100  0.60876900  0.51893100  1
  O  O11  1  0.84169900  0.30853600  0.92135400  1
  O  O12  1  0.15830100  0.69146400  0.07864600  1
  O  O13  1  0.45520900  0.39123100  0.48106900  1
  O  O14  1  0.69146400  0.15830100  0.57864600  1
  O  O15  1  0.39123100  0.45520900  0.98106900  1
  O  O16  1  0.62176200  0.17656500  0.10849600  1
  O  O17  1  0.17656500  0.62176200  0.60849600  1
  O  O18  1  0.31230700  0.21561700  0.35011200  1
  O  O19  1  0.05827100  0.47386600  0.24376000  1
  O  O20  1  0.21561700  0.31230700  0.85011200  1
  O  O21  1  0.47386600  0.05827100  0.74376000  1
  O  O22  1  0.07363100  0.10811600  0.42191700  1
  O  O23  1  0.10811600  0.07363100  0.92191700  1
loop_
_geom_bond_atom_site_label_1
_geom_bond_atom_site_label_2
_geom_bond_distance
_geom_bond_site_symmetry_2
Lu0 O1 2.135612 1_555
Lu0 O0 2.237420 1_555
Lu0 O12 2.260068 1_655
Lu0 O3 2.341466 1_555
Lu0 O4 2.365662 1_555
Lu0 O19 2.421142 1_655
Lu0 O5 2.491524 1_555
Lu0 O17 2.571885 1_655
Lu1 O0 2.135612 1_556
Lu1 O1 2.237420 1_555
Lu1 O14 2.260068 1_565
Lu1 O5 2.341466 1_555
Lu1 O2 2.365662 1_556
Lu1 O21 2.421142 1_565
Lu1 O3 2.491524 1_556
Lu1 O16 2.571885 1_566
Lu2 O12 2.233698 1_555
Lu2 O9 2.233698 1_555
Lu2 O17 2.305487 1_555
Lu2 O7 2.305487 1_554
Lu2 O13 2.336777 1_555
Lu2 O8 2.336777 1_555
Lu2 O15 2.425939 1_554
Lu2 O10 2.425939 1_555
Lu3 O22 2.158124 1_655
Lu3 O0 2.158124 1_545
Lu3 O11 2.290039 1_554
Lu3 O14 2.290039 1_555
Lu3 O1 2.321883 1_545
Lu3 O23 2.321883 1_654
Lu3 O16 2.741175 1_555
Lu3 O6 2.741175 1_555
Lu4 O23 2.158124 1_565
Lu4 O1 2.158124 1_455
Lu4 O9 2.290039 1_555
Lu4 O12 2.290039 1_556
Lu4 O0 2.321883 1_456
Lu4 O22 2.321883 1_565
Lu4 O17 2.741175 1_555
Lu4 O7 2.741175 1_555
Lu5 O14 2.233698 1_555
Lu5 O11 2.233698 1_555
Lu5 O16 2.305487 1_556
Lu5 O6 2.305487 1_555
Lu5 O15 2.336777 1_555
Lu5 O10 2.336777 1_555
Lu5 O13 2.425939 1_555
Lu5 O8 2.425939 1_556
Lu6 O23 2.135612 1_554
Lu6 O22 2.237420 1_555
Lu6 O9 2.260068 1_545
Lu6 O18 2.341466 1_555
Lu6 O21 2.365662 1_554
Lu6 O2 2.421142 1_545
Lu6 O20 2.491524 1_554
Lu6 O7 2.571885 1_544
Lu7 O22 2.135612 1_555
Lu7 O23 2.237420 1_555
Lu7 O11 2.260068 1_455
Lu7 O20 2.341466 1_555
Lu7 O19 2.365662 1_555
Lu7 O4 2.421142 1_455
Lu7 O18 2.491524 1_555
Lu7 O6 2.571885 1_455
O2 W1 1.887749 1_555
O3 W0 1.857394 1_555
O4 W0 1.887749 1_556
O5 W1 1.857394 1_555
O6 W0 1.864764 1_555
O7 W1 1.864764 1_555
O8 W0 1.836391 1_555
O9 W1 2.119028 1_555
O10 W1 1.836391 1_555
O11 W0 2.119028 1_556
O12 W3 2.119028 1_554
O13 W2 1.836391 1_555
O14 W2 2.119028 1_555
O15 W3 1.836391 1_555
O16 W2 1.864764 1_555
O17 W3 1.864764 1_555
O18 W2 1.857394 1_555
O19 W3 1.887749 1_554
O20 W3 1.857394 1_555
O21 W2 1.887749 1_555
