# generated using pymatgen
data_Co3OF5
_symmetry_space_group_name_H-M   'P 1'
_cell_length_a   5.66038800
_cell_length_b   5.67903654
_cell_length_c   7.41711586
_cell_angle_alpha   72.92283791
_cell_angle_beta   72.67436561
_cell_angle_gamma   71.97038795
_symmetry_Int_Tables_number   1
_chemical_formula_structural   Co3OF5
_chemical_formula_sum   'Co6 O2 F10'
_cell_volume   211.03401562
_cell_formula_units_Z   2
loop_
 _symmetry_equiv_pos_site_id
 _symmetry_equiv_pos_as_xyz
  1  'x, y, z'
loop_
 _atom_site_type_symbol
 _atom_site_label
 _atom_site_symmetry_multiplicity
 _atom_site_fract_x
 _atom_site_fract_y
 _atom_site_fract_z
 _atom_site_occupancy
  Co  Co0  1  0.33093600  0.35032200  0.16083200  1
  Co  Co1  1  0.34253100  0.34411200  0.67275300  1
  Co  Co2  1  0.66028500  0.67278100  0.34709700  1
  Co  Co3  1  0.64747500  0.65552000  0.82429900  1
  Co  Co4  1  0.99935900  0.00485100  0.50180800  1
  Co  Co5  1  0.02480400  0.96799300  0.99795600  1
  O  O0  1  0.56708400  0.57294200  0.62808600  1
  O  O1  1  0.29836400  0.69471000  0.99719900  1
  F  F0  1  0.02600000  0.63945200  0.67208600  1
  F  F1  1  0.36077700  0.98362900  0.32769900  1
  F  F2  1  0.43638300  0.43779400  0.36873900  1
  F  F3  1  0.09962400  0.10614200  0.70486200  1
  F  F4  1  0.76292700  0.76144500  0.03735100  1
  F  F5  1  0.22733300  0.22705600  0.96730700  1
  F  F6  1  0.90274300  0.90036900  0.29464200  1
  F  F7  1  0.63440600  0.02803500  0.67071100  1
  F  F8  1  0.96988000  0.36660800  0.33111800  1
  F  F9  1  0.70908800  0.28624000  0.99545800  1
loop_
_geom_bond_atom_site_label_1
_geom_bond_atom_site_label_2
_geom_bond_distance
_geom_bond_site_symmetry_2
Co0 O1 1.961653 1_554
Co0 F2 2.040258 1_555
Co0 F8 2.048112 1_455
Co0 F5 2.059113 1_554
Co0 F1 2.071239 1_545
Co0 F9 2.105914 1_554
Co1 O0 1.983165 1_555
Co1 F7 2.029072 1_555
Co1 F0 2.040471 1_555
Co1 F5 2.051107 1_555
Co1 F2 2.099230 1_555
Co1 F3 2.130671 1_555
Co2 O0 1.944134 1_555
Co2 F1 2.038310 1_555
Co2 F6 2.046956 1_555
Co2 F2 2.052524 1_555
Co2 F8 2.054144 1_555
Co2 F4 2.139137 1_555
Co3 O0 1.863429 1_555
Co3 O1 1.996278 1_555
Co3 F7 2.077632 1_565
Co3 F0 2.091027 1_655
Co3 F9 2.092520 1_555
Co3 F4 2.168589 1_556
Co4 F3 2.035010 1_655
Co4 F1 2.057338 1_645
Co4 F8 2.058490 1_555
Co4 F7 2.059447 1_555
Co4 F6 2.061327 1_545
Co4 F0 2.074709 1_645
Co5 O1 1.821739 1_555
Co5 F3 2.043624 1_565
Co5 F5 2.054944 1_565
Co5 F6 2.056609 1_456
Co5 F4 2.067759 1_456
Co5 F9 2.112148 1_465
