# generated using pymatgen
data_Li3Fe8(BO3)8
_symmetry_space_group_name_H-M   'P 1'
_cell_length_a   5.29401900
_cell_length_b   9.10230230
_cell_length_c   11.36653019
_cell_angle_alpha   113.11869855
_cell_angle_beta   103.38605851
_cell_angle_gamma   89.75783162
_symmetry_Int_Tables_number   1
_chemical_formula_structural   Li3Fe8(BO3)8
_chemical_formula_sum   'Li3 Fe8 B8 O24'
_cell_volume   487.75110341
_cell_formula_units_Z   1
loop_
 _symmetry_equiv_pos_site_id
 _symmetry_equiv_pos_as_xyz
  1  'x, y, z'
loop_
 _atom_site_type_symbol
 _atom_site_label
 _atom_site_symmetry_multiplicity
 _atom_site_fract_x
 _atom_site_fract_y
 _atom_site_fract_z
 _atom_site_occupancy
  Li  Li0  1  0.81190000  0.17414800  0.33412100  1
  Li  Li1  1  0.07491700  0.40773100  0.84033900  1
  Li  Li2  1  0.57327300  0.90610600  0.83667700  1
  Fe  Fe0  1  0.60050000  0.59028400  0.87411900  1
  Fe  Fe1  1  0.90548900  0.88825500  0.11894300  1
  Fe  Fe2  1  0.16140300  0.48190800  0.62245700  1
  Fe  Fe3  1  0.34526400  0.02036400  0.37351500  1
  Fe  Fe4  1  0.65653200  0.98159800  0.62145100  1
  Fe  Fe5  1  0.84645300  0.52755000  0.36891100  1
  Fe  Fe6  1  0.09915300  0.09180300  0.87563600  1
  Fe  Fe7  1  0.39491400  0.39598600  0.11865700  1
  B  B0  1  0.36047400  0.35614000  0.37019400  1
  B  B1  1  0.10205600  0.76557200  0.87117100  1
  B  B2  1  0.84862700  0.85690300  0.37170200  1
  B  B3  1  0.60293400  0.26337600  0.87211400  1
  B  B4  1  0.15284900  0.14559100  0.62820700  1
  B  B5  1  0.39586000  0.72840900  0.11914400  1
  B  B6  1  0.65566200  0.64317300  0.62288600  1
  B  B7  1  0.90284100  0.23458400  0.12925900  1
  O  O0  1  0.87296700  0.78800200  0.91721200  1
  O  O1  1  0.52865000  0.54237000  0.66088400  1
  O  O2  1  0.81781700  0.10234400  0.14365000  1
  O  O3  1  0.48091300  0.22563200  0.37039700  1
  O  O4  1  0.12259300  0.38813000  0.41262700  1
  O  O5  1  0.18179700  0.60858200  0.82300900  1
  O  O6  1  0.73745400  0.38684700  0.86750800  1
  O  O7  1  0.93785700  0.96247700  0.32318800  1
  O  O8  1  0.27481600  0.86886900  0.16235500  1
  O  O9  1  0.36510300  0.09490700  0.57798500  1
  O  O10  1  0.06883200  0.29344600  0.64102700  1
  O  O11  1  0.62027600  0.73115500  0.07587200  1
  O  O12  1  0.37371900  0.28731500  0.91822700  1
  O  O13  1  0.64000200  0.89997900  0.42932500  1
  O  O14  1  0.68580100  0.10825600  0.83001100  1
  O  O15  1  0.02422400  0.05007100  0.66976200  1
  O  O16  1  0.29057500  0.58892800  0.11352000  1
  O  O17  1  0.77501500  0.37519400  0.17023500  1
  O  O18  1  0.86473200  0.58935300  0.56521700  1
  O  O19  1  0.58364500  0.79364500  0.64752200  1
  O  O20  1  0.95649000  0.71758800  0.36207500  1
  O  O21  1  0.24124300  0.88925000  0.87042000  1
  O  O22  1  0.46153700  0.46431700  0.32760400  1
  O  O23  1  0.11588900  0.23480600  0.07906900  1
loop_
_geom_bond_atom_site_label_1
_geom_bond_atom_site_label_2
_geom_bond_distance
_geom_bond_site_symmetry_2
Li0 O3 1.906796 1_555
Li0 O7 2.002930 1_545
Li0 O2 2.008834 1_555
Li0 O4 2.297387 1_655
Li1 O6 1.904636 1_455
Li1 O5 2.011081 1_555
Li1 O10 2.081212 1_555
Li1 O12 2.141573 1_555
Li2 O21 1.902908 1_555
Li2 O14 1.971291 1_565
Li2 O19 1.999855 1_555
Li2 O0 2.144005 1_555
Fe0 O6 1.965933 1_555
Fe0 O11 2.120120 1_556
Fe0 O0 2.135888 1_555
Fe0 O5 2.180656 1_555
Fe0 O1 2.225727 1_555
Fe1 O11 1.921093 1_555
Fe1 O2 1.927353 1_565
Fe1 O8 1.927761 1_655
Fe1 O0 2.072566 1_554
Fe1 O7 2.112002 1_555
Fe2 O10 1.888596 1_555
Fe2 O1 1.923721 1_555
Fe2 O18 1.964704 1_455
Fe2 O5 2.088224 1_555
Fe2 O4 2.152935 1_555
Fe3 O3 2.020656 1_555
Fe3 O13 2.027545 1_545
Fe3 O7 2.111487 1_445
Fe3 O9 2.126539 1_555
Fe3 O8 2.189111 1_545
Fe4 O19 1.902682 1_555
Fe4 O9 1.929223 1_565
Fe4 O15 1.930204 1_665
Fe4 O13 1.991642 1_555
Fe4 O14 2.158277 1_565
Fe5 O20 1.863481 1_555
Fe5 O22 2.014661 1_555
Fe5 O4 2.034124 1_655
Fe5 O18 2.054116 1_555
Fe5 O17 2.077417 1_555
Fe6 O21 1.972733 1_545
Fe6 O12 2.129251 1_555
Fe6 O23 2.142794 1_556
Fe6 O14 2.147734 1_455
Fe6 O15 2.156625 1_555
Fe7 O16 1.857475 1_555
Fe7 O23 1.931073 1_555
Fe7 O17 1.991581 1_555
Fe7 O12 2.072234 1_554
Fe7 O22 2.146133 1_555
B0 O3 1.346394 1_555
B0 O22 1.410271 1_555
B0 O4 1.439175 1_555
B1 O21 1.351972 1_555
B1 O0 1.412205 1_455
B1 O5 1.416849 1_555
B2 O20 1.363796 1_555
B2 O13 1.390032 1_555
B2 O7 1.411121 1_555
B3 O6 1.357652 1_555
B3 O14 1.405859 1_555
B3 O12 1.413255 1_555
B4 O9 1.373744 1_555
B4 O10 1.378859 1_555
B4 O15 1.385335 1_555
B5 O16 1.361026 1_555
B5 O8 1.390018 1_555
B5 O11 1.390866 1_555
B6 O19 1.357767 1_555
B6 O1 1.389758 1_555
B6 O18 1.404954 1_555
B7 O2 1.368034 1_555
B7 O23 1.377107 1_655
B7 O17 1.408352 1_555
