# generated using pymatgen
data_In2P6O19
_symmetry_space_group_name_H-M   'P 1'
_cell_length_a   5.11179900
_cell_length_b   11.63319300
_cell_length_c   13.25085700
_cell_angle_alpha   90.00000000
_cell_angle_beta   90.00000000
_cell_angle_gamma   90.00000000
_symmetry_Int_Tables_number   1
_chemical_formula_structural   In2P6O19
_chemical_formula_sum   'In4 P12 O38'
_cell_volume   787.98267539
_cell_formula_units_Z   2
loop_
 _symmetry_equiv_pos_site_id
 _symmetry_equiv_pos_as_xyz
  1  'x, y, z'
loop_
 _atom_site_type_symbol
 _atom_site_label
 _atom_site_symmetry_multiplicity
 _atom_site_fract_x
 _atom_site_fract_y
 _atom_site_fract_z
 _atom_site_occupancy
  In  In0  1  0.00000000  0.25000000  0.75000000  1
  In  In1  1  0.00000000  0.25000000  0.25000000  1
  In  In2  1  0.00000000  0.75000000  0.75000000  1
  In  In3  1  0.00000000  0.75000000  0.25000000  1
  P  P0  1  0.05896400  0.00000000  0.88727900  1
  P  P1  1  0.05896400  0.00000000  0.11272100  1
  P  P2  1  0.94103600  0.50000000  0.61272100  1
  P  P3  1  0.94103600  0.50000000  0.38727900  1
  P  P4  1  0.50383200  0.37183100  0.88679800  1
  P  P5  1  0.50383200  0.37183100  0.11320200  1
  P  P6  1  0.50383200  0.62816900  0.88679800  1
  P  P7  1  0.50383200  0.62816900  0.11320200  1
  P  P8  1  0.49616800  0.12816900  0.61320200  1
  P  P9  1  0.49616800  0.12816900  0.38679800  1
  P  P10  1  0.49616800  0.87183100  0.61320200  1
  P  P11  1  0.49616800  0.87183100  0.38679800  1
  O  O0  1  0.62632000  0.50000000  0.88543400  1
  O  O1  1  0.62632000  0.50000000  0.11456600  1
  O  O2  1  0.37368000  0.00000000  0.61456600  1
  O  O3  1  0.37368000  0.00000000  0.38543400  1
  O  O4  1  0.27164400  0.36768100  0.81809400  1
  O  O5  1  0.27164400  0.36768100  0.18190600  1
  O  O6  1  0.27164400  0.63231900  0.81809400  1
  O  O7  1  0.27164400  0.63231900  0.18190600  1
  O  O8  1  0.72835600  0.13231900  0.68190600  1
  O  O9  1  0.72835600  0.13231900  0.31809400  1
  O  O10  1  0.72835600  0.86768100  0.68190600  1
  O  O11  1  0.72835600  0.86768100  0.31809400  1
  O  O12  1  0.39200700  0.35904300  0.00000000  1
  O  O13  1  0.39200700  0.64095700  0.00000000  1
  O  O14  1  0.60799300  0.14095700  0.50000000  1
  O  O15  1  0.60799300  0.85904300  0.50000000  1
  O  O16  1  0.72751300  0.28969900  0.87169600  1
  O  O17  1  0.72751300  0.28969900  0.12830400  1
  O  O18  1  0.72751300  0.71030100  0.87169600  1
  O  O19  1  0.72751300  0.71030100  0.12830400  1
  O  O20  1  0.27248700  0.21030100  0.62830400  1
  O  O21  1  0.27248700  0.21030100  0.37169600  1
  O  O22  1  0.27248700  0.78969900  0.62830400  1
  O  O23  1  0.27248700  0.78969900  0.37169600  1
  O  O24  1  0.75737300  0.00000000  0.88527800  1
  O  O25  1  0.75737300  0.00000000  0.11472200  1
  O  O26  1  0.24262700  0.50000000  0.61472200  1
  O  O27  1  0.24262700  0.50000000  0.38527800  1
  O  O28  1  0.15646000  0.11112200  0.83999700  1
  O  O29  1  0.15646000  0.11112200  0.16000300  1
  O  O30  1  0.15646000  0.88887800  0.83999700  1
  O  O31  1  0.15646000  0.88887800  0.16000300  1
  O  O32  1  0.84354000  0.38887800  0.66000300  1
  O  O33  1  0.84354000  0.38887800  0.33999700  1
  O  O34  1  0.84354000  0.61112200  0.66000300  1
  O  O35  1  0.84354000  0.61112200  0.33999700  1
  O  O36  1  0.17247500  0.00000000  0.00000000  1
  O  O37  1  0.82752500  0.50000000  0.50000000  1
loop_
_geom_bond_atom_site_label_1
_geom_bond_atom_site_label_2
_geom_bond_distance
_geom_bond_site_symmetry_2
In0 O4 2.148607 1_555
In0 O8 2.148607 1_455
In0 O28 2.161471 1_555
In0 O32 2.161471 1_455
In0 O16 2.180333 1_455
In0 O20 2.180333 1_555
In1 O9 2.148607 1_455
In1 O5 2.148607 1_555
In1 O29 2.161471 1_555
In1 O33 2.161471 1_455
In1 O21 2.180333 1_555
In1 O17 2.180333 1_455
In2 O10 2.148607 1_455
In2 O6 2.148607 1_555
In2 O30 2.161471 1_555
In2 O34 2.161471 1_455
In2 O18 2.180333 1_455
In2 O22 2.180333 1_555
In3 O11 2.148607 1_455
In3 O7 2.148607 1_555
In3 O31 2.161471 1_555
In3 O35 2.161471 1_455
In3 O23 2.180333 1_555
In3 O19 2.180333 1_455
O0 P6 1.617249 1_555
O0 P4 1.617249 1_555
O1 P7 1.617249 1_555
O1 P5 1.617249 1_555
O2 P8 1.617249 1_555
O2 P10 1.617249 1_545
O3 P9 1.617249 1_555
O3 P11 1.617249 1_545
O4 P4 1.496617 1_555
O5 P5 1.496617 1_555
O6 P6 1.496617 1_555
O7 P7 1.496617 1_555
O8 P8 1.496617 1_555
O9 P9 1.496617 1_555
O10 P10 1.496617 1_555
O11 P11 1.496617 1_555
O12 P5 1.612129 1_555
O12 P4 1.612129 1_554
O13 P7 1.612129 1_555
O13 P6 1.612129 1_554
O14 P9 1.612129 1_555
O14 P8 1.612129 1_555
O15 P11 1.612129 1_555
O15 P10 1.612129 1_555
O16 P4 1.503442 1_555
O17 P5 1.503442 1_555
O18 P6 1.503442 1_555
O19 P7 1.503442 1_555
O20 P8 1.503442 1_555
O21 P9 1.503442 1_555
O22 P10 1.503442 1_555
O23 P11 1.503442 1_555
O24 P0 1.541901 1_655
O25 P1 1.541901 1_655
O26 P2 1.541901 1_455
O27 P3 1.541901 1_455
O28 P0 1.520527 1_555
O29 P1 1.520527 1_555
O30 P0 1.520527 1_565
O31 P1 1.520527 1_565
O32 P2 1.520527 1_555
O33 P3 1.520527 1_555
O34 P2 1.520527 1_555
O35 P3 1.520527 1_555
O36 P1 1.602397 1_555
O36 P0 1.602397 1_554
O37 P2 1.602397 1_555
O37 P3 1.602397 1_555
