# generated using pymatgen
data_Li4MnFe3(BO3)4
_symmetry_space_group_name_H-M   'P 1'
_cell_length_a   5.23734700
_cell_length_b   9.05954673
_cell_length_c   10.41634231
_cell_angle_alpha   89.11740225
_cell_angle_beta   89.13644993
_cell_angle_gamma   89.93556114
_symmetry_Int_Tables_number   1
_chemical_formula_structural   Li4MnFe3(BO3)4
_chemical_formula_sum   'Li8 Mn2 Fe6 B8 O24'
_cell_volume   494.11954302
_cell_formula_units_Z   2
loop_
 _symmetry_equiv_pos_site_id
 _symmetry_equiv_pos_as_xyz
  1  'x, y, z'
loop_
 _atom_site_type_symbol
 _atom_site_label
 _atom_site_symmetry_multiplicity
 _atom_site_fract_x
 _atom_site_fract_y
 _atom_site_fract_z
 _atom_site_occupancy
  Li  Li0  1  0.15045200  0.17427100  0.66757700  1
  Li  Li1  1  0.18498900  0.16341300  0.16775500  1
  Li  Li2  1  0.32106600  0.33287300  0.41600100  1
  Li  Li3  1  0.33858700  0.32676700  0.91605900  1
  Li  Li4  1  0.65074200  0.67151900  0.66687700  1
  Li  Li5  1  0.68513400  0.66039900  0.16858700  1
  Li  Li6  1  0.81745800  0.83086600  0.41605600  1
  Li  Li7  1  0.83663800  0.82454800  0.91609100  1
  Mn  Mn0  1  0.33028700  0.99769200  0.88243800  1
  Mn  Mn1  1  0.67779800  0.00026600  0.13513000  1
  Fe  Fe0  1  0.18248600  0.49854500  0.13243900  1
  Fe  Fe1  1  0.15593800  0.83893000  0.63205800  1
  Fe  Fe2  1  0.32220000  0.66708400  0.38260100  1
  Fe  Fe3  1  0.65561500  0.34057100  0.63348200  1
  Fe  Fe4  1  0.83804000  0.16822900  0.38662200  1
  Fe  Fe5  1  0.83522900  0.50013800  0.88472600  1
  B  B0  1  0.17097700  0.82860400  0.12554800  1
  B  B1  1  0.16164200  0.50116300  0.62563900  1
  B  B2  1  0.33592900  0.99768300  0.37716600  1
  B  B3  1  0.32633100  0.66398300  0.87435200  1
  B  B4  1  0.67498100  0.33298200  0.12730700  1
  B  B5  1  0.66210700  0.00093900  0.62497000  1
  B  B6  1  0.83310800  0.49741000  0.37622500  1
  B  B7  1  0.82805700  0.16844200  0.87465300  1
  O  O0  1  0.09542000  0.48462800  0.34697800  1
  O  O1  1  0.09087400  0.17964100  0.86088300  1
  O  O2  1  0.17654800  0.78711100  0.84367800  1
  O  O3  1  0.19601700  0.87283100  0.41603000  1
  O  O4  1  0.21406200  0.13236200  0.36330500  1
  O  O5  1  0.21061700  0.53298400  0.91694100  1
  O  O6  1  0.27726400  0.36354900  0.61222700  1
  O  O7  1  0.28735300  0.96465800  0.09676900  1
  O  O8  1  0.30344500  0.62815900  0.59696700  1
  O  O9  1  0.31800500  0.70829400  0.16548200  1
  O  O10  1  0.41083600  0.32071100  0.11406300  1
  O  O11  1  0.40613300  0.01051200  0.66275800  1
  O  O12  1  0.59641400  0.98662400  0.34909100  1
  O  O13  1  0.58939500  0.67163600  0.86113100  1
  O  O14  1  0.67532600  0.29104800  0.84495200  1
  O  O15  1  0.69416000  0.37328900  0.41675400  1
  O  O16  1  0.71349600  0.63254100  0.36210300  1
  O  O17  1  0.71738700  0.03562500  0.91665900  1
  O  O18  1  0.79337000  0.46718400  0.09645400  1
  O  O19  1  0.77709100  0.86276900  0.61246600  1
  O  O20  1  0.80401400  0.12822000  0.59743800  1
  O  O21  1  0.81914900  0.21270600  0.16777500  1
  O  O22  1  0.90979800  0.81486900  0.11122000  1
  O  O23  1  0.90743300  0.51013900  0.66512200  1
loop_
_geom_bond_atom_site_label_1
_geom_bond_atom_site_label_2
_geom_bond_distance
_geom_bond_site_symmetry_2
Li0 O6 1.916903 1_555
Li0 O11 1.998124 1_555
Li0 O20 2.012704 1_455
Li0 O1 2.034238 1_555
Li1 O10 1.924047 1_555
Li1 O21 1.966893 1_455
Li1 O7 2.025665 1_545
Li1 O4 2.059841 1_555
Li2 O0 1.948127 1_555
Li2 O15 1.988591 1_555
Li2 O4 1.989334 1_555
Li2 O6 2.076257 1_555
Li3 O14 1.931423 1_555
Li3 O1 1.959600 1_555
Li3 O5 1.984214 1_555
Li3 O10 2.102379 1_556
Li4 O19 1.929292 1_555
Li4 O23 1.985166 1_555
Li4 O8 2.010818 1_555
Li4 O13 2.043995 1_555
Li5 O22 1.912252 1_555
Li5 O9 1.971288 1_555
Li5 O18 1.993834 1_555
Li5 O16 2.035238 1_555
Li6 O12 1.951491 1_555
Li6 O16 1.970555 1_555
Li6 O3 2.019182 1_655
Li6 O19 2.078190 1_555
Li7 O2 1.954283 1_655
Li7 O13 1.993590 1_555
Li7 O17 2.011071 1_565
Li7 O22 2.074510 1_556
Mn0 O1 2.081400 1_565
Mn0 O17 2.093452 1_565
Mn0 O2 2.118464 1_555
Mn0 O7 2.255841 1_556
Mn0 O11 2.317745 1_565
Mn1 O22 2.087746 1_545
Mn1 O21 2.097321 1_555
Mn1 O7 2.115518 1_545
Mn1 O12 2.264291 1_545
Mn1 O17 2.299509 1_554
Fe0 O10 2.015149 1_555
Fe0 O9 2.064860 1_555
Fe0 O18 2.098097 1_455
Fe0 O5 2.264132 1_554
Fe0 O0 2.275631 1_555
Fe1 O19 2.008740 1_455
Fe1 O11 2.065951 1_565
Fe1 O8 2.094339 1_555
Fe1 O2 2.250819 1_555
Fe1 O3 2.272994 1_555
Fe2 O3 2.010642 1_555
Fe2 O0 2.077807 1_555
Fe2 O16 2.081057 1_555
Fe2 O8 2.255903 1_555
Fe2 O9 2.286943 1_555
Fe3 O6 2.007434 1_555
Fe3 O23 2.059418 1_555
Fe3 O20 2.110957 1_555
Fe3 O14 2.245069 1_555
Fe3 O15 2.278324 1_555
Fe4 O4 2.007366 1_655
Fe4 O15 2.031076 1_555
Fe4 O12 2.121451 1_545
Fe4 O20 2.224653 1_555
Fe4 O21 2.312373 1_555
Fe5 O5 2.022555 1_655
Fe5 O13 2.031095 1_555
Fe5 O14 2.121184 1_555
Fe5 O18 2.228544 1_556
Fe5 O23 2.313299 1_555
B0 O22 1.384188 1_455
B0 O9 1.395630 1_555
B0 O7 1.401937 1_555
B1 O23 1.390184 1_455
B1 O6 1.393428 1_555
B1 O8 1.396108 1_555
B2 O4 1.382946 1_565
B2 O12 1.394743 1_555
B2 O3 1.399656 1_555
B3 O13 1.384265 1_555
B3 O5 1.396369 1_555
B3 O2 1.398708 1_555
B4 O21 1.388784 1_555
B4 O18 1.396274 1_555
B4 O10 1.397072 1_555
B5 O11 1.394493 1_555
B5 O19 1.395522 1_545
B5 O20 1.396277 1_555
B6 O16 1.381416 1_555
B6 O15 1.396499 1_555
B6 O0 1.407733 1_655
B7 O1 1.385436 1_655
B7 O17 1.397479 1_555
B7 O14 1.401504 1_555
