# generated using pymatgen
data_KSnS2
_symmetry_space_group_name_H-M   'P 1'
_cell_length_a   7.90015862
_cell_length_b   7.90015862
_cell_length_c   7.90015888
_cell_angle_alpha   29.35857017
_cell_angle_beta   29.35857017
_cell_angle_gamma   29.35856834
_symmetry_Int_Tables_number   1
_chemical_formula_structural   KSnS2
_chemical_formula_sum   'K1 Sn1 S2'
_cell_volume   104.88239000
_cell_formula_units_Z   1
loop_
 _symmetry_equiv_pos_site_id
 _symmetry_equiv_pos_as_xyz
  1  'x, y, z'
loop_
 _atom_site_type_symbol
 _atom_site_label
 _atom_site_symmetry_multiplicity
 _atom_site_fract_x
 _atom_site_fract_y
 _atom_site_fract_z
 _atom_site_occupancy
  K  K0  1  0.83452700  0.83452700  0.83452700  1
  Sn  Sn0  1  0.00199300  0.00199300  0.00199300  1
  S  S0  1  0.60127400  0.60127400  0.60127400  1
  S  S1  1  0.40220500  0.40220500  0.40220500  1
loop_
_geom_bond_atom_site_label_1
_geom_bond_atom_site_label_2
_geom_bond_distance
_geom_bond_site_symmetry_2
K0 S1 3.221279 1_556
K0 S1 3.221279 1_565
K0 S1 3.221279 1_655
K0 S0 3.238558 1_565
K0 S0 3.238558 1_655
K0 S0 3.238558 1_556
S0 Sn0 2.770572 1_656
S0 Sn0 2.770572 1_566
S0 Sn0 2.770572 1_665
S1 Sn0 2.764255 1_655
S1 Sn0 2.764255 1_565
S1 Sn0 2.764255 1_556
