# generated using pymatgen
data_Li4Cr5Sn3O16
_symmetry_space_group_name_H-M   'P 1'
_cell_length_a   6.07965389
_cell_length_b   6.07965389
_cell_length_c   9.60344135
_cell_angle_alpha   89.66950476
_cell_angle_beta   89.66950476
_cell_angle_gamma   60.15447855
_symmetry_Int_Tables_number   1
_chemical_formula_structural   Li4Cr5Sn3O16
_chemical_formula_sum   'Li4 Cr5 Sn3 O16'
_cell_volume   307.87860894
_cell_formula_units_Z   1
loop_
 _symmetry_equiv_pos_site_id
 _symmetry_equiv_pos_as_xyz
  1  'x, y, z'
loop_
 _atom_site_type_symbol
 _atom_site_label
 _atom_site_symmetry_multiplicity
 _atom_site_fract_x
 _atom_site_fract_y
 _atom_site_fract_z
 _atom_site_occupancy
  Li  Li0  1  0.67047000  0.67047000  0.88796200  1
  Li  Li1  1  0.98688700  0.98688700  0.99199600  1
  Li  Li2  1  0.99368600  0.99368600  0.50167300  1
  Li  Li3  1  0.33462300  0.33462300  0.39629000  1
  Cr  Cr0  1  0.66932000  0.66932000  0.48907400  1
  Cr  Cr1  1  0.83043200  0.83043200  0.21495500  1
  Cr  Cr2  1  0.33846500  0.33846500  0.98281500  1
  Cr  Cr3  1  0.66116000  0.16979800  0.71107300  1
  Cr  Cr4  1  0.16979800  0.66116000  0.71107300  1
  Sn  Sn0  1  0.83160400  0.33846400  0.21318800  1
  Sn  Sn1  1  0.33846400  0.83160400  0.21318800  1
  Sn  Sn2  1  0.17009100  0.17009100  0.71383100  1
  O  O0  1  0.82926700  0.32777700  0.59850300  1
  O  O1  1  0.52052400  0.52052400  0.35002000  1
  O  O2  1  0.67180700  0.67180700  0.09754500  1
  O  O3  1  0.99522500  0.99522500  0.31679500  1
  O  O4  1  0.99460800  0.99460800  0.80797600  1
  O  O5  1  0.32777700  0.82926700  0.59850300  1
  O  O6  1  0.96124900  0.52500800  0.34499500  1
  O  O7  1  0.52500800  0.96124900  0.34499500  1
  O  O8  1  0.16353800  0.16353800  0.09306700  1
  O  O9  1  0.83359600  0.83359600  0.60895200  1
  O  O10  1  0.48873000  0.04314800  0.84305400  1
  O  O11  1  0.04314800  0.48873000  0.84305400  1
  O  O12  1  0.33841900  0.33841900  0.60173100  1
  O  O13  1  0.67211100  0.16256800  0.09911700  1
  O  O14  1  0.47863900  0.47863900  0.83324100  1
  O  O15  1  0.16256800  0.67211100  0.09911700  1
loop_
_geom_bond_atom_site_label_1
_geom_bond_atom_site_label_2
_geom_bond_distance
_geom_bond_site_symmetry_2
Li0 O11 2.010704 1_655
Li0 O10 2.010704 1_565
Li0 O2 2.012861 1_556
Li0 O14 2.089132 1_555
Li1 O4 1.768551 1_555
Li1 O15 1.953699 1_656
Li1 O13 1.953699 1_566
Li1 O8 2.102632 1_666
Li2 O3 1.775431 1_555
Li2 O9 1.968689 1_555
Li2 O0 1.994925 1_565
Li2 O5 1.994925 1_655
Li3 O12 1.973611 1_555
Li3 O1 2.003008 1_555
Li3 O6 2.031353 1_455
Li3 O7 2.031353 1_545
Cr0 O1 2.064556 1_555
Cr0 O6 2.066413 1_555
Cr0 O7 2.066413 1_555
Cr0 O5 2.082916 1_555
Cr0 O0 2.082916 1_555
Cr0 O9 2.083189 1_555
Cr1 O3 1.996433 1_555
Cr1 O2 2.020447 1_555
Cr1 O6 2.038354 1_555
Cr1 O7 2.038354 1_555
Cr1 O13 2.072044 1_565
Cr1 O15 2.072044 1_655
Cr2 O14 2.051941 1_555
Cr2 O10 2.059296 1_555
Cr2 O11 2.059296 1_555
Cr2 O15 2.087814 1_556
Cr2 O13 2.087814 1_556
Cr2 O8 2.117276 1_556
Cr3 O4 1.992835 1_545
Cr3 O12 2.003211 1_555
Cr3 O14 2.017415 1_555
Cr3 O10 2.018703 1_555
Cr3 O0 2.021886 1_555
Cr3 O9 2.029088 1_545
Cr4 O4 1.992835 1_455
Cr4 O12 2.003211 1_555
Cr4 O14 2.017415 1_555
Cr4 O11 2.018703 1_555
Cr4 O5 2.021886 1_555
Cr4 O9 2.029088 1_455
O0 Sn2 2.115733 1_655
O1 Sn1 2.105536 1_555
O1 Sn0 2.105536 1_555
O2 Sn1 2.076333 1_555
O2 Sn0 2.076333 1_555
O3 Sn1 2.062885 1_655
O3 Sn0 2.062885 1_565
O4 Sn2 2.050493 1_665
O5 Sn2 2.115733 1_565
O6 Sn0 2.104173 1_555
O7 Sn1 2.104173 1_555
O8 Sn1 2.094136 1_545
O8 Sn0 2.094136 1_455
O10 Sn2 2.101681 1_555
O11 Sn2 2.101681 1_555
O12 Sn2 2.066527 1_555
O13 Sn0 2.083690 1_555
O15 Sn1 2.083690 1_555
