# generated using pymatgen
data_LiMnPO4
_symmetry_space_group_name_H-M   'P 1'
_cell_length_a   5.05845615
_cell_length_b   8.86791358
_cell_length_c   8.65109831
_cell_angle_alpha   81.49655662
_cell_angle_beta   74.94809759
_cell_angle_gamma   91.25156822
_symmetry_Int_Tables_number   1
_chemical_formula_structural   LiMnPO4
_chemical_formula_sum   'Li4 Mn4 P4 O16'
_cell_volume   369.89847387
_cell_formula_units_Z   4
loop_
 _symmetry_equiv_pos_site_id
 _symmetry_equiv_pos_as_xyz
  1  'x, y, z'
loop_
 _atom_site_type_symbol
 _atom_site_label
 _atom_site_symmetry_multiplicity
 _atom_site_fract_x
 _atom_site_fract_y
 _atom_site_fract_z
 _atom_site_occupancy
  Li  Li0  1  0.71399700  0.27985200  0.50343200  1
  Li  Li1  1  0.21397100  0.78027900  0.50341700  1
  Li  Li2  1  0.52772200  0.46637100  0.00320400  1
  Li  Li3  1  0.02776900  0.96634900  0.00326500  1
  Mn  Mn0  1  0.90640300  0.59819100  0.24792700  1
  Mn  Mn1  1  0.60072700  0.90299500  0.74876800  1
  Mn  Mn2  1  0.40480500  0.09851200  0.24826200  1
  Mn  Mn3  1  0.10206400  0.40375900  0.74785100  1
  P  P0  1  0.96350000  0.28655300  0.12578700  1
  P  P1  1  0.46404300  0.78666900  0.12598800  1
  P  P2  1  0.16252900  0.08823300  0.62606800  1
  P  P3  1  0.66308400  0.58819100  0.62566100  1
  O  O0  1  0.06706100  0.12306200  0.15087200  1
  O  O1  1  0.56764800  0.62321600  0.15125800  1
  O  O2  1  0.96944400  0.22181100  0.65131800  1
  O  O3  1  0.46922000  0.72151700  0.65107200  1
  O  O4  1  0.67618900  0.27316900  0.09298800  1
  O  O5  1  0.17709100  0.77298600  0.09268600  1
  O  O6  1  0.49935000  0.45114600  0.59282500  1
  O  O7  1  0.99828000  0.95124900  0.59334200  1
  O  O8  1  0.94606300  0.36113300  0.27998700  1
  O  O9  1  0.44572300  0.86153600  0.28000400  1
  O  O10  1  0.26619300  0.04198000  0.77996100  1
  O  O11  1  0.76634300  0.54216800  0.77977000  1
  O  O12  1  0.41919800  0.13460500  0.47956800  1
  O  O13  1  0.91977500  0.63479400  0.47930700  1
  O  O14  1  0.16169400  0.39192400  0.97963000  1
  O  O15  1  0.66241800  0.89187700  0.97976200  1
loop_
_geom_bond_atom_site_label_1
_geom_bond_atom_site_label_2
_geom_bond_distance
_geom_bond_site_symmetry_2
Li0 O8 2.001655 1_555
Li0 O6 2.016867 1_555
Li0 O12 2.019915 1_555
Li0 O2 2.065034 1_555
Li1 O9 2.000881 1_555
Li1 O7 2.018553 1_455
Li1 O13 2.019799 1_455
Li1 O3 2.063859 1_555
Li2 O11 2.003390 1_554
Li2 O4 2.017015 1_555
Li2 O14 2.021923 1_554
Li2 O1 2.065145 1_555
Li3 O10 2.001929 1_564
Li3 O15 2.018556 1_454
Li3 O5 2.019168 1_555
Li3 O0 2.060590 1_565
Mn0 O13 2.092419 1_555
Mn0 O1 2.095476 1_555
Mn0 O8 2.100322 1_555
Mn0 O5 2.101848 1_655
Mn1 O15 2.089853 1_555
Mn1 O3 2.096258 1_555
Mn1 O10 2.099480 1_565
Mn1 O7 2.103100 1_555
Mn2 O12 2.091892 1_555
Mn2 O0 2.094213 1_555
Mn2 O9 2.100557 1_545
Mn2 O4 2.102838 1_555
Mn3 O14 2.091861 1_555
Mn3 O2 2.095956 1_455
Mn3 O6 2.100126 1_555
Mn3 O11 2.101064 1_455
O0 P0 1.556499 1_455
O1 P1 1.556421 1_555
O2 P2 1.555993 1_655
O3 P3 1.556741 1_555
O4 P0 1.556739 1_555
O5 P1 1.557087 1_555
O6 P3 1.556909 1_555
O7 P2 1.557530 1_665
O8 P0 1.557914 1_555
O9 P1 1.557192 1_555
O10 P2 1.557623 1_555
O11 P3 1.557863 1_555
O12 P2 1.558515 1_555
O13 P3 1.558138 1_555
O14 P0 1.558292 1_456
O15 P1 1.558336 1_556
