# generated using pymatgen
data_Sr(ClO)2
_symmetry_space_group_name_H-M   'P 1'
_cell_length_a   5.86871110
_cell_length_b   5.86871110
_cell_length_c   7.20535410
_cell_angle_alpha   80.09008529
_cell_angle_beta   80.09008529
_cell_angle_gamma   61.43107002
_symmetry_Int_Tables_number   1
_chemical_formula_structural   Sr(ClO)2
_chemical_formula_sum   'Sr2 Cl4 O4'
_cell_volume   213.53757755
_cell_formula_units_Z   2
loop_
 _symmetry_equiv_pos_site_id
 _symmetry_equiv_pos_as_xyz
  1  'x, y, z'
loop_
 _atom_site_type_symbol
 _atom_site_label
 _atom_site_symmetry_multiplicity
 _atom_site_fract_x
 _atom_site_fract_y
 _atom_site_fract_z
 _atom_site_occupancy
  Sr  Sr0  1  0.66915100  0.33084900  0.25000000  1
  Sr  Sr1  1  0.33084900  0.66915100  0.75000000  1
  Cl  Cl0  1  0.66785800  0.98001600  0.74288100  1
  Cl  Cl1  1  0.01998400  0.33214200  0.75711900  1
  Cl  Cl2  1  0.33214200  0.01998400  0.25711900  1
  Cl  Cl3  1  0.98001600  0.66785800  0.24288100  1
  O  O0  1  0.25465400  0.55217700  0.09544900  1
  O  O1  1  0.44782300  0.74534600  0.40455100  1
  O  O2  1  0.74534600  0.44782300  0.90455100  1
  O  O3  1  0.55217700  0.25465400  0.59544900  1
loop_
_geom_bond_atom_site_label_1
_geom_bond_atom_site_label_2
_geom_bond_distance
_geom_bond_site_symmetry_2
Cl0 O3 1.673182 1_565
Cl1 O2 1.673182 1_455
Cl2 O1 1.673182 1_545
Cl3 O0 1.673182 1_655
O0 Sr1 2.487791 1_554
O0 Sr0 2.501426 1_555
O1 Sr1 2.487791 1_555
O1 Sr0 2.501426 1_555
O2 Sr0 2.487791 1_556
O2 Sr1 2.501426 1_555
O3 Sr0 2.487791 1_555
O3 Sr1 2.501426 1_555
