# generated using pymatgen
data_Ta2PbO6
_symmetry_space_group_name_H-M   'P 1'
_cell_length_a   5.27359900
_cell_length_b   6.13279900
_cell_length_c   15.90032200
_cell_angle_alpha   90.00000000
_cell_angle_beta   90.00000000
_cell_angle_gamma   90.00000000
_symmetry_Int_Tables_number   1
_chemical_formula_structural   Ta2PbO6
_chemical_formula_sum   'Ta8 Pb4 O24'
_cell_volume   514.24698461
_cell_formula_units_Z   4
loop_
 _symmetry_equiv_pos_site_id
 _symmetry_equiv_pos_as_xyz
  1  'x, y, z'
loop_
 _atom_site_type_symbol
 _atom_site_label
 _atom_site_symmetry_multiplicity
 _atom_site_fract_x
 _atom_site_fract_y
 _atom_site_fract_z
 _atom_site_occupancy
  Ta  Ta0  1  0.77067900  0.82502600  0.67126000  1
  Ta  Ta1  1  0.27067900  0.17497400  0.67126000  1
  Ta  Ta2  1  0.27067900  0.67497400  0.82874000  1
  Ta  Ta3  1  0.77067900  0.32502600  0.82874000  1
  Ta  Ta4  1  0.22932100  0.67497400  0.17126000  1
  Ta  Ta5  1  0.72932100  0.32502600  0.17126000  1
  Ta  Ta6  1  0.72932100  0.82502600  0.32874000  1
  Ta  Ta7  1  0.22932100  0.17497400  0.32874000  1
  Pb  Pb0  1  0.25000000  0.70504500  0.50000000  1
  Pb  Pb1  1  0.75000000  0.29495500  0.50000000  1
  Pb  Pb2  1  0.75000000  0.79495500  0.00000000  1
  Pb  Pb3  1  0.25000000  0.20504500  0.00000000  1
  O  O0  1  0.86716600  0.62474600  0.59292100  1
  O  O1  1  0.36716600  0.37525400  0.59292100  1
  O  O2  1  0.46500900  0.92548600  0.61425200  1
  O  O3  1  0.96500900  0.07451400  0.61425200  1
  O  O4  1  0.59196100  0.14293700  0.74522200  1
  O  O5  1  0.09196100  0.85706300  0.74522200  1
  O  O6  1  0.59196100  0.64293700  0.75477800  1
  O  O7  1  0.09196100  0.35706300  0.75477800  1
  O  O8  1  0.96500900  0.57451400  0.88574800  1
  O  O9  1  0.46500900  0.42548600  0.88574800  1
  O  O10  1  0.36716600  0.87525400  0.90707900  1
  O  O11  1  0.86716600  0.12474600  0.90707900  1
  O  O12  1  0.13283400  0.87525400  0.09292100  1
  O  O13  1  0.63283400  0.12474600  0.09292100  1
  O  O14  1  0.53499100  0.57451400  0.11425200  1
  O  O15  1  0.03499100  0.42548600  0.11425200  1
  O  O16  1  0.90803900  0.64293700  0.24522200  1
  O  O17  1  0.40803900  0.35706300  0.24522200  1
  O  O18  1  0.40803900  0.85706300  0.25477800  1
  O  O19  1  0.90803900  0.14293700  0.25477800  1
  O  O20  1  0.03499100  0.92548600  0.38574800  1
  O  O21  1  0.53499100  0.07451400  0.38574800  1
  O  O22  1  0.63283400  0.62474600  0.40707900  1
  O  O23  1  0.13283400  0.37525400  0.40707900  1
loop_
_geom_bond_atom_site_label_1
_geom_bond_atom_site_label_2
_geom_bond_distance
_geom_bond_site_symmetry_2
O0 Ta0 1.821849 1_555
O0 Pb0 2.549795 1_655
O0 Pb1 2.579804 1_555
O1 Ta1 1.821849 1_555
O1 Pb1 2.549795 1_555
O1 Pb0 2.579804 1_555
O2 Ta0 1.949284 1_555
O2 Ta1 2.052554 1_565
O2 Pb0 2.532498 1_555
O3 Ta1 1.949284 1_655
O3 Ta0 2.052554 1_545
O3 Pb1 2.532498 1_555
O4 Ta3 1.974543 1_555
O4 Ta1 2.071791 1_555
O4 Ta0 2.464259 1_545
O5 Ta2 1.974543 1_555
O5 Ta0 2.071791 1_455
O5 Ta1 2.464259 1_565
O6 Ta0 1.974543 1_555
O6 Ta2 2.071791 1_555
O6 Ta3 2.464259 1_555
O7 Ta1 1.974543 1_555
O7 Ta3 2.071791 1_455
O7 Ta2 2.464259 1_555
O8 Ta2 1.949284 1_655
O8 Ta3 2.052554 1_555
O8 Pb2 2.532498 1_556
O9 Ta3 1.949284 1_555
O9 Ta2 2.052554 1_555
O9 Pb3 2.532498 1_556
O10 Ta2 1.821849 1_555
O10 Pb2 2.549795 1_556
O10 Pb3 2.579804 1_566
O11 Ta3 1.821849 1_555
O11 Pb3 2.549795 1_656
O11 Pb2 2.579804 1_546
O12 Ta4 1.821849 1_555
O12 Pb2 2.549795 1_455
O12 Pb3 2.579804 1_565
O13 Ta5 1.821849 1_555
O13 Pb3 2.549795 1_555
O13 Pb2 2.579804 1_545
O14 Ta4 1.949284 1_555
O14 Ta5 2.052554 1_555
O14 Pb2 2.532498 1_555
O15 Ta5 1.949284 1_455
O15 Ta4 2.052554 1_555
O15 Pb3 2.532498 1_555
O16 Ta6 1.974543 1_555
O16 Ta4 2.071791 1_655
O16 Ta5 2.464259 1_555
O17 Ta7 1.974543 1_555
O17 Ta5 2.071791 1_555
O17 Ta4 2.464259 1_555
O18 Ta4 1.974543 1_555
O18 Ta6 2.071791 1_555
O18 Ta7 2.464259 1_565
O19 Ta5 1.974543 1_555
O19 Ta7 2.071791 1_655
O19 Ta6 2.464259 1_545
O20 Ta6 1.949284 1_455
O20 Ta7 2.052554 1_565
O20 Pb0 2.532498 1_555
O21 Ta7 1.949284 1_555
O21 Ta6 2.052554 1_545
O21 Pb1 2.532498 1_555
O22 Ta6 1.821849 1_555
O22 Pb0 2.549795 1_555
O22 Pb1 2.579804 1_555
O23 Ta7 1.821849 1_555
O23 Pb1 2.549795 1_455
O23 Pb0 2.579804 1_555
