# generated using pymatgen
data_Li3Co2(PO4)3
_symmetry_space_group_name_H-M   'P 1'
_cell_length_a   8.83090003
_cell_length_b   8.83090003
_cell_length_c   8.83090001
_cell_angle_alpha   56.19526902
_cell_angle_beta   56.19526902
_cell_angle_gamma   56.19526582
_symmetry_Int_Tables_number   1
_chemical_formula_structural   Li3Co2(PO4)3
_chemical_formula_sum   'Li6 Co4 P6 O24'
_cell_volume   444.08212210
_cell_formula_units_Z   2
loop_
 _symmetry_equiv_pos_site_id
 _symmetry_equiv_pos_as_xyz
  1  'x, y, z'
loop_
 _atom_site_type_symbol
 _atom_site_label
 _atom_site_symmetry_multiplicity
 _atom_site_fract_x
 _atom_site_fract_y
 _atom_site_fract_z
 _atom_site_occupancy
  Li  Li0  1  0.66836300  0.26412900  0.92074100  1
  Li  Li1  1  0.26412900  0.92074100  0.66836300  1
  Li  Li2  1  0.92074100  0.66836300  0.26412900  1
  Li  Li3  1  0.07925900  0.33163700  0.73587100  1
  Li  Li4  1  0.73587100  0.07925900  0.33163700  1
  Li  Li5  1  0.33163700  0.73587100  0.07925900  1
  Co  Co0  1  0.85234600  0.85234600  0.85234600  1
  Co  Co1  1  0.65278000  0.65278000  0.65278000  1
  Co  Co2  1  0.34722000  0.34722000  0.34722000  1
  Co  Co3  1  0.14765400  0.14765400  0.14765400  1
  P  P0  1  0.25783900  0.53832900  0.95755200  1
  P  P1  1  0.95755200  0.25783900  0.53832900  1
  P  P2  1  0.53832900  0.95755200  0.25783900  1
  P  P3  1  0.46167100  0.04244800  0.74216100  1
  P  P4  1  0.04244800  0.74216100  0.46167100  1
  P  P5  1  0.74216100  0.46167100  0.04244800  1
  O  O0  1  0.78476900  0.46784900  0.83911300  1
  O  O1  1  0.46784900  0.83911300  0.78476900  1
  O  O2  1  0.83911300  0.78476900  0.46784900  1
  O  O3  1  0.47486100  0.50589700  0.82561100  1
  O  O4  1  0.12394500  0.74649000  0.87303600  1
  O  O5  1  0.20494000  0.38433500  0.98674300  1
  O  O6  1  0.87303600  0.12394500  0.74649000  1
  O  O7  1  0.82561100  0.47486100  0.50589700  1
  O  O8  1  0.50589700  0.82561100  0.47486100  1
  O  O9  1  0.61566500  0.01325700  0.79506000  1
  O  O10  1  0.25351000  0.12696400  0.87605500  1
  O  O11  1  0.01325700  0.79506000  0.61566500  1
  O  O12  1  0.98674300  0.20494000  0.38433500  1
  O  O13  1  0.74649000  0.87303600  0.12394500  1
  O  O14  1  0.38433500  0.98674300  0.20494000  1
  O  O15  1  0.49410300  0.17438900  0.52513900  1
  O  O16  1  0.17438900  0.52513900  0.49410300  1
  O  O17  1  0.12696400  0.87605500  0.25351000  1
  O  O18  1  0.79506000  0.61566500  0.01325700  1
  O  O19  1  0.87605500  0.25351000  0.12696400  1
  O  O20  1  0.52513900  0.49410300  0.17438900  1
  O  O21  1  0.16088700  0.21523100  0.53215100  1
  O  O22  1  0.53215100  0.16088700  0.21523100  1
  O  O23  1  0.21523100  0.53215100  0.16088700  1
loop_
_geom_bond_atom_site_label_1
_geom_bond_atom_site_label_2
_geom_bond_distance
_geom_bond_site_symmetry_2
Li0 O6 1.924158 1_555
Li0 O3 1.930295 1_555
Li0 O22 2.035307 1_556
Li0 O0 2.145488 1_555
Li1 O4 1.924158 1_555
Li1 O8 1.930295 1_555
Li1 O21 2.035307 1_565
Li1 O1 2.145488 1_555
Li2 O13 1.924158 1_555
Li2 O7 1.930295 1_555
Li2 O23 2.035307 1_655
Li2 O2 2.145488 1_555
Li3 O10 1.924158 1_555
Li3 O16 1.930295 1_555
Li3 O0 2.035307 1_455
Li3 O21 2.145488 1_555
Li4 O19 1.924158 1_555
Li4 O15 1.930295 1_555
Li4 O2 2.035307 1_545
Li4 O22 2.145488 1_555
Li5 O17 1.924158 1_555
Li5 O20 1.930295 1_555
Li5 O1 2.035307 1_554
Li5 O23 2.145488 1_555
Co0 O9 1.927565 1_565
Co0 O11 1.927565 1_655
Co0 O18 1.927565 1_556
Co0 O4 2.112487 1_655
Co0 O13 2.112487 1_556
Co0 O6 2.112487 1_565
Co1 O1 1.938845 1_555
Co1 O0 1.938845 1_555
Co1 O2 1.938845 1_555
Co1 O7 1.969026 1_555
Co1 O8 1.969026 1_555
Co1 O3 1.969026 1_555
Co2 O22 1.938845 1_555
Co2 O23 1.938845 1_555
Co2 O21 1.938845 1_555
Co2 O16 1.969026 1_555
Co2 O15 1.969026 1_555
Co2 O20 1.969026 1_555
Co3 O14 1.927565 1_545
Co3 O12 1.927565 1_455
Co3 O5 1.927565 1_554
Co3 O19 2.112487 1_455
Co3 O10 2.112487 1_554
Co3 O17 2.112487 1_545
O0 P5 1.590873 1_556
O1 P3 1.590873 1_565
O2 P4 1.590873 1_655
O3 P0 1.545444 1_555
O4 P0 1.539817 1_555
O5 P0 1.522115 1_555
O6 P1 1.539817 1_555
O7 P1 1.545443 1_555
O8 P2 1.545444 1_555
O9 P3 1.522114 1_555
O10 P3 1.539817 1_555
O11 P4 1.522114 1_555
O12 P1 1.522114 1_555
O13 P2 1.539817 1_555
O14 P2 1.522114 1_555
O15 P3 1.545444 1_555
O16 P4 1.545443 1_555
O17 P4 1.539817 1_555
O18 P5 1.522115 1_555
O19 P5 1.539817 1_555
O20 P5 1.545444 1_555
O21 P1 1.590873 1_455
O22 P2 1.590873 1_545
O23 P0 1.590873 1_554
