# generated using pymatgen
data_Na(WO3)10
_symmetry_space_group_name_H-M   'P 1'
_cell_length_a   6.70542284
_cell_length_b   6.70542284
_cell_length_c   13.98225546
_cell_angle_alpha   80.55962242
_cell_angle_beta   80.55962242
_cell_angle_gamma   70.36981582
_symmetry_Int_Tables_number   1
_chemical_formula_structural   Na(WO3)10
_chemical_formula_sum   'Na1 W10 O30'
_cell_volume   580.09447200
_cell_formula_units_Z   1
loop_
 _symmetry_equiv_pos_site_id
 _symmetry_equiv_pos_as_xyz
  1  'x, y, z'
loop_
 _atom_site_type_symbol
 _atom_site_label
 _atom_site_symmetry_multiplicity
 _atom_site_fract_x
 _atom_site_fract_y
 _atom_site_fract_z
 _atom_site_occupancy
  Na  Na0  1  0.30056400  0.69943600  0.50000000  1
  W  W0  1  0.39602200  0.29525000  0.09428500  1
  W  W1  1  0.19559100  0.09475600  0.89591500  1
  W  W2  1  0.30849000  0.19925600  0.50444500  1
  W  W3  1  0.10131000  0.00960700  0.30188800  1
  W  W4  1  0.70475000  0.60397800  0.90571500  1
  W  W5  1  0.50231700  0.40602800  0.70663700  1
  W  W6  1  0.90524400  0.80440900  0.10408500  1
  W  W7  1  0.59397200  0.49768300  0.29336300  1
  W  W8  1  0.99039300  0.89869000  0.69811200  1
  W  W9  1  0.80074400  0.69151000  0.49555500  1
  O  O0  1  0.35005300  0.25088300  0.79994600  1
  O  O1  1  0.94991500  0.35010300  0.89976600  1
  O  O2  1  0.49740600  0.39878100  0.19887600  1
  O  O3  1  0.29841200  0.19879900  0.99849500  1
  O  O4  1  0.09911000  0.99923500  0.79809000  1
  O  O5  1  0.44811900  0.35375700  0.40129400  1
  O  O6  1  0.24907700  0.15036500  0.19987900  1
  O  O7  1  0.45001300  0.85024800  0.89987300  1
  O  O8  1  0.84963500  0.75092300  0.80012100  1
  O  O9  1  0.04984800  0.95015200  0.00000000  1
  O  O10  1  0.64989700  0.05008500  0.10023400  1
  O  O11  1  0.84843700  0.25082400  0.30065300  1
  O  O12  1  0.20302600  0.09615600  0.40204200  1
  O  O13  1  0.80120100  0.70158800  0.00150500  1
  O  O14  1  0.60121900  0.50259400  0.80112400  1
  O  O15  1  0.00076500  0.90089000  0.20191000  1
  O  O16  1  0.40031600  0.30478500  0.59996900  1
  O  O17  1  0.14975200  0.54998700  0.10012700  1
  O  O18  1  0.15306300  0.04468500  0.59859000  1
  O  O19  1  0.74911700  0.64994700  0.20005400  1
  O  O20  1  0.34886900  0.75034100  0.30244300  1
  O  O21  1  0.54964300  0.45035700  0.00000000  1
  O  O22  1  0.74917600  0.15156300  0.69934700  1
  O  O23  1  0.95531500  0.84693700  0.40141000  1
  O  O24  1  0.55026500  0.94600400  0.49973600  1
  O  O25  1  0.69521500  0.59968400  0.40003100  1
  O  O26  1  0.90384400  0.79697400  0.59795800  1
  O  O27  1  0.05399600  0.44973500  0.50026400  1
  O  O28  1  0.24965900  0.65113100  0.69755700  1
  O  O29  1  0.64624300  0.55188100  0.59870600  1
loop_
_geom_bond_atom_site_label_1
_geom_bond_atom_site_label_2
_geom_bond_distance
_geom_bond_site_symmetry_2
Na0 O23 2.701688 1_455
Na0 O18 2.701688 1_565
Na0 O16 2.703354 1_555
Na0 O25 2.703354 1_555
Na0 O12 2.703687 1_565
Na0 O26 2.703687 1_455
Na0 O29 2.705001 1_555
Na0 O5 2.705001 1_555
Na0 O28 2.706134 1_555
Na0 O20 2.706134 1_555
Na0 O27 2.719001 1_555
Na0 O24 2.719001 1_555
O0 W5 1.912665 1_555
O0 W1 1.944512 1_555
O1 W4 1.930977 1_555
O1 W1 1.937612 1_655
O2 W7 1.860394 1_555
O2 W0 2.014706 1_555
O3 W0 1.869948 1_556
O3 W1 1.998780 1_555
O4 W1 1.885684 1_565
O4 W8 1.978344 1_455
O5 W2 1.936144 1_555
O5 W7 1.958970 1_555
O6 W3 1.905285 1_555
O6 W0 1.946794 1_555
O7 W1 1.929627 1_565
O7 W4 1.938451 1_555
O8 W8 1.905285 1_555
O8 W4 1.946794 1_555
O9 W6 1.928851 1_455
O9 W1 1.928851 1_564
O10 W0 1.930977 1_555
O10 W6 1.937612 1_545
O11 W3 1.910317 1_655
O11 W7 1.940573 1_555
O12 W3 1.899719 1_555
O12 W2 2.003379 1_555
O13 W4 1.869948 1_554
O13 W6 1.998780 1_555
O14 W5 1.860394 1_555
O14 W4 2.014706 1_555
O15 W6 1.885684 1_455
O15 W3 1.978344 1_565
O16 W2 1.880519 1_555
O16 W5 2.032705 1_555
O17 W6 1.929627 1_455
O17 W0 1.938451 1_555
O18 W2 1.929098 1_555
O18 W8 1.963974 1_445
O19 W7 1.912665 1_555
O19 W6 1.944512 1_555
O20 W7 1.928416 1_555
O20 W3 1.959275 1_565
O21 W4 1.924928 1_554
O21 W0 1.924928 1_555
O22 W8 1.910317 1_545
O22 W5 1.940573 1_555
O23 W9 1.929098 1_555
O23 W3 1.963974 1_665
O24 W2 1.915275 1_565
O24 W9 1.952236 1_555
O25 W9 1.880519 1_555
O25 W7 2.032705 1_555
O26 W8 1.899719 1_555
O26 W9 2.003379 1_555
O27 W9 1.915275 1_455
O27 W2 1.952236 1_555
O28 W5 1.928416 1_555
O28 W8 1.959275 1_455
O29 W9 1.936144 1_555
O29 W5 1.958970 1_555
