# generated using pymatgen
data_YNb2NO5
_symmetry_space_group_name_H-M   'P 1'
_cell_length_a   5.28814300
_cell_length_b   5.93516122
_cell_length_c   15.00866264
_cell_angle_alpha   89.70719741
_cell_angle_beta   89.77478900
_cell_angle_gamma   89.75508696
_symmetry_Int_Tables_number   1
_chemical_formula_structural   YNb2NO5
_chemical_formula_sum   'Y4 Nb8 N4 O20'
_cell_volume   471.04755137
_cell_formula_units_Z   4
loop_
 _symmetry_equiv_pos_site_id
 _symmetry_equiv_pos_as_xyz
  1  'x, y, z'
loop_
 _atom_site_type_symbol
 _atom_site_label
 _atom_site_symmetry_multiplicity
 _atom_site_fract_x
 _atom_site_fract_y
 _atom_site_fract_z
 _atom_site_occupancy
  Y  Y0  1  0.25045200  0.70238000  0.00386900  1
  Y  Y1  1  0.75951700  0.29687100  0.00022700  1
  Y  Y2  1  0.76085100  0.79034600  0.49700900  1
  Y  Y3  1  0.25380200  0.20043300  0.50129400  1
  Nb  Nb0  1  0.71497600  0.82338000  0.16937100  1
  Nb  Nb1  1  0.23372300  0.17693300  0.17053900  1
  Nb  Nb2  1  0.22865900  0.68243800  0.33004500  1
  Nb  Nb3  1  0.74668100  0.32207400  0.33882200  1
  Nb  Nb4  1  0.26821900  0.67530100  0.66790400  1
  Nb  Nb5  1  0.78308900  0.30378600  0.66425500  1
  Nb  Nb6  1  0.76608400  0.82198300  0.83289700  1
  Nb  Nb7  1  0.28215300  0.19288900  0.83699100  1
  N  N0  1  0.39787800  0.87470200  0.23992300  1
  N  N1  1  0.03155200  0.41685600  0.40166800  1
  N  N2  1  0.89748700  0.10109100  0.58339000  1
  N  N3  1  0.39736600  0.39246100  0.91822800  1
  O  O0  1  0.10344100  0.39024000  0.08562700  1
  O  O1  1  0.60611400  0.61442200  0.08345700  1
  O  O2  1  0.02305300  0.92733300  0.09630400  1
  O  O3  1  0.53203500  0.09061700  0.09567800  1
  O  O4  1  0.90155800  0.13089900  0.24282300  1
  O  O5  1  0.39454200  0.37474600  0.25320600  1
  O  O6  1  0.90218600  0.63463600  0.25397600  1
  O  O7  1  0.53345500  0.58477700  0.39813000  1
  O  O8  1  0.10617400  0.89057800  0.41491100  1
  O  O9  1  0.60145500  0.10653600  0.41704000  1
  O  O10  1  0.39851400  0.87436700  0.58207400  1
  O  O11  1  0.96629500  0.58236500  0.59967100  1
  O  O12  1  0.46527300  0.41168800  0.60168500  1
  O  O13  1  0.58410800  0.64083700  0.74680900  1
  O  O14  1  0.10305300  0.37284300  0.74236300  1
  O  O15  1  0.08376200  0.85650200  0.75390900  1
  O  O16  1  0.60168900  0.12374000  0.75836700  1
  O  O17  1  0.46334500  0.91263400  0.90208300  1
  O  O18  1  0.96046100  0.08624300  0.89772600  1
  O  O19  1  0.89699600  0.62007100  0.91773000  1
loop_
_geom_bond_atom_site_label_1
_geom_bond_atom_site_label_2
_geom_bond_distance
_geom_bond_site_symmetry_2
Nb0 O1 1.886922 1_555
Nb0 O6 1.957873 1_555
Nb0 O2 2.055494 1_655
Nb0 O3 2.156912 1_565
Nb0 O4 2.358944 1_565
Nb1 O5 1.916440 1_555
Nb1 O0 1.919512 1_555
Nb1 O3 1.999611 1_555
Nb1 O4 2.079216 1_455
Nb1 O2 2.172053 1_545
Nb2 O8 1.889642 1_555
Nb2 O7 1.994243 1_555
Nb2 O6 2.094644 1_455
Nb2 O5 2.331176 1_555
Nb3 O9 1.894832 1_555
Nb3 O4 2.008398 1_555
Nb3 O7 2.118035 1_555
Nb3 O5 2.286106 1_555
Nb3 O6 2.391636 1_555
Nb4 O10 1.874708 1_555
Nb4 O15 1.941551 1_555
Nb4 O11 1.982006 1_455
Nb4 O13 2.060321 1_555
Nb4 O12 2.124939 1_555
Nb4 O14 2.284619 1_555
Nb5 O16 2.009959 1_555
Nb5 O12 2.028224 1_555
Nb5 O14 2.105141 1_655
Nb5 O11 2.145202 1_555
Nb5 O13 2.577070 1_555
Nb6 O19 1.876360 1_555
Nb6 O13 1.945304 1_555
Nb6 O17 1.978882 1_555
Nb6 O15 2.062608 1_655
Nb6 O18 2.121436 1_565
Nb6 O16 2.277821 1_565
Nb7 O14 2.010288 1_555
Nb7 O18 2.028942 1_455
Nb7 O16 2.097508 1_555
Nb7 O17 2.148580 1_545
Nb7 O15 2.587514 1_545
N0 Nb2 1.978866 1_555
N0 Nb0 2.002714 1_555
N0 Nb1 2.242849 1_565
N1 Nb3 1.870654 1_455
N1 Nb2 2.171303 1_555
N1 Y3 2.290921 1_555
N2 Nb5 1.813610 1_555
N2 Y3 2.323798 1_655
N2 Y2 2.376471 1_545
N3 Nb7 1.813170 1_555
N3 Y1 2.346534 1_556
N3 Y0 2.375559 1_556
O0 Y1 2.300411 1_455
O0 Y0 2.350278 1_555
O1 Y0 2.289029 1_555
O1 Y1 2.402849 1_555
O2 Y0 2.268346 1_555
O3 Y1 2.231387 1_555
O7 Y2 2.276418 1_555
O8 Y2 2.278372 1_455
O8 Y3 2.391029 1_565
O9 Y3 2.295575 1_555
O9 Y2 2.375757 1_545
O10 Y2 2.351421 1_555
O10 Y3 2.402373 1_565
O11 Y2 2.249539 1_555
O12 Y3 2.266596 1_555
O17 Y0 2.266598 1_556
O18 Y1 2.248126 1_556
O19 Y0 2.331727 1_656
O19 Y1 2.392036 1_556
