# generated using pymatgen
data_Li2MnV3O8
_symmetry_space_group_name_H-M   'P 1'
_cell_length_a   6.04153055
_cell_length_b   6.04153055
_cell_length_c   6.04153079
_cell_angle_alpha   59.10785449
_cell_angle_beta   59.10785449
_cell_angle_gamma   59.10785885
_symmetry_Int_Tables_number   1
_chemical_formula_structural   Li2MnV3O8
_chemical_formula_sum   'Li2 Mn1 V3 O8'
_cell_volume   152.75748287
_cell_formula_units_Z   1
loop_
 _symmetry_equiv_pos_site_id
 _symmetry_equiv_pos_as_xyz
  1  'x, y, z'
loop_
 _atom_site_type_symbol
 _atom_site_label
 _atom_site_symmetry_multiplicity
 _atom_site_fract_x
 _atom_site_fract_y
 _atom_site_fract_z
 _atom_site_occupancy
  Li  Li0  1  0.11998900  0.11998900  0.11998900  1
  Li  Li1  1  0.50167300  0.50167300  0.50167300  1
  Mn  Mn0  1  0.87818900  0.87818900  0.87818900  1
  V  V0  1  0.00731700  0.49801400  0.49801400  1
  V  V1  1  0.49801400  0.49801400  0.00731700  1
  V  V2  1  0.49801400  0.00731700  0.49801400  1
  O  O0  1  0.25978400  0.25978400  0.25978400  1
  O  O1  1  0.24770400  0.71009200  0.24770400  1
  O  O2  1  0.24770400  0.24770400  0.71009200  1
  O  O3  1  0.71009200  0.24770400  0.24770400  1
  O  O4  1  0.29413300  0.74893300  0.74893300  1
  O  O5  1  0.74893300  0.74893300  0.29413300  1
  O  O6  1  0.74893300  0.29413300  0.74893300  1
  O  O7  1  0.73952300  0.73952300  0.73952300  1
loop_
_geom_bond_atom_site_label_1
_geom_bond_atom_site_label_2
_geom_bond_distance
_geom_bond_site_symmetry_2
Li0 O1 2.002619 1_545
Li0 O3 2.002619 1_455
Li0 O2 2.002619 1_554
Li0 O0 2.082619 1_555
Li1 O5 2.116594 1_555
Li1 O6 2.116595 1_555
Li1 O4 2.116595 1_555
Li1 O2 2.178010 1_555
Li1 O3 2.178010 1_555
Li1 O1 2.178010 1_555
Mn0 O6 2.032380 1_565
Mn0 O4 2.032380 1_655
Mn0 O5 2.032380 1_556
Mn0 O7 2.065799 1_555
O0 V1 2.021919 1_555
O0 V2 2.021919 1_555
O0 V0 2.021919 1_555
O1 V0 1.924495 1_555
O1 V1 1.924495 1_555
O2 V2 1.924495 1_555
O2 V0 1.924495 1_555
O3 V2 1.924495 1_555
O3 V1 1.924495 1_555
O4 V2 1.969566 1_565
O4 V1 1.969566 1_556
O5 V2 1.969566 1_565
O5 V0 1.969566 1_655
O6 V0 1.969566 1_655
O6 V1 1.969566 1_556
O7 V1 2.052675 1_556
O7 V2 2.052675 1_565
O7 V0 2.052675 1_655
