# generated using pymatgen
data_Li2MnCu3O8
_symmetry_space_group_name_H-M   'P 1'
_cell_length_a   5.85485466
_cell_length_b   5.85485466
_cell_length_c   5.85485474
_cell_angle_alpha   60.21193403
_cell_angle_beta   60.21193403
_cell_angle_gamma   60.21193432
_symmetry_Int_Tables_number   1
_chemical_formula_structural   Li2MnCu3O8
_chemical_formula_sum   'Li2 Mn1 Cu3 O8'
_cell_volume   142.59765802
_cell_formula_units_Z   1
loop_
 _symmetry_equiv_pos_site_id
 _symmetry_equiv_pos_as_xyz
  1  'x, y, z'
loop_
 _atom_site_type_symbol
 _atom_site_label
 _atom_site_symmetry_multiplicity
 _atom_site_fract_x
 _atom_site_fract_y
 _atom_site_fract_z
 _atom_site_occupancy
  Li  Li0  1  0.12787900  0.12787900  0.12787900  1
  Li  Li1  1  0.87212100  0.87212100  0.87212100  1
  Mn  Mn0  1  0.50000000  0.50000000  0.50000000  1
  Cu  Cu0  1  0.50000000  0.00000000  0.50000000  1
  Cu  Cu1  1  0.00000000  0.50000000  0.50000000  1
  Cu  Cu2  1  0.50000000  0.50000000  0.00000000  1
  O  O0  1  0.26757900  0.26757900  0.26757900  1
  O  O1  1  0.26965400  0.26965400  0.71523000  1
  O  O2  1  0.71523000  0.26965400  0.26965400  1
  O  O3  1  0.26965400  0.71523000  0.26965400  1
  O  O4  1  0.73034600  0.28477000  0.73034600  1
  O  O5  1  0.28477000  0.73034600  0.73034600  1
  O  O6  1  0.73034600  0.73034600  0.28477000  1
  O  O7  1  0.73242100  0.73242100  0.73242100  1
loop_
_geom_bond_atom_site_label_1
_geom_bond_atom_site_label_2
_geom_bond_distance
_geom_bond_site_symmetry_2
Li0 O3 1.978512 1_545
Li0 O2 1.978512 1_455
Li0 O1 1.978513 1_554
Li0 O0 2.000280 1_555
Li1 O5 1.978512 1_655
Li1 O4 1.978512 1_565
Li1 O6 1.978513 1_556
Li1 O7 2.000280 1_555
Mn0 O6 1.911973 1_555
Mn0 O1 1.911973 1_555
Mn0 O5 1.911973 1_555
Mn0 O4 1.911973 1_555
Mn0 O3 1.911973 1_555
Mn0 O2 1.911973 1_555
Cu0 O7 1.939419 1_545
Cu0 O0 1.939419 1_555
Cu0 O2 2.017906 1_555
Cu0 O5 2.017906 1_545
Cu0 O1 2.017906 1_555
Cu0 O6 2.017906 1_545
Cu1 O7 1.939419 1_455
Cu1 O0 1.939419 1_555
Cu1 O3 2.017906 1_555
Cu1 O4 2.017906 1_455
Cu1 O1 2.017906 1_555
Cu1 O6 2.017906 1_455
Cu2 O7 1.939419 1_554
Cu2 O0 1.939419 1_555
Cu2 O2 2.017906 1_555
Cu2 O3 2.017906 1_555
Cu2 O4 2.017906 1_554
Cu2 O5 2.017906 1_554
