# generated using pymatgen
data_Li3MnV(PO4)3
_symmetry_space_group_name_H-M   'P 1'
_cell_length_a   8.65273400
_cell_length_b   8.65692194
_cell_length_c   12.65470476
_cell_angle_alpha   105.81364987
_cell_angle_beta   105.69819989
_cell_angle_gamma   95.34153818
_symmetry_Int_Tables_number   1
_chemical_formula_structural   Li3MnV(PO4)3
_chemical_formula_sum   'Li12 Mn4 V4 P12 O48'
_cell_volume   863.66147209
_cell_formula_units_Z   4
loop_
 _symmetry_equiv_pos_site_id
 _symmetry_equiv_pos_as_xyz
  1  'x, y, z'
loop_
 _atom_site_type_symbol
 _atom_site_label
 _atom_site_symmetry_multiplicity
 _atom_site_fract_x
 _atom_site_fract_y
 _atom_site_fract_z
 _atom_site_occupancy
  Li  Li0  1  0.99940000  0.00382900  0.12379900  1
  Li  Li1  1  0.99562000  0.00331200  0.62596400  1
  Li  Li2  1  0.71178800  0.28972600  0.37404400  1
  Li  Li3  1  0.49971700  0.49884700  0.25022800  1
  Li  Li4  1  0.71290400  0.28904100  0.87590300  1
  Li  Li5  1  0.49946500  0.49980400  0.49955900  1
  Li  Li6  1  0.28835200  0.71171500  0.12367500  1
  Li  Li7  1  0.50052500  0.50263900  0.75116400  1
  Li  Li8  1  0.49864800  0.49997900  0.99929500  1
  Li  Li9  1  0.28908400  0.71146100  0.62557000  1
  Li  Li10  1  0.00671600  0.99633100  0.37348900  1
  Li  Li11  1  0.00279200  0.99675900  0.87568900  1
  Mn  Mn0  1  0.37132400  0.05764800  0.06537300  1
  Mn  Mn1  1  0.63028000  0.94128300  0.93508600  1
  Mn  Mn2  1  0.05699000  0.37323200  0.31509000  1
  Mn  Mn3  1  0.05720700  0.37556200  0.81529500  1
  V  V0  1  0.94221900  0.62191700  0.17991300  1
  V  V1  1  0.94295200  0.62318800  0.67975900  1
  V  V2  1  0.62145600  0.94263500  0.42996600  1
  V  V3  1  0.38034700  0.05562600  0.57055200  1
  P  P0  1  0.71125600  0.28469100  0.12481600  1
  P  P1  1  0.86019600  0.66583500  0.43166000  1
  P  P2  1  0.66565400  0.85911800  0.18092400  1
  P  P3  1  0.71430500  0.28791700  0.62505600  1
  P  P4  1  0.86542000  0.66490000  0.93212200  1
  P  P5  1  0.66082700  0.86123600  0.68295200  1
  P  P6  1  0.33976500  0.13368700  0.31654900  1
  P  P7  1  0.13347000  0.33984600  0.06713900  1
  P  P8  1  0.28446700  0.71183200  0.37454800  1
  P  P9  1  0.33448500  0.13575200  0.81861600  1
  P  P10  1  0.13910000  0.33876100  0.56776000  1
  P  P11  1  0.28778900  0.71544500  0.87505200  1
  O  O0  1  0.98914100  0.65621300  0.04499300  1
  O  O1  1  0.94566200  0.61500900  0.33642000  1
  O  O2  1  0.73721500  0.17355700  0.01376000  1
  O  O3  1  0.98692500  0.66156100  0.54443000  1
  O  O4  1  0.82755900  0.26180700  0.23605800  1
  O  O5  1  0.84924700  0.84008300  0.19928100  1
  O  O6  1  0.73451500  0.46012900  0.11579400  1
  O  O7  1  0.84016100  0.84960500  0.45147300  1
  O  O8  1  0.94796100  0.60970600  0.83547600  1
  O  O9  1  0.74086700  0.17300800  0.51648500  1
  O  O10  1  0.82702100  0.26460900  0.73690700  1
  O  O11  1  0.84327100  0.84262700  0.69599300  1
  O  O12  1  0.70229900  0.54556200  0.39774100  1
  O  O13  1  0.61390600  0.94645500  0.08625200  1
  O  O14  1  0.66181800  0.98511200  0.29436900  1
  O  O15  1  0.53736800  0.25822300  0.13659400  1
  O  O16  1  0.73673500  0.46261800  0.61471400  1
  O  O17  1  0.54602500  0.70115600  0.14738200  1
  O  O18  1  0.85588500  0.85006500  0.95260800  1
  O  O19  1  0.70429600  0.54899600  0.89857800  1
  O  O20  1  0.60146600  0.95156500  0.58969000  1
  O  O21  1  0.45378200  0.29598300  0.35209500  1
  O  O22  1  0.66289100  0.98498400  0.79947900  1
  O  O23  1  0.53845800  0.26206300  0.63404900  1
  O  O24  1  0.46159100  0.73555900  0.36763600  1
  O  O25  1  0.34229900  0.01231100  0.20040900  1
  O  O26  1  0.54297200  0.70186200  0.64742600  1
  O  O27  1  0.40278200  0.04649300  0.41123600  1
  O  O28  1  0.29576300  0.45332900  0.10237200  1
  O  O29  1  0.14324700  0.15710100  0.05505400  1
  O  O30  1  0.45031100  0.29680200  0.85225900  1
  O  O31  1  0.25850000  0.53604400  0.38456200  1
  O  O32  1  0.46300500  0.73896500  0.86499300  1
  O  O33  1  0.34438300  0.01172400  0.70609500  1
  O  O34  1  0.39121200  0.05242500  0.91538700  1
  O  O35  1  0.29830700  0.45646500  0.60290600  1
  O  O36  1  0.15611700  0.14368100  0.30252700  1
  O  O37  1  0.17434700  0.73948700  0.26503800  1
  O  O38  1  0.25948100  0.82712100  0.48403300  1
  O  O39  1  0.04549900  0.40485000  0.16263700  1
  O  O40  1  0.15848800  0.15675100  0.55566700  1
  O  O41  1  0.26091300  0.53939900  0.88469800  1
  O  O42  1  0.14960300  0.14576300  0.79884500  1
  O  O43  1  0.17399000  0.74327300  0.76652800  1
  O  O44  1  0.01421500  0.33658100  0.45199700  1
  O  O45  1  0.26383300  0.82755100  0.98720100  1
  O  O46  1  0.04853700  0.40114100  0.66181700  1
  O  O47  1  0.01161100  0.34107400  0.95144500  1
loop_
_geom_bond_atom_site_label_1
_geom_bond_atom_site_label_2
_geom_bond_distance
_geom_bond_site_symmetry_2
Li0 O18 2.161459 1_544
Li0 O36 2.227632 1_655
Li0 O29 2.230282 1_655
Li0 O5 2.382536 1_545
Li1 O42 2.174523 1_655
Li1 O7 2.216728 1_545
Li1 O11 2.328239 1_545
Li1 O40 2.348546 1_655
Li2 O12 2.164948 1_555
Li2 O21 2.181539 1_555
Li2 O4 2.207404 1_555
Li2 O9 2.264509 1_555
Li2 O44 2.484510 1_655
Li2 O14 2.502023 1_545
Li3 O12 2.099219 1_555
Li3 O28 2.110075 1_555
Li3 O24 2.290689 1_555
Li3 O15 2.293562 1_555
Li3 O21 2.507004 1_555
Li3 O17 2.513082 1_555
Li4 O19 2.200696 1_555
Li4 O2 2.208680 1_556
Li4 O10 2.211255 1_555
Li4 O30 2.219951 1_555
Li4 O47 2.451240 1_655
Li4 O22 2.495010 1_545
Li5 O26 2.101225 1_555
Li5 O21 2.104365 1_555
Li5 O16 2.280770 1_555
Li5 O31 2.300461 1_555
Li5 O35 2.501682 1_555
Li5 O12 2.503958 1_555
Li6 O17 2.181811 1_555
Li6 O28 2.188057 1_555
Li6 O45 2.195101 1_554
Li6 O37 2.235122 1_555
Li6 O0 2.457199 1_455
Li6 O25 2.466538 1_565
Li7 O35 2.103791 1_555
Li7 O19 2.104803 1_555
Li7 O32 2.266372 1_555
Li7 O23 2.312984 1_555
Li7 O26 2.491920 1_555
Li7 O30 2.529778 1_555
Li8 O17 2.094175 1_556
Li8 O30 2.094993 1_555
Li8 O41 2.288477 1_555
Li8 O6 2.288622 1_556
Li8 O28 2.518066 1_556
Li8 O19 2.520379 1_555
Li9 O26 2.151084 1_555
Li9 O35 2.159102 1_555
Li9 O43 2.234752 1_555
Li9 O38 2.247911 1_555
Li9 O33 2.466764 1_565
Li9 O3 2.484308 1_455
Li10 O5 2.225384 1_455
Li10 O36 2.247263 1_565
Li10 O40 2.290259 1_565
Li10 O7 2.403377 1_455
Li11 O29 2.243160 1_566
Li11 O11 2.271900 1_455
Li11 O18 2.284451 1_455
Li11 O42 2.295706 1_565
Mn0 O25 1.927868 1_555
Mn0 O34 1.940514 1_554
Mn0 O15 1.968081 1_555
Mn0 O45 1.973491 1_544
Mn0 O29 2.211589 1_555
Mn0 O13 2.369993 1_545
Mn1 O22 1.940007 1_555
Mn1 O13 1.944907 1_556
Mn1 O32 1.983898 1_555
Mn1 O2 1.988616 1_566
Mn1 O18 2.152124 1_555
Mn1 O34 2.342900 1_565
Mn2 O31 1.958885 1_555
Mn2 O44 1.965709 1_555
Mn2 O4 1.978639 1_455
Mn2 O39 1.998967 1_555
Mn2 O36 2.220111 1_555
Mn2 O1 2.364276 1_455
Mn3 O47 1.959483 1_555
Mn3 O41 1.976797 1_555
Mn3 O10 1.982164 1_455
Mn3 O46 1.996377 1_555
Mn3 O42 2.191003 1_555
Mn3 O8 2.296215 1_455
O0 P4 1.561392 1_554
O0 V0 1.948605 1_555
O1 P1 1.564269 1_555
O1 V0 1.989974 1_555
O2 P0 1.557333 1_555
O3 P1 1.558798 1_555
O3 V1 1.956292 1_555
O4 P0 1.567221 1_555
O5 P2 1.573090 1_555
O5 V0 2.100358 1_555
O6 P0 1.552475 1_555
O6 V0 1.993191 1_555
O7 P1 1.575213 1_555
O7 V2 2.104361 1_555
O8 P4 1.565857 1_555
O8 V1 1.994656 1_555
O9 P3 1.548746 1_555
O9 V2 2.014385 1_545
O10 P3 1.562262 1_555
O11 P5 1.570398 1_555
O11 V1 2.140821 1_555
O12 P1 1.519594 1_555
O13 P2 1.572854 1_555
O14 P2 1.559123 1_555
O14 V2 1.961102 1_555
O15 P0 1.553814 1_555
O16 P3 1.552108 1_555
O16 V1 1.978241 1_555
O17 P2 1.517875 1_555
O18 P4 1.566270 1_555
O19 P4 1.522434 1_555
O20 P5 1.586793 1_555
O20 V2 2.056187 1_555
O20 V3 2.172533 1_565
O21 P6 1.518866 1_555
O22 P5 1.563218 1_555
O23 P3 1.556394 1_555
O23 V3 1.969356 1_555
O24 P8 1.556422 1_555
O24 V2 1.981513 1_555
O25 P6 1.563543 1_555
O26 P5 1.515743 1_555
O27 P6 1.587098 1_555
O27 V3 2.058240 1_555
O27 V2 2.152878 1_545
O28 P7 1.517077 1_555
O29 P7 1.559922 1_555
O30 P9 1.521485 1_555
O31 P8 1.561800 1_555
O32 P11 1.554766 1_555
O33 P9 1.561272 1_555
O33 V3 1.950770 1_555
O34 P9 1.575771 1_555
O35 P10 1.514562 1_555
O36 P6 1.563795 1_555
O37 P8 1.547400 1_555
O37 V0 2.020286 1_455
O38 P8 1.552762 1_555
O38 V3 2.005080 1_565
O39 P7 1.601077 1_555
O39 V0 2.138231 1_455
O40 P10 1.570322 1_555
O40 V3 2.166599 1_555
O41 P11 1.562809 1_555
O42 P9 1.565344 1_555
O43 P11 1.551251 1_555
O43 V1 2.021363 1_455
O44 P10 1.561607 1_555
O45 P11 1.563637 1_555
O46 P10 1.598625 1_555
O46 V1 2.186912 1_455
O47 P7 1.559039 1_556
