# generated using pymatgen
data_Sm2Ge2O7
_symmetry_space_group_name_H-M   'P 1'
_cell_length_a   7.19831875
_cell_length_b   7.19831875
_cell_length_c   7.19831875
_cell_angle_alpha   60.00000000
_cell_angle_beta   60.00000000
_cell_angle_gamma   60.00000000
_symmetry_Int_Tables_number   1
_chemical_formula_structural   Sm2Ge2O7
_chemical_formula_sum   'Sm4 Ge4 O14'
_cell_volume   263.74134904
_cell_formula_units_Z   2
loop_
 _symmetry_equiv_pos_site_id
 _symmetry_equiv_pos_as_xyz
  1  'x, y, z'
loop_
 _atom_site_type_symbol
 _atom_site_label
 _atom_site_symmetry_multiplicity
 _atom_site_fract_x
 _atom_site_fract_y
 _atom_site_fract_z
 _atom_site_occupancy
  Sm  Sm0  1  0.12500000  0.62500000  0.12500000  1
  Sm  Sm1  1  0.12500000  0.12500000  0.62500000  1
  Sm  Sm2  1  0.62500000  0.12500000  0.12500000  1
  Sm  Sm3  1  0.12500000  0.12500000  0.12500000  1
  Ge  Ge0  1  0.62500000  0.62500000  0.62500000  1
  Ge  Ge1  1  0.12500000  0.62500000  0.62500000  1
  Ge  Ge2  1  0.62500000  0.12500000  0.62500000  1
  Ge  Ge3  1  0.62500000  0.62500000  0.12500000  1
  O  O0  1  0.29922600  0.70077400  0.70077400  1
  O  O1  1  0.54922600  0.95077400  0.95077400  1
  O  O2  1  0.70077400  0.29922600  0.70077400  1
  O  O3  1  0.00000000  0.00000000  0.00000000  1
  O  O4  1  0.29922600  0.70077400  0.29922600  1
  O  O5  1  0.70077400  0.70077400  0.29922600  1
  O  O6  1  0.29922600  0.29922600  0.70077400  1
  O  O7  1  0.25000000  0.25000000  0.25000000  1
  O  O8  1  0.54922600  0.54922600  0.95077400  1
  O  O9  1  0.95077400  0.54922600  0.95077400  1
  O  O10  1  0.95077400  0.95077400  0.54922600  1
  O  O11  1  0.54922600  0.95077400  0.54922600  1
  O  O12  1  0.70077400  0.29922600  0.29922600  1
  O  O13  1  0.95077400  0.54922600  0.54922600  1
loop_
_geom_bond_atom_site_label_1
_geom_bond_atom_site_label_2
_geom_bond_distance
_geom_bond_site_symmetry_2
Ge0 O13 1.957935 1_555
Ge0 O0 1.957935 1_555
Ge0 O8 1.957935 1_555
Ge0 O5 1.957935 1_555
Ge0 O2 1.957935 1_555
Ge0 O11 1.957935 1_555
Ge1 O13 1.957935 1_455
Ge1 O0 1.957935 1_555
Ge1 O4 1.957935 1_555
Ge1 O9 1.957935 1_455
Ge1 O10 1.957935 1_455
Ge1 O6 1.957935 1_555
Ge2 O1 1.957935 1_545
Ge2 O12 1.957935 1_555
Ge2 O10 1.957935 1_545
Ge2 O2 1.957935 1_555
Ge2 O11 1.957935 1_545
Ge2 O6 1.957935 1_555
Ge3 O1 1.957935 1_554
Ge3 O12 1.957935 1_555
Ge3 O4 1.957935 1_555
Ge3 O8 1.957935 1_554
Ge3 O9 1.957935 1_554
Ge3 O5 1.957935 1_555
O0 Sm1 2.526696 1_565
O0 Sm0 2.526696 1_556
O1 Sm2 2.526696 1_566
O1 Sm3 2.526696 1_566
O2 Sm2 2.526696 1_556
O2 Sm1 2.526696 1_655
O3 Sm2 2.204026 1_455
O3 Sm0 2.204026 1_545
O3 Sm3 2.204026 1_555
O3 Sm1 2.204026 1_554
O4 Sm3 2.526696 1_565
O4 Sm0 2.526696 1_555
O5 Sm0 2.526696 1_655
O5 Sm2 2.526696 1_565
O6 Sm1 2.526696 1_555
O6 Sm3 2.526696 1_556
O7 Sm2 2.204026 1_555
O7 Sm3 2.204026 1_555
O7 Sm1 2.204026 1_555
O7 Sm0 2.204026 1_555
O8 Sm2 2.526696 1_556
O8 Sm0 2.526696 1_556
O9 Sm3 2.526696 1_656
O9 Sm0 2.526696 1_656
O10 Sm1 2.526696 1_665
O10 Sm3 2.526696 1_665
O11 Sm1 2.526696 1_565
O11 Sm2 2.526696 1_565
O12 Sm2 2.526696 1_555
O12 Sm3 2.526696 1_655
O13 Sm0 2.526696 1_655
O13 Sm1 2.526696 1_655
