# generated using pymatgen
data_NdInO3
_symmetry_space_group_name_H-M   'P 1'
_cell_length_a   5.63595378
_cell_length_b   5.94569456
_cell_length_c   8.17509696
_cell_angle_alpha   90.00000000
_cell_angle_beta   90.00000000
_cell_angle_gamma   90.00000000
_symmetry_Int_Tables_number   1
_chemical_formula_structural   NdInO3
_chemical_formula_sum   'Nd4 In4 O12'
_cell_volume   273.94471739
_cell_formula_units_Z   4
loop_
 _symmetry_equiv_pos_site_id
 _symmetry_equiv_pos_as_xyz
  1  'x, y, z'
loop_
 _atom_site_type_symbol
 _atom_site_label
 _atom_site_symmetry_multiplicity
 _atom_site_fract_x
 _atom_site_fract_y
 _atom_site_fract_z
 _atom_site_occupancy
  Nd  Nd0  1  0.98049891  0.06285875  0.25000000  1
  Nd  Nd1  1  0.48049891  0.43714125  0.75000000  1
  Nd  Nd2  1  0.51950109  0.56285875  0.25000000  1
  Nd  Nd3  1  0.01950109  0.93714125  0.75000000  1
  In  In0  1  0.50000000  -0.00000000  0.00000000  1
  In  In1  1  0.50000000  -0.00000000  0.50000000  1
  In  In2  1  0.00000000  0.50000000  0.00000000  1
  In  In3  1  0.00000000  0.50000000  0.50000000  1
  O  O0  1  0.62374248  0.05186043  0.75000000  1
  O  O1  1  0.19081429  0.19415769  0.56391173  1
  O  O2  1  0.19081429  0.19415769  0.93608827  1
  O  O3  1  0.69081429  0.30584231  0.06391173  1
  O  O4  1  0.69081429  0.30584231  0.43608827  1
  O  O5  1  0.12374248  0.44813957  0.25000000  1
  O  O6  1  0.87625752  0.55186043  0.75000000  1
  O  O7  1  0.30918571  0.69415769  0.93608827  1
  O  O8  1  0.30918571  0.69415769  0.56391173  1
  O  O9  1  0.80918571  0.80584231  0.06391173  1
  O  O10  1  0.80918571  0.80584231  0.43608827  1
  O  O11  1  0.37625752  0.94813957  0.25000000  1
loop_
_geom_bond_atom_site_label_1
_geom_bond_atom_site_label_2
_geom_bond_distance
_geom_bond_site_symmetry_2
Nd0 O11 2.332438 1_645
Nd0 O9 2.362574 1_545
Nd0 O10 2.362574 1_545
Nd0 O5 2.428857 1_655
Nd0 O4 2.658391 1_555
Nd0 O3 2.658391 1_555
Nd0 O2 2.932596 1_654
Nd0 O1 2.932596 1_655
Nd1 O6 2.332438 1_555
Nd1 O8 2.362574 1_555
Nd1 O7 2.362574 1_555
Nd1 O0 2.428857 1_555
Nd1 O2 2.658391 1_555
Nd1 O1 2.658391 1_555
Nd1 O4 2.932596 1_555
Nd1 O3 2.932596 1_556
Nd2 O5 2.332438 1_555
Nd2 O3 2.362574 1_555
Nd2 O4 2.362574 1_555
Nd2 O11 2.428857 1_555
Nd2 O10 2.658391 1_555
Nd2 O9 2.658391 1_555
Nd2 O8 2.932596 1_555
Nd2 O7 2.932596 1_554
Nd3 O0 2.332438 1_465
Nd3 O2 2.362574 1_565
Nd3 O1 2.362574 1_565
Nd3 O6 2.428857 1_455
Nd3 O8 2.658391 1_555
Nd3 O7 2.658391 1_555
Nd3 O9 2.932596 1_456
Nd3 O10 2.932596 1_455
In0 O9 2.154562 1_545
In0 O2 2.154562 1_554
In0 O7 2.176295 1_544
In0 O3 2.176295 1_555
In0 O0 2.181391 1_554
In0 O11 2.181391 1_545
In1 O10 2.154562 1_545
In1 O1 2.154562 1_555
In1 O8 2.176295 1_545
In1 O4 2.176295 1_555
In1 O0 2.181391 1_555
In1 O11 2.181391 1_545
In2 O3 2.154562 1_455
In2 O7 2.154562 1_554
In2 O2 2.176295 1_554
In2 O9 2.176295 1_455
In2 O6 2.181391 1_454
In2 O5 2.181391 1_555
In3 O4 2.154562 1_455
In3 O8 2.154562 1_555
In3 O1 2.176295 1_555
In3 O10 2.176295 1_455
In3 O5 2.181391 1_555
In3 O6 2.181391 1_455
