# generated using pymatgen
data_H2Ru3C8SO8
_symmetry_space_group_name_H-M   'P 1'
_cell_length_a   11.52851000
_cell_length_b   12.81557388
_cell_length_c   19.16986584
_cell_angle_alpha   87.10266037
_cell_angle_beta   107.38521089
_cell_angle_gamma   116.23677398
_symmetry_Int_Tables_number   1
_chemical_formula_structural   H2Ru3C8SO8
_chemical_formula_sum   'H12 Ru18 C48 S6 O48'
_cell_volume   2413.36954372
_cell_formula_units_Z   6
loop_
 _symmetry_equiv_pos_site_id
 _symmetry_equiv_pos_as_xyz
  1  'x, y, z'
loop_
 _atom_site_type_symbol
 _atom_site_label
 _atom_site_symmetry_multiplicity
 _atom_site_fract_x
 _atom_site_fract_y
 _atom_site_fract_z
 _atom_site_occupancy
  H  H0  1  0.39674700  0.18571000  0.36038000  1
  H  H1  1  0.60325300  0.81429000  0.63962000  1
  H  H2  1  0.75545500  0.52560000  0.19098900  1
  H  H3  1  0.24454500  0.47440000  0.80901100  1
  H  H4  1  0.87966900  0.15578800  0.23973900  1
  H  H5  1  0.12033100  0.84421200  0.76026100  1
  H  H6  1  0.64322400  0.22600600  0.41250500  1
  H  H7  1  0.35677600  0.77399400  0.58749500  1
  H  H8  1  0.67658500  0.95516100  0.19032700  1
  H  H9  1  0.32341500  0.04483900  0.80967300  1
  H  H10  1  0.61637500  0.44331700  0.07651100  1
  H  H11  1  0.38362500  0.55668300  0.92348900  1
  Ru  Ru0  1  0.70394400  0.09877200  0.18267900  1
  Ru  Ru1  1  0.29605600  0.90122800  0.81732100  1
  Ru  Ru2  1  0.65441700  0.91400300  0.28245100  1
  Ru  Ru3  1  0.34558300  0.08599700  0.71754900  1
  Ru  Ru4  1  0.88696900  0.12603500  0.33471200  1
  Ru  Ru5  1  0.11303100  0.87396500  0.66528800  1
  Ru  Ru6  1  0.50273000  0.15109400  0.32823900  1
  Ru  Ru7  1  0.49727000  0.84890600  0.67176100  1
  Ru  Ru8  1  0.41737000  0.33473900  0.33282500  1
  Ru  Ru9  1  0.58263000  0.66526100  0.66717500  1
  Ru  Ru10  1  0.68633100  0.38128400  0.40859600  1
  Ru  Ru11  1  0.31366900  0.61871600  0.59140400  1
  Ru  Ru12  1  0.72398500  0.39087400  0.04898400  1
  Ru  Ru13  1  0.27601500  0.60912600  0.95101600  1
  Ru  Ru14  1  0.89871200  0.50077600  0.18739800  1
  Ru  Ru15  1  0.10128800  0.49922400  0.81260200  1
  Ru  Ru16  1  0.60123900  0.39095400  0.15923800  1
  Ru  Ru17  1  0.39876100  0.60904600  0.84076200  1
  C  C0  1  0.78578500  0.08689400  0.11258600  1
  C  C1  1  0.21421500  0.91310600  0.88741400  1
  C  C2  1  0.52873000  0.03690200  0.11264200  1
  C  C3  1  0.47127000  0.96309800  0.88735800  1
  C  C4  1  0.46619200  0.81149600  0.23469500  1
  C  C5  1  0.53380800  0.18850400  0.76530500  1
  C  C6  1  0.73486500  0.81697000  0.26805000  1
  C  C7  1  0.26513500  0.18303000  0.73195000  1
  C  C8  1  0.64972300  0.87000800  0.37781300  1
  C  C9  1  0.35027700  0.12999200  0.62218700  1
  C  C10  1  0.91394500  0.10966700  0.43705900  1
  C  C11  1  0.08605500  0.89033300  0.56294100  1
  C  C12  1  0.00023400  0.05629000  0.32967000  1
  C  C13  1  0.99976600  0.94371000  0.67033000  1
  C  C14  1  0.01669200  0.28681600  0.34580100  1
  C  C15  1  0.98330800  0.71318400  0.65419900  1
  C  C16  1  0.35776300  0.05597800  0.24615800  1
  C  C17  1  0.64223700  0.94402200  0.75384200  1
  C  C18  1  0.44396000  0.02513100  0.38590300  1
  C  C19  1  0.55604000  0.97486900  0.61409700  1
  C  C20  1  0.35265100  0.32591400  0.41488000  1
  C  C21  1  0.64734900  0.67408600  0.58512000  1
  C  C22  1  0.24951800  0.27436800  0.25330400  1
  C  C23  1  0.75048200  0.72563200  0.74669600  1
  C  C24  1  0.44875400  0.49246700  0.32655900  1
  C  C25  1  0.55124600  0.50753300  0.67344100  1
  C  C26  1  0.65871400  0.37364200  0.50222100  1
  C  C27  1  0.34128600  0.62635800  0.49777900  1
  C  C28  1  0.86102900  0.38326700  0.44168000  1
  C  C29  1  0.13897100  0.61673300  0.55832000  1
  C  C30  1  0.75143500  0.54662300  0.40996500  1
  C  C31  1  0.24856500  0.45337700  0.59003500  1
  C  C32  1  0.56439800  0.27863200  0.97809600  1
  C  C33  1  0.43560200  0.72136800  0.02190400  1
  C  C34  1  0.84750800  0.36278000  0.01570000  1
  C  C35  1  0.15249200  0.63722000  0.98430000  1
  C  C36  1  0.75444900  0.53009100  0.99987400  1
  C  C37  1  0.24555100  0.46990900  0.00012600  1
  C  C38  1  0.05301300  0.49221200  0.17521300  1
  C  C39  1  0.94698700  0.50778800  0.82478700  1
  C  C40  1  0.97567300  0.54825600  0.29088500  1
  C  C41  1  0.02432700  0.45174400  0.70911500  1
  C  C42  1  0.95042300  0.65534300  0.15865300  1
  C  C43  1  0.04957700  0.34465700  0.84134700  1
  C  C44  1  0.42738800  0.26594800  0.11403500  1
  C  C45  1  0.57261200  0.73405200  0.88596500  1
  C  C46  1  0.52794700  0.49750200  0.15807600  1
  C  C47  1  0.47205300  0.50249800  0.84192400  1
  S  S0  1  0.65660500  0.09541300  0.29554800  1
  S  S1  1  0.34339500  0.90458700  0.70445200  1
  S  S2  1  0.57806200  0.33623700  0.27983600  1
  S  S3  1  0.42193800  0.66376300  0.72016400  1
  S  S4  1  0.74048500  0.29909800  0.15795500  1
  S  S5  1  0.25951500  0.70090200  0.84204500  1
  O  O0  1  0.83772700  0.07795300  0.07178500  1
  O  O1  1  0.16227300  0.92204700  0.92821500  1
  O  O2  1  0.42219800  0.99461900  0.06912500  1
  O  O3  1  0.57780200  0.00538100  0.93087500  1
  O  O4  1  0.35226600  0.75191500  0.20527300  1
  O  O5  1  0.64773400  0.24808500  0.79472700  1
  O  O6  1  0.78230000  0.75869600  0.25740500  1
  O  O7  1  0.21770000  0.24130400  0.74259500  1
  O  O8  1  0.64709200  0.84667500  0.43674900  1
  O  O9  1  0.35290800  0.15332500  0.56325100  1
  O  O10  1  0.93037900  0.10085400  0.49920000  1
  O  O11  1  0.06962100  0.89914600  0.50080000  1
  O  O12  1  0.06949300  0.01428900  0.32647400  1
  O  O13  1  0.93050700  0.98571100  0.67352600  1
  O  O14  1  0.10052800  0.38082000  0.34696000  1
  O  O15  1  0.89947200  0.61918000  0.65304000  1
  O  O16  1  0.26739900  0.99532000  0.19726000  1
  O  O17  1  0.73260100  0.00468000  0.80274000  1
  O  O18  1  0.40256000  0.94582800  0.41874200  1
  O  O19  1  0.59744000  0.05417200  0.58125800  1
  O  O20  1  0.31604800  0.32250000  0.46546500  1
  O  O21  1  0.68395200  0.67750000  0.53453500  1
  O  O22  1  0.14947300  0.23903300  0.20476500  1
  O  O23  1  0.85052700  0.76096700  0.79523500  1
  O  O24  1  0.47004200  0.58969700  0.32339100  1
  O  O25  1  0.52995800  0.41030300  0.67660900  1
  O  O26  1  0.64430200  0.36984500  0.55970100  1
  O  O27  1  0.35569800  0.63015500  0.44029900  1
  O  O28  1  0.96187400  0.37634600  0.46699100  1
  O  O29  1  0.03812600  0.62365400  0.53300900  1
  O  O30  1  0.79470600  0.64703800  0.40933900  1
  O  O31  1  0.20529400  0.35296200  0.59066100  1
  O  O32  1  0.46666100  0.21100800  0.93572200  1
  O  O33  1  0.53333900  0.78899200  0.06427800  1
  O  O34  1  0.92288400  0.34687700  0.99424500  1
  O  O35  1  0.07711600  0.65312300  0.00575500  1
  O  O36  1  0.76942700  0.61452300  0.97093300  1
  O  O37  1  0.23057300  0.38547700  0.02906700  1
  O  O38  1  0.14540300  0.48649000  0.16640000  1
  O  O39  1  0.85459700  0.51351000  0.83360000  1
  O  O40  1  0.02718800  0.58741700  0.35167200  1
  O  O41  1  0.97281200  0.41258300  0.64832800  1
  O  O42  1  0.97754900  0.74920800  0.14160900  1
  O  O43  1  0.02245100  0.25079200  0.85839100  1
  O  O44  1  0.32138200  0.18984100  0.08622900  1
  O  O45  1  0.67861800  0.81015900  0.91377100  1
  O  O46  1  0.48402900  0.56271000  0.15999700  1
  O  O47  1  0.51597100  0.43729000  0.84000300  1
loop_
_geom_bond_atom_site_label_1
_geom_bond_atom_site_label_2
_geom_bond_distance
_geom_bond_site_symmetry_2
H0 Ru6 1.739551 1_555
H0 Ru8 1.885422 1_555
H1 Ru7 1.739551 1_555
H1 Ru9 1.885422 1_555
H2 Ru16 1.804421 1_555
H2 Ru14 1.835275 1_555
H3 Ru17 1.804421 1_555
H3 Ru15 1.835275 1_555
H4 Ru0 1.811689 1_555
H4 Ru4 1.825859 1_555
H5 Ru1 1.811689 1_555
H5 Ru5 1.825859 1_555
H6 Ru10 1.829040 1_555
H6 Ru6 1.836541 1_555
H7 Ru11 1.829040 1_555
H7 Ru7 1.836541 1_555
H8 Ru0 1.730712 1_565
H8 Ru2 1.875808 1_555
H9 Ru1 1.730712 1_545
H9 Ru3 1.875808 1_555
H10 Ru16 1.717554 1_555
H10 Ru12 1.852960 1_555
H11 Ru17 1.717554 1_555
H11 Ru13 1.852960 1_555
Ru0 S0 2.378378 1_555
Ru0 S4 2.456251 1_555
Ru1 S1 2.378378 1_555
Ru1 S5 2.456251 1_555
Ru2 S0 2.339248 1_565
Ru3 S1 2.339248 1_545
Ru4 S0 2.384843 1_555
Ru5 S1 2.384843 1_555
Ru6 S2 2.383700 1_555
Ru6 S0 2.424378 1_555
Ru7 S3 2.383700 1_555
Ru7 S1 2.424378 1_555
Ru8 S2 2.356953 1_555
Ru9 S3 2.356953 1_555
Ru10 S2 2.376895 1_555
Ru11 S3 2.376895 1_555
Ru12 S4 2.344198 1_555
Ru13 S5 2.344198 1_555
Ru14 S4 2.385358 1_555
Ru15 S5 2.385358 1_555
Ru16 S4 2.379226 1_555
Ru16 S2 2.438719 1_555
Ru17 S5 2.379226 1_555
Ru17 S3 2.438719 1_555
C0 O0 1.154591 1_555
C0 Ru0 1.903706 1_555
C1 O1 1.154591 1_555
C1 Ru1 1.903706 1_555
C2 O2 1.158850 1_545
C2 Ru0 1.892711 1_555
C3 O3 1.158850 1_565
C3 Ru1 1.892711 1_555
C4 O4 1.157721 1_555
C4 Ru2 1.920047 1_555
C5 O5 1.157721 1_555
C5 Ru3 1.920047 1_555
C6 O6 1.158278 1_555
C6 Ru2 1.920980 1_555
C7 O7 1.158278 1_555
C7 Ru3 1.920980 1_555
C8 O8 1.159776 1_555
C8 Ru2 1.894896 1_555
C9 O9 1.159776 1_555
C9 Ru3 1.894896 1_555
C10 O10 1.156780 1_555
C10 Ru4 1.908278 1_555
C11 O11 1.156780 1_555
C11 Ru5 1.908278 1_555
C12 O12 1.159127 1_555
C12 Ru4 1.905099 1_455
C13 O13 1.159127 1_555
C13 Ru5 1.905099 1_655
C14 O14 1.160323 1_555
C14 Ru4 1.912370 1_455
C15 O15 1.160323 1_555
C15 Ru5 1.912370 1_655
C16 O16 1.158583 1_545
C16 Ru6 1.891037 1_555
C17 O17 1.158583 1_565
C17 Ru7 1.891037 1_555
C18 O18 1.158869 1_545
C18 Ru6 1.893948 1_555
C19 O19 1.158869 1_565
C19 Ru7 1.893948 1_555
C20 O20 1.159409 1_555
C20 Ru8 1.911153 1_555
C21 O21 1.159409 1_555
C21 Ru9 1.911153 1_555
C22 O22 1.157846 1_555
C22 Ru8 1.923451 1_555
C23 O23 1.157846 1_555
C23 Ru9 1.923451 1_555
C24 O24 1.160799 1_555
C24 Ru8 1.893695 1_555
C25 O25 1.160799 1_555
C25 Ru9 1.893695 1_555
C26 O26 1.157997 1_555
C26 Ru10 1.904817 1_555
C27 O27 1.157997 1_555
C27 Ru11 1.904817 1_555
C28 O28 1.159586 1_555
C28 Ru10 1.911065 1_555
C29 O29 1.159586 1_555
C29 Ru11 1.911065 1_555
C30 O30 1.157353 1_555
C30 Ru10 1.908280 1_555
C31 O31 1.157353 1_555
C31 Ru11 1.908280 1_555
C32 O32 1.158155 1_555
C32 Ru12 1.914236 1_556
C33 O33 1.158155 1_555
C33 Ru13 1.914236 1_554
C34 O34 1.159504 1_554
C34 Ru12 1.893181 1_555
C35 O35 1.159504 1_556
C35 Ru13 1.893181 1_555
C36 O36 1.157496 1_555
C36 Ru12 1.914832 1_556
C37 O37 1.157496 1_555
C37 Ru13 1.914832 1_554
C38 O38 1.160277 1_555
C38 Ru14 1.911667 1_455
C39 O39 1.160277 1_555
C39 Ru15 1.911667 1_655
C40 O40 1.159519 1_655
C40 Ru14 1.919869 1_555
C41 O41 1.159519 1_455
C41 Ru15 1.919869 1_555
C42 O42 1.157720 1_555
C42 Ru14 1.903871 1_555
C43 O43 1.157720 1_555
C43 Ru15 1.903871 1_555
C44 O44 1.156863 1_555
C44 Ru16 1.896818 1_555
C45 O45 1.156863 1_555
C45 Ru17 1.896818 1_555
C46 O46 1.159489 1_555
C46 Ru16 1.893340 1_555
C47 O47 1.159489 1_555
C47 Ru17 1.893340 1_555
