# generated using pymatgen
data_Li4Ti2Nb3Fe3O16
_symmetry_space_group_name_H-M   'P 1'
_cell_length_a   6.14062146
_cell_length_b   6.07433281
_cell_length_c   9.82833248
_cell_angle_alpha   90.27797885
_cell_angle_beta   88.59256387
_cell_angle_gamma   119.60704557
_symmetry_Int_Tables_number   1
_chemical_formula_structural   Li4Ti2Nb3Fe3O16
_chemical_formula_sum   'Li4 Ti2 Nb3 Fe3 O16'
_cell_volume   318.62597038
_cell_formula_units_Z   1
loop_
 _symmetry_equiv_pos_site_id
 _symmetry_equiv_pos_as_xyz
  1  'x, y, z'
loop_
 _atom_site_type_symbol
 _atom_site_label
 _atom_site_symmetry_multiplicity
 _atom_site_fract_x
 _atom_site_fract_y
 _atom_site_fract_z
 _atom_site_occupancy
  Li  Li0  1  0.33226900  0.66398100  0.90311100  1
  Li  Li1  1  0.00651200  0.00302100  0.99629200  1
  Li  Li2  1  0.02063200  0.00954500  0.48451500  1
  Li  Li3  1  0.67327500  0.33765800  0.39332700  1
  Ti  Ti0  1  0.28838600  0.64015200  0.48419100  1
  Ti  Ti1  1  0.66170100  0.32875400  0.00871400  1
  Nb  Nb0  1  0.63886100  0.82136100  0.22814300  1
  Nb  Nb1  1  0.81860200  0.65139600  0.71899000  1
  Nb  Nb2  1  0.81355500  0.16903400  0.71663900  1
  Fe  Fe0  1  0.17225000  0.83150300  0.20853200  1
  Fe  Fe1  1  0.17324700  0.34098200  0.20849700  1
  Fe  Fe2  1  0.33899400  0.16339300  0.70773700  1
  O  O0  1  0.16145400  0.82309000  0.59381100  1
  O  O1  1  0.05173700  0.52640600  0.35165200  1
  O  O2  1  0.36271600  0.68043500  0.09858800  1
  O  O3  1  0.98004500  0.99045800  0.29896800  1
  O  O4  1  0.99262700  0.99883600  0.80896100  1
  O  O5  1  0.15679000  0.33873800  0.59219600  1
  O  O6  1  0.49403800  0.96636400  0.35305000  1
  O  O7  1  0.49395800  0.53099600  0.35425600  1
  O  O8  1  0.34347100  0.17166400  0.08882500  1
  O  O9  1  0.67773400  0.84011000  0.60302500  1
  O  O10  1  0.52946300  0.48389000  0.83933600  1
  O  O11  1  0.53637500  0.04306600  0.84594400  1
  O  O12  1  0.68418100  0.34540400  0.59020800  1
  O  O13  1  0.81083400  0.64869300  0.09288200  1
  O  O14  1  0.97462100  0.48922100  0.84290700  1
  O  O15  1  0.81167200  0.16215000  0.09454300  1
loop_
_geom_bond_atom_site_label_1
_geom_bond_atom_site_label_2
_geom_bond_distance
_geom_bond_site_symmetry_2
Li0 O2 1.932181 1_556
Li0 O14 2.013541 1_455
Li0 O11 2.077301 1_565
Li0 O10 2.078645 1_555
Li1 O4 1.844687 1_445
Li1 O8 2.036374 1_556
Li1 O15 2.091688 1_456
Li1 O13 2.094237 1_446
Li2 O3 1.841972 1_445
Li2 O5 2.046600 1_555
Li2 O0 2.051730 1_545
Li2 O9 2.144609 1_445
Li3 O12 1.937354 1_555
Li3 O6 2.003676 1_545
Li3 O7 2.010483 1_555
Li3 O1 2.051395 1_655
Nb0 O6 1.945143 1_555
Nb0 O7 1.963482 1_555
Nb0 O3 1.966546 1_555
Nb0 O2 1.972487 1_555
Nb0 O15 2.218733 1_565
Nb0 O13 2.234828 1_555
Nb1 O10 1.926175 1_555
Nb1 O4 2.043969 1_555
Nb1 O12 2.061710 1_555
Nb1 O14 2.091192 1_555
Nb1 O9 2.098138 1_555
Nb1 O0 2.179306 1_655
Nb2 O11 1.927139 1_555
Nb2 O12 2.055561 1_555
Nb2 O4 2.069470 1_545
Nb2 O9 2.076538 1_545
Nb2 O14 2.106461 1_555
Nb2 O5 2.177064 1_655
Fe0 O3 2.044868 1_455
Fe0 O2 2.089586 1_555
Fe0 O8 2.138986 1_565
Fe0 O1 2.140058 1_555
Fe0 O6 2.262778 1_555
Fe0 O13 2.264289 1_455
Fe1 O3 2.049928 1_445
Fe1 O2 2.088442 1_555
Fe1 O8 2.126955 1_555
Fe1 O1 2.137377 1_555
Fe1 O15 2.256382 1_455
Fe1 O7 2.267022 1_555
Fe2 O4 2.077895 1_445
Fe2 O0 2.127438 1_545
Fe2 O12 2.150841 1_555
Fe2 O10 2.151951 1_555
Fe2 O11 2.194134 1_555
Fe2 O5 2.219785 1_555
O0 Ti0 1.950913 1_555
O1 Ti0 1.837967 1_555
O5 Ti0 1.909653 1_555
O6 Ti0 2.157476 1_555
O7 Ti0 2.098477 1_555
O8 Ti1 1.854272 1_555
O9 Ti0 2.410291 1_555
O10 Ti1 2.270763 1_556
O11 Ti1 2.208371 1_556
O13 Ti1 1.887561 1_555
O14 Ti1 2.304101 1_556
O15 Ti1 1.884452 1_555
