# generated using pymatgen
data_Li4Cr5(P3O11)2
_symmetry_space_group_name_H-M   'P 1'
_cell_length_a   6.91336200
_cell_length_b   10.91090100
_cell_length_c   12.63548696
_cell_angle_alpha   74.93691419
_cell_angle_beta   90.00000000
_cell_angle_gamma   90.00000000
_symmetry_Int_Tables_number   1
_chemical_formula_structural   Li4Cr5(P3O11)2
_chemical_formula_sum   'Li8 Cr10 P12 O44'
_cell_volume   920.35900238
_cell_formula_units_Z   2
loop_
 _symmetry_equiv_pos_site_id
 _symmetry_equiv_pos_as_xyz
  1  'x, y, z'
loop_
 _atom_site_type_symbol
 _atom_site_label
 _atom_site_symmetry_multiplicity
 _atom_site_fract_x
 _atom_site_fract_y
 _atom_site_fract_z
 _atom_site_occupancy
  Li  Li0  1  0.83153500  0.44788100  0.18513500  1
  Li  Li1  1  0.66846500  0.94788100  0.18513500  1
  Li  Li2  1  0.48690200  0.10335900  0.32878500  1
  Li  Li3  1  0.01309800  0.60335900  0.32878500  1
  Li  Li4  1  0.98690200  0.39664100  0.67121500  1
  Li  Li5  1  0.51309800  0.89664100  0.67121500  1
  Li  Li6  1  0.33153500  0.05211900  0.81486500  1
  Li  Li7  1  0.16846500  0.55211900  0.81486500  1
  Cr  Cr0  1  0.50000000  0.50000000  0.00000000  1
  Cr  Cr1  1  0.24683700  0.21303900  0.12673500  1
  Cr  Cr2  1  0.00000000  0.00000000  0.00000000  1
  Cr  Cr3  1  0.25316300  0.71303900  0.12673500  1
  Cr  Cr4  1  0.01731300  0.20653400  0.33861500  1
  Cr  Cr5  1  0.48268700  0.70653400  0.33861500  1
  Cr  Cr6  1  0.51731300  0.29346600  0.66138500  1
  Cr  Cr7  1  0.98268700  0.79346600  0.66138500  1
  Cr  Cr8  1  0.74683700  0.28696100  0.87326500  1
  Cr  Cr9  1  0.75316300  0.78696100  0.87326500  1
  P  P0  1  0.73773800  0.22998900  0.09870400  1
  P  P1  1  0.76226200  0.72998900  0.09870400  1
  P  P2  1  0.38555600  0.42807800  0.26249100  1
  P  P3  1  0.11444400  0.92807800  0.26249100  1
  P  P4  1  0.70437600  0.43085300  0.41716300  1
  P  P5  1  0.79562400  0.93085300  0.41716300  1
  P  P6  1  0.20437600  0.06914700  0.58283700  1
  P  P7  1  0.29562400  0.56914700  0.58283700  1
  P  P8  1  0.88555600  0.07192200  0.73750900  1
  P  P9  1  0.61444400  0.57192200  0.73750900  1
  P  P10  1  0.23773800  0.27001100  0.90129600  1
  P  P11  1  0.26226200  0.77001100  0.90129600  1
  O  O0  1  0.78126200  0.14512700  0.01870800  1
  O  O1  1  0.69713500  0.35952800  0.00964600  1
  O  O2  1  0.71873800  0.64512700  0.01870800  1
  O  O3  1  0.80286500  0.85952800  0.00964600  1
  O  O4  1  0.56885800  0.16985900  0.17246100  1
  O  O5  1  0.90841900  0.25786500  0.16895000  1
  O  O6  1  0.54234500  0.45412000  0.17480600  1
  O  O7  1  0.23308100  0.04797400  0.26018700  1
  O  O8  1  0.93114200  0.66985900  0.17246100  1
  O  O9  1  0.59158100  0.75786500  0.16895000  1
  O  O10  1  0.25516600  0.31587500  0.25474000  1
  O  O11  1  0.95765500  0.95412000  0.17480600  1
  O  O12  1  0.26691900  0.54797400  0.26018700  1
  O  O13  1  0.79783000  0.07670000  0.39308100  1
  O  O14  1  0.24483400  0.81587500  0.25474000  1
  O  O15  1  0.86495700  0.39418000  0.34728100  1
  O  O16  1  0.49380000  0.38339800  0.37952400  1
  O  O17  1  0.21846600  0.13758700  0.46190000  1
  O  O18  1  0.70217000  0.57670000  0.39308100  1
  O  O19  1  0.63504300  0.89418000  0.34728100  1
  O  O20  1  0.00620000  0.88339800  0.37952400  1
  O  O21  1  0.28153400  0.63758700  0.46190000  1
  O  O22  1  0.71846600  0.36241300  0.53810000  1
  O  O23  1  0.99380000  0.11660200  0.62047600  1
  O  O24  1  0.36495700  0.10582000  0.65271900  1
  O  O25  1  0.29783000  0.42330000  0.60691900  1
  O  O26  1  0.78153400  0.86241300  0.53810000  1
  O  O27  1  0.50620000  0.61660200  0.62047600  1
  O  O28  1  0.13504300  0.60582000  0.65271900  1
  O  O29  1  0.75516600  0.18412500  0.74526000  1
  O  O30  1  0.20217000  0.92330000  0.60691900  1
  O  O31  1  0.73308100  0.45202600  0.73981300  1
  O  O32  1  0.04234500  0.04588000  0.82519400  1
  O  O33  1  0.74483400  0.68412500  0.74526000  1
  O  O34  1  0.40841900  0.24213500  0.83105000  1
  O  O35  1  0.06885800  0.33014100  0.82753900  1
  O  O36  1  0.76691900  0.95202600  0.73981300  1
  O  O37  1  0.45765500  0.54588000  0.82519400  1
  O  O38  1  0.09158100  0.74213500  0.83105000  1
  O  O39  1  0.43114200  0.83014100  0.82753900  1
  O  O40  1  0.19713500  0.14047200  0.99035400  1
  O  O41  1  0.28126200  0.35487300  0.98129200  1
  O  O42  1  0.30286500  0.64047200  0.99035400  1
  O  O43  1  0.21873800  0.85487300  0.98129200  1
loop_
_geom_bond_atom_site_label_1
_geom_bond_atom_site_label_2
_geom_bond_distance
_geom_bond_site_symmetry_2
Li0 O15 1.992563 1_555
Li0 O6 2.003535 1_555
Li0 O5 2.200697 1_555
Li0 O8 2.482787 1_555
Li1 O19 1.992563 1_555
Li1 O11 2.003535 1_555
Li1 O9 2.200697 1_555
Li1 O4 2.482787 1_565
Li2 O4 2.001025 1_555
Li2 O7 2.113737 1_555
Li2 O13 2.289627 1_555
Li2 O19 2.456685 1_545
Li2 O17 2.595952 1_555
Li3 O8 2.001025 1_455
Li3 O12 2.113737 1_555
Li3 O18 2.289627 1_455
Li3 O15 2.456685 1_455
Li3 O21 2.595952 1_555
Li4 O35 2.001025 1_655
Li4 O31 2.113737 1_555
Li4 O25 2.289627 1_655
Li4 O28 2.456685 1_655
Li4 O22 2.595952 1_555
Li5 O39 2.001025 1_555
Li5 O36 2.113737 1_555
Li5 O30 2.289627 1_555
Li5 O24 2.456685 1_565
Li5 O26 2.595952 1_555
Li6 O24 1.992563 1_555
Li6 O32 2.003535 1_555
Li6 O34 2.200697 1_555
Li6 O39 2.482787 1_545
Li7 O28 1.992563 1_555
Li7 O37 2.003535 1_555
Li7 O38 2.200697 1_555
Li7 O35 2.482787 1_555
Cr0 O1 2.030827 1_555
Cr0 O42 2.030827 1_554
Cr0 O6 2.154115 1_555
Cr0 O37 2.154115 1_554
Cr0 O2 2.246016 1_555
Cr0 O41 2.246016 1_554
Cr1 O41 2.085812 1_554
Cr1 O40 2.103259 1_554
Cr1 O7 2.125457 1_555
Cr1 O10 2.195800 1_555
Cr1 O4 2.317430 1_555
Cr1 O5 2.476508 1_455
Cr2 O40 2.030827 1_554
Cr2 O3 2.030827 1_445
Cr2 O32 2.154115 1_554
Cr2 O11 2.154115 1_445
Cr2 O0 2.246016 1_455
Cr2 O43 2.246016 1_544
Cr3 O43 2.085812 1_554
Cr3 O42 2.103259 1_554
Cr3 O12 2.125457 1_555
Cr3 O14 2.195800 1_555
Cr3 O8 2.317430 1_455
Cr3 O9 2.476508 1_555
Cr4 O13 2.067866 1_455
Cr4 O17 2.077822 1_555
Cr4 O10 2.143179 1_555
Cr4 O5 2.202778 1_455
Cr4 O15 2.330179 1_455
Cr4 O7 2.662941 1_555
Cr5 O18 2.067866 1_555
Cr5 O21 2.077822 1_555
Cr5 O14 2.143179 1_555
Cr5 O9 2.202778 1_555
Cr5 O19 2.330179 1_555
Cr5 O12 2.662941 1_555
Cr6 O25 2.067866 1_555
Cr6 O22 2.077822 1_555
Cr6 O29 2.143179 1_555
Cr6 O34 2.202778 1_555
Cr6 O24 2.330179 1_555
Cr6 O31 2.662941 1_555
Cr7 O30 2.067866 1_655
Cr7 O26 2.077822 1_555
Cr7 O33 2.143179 1_555
Cr7 O38 2.202778 1_655
Cr7 O28 2.330179 1_655
Cr7 O36 2.662941 1_555
Cr8 O0 2.085812 1_556
Cr8 O1 2.103259 1_556
Cr8 O31 2.125457 1_555
Cr8 O29 2.195800 1_555
Cr8 O35 2.317430 1_655
Cr8 O34 2.476508 1_555
Cr9 O2 2.085812 1_556
Cr9 O3 2.103259 1_556
Cr9 O36 2.125457 1_555
Cr9 O33 2.195800 1_555
Cr9 O39 2.317430 1_555
Cr9 O38 2.476508 1_655
O0 P0 1.567168 1_555
O1 P0 1.586211 1_555
O2 P1 1.567168 1_555
O3 P1 1.586211 1_555
O4 P0 1.531109 1_555
O5 P0 1.553383 1_555
O6 P2 1.523013 1_555
O7 P3 1.537877 1_545
O8 P1 1.531109 1_555
O9 P1 1.553383 1_555
O10 P2 1.543777 1_555
O11 P3 1.523013 1_655
O12 P2 1.537877 1_555
O13 P5 1.540600 1_545
O14 P3 1.543777 1_555
O15 P4 1.534884 1_555
O16 P2 1.615461 1_555
O16 P4 1.655774 1_555
O17 P6 1.519570 1_555
O18 P4 1.540600 1_555
O19 P5 1.534884 1_555
O20 P3 1.615461 1_555
O20 P5 1.655774 1_455
O21 P7 1.519570 1_555
O22 P4 1.519570 1_555
O23 P8 1.615461 1_555
O23 P6 1.655774 1_655
O24 P6 1.534884 1_555
O25 P7 1.540600 1_555
O26 P5 1.519570 1_555
O27 P9 1.615461 1_555
O27 P7 1.655774 1_555
O28 P7 1.534884 1_555
O29 P8 1.543777 1_555
O30 P6 1.540600 1_565
O31 P9 1.537877 1_555
O32 P8 1.523013 1_455
O33 P9 1.543777 1_555
O34 P10 1.553383 1_555
O35 P10 1.531109 1_555
O36 P8 1.537877 1_565
O37 P9 1.523013 1_555
O38 P11 1.553383 1_555
O39 P11 1.531109 1_555
O40 P10 1.586211 1_555
O41 P10 1.567168 1_555
O42 P11 1.586211 1_555
O43 P11 1.567168 1_555
