# generated using pymatgen
data_VOF2
_symmetry_space_group_name_H-M   'P 1'
_cell_length_a   5.06049738
_cell_length_b   5.09149609
_cell_length_c   9.13835435
_cell_angle_alpha   75.21600866
_cell_angle_beta   74.49434056
_cell_angle_gamma   60.81083807
_symmetry_Int_Tables_number   1
_chemical_formula_structural   VOF2
_chemical_formula_sum   'V4 O4 F8'
_cell_volume   195.88188862
_cell_formula_units_Z   4
loop_
 _symmetry_equiv_pos_site_id
 _symmetry_equiv_pos_as_xyz
  1  'x, y, z'
loop_
 _atom_site_type_symbol
 _atom_site_label
 _atom_site_symmetry_multiplicity
 _atom_site_fract_x
 _atom_site_fract_y
 _atom_site_fract_z
 _atom_site_occupancy
  V  V0  1  0.99729712  0.00351437  0.00176308  1
  V  V1  1  0.20899755  0.26819619  0.24897274  1
  V  V2  1  0.52566245  0.52013207  0.50110123  1
  V  V3  1  0.77507482  0.74708930  0.75599537  1
  O  O0  1  0.05168045  0.20932617  0.12788236  1
  O  O1  1  0.53545162  0.69093479  0.62916884  1
  O  O2  1  0.94969170  0.79355319  0.87206564  1
  O  O3  1  0.86804644  0.46634933  0.37727476  1
  F  F0  1  0.27259739  0.87569728  0.37987763  1
  F  F1  1  0.36740664  0.98206416  0.86931140  1
  F  F2  1  0.23187892  0.62647560  0.12377839  1
  F  F3  1  0.13260126  0.51309079  0.61988734  1
  F  F4  1  0.45694533  0.29288109  0.37175474  1
  F  F5  1  0.77084871  0.37355528  0.87697555  1
  F  F6  1  0.63079449  0.02437048  0.13365544  1
  F  F7  1  0.72502711  0.11277291  0.61053247  1
loop_
_geom_bond_atom_site_label_1
_geom_bond_atom_site_label_2
_geom_bond_distance
_geom_bond_site_symmetry_2
O0 V1 1.679626 1_555
O0 V0 1.889274 1_455
O1 V2 1.649494 1_555
O1 V3 2.038167 1_555
O2 V3 1.671813 1_555
O2 V0 1.912084 1_566
O3 V2 1.733364 1_555
O3 V1 1.787091 1_655
F0 V2 1.902176 1_555
F0 V1 1.971470 1_565
F1 V0 1.908071 1_466
F1 V3 1.960173 1_555
F2 V1 1.928738 1_555
F2 V0 1.931376 1_465
F3 V3 1.921063 1_455
F3 V2 2.007818 1_555
F4 V1 1.956432 1_555
F4 V2 2.041333 1_555
F5 V0 1.913006 1_556
F5 V3 1.947744 1_555
F6 V0 1.892577 1_555
F6 V1 2.021917 1_555
F7 V3 1.937704 1_545
F7 V2 1.938957 1_555
