# generated using pymatgen
data_LiMnP2(HO4)2
_symmetry_space_group_name_H-M   'P 1'
_cell_length_a   7.00523700
_cell_length_b   10.56205101
_cell_length_c   8.04589500
_cell_angle_alpha   89.99705212
_cell_angle_beta   90.00101583
_cell_angle_gamma   89.99691633
_symmetry_Int_Tables_number   1
_chemical_formula_structural   LiMnP2(HO4)2
_chemical_formula_sum   'Li4 Mn4 P8 H8 O32'
_cell_volume   595.31311874
_cell_formula_units_Z   4
loop_
 _symmetry_equiv_pos_site_id
 _symmetry_equiv_pos_as_xyz
  1  'x, y, z'
loop_
 _atom_site_type_symbol
 _atom_site_label
 _atom_site_symmetry_multiplicity
 _atom_site_fract_x
 _atom_site_fract_y
 _atom_site_fract_z
 _atom_site_occupancy
  Li  Li0  1  0.00006000  0.33371500  0.49999500  1
  Li  Li1  1  0.00001500  0.83367900  0.49997500  1
  Li  Li2  1  0.49998500  0.41620000  0.00003100  1
  Li  Li3  1  0.49995200  0.91616700  0.00006700  1
  Mn  Mn0  1  0.99986200  0.99209400  0.99996900  1
  Mn  Mn1  1  0.50004400  0.25785900  0.50006900  1
  Mn  Mn2  1  0.99988000  0.49207800  0.99999500  1
  Mn  Mn3  1  0.50006900  0.75791100  0.49990600  1
  P  P0  1  0.28535400  0.00948800  0.64788200  1
  P  P1  1  0.28536000  0.50950600  0.64785300  1
  P  P2  1  0.71467100  0.00950200  0.35213500  1
  P  P3  1  0.71470400  0.50949000  0.35216800  1
  P  P4  1  0.21463600  0.24052400  0.14787000  1
  P  P5  1  0.21463300  0.74052200  0.14783300  1
  P  P6  1  0.78532100  0.24055400  0.85209700  1
  P  P7  1  0.78529200  0.74052800  0.85211800  1
  H  H0  1  0.49178000  0.10115800  0.21026500  1
  H  H1  1  0.49184700  0.60113500  0.21024900  1
  H  H2  1  0.50824700  0.10107700  0.78975000  1
  H  H3  1  0.50823000  0.60116100  0.78969200  1
  H  H4  1  0.99184300  0.14882000  0.28975500  1
  H  H5  1  0.99189700  0.64875700  0.28974400  1
  H  H6  1  0.00824500  0.14884100  0.71033100  1
  H  H7  1  0.00820300  0.64881800  0.71032600  1
  O  O0  1  0.55085800  0.01130900  0.21548300  1
  O  O1  1  0.55092700  0.51130200  0.21549200  1
  O  O2  1  0.44917300  0.01126200  0.78455400  1
  O  O3  1  0.44913500  0.51131200  0.78452300  1
  O  O4  1  0.05088300  0.23866900  0.28457300  1
  O  O5  1  0.05092400  0.73862500  0.28455600  1
  O  O6  1  0.94917000  0.23869200  0.71549500  1
  O  O7  1  0.94909900  0.73866700  0.71548600  1
  O  O8  1  0.08486400  0.01268300  0.72606800  1
  O  O9  1  0.08483100  0.51268800  0.72602800  1
  O  O10  1  0.91515400  0.01264800  0.27395400  1
  O  O11  1  0.91522700  0.51265300  0.27400100  1
  O  O12  1  0.41515900  0.23732500  0.22598000  1
  O  O13  1  0.41519600  0.73736000  0.22594000  1
  O  O14  1  0.58484800  0.23739100  0.77389500  1
  O  O15  1  0.58480100  0.73729000  0.77390000  1
  O  O16  1  0.69159700  0.12847500  0.46091700  1
  O  O17  1  0.69160000  0.62848900  0.46090700  1
  O  O18  1  0.30848000  0.12847800  0.53913500  1
  O  O19  1  0.30847200  0.62847700  0.53904900  1
  O  O20  1  0.19144400  0.12159400  0.03902700  1
  O  O21  1  0.19154300  0.62157900  0.03900600  1
  O  O22  1  0.80835300  0.12160700  0.96095900  1
  O  O23  1  0.80840200  0.62159100  0.96100000  1
  O  O24  1  0.80025800  0.36533000  0.95271900  1
  O  O25  1  0.80015400  0.86530700  0.95270000  1
  O  O26  1  0.19965900  0.36531200  0.04726600  1
  O  O27  1  0.19958600  0.86529900  0.04723500  1
  O  O28  1  0.69975000  0.38476400  0.45286600  1
  O  O29  1  0.69972600  0.88473800  0.45280400  1
  O  O30  1  0.30030600  0.38475800  0.54719800  1
  O  O31  1  0.30029100  0.88474000  0.54720700  1
loop_
_geom_bond_atom_site_label_1
_geom_bond_atom_site_label_2
_geom_bond_distance
_geom_bond_site_symmetry_2
Li0 O4 2.034427 1_555
Li0 O6 2.034855 1_455
Li0 O30 2.204280 1_555
Li0 O28 2.204556 1_455
Li1 O5 2.034554 1_555
Li1 O7 2.034905 1_455
Li1 O29 2.204500 1_455
Li1 O31 2.204568 1_555
Li2 O1 2.035141 1_555
Li2 O3 2.035295 1_554
Li2 O24 2.204124 1_554
Li2 O26 2.204463 1_555
Li3 O0 2.034997 1_565
Li3 O2 2.035154 1_564
Li3 O25 2.203700 1_554
Li3 O27 2.204586 1_555
Mn0 O22 1.941461 1_565
Mn0 O20 1.941904 1_666
Mn0 O25 1.973666 1_555
Mn0 O27 1.973669 1_656
Mn0 O8 2.293145 1_665
Mn0 O10 2.293241 1_566
Mn1 O18 1.940928 1_555
Mn1 O16 1.940930 1_555
Mn1 O30 1.974308 1_555
Mn1 O28 1.974383 1_555
Mn1 O14 2.292058 1_555
Mn1 O12 2.294332 1_555
Mn2 O23 1.941291 1_555
Mn2 O21 1.942243 1_656
Mn2 O24 1.972970 1_555
Mn2 O26 1.973742 1_656
Mn2 O11 2.293325 1_556
Mn2 O9 2.293583 1_655
Mn3 O17 1.940906 1_555
Mn3 O19 1.941582 1_555
Mn3 O29 1.973424 1_555
Mn3 O31 1.974271 1_555
Mn3 O13 2.293376 1_555
Mn3 O15 2.293379 1_555
H0 O0 1.036134 1_555
H0 O12 1.540276 1_555
H1 O1 1.035993 1_555
H1 O13 1.540906 1_555
H2 O2 1.035831 1_555
H2 O14 1.541812 1_555
H3 O3 1.036210 1_555
H3 O15 1.539872 1_555
H4 O4 1.036057 1_655
H4 O10 1.540601 1_555
H5 O5 1.036207 1_655
H5 O11 1.539846 1_555
H6 O6 1.036132 1_455
H6 O8 1.540184 1_555
H7 O7 1.036192 1_455
H7 O9 1.539906 1_555
O0 P2 1.589357 1_555
O1 P3 1.589309 1_555
O2 P0 1.589498 1_555
O3 P1 1.589268 1_555
O4 P4 1.589374 1_555
O5 P5 1.589268 1_555
O6 P6 1.589298 1_555
O7 P7 1.589252 1_555
O8 P0 1.539308 1_555
O9 P1 1.539518 1_555
O10 P2 1.539237 1_555
O11 P3 1.539451 1_555
O12 P4 1.539248 1_555
O13 P5 1.539485 1_555
O14 P6 1.539227 1_555
O15 P7 1.539412 1_555
O16 P2 1.539910 1_555
O17 P3 1.539960 1_555
O18 P0 1.539876 1_555
O19 P1 1.539963 1_555
O20 P4 1.539917 1_555
O21 P5 1.539880 1_555
O22 P6 1.539945 1_555
O23 P7 1.540007 1_555
O24 P6 1.550274 1_555
O25 P7 1.550097 1_555
O26 P4 1.550244 1_555
O27 P5 1.550154 1_555
O28 P3 1.550083 1_555
O29 P2 1.550298 1_565
O30 P1 1.550158 1_555
O31 P0 1.550237 1_565
