# generated using pymatgen
data_Li2MnV(P2O7)2
_symmetry_space_group_name_H-M   'P 1'
_cell_length_a   8.31111000
_cell_length_b   7.16634000
_cell_length_c   9.71202913
_cell_angle_alpha   68.80169808
_cell_angle_beta   90.00000000
_cell_angle_gamma   90.00000000
_symmetry_Int_Tables_number   1
_chemical_formula_structural   Li2MnV(P2O7)2
_chemical_formula_sum   'Li4 Mn2 V2 P8 O28'
_cell_volume   539.30963511
_cell_formula_units_Z   2
loop_
 _symmetry_equiv_pos_site_id
 _symmetry_equiv_pos_as_xyz
  1  'x, y, z'
loop_
 _atom_site_type_symbol
 _atom_site_label
 _atom_site_symmetry_multiplicity
 _atom_site_fract_x
 _atom_site_fract_y
 _atom_site_fract_z
 _atom_site_occupancy
  Li  Li0  1  0.63979300  0.67304600  0.75039000  1
  Li  Li1  1  0.14068600  0.32593500  0.74884400  1
  Li  Li2  1  0.64068600  0.67406500  0.25115600  1
  Li  Li3  1  0.13979300  0.32695400  0.24961000  1
  Mn  Mn0  1  0.50091800  0.27029500  0.75782800  1
  Mn  Mn1  1  0.00091800  0.72970500  0.24217200  1
  V  V0  1  0.00029100  0.72710900  0.74301500  1
  V  V1  1  0.50029100  0.27289100  0.25698500  1
  P  P0  1  0.21148700  0.91189800  0.93870500  1
  P  P1  1  0.32022600  0.52260100  0.93892300  1
  P  P2  1  0.82202700  0.48329200  0.55851900  1
  P  P3  1  0.21652200  0.91118900  0.43611400  1
  P  P4  1  0.71652200  0.08881100  0.56388600  1
  P  P5  1  0.32202700  0.51670800  0.44148100  1
  P  P6  1  0.82022600  0.47739900  0.06107700  1
  P  P7  1  0.71148700  0.08810200  0.06129500  1
  O  O0  1  0.34476200  0.75352000  0.92260000  1
  O  O1  1  0.06244000  0.90987200  0.84545700  1
  O  O2  1  0.82319000  0.60461400  0.89576200  1
  O  O3  1  0.15740500  0.50639600  0.87038600  1
  O  O4  1  0.46289100  0.48319000  0.85241100  1
  O  O5  1  0.67194900  0.15098500  0.89681200  1
  O  O6  1  0.29450500  0.11370100  0.88030000  1
  O  O7  1  0.80494500  0.88860700  0.62376500  1
  O  O8  1  0.17420300  0.85159300  0.59838000  1
  O  O9  1  0.96482000  0.51846800  0.64697400  1
  O  O10  1  0.65982500  0.50712300  0.62236600  1
  O  O11  1  0.32846000  0.39022600  0.60798200  1
  O  O12  1  0.56679700  0.08609000  0.65794400  1
  O  O13  1  0.84627700  0.25120900  0.57744900  1
  O  O14  1  0.34627700  0.74879100  0.42255100  1
  O  O15  1  0.06679700  0.91391000  0.34205600  1
  O  O16  1  0.82846000  0.60977400  0.39201800  1
  O  O17  1  0.15982500  0.49287700  0.37763400  1
  O  O18  1  0.46482000  0.48153200  0.35302600  1
  O  O19  1  0.67420300  0.14840700  0.40162000  1
  O  O20  1  0.30494500  0.11139300  0.37623500  1
  O  O21  1  0.79450500  0.88629900  0.11970000  1
  O  O22  1  0.17194900  0.84901500  0.10318800  1
  O  O23  1  0.96289100  0.51681000  0.14758900  1
  O  O24  1  0.65740500  0.49360400  0.12961400  1
  O  O25  1  0.32319000  0.39538600  0.10423800  1
  O  O26  1  0.56244000  0.09012800  0.15454300  1
  O  O27  1  0.84476200  0.24648000  0.07740000  1
loop_
_geom_bond_atom_site_label_1
_geom_bond_atom_site_label_2
_geom_bond_distance
_geom_bond_site_symmetry_2
Li0 O4 2.004896 1_555
Li0 O2 2.014050 1_555
Li0 O10 2.014141 1_555
Li0 O7 2.099729 1_555
Li1 O9 2.007921 1_455
Li1 O11 2.015818 1_555
Li1 O6 2.042858 1_555
Li1 O3 2.046750 1_555
Li2 O18 2.007921 1_555
Li2 O16 2.015818 1_555
Li2 O21 2.042858 1_555
Li2 O24 2.046750 1_555
Li3 O23 2.004896 1_455
Li3 O25 2.014050 1_555
Li3 O17 2.014141 1_555
Li3 O20 2.099729 1_555
Mn0 O5 1.933636 1_555
Mn0 O12 1.977255 1_555
Mn0 O11 2.001610 1_555
Mn0 O4 2.070007 1_555
Mn0 O6 2.156810 1_555
Mn0 O10 2.177324 1_555
Mn1 O22 1.933636 1_555
Mn1 O15 1.977255 1_555
Mn1 O16 2.001610 1_455
Mn1 O23 2.070007 1_455
Mn1 O21 2.156810 1_455
Mn1 O17 2.177324 1_555
O0 P1 1.617251 1_555
O0 P0 1.633393 1_555
O1 P0 1.537652 1_555
O1 V0 1.978503 1_555
O2 P6 1.533284 1_556
O2 V0 2.048425 1_655
O3 P1 1.530905 1_555
O3 V0 2.078969 1_555
O4 P1 1.537279 1_555
O5 P7 1.530469 1_556
O6 P0 1.515263 1_545
O7 P4 1.527517 1_565
O7 V0 2.085021 1_655
O8 P3 1.517537 1_555
O8 V0 1.987951 1_555
O9 P2 1.538374 1_555
O9 V0 2.049667 1_655
O10 P2 1.519069 1_555
O11 P5 1.542508 1_555
O12 P4 1.539628 1_555
O13 P2 1.618479 1_555
O13 P4 1.626533 1_555
O14 P5 1.618479 1_555
O14 P3 1.626533 1_555
O15 P3 1.539628 1_555
O16 P2 1.542508 1_555
O17 P5 1.519069 1_555
O18 P5 1.538374 1_555
O18 V1 2.049667 1_555
O19 P4 1.517537 1_555
O19 V1 1.987951 1_555
O20 P3 1.527517 1_545
O20 V1 2.085021 1_555
O21 P7 1.515263 1_565
O22 P0 1.530469 1_554
O23 P6 1.537279 1_555
O24 P6 1.530905 1_555
O24 V1 2.078969 1_555
O25 P1 1.533284 1_554
O25 V1 2.048425 1_555
O26 P7 1.537652 1_555
O26 V1 1.978503 1_555
O27 P6 1.617251 1_555
O27 P7 1.633393 1_555
