# generated using pymatgen
data_Sr(AgSn)2
_symmetry_space_group_name_H-M   'P 1'
_cell_length_a   4.71006468
_cell_length_b   4.71006366
_cell_length_c   6.69091614
_cell_angle_alpha   110.60813329
_cell_angle_beta   110.60814356
_cell_angle_gamma   89.99999816
_symmetry_Int_Tables_number   1
_chemical_formula_structural   Sr(AgSn)2
_chemical_formula_sum   'Sr1 Ag2 Sn2'
_cell_volume   128.74012135
_cell_formula_units_Z   1
loop_
 _symmetry_equiv_pos_site_id
 _symmetry_equiv_pos_as_xyz
  1  'x, y, z'
loop_
 _atom_site_type_symbol
 _atom_site_label
 _atom_site_symmetry_multiplicity
 _atom_site_fract_x
 _atom_site_fract_y
 _atom_site_fract_z
 _atom_site_occupancy
  Sr  Sr0  1  -0.00000000  -0.00000000  -0.00000000  1
  Ag  Ag0  1  0.75000000  0.25000000  0.50000000  1
  Ag  Ag1  1  0.25000000  0.75000000  0.50000000  1
  Sn  Sn0  1  0.37880695  0.37880695  0.75761390  1
  Sn  Sn1  1  0.62119305  0.62119305  0.24238610  1
loop_
_geom_bond_atom_site_label_1
_geom_bond_atom_site_label_2
_geom_bond_distance
_geom_bond_site_symmetry_2
Ag0 Sn1 2.789459 1_545
Ag0 Sn1 2.789459 1_555
Ag0 Sn0 2.789459 1_655
Ag0 Sn0 2.789459 1_555
Ag0 Ag1 3.330518 1_555
Ag0 Ag1 3.330518 1_645
Ag0 Ag1 3.330518 1_545
Ag0 Ag1 3.330518 1_655
Ag0 Sr0 3.737001 1_666
Ag0 Sr0 3.737001 1_656
Ag0 Sr0 3.737001 1_555
Ag0 Sr0 3.737001 1_655
Ag1 Sn0 2.789459 1_565
Ag1 Sn0 2.789459 1_555
Ag1 Sn1 2.789459 1_455
Ag1 Sn1 2.789459 1_555
Ag1 Sr0 3.737001 1_555
Ag1 Sr0 3.737001 1_565
Ag1 Sr0 3.737001 1_666
Ag1 Sr0 3.737001 1_566
Sn0 Sn1 2.813183 1_556
Sn0 Sr0 3.615363 1_656
Sn0 Sr0 3.615363 1_666
Sn0 Sr0 3.615363 1_566
Sn0 Sr0 3.615363 1_556
Sn1 Sr0 3.615363 1_565
Sn1 Sr0 3.615363 1_555
Sn1 Sr0 3.615363 1_655
Sn1 Sr0 3.615363 1_665
