# generated using pymatgen
data_NaLi3Fe4(SiO3)8
_symmetry_space_group_name_H-M   'P 1'
_cell_length_a   6.59407700
_cell_length_b   10.72267943
_cell_length_c   13.18638240
_cell_angle_alpha   75.42581661
_cell_angle_beta   84.01472898
_cell_angle_gamma   75.43146561
_symmetry_Int_Tables_number   1
_chemical_formula_structural   NaLi3Fe4(SiO3)8
_chemical_formula_sum   'Na2 Li6 Fe8 Si16 O48'
_cell_volume   872.50863377
_cell_formula_units_Z   2
loop_
 _symmetry_equiv_pos_site_id
 _symmetry_equiv_pos_as_xyz
  1  'x, y, z'
loop_
 _atom_site_type_symbol
 _atom_site_label
 _atom_site_symmetry_multiplicity
 _atom_site_fract_x
 _atom_site_fract_y
 _atom_site_fract_z
 _atom_site_occupancy
  Na  Na0  1  0.29148200  0.87544000  0.85473000  1
  Na  Na1  1  0.70851800  0.12456000  0.14527000  1
  Li  Li0  1  0.74883800  0.62320100  0.62856500  1
  Li  Li1  1  0.25221900  0.37422800  0.87518200  1
  Li  Li2  1  0.74548300  0.12611300  0.62663600  1
  Li  Li3  1  0.25451700  0.87388700  0.37336400  1
  Li  Li4  1  0.74778100  0.62577200  0.12481800  1
  Li  Li5  1  0.25116200  0.37679900  0.37143500  1
  Fe  Fe0  1  0.89795000  0.87422800  0.55223200  1
  Fe  Fe1  1  0.10309800  0.62477200  0.94936000  1
  Fe  Fe2  1  0.89800300  0.37577400  0.54997500  1
  Fe  Fe3  1  0.10097400  0.12532000  0.94872400  1
  Fe  Fe4  1  0.89902600  0.87468000  0.05127600  1
  Fe  Fe5  1  0.10199700  0.62422600  0.45002500  1
  Fe  Fe6  1  0.89690200  0.37522800  0.05064000  1
  Fe  Fe7  1  0.10205000  0.12577200  0.44776800  1
  Si  Si0  1  0.79327400  0.87940900  0.80824000  1
  Si  Si1  1  0.61931500  0.62673200  0.89738800  1
  Si  Si2  1  0.79669900  0.37976300  0.80633100  1
  Si  Si3  1  0.61558800  0.13067700  0.89482800  1
  Si  Si4  1  0.38383200  0.86897700  0.60212400  1
  Si  Si5  1  0.79572200  0.87739500  0.31041800  1
  Si  Si6  1  0.20704800  0.61769300  0.69282600  1
  Si  Si7  1  0.61333100  0.63052800  0.39880300  1
  Si  Si8  1  0.38666900  0.36947200  0.60119700  1
  Si  Si9  1  0.79295200  0.38230700  0.30717400  1
  Si  Si10  1  0.20427800  0.12260500  0.68958200  1
  Si  Si11  1  0.61616800  0.13102300  0.39787600  1
  Si  Si12  1  0.38441200  0.86932300  0.10517200  1
  Si  Si13  1  0.20330100  0.62023700  0.19366900  1
  Si  Si14  1  0.38068500  0.37326800  0.10261200  1
  Si  Si15  1  0.20672600  0.12059100  0.19176000  1
  O  O0  1  0.96426300  0.82165400  0.90147300  1
  O  O1  1  0.80349100  0.57405900  0.98420100  1
  O  O2  1  0.96923800  0.32461800  0.89957700  1
  O  O3  1  0.89039000  0.91218200  0.68917200  1
  O  O4  1  0.64698800  0.77140400  0.82287300  1
  O  O5  1  0.80214400  0.07169300  0.98074400  1
  O  O6  1  0.38318900  0.65239900  0.94807400  1
  O  O7  1  0.65108000  0.52395100  0.82054700  1
  O  O8  1  0.89249700  0.41216500  0.68704700  1
  O  O9  1  0.64901700  0.27332800  0.82090600  1
  O  O10  1  0.35029600  0.97800100  0.67454800  1
  O  O11  1  0.37711300  0.16412500  0.94264300  1
  O  O12  1  0.97036800  0.82297000  0.40240100  1
  O  O13  1  0.62384300  0.83590000  0.55681600  1
  O  O14  1  0.64076100  0.02207600  0.82258000  1
  O  O15  1  0.34961700  0.72749200  0.67784700  1
  O  O16  1  0.79823500  0.57436700  0.48608800  1
  O  O17  1  0.11531700  0.58423000  0.81253100  1
  O  O18  1  0.35591800  0.47618600  0.67482100  1
  O  O19  1  0.97057600  0.32514300  0.39818200  1
  O  O20  1  0.62516000  0.33756100  0.55357300  1
  O  O21  1  0.89494300  0.90257300  0.19208700  1
  O  O22  1  0.20131500  0.92580200  0.51381000  1
  O  O23  1  0.35760000  0.22553000  0.67339400  1
  O  O24  1  0.64240000  0.77447000  0.32660600  1
  O  O25  1  0.79868500  0.07419800  0.48619000  1
  O  O26  1  0.10505700  0.09742700  0.80791300  1
  O  O27  1  0.37484000  0.66243900  0.44642700  1
  O  O28  1  0.02942400  0.67485700  0.60181800  1
  O  O29  1  0.64408200  0.52381400  0.32517900  1
  O  O30  1  0.88468300  0.41577000  0.18746900  1
  O  O31  1  0.20176500  0.42563300  0.51391200  1
  O  O32  1  0.65038300  0.27250800  0.32215300  1
  O  O33  1  0.35923900  0.97792400  0.17742000  1
  O  O34  1  0.37615700  0.16410000  0.44318400  1
  O  O35  1  0.02963200  0.17703000  0.59759900  1
  O  O36  1  0.62288700  0.83587500  0.05735700  1
  O  O37  1  0.64970400  0.02199900  0.32545200  1
  O  O38  1  0.35098300  0.72667200  0.17909400  1
  O  O39  1  0.10750300  0.58783500  0.31295300  1
  O  O40  1  0.34892000  0.47604900  0.17945300  1
  O  O41  1  0.61681100  0.34760100  0.05192600  1
  O  O42  1  0.19785600  0.92830700  0.01925600  1
  O  O43  1  0.35301200  0.22859600  0.17712700  1
  O  O44  1  0.10961000  0.08781800  0.31082800  1
  O  O45  1  0.03076200  0.67538200  0.10042300  1
  O  O46  1  0.19650900  0.42594100  0.01579900  1
  O  O47  1  0.03573700  0.17834600  0.09852700  1
loop_
_geom_bond_atom_site_label_1
_geom_bond_atom_site_label_2
_geom_bond_distance
_geom_bond_site_symmetry_2
Na0 O26 2.346228 1_565
Na0 O0 2.353298 1_455
Na0 O6 2.355129 1_555
Na0 O42 2.360676 1_556
Na0 O4 2.373019 1_555
Na0 O10 2.390054 1_555
Na1 O21 2.346228 1_545
Na1 O47 2.353298 1_655
Na1 O41 2.355129 1_555
Na1 O5 2.360676 1_554
Na1 O43 2.373019 1_555
Na1 O37 2.390054 1_555
Li0 O28 2.033619 1_655
Li0 O16 2.047361 1_555
Li0 O8 2.192802 1_555
Li0 O13 2.215191 1_555
Li1 O46 2.038015 1_556
Li1 O2 2.038742 1_455
Li1 O11 2.180779 1_555
Li1 O17 2.182808 1_555
Li2 O25 2.036629 1_555
Li2 O35 2.053108 1_655
Li2 O20 2.203048 1_555
Li2 O3 2.228166 1_545
Li3 O22 2.036629 1_555
Li3 O12 2.053108 1_455
Li3 O27 2.203048 1_555
Li3 O44 2.228166 1_565
Li4 O1 2.038015 1_554
Li4 O45 2.038742 1_655
Li4 O36 2.180779 1_555
Li4 O30 2.182808 1_555
Li5 O19 2.033619 1_455
Li5 O31 2.047361 1_555
Li5 O39 2.192802 1_555
Li5 O34 2.215191 1_555
Fe0 O3 1.941566 1_555
Fe0 O13 1.943699 1_555
Fe0 O28 2.057097 1_655
Fe0 O25 2.063382 1_565
Fe0 O12 2.156694 1_555
Fe0 O22 2.183649 1_655
Fe1 O6 1.940470 1_555
Fe1 O17 1.948768 1_555
Fe1 O0 2.042300 1_455
Fe1 O46 2.050425 1_556
Fe1 O1 2.152982 1_455
Fe1 O45 2.169247 1_556
Fe2 O20 1.936583 1_555
Fe2 O8 1.937710 1_555
Fe2 O16 2.045739 1_555
Fe2 O35 2.049100 1_655
Fe2 O31 2.176286 1_655
Fe2 O19 2.178665 1_555
Fe3 O26 1.950089 1_555
Fe3 O11 1.956807 1_555
Fe3 O42 2.047438 1_546
Fe3 O2 2.056191 1_455
Fe3 O5 2.160130 1_455
Fe3 O47 2.162260 1_556
Fe4 O21 1.950089 1_555
Fe4 O36 1.956807 1_555
Fe4 O5 2.047438 1_564
Fe4 O45 2.056191 1_655
Fe4 O42 2.160130 1_655
Fe4 O0 2.162260 1_554
Fe5 O27 1.936583 1_555
Fe5 O39 1.937710 1_555
Fe5 O31 2.045739 1_555
Fe5 O12 2.049100 1_455
Fe5 O16 2.176286 1_455
Fe5 O28 2.178665 1_555
Fe6 O41 1.940470 1_555
Fe6 O30 1.948768 1_555
Fe6 O47 2.042300 1_655
Fe6 O1 2.050425 1_554
Fe6 O46 2.152982 1_655
Fe6 O2 2.169247 1_554
Fe7 O44 1.941566 1_555
Fe7 O34 1.943699 1_555
Fe7 O19 2.057097 1_455
Fe7 O22 2.063382 1_545
Fe7 O35 2.156694 1_555
Fe7 O25 2.183649 1_455
O0 Si0 1.649511 1_555
O1 Si1 1.650411 1_555
O2 Si2 1.656303 1_555
O3 Si0 1.620057 1_555
O4 Si0 1.649137 1_555
O4 Si1 1.656237 1_555
O5 Si3 1.653921 1_555
O6 Si1 1.614551 1_555
O7 Si1 1.639134 1_555
O7 Si2 1.645904 1_555
O8 Si2 1.619264 1_555
O9 Si2 1.642397 1_555
O9 Si3 1.647082 1_555
O10 Si4 1.647830 1_555
O10 Si10 1.653601 1_565
O11 Si3 1.619353 1_555
O12 Si5 1.653774 1_555
O13 Si4 1.616968 1_555
O14 Si0 1.649034 1_545
O14 Si3 1.649036 1_555
O15 Si6 1.646211 1_555
O15 Si4 1.646925 1_555
O16 Si7 1.657850 1_555
O17 Si6 1.615935 1_555
O18 Si8 1.641420 1_555
O18 Si6 1.644898 1_555
O19 Si9 1.658161 1_555
O20 Si8 1.617431 1_555
O21 Si5 1.612336 1_555
O22 Si4 1.655952 1_555
O23 Si10 1.638134 1_555
O23 Si8 1.642128 1_555
O24 Si5 1.638134 1_555
O24 Si7 1.642128 1_555
O25 Si11 1.655952 1_555
O26 Si10 1.612336 1_555
O27 Si7 1.617431 1_555
O28 Si6 1.658161 1_555
O29 Si7 1.641420 1_555
O29 Si9 1.644898 1_555
O30 Si9 1.615935 1_555
O31 Si8 1.657850 1_555
O32 Si9 1.646211 1_555
O32 Si11 1.646925 1_555
O33 Si15 1.649034 1_565
O33 Si12 1.649036 1_555
O34 Si11 1.616968 1_555
O35 Si10 1.653774 1_555
O36 Si12 1.619353 1_555
O37 Si11 1.647830 1_555
O37 Si5 1.653601 1_545
O38 Si13 1.642397 1_555
O38 Si12 1.647082 1_555
O39 Si13 1.619264 1_555
O40 Si14 1.639134 1_555
O40 Si13 1.645904 1_555
O41 Si14 1.614551 1_555
O42 Si12 1.653921 1_555
O43 Si15 1.649137 1_555
O43 Si14 1.656237 1_555
O44 Si15 1.620057 1_555
O45 Si13 1.656303 1_555
O46 Si14 1.650411 1_555
O47 Si15 1.649511 1_555
