# generated using pymatgen
data_HfGeSe
_symmetry_space_group_name_H-M   'P 1'
_cell_length_a   3.70033751
_cell_length_b   3.70033751
_cell_length_c   8.21282426
_cell_angle_alpha   90.00000000
_cell_angle_beta   90.00000000
_cell_angle_gamma   90.00000000
_symmetry_Int_Tables_number   1
_chemical_formula_structural   HfGeSe
_chemical_formula_sum   'Hf2 Ge2 Se2'
_cell_volume   112.45407719
_cell_formula_units_Z   2
loop_
 _symmetry_equiv_pos_site_id
 _symmetry_equiv_pos_as_xyz
  1  'x, y, z'
loop_
 _atom_site_type_symbol
 _atom_site_label
 _atom_site_symmetry_multiplicity
 _atom_site_fract_x
 _atom_site_fract_y
 _atom_site_fract_z
 _atom_site_occupancy
  Hf  Hf0  1  0.75000000  0.75000000  0.73972384  1
  Hf  Hf1  1  0.25000000  0.25000000  0.26027616  1
  Ge  Ge0  1  0.75000000  0.25000000  -0.00000000  1
  Ge  Ge1  1  0.25000000  0.75000000  -0.00000000  1
  Se  Se0  1  0.25000000  0.25000000  0.62158858  1
  Se  Se1  1  0.75000000  0.75000000  0.37841142  1
loop_
_geom_bond_atom_site_label_1
_geom_bond_atom_site_label_2
_geom_bond_distance
_geom_bond_site_symmetry_2
Hf0 Se0 2.790624 1_565
Hf0 Se0 2.790624 1_665
Hf0 Se0 2.790624 1_555
Hf0 Se0 2.790624 1_655
Hf0 Se1 2.967395 1_555
Hf1 Se1 2.790624 1_455
Hf1 Se1 2.790624 1_445
Hf1 Se1 2.790624 1_555
Hf1 Se1 2.790624 1_545
Hf1 Se0 2.967395 1_555
Ge0 Ge1 2.616534 1_645
Ge0 Ge1 2.616534 1_555
Ge0 Ge1 2.616534 1_655
Ge0 Ge1 2.616534 1_545
Ge0 Hf0 2.827095 1_554
Ge0 Hf0 2.827095 1_544
Ge0 Hf1 2.827095 1_655
Ge0 Hf1 2.827095 1_555
Ge1 Hf1 2.827095 1_565
Ge1 Hf0 2.827095 1_554
Ge1 Hf0 2.827095 1_454
Ge1 Hf1 2.827095 1_555
