# generated using pymatgen
data_CuSiH8(O2F3)2
_symmetry_space_group_name_H-M   'P 1'
_cell_length_a   9.48997600
_cell_length_b   6.19400800
_cell_length_c   6.82292080
_cell_angle_alpha   69.03157930
_cell_angle_beta   90.00000000
_cell_angle_gamma   90.00000000
_symmetry_Int_Tables_number   1
_chemical_formula_structural   CuSiH8(O2F3)2
_chemical_formula_sum   'Cu2 Si2 H16 O8 F12'
_cell_volume   374.49907771
_cell_formula_units_Z   2
loop_
 _symmetry_equiv_pos_site_id
 _symmetry_equiv_pos_as_xyz
  1  'x, y, z'
loop_
 _atom_site_type_symbol
 _atom_site_label
 _atom_site_symmetry_multiplicity
 _atom_site_fract_x
 _atom_site_fract_y
 _atom_site_fract_z
 _atom_site_occupancy
  Cu  Cu0  1  0.50000000  0.50000000  0.00000000  1
  Cu  Cu1  1  0.00000000  0.00000000  0.00000000  1
  Si  Si0  1  0.00000000  0.50000000  0.50000000  1
  Si  Si1  1  0.50000000  0.00000000  0.50000000  1
  H  H0  1  0.29933900  0.40733200  0.79550000  1
  H  H1  1  0.79933900  0.09266800  0.20450000  1
  H  H2  1  0.70066100  0.59266800  0.20450000  1
  H  H3  1  0.20066100  0.90733200  0.79550000  1
  H  H4  1  0.71593600  0.77521000  0.97303700  1
  H  H5  1  0.21593600  0.72479000  0.02696300  1
  H  H6  1  0.28406400  0.22479000  0.02696300  1
  H  H7  1  0.78406400  0.27521000  0.97303700  1
  H  H8  1  0.84510300  0.05768600  0.69778100  1
  H  H9  1  0.34510300  0.44231400  0.30221900  1
  H  H10  1  0.15489700  0.94231400  0.30221900  1
  H  H11  1  0.65489700  0.55768600  0.69778100  1
  H  H12  1  0.40138400  0.70606300  0.23462500  1
  H  H13  1  0.90138400  0.79393700  0.76537500  1
  H  H14  1  0.59861600  0.29393700  0.76537500  1
  H  H15  1  0.09861600  0.20606300  0.23462500  1
  O  O0  1  0.35364900  0.31617400  0.91977600  1
  O  O1  1  0.85364900  0.18382600  0.08022400  1
  O  O2  1  0.64635100  0.68382600  0.08022400  1
  O  O3  1  0.14635100  0.81617400  0.91977600  1
  O  O4  1  0.86259600  0.91194400  0.82138300  1
  O  O5  1  0.36259600  0.58805600  0.17861700  1
  O  O6  1  0.13740400  0.08805600  0.17861700  1
  O  O7  1  0.63740400  0.41194400  0.82138300  1
  F  F0  1  0.43330300  0.91621200  0.30440200  1
  F  F1  1  0.93330300  0.58378800  0.69559800  1
  F  F2  1  0.56669700  0.08378800  0.69559800  1
  F  F3  1  0.06669700  0.41621200  0.30440200  1
  F  F4  1  0.35741000  0.18107200  0.47328600  1
  F  F5  1  0.85741000  0.31892800  0.52671400  1
  F  F6  1  0.64259000  0.81892800  0.52671400  1
  F  F7  1  0.14259000  0.68107200  0.47328600  1
  F  F8  1  0.40872500  0.78288700  0.68504300  1
  F  F9  1  0.90872500  0.71711300  0.31495700  1
  F  F10  1  0.59127500  0.21711300  0.31495700  1
  F  F11  1  0.09127500  0.28288700  0.68504300  1
loop_
_geom_bond_atom_site_label_1
_geom_bond_atom_site_label_2
_geom_bond_distance
_geom_bond_site_symmetry_2
Cu0 O7 1.989655 1_554
Cu0 O5 1.989655 1_555
Cu0 O0 1.992754 1_554
Cu0 O2 1.992754 1_555
Cu0 F8 2.396562 1_554
Cu0 F10 2.396562 1_555
Cu1 O4 1.989655 1_444
Cu1 O6 1.989655 1_555
Cu1 O1 1.992754 1_455
Cu1 O3 1.992754 1_544
Cu1 F9 2.396562 1_445
Cu1 F11 2.396562 1_554
H0 O0 0.980188 1_555
H1 O1 0.980188 1_555
H2 O2 0.980188 1_555
H3 O3 0.980188 1_555
H4 O2 0.997516 1_556
H5 O3 0.997516 1_554
H6 O0 0.997516 1_554
H7 O1 0.997516 1_556
H8 O4 1.004396 1_545
H9 O5 1.004396 1_555
H10 O6 1.004396 1_565
H11 O7 1.004396 1_555
H12 O5 1.007821 1_555
H13 O4 1.007821 1_555
H14 O7 1.007821 1_555
H15 O6 1.007821 1_555
F0 H12 1.567247 1_555
F0 Si1 1.716596 1_565
F1 H13 1.567247 1_555
F1 Si0 1.716596 1_655
F2 H14 1.567247 1_555
F2 Si1 1.716596 1_555
F3 H15 1.567247 1_555
F3 Si0 1.716596 1_555
F4 H9 1.625603 1_555
F4 Si1 1.725079 1_555
F5 H8 1.625603 1_555
F5 Si0 1.725079 1_655
F6 H11 1.625603 1_555
F6 Si1 1.725079 1_565
F7 H10 1.625603 1_555
F7 Si0 1.725079 1_555
F8 Si1 1.713946 1_565
F9 Si0 1.713946 1_655
F10 Si1 1.713946 1_555
F11 Si0 1.713946 1_555
