# generated using pymatgen
data_TiMn2Ni3(PO4)6
_symmetry_space_group_name_H-M   'P 1'
_cell_length_a   8.55608297
_cell_length_b   8.55608297
_cell_length_c   8.55608298
_cell_angle_alpha   60.85326777
_cell_angle_beta   60.85326777
_cell_angle_gamma   60.85326983
_symmetry_Int_Tables_number   1
_chemical_formula_structural   TiMn2Ni3(PO4)6
_chemical_formula_sum   'Ti1 Mn2 Ni3 P6 O24'
_cell_volume   451.42530151
_cell_formula_units_Z   1
loop_
 _symmetry_equiv_pos_site_id
 _symmetry_equiv_pos_as_xyz
  1  'x, y, z'
loop_
 _atom_site_type_symbol
 _atom_site_label
 _atom_site_symmetry_multiplicity
 _atom_site_fract_x
 _atom_site_fract_y
 _atom_site_fract_z
 _atom_site_occupancy
  Ti  Ti0  1  0.85441400  0.85441400  0.85441400  1
  Mn  Mn0  1  0.00038500  0.00038500  0.00038500  1
  Mn  Mn1  1  0.50109300  0.50109300  0.50109300  1
  Ni  Ni0  1  0.14335900  0.14335900  0.14335900  1
  Ni  Ni1  1  0.35869200  0.35869200  0.35869200  1
  Ni  Ni2  1  0.64348400  0.64348400  0.64348400  1
  P  P0  1  0.54339300  0.25095400  0.95498000  1
  P  P1  1  0.95498000  0.54339300  0.25095400  1
  P  P2  1  0.25095400  0.95498000  0.54339300  1
  P  P3  1  0.74955600  0.04636800  0.45417800  1
  P  P4  1  0.04636800  0.45417800  0.74955600  1
  P  P5  1  0.45417800  0.74955600  0.04636800  1
  O  O0  1  0.31368300  0.10837100  0.51212700  1
  O  O1  1  0.51212700  0.31368300  0.10837100  1
  O  O2  1  0.91030600  0.05817900  0.25909600  1
  O  O3  1  0.10837100  0.51212700  0.31368300  1
  O  O4  1  0.82140900  0.99004300  0.61627700  1
  O  O5  1  0.59687600  0.24405000  0.44684700  1
  O  O6  1  0.05817900  0.25909600  0.91030600  1
  O  O7  1  0.24405000  0.44684700  0.59687600  1
  O  O8  1  0.39156400  0.18252600  0.99150200  1
  O  O9  1  0.44684700  0.59687600  0.24405000  1
  O  O10  1  0.74416400  0.08983000  0.93262300  1
  O  O11  1  0.99150200  0.39156400  0.18252600  1
  O  O12  1  0.99004300  0.61627700  0.82140900  1
  O  O13  1  0.25909600  0.91030600  0.05817900  1
  O  O14  1  0.55757600  0.41075500  0.75660300  1
  O  O15  1  0.61627700  0.82140900  0.99004300  1
  O  O16  1  0.75660300  0.55757600  0.41075500  1
  O  O17  1  0.93262300  0.74416400  0.08983000  1
  O  O18  1  0.41075500  0.75660300  0.55757600  1
  O  O19  1  0.18252600  0.99150200  0.39156400  1
  O  O20  1  0.89678000  0.48949400  0.67846400  1
  O  O21  1  0.08983000  0.93262300  0.74416400  1
  O  O22  1  0.48949400  0.67846400  0.89678000  1
  O  O23  1  0.67846400  0.89678000  0.48949400  1
loop_
_geom_bond_atom_site_label_1
_geom_bond_atom_site_label_2
_geom_bond_distance
_geom_bond_site_symmetry_2
Mn0 O6 2.184374 1_554
Mn0 O2 2.184374 1_455
Mn0 O13 2.184374 1_545
Mn0 O17 2.213457 1_445
Mn0 O21 2.213457 1_544
Mn0 O10 2.213457 1_454
Mn1 O7 2.142896 1_555
Mn1 O9 2.142896 1_555
Mn1 O5 2.142896 1_555
Mn1 O16 2.151647 1_555
Mn1 O14 2.151647 1_555
Mn1 O18 2.151647 1_555
Ni0 O8 1.972747 1_554
Ni0 O19 1.972747 1_545
Ni0 O11 1.972747 1_455
Ni0 O2 2.068102 1_455
Ni0 O6 2.068102 1_554
Ni0 O13 2.068102 1_545
Ni1 O0 2.007736 1_555
Ni1 O1 2.007736 1_555
Ni1 O3 2.007736 1_555
Ni1 O9 2.124527 1_555
Ni1 O7 2.124527 1_555
Ni1 O5 2.124527 1_555
Ni2 O23 1.997153 1_555
Ni2 O22 1.997153 1_555
Ni2 O20 1.997153 1_555
Ni2 O14 2.073046 1_555
Ni2 O16 2.073046 1_555
Ni2 O18 2.073046 1_555
O0 P2 1.512079 1_545
O1 P0 1.512079 1_554
O2 P3 1.556525 1_555
O3 P1 1.512079 1_455
O4 P3 1.557137 1_565
O4 Ti0 1.875087 1_555
O5 P3 1.547717 1_555
O6 P4 1.556525 1_555
O7 P4 1.547717 1_555
O8 P0 1.514999 1_555
O9 P5 1.547717 1_555
O10 P0 1.586809 1_555
O10 Ti0 2.059612 1_545
O11 P1 1.514999 1_555
O12 P4 1.557137 1_655
O12 Ti0 1.875087 1_555
O13 P5 1.556525 1_555
O14 P0 1.570183 1_555
O15 P5 1.557137 1_556
O15 Ti0 1.875087 1_555
O16 P1 1.570183 1_555
O17 P1 1.586808 1_555
O17 Ti0 2.059612 1_554
O18 P2 1.570183 1_555
O19 P2 1.514999 1_555
O20 P4 1.517234 1_655
O21 P2 1.586808 1_555
O21 Ti0 2.059612 1_455
O22 P5 1.517234 1_556
O23 P3 1.517234 1_565
