# generated using pymatgen
data_NaBiPCO7
_symmetry_space_group_name_H-M   'P 1'
_cell_length_a   6.97531900
_cell_length_b   5.45206200
_cell_length_c   9.49423535
_cell_angle_alpha   89.00508360
_cell_angle_beta   90.00000000
_cell_angle_gamma   90.00000000
_symmetry_Int_Tables_number   1
_chemical_formula_structural   NaBiPCO7
_chemical_formula_sum   'Na2 Bi2 P2 C2 O14'
_cell_volume   361.01011779
_cell_formula_units_Z   2
loop_
 _symmetry_equiv_pos_site_id
 _symmetry_equiv_pos_as_xyz
  1  'x, y, z'
loop_
 _atom_site_type_symbol
 _atom_site_label
 _atom_site_symmetry_multiplicity
 _atom_site_fract_x
 _atom_site_fract_y
 _atom_site_fract_z
 _atom_site_occupancy
  Na  Na0  1  0.48269100  0.23089900  0.78188100  1
  Na  Na1  1  0.98269100  0.76910100  0.21811900  1
  Bi  Bi0  1  0.76760200  0.78377900  0.63434700  1
  Bi  Bi1  1  0.26760200  0.21622100  0.36565300  1
  P  P0  1  0.26197000  0.72293900  0.58261600  1
  P  P1  1  0.76197000  0.27706100  0.41738400  1
  C  C0  1  0.73283700  0.72627800  0.92609500  1
  C  C1  1  0.23283700  0.27372200  0.07390500  1
  O  O0  1  0.24999600  0.31071700  0.94338700  1
  O  O1  1  0.73364100  0.94217600  0.86604100  1
  O  O2  1  0.71734400  0.53582000  0.84364600  1
  O  O3  1  0.08681600  0.80665100  0.67069700  1
  O  O4  1  0.43593000  0.85137500  0.65163400  1
  O  O5  1  0.74076000  0.18962600  0.57586200  1
  O  O6  1  0.28826300  0.44147200  0.58207700  1
  O  O7  1  0.78826300  0.55852800  0.41792300  1
  O  O8  1  0.24076000  0.81037400  0.42413800  1
  O  O9  1  0.93593000  0.14862500  0.34836600  1
  O  O10  1  0.58681600  0.19334900  0.32930300  1
  O  O11  1  0.21734400  0.46418000  0.15635400  1
  O  O12  1  0.23364100  0.05782400  0.13395900  1
  O  O13  1  0.74999600  0.68928300  0.05661300  1
loop_
_geom_bond_atom_site_label_1
_geom_bond_atom_site_label_2
_geom_bond_distance
_geom_bond_site_symmetry_2
Na0 O0 2.279981 1_555
Na0 O2 2.412574 1_555
Na0 O4 2.450705 1_545
Na0 O1 2.477252 1_545
Na0 O6 2.584614 1_555
Na0 O5 2.670625 1_555
Na1 O13 2.279981 1_555
Na1 O11 2.412574 1_655
Na1 O9 2.450705 1_565
Na1 O12 2.477252 1_665
Na1 O7 2.584614 1_555
Na1 O8 2.670625 1_655
Bi0 O3 2.256985 1_655
Bi0 O5 2.279642 1_565
Bi0 O4 2.348877 1_555
Bi0 O1 2.388893 1_555
Bi0 O2 2.409545 1_555
Bi0 O7 2.416343 1_555
Bi1 O10 2.256985 1_555
Bi1 O8 2.279642 1_545
Bi1 O9 2.348877 1_455
Bi1 O12 2.388893 1_555
Bi1 O11 2.409545 1_555
Bi1 O6 2.416343 1_555
C0 O13 1.257723 1_556
C0 O1 1.298982 1_555
C0 O2 1.315644 1_555
C1 O0 1.257723 1_554
C1 O12 1.298982 1_555
C1 O11 1.315644 1_555
O3 P0 1.553569 1_555
O4 P0 1.551792 1_555
O5 P1 1.577380 1_555
O6 P0 1.545593 1_555
O7 P1 1.545593 1_555
O8 P0 1.577380 1_555
O9 P1 1.551792 1_555
O10 P1 1.553569 1_555
