# generated using pymatgen
data_LiVFeP2(HO5)2
_symmetry_space_group_name_H-M   'P 1'
_cell_length_a   5.30248800
_cell_length_b   7.42388792
_cell_length_c   10.44608096
_cell_angle_alpha   105.14799431
_cell_angle_beta   98.06803624
_cell_angle_gamma   110.16277532
_symmetry_Int_Tables_number   1
_chemical_formula_structural   LiVFeP2(HO5)2
_chemical_formula_sum   'Li2 V2 Fe2 P4 H4 O20'
_cell_volume   360.34938585
_cell_formula_units_Z   2
loop_
 _symmetry_equiv_pos_site_id
 _symmetry_equiv_pos_as_xyz
  1  'x, y, z'
loop_
 _atom_site_type_symbol
 _atom_site_label
 _atom_site_symmetry_multiplicity
 _atom_site_fract_x
 _atom_site_fract_y
 _atom_site_fract_z
 _atom_site_occupancy
  Li  Li0  1  0.43481900  0.84468100  0.78314800  1
  Li  Li1  1  0.56518100  0.15531900  0.21685200  1
  V  V0  1  0.50000000  0.50000000  0.50000000  1
  V  V1  1  0.50000000  0.50000000  0.00000000  1
  Fe  Fe0  1  0.99888300  0.99323200  0.25349300  1
  Fe  Fe1  1  0.00111700  0.00676800  0.74650700  1
  P  P0  1  0.13077600  0.77579000  0.97661200  1
  P  P1  1  0.12606100  0.76958800  0.47528300  1
  P  P2  1  0.86922400  0.22421000  0.02338800  1
  P  P3  1  0.87393900  0.23041200  0.52471700  1
  H  H0  1  0.28680400  0.34694100  0.24739500  1
  H  H1  1  0.71319600  0.65305900  0.75260500  1
  H  H2  1  0.30782000  0.34353700  0.74516800  1
  H  H3  1  0.69218000  0.65646300  0.25483200  1
  O  O0  1  0.83015700  0.07199500  0.59754500  1
  O  O1  1  0.18109400  0.37698600  0.07107500  1
  O  O2  1  0.69113300  0.35128600  0.56400700  1
  O  O3  1  0.77840200  0.10688900  0.86897900  1
  O  O4  1  0.22159800  0.89311100  0.13102100  1
  O  O5  1  0.66956500  0.71727900  0.68544500  1
  O  O6  1  0.33043500  0.28272100  0.31455500  1
  O  O7  1  0.16984300  0.92800500  0.40245500  1
  O  O8  1  0.81890600  0.62301400  0.92892500  1
  O  O9  1  0.68264000  0.34099500  0.06599300  1
  O  O10  1  0.30886700  0.64871400  0.43599300  1
  O  O11  1  0.18778700  0.38217500  0.57779400  1
  O  O12  1  0.82614500  0.07764900  0.10693700  1
  O  O13  1  0.68327900  0.71306200  0.17909500  1
  O  O14  1  0.31672100  0.28693800  0.82090500  1
  O  O15  1  0.79556900  0.13076900  0.36796200  1
  O  O16  1  0.20443100  0.86923100  0.63203800  1
  O  O17  1  0.31736000  0.65900500  0.93400700  1
  O  O18  1  0.81221300  0.61782500  0.42220600  1
  O  O19  1  0.17385500  0.92235100  0.89306300  1
loop_
_geom_bond_atom_site_label_1
_geom_bond_atom_site_label_2
_geom_bond_distance
_geom_bond_site_symmetry_2
Li0 O16 1.944182 1_555
Li0 O3 2.024055 1_565
Li0 O5 2.036982 1_555
Li0 O19 2.053194 1_555
Li0 O17 2.364393 1_555
Li1 O15 1.944182 1_555
Li1 O4 2.024055 1_545
Li1 O6 2.036982 1_555
Li1 O12 2.053194 1_555
Li1 O9 2.364393 1_555
Fe0 O7 1.943726 1_655
Fe0 O12 2.019655 1_565
Fe0 O4 2.028812 1_655
Fe0 O15 2.029095 1_565
Fe0 O13 2.030099 1_555
Fe0 O6 2.116721 1_665
Fe1 O0 1.943726 1_455
Fe1 O19 2.019655 1_545
Fe1 O3 2.028812 1_455
Fe1 O16 2.029095 1_545
Fe1 O14 2.030099 1_555
Fe1 O5 2.116721 1_445
H0 O6 0.989089 1_555
H1 O5 0.989089 1_555
H2 O14 0.990775 1_555
H3 O13 0.990775 1_555
O0 P3 1.531261 1_555
O1 P2 1.565156 1_455
O1 V1 1.971521 1_555
O2 P3 1.559526 1_555
O2 V0 1.913122 1_555
O3 P2 1.533225 1_556
O4 P0 1.533225 1_554
O5 V0 2.010271 1_555
O6 V0 2.010271 1_555
O7 P1 1.531261 1_555
O8 P0 1.565156 1_655
O8 V1 1.971521 1_556
O9 P2 1.562644 1_555
O9 V1 1.957683 1_555
O10 P1 1.559526 1_555
O10 V0 1.913122 1_555
O11 P3 1.571063 1_455
O11 V0 1.979158 1_555
O12 P2 1.542290 1_555
O13 V1 1.956993 1_555
O14 V1 1.956993 1_556
O15 P3 1.537936 1_555
O16 P1 1.537936 1_555
O17 P0 1.562644 1_555
O17 V1 1.957683 1_556
O18 P1 1.571063 1_655
O18 V0 1.979158 1_555
O19 P0 1.542290 1_555
