# generated using pymatgen
data_LiFeP2O7
_symmetry_space_group_name_H-M   'P 1'
_cell_length_a   10.16915000
_cell_length_b   7.12046700
_cell_length_c   8.08470566
_cell_angle_alpha   68.87971842
_cell_angle_beta   90.00000000
_cell_angle_gamma   90.00000000
_symmetry_Int_Tables_number   1
_chemical_formula_structural   LiFeP2O7
_chemical_formula_sum   'Li4 Fe4 P8 O28'
_cell_volume   546.08218370
_cell_formula_units_Z   4
loop_
 _symmetry_equiv_pos_site_id
 _symmetry_equiv_pos_as_xyz
  1  'x, y, z'
loop_
 _atom_site_type_symbol
 _atom_site_label
 _atom_site_symmetry_multiplicity
 _atom_site_fract_x
 _atom_site_fract_y
 _atom_site_fract_z
 _atom_site_occupancy
  Li  Li0  1  0.84342800  0.89664500  0.55241500  1
  Li  Li1  1  0.65657200  0.89664500  0.05241500  1
  Li  Li2  1  0.34342800  0.10335500  0.94758500  1
  Li  Li3  1  0.15657200  0.10335500  0.44758500  1
  Fe  Fe0  1  0.39385800  0.76441700  0.75530400  1
  Fe  Fe1  1  0.10614200  0.76441700  0.25530400  1
  Fe  Fe2  1  0.89385800  0.23558300  0.74469600  1
  Fe  Fe3  1  0.60614200  0.23558300  0.24469600  1
  P  P0  1  0.09031000  0.86099500  0.81328800  1
  P  P1  1  0.40969000  0.86099500  0.31328800  1
  P  P2  1  0.14660400  0.53051900  0.70404400  1
  P  P3  1  0.64660400  0.46948100  0.79595600  1
  P  P4  1  0.35339600  0.53051900  0.20404400  1
  P  P5  1  0.85339600  0.46948100  0.29595600  1
  P  P6  1  0.59031000  0.13900500  0.68671200  1
  P  P7  1  0.90969000  0.13900500  0.18671200  1
  O  O0  1  0.46933500  0.02573500  0.79030900  1
  O  O1  1  0.21654100  0.93835200  0.70349700  1
  O  O2  1  0.03066500  0.02573500  0.29030900  1
  O  O3  1  0.39877000  0.86832600  0.49697500  1
  O  O4  1  0.28345900  0.93835200  0.20349700  1
  O  O5  1  0.07095800  0.62971600  0.83118900  1
  O  O6  1  0.58068800  0.67297000  0.75691700  1
  O  O7  1  0.10123000  0.86832600  0.99697500  1
  O  O8  1  0.12382200  0.67575700  0.51427500  1
  O  O9  1  0.29159800  0.50936500  0.76194500  1
  O  O10  1  0.42904200  0.62971600  0.33118900  1
  O  O11  1  0.91931200  0.67297000  0.25691700  1
  O  O12  1  0.37617800  0.67575700  0.01427500  1
  O  O13  1  0.79159800  0.49063500  0.73805500  1
  O  O14  1  0.20840200  0.50936500  0.26194500  1
  O  O15  1  0.62382200  0.32424300  0.98572500  1
  O  O16  1  0.08068800  0.32703000  0.74308300  1
  O  O17  1  0.57095800  0.37028400  0.66881100  1
  O  O18  1  0.70840200  0.49063500  0.23805500  1
  O  O19  1  0.87617800  0.32424300  0.48572500  1
  O  O20  1  0.89877000  0.13167400  0.00302500  1
  O  O21  1  0.41931200  0.32703000  0.24308300  1
  O  O22  1  0.92904200  0.37028400  0.16881100  1
  O  O23  1  0.71654100  0.06164800  0.79650300  1
  O  O24  1  0.60123000  0.13167400  0.50302500  1
  O  O25  1  0.96933500  0.97426500  0.70969100  1
  O  O26  1  0.78345900  0.06164800  0.29650300  1
  O  O27  1  0.53066500  0.97426500  0.20969100  1
loop_
_geom_bond_atom_site_label_1
_geom_bond_atom_site_label_2
_geom_bond_distance
_geom_bond_site_symmetry_2
Li0 O25 2.016939 1_555
Li0 O26 2.069092 1_565
Li1 O27 2.016939 1_555
Li1 O23 2.069092 1_564
Li2 O0 2.016939 1_555
Li2 O4 2.069092 1_546
Li3 O2 2.016939 1_555
Li3 O1 2.069092 1_545
Fe0 O3 1.948902 1_555
Fe0 O12 1.965180 1_556
Fe0 O6 2.006906 1_555
Fe0 O9 2.076579 1_555
Fe0 O0 2.123893 1_565
Fe0 O1 2.141699 1_555
Fe1 O7 1.948902 1_554
Fe1 O8 1.965180 1_555
Fe1 O11 2.006906 1_455
Fe1 O14 2.076579 1_555
Fe1 O2 2.123893 1_565
Fe1 O4 2.141699 1_555
Fe2 O20 1.948902 1_556
Fe2 O19 1.965180 1_555
Fe2 O16 2.006906 1_655
Fe2 O13 2.076579 1_555
Fe2 O25 2.123893 1_545
Fe2 O23 2.141699 1_555
Fe3 O24 1.948902 1_555
Fe3 O15 1.965180 1_554
Fe3 O21 2.006906 1_555
Fe3 O18 2.076579 1_555
Fe3 O27 2.123893 1_545
Fe3 O26 2.141699 1_555
O0 P6 1.542272 1_555
O1 P0 1.544904 1_555
O2 P7 1.542272 1_455
O3 P1 1.508745 1_555
O4 P1 1.544904 1_555
O5 P0 1.612425 1_555
O5 P2 1.634176 1_555
O6 P3 1.522756 1_555
O7 P0 1.508745 1_555
O8 P2 1.527612 1_555
O9 P2 1.537873 1_555
O10 P1 1.612425 1_555
O10 P4 1.634176 1_555
O11 P5 1.522756 1_555
O12 P4 1.527612 1_555
O13 P3 1.537873 1_555
O14 P4 1.537873 1_555
O15 P3 1.527612 1_555
O16 P2 1.522756 1_555
O17 P6 1.612425 1_555
O17 P3 1.634176 1_555
O18 P5 1.537873 1_555
O19 P5 1.527612 1_555
O20 P7 1.508745 1_555
O21 P4 1.522756 1_555
O22 P7 1.612425 1_555
O22 P5 1.634176 1_555
O23 P6 1.544904 1_555
O24 P6 1.508745 1_555
O25 P0 1.542272 1_655
O26 P7 1.544904 1_555
O27 P1 1.542272 1_555
