# generated using pymatgen
data_Li11Ti4Mn12O32
_symmetry_space_group_name_H-M   'P 1'
_cell_length_a   8.38385223
_cell_length_b   8.38385223
_cell_length_c   8.74587261
_cell_angle_alpha   89.95861839
_cell_angle_beta   89.95861839
_cell_angle_gamma   90.53356795
_symmetry_Int_Tables_number   1
_chemical_formula_structural   Li11Ti4Mn12O32
_chemical_formula_sum   'Li11 Ti4 Mn12 O32'
_cell_volume   614.71146962
_cell_formula_units_Z   1
loop_
 _symmetry_equiv_pos_site_id
 _symmetry_equiv_pos_as_xyz
  1  'x, y, z'
loop_
 _atom_site_type_symbol
 _atom_site_label
 _atom_site_symmetry_multiplicity
 _atom_site_fract_x
 _atom_site_fract_y
 _atom_site_fract_z
 _atom_site_occupancy
  Li  Li0  1  0.99698500  0.74990000  0.62505700  1
  Li  Li1  1  0.37680900  0.62319100  0.00000000  1
  Li  Li2  1  0.62703700  0.62798300  0.25102700  1
  Li  Li3  1  0.37201700  0.37296300  0.74897300  1
  Li  Li4  1  0.62574000  0.37426000  0.50000000  1
  Li  Li5  1  0.12711400  0.37715500  0.00204300  1
  Li  Li6  1  0.88166200  0.37847800  0.25177500  1
  Li  Li7  1  0.62152200  0.11833800  0.74822500  1
  Li  Li8  1  0.87705400  0.12294600  0.00000000  1
  Li  Li9  1  0.25010000  0.00301500  0.37494300  1
  Li  Li10  1  0.62284500  0.87288600  0.99795700  1
  Ti  Ti0  1  0.37185600  0.62814400  0.50000000  1
  Ti  Ti1  1  0.87354200  0.36716500  0.74919100  1
  Ti  Ti2  1  0.63283500  0.12645800  0.25080900  1
  Ti  Ti3  1  0.13089200  0.86910800  0.00000000  1
  Mn  Mn0  1  0.62909500  0.62813000  0.74525500  1
  Mn  Mn1  1  0.87344000  0.62610600  0.99632300  1
  Mn  Mn2  1  0.12431600  0.62612700  0.25186800  1
  Mn  Mn3  1  0.62230100  0.37769900  0.00000000  1
  Mn  Mn4  1  0.37187000  0.37090500  0.25474500  1
  Mn  Mn5  1  0.12639000  0.37576800  0.50540800  1
  Mn  Mn6  1  0.37389400  0.12656000  0.00367700  1
  Mn  Mn7  1  0.12484200  0.12100700  0.75344700  1
  Mn  Mn8  1  0.88071400  0.11928600  0.50000000  1
  Mn  Mn9  1  0.37387300  0.87568400  0.74813200  1
  Mn  Mn10  1  0.62423200  0.87361000  0.49459200  1
  Mn  Mn11  1  0.87899300  0.87515800  0.24655300  1
  O  O0  1  0.39634700  0.62329500  0.73071000  1
  O  O1  1  0.60819400  0.64401300  0.49205500  1
  O  O2  1  0.87704600  0.61836100  0.21358200  1
  O  O3  1  0.12072500  0.63988200  0.00957900  1
  O  O4  1  0.86172200  0.61655900  0.77213600  1
  O  O5  1  0.63062400  0.60912800  0.00128600  1
  O  O6  1  0.37670500  0.60365300  0.26929000  1
  O  O7  1  0.13792400  0.61268400  0.48950200  1
  O  O8  1  0.64108200  0.39058200  0.73750400  1
  O  O9  1  0.85913400  0.38328500  0.98383200  1
  O  O10  1  0.13611500  0.39866000  0.24640100  1
  O  O11  1  0.35598700  0.39180600  0.50794500  1
  O  O12  1  0.60941800  0.35891800  0.26249600  1
  O  O13  1  0.39087200  0.36937600  0.99871400  1
  O  O14  1  0.10855900  0.35216300  0.76045400  1
  O  O15  1  0.88992000  0.35730900  0.51646100  1
  O  O16  1  0.61671500  0.14086600  0.01616800  1
  O  O17  1  0.38344100  0.13827800  0.22786400  1
  O  O18  1  0.11140500  0.13626500  0.52297300  1
  O  O19  1  0.86172000  0.14760600  0.75866800  1
  O  O20  1  0.13274900  0.10904400  0.98629900  1
  O  O21  1  0.38163900  0.12295400  0.78641800  1
  O  O22  1  0.64269100  0.11008000  0.48353900  1
  O  O23  1  0.85239400  0.13828000  0.24133200  1
  O  O24  1  0.36011800  0.87927500  0.99042100  1
  O  O25  1  0.13959500  0.88904700  0.76614700  1
  O  O26  1  0.86373500  0.88859500  0.47702700  1
  O  O27  1  0.64783700  0.89144100  0.23954600  1
  O  O28  1  0.38731600  0.86207600  0.51049800  1
  O  O29  1  0.60134000  0.86388500  0.75359900  1
  O  O30  1  0.89095600  0.86725100  0.01370100  1
  O  O31  1  0.11095300  0.86040500  0.23385300  1
loop_
_geom_bond_atom_site_label_1
_geom_bond_atom_site_label_2
_geom_bond_distance
_geom_bond_site_symmetry_2
Li0 O7 2.037255 1_655
Li0 O4 2.040245 1_555
Li0 O25 2.071549 1_655
Li0 O26 2.073729 1_555
Li1 O5 2.132345 1_555
Li1 O13 2.132345 1_554
Li1 O3 2.154399 1_555
Li1 O24 2.154399 1_554
Li1 O6 2.360746 1_555
Li1 O0 2.360746 1_554
Li2 O6 2.112665 1_555
Li2 O1 2.118256 1_555
Li2 O2 2.123518 1_555
Li2 O5 2.190235 1_555
Li2 O27 2.216244 1_555
Li2 O12 2.261408 1_555
Li3 O0 2.112665 1_555
Li3 O11 2.118256 1_555
Li3 O21 2.123518 1_555
Li3 O13 2.190235 1_555
Li3 O14 2.216244 1_555
Li3 O8 2.261408 1_555
Li4 O12 2.085765 1_555
Li4 O8 2.085765 1_555
Li4 O22 2.225480 1_555
Li4 O15 2.225480 1_555
Li4 O11 2.268733 1_555
Li4 O1 2.268733 1_555
Li5 O14 2.129080 1_554
Li5 O10 2.146168 1_555
Li5 O3 2.204846 1_555
Li5 O13 2.213048 1_554
Li5 O20 2.253048 1_554
Li5 O9 2.253519 1_454
Li6 O23 2.028540 1_555
Li6 O2 2.039184 1_555
Li6 O10 2.138905 1_655
Li6 O12 2.288662 1_555
Li6 O15 2.322707 1_555
Li6 O9 2.351477 1_554
Li7 O19 2.028540 1_555
Li7 O21 2.039184 1_555
Li7 O29 2.138905 1_545
Li7 O8 2.288662 1_555
Li7 O22 2.322707 1_555
Li7 O16 2.351477 1_556
Li8 O19 2.124714 1_554
Li8 O23 2.124714 1_555
Li8 O20 2.151217 1_654
Li8 O30 2.151217 1_545
Li8 O16 2.193671 1_555
Li8 O9 2.193671 1_554
Li9 O28 2.037255 1_545
Li9 O17 2.040245 1_555
Li9 O31 2.071549 1_545
Li9 O18 2.073729 1_555
Li10 O27 2.129080 1_556
Li10 O29 2.146168 1_555
Li10 O24 2.204846 1_555
Li10 O5 2.213048 1_556
Li10 O30 2.253048 1_556
Li10 O16 2.253519 1_566
Mn0 O0 1.955604 1_555
Mn0 O4 1.967878 1_555
Mn0 O29 1.993718 1_555
Mn0 O8 1.996234 1_555
Mn0 O1 2.225493 1_555
Mn0 O5 2.244814 1_556
Mn1 O2 1.901454 1_556
Mn1 O4 1.964893 1_555
Mn1 O30 2.031497 1_556
Mn1 O5 2.039809 1_556
Mn1 O9 2.041199 1_555
Mn1 O3 2.078665 1_656
Mn2 O10 1.911164 1_555
Mn2 O31 1.974575 1_555
Mn2 O7 2.084553 1_555
Mn2 O2 2.100600 1_455
Mn2 O3 2.122332 1_555
Mn2 O6 2.131664 1_555
Mn3 O13 1.940912 1_554
Mn3 O5 1.940912 1_555
Mn3 O9 1.990613 1_554
Mn3 O16 1.990613 1_555
Mn3 O8 2.303424 1_554
Mn3 O12 2.303424 1_555
Mn4 O6 1.955604 1_555
Mn4 O17 1.967878 1_555
Mn4 O10 1.993718 1_555
Mn4 O12 1.996234 1_555
Mn4 O11 2.225493 1_555
Mn4 O13 2.244814 1_554
Mn5 O11 1.928493 1_555
Mn5 O15 1.989398 1_455
Mn5 O7 1.992478 1_555
Mn5 O18 2.016459 1_555
Mn5 O14 2.243974 1_555
Mn5 O10 2.274559 1_555
Mn6 O21 1.901454 1_554
Mn6 O17 1.964893 1_555
Mn6 O20 2.031497 1_554
Mn6 O13 2.039809 1_554
Mn6 O16 2.041199 1_555
Mn6 O24 2.078665 1_544
Mn7 O14 1.945054 1_555
Mn7 O25 1.952883 1_545
Mn7 O18 2.022946 1_555
Mn7 O20 2.040045 1_555
Mn7 O21 2.172292 1_555
Mn7 O19 2.219724 1_455
Mn8 O26 1.948530 1_545
Mn8 O18 1.948530 1_655
Mn8 O22 2.001615 1_555
Mn8 O15 2.001615 1_555
Mn8 O23 2.280480 1_555
Mn8 O19 2.280480 1_555
Mn9 O29 1.911164 1_555
Mn9 O25 1.974575 1_555
Mn9 O28 2.084553 1_555
Mn9 O21 2.100600 1_565
Mn9 O24 2.122332 1_555
Mn9 O0 2.131664 1_555
Mn10 O1 1.928493 1_555
Mn10 O22 1.989398 1_565
Mn10 O28 1.992478 1_555
Mn10 O26 2.016459 1_555
Mn10 O27 2.243974 1_555
Mn10 O29 2.274559 1_555
Mn11 O27 1.945054 1_555
Mn11 O31 1.952883 1_655
Mn11 O26 2.022946 1_555
Mn11 O30 2.040045 1_555
Mn11 O2 2.172292 1_555
Mn11 O23 2.219724 1_565
O0 Ti0 2.028745 1_555
O1 Ti0 1.985811 1_555
O3 Ti3 1.924654 1_555
O4 Ti1 2.103881 1_555
O6 Ti0 2.028745 1_555
O7 Ti0 1.966540 1_555
O8 Ti1 1.963320 1_555
O9 Ti1 2.060214 1_555
O11 Ti0 1.985811 1_555
O12 Ti2 1.963320 1_555
O14 Ti1 1.978047 1_455
O15 Ti1 2.041738 1_555
O16 Ti2 2.060214 1_555
O17 Ti2 2.103881 1_555
O19 Ti1 1.844295 1_555
O20 Ti3 2.014982 1_546
O22 Ti2 2.041738 1_555
O23 Ti2 1.844295 1_555
O24 Ti3 1.924654 1_556
O25 Ti3 2.053137 1_556
O27 Ti2 1.978047 1_565
O28 Ti0 1.966540 1_555
O30 Ti3 2.014982 1_655
O31 Ti3 2.053137 1_555
