# generated using pymatgen
data_Sr2Fe23O38
_symmetry_space_group_name_H-M   'P 1'
_cell_length_a   5.93453400
_cell_length_b   5.95558128
_cell_length_c   23.26522196
_cell_angle_alpha   90.26808123
_cell_angle_beta   89.87442816
_cell_angle_gamma   119.86141814
_symmetry_Int_Tables_number   1
_chemical_formula_structural   Sr2Fe23O38
_chemical_formula_sum   'Sr2 Fe23 O38'
_cell_volume   713.09702753
_cell_formula_units_Z   1
loop_
 _symmetry_equiv_pos_site_id
 _symmetry_equiv_pos_as_xyz
  1  'x, y, z'
loop_
 _atom_site_type_symbol
 _atom_site_label
 _atom_site_symmetry_multiplicity
 _atom_site_fract_x
 _atom_site_fract_y
 _atom_site_fract_z
 _atom_site_occupancy
  Sr  Sr0  1  0.33705700  0.66898600  0.74874800  1
  Sr  Sr1  1  0.67325300  0.33107200  0.25043400  1
  Fe  Fe0  1  0.16718500  0.33557300  0.61191000  1
  Fe  Fe1  1  0.16761400  0.33518200  0.89133400  1
  Fe  Fe2  1  0.33223300  0.66035000  0.19460600  1
  Fe  Fe3  1  0.33203100  0.66564300  0.02675900  1
  Fe  Fe4  1  0.66318600  0.83260800  0.60722800  1
  Fe  Fe5  1  0.33497200  0.66573300  0.30956300  1
  Fe  Fe6  1  0.99890900  0.00161100  0.99971500  1
  Fe  Fe7  1  0.99860300  0.99843100  0.50130000  1
  Fe  Fe8  1  0.99862600  0.99736500  0.75099500  1
  Fe  Fe9  1  0.33178200  0.66783600  0.47496100  1
  Fe  Fe10  1  0.66468400  0.83116100  0.89145500  1
  Fe  Fe11  1  0.16907000  0.83222700  0.89052700  1
  Fe  Fe12  1  0.16811700  0.83284900  0.60711100  1
  Fe  Fe13  1  0.83323500  0.16506700  0.10957800  1
  Fe  Fe14  1  0.83676100  0.17257700  0.39391800  1
  Fe  Fe15  1  0.66649100  0.33463400  0.68933400  1
  Fe  Fe16  1  0.66632900  0.33619200  0.97359600  1
  Fe  Fe17  1  0.66602800  0.33136000  0.52873800  1
  Fe  Fe18  1  0.66742700  0.33187700  0.80847300  1
  Fe  Fe19  1  0.33475800  0.16497200  0.39059300  1
  Fe  Fe20  1  0.33285200  0.16362800  0.10851100  1
  Fe  Fe21  1  0.83581500  0.66764500  0.10855400  1
  Fe  Fe22  1  0.83063700  0.66525200  0.39072500  1
  O  O0  1  0.15277700  0.30882300  0.05062400  1
  O  O1  1  0.15084300  0.31117300  0.44743500  1
  O  O2  1  0.49689600  0.50258100  0.84994700  1
  O  O3  1  0.50033800  0.51839900  0.65116300  1
  O  O4  1  0.18967300  0.38528500  0.24611200  1
  O  O5  1  0.33202100  0.66688600  0.94382400  1
  O  O6  1  0.33497800  0.67146400  0.55784900  1
  O  O7  1  0.69089100  0.84767900  0.05029900  1
  O  O8  1  0.99892100  0.00063300  0.14630900  1
  O  O9  1  0.99236500  0.00413700  0.35317600  1
  O  O10  1  0.99509500  0.99151500  0.65037100  1
  O  O11  1  0.68492900  0.83370600  0.44959700  1
  O  O12  1  0.00061500  0.99995000  0.84683200  1
  O  O13  1  0.60853800  0.80547600  0.24808600  1
  O  O14  1  0.01540700  0.51812900  0.65073900  1
  O  O15  1  0.01224900  0.50439400  0.84831800  1
  O  O16  1  0.19816600  0.80496700  0.25066000  1
  O  O17  1  0.83896700  0.14855200  0.55492600  1
  O  O18  1  0.84631500  0.15400900  0.94857700  1
  O  O19  1  0.49103900  0.98436400  0.64879500  1
  O  O20  1  0.49481000  0.98835000  0.84802800  1
  O  O21  1  0.51660700  0.01416400  0.34944900  1
  O  O22  1  0.49889100  0.99944600  0.15095300  1
  O  O23  1  0.15203000  0.84880400  0.05060000  1
  O  O24  1  0.15777900  0.84509200  0.44774400  1
  O  O25  1  0.81686800  0.18257300  0.74774400  1
  O  O26  1  0.00112400  0.50248100  0.15108000  1
  O  O27  1  0.99828200  0.50545900  0.34777500  1
  O  O28  1  0.66511900  0.33210300  0.44494400  1
  O  O29  1  0.66831000  0.33331900  0.05667500  1
  O  O30  1  0.36539800  0.18344500  0.74843000  1
  O  O31  1  0.30513400  0.15155800  0.94856700  1
  O  O32  1  0.30914300  0.15015800  0.55472700  1
  O  O33  1  0.81507500  0.63284600  0.75042900  1
  O  O34  1  0.50259500  0.49874800  0.15108500  1
  O  O35  1  0.50072600  0.49546500  0.34767200  1
  O  O36  1  0.84852500  0.69511700  0.94863300  1
  O  O37  1  0.84449700  0.68852400  0.55569200  1
loop_
_geom_bond_atom_site_label_1
_geom_bond_atom_site_label_2
_geom_bond_distance
_geom_bond_site_symmetry_2
Fe0 O14 1.942134 1_555
Fe0 O3 1.945095 1_555
Fe0 O10 1.992890 1_445
Fe0 O32 2.146329 1_555
Fe0 O6 2.147002 1_555
Fe0 O17 2.151575 1_455
Fe1 O2 1.949465 1_555
Fe1 O15 1.950898 1_555
Fe1 O12 2.013694 1_545
Fe1 O5 2.099786 1_555
Fe1 O18 2.127706 1_455
Fe1 O31 2.131225 1_555
Fe2 O4 1.862548 1_555
Fe2 O13 1.889829 1_555
Fe2 O16 1.934643 1_555
Fe2 O34 1.982171 1_555
Fe2 O26 1.982585 1_555
Fe2 O22 2.028264 1_555
Fe3 O7 1.926436 1_555
Fe3 O0 1.926953 1_555
Fe3 O5 1.929550 1_554
Fe3 O23 1.946990 1_555
Fe4 O3 1.921775 1_555
Fe4 O19 1.924240 1_555
Fe4 O10 1.981518 1_555
Fe4 O17 2.042208 1_565
Fe4 O6 2.042702 1_555
Fe4 O37 2.058122 1_555
Fe5 O35 1.946157 1_555
Fe5 O27 1.948017 1_455
Fe5 O16 1.977534 1_555
Fe5 O13 2.007366 1_555
Fe5 O21 2.021889 1_565
Fe5 O4 2.064148 1_555
Fe6 O18 1.972969 1_555
Fe6 O23 1.973256 1_646
Fe6 O7 1.974513 1_546
Fe6 O31 1.974964 1_655
Fe6 O36 1.975573 1_545
Fe6 O0 1.976093 1_656
Fe7 O11 2.013652 1_555
Fe7 O17 2.020205 1_565
Fe7 O32 2.024622 1_665
Fe7 O24 2.030283 1_655
Fe7 O37 2.044545 1_555
Fe7 O1 2.048663 1_665
Fe8 O33 1.882704 1_555
Fe8 O30 1.888750 1_665
Fe8 O25 1.889916 1_565
Fe8 O12 2.229667 1_655
Fe8 O10 2.341120 1_555
Fe9 O11 1.911727 1_555
Fe9 O24 1.917382 1_555
Fe9 O6 1.928457 1_555
Fe9 O1 1.947834 1_555
Fe10 O2 1.949259 1_555
Fe10 O20 1.966365 1_555
Fe10 O12 2.016870 1_655
Fe10 O5 2.101505 1_555
Fe10 O36 2.124395 1_555
Fe10 O18 2.131543 1_565
Fe11 O20 1.946647 1_555
Fe11 O15 1.954249 1_555
Fe11 O12 2.009717 1_555
Fe11 O5 2.099346 1_555
Fe11 O31 2.131605 1_565
Fe11 O36 2.136631 1_455
Fe12 O14 1.920148 1_555
Fe12 O19 1.924897 1_555
Fe12 O10 1.978127 1_455
Fe12 O6 2.037250 1_555
Fe12 O32 2.049159 1_565
Fe12 O37 2.053028 1_455
Fe13 O8 1.904338 1_555
Fe13 O22 1.971817 1_545
Fe13 O26 1.988812 1_655
Fe13 O29 2.114324 1_555
Fe13 O7 2.139914 1_545
Fe13 O0 2.143163 1_655
Fe14 O9 1.915009 1_555
Fe14 O21 1.945456 1_555
Fe14 O27 2.030923 1_555
Fe14 O1 2.043103 1_655
Fe14 O28 2.073001 1_555
Fe14 O11 2.184361 1_545
Fe15 O14 2.008928 1_655
Fe15 O3 2.011530 1_555
Fe15 O19 2.036731 1_545
Fe15 O25 2.069985 1_555
Fe15 O30 2.071841 1_555
Fe15 O33 2.091536 1_555
Fe16 O29 1.933120 1_556
Fe16 O36 1.945000 1_555
Fe16 O31 1.948137 1_555
Fe16 O18 1.949972 1_555
Fe17 O17 1.931707 1_555
Fe17 O32 1.933997 1_555
Fe17 O37 1.945922 1_555
Fe17 O28 1.949537 1_555
Fe18 O2 1.999969 1_555
Fe18 O15 2.002062 1_655
Fe18 O20 2.002108 1_545
Fe18 O33 2.063417 1_555
Fe18 O25 2.083611 1_555
Fe18 O30 2.089762 1_555
Fe19 O21 1.959652 1_555
Fe19 O9 1.966183 1_455
Fe19 O35 1.981144 1_555
Fe19 O28 2.118776 1_555
Fe19 O24 2.127303 1_545
Fe19 O1 2.151164 1_555
Fe20 O8 1.930687 1_455
Fe20 O22 1.968448 1_545
Fe20 O34 1.990725 1_555
Fe20 O29 2.106264 1_555
Fe20 O23 2.112198 1_545
Fe20 O0 2.154286 1_555
Fe21 O8 1.928005 1_565
Fe21 O26 1.970573 1_655
Fe21 O34 1.980243 1_555
Fe21 O29 2.102674 1_555
Fe21 O23 2.118943 1_655
Fe21 O7 2.159446 1_555
Fe22 O27 1.955386 1_555
Fe22 O9 1.959988 1_565
Fe22 O35 1.971464 1_555
Fe22 O11 2.115665 1_555
Fe22 O28 2.137734 1_555
Fe22 O24 2.145557 1_655
O2 Sr0 2.897063 1_555
O3 Sr0 2.781076 1_555
O4 Sr1 2.918975 1_455
O4 Sr1 3.045406 1_555
O13 Sr1 2.958070 1_565
O13 Sr1 3.035649 1_555
O14 Sr0 2.818210 1_555
O15 Sr0 2.857063 1_555
O16 Sr1 2.985699 1_455
O16 Sr1 2.994933 1_565
O19 Sr0 2.844803 1_555
O20 Sr0 2.832718 1_555
O21 Sr1 2.831445 1_555
O22 Sr1 2.874149 1_565
O25 Sr0 2.965063 1_545
O25 Sr0 3.002794 1_655
O26 Sr1 2.862776 1_455
O27 Sr1 2.816060 1_555
O30 Sr0 2.978969 1_555
O30 Sr0 2.983771 1_545
O33 Sr0 2.950247 1_555
O33 Sr0 2.996553 1_655
O34 Sr1 2.899031 1_555
O35 Sr1 2.844650 1_555
