# generated using pymatgen
data_Na4Bi2O5
_symmetry_space_group_name_H-M   'P 1'
_cell_length_a   5.65884200
_cell_length_b   9.86490300
_cell_length_c   14.79973100
_cell_angle_alpha   90.00000000
_cell_angle_beta   90.00000000
_cell_angle_gamma   90.00000000
_symmetry_Int_Tables_number   1
_chemical_formula_structural   Na4Bi2O5
_chemical_formula_sum   'Na16 Bi8 O20'
_cell_volume   826.17910921
_cell_formula_units_Z   4
loop_
 _symmetry_equiv_pos_site_id
 _symmetry_equiv_pos_as_xyz
  1  'x, y, z'
loop_
 _atom_site_type_symbol
 _atom_site_label
 _atom_site_symmetry_multiplicity
 _atom_site_fract_x
 _atom_site_fract_y
 _atom_site_fract_z
 _atom_site_occupancy
  Na  Na0  1  0.48177000  0.85705400  0.02365100  1
  Na  Na1  1  0.01823000  0.64294600  0.02365100  1
  Na  Na2  1  0.25000000  0.75000000  0.19436200  1
  Na  Na3  1  0.50000000  0.07801600  0.25000000  1
  Na  Na4  1  0.00000000  0.42198400  0.25000000  1
  Na  Na5  1  0.75000000  0.75000000  0.30563800  1
  Na  Na6  1  0.98177000  0.64294600  0.47634900  1
  Na  Na7  1  0.51823000  0.85705400  0.47634900  1
  Na  Na8  1  0.48177000  0.14294600  0.52365100  1
  Na  Na9  1  0.01823000  0.35705400  0.52365100  1
  Na  Na10  1  0.25000000  0.25000000  0.69436200  1
  Na  Na11  1  0.00000000  0.57801600  0.75000000  1
  Na  Na12  1  0.50000000  0.92198400  0.75000000  1
  Na  Na13  1  0.75000000  0.25000000  0.80563800  1
  Na  Na14  1  0.98177000  0.35705400  0.97634900  1
  Na  Na15  1  0.51823000  0.14294600  0.97634900  1
  Bi  Bi0  1  0.53037700  0.45469300  0.11653700  1
  Bi  Bi1  1  0.96962300  0.04530700  0.11653700  1
  Bi  Bi2  1  0.03037700  0.04530700  0.38346300  1
  Bi  Bi3  1  0.46962300  0.45469300  0.38346300  1
  Bi  Bi4  1  0.53037700  0.54530700  0.61653700  1
  Bi  Bi5  1  0.96962300  0.95469300  0.61653700  1
  Bi  Bi6  1  0.03037700  0.95469300  0.88346300  1
  Bi  Bi7  1  0.46962300  0.54530700  0.88346300  1
  O  O0  1  0.05278100  0.86779300  0.04580300  1
  O  O1  1  0.44721900  0.63220700  0.04580300  1
  O  O2  1  0.89764600  0.46457100  0.11217200  1
  O  O3  1  0.60235400  0.03542900  0.11217200  1
  O  O4  1  0.00000000  0.92613700  0.25000000  1
  O  O5  1  0.50000000  0.57386300  0.25000000  1
  O  O6  1  0.10235400  0.46457100  0.38782800  1
  O  O7  1  0.39764600  0.03542900  0.38782800  1
  O  O8  1  0.55278100  0.63220700  0.45419700  1
  O  O9  1  0.94721900  0.86779300  0.45419700  1
  O  O10  1  0.05278100  0.13220700  0.54580300  1
  O  O11  1  0.44721900  0.36779300  0.54580300  1
  O  O12  1  0.60235400  0.96457100  0.61217200  1
  O  O13  1  0.89764600  0.53542900  0.61217200  1
  O  O14  1  0.00000000  0.07386300  0.75000000  1
  O  O15  1  0.50000000  0.42613700  0.75000000  1
  O  O16  1  0.10235400  0.53542900  0.88782800  1
  O  O17  1  0.39764600  0.96457100  0.88782800  1
  O  O18  1  0.55278100  0.36779300  0.95419700  1
  O  O19  1  0.94721900  0.13220700  0.95419700  1
loop_
_geom_bond_atom_site_label_1
_geom_bond_atom_site_label_2
_geom_bond_distance
_geom_bond_site_symmetry_2
Na0 O1 2.250700 1_555
Na0 O3 2.297461 1_565
Na0 O17 2.322125 1_554
Na0 O0 2.451908 1_555
Na1 O0 2.250700 1_555
Na1 O2 2.297461 1_455
Na1 O16 2.322125 1_554
Na1 O1 2.451908 1_555
Na2 O4 2.387175 1_555
Na2 O5 2.387175 1_555
Na2 O0 2.725765 1_555
Na2 O1 2.725765 1_555
Na3 O3 2.161673 1_555
Na3 O7 2.161673 1_555
Na4 O6 2.161673 1_555
Na4 O2 2.161673 1_455
Na5 O4 2.387175 1_655
Na5 O5 2.387175 1_555
Na5 O9 2.725765 1_555
Na5 O8 2.725765 1_555
Na6 O9 2.250700 1_555
Na6 O6 2.297461 1_655
Na6 O13 2.322125 1_555
Na6 O8 2.451908 1_555
Na7 O8 2.250700 1_555
Na7 O7 2.297461 1_565
Na7 O12 2.322125 1_555
Na7 O9 2.451908 1_555
Na8 O11 2.250700 1_555
Na8 O12 2.297461 1_545
Na8 O7 2.322125 1_555
Na8 O10 2.451908 1_555
Na9 O10 2.250700 1_555
Na9 O13 2.297461 1_455
Na9 O6 2.322125 1_555
Na9 O11 2.451908 1_555
Na10 O14 2.387175 1_555
Na10 O15 2.387175 1_555
Na10 O11 2.725765 1_555
Na10 O10 2.725765 1_555
Na11 O16 2.161673 1_555
Na11 O13 2.161673 1_455
Na12 O17 2.161673 1_555
Na12 O12 2.161673 1_555
Na13 O14 2.387175 1_655
Na13 O15 2.387175 1_555
Na13 O19 2.725765 1_555
Na13 O18 2.725765 1_555
Na14 O19 2.250700 1_555
Na14 O16 2.297461 1_655
Na14 O2 2.322125 1_556
Na14 O18 2.451908 1_555
Na15 O18 2.250700 1_555
Na15 O17 2.297461 1_545
Na15 O3 2.322125 1_556
Na15 O19 2.451908 1_555
Bi0 O2 2.081603 1_555
Bi0 O1 2.093772 1_555
Bi0 O5 2.305009 1_555
Bi0 O18 2.554095 1_554
Bi1 O3 2.081603 1_555
Bi1 O0 2.093772 1_645
Bi1 O4 2.305009 1_645
Bi1 O19 2.554095 1_554
Bi2 O7 2.081603 1_555
Bi2 O9 2.093772 1_445
Bi2 O4 2.305009 1_545
Bi2 O10 2.554095 1_555
Bi3 O6 2.081603 1_555
Bi3 O8 2.093772 1_555
Bi3 O5 2.305009 1_555
Bi3 O11 2.554095 1_555
Bi4 O13 2.081603 1_555
Bi4 O11 2.093772 1_555
Bi4 O15 2.305009 1_555
Bi4 O8 2.554095 1_555
Bi5 O12 2.081603 1_555
Bi5 O10 2.093772 1_665
Bi5 O14 2.305009 1_665
Bi5 O9 2.554095 1_555
Bi6 O17 2.081603 1_555
Bi6 O19 2.093772 1_465
Bi6 O14 2.305009 1_565
Bi6 O0 2.554095 1_556
Bi7 O16 2.081603 1_555
Bi7 O18 2.093772 1_555
Bi7 O15 2.305009 1_555
Bi7 O1 2.554095 1_556
