# generated using pymatgen
data_Na2Ti3Cr(PO4)6
_symmetry_space_group_name_H-M   'P 1'
_cell_length_a   8.91152987
_cell_length_b   8.91152987
_cell_length_c   8.91152986
_cell_angle_alpha   57.09796295
_cell_angle_beta   57.09796295
_cell_angle_gamma   57.09796094
_symmetry_Int_Tables_number   1
_chemical_formula_structural   Na2Ti3Cr(PO4)6
_chemical_formula_sum   'Na2 Ti3 Cr1 P6 O24'
_cell_volume   466.95871237
_cell_formula_units_Z   1
loop_
 _symmetry_equiv_pos_site_id
 _symmetry_equiv_pos_as_xyz
  1  'x, y, z'
loop_
 _atom_site_type_symbol
 _atom_site_label
 _atom_site_symmetry_multiplicity
 _atom_site_fract_x
 _atom_site_fract_y
 _atom_site_fract_z
 _atom_site_occupancy
  Na  Na0  1  0.99873600  0.99873600  0.99873600  1
  Na  Na1  1  0.49983000  0.49983000  0.49983000  1
  Ti  Ti0  1  0.64713000  0.64713000  0.64713000  1
  Ti  Ti1  1  0.35299700  0.35299700  0.35299700  1
  Ti  Ti2  1  0.14398400  0.14398400  0.14398400  1
  Cr  Cr0  1  0.85574300  0.85574300  0.85574300  1
  P  P0  1  0.96538500  0.24623100  0.53820600  1
  P  P1  1  0.46325300  0.03536000  0.75102200  1
  P  P2  1  0.75102200  0.46325300  0.03536000  1
  P  P3  1  0.24623100  0.53820600  0.96538500  1
  P  P4  1  0.53820600  0.96538500  0.24623100  1
  P  P5  1  0.03536000  0.75102200  0.46325300  1
  O  O0  1  0.00040700  0.19836500  0.37726000  1
  O  O1  1  0.90916100  0.09497700  0.73648300  1
  O  O2  1  0.90411700  0.26624200  0.09317100  1
  O  O3  1  0.51140900  0.14928900  0.25175500  1
  O  O4  1  0.79883500  0.44024400  0.53641800  1
  O  O5  1  0.46692000  0.19952200  0.55484500  1
  O  O6  1  0.74616000  0.48846300  0.85141200  1
  O  O7  1  0.00849100  0.79787600  0.62030000  1
  O  O8  1  0.79787600  0.62030000  0.00849100  1
  O  O9  1  0.26624200  0.09317100  0.90411700  1
  O  O10  1  0.85141200  0.74616000  0.48846300  1
  O  O11  1  0.55484500  0.46692000  0.19952200  1
  O  O12  1  0.44024400  0.53641800  0.79883500  1
  O  O13  1  0.14928900  0.25175500  0.51140900  1
  O  O14  1  0.73648300  0.90916100  0.09497700  1
  O  O15  1  0.19836500  0.37726000  0.00040700  1
  O  O16  1  0.25175500  0.51140900  0.14928900  1
  O  O17  1  0.53641800  0.79883500  0.44024400  1
  O  O18  1  0.19952200  0.55484500  0.46692000  1
  O  O19  1  0.48846300  0.85141200  0.74616000  1
  O  O20  1  0.62030000  0.00849100  0.79787600  1
  O  O21  1  0.37726000  0.00040700  0.19836500  1
  O  O22  1  0.09497700  0.73648300  0.90916100  1
  O  O23  1  0.09317100  0.90411700  0.26624200  1
loop_
_geom_bond_atom_site_label_1
_geom_bond_atom_site_label_2
_geom_bond_distance
_geom_bond_site_symmetry_2
Na0 O22 2.437229 1_655
Na0 O1 2.437229 1_565
Na0 O14 2.437230 1_556
Na0 O2 2.515346 1_566
Na0 O23 2.515346 1_656
Na0 O9 2.515346 1_665
Na1 O4 2.589776 1_555
Na1 O12 2.589776 1_555
Na1 O17 2.589776 1_555
Na1 O18 2.599903 1_555
Na1 O11 2.599903 1_555
Na1 O5 2.599903 1_555
Cr0 O20 1.957329 1_565
Cr0 O7 1.957329 1_655
Cr0 O8 1.957329 1_556
Cr0 O22 1.998161 1_655
Cr0 O14 1.998161 1_556
Cr0 O1 1.998161 1_565
O0 P0 1.539553 1_455
O0 Ti2 1.929950 1_555
O1 P0 1.540917 1_555
O2 P2 1.545263 1_555
O2 Ti2 1.986651 1_655
O3 P4 1.547587 1_545
O3 Ti1 1.927142 1_555
O4 P0 1.549295 1_555
O4 Ti0 2.004853 1_555
O5 P1 1.552063 1_555
O5 Ti1 1.984836 1_555
O6 P2 1.551131 1_556
O6 Ti0 1.919754 1_555
O7 P5 1.533795 1_555
O8 P2 1.533795 1_555
O9 P1 1.545263 1_555
O9 Ti2 1.986651 1_556
O10 P5 1.551131 1_655
O10 Ti0 1.919754 1_555
O11 P2 1.552063 1_555
O11 Ti1 1.984836 1_555
O12 P3 1.549295 1_555
O12 Ti0 2.004853 1_555
O13 P0 1.547587 1_455
O13 Ti1 1.927142 1_555
O14 P4 1.540917 1_555
O15 P3 1.539553 1_554
O15 Ti2 1.929950 1_555
O16 P3 1.547587 1_554
O16 Ti1 1.927142 1_555
O17 P4 1.549295 1_555
O17 Ti0 2.004853 1_555
O18 P5 1.552063 1_555
O18 Ti1 1.984835 1_555
O19 P1 1.551131 1_565
O19 Ti0 1.919754 1_555
O20 P1 1.533795 1_555
O21 P4 1.539553 1_545
O21 Ti2 1.929950 1_555
O22 P3 1.540917 1_555
O23 P5 1.545263 1_555
O23 Ti2 1.986651 1_565
