# generated using pymatgen
data_Li5Co2Ni5O12
_symmetry_space_group_name_H-M   'P 1'
_cell_length_a   5.01879971
_cell_length_b   5.01879971
_cell_length_c   9.63792712
_cell_angle_alpha   84.95145797
_cell_angle_beta   84.95145797
_cell_angle_gamma   120.73361301
_symmetry_Int_Tables_number   1
_chemical_formula_structural   Li5Co2Ni5O12
_chemical_formula_sum   'Li5 Co2 Ni5 O12'
_cell_volume   205.33654778
_cell_formula_units_Z   1
loop_
 _symmetry_equiv_pos_site_id
 _symmetry_equiv_pos_as_xyz
  1  'x, y, z'
loop_
 _atom_site_type_symbol
 _atom_site_label
 _atom_site_symmetry_multiplicity
 _atom_site_fract_x
 _atom_site_fract_y
 _atom_site_fract_z
 _atom_site_occupancy
  Li  Li0  1  0.67003200  0.83587000  0.24576700  1
  Li  Li1  1  0.16413000  0.32996800  0.75423300  1
  Li  Li2  1  0.08326500  0.91673500  0.00000000  1
  Li  Li3  1  0.83572700  0.66525700  0.75555800  1
  Li  Li4  1  0.33474300  0.16427300  0.24444200  1
  Co  Co0  1  0.24763200  0.75236800  0.50000000  1
  Co  Co1  1  0.74971300  0.25028700  0.00000000  1
  Ni  Ni0  1  0.48829900  0.99761700  0.75435100  1
  Ni  Ni1  1  0.00238300  0.51170100  0.24564900  1
  Ni  Ni2  1  0.41817000  0.58183000  0.00000000  1
  Ni  Ni3  1  0.91448100  0.08551900  0.50000000  1
  Ni  Ni4  1  0.58246600  0.41753400  0.50000000  1
  O  O0  1  0.76139800  0.95194500  0.88678000  1
  O  O1  1  0.53401400  0.72755700  0.61292900  1
  O  O2  1  0.39806000  0.87095900  0.11255800  1
  O  O3  1  0.04805500  0.23860200  0.11322000  1
  O  O4  1  0.27244300  0.46598600  0.38707100  1
  O  O5  1  0.12904100  0.60194000  0.88744200  1
  O  O6  1  0.88470100  0.38213400  0.61833400  1
  O  O7  1  0.70168800  0.52375900  0.11618300  1
  O  O8  1  0.61786600  0.11529900  0.38166600  1
  O  O9  1  0.97389400  0.79109600  0.38247200  1
  O  O10  1  0.47624100  0.29831200  0.88381700  1
  O  O11  1  0.20890400  0.02610600  0.61752800  1
loop_
_geom_bond_atom_site_label_1
_geom_bond_atom_site_label_2
_geom_bond_distance
_geom_bond_site_symmetry_2
Li0 O2 2.014145 1_555
Li0 O8 2.094996 1_565
Li0 O3 2.125163 1_665
Li0 O4 2.138507 1_555
Li0 O7 2.145339 1_555
Li0 O9 2.182641 1_555
Li1 O5 2.014145 1_555
Li1 O6 2.094996 1_455
Li1 O0 2.125163 1_445
Li1 O1 2.138507 1_555
Li1 O10 2.145339 1_555
Li1 O11 2.182641 1_555
Li2 O10 2.045628 1_564
Li2 O7 2.045628 1_455
Li2 O2 2.086734 1_555
Li2 O5 2.086734 1_554
Li2 O0 2.097497 1_454
Li2 O3 2.097497 1_565
Li3 O10 1.996373 1_555
Li3 O11 2.056206 1_665
Li3 O6 2.111667 1_555
Li3 O0 2.143528 1_555
Li3 O5 2.149427 1_655
Li3 O1 2.248323 1_555
Li4 O7 1.996373 1_555
Li4 O9 2.056206 1_445
Li4 O8 2.111667 1_555
Li4 O3 2.143528 1_555
Li4 O2 2.149427 1_545
Li4 O4 2.248323 1_555
Co0 O1 1.923626 1_555
Co0 O4 1.923626 1_555
Co0 O11 1.927781 1_565
Co0 O9 1.927781 1_455
Co0 O6 1.968055 1_455
Co0 O8 1.968055 1_565
Co1 O7 1.938255 1_555
Co1 O10 1.938255 1_554
Co1 O2 1.944575 1_545
Co1 O5 1.944575 1_654
Co1 O3 1.949919 1_655
Co1 O0 1.949919 1_544
Ni0 O0 2.034141 1_555
Ni0 O11 2.054947 1_565
Ni0 O10 2.061448 1_565
Ni0 O5 2.079623 1_555
Ni0 O1 2.082172 1_555
Ni0 O6 2.138288 1_565
Ni1 O3 2.034141 1_555
Ni1 O9 2.054947 1_455
Ni1 O7 2.061448 1_455
Ni1 O2 2.079623 1_555
Ni1 O4 2.082172 1_555
Ni1 O8 2.138288 1_455
Ni2 O0 1.910614 1_554
Ni2 O3 1.910614 1_555
Ni2 O2 1.923575 1_555
Ni2 O5 1.923575 1_554
Ni2 O7 2.002591 1_555
Ni2 O10 2.002591 1_554
Ni3 O4 1.960136 1_655
Ni3 O1 1.960136 1_545
Ni3 O6 2.008823 1_555
Ni3 O8 2.008823 1_555
Ni3 O11 2.059348 1_655
Ni3 O9 2.059348 1_545
Ni4 O9 2.031609 1_555
Ni4 O11 2.031609 1_555
Ni4 O6 2.043870 1_555
Ni4 O8 2.043870 1_555
Ni4 O4 2.074344 1_555
Ni4 O1 2.074344 1_555
