# generated using pymatgen
data_TiFe2Ni3(PO4)6
_symmetry_space_group_name_H-M   'P 1'
_cell_length_a   8.41873234
_cell_length_b   8.41873234
_cell_length_c   8.41873241
_cell_angle_alpha   61.86089388
_cell_angle_beta   61.86089388
_cell_angle_gamma   61.86090231
_symmetry_Int_Tables_number   1
_chemical_formula_structural   TiFe2Ni3(PO4)6
_chemical_formula_sum   'Ti1 Fe2 Ni3 P6 O24'
_cell_volume   439.49446238
_cell_formula_units_Z   1
loop_
 _symmetry_equiv_pos_site_id
 _symmetry_equiv_pos_as_xyz
  1  'x, y, z'
loop_
 _atom_site_type_symbol
 _atom_site_label
 _atom_site_symmetry_multiplicity
 _atom_site_fract_x
 _atom_site_fract_y
 _atom_site_fract_z
 _atom_site_occupancy
  Ti  Ti0  1  0.85295300  0.85295300  0.85295300  1
  Fe  Fe0  1  0.00225200  0.00225200  0.00225200  1
  Fe  Fe1  1  0.50111600  0.50111600  0.50111600  1
  Ni  Ni0  1  0.14477500  0.14477500  0.14477500  1
  Ni  Ni1  1  0.35767200  0.35767200  0.35767200  1
  Ni  Ni2  1  0.64308600  0.64308600  0.64308600  1
  P  P0  1  0.54997900  0.25088900  0.94863700  1
  P  P1  1  0.94863700  0.54997900  0.25088900  1
  P  P2  1  0.25088900  0.94863700  0.54997900  1
  P  P3  1  0.74855000  0.04892500  0.44945100  1
  P  P4  1  0.04892500  0.44945100  0.74855000  1
  P  P5  1  0.44945100  0.74855000  0.04892500  1
  O  O0  1  0.32566700  0.10075200  0.51219500  1
  O  O1  1  0.51219500  0.32566700  0.10075200  1
  O  O2  1  0.90373300  0.06198800  0.25036300  1
  O  O3  1  0.10075200  0.51219500  0.32566700  1
  O  O4  1  0.83175600  0.98462900  0.60931600  1
  O  O5  1  0.60179700  0.25117000  0.44648500  1
  O  O6  1  0.06198800  0.25036300  0.90373300  1
  O  O7  1  0.25117000  0.44648500  0.60179700  1
  O  O8  1  0.39777600  0.17354100  0.99774300  1
  O  O9  1  0.44648500  0.60179700  0.25117000  1
  O  O10  1  0.75524900  0.09383100  0.93003900  1
  O  O11  1  0.99774300  0.39777600  0.17354100  1
  O  O12  1  0.98462900  0.60931600  0.83175600  1
  O  O13  1  0.25036300  0.90373300  0.06198800  1
  O  O14  1  0.56842900  0.39936600  0.74452400  1
  O  O15  1  0.60931600  0.83175600  0.98462900  1
  O  O16  1  0.74452400  0.56842900  0.39936600  1
  O  O17  1  0.93003900  0.75524900  0.09383100  1
  O  O18  1  0.39936600  0.74452400  0.56842900  1
  O  O19  1  0.17354100  0.99774300  0.39777600  1
  O  O20  1  0.90388300  0.49562600  0.66185300  1
  O  O21  1  0.09383100  0.93003900  0.75524900  1
  O  O22  1  0.49562600  0.66185300  0.90388300  1
  O  O23  1  0.66185300  0.90388300  0.49562600  1
loop_
_geom_bond_atom_site_label_1
_geom_bond_atom_site_label_2
_geom_bond_distance
_geom_bond_site_symmetry_2
Fe0 O6 2.065701 1_554
Fe0 O2 2.065701 1_455
Fe0 O13 2.065701 1_545
Fe0 O17 2.127497 1_445
Fe0 O21 2.127497 1_544
Fe0 O10 2.127497 1_454
Fe1 O7 2.054405 1_555
Fe1 O9 2.054406 1_555
Fe1 O5 2.054406 1_555
Fe1 O16 2.058116 1_555
Fe1 O14 2.058116 1_555
Fe1 O18 2.058117 1_555
Ni0 O8 1.960739 1_554
Ni0 O19 1.960739 1_545
Ni0 O11 1.960739 1_455
Ni0 O2 2.107623 1_455
Ni0 O6 2.107623 1_554
Ni0 O13 2.107623 1_545
Ni1 O0 2.002075 1_555
Ni1 O1 2.002075 1_555
Ni1 O3 2.002076 1_555
Ni1 O9 2.160065 1_555
Ni1 O7 2.160065 1_555
Ni1 O5 2.160066 1_555
Ni2 O23 1.989461 1_555
Ni2 O22 1.989461 1_555
Ni2 O20 1.989462 1_555
Ni2 O14 2.095624 1_555
Ni2 O16 2.095624 1_555
Ni2 O18 2.095624 1_555
O0 P2 1.524725 1_545
O1 P0 1.524725 1_554
O2 P3 1.557042 1_555
O3 P1 1.524725 1_455
O4 P3 1.561882 1_565
O4 Ti0 1.865952 1_555
O5 P3 1.559125 1_555
O6 P4 1.557042 1_555
O7 P4 1.559125 1_555
O8 P0 1.506735 1_555
O9 P5 1.559125 1_555
O10 P0 1.594992 1_555
O10 Ti0 2.091543 1_545
O11 P1 1.506735 1_555
O12 P4 1.561882 1_655
O12 Ti0 1.865952 1_555
O13 P5 1.557042 1_555
O14 P0 1.563578 1_555
O15 P5 1.561882 1_556
O15 Ti0 1.865952 1_555
O16 P1 1.563578 1_555
O17 P1 1.594992 1_555
O17 Ti0 2.091543 1_554
O18 P2 1.563579 1_555
O19 P2 1.506735 1_555
O20 P4 1.516621 1_655
O21 P2 1.594992 1_555
O21 Ti0 2.091543 1_455
O22 P5 1.516621 1_556
O23 P3 1.516621 1_565
