# generated using pymatgen
data_Li2MnFe(BO3)2
_symmetry_space_group_name_H-M   'P 1'
_cell_length_a   5.26287799
_cell_length_b   8.98265258
_cell_length_c   6.01981797
_cell_angle_alpha   102.40134434
_cell_angle_beta   113.77744429
_cell_angle_gamma   90.95806912
_symmetry_Int_Tables_number   1
_chemical_formula_structural   Li2MnFe(BO3)2
_chemical_formula_sum   'Li4 Mn2 Fe2 B4 O12'
_cell_volume   252.64718737
_cell_formula_units_Z   2
loop_
 _symmetry_equiv_pos_site_id
 _symmetry_equiv_pos_as_xyz
  1  'x, y, z'
loop_
 _atom_site_type_symbol
 _atom_site_label
 _atom_site_symmetry_multiplicity
 _atom_site_fract_x
 _atom_site_fract_y
 _atom_site_fract_z
 _atom_site_occupancy
  Li  Li0  1  0.40915400  0.03483400  0.67612200  1
  Li  Li1  1  0.09080400  0.46525300  0.32394500  1
  Li  Li2  1  0.90320300  0.53221700  0.67115100  1
  Li  Li3  1  0.59663700  0.96781900  0.32853700  1
  Mn  Mn0  1  0.04497300  0.79515700  0.23581500  1
  Mn  Mn1  1  0.45518500  0.70472100  0.76424800  1
  Fe  Fe0  1  0.95305700  0.21106000  0.76588200  1
  Fe  Fe1  1  0.54553200  0.28855600  0.23322300  1
  B  B0  1  0.44103800  0.36459000  0.74086100  1
  B  B1  1  0.05906100  0.13546200  0.25942900  1
  B  B2  1  0.94573500  0.86920800  0.73766900  1
  B  B3  1  0.55456300  0.63074500  0.26240200  1
  O  O0  1  0.37160600  0.24298700  0.82596800  1
  O  O1  1  0.12847100  0.25695500  0.17395500  1
  O  O2  1  0.27185100  0.48077700  0.70170900  1
  O  O3  1  0.22805700  0.01919900  0.29833000  1
  O  O4  1  0.17385600  0.86592400  0.67572400  1
  O  O5  1  0.32640500  0.63403000  0.32436800  1
  O  O6  1  0.67534200  0.36323700  0.68619000  1
  O  O7  1  0.82498800  0.13714000  0.31435900  1
  O  O8  1  0.87960500  0.74692600  0.82407500  1
  O  O9  1  0.62046700  0.75314300  0.17598200  1
  O  O10  1  0.77992500  0.98727200  0.70499500  1
  O  O11  1  0.72048700  0.51279000  0.29506100  1
loop_
_geom_bond_atom_site_label_1
_geom_bond_atom_site_label_2
_geom_bond_distance
_geom_bond_site_symmetry_2
Li0 O4 1.941338 1_545
Li0 O0 1.944332 1_555
Li0 O10 1.951072 1_545
Li0 O3 2.052012 1_555
Li1 O5 1.941350 1_555
Li1 O1 1.945907 1_555
Li1 O11 1.948685 1_455
Li1 O2 2.052032 1_555
Li2 O2 1.946849 1_655
Li2 O6 1.958563 1_555
Li2 O8 1.979951 1_555
Li2 O11 2.037149 1_555
Li3 O3 1.946900 1_565
Li3 O7 1.960154 1_565
Li3 O9 1.979393 1_555
Li3 O10 2.039180 1_555
Mn0 O5 2.083067 1_555
Mn0 O3 2.106568 1_565
Mn0 O9 2.127911 1_455
Mn0 O8 2.208007 1_454
Mn0 O4 2.385600 1_555
Mn1 O4 2.083231 1_555
Mn1 O2 2.106223 1_555
Mn1 O8 2.127691 1_555
Mn1 O9 2.207914 1_556
Mn1 O5 2.385512 1_555
Fe0 O6 2.004494 1_555
Fe0 O0 2.087372 1_655
Fe0 O10 2.087702 1_545
Fe0 O1 2.186396 1_656
Fe0 O7 2.452699 1_555
Fe1 O7 2.006125 1_555
Fe1 O1 2.080822 1_555
Fe1 O11 2.093559 1_555
Fe1 O0 2.182351 1_554
Fe1 O6 2.459452 1_555
B0 O2 1.380263 1_555
B0 O6 1.398235 1_555
B0 O0 1.402550 1_555
B1 O3 1.380110 1_555
B1 O7 1.397890 1_455
B1 O1 1.403072 1_555
B2 O10 1.380957 1_555
B2 O4 1.392395 1_655
B2 O8 1.405985 1_555
B3 O11 1.380513 1_555
B3 O5 1.392661 1_555
B3 O9 1.406476 1_555
