# generated using pymatgen
data_NaC2NO3
_symmetry_space_group_name_H-M   'P 1'
_cell_length_a   5.42316600
_cell_length_b   3.62482700
_cell_length_c   20.27578275
_cell_angle_alpha   88.79220736
_cell_angle_beta   90.00000000
_cell_angle_gamma   90.00000000
_symmetry_Int_Tables_number   1
_chemical_formula_structural   NaC2NO3
_chemical_formula_sum   'Na4 C8 N4 O12'
_cell_volume   398.49356423
_cell_formula_units_Z   4
loop_
 _symmetry_equiv_pos_site_id
 _symmetry_equiv_pos_as_xyz
  1  'x, y, z'
loop_
 _atom_site_type_symbol
 _atom_site_label
 _atom_site_symmetry_multiplicity
 _atom_site_fract_x
 _atom_site_fract_y
 _atom_site_fract_z
 _atom_site_occupancy
  Na  Na0  1  0.66363600  0.52404100  0.81030000  1
  Na  Na1  1  0.16363600  0.97595900  0.68970000  1
  Na  Na2  1  0.33636400  0.47595900  0.18970000  1
  Na  Na3  1  0.83636400  0.02404100  0.31030000  1
  C  C0  1  0.58465800  0.24699800  0.58980500  1
  C  C1  1  0.08465800  0.25300200  0.91019500  1
  C  C2  1  0.41534200  0.75300200  0.41019500  1
  C  C3  1  0.91534200  0.74699800  0.08980500  1
  C  C4  1  0.65539400  0.42346800  0.65798400  1
  C  C5  1  0.15539400  0.07653200  0.84201600  1
  C  C6  1  0.34460600  0.57653200  0.34201600  1
  C  C7  1  0.84460600  0.92346800  0.15798400  1
  N  N0  1  0.75811800  0.24981900  0.54297600  1
  N  N1  1  0.25811800  0.25018100  0.95702400  1
  N  N2  1  0.24188200  0.75018100  0.45702400  1
  N  N3  1  0.74188200  0.74981900  0.04297600  1
  O  O0  1  0.37484700  0.10617800  0.58282700  1
  O  O1  1  0.87484700  0.39382200  0.91717300  1
  O  O2  1  0.62515300  0.89382200  0.41717300  1
  O  O3  1  0.12515300  0.60617800  0.08282700  1
  O  O4  1  0.87928200  0.50224600  0.66602000  1
  O  O5  1  0.37928200  0.99775400  0.83398000  1
  O  O6  1  0.12071800  0.49775400  0.33398000  1
  O  O7  1  0.62071800  0.00224600  0.16602000  1
  O  O8  1  0.48067600  0.45916700  0.69852700  1
  O  O9  1  0.98067600  0.04083300  0.80147300  1
  O  O10  1  0.51932400  0.54083300  0.30147300  1
  O  O11  1  0.01932400  0.95916700  0.19852700  1
loop_
_geom_bond_atom_site_label_1
_geom_bond_atom_site_label_2
_geom_bond_distance
_geom_bond_site_symmetry_2
Na0 O5 2.364715 1_555
Na0 O9 2.463607 1_555
Na0 O1 2.487429 1_555
Na0 O8 2.489642 1_555
Na0 O5 2.491846 1_545
Na0 O9 2.546229 1_565
Na1 O4 2.364715 1_455
Na1 O8 2.463607 1_565
Na1 O0 2.487429 1_565
Na1 O9 2.489642 1_465
Na1 O4 2.491846 1_465
Na1 O8 2.546229 1_555
Na2 O7 2.364715 1_555
Na2 O11 2.463607 1_555
Na2 O3 2.487429 1_555
Na2 O10 2.489642 1_555
Na2 O7 2.491846 1_565
Na2 O11 2.546229 1_545
Na3 O6 2.364715 1_655
Na3 O10 2.463607 1_545
Na3 O2 2.487429 1_545
Na3 O11 2.489642 1_645
Na3 O6 2.491846 1_645
Na3 O10 2.546229 1_555
C0 O0 1.256304 1_555
C0 N0 1.336472 1_555
C1 O1 1.256304 1_455
C1 N1 1.336472 1_555
C2 O2 1.256304 1_555
C2 N2 1.336472 1_555
C3 O3 1.256304 1_655
C3 N3 1.336472 1_555
C4 O4 1.258686 1_555
C4 O8 1.262848 1_555
C5 O5 1.258686 1_545
C5 O9 1.262848 1_455
C6 O6 1.258686 1_555
C6 O10 1.262848 1_555
C7 O7 1.258686 1_565
C7 O11 1.262848 1_655
