# generated using pymatgen
data_Na2TbO3
_symmetry_space_group_name_H-M   'P 1'
_cell_length_a   7.22275400
_cell_length_b   7.22604605
_cell_length_c   25.06854898
_cell_angle_alpha   82.42197667
_cell_angle_beta   82.93358136
_cell_angle_gamma   71.18300233
_symmetry_Int_Tables_number   1
_chemical_formula_structural   Na2TbO3
_chemical_formula_sum   'Na32 Tb16 O48'
_cell_volume   1223.10753165
_cell_formula_units_Z   16
loop_
 _symmetry_equiv_pos_site_id
 _symmetry_equiv_pos_as_xyz
  1  'x, y, z'
loop_
 _atom_site_type_symbol
 _atom_site_label
 _atom_site_symmetry_multiplicity
 _atom_site_fract_x
 _atom_site_fract_y
 _atom_site_fract_z
 _atom_site_occupancy
  Na  Na0  1  0.82650000  0.49108100  0.86869700  1
  Na  Na1  1  0.17352500  0.57290400  0.81285300  1
  Na  Na2  1  0.61167000  0.50520900  0.56109200  1
  Na  Na3  1  0.50624500  0.49271600  0.73767500  1
  Na  Na4  1  0.16033700  0.26196600  0.75414500  1
  Na  Na5  1  0.08119000  0.53371000  0.31473300  1
  Na  Na6  1  0.00000000  0.50000000  0.50000000  1
  Na  Na7  1  0.66139700  0.24376400  0.49503100  1
  Na  Na8  1  0.49375500  0.50728400  0.26232500  1
  Na  Na9  1  0.16009900  0.25654400  0.24709600  1
  Na  Na10  1  0.35796300  0.20440400  0.86679500  1
  Na  Na11  1  0.00000000  0.50000000  0.00000000  1
  Na  Na12  1  0.76498900  0.15977600  0.00042000  1
  Na  Na13  1  0.88440300  0.24690600  0.61876200  1
  Na  Na14  1  0.59703200  0.72643900  0.63499000  1
  Na  Na15  1  0.40296800  0.27356100  0.36501000  1
  Na  Na16  1  0.11559700  0.75309400  0.38123800  1
  Na  Na17  1  0.05762900  0.19145600  0.93313600  1
  Na  Na18  1  0.94355300  0.18342800  0.10609400  1
  Na  Na19  1  0.64203700  0.79559600  0.13320500  1
  Na  Na20  1  0.83990100  0.74345600  0.75290400  1
  Na  Na21  1  0.05644700  0.81657200  0.89390600  1
  Na  Na22  1  0.33860300  0.75623600  0.50496900  1
  Na  Na23  1  0.94237100  0.80854400  0.06686400  1
  Na  Na24  1  0.91881000  0.46629000  0.68526700  1
  Na  Na25  1  0.83966300  0.73803400  0.24585500  1
  Na  Na26  1  0.38833000  0.49479100  0.43890800  1
  Na  Na27  1  0.23501100  0.84022400  0.99958000  1
  Na  Na28  1  0.25559200  0.50267900  0.62901000  1
  Na  Na29  1  0.82647500  0.42709600  0.18714700  1
  Na  Na30  1  0.74440800  0.49732100  0.37099000  1
  Na  Na31  1  0.17350000  0.50891900  0.13130300  1
  Tb  Tb0  1  0.16240900  0.88723700  0.68952000  1
  Tb  Tb1  1  0.70847400  0.85721100  0.43532000  1
  Tb  Tb2  1  0.23081100  0.85379100  0.18794500  1
  Tb  Tb3  1  0.63911700  0.85805300  0.94173700  1
  Tb  Tb4  1  0.56601700  0.53711300  0.06569100  1
  Tb  Tb5  1  0.56487000  0.10658600  0.68764100  1
  Tb  Tb6  1  0.05621400  0.14145600  0.43353700  1
  Tb  Tb7  1  0.54861100  0.16275600  0.18294800  1
  Tb  Tb8  1  0.45138900  0.83724400  0.81705200  1
  Tb  Tb9  1  0.94378600  0.85854400  0.56646300  1
  Tb  Tb10  1  0.43513000  0.89341400  0.31235900  1
  Tb  Tb11  1  0.76918900  0.14620900  0.81205500  1
  Tb  Tb12  1  0.43398300  0.46288700  0.93430900  1
  Tb  Tb13  1  0.29152600  0.14278900  0.56468000  1
  Tb  Tb14  1  0.83759100  0.11276300  0.31048000  1
  Tb  Tb15  1  0.36088300  0.14194700  0.05826300  1
  O  O0  1  0.16161100  0.58752100  0.72400000  1
  O  O1  1  0.66720400  0.57386000  0.47028900  1
  O  O2  1  0.57726100  0.40069400  0.65050300  1
  O  O3  1  0.24055800  0.17838900  0.65376300  1
  O  O4  1  0.18101700  0.56229000  0.22172000  1
  O  O5  1  0.07829600  0.44026200  0.40740700  1
  O  O6  1  0.10849500  0.09599100  0.83776000  1
  O  O7  1  0.76128100  0.16408300  0.40110600  1
  O  O8  1  0.68403300  0.52108500  0.97241900  1
  O  O9  1  0.50412000  0.49291600  0.16688600  1
  O  O10  1  0.62325800  0.07449400  0.57969700  1
  O  O11  1  0.26263900  0.16663600  0.15268600  1
  O  O12  1  0.11290900  0.93126300  0.80412100  1
  O  O13  1  0.13827900  0.47519100  0.90087100  1
  O  O14  1  0.14597500  0.12014900  0.34036800  1
  O  O15  1  0.48857500  0.14824200  0.77731700  1
  O  O16  1  0.69659000  0.18504300  0.90317000  1
  O  O17  1  0.60948800  0.92203300  0.54485400  1
  O  O18  1  0.47076200  0.82638800  0.72206000  1
  O  O19  1  0.62663000  0.19628200  0.08987500  1
  O  O20  1  0.00469800  0.16606800  0.52763300  1
  O  O21  1  0.86997000  0.10494600  0.71877100  1
  O  O22  1  0.13003000  0.89505400  0.28122900  1
  O  O23  1  0.99530200  0.83393200  0.47236700  1
  O  O24  1  0.52923800  0.17361200  0.27794000  1
  O  O25  1  0.39051200  0.07796700  0.45514600  1
  O  O26  1  0.59743700  0.85493200  0.03732300  1
  O  O27  1  0.51142500  0.85175800  0.22268300  1
  O  O28  1  0.85402500  0.87985100  0.65963200  1
  O  O29  1  0.08015400  0.15628200  0.02247700  1
  O  O30  1  0.88709100  0.06873700  0.19587900  1
  O  O31  1  0.73736100  0.83336400  0.84731400  1
  O  O32  1  0.91984600  0.84371800  0.97752300  1
  O  O33  1  0.37674200  0.92550600  0.42030300  1
  O  O34  1  0.49588000  0.50708400  0.83311400  1
  O  O35  1  0.40256300  0.14506800  0.96267700  1
  O  O36  1  0.23871900  0.83591700  0.59889400  1
  O  O37  1  0.89150500  0.90400900  0.16224000  1
  O  O38  1  0.92170400  0.55973800  0.59259300  1
  O  O39  1  0.81898300  0.43771000  0.77828000  1
  O  O40  1  0.75944200  0.82161100  0.34623700  1
  O  O41  1  0.37337000  0.80371800  0.91012500  1
  O  O42  1  0.42273900  0.59930600  0.34949700  1
  O  O43  1  0.33279600  0.42614000  0.52971100  1
  O  O44  1  0.30341000  0.81495700  0.09683000  1
  O  O45  1  0.86172100  0.52480900  0.09912900  1
  O  O46  1  0.83838900  0.41247900  0.27600000  1
  O  O47  1  0.31596700  0.47891500  0.02758100  1
loop_
_geom_bond_atom_site_label_1
_geom_bond_atom_site_label_2
_geom_bond_distance
_geom_bond_site_symmetry_2
Na0 O31 2.351021 1_555
Na0 O39 2.358730 1_555
Na0 O13 2.447536 1_655
Na0 O34 2.613483 1_555
Na0 O16 2.674461 1_555
Na0 O8 2.685733 1_555
Na1 O0 2.226923 1_555
Na1 O13 2.235791 1_555
Na1 O34 2.327662 1_555
Na1 O12 2.467371 1_555
Na2 O2 2.278943 1_555
Na2 O1 2.279123 1_555
Na2 O43 2.500656 1_555
Na2 O38 2.622912 1_555
Na2 O17 2.980873 1_555
Na3 O2 2.316925 1_555
Na3 O18 2.325850 1_555
Na3 O34 2.399366 1_555
Na3 O0 2.414734 1_555
Na3 O39 2.485207 1_555
Na3 O15 2.592527 1_555
Na4 O6 2.325043 1_555
Na4 O15 2.364209 1_555
Na4 O0 2.376692 1_555
Na4 O39 2.423506 1_455
Na4 O3 2.617106 1_555
Na4 O12 2.651475 1_545
Na4 O21 2.954699 1_455
Na5 O5 2.331754 1_555
Na5 O4 2.356854 1_555
Na5 O46 2.533770 1_455
Na5 O40 2.686125 1_455
Na5 O22 2.755089 1_555
Na5 O14 2.868436 1_555
Na6 O38 2.382817 1_455
Na6 O5 2.382817 1_555
Na6 O23 2.411578 1_455
Na6 O20 2.411578 1_555
Na6 O43 2.474963 1_555
Na6 O1 2.474963 1_455
Na7 O10 2.337858 1_555
Na7 O1 2.396663 1_555
Na7 O43 2.429485 1_555
Na7 O7 2.463256 1_555
Na7 O20 2.571188 1_655
Na7 O17 2.605122 1_545
Na7 O25 2.927879 1_555
Na8 O42 2.316925 1_555
Na8 O24 2.325850 1_555
Na8 O9 2.399366 1_555
Na8 O46 2.414734 1_555
Na8 O4 2.485207 1_555
Na8 O27 2.592527 1_555
Na9 O4 2.264874 1_555
Na9 O46 2.303481 1_455
Na9 O14 2.418121 1_555
Na9 O11 2.497170 1_555
Na9 O22 2.708016 1_545
Na9 O24 2.723950 1_555
Na10 O13 2.276107 1_555
Na10 O15 2.357661 1_555
Na10 O6 2.402876 1_555
Na10 O35 2.427879 1_555
Na10 O16 2.669730 1_555
Na10 O34 2.683361 1_555
Na11 O29 2.367507 1_555
Na11 O32 2.367507 1_454
Na11 O47 2.417773 1_555
Na11 O8 2.417773 1_454
Na11 O13 2.568330 1_554
Na11 O45 2.568330 1_455
Na12 O32 2.310064 1_544
Na12 O19 2.351953 1_555
Na12 O29 2.399399 1_655
Na12 O8 2.506770 1_554
Na12 O16 2.518249 1_554
Na12 O26 2.842453 1_545
Na12 O35 2.928195 1_554
Na13 O2 2.235624 1_555
Na13 O38 2.360347 1_555
Na13 O20 2.418914 1_655
Na13 O21 2.583597 1_555
Na13 O3 2.692861 1_655
Na13 O28 2.781404 1_545
Na13 O10 2.891553 1_555
Na14 O18 2.370390 1_555
Na14 O2 2.382009 1_555
Na14 O38 2.445811 1_555
Na14 O17 2.510198 1_555
Na14 O28 2.616512 1_555
Na14 O36 2.684967 1_555
Na14 O10 2.757893 1_565
Na15 O24 2.370390 1_555
Na15 O42 2.382009 1_555
Na15 O5 2.445811 1_555
Na15 O25 2.510198 1_555
Na15 O14 2.616512 1_555
Na15 O7 2.684967 1_555
Na15 O33 2.757893 1_545
Na16 O42 2.235624 1_555
Na16 O5 2.360347 1_555
Na16 O23 2.418914 1_455
Na16 O22 2.583597 1_555
Na16 O40 2.692861 1_455
Na16 O14 2.781404 1_565
Na16 O33 2.891553 1_555
Na17 O29 2.240521 1_556
Na17 O13 2.326871 1_555
Na17 O6 2.526428 1_555
Na17 O35 2.591806 1_555
Na17 O16 2.817027 1_455
Na18 O29 2.209198 1_655
Na18 O30 2.327952 1_555
Na18 O45 2.331593 1_555
Na18 O19 2.344268 1_555
Na18 O37 2.410194 1_545
Na18 O11 2.671143 1_655
Na19 O45 2.276107 1_555
Na19 O27 2.357661 1_555
Na19 O37 2.402876 1_555
Na19 O26 2.427879 1_555
Na19 O44 2.669730 1_555
Na19 O9 2.683361 1_555
Na20 O39 2.264874 1_555
Na20 O0 2.303481 1_655
Na20 O28 2.418121 1_555
Na20 O31 2.497170 1_555
Na20 O21 2.708016 1_565
Na20 O18 2.723950 1_555
Na21 O32 2.209198 1_455
Na21 O12 2.327952 1_555
Na21 O13 2.331593 1_555
Na21 O41 2.344268 1_555
Na21 O6 2.410194 1_565
Na21 O31 2.671143 1_455
Na22 O33 2.337858 1_555
Na22 O43 2.396663 1_555
Na22 O1 2.429485 1_555
Na22 O36 2.463256 1_555
Na22 O23 2.571188 1_455
Na22 O25 2.605122 1_565
Na22 O17 2.927879 1_555
Na23 O32 2.240521 1_554
Na23 O45 2.326871 1_555
Na23 O37 2.526428 1_555
Na23 O26 2.591806 1_555
Na23 O44 2.817027 1_655
Na24 O38 2.331754 1_555
Na24 O39 2.356854 1_555
Na24 O0 2.533770 1_655
Na24 O3 2.686125 1_655
Na24 O21 2.755089 1_555
Na24 O28 2.868436 1_555
Na25 O37 2.325043 1_555
Na25 O27 2.364209 1_555
Na25 O46 2.376692 1_555
Na25 O4 2.423506 1_655
Na25 O40 2.617106 1_555
Na25 O30 2.651475 1_565
Na25 O22 2.954699 1_655
Na26 O42 2.278943 1_555
Na26 O43 2.279123 1_555
Na26 O1 2.500656 1_555
Na26 O5 2.622912 1_555
Na26 O25 2.980873 1_555
Na27 O29 2.310064 1_566
Na27 O41 2.351953 1_555
Na27 O32 2.399399 1_455
Na27 O47 2.506770 1_556
Na27 O44 2.518249 1_556
Na27 O35 2.842453 1_565
Na27 O26 2.928195 1_556
Na28 O2 2.308688 1_555
Na28 O3 2.377415 1_555
Na28 O36 2.395223 1_555
Na28 O0 2.495180 1_555
Na28 O38 2.572968 1_455
Na28 O43 2.576045 1_555
Na29 O46 2.226923 1_555
Na29 O45 2.235791 1_555
Na29 O9 2.327662 1_555
Na29 O30 2.467371 1_555
Na30 O42 2.308688 1_555
Na30 O40 2.377415 1_555
Na30 O7 2.395223 1_555
Na30 O46 2.495180 1_555
Na30 O5 2.572968 1_655
Na30 O1 2.576045 1_555
Na31 O11 2.351021 1_555
Na31 O4 2.358730 1_555
Na31 O45 2.447536 1_455
Na31 O9 2.613483 1_555
Na31 O44 2.674461 1_555
Na31 O47 2.685733 1_555
O0 Tb0 2.225031 1_555
O1 Tb1 2.214865 1_555
O2 Tb5 2.229740 1_555
O3 Tb13 2.253210 1_555
O3 Tb0 2.385913 1_545
O3 Tb5 2.463055 1_555
O4 Tb2 2.286162 1_555
O5 Tb6 2.222613 1_555
O6 Tb11 2.511204 1_455
O6 Tb8 2.617550 1_545
O7 Tb14 2.320547 1_555
O7 Tb6 2.322054 1_655
O7 Tb1 2.400369 1_545
O8 Tb12 2.317723 1_555
O8 Tb3 2.384040 1_555
O8 Tb4 2.392596 1_556
O9 Tb7 2.289346 1_555
O9 Tb4 2.517272 1_555
O9 Tb2 2.785961 1_555
O10 O17 1.527224 1_545
O10 Tb9 2.349866 1_545
O10 Tb13 2.352936 1_555
O10 Tb5 2.715825 1_555
O11 Tb7 2.277097 1_555
O11 Tb2 2.388055 1_545
O11 Tb15 2.398900 1_555
O12 O6 1.537103 1_565
O12 Tb8 2.368318 1_555
O12 Tb11 2.467358 1_465
O12 Tb0 2.897835 1_555
O13 Tb12 2.360195 1_555
O14 Tb10 2.296610 1_545
O14 Tb6 2.357329 1_555
O14 Tb14 2.454240 1_455
O15 Tb5 2.283564 1_555
O15 Tb11 2.297430 1_555
O15 Tb8 2.418217 1_545
O16 Tb11 2.313084 1_555
O16 Tb12 2.414620 1_555
O16 Tb3 2.573239 1_545
O17 Tb13 2.372943 1_565
O17 Tb9 2.423975 1_555
O17 Tb1 2.812558 1_555
O18 Tb0 2.353647 1_555
O18 Tb5 2.364051 1_565
O18 Tb8 2.378358 1_555
O19 Tb15 2.325687 1_555
O19 Tb7 2.331432 1_555
O19 Tb4 2.366606 1_555
O20 Tb13 2.321652 1_555
O20 Tb6 2.363528 1_555
O20 Tb9 2.456414 1_445
O21 Tb0 2.292083 1_645
O21 Tb11 2.390063 1_555
O21 Tb5 2.422622 1_555
O22 Tb14 2.292083 1_465
O22 Tb2 2.390063 1_555
O22 Tb10 2.422622 1_555
O23 Tb1 2.321652 1_555
O23 Tb9 2.363528 1_555
O23 Tb6 2.456414 1_665
O24 Tb14 2.353647 1_555
O24 Tb10 2.364051 1_545
O24 Tb7 2.378358 1_555
O25 O33 1.527224 1_545
O25 Tb1 2.372943 1_545
O25 Tb6 2.423975 1_555
O25 Tb13 2.812558 1_555
O26 Tb15 2.297116 1_565
O26 Tb3 2.376040 1_554
O26 Tb4 2.386887 1_555
O27 Tb10 2.283564 1_555
O27 Tb2 2.297430 1_555
O27 Tb7 2.418217 1_565
O28 Tb5 2.296610 1_565
O28 Tb9 2.357329 1_555
O28 Tb0 2.454240 1_655
O29 Tb15 2.283501 1_555
O30 O37 1.537103 1_545
O30 Tb7 2.368318 1_555
O30 Tb2 2.467358 1_645
O30 Tb14 2.897835 1_555
O31 Tb8 2.277097 1_555
O31 Tb11 2.388055 1_565
O31 Tb3 2.398900 1_555
O32 Tb3 2.283501 1_555
O33 Tb6 2.349866 1_565
O33 Tb1 2.352936 1_555
O33 Tb10 2.715825 1_555
O34 Tb8 2.289346 1_555
O34 Tb12 2.517272 1_555
O34 Tb11 2.785961 1_555
O35 Tb3 2.297116 1_545
O35 Tb15 2.376040 1_556
O35 Tb12 2.386887 1_555
O36 Tb0 2.320547 1_555
O36 Tb9 2.322054 1_455
O36 Tb13 2.400369 1_565
O37 Tb2 2.511204 1_655
O37 Tb7 2.617550 1_565
O38 Tb9 2.222613 1_555
O39 Tb11 2.286162 1_555
O40 Tb1 2.253210 1_555
O40 Tb14 2.385913 1_565
O40 Tb10 2.463055 1_555
O41 Tb3 2.325687 1_555
O41 Tb8 2.331432 1_555
O41 Tb12 2.366606 1_555
O42 Tb10 2.229740 1_555
O43 Tb13 2.214865 1_555
O44 Tb2 2.313084 1_555
O44 Tb4 2.414620 1_555
O44 Tb15 2.573239 1_565
O45 Tb4 2.360195 1_555
O46 Tb14 2.225031 1_555
O47 Tb4 2.317723 1_555
O47 Tb15 2.384040 1_555
O47 Tb12 2.392596 1_554
