# generated using pymatgen
data_Li5Fe3(CuO5)2
_symmetry_space_group_name_H-M   'P 1'
_cell_length_a   5.11735521
_cell_length_b   5.13252728
_cell_length_c   7.90227934
_cell_angle_alpha   108.75993776
_cell_angle_beta   102.21008742
_cell_angle_gamma   100.00628780
_symmetry_Int_Tables_number   1
_chemical_formula_structural   Li5Fe3(CuO5)2
_chemical_formula_sum   'Li5 Fe3 Cu2 O10'
_cell_volume   185.41029473
_cell_formula_units_Z   1
loop_
 _symmetry_equiv_pos_site_id
 _symmetry_equiv_pos_as_xyz
  1  'x, y, z'
loop_
 _atom_site_type_symbol
 _atom_site_label
 _atom_site_symmetry_multiplicity
 _atom_site_fract_x
 _atom_site_fract_y
 _atom_site_fract_z
 _atom_site_occupancy
  Li  Li0  1  0.21278400  0.90267800  0.41448000  1
  Li  Li1  1  0.38318900  0.28507600  0.77637700  1
  Li  Li2  1  0.50000000  0.50000000  0.50000000  1
  Li  Li3  1  0.61681100  0.71492400  0.22362300  1
  Li  Li4  1  0.78721600  0.09732200  0.58552000  1
  Fe  Fe0  1  0.00000000  0.50000000  0.00000000  1
  Fe  Fe1  1  0.68748100  0.89070700  0.88566500  1
  Fe  Fe2  1  0.31251900  0.10929300  0.11433500  1
  Cu  Cu0  1  0.09672800  0.69591300  0.68952400  1
  Cu  Cu1  1  0.90327200  0.30408700  0.31047600  1
  O  O0  1  0.04843200  0.10666800  0.86177600  1
  O  O1  1  0.33532100  0.71210300  0.94546100  1
  O  O2  1  0.13576000  0.31293500  0.54457400  1
  O  O3  1  0.23251000  0.48181000  0.23270800  1
  O  O4  1  0.44835300  0.89696400  0.66191800  1
  O  O5  1  0.55164700  0.10303600  0.33808200  1
  O  O6  1  0.76749000  0.51819000  0.76729200  1
  O  O7  1  0.86424000  0.68706500  0.45542600  1
  O  O8  1  0.66467900  0.28789700  0.05453900  1
  O  O9  1  0.95156800  0.89333200  0.13822400  1
loop_
_geom_bond_atom_site_label_1
_geom_bond_atom_site_label_2
_geom_bond_distance
_geom_bond_site_symmetry_2
Li0 O7 2.073442 1_455
Li0 O4 2.080740 1_555
Li0 O5 2.156725 1_565
Li0 O2 2.171056 1_565
Li0 O3 2.209282 1_555
Li0 O9 2.287111 1_455
Li1 O4 2.024074 1_545
Li1 O2 2.056541 1_555
Li1 O0 2.137723 1_555
Li1 O6 2.145110 1_555
Li1 O1 2.256185 1_555
Li1 O8 2.353687 1_556
Li2 O7 2.096072 1_555
Li2 O2 2.096072 1_555
Li2 O4 2.124034 1_555
Li2 O5 2.124034 1_555
Li2 O6 2.224781 1_555
Li2 O3 2.224781 1_555
Li3 O5 2.024074 1_565
Li3 O7 2.056541 1_555
Li3 O9 2.137723 1_555
Li3 O3 2.145110 1_555
Li3 O8 2.256185 1_555
Li3 O1 2.353687 1_554
Li4 O2 2.073442 1_655
Li4 O5 2.080740 1_555
Li4 O4 2.156725 1_545
Li4 O7 2.171056 1_545
Li4 O6 2.209282 1_555
Li4 O0 2.287111 1_655
Fe0 O3 2.007381 1_555
Fe0 O6 2.007381 1_454
Fe0 O0 2.049407 1_554
Fe0 O9 2.049407 1_455
Fe0 O1 2.069008 1_554
Fe0 O8 2.069008 1_455
Fe1 O4 1.938987 1_555
Fe1 O6 1.995468 1_555
Fe1 O0 2.060744 1_665
Fe1 O8 2.085431 1_566
Fe1 O1 2.091886 1_555
Fe1 O9 2.155276 1_556
Fe2 O5 1.938987 1_555
Fe2 O3 1.995468 1_555
Fe2 O9 2.060744 1_445
Fe2 O1 2.085431 1_544
Fe2 O8 2.091886 1_555
Fe2 O0 2.155276 1_554
Cu0 O7 1.958544 1_455
Cu0 O2 2.000175 1_555
Cu0 O4 2.003943 1_555
Cu0 O6 2.076732 1_455
Cu0 O1 2.097670 1_555
Cu0 O0 2.199099 1_565
Cu1 O2 1.958544 1_655
Cu1 O7 2.000175 1_555
Cu1 O5 2.003943 1_555
Cu1 O3 2.076732 1_655
Cu1 O8 2.097670 1_555
Cu1 O9 2.199099 1_545
