# generated using pymatgen
data_Zr4MnO9
_symmetry_space_group_name_H-M   'P 1'
_cell_length_a   6.40778444
_cell_length_b   9.46627633
_cell_length_c   12.83243184
_cell_angle_alpha   110.22143060
_cell_angle_beta   101.89986384
_cell_angle_gamma   71.82744527
_symmetry_Int_Tables_number   1
_chemical_formula_structural   Zr4MnO9
_chemical_formula_sum   'Zr16 Mn4 O36'
_cell_volume   689.73943538
_cell_formula_units_Z   4
loop_
 _symmetry_equiv_pos_site_id
 _symmetry_equiv_pos_as_xyz
  1  'x, y, z'
loop_
 _atom_site_type_symbol
 _atom_site_label
 _atom_site_symmetry_multiplicity
 _atom_site_fract_x
 _atom_site_fract_y
 _atom_site_fract_z
 _atom_site_occupancy
  Zr  Zr0  1  0.47979400  0.31938800  0.45329900  1
  Zr  Zr1  1  0.97995300  0.81940300  0.70329600  1
  Zr  Zr2  1  0.48003600  0.31948700  0.95334100  1
  Zr  Zr3  1  0.97975800  0.81940200  0.20334000  1
  Zr  Zr4  1  0.53968100  0.49194600  0.74224800  1
  Zr  Zr5  1  0.03953100  0.99199700  0.99223400  1
  Zr  Zr6  1  0.53935100  0.49193900  0.24225900  1
  Zr  Zr7  1  0.03937000  0.99189100  0.49224700  1
  Zr  Zr8  1  0.01443800  0.20872700  0.28705100  1
  Zr  Zr9  1  0.51450800  0.70875400  0.53715400  1
  Zr  Zr10  1  0.01474500  0.20883200  0.78716500  1
  Zr  Zr11  1  0.51449200  0.70877900  0.03709000  1
  Zr  Zr12  1  0.50275400  0.10597500  0.16824100  1
  Zr  Zr13  1  0.00270300  0.60591300  0.41820200  1
  Zr  Zr14  1  0.50282100  0.10599200  0.66819500  1
  Zr  Zr15  1  0.00285000  0.60604500  0.91826700  1
  Mn  Mn0  1  0.97858900  0.38364100  0.58667100  1
  Mn  Mn1  1  0.47799900  0.88388500  0.83654200  1
  Mn  Mn2  1  0.97780000  0.38413700  0.08645300  1
  Mn  Mn3  1  0.47806100  0.88403200  0.33665900  1
  O  O0  1  0.41356200  0.30833100  0.61047000  1
  O  O1  1  0.91368600  0.80832900  0.86042600  1
  O  O2  1  0.41373700  0.30829100  0.11042800  1
  O  O3  1  0.91354000  0.80829700  0.36044000  1
  O  O4  1  0.66709600  0.28215800  0.29841800  1
  O  O5  1  0.16711900  0.78211700  0.54836600  1
  O  O6  1  0.66746900  0.28213900  0.79841800  1
  O  O7  1  0.16717300  0.78214000  0.04836300  1
  O  O8  1  0.10405000  0.36549500  0.43819300  1
  O  O9  1  0.60407600  0.86559500  0.68821400  1
  O  O10  1  0.10417500  0.36563000  0.93824400  1
  O  O11  1  0.60403900  0.86554100  0.18820900  1
  O  O12  1  0.79750600  0.19496900  0.48961900  1
  O  O13  1  0.29821300  0.69533400  0.73968100  1
  O  O14  1  0.79823800  0.19537400  0.98970400  1
  O  O15  1  0.29747600  0.69500000  0.23960200  1
  O  O16  1  0.08789000  0.00853200  0.33462300  1
  O  O17  1  0.58792300  0.50852000  0.58461800  1
  O  O18  1  0.08802200  0.00862600  0.83464100  1
  O  O19  1  0.58796400  0.50865100  0.08466700  1
  O  O20  1  0.39986700  0.13255600  0.32171700  1
  O  O21  1  0.89991200  0.63255900  0.57172500  1
  O  O22  1  0.39964800  0.13297200  0.82167100  1
  O  O23  1  0.89987700  0.63258000  0.07171700  1
  O  O24  1  0.84255700  0.01554700  0.13586400  1
  O  O25  1  0.34251300  0.51552300  0.38587300  1
  O  O26  1  0.84256300  0.01549300  0.63586400  1
  O  O27  1  0.34261000  0.51555600  0.88584000  1
  O  O28  1  0.14627200  0.16115500  0.14202600  1
  O  O29  1  0.64615400  0.66122600  0.39204000  1
  O  O30  1  0.14610500  0.16119000  0.64193500  1
  O  O31  1  0.64633100  0.66117500  0.89202100  1
  O  O32  1  0.90081400  0.44578400  0.25408000  1
  O  O33  1  0.40078800  0.94579700  0.50413000  1
  O  O34  1  0.90095600  0.44583900  0.75410200  1
  O  O35  1  0.40085000  0.94581500  0.00409400  1
loop_
_geom_bond_atom_site_label_1
_geom_bond_atom_site_label_2
_geom_bond_distance
_geom_bond_site_symmetry_2
Mn0 O34 2.143351 1_555
Mn0 O8 2.150676 1_655
Mn0 O12 2.290491 1_555
Mn0 O21 2.318357 1_555
Mn0 O30 2.323349 1_655
Mn0 O17 2.411046 1_555
Mn0 O0 2.632509 1_655
Mn1 O35 2.144108 1_556
Mn1 O9 2.150511 1_555
Mn1 O13 2.283922 1_555
Mn1 O22 2.319791 1_565
Mn1 O31 2.327531 1_555
Mn1 O18 2.406991 1_565
Mn1 O1 2.636803 1_555
Mn2 O32 2.145051 1_555
Mn2 O10 2.149399 1_654
Mn2 O14 2.284273 1_554
Mn2 O23 2.313481 1_555
Mn2 O28 2.330501 1_655
Mn2 O19 2.405880 1_555
Mn2 O2 2.638266 1_655
Mn3 O33 2.143622 1_555
Mn3 O11 2.150985 1_555
Mn3 O15 2.291025 1_555
Mn3 O20 2.315055 1_565
Mn3 O29 2.327481 1_555
Mn3 O16 2.407643 1_565
Mn3 O3 2.635517 1_555
O0 Zr14 2.160408 1_555
O0 Zr0 2.187590 1_555
O0 Zr4 2.194204 1_555
O1 Zr15 2.160864 1_655
O1 Zr1 2.187233 1_555
O1 Zr5 2.193887 1_655
O2 Zr12 2.161007 1_555
O2 Zr2 2.187269 1_554
O2 Zr6 2.193216 1_555
O3 Zr13 2.161134 1_655
O3 Zr3 2.186857 1_555
O3 Zr7 2.193389 1_655
O4 Zr8 2.134699 1_655
O4 Zr6 2.205691 1_555
O4 Zr12 2.263865 1_555
O4 Zr0 2.398020 1_555
O5 Zr9 2.134662 1_555
O5 Zr7 2.205344 1_555
O5 Zr13 2.264182 1_555
O5 Zr1 2.397872 1_455
O6 Zr10 2.134072 1_655
O6 Zr4 2.205997 1_555
O6 Zr14 2.264945 1_555
O6 Zr2 2.398690 1_555
O7 Zr11 2.134367 1_555
O7 Zr5 2.206106 1_554
O7 Zr15 2.262874 1_554
O7 Zr3 2.399469 1_455
O8 Zr8 2.091946 1_555
O8 Zr13 2.253907 1_555
O8 Zr0 2.288133 1_555
O9 Zr9 2.091530 1_555
O9 Zr14 2.253891 1_565
O9 Zr1 2.288898 1_555
O10 Zr10 2.091220 1_555
O10 Zr15 2.253815 1_555
O10 Zr2 2.288835 1_555
O11 Zr11 2.091608 1_555
O11 Zr12 2.253954 1_565
O11 Zr3 2.287923 1_555
O12 Zr0 2.059501 1_555
O12 Zr7 2.064828 1_645
O13 Zr1 2.061239 1_455
O13 Zr4 2.065591 1_555
O14 Zr2 2.061034 1_555
O14 Zr5 2.064920 1_645
O15 Zr3 2.059311 1_455
O15 Zr6 2.064815 1_555
O16 Zr8 2.076174 1_555
O16 Zr7 2.173237 1_545
O16 Zr3 2.175069 1_445
O17 Zr9 2.075771 1_555
O17 Zr4 2.172398 1_555
O17 Zr0 2.175269 1_555
O18 Zr10 2.075712 1_555
O18 Zr5 2.172728 1_545
O18 Zr1 2.175815 1_445
O19 Zr11 2.075596 1_555
O19 Zr6 2.173340 1_555
O19 Zr2 2.174971 1_554
O20 Zr0 2.094105 1_555
O20 Zr12 2.113337 1_555
O20 Zr8 2.339936 1_555
O21 Zr1 2.094362 1_555
O21 Zr13 2.113441 1_655
O21 Zr9 2.339702 1_555
O22 Zr2 2.093715 1_555
O22 Zr14 2.113061 1_555
O22 Zr10 2.336542 1_555
O23 Zr3 2.094188 1_555
O23 Zr15 2.113407 1_654
O23 Zr11 2.339649 1_555
O24 Zr12 2.147322 1_555
O24 Zr3 2.179335 1_545
O24 Zr5 2.353655 1_644
O24 Zr8 2.498720 1_655
O25 Zr13 2.147196 1_555
O25 Zr0 2.178892 1_555
O25 Zr6 2.352785 1_555
O25 Zr9 2.499903 1_555
O26 Zr14 2.146814 1_555
O26 Zr1 2.178610 1_545
O26 Zr7 2.352628 1_645
O26 Zr10 2.501239 1_655
O27 Zr15 2.147245 1_555
O27 Zr2 2.178990 1_555
O27 Zr4 2.353456 1_555
O27 Zr11 2.499317 1_556
O28 Zr8 2.052201 1_555
O28 Zr12 2.159669 1_555
O28 Zr5 2.177144 1_544
O29 Zr9 2.052702 1_555
O29 Zr13 2.160020 1_655
O29 Zr6 2.177853 1_555
O30 Zr10 2.052856 1_555
O30 Zr14 2.161100 1_555
O30 Zr7 2.177084 1_545
O31 Zr11 2.052668 1_556
O31 Zr15 2.159919 1_655
O31 Zr4 2.177151 1_555
O32 Zr6 2.201880 1_555
O32 Zr13 2.236711 1_655
O32 Zr8 2.292389 1_655
O33 Zr7 2.201596 1_555
O33 Zr14 2.236800 1_565
O33 Zr9 2.292559 1_555
O34 Zr4 2.200719 1_555
O34 Zr15 2.237401 1_655
O34 Zr10 2.292456 1_655
O35 Zr5 2.200912 1_554
O35 Zr12 2.237078 1_565
O35 Zr11 2.292345 1_555
