# generated using pymatgen
data_NaSb3O8
_symmetry_space_group_name_H-M   'P 1'
_cell_length_a   5.26309200
_cell_length_b   7.57499300
_cell_length_c   15.45680523
_cell_angle_alpha   72.83032933
_cell_angle_beta   90.00000000
_cell_angle_gamma   90.00000000
_symmetry_Int_Tables_number   1
_chemical_formula_structural   NaSb3O8
_chemical_formula_sum   'Na4 Sb12 O32'
_cell_volume   588.76769064
_cell_formula_units_Z   4
loop_
 _symmetry_equiv_pos_site_id
 _symmetry_equiv_pos_as_xyz
  1  'x, y, z'
loop_
 _atom_site_type_symbol
 _atom_site_label
 _atom_site_symmetry_multiplicity
 _atom_site_fract_x
 _atom_site_fract_y
 _atom_site_fract_z
 _atom_site_occupancy
  Na  Na0  1  0.76039100  0.26826200  0.07849600  1
  Na  Na1  1  0.26039100  0.73173800  0.42150400  1
  Na  Na2  1  0.73960900  0.26826200  0.57849600  1
  Na  Na3  1  0.23960900  0.73173800  0.92150400  1
  Sb  Sb0  1  0.26465700  0.02240300  0.16525200  1
  Sb  Sb1  1  0.76030700  0.76021500  0.08396600  1
  Sb  Sb2  1  0.26120700  0.51320200  0.16195400  1
  Sb  Sb3  1  0.76465700  0.97759700  0.33474800  1
  Sb  Sb4  1  0.76120700  0.48679800  0.33804600  1
  Sb  Sb5  1  0.26030700  0.23978500  0.41603400  1
  Sb  Sb6  1  0.73969300  0.76021500  0.58396600  1
  Sb  Sb7  1  0.23879300  0.51320200  0.66195400  1
  Sb  Sb8  1  0.23534300  0.02240300  0.66525200  1
  Sb  Sb9  1  0.73879300  0.48679800  0.83804600  1
  Sb  Sb10  1  0.23969300  0.23978500  0.91603400  1
  Sb  Sb11  1  0.73534300  0.97759700  0.83474800  1
  O  O0  1  0.11267700  0.13013000  0.03985300  1
  O  O1  1  0.58061700  0.97370500  0.10083800  1
  O  O2  1  0.45254700  0.64517900  0.05217000  1
  O  O3  1  0.94642400  0.52459800  0.09283700  1
  O  O4  1  0.39472000  0.27541800  0.15711700  1
  O  O5  1  0.93860100  0.08565000  0.21655700  1
  O  O6  1  0.09154000  0.77792600  0.15829800  1
  O  O7  1  0.43860100  0.91435000  0.28344300  1
  O  O8  1  0.58971100  0.59011900  0.21649100  1
  O  O9  1  0.89472000  0.72458200  0.34288300  1
  O  O10  1  0.08971100  0.40988100  0.28350900  1
  O  O11  1  0.59154000  0.22207400  0.34170200  1
  O  O12  1  0.08061700  0.02629500  0.39916200  1
  O  O13  1  0.61267700  0.86987000  0.46014700  1
  O  O14  1  0.44642400  0.47540200  0.40716300  1
  O  O15  1  0.04745300  0.64517900  0.55217000  1
  O  O16  1  0.95254700  0.35482100  0.44783000  1
  O  O17  1  0.55357600  0.52459800  0.59283700  1
  O  O18  1  0.38732300  0.13013000  0.53985300  1
  O  O19  1  0.91938300  0.97370500  0.60083800  1
  O  O20  1  0.40846000  0.77792600  0.65829800  1
  O  O21  1  0.91028900  0.59011900  0.71649100  1
  O  O22  1  0.10528000  0.27541800  0.65711700  1
  O  O23  1  0.41028900  0.40988100  0.78350900  1
  O  O24  1  0.56139900  0.08565000  0.71655700  1
  O  O25  1  0.90846000  0.22207400  0.84170200  1
  O  O26  1  0.06139900  0.91435000  0.78344300  1
  O  O27  1  0.60528000  0.72458200  0.84288300  1
  O  O28  1  0.05357600  0.47540200  0.90716300  1
  O  O29  1  0.54745300  0.35482100  0.94783000  1
  O  O30  1  0.41938300  0.02629500  0.89916200  1
  O  O31  1  0.88732300  0.86987000  0.96014700  1
loop_
_geom_bond_atom_site_label_1
_geom_bond_atom_site_label_2
_geom_bond_distance
_geom_bond_site_symmetry_2
Na0 O29 2.232300 1_554
Na0 O3 2.243274 1_555
Na0 O4 2.285289 1_555
Na0 O0 2.293107 1_655
Na0 O1 2.353320 1_545
Na0 O5 2.367332 1_555
Na1 O15 2.232300 1_555
Na1 O14 2.243274 1_555
Na1 O9 2.285289 1_455
Na1 O13 2.293107 1_555
Na1 O12 2.353320 1_565
Na1 O7 2.367332 1_555
Na2 O16 2.232300 1_555
Na2 O17 2.243274 1_555
Na2 O22 2.285289 1_655
Na2 O18 2.293107 1_555
Na2 O19 2.353320 1_545
Na2 O24 2.367332 1_555
Na3 O2 2.232300 1_556
Na3 O28 2.243274 1_555
Na3 O27 2.285289 1_555
Na3 O31 2.293107 1_455
Na3 O30 2.353320 1_565
Na3 O26 2.367332 1_555
O0 Sb10 1.964963 1_554
O0 Sb0 2.031937 1_555
O1 Sb1 1.956193 1_555
O1 Sb0 2.027198 1_565
O2 Sb1 1.969104 1_555
O2 Sb2 1.972687 1_555
O3 Sb2 1.959359 1_655
O3 Sb1 2.004828 1_555
O4 Sb2 1.955310 1_555
O4 Sb0 2.003851 1_555
O5 Sb3 1.990636 1_545
O5 Sb0 2.006884 1_655
O6 Sb0 2.094949 1_565
O6 Sb1 2.113808 1_455
O6 Sb2 2.180561 1_555
O7 Sb0 1.990636 1_565
O7 Sb3 2.006884 1_555
O8 Sb4 2.022161 1_555
O8 Sb2 2.080698 1_555
O8 Sb1 2.259215 1_555
O9 Sb4 1.955310 1_555
O9 Sb3 2.003851 1_555
O10 Sb2 2.022161 1_555
O10 Sb4 2.080698 1_455
O10 Sb5 2.259215 1_555
O11 Sb3 2.094949 1_545
O11 Sb5 2.113808 1_555
O11 Sb4 2.180561 1_555
O12 Sb5 1.956193 1_555
O12 Sb3 2.027198 1_445
O13 Sb6 1.964963 1_555
O13 Sb3 2.031937 1_555
O14 Sb4 1.959359 1_555
O14 Sb5 2.004828 1_555
O15 Sb6 1.969104 1_455
O15 Sb7 1.972687 1_555
O16 Sb5 1.969104 1_655
O16 Sb4 1.972687 1_555
O17 Sb7 1.959359 1_555
O17 Sb6 2.004828 1_555
O18 Sb5 1.964963 1_555
O18 Sb8 2.031937 1_555
O19 Sb6 1.956193 1_555
O19 Sb8 2.027198 1_665
O20 Sb8 2.094949 1_565
O20 Sb6 2.113808 1_555
O20 Sb7 2.180561 1_555
O21 Sb9 2.022161 1_555
O21 Sb7 2.080698 1_655
O21 Sb6 2.259215 1_555
O22 Sb7 1.955310 1_555
O22 Sb8 2.003851 1_555
O23 Sb7 2.022161 1_555
O23 Sb9 2.080698 1_555
O23 Sb10 2.259215 1_555
O24 Sb11 1.990636 1_545
O24 Sb8 2.006884 1_555
O25 Sb11 2.094949 1_545
O25 Sb10 2.113808 1_655
O25 Sb9 2.180561 1_555
O26 Sb8 1.990636 1_565
O26 Sb11 2.006884 1_455
O27 Sb9 1.955310 1_555
O27 Sb11 2.003851 1_555
O28 Sb9 1.959359 1_455
O28 Sb10 2.004828 1_555
O29 Sb10 1.969104 1_555
O29 Sb9 1.972687 1_555
O30 Sb10 1.956193 1_555
O30 Sb11 2.027198 1_545
O31 Sb1 1.964963 1_556
O31 Sb11 2.031937 1_555
