# generated using pymatgen
data_Li6FeNiP2(CO7)2
_symmetry_space_group_name_H-M   'P 1'
_cell_length_a   8.47122537
_cell_length_b   4.97631756
_cell_length_c   6.49548910
_cell_angle_alpha   89.98738507
_cell_angle_beta   90.00788344
_cell_angle_gamma   84.40896536
_symmetry_Int_Tables_number   1
_chemical_formula_structural   Li6FeNiP2(CO7)2
_chemical_formula_sum   'Li6 Fe1 Ni1 P2 C2 O14'
_cell_volume   272.51797096
_cell_formula_units_Z   1
loop_
 _symmetry_equiv_pos_site_id
 _symmetry_equiv_pos_as_xyz
  1  'x, y, z'
loop_
 _atom_site_type_symbol
 _atom_site_label
 _atom_site_symmetry_multiplicity
 _atom_site_fract_x
 _atom_site_fract_y
 _atom_site_fract_z
 _atom_site_occupancy
  Li  Li0  1  0.10434300  0.78409100  0.24996900  1
  Li  Li1  1  0.27257800  0.26167300  0.01674300  1
  Li  Li2  1  0.27264700  0.26161300  0.48314700  1
  Li  Li3  1  0.72571100  0.73995600  0.51928800  1
  Li  Li4  1  0.72573100  0.73954100  0.98083200  1
  Li  Li5  1  0.89460300  0.21287300  0.74999100  1
  Fe  Fe0  1  0.66335100  0.21610700  0.24998600  1
  Ni  Ni0  1  0.33281500  0.79268500  0.75004700  1
  P  P0  1  0.41062900  0.72678300  0.25004000  1
  P  P1  1  0.58583600  0.27118000  0.75001900  1
  C  C0  1  0.04224700  0.68786000  0.74996700  1
  C  C1  1  0.96336600  0.31282500  0.24995200  1
  O  O0  1  0.07255300  0.93813300  0.74994300  1
  O  O1  1  0.10717700  0.38081800  0.24995500  1
  O  O2  1  0.16370900  0.50396100  0.75003200  1
  O  O3  1  0.30800700  0.83425300  0.06292000  1
  O  O4  1  0.30802300  0.83424700  0.43707800  1
  O  O5  1  0.42074800  0.16503700  0.74996900  1
  O  O6  1  0.42833400  0.41111800  0.25012700  1
  O  O7  1  0.56255000  0.58729400  0.75008600  1
  O  O8  1  0.57819600  0.82430700  0.25006400  1
  O  O9  1  0.69118300  0.16597600  0.93497900  1
  O  O10  1  0.69117300  0.16625700  0.56504700  1
  O  O11  1  0.84320600  0.49939700  0.24981600  1
  O  O12  1  0.89834900  0.61873300  0.74993200  1
  O  O13  1  0.93293200  0.06328400  0.25007100  1
loop_
_geom_bond_atom_site_label_1
_geom_bond_atom_site_label_2
_geom_bond_distance
_geom_bond_site_symmetry_2
Li0 O13 1.909367 1_465
Li0 O1 2.004618 1_555
Li0 O3 2.144630 1_555
Li0 O4 2.144749 1_555
Li1 O1 2.109160 1_555
Li1 O3 2.139949 1_545
Li1 O5 2.166282 1_554
Li1 O6 2.187060 1_555
Li1 O2 2.255552 1_554
Li2 O1 2.109039 1_555
Li2 O4 2.139711 1_545
Li2 O5 2.165711 1_555
Li2 O6 2.185194 1_555
Li2 O2 2.257379 1_555
Li3 O10 2.133936 1_565
Li3 O12 2.138741 1_555
Li3 O8 2.166274 1_555
Li3 O7 2.222532 1_555
Li3 O11 2.292746 1_555
Li4 O9 2.134537 1_565
Li4 O12 2.139819 1_555
Li4 O8 2.167122 1_556
Li4 O7 2.221554 1_555
Li4 O11 2.288659 1_556
Li5 O0 1.933920 1_645
Li5 O12 2.023026 1_555
Li5 O10 2.131702 1_555
Li5 O9 2.132266 1_555
Fe0 O9 2.072039 1_554
Fe0 O10 2.072052 1_555
Fe0 O6 2.128120 1_555
Fe0 O8 2.143791 1_545
Fe0 O11 2.174218 1_555
Fe0 O13 2.335625 1_555
Ni0 O3 2.051555 1_556
Ni0 O4 2.052010 1_555
Ni0 O5 2.063303 1_565
Ni0 O7 2.108205 1_555
Ni0 O2 2.125455 1_555
Ni0 O0 2.252511 1_555
C0 O0 1.295889 1_555
C0 O12 1.298455 1_455
C0 O2 1.308703 1_555
C1 O13 1.292635 1_555
C1 O1 1.295743 1_655
C1 O11 1.309190 1_555
O3 P0 1.558163 1_555
O4 P0 1.558038 1_555
O5 P1 1.542313 1_555
O6 P0 1.563379 1_555
O7 P1 1.566218 1_555
O8 P0 1.544259 1_555
O9 P1 1.556361 1_555
O10 P1 1.556351 1_555
