# generated using pymatgen
data_Li2VO2F
_symmetry_space_group_name_H-M   'P 1'
_cell_length_a   13.14855669
_cell_length_b   13.14855669
_cell_length_c   7.36353257
_cell_angle_alpha   89.82557003
_cell_angle_beta   89.82557003
_cell_angle_gamma   13.11664290
_symmetry_Int_Tables_number   1
_chemical_formula_structural   Li2VO2F
_chemical_formula_sum   'Li10 V5 O10 F5'
_cell_volume   288.89519166
_cell_formula_units_Z   5
loop_
 _symmetry_equiv_pos_site_id
 _symmetry_equiv_pos_as_xyz
  1  'x, y, z'
loop_
 _atom_site_type_symbol
 _atom_site_label
 _atom_site_symmetry_multiplicity
 _atom_site_fract_x
 _atom_site_fract_y
 _atom_site_fract_z
 _atom_site_occupancy
  Li  Li0  1  0.47277600  0.47277600  0.14106300  1
  Li  Li1  1  0.07278500  0.07278500  0.13592300  1
  Li  Li2  1  0.25893800  0.25893800  0.15998300  1
  Li  Li3  1  0.32396100  0.32396100  0.84796300  1
  Li  Li4  1  0.12398800  0.12398800  0.86812500  1
  Li  Li5  1  0.65683300  0.65683300  0.14329000  1
  Li  Li6  1  0.85901000  0.85901000  0.15247500  1
  Li  Li7  1  0.92851500  0.92851500  0.84615000  1
  Li  Li8  1  0.53935300  0.53935300  0.85547700  1
  Li  Li9  1  0.72345900  0.72345900  0.84095100  1
  V  V0  1  0.99745900  0.99745900  0.50741500  1
  V  V1  1  0.19608100  0.19608100  0.49789000  1
  V  V2  1  0.39079200  0.39079200  0.51805300  1
  V  V3  1  0.59720000  0.59720000  0.49775300  1
  V  V4  1  0.79405700  0.79405700  0.50106100  1
  O  O0  1  0.45808900  0.45808900  0.63878800  1
  O  O1  1  0.26329800  0.26329800  0.65315900  1
  O  O2  1  0.06212300  0.06212300  0.64789500  1
  O  O3  1  0.12975900  0.12975900  0.35168500  1
  O  O4  1  0.33084200  0.33084200  0.35043800  1
  O  O5  1  0.66425800  0.66425800  0.64340800  1
  O  O6  1  0.86085400  0.86085400  0.66002300  1
  O  O7  1  0.73141400  0.73141400  0.34566200  1
  O  O8  1  0.52583500  0.52583500  0.35405500  1
  O  O9  1  0.59656100  0.59656100  0.00150600  1
  F  F0  1  0.99052300  0.99052300  0.99256400  1
  F  F1  1  0.20016600  0.20016600  0.99878700  1
  F  F2  1  0.39449900  0.39449900  0.00453700  1
  F  F3  1  0.92604000  0.92604000  0.34104400  1
  F  F4  1  0.79657000  0.79657000  0.00287300  1
loop_
_geom_bond_atom_site_label_1
_geom_bond_atom_site_label_2
_geom_bond_distance
_geom_bond_site_symmetry_2
Li0 O8 2.096326 1_555
Li1 O9 1.901841 1_455
Li1 O9 1.901841 1_545
Li1 O3 2.180404 1_555
Li1 O8 2.515476 1_455
Li1 O8 2.515476 1_545
Li2 O7 2.153063 1_545
Li2 O7 2.153063 1_455
Li2 O4 2.347695 1_555
Li3 O1 2.140848 1_555
Li3 O6 2.256380 1_545
Li3 O6 2.256380 1_455
Li4 O9 1.931063 1_546
Li4 O9 1.931063 1_456
Li4 O2 2.293047 1_555
Li4 O5 2.467689 1_455
Li4 O5 2.467689 1_545
Li5 O9 1.891948 1_555
Li5 O3 2.259130 1_565
Li5 O3 2.259130 1_655
Li5 O7 2.456581 1_555
Li6 O4 2.217012 1_655
Li6 O4 2.217012 1_565
Li7 O6 2.240052 1_555
Li7 O0 2.275183 1_655
Li7 O0 2.275183 1_565
Li8 O9 1.843857 1_556
Li8 O2 2.222609 1_565
Li8 O2 2.222609 1_655
Li9 O5 2.126440 1_555
Li9 O1 2.289514 1_655
Li9 O1 2.289514 1_565
O0 V2 1.972564 1_555
O0 V0 2.059824 1_455
O0 V0 2.059824 1_545
O1 V4 2.037117 1_455
O1 V4 2.037117 1_545
O1 V1 2.098381 1_555
O2 V0 1.983596 1_445
O2 V3 2.076325 1_455
O2 V3 2.076325 1_545
O3 V3 2.032254 1_455
O3 V3 2.032254 1_545
O3 V1 2.042693 1_555
O4 V2 1.997038 1_555
O4 V4 2.098194 1_455
O4 V4 2.098194 1_545
O5 V1 2.022169 1_655
O5 V1 2.022169 1_565
O5 V3 2.056933 1_555
O6 V2 1.988681 1_565
O6 V2 1.988681 1_655
O6 V4 2.104263 1_555
O7 V4 1.999791 1_555
O7 V1 2.087461 1_655
O7 V1 2.087461 1_565
O8 V0 2.018652 1_455
O8 V0 2.018652 1_545
O8 V3 2.146568 1_555
F0 Li0 1.913849 1_566
F0 Li0 1.913849 1_656
F0 Li7 1.948674 1_555
F0 Li8 2.212178 1_565
F0 Li8 2.212178 1_655
F0 Li1 2.397264 1_666
F1 Li2 1.943602 1_556
F1 Li9 1.992994 1_455
F1 Li9 1.992994 1_545
F1 Li5 2.159095 1_546
F1 Li5 2.159095 1_456
F1 Li4 2.213175 1_555
F2 Li6 2.072526 1_455
F2 Li6 2.072526 1_545
F2 Li7 2.097350 1_544
F2 Li7 2.097350 1_454
F2 Li3 2.176747 1_554
F2 Li0 2.281498 1_555
F3 V2 2.189696 1_565
F3 V2 2.189696 1_655
F3 V0 2.235201 1_555
F3 Li6 2.238190 1_555
F3 Li0 2.429711 1_565
F3 Li0 2.429711 1_655
F4 Li6 1.971167 1_555
F4 Li3 2.015813 1_654
F4 Li3 2.015813 1_564
F4 Li2 2.133832 1_655
F4 Li2 2.133832 1_565
F4 Li9 2.254724 1_554
