# generated using pymatgen
data_MoSO6
_symmetry_space_group_name_H-M   'P 1'
_cell_length_a   8.79989900
_cell_length_b   12.37557700
_cell_length_c   25.44496500
_cell_angle_alpha   90.00000000
_cell_angle_beta   90.00000000
_cell_angle_gamma   90.00000000
_symmetry_Int_Tables_number   1
_chemical_formula_structural   MoSO6
_chemical_formula_sum   'Mo24 S24 O144'
_cell_volume   2771.05408335
_cell_formula_units_Z   24
loop_
 _symmetry_equiv_pos_site_id
 _symmetry_equiv_pos_as_xyz
  1  'x, y, z'
loop_
 _atom_site_type_symbol
 _atom_site_label
 _atom_site_symmetry_multiplicity
 _atom_site_fract_x
 _atom_site_fract_y
 _atom_site_fract_z
 _atom_site_occupancy
  Mo  Mo0  1  0.49952300  0.74533000  0.33838400  1
  Mo  Mo1  1  0.01592700  0.23864700  0.49173200  1
  Mo  Mo2  1  0.47983900  0.49030500  0.17153700  1
  Mo  Mo3  1  0.00127700  0.48983300  0.32119600  1
  Mo  Mo4  1  0.00961600  0.47883800  0.00486600  1
  Mo  Mo5  1  0.00047700  0.74533000  0.83838400  1
  Mo  Mo6  1  0.02335700  0.24895300  0.84562800  1
  Mo  Mo7  1  0.97664300  0.74895300  0.15437200  1
  Mo  Mo8  1  0.98407300  0.73864700  0.50826800  1
  Mo  Mo9  1  0.49872300  0.48983300  0.82119600  1
  Mo  Mo10  1  0.49038400  0.47883800  0.50486600  1
  Mo  Mo11  1  0.97983900  0.99030500  0.32846300  1
  Mo  Mo12  1  0.50961600  0.97883800  0.49513400  1
  Mo  Mo13  1  0.99038400  0.97883800  0.99513400  1
  Mo  Mo14  1  0.51592700  0.73864700  0.00826800  1
  Mo  Mo15  1  0.99872300  0.98983300  0.67880400  1
  Mo  Mo16  1  0.50127700  0.98983300  0.17880400  1
  Mo  Mo17  1  0.52335700  0.74895300  0.65437200  1
  Mo  Mo18  1  0.50047700  0.24533000  0.66161600  1
  Mo  Mo19  1  0.99952300  0.24533000  0.16161600  1
  Mo  Mo20  1  0.52016100  0.99030500  0.82846300  1
  Mo  Mo21  1  0.47664300  0.24895300  0.34562800  1
  Mo  Mo22  1  0.02016100  0.49030500  0.67153700  1
  Mo  Mo23  1  0.48407300  0.23864700  0.99173200  1
  S  S0  1  0.87951400  0.22680800  0.97679800  1
  S  S1  1  0.09300700  0.73840200  0.36698800  1
  S  S2  1  0.13833000  0.73661900  0.70604500  1
  S  S3  1  0.88388000  0.48881600  0.46333800  1
  S  S4  1  0.61612000  0.48881600  0.96333800  1
  S  S5  1  0.40343400  0.99661400  0.69053400  1
  S  S6  1  0.63833000  0.23661900  0.79395500  1
  S  S7  1  0.86167000  0.23661900  0.29395500  1
  S  S8  1  0.86569100  0.50303900  0.13181300  1
  S  S9  1  0.90343400  0.49661400  0.80946600  1
  S  S10  1  0.12048600  0.72680800  0.02320200  1
  S  S11  1  0.38388000  0.98881600  0.03666200  1
  S  S12  1  0.59300700  0.23840200  0.13301200  1
  S  S13  1  0.36167000  0.73661900  0.20604500  1
  S  S14  1  0.36569100  0.00303900  0.36818700  1
  S  S15  1  0.37951400  0.72680800  0.52320200  1
  S  S16  1  0.62048600  0.22680800  0.47679800  1
  S  S17  1  0.90699300  0.23840200  0.63301200  1
  S  S18  1  0.11612000  0.98881600  0.53666200  1
  S  S19  1  0.09656600  0.99661400  0.19053400  1
  S  S20  1  0.40699300  0.73840200  0.86698800  1
  S  S21  1  0.59656600  0.49661400  0.30946600  1
  S  S22  1  0.13430900  0.00303900  0.86818700  1
  S  S23  1  0.63430900  0.50303900  0.63181300  1
  O  O0  1  0.79887300  0.77305000  0.49839000  1
  O  O1  1  0.64849200  0.25653700  0.73737100  1
  O  O2  1  0.42930700  0.82490800  0.49268500  1
  O  O3  1  0.49493200  0.22793700  0.92515600  1
  O  O4  1  0.59332700  0.74524500  0.71676800  1
  O  O5  1  0.03250900  0.07777800  0.50846700  1
  O  O6  1  0.85150800  0.25653700  0.23737100  1
  O  O7  1  0.49784000  0.50444800  0.75470200  1
  O  O8  1  0.08328200  0.88959500  0.50405900  1
  O  O9  1  0.58187700  0.33555700  0.82244900  1
  O  O10  1  0.69652500  0.96279500  0.80439600  1
  O  O11  1  0.86692300  0.25171400  0.92074600  1
  O  O12  1  0.00506800  0.22793700  0.42515600  1
  O  O13  1  0.78006700  0.51006300  0.96378000  1
  O  O14  1  0.47958800  0.65047000  0.19505000  1
  O  O15  1  0.14849200  0.75653700  0.76262900  1
  O  O16  1  0.49671800  0.14432300  0.48632600  1
  O  O17  1  0.66536600  0.48990100  0.57552300  1
  O  O18  1  0.63307700  0.25171400  0.42074600  1
  O  O19  1  0.10413400  0.47687500  0.94639300  1
  O  O20  1  0.35150800  0.75653700  0.26262900  1
  O  O21  1  0.91812300  0.33555700  0.32244900  1
  O  O22  1  0.39586600  0.47687500  0.44639300  1
  O  O23  1  0.07100400  0.90076800  0.84545900  1
  O  O24  1  0.90667300  0.74524500  0.21676800  1
  O  O25  1  0.26293900  0.68802300  0.00024000  1
  O  O26  1  0.73706100  0.18802300  0.99976000  1
  O  O27  1  0.05340500  0.50488400  0.60604200  1
  O  O28  1  0.34516500  0.26689100  0.70011000  1
  O  O29  1  0.41812300  0.83555700  0.17755100  1
  O  O30  1  0.00328200  0.14432300  0.98632600  1
  O  O31  1  0.76293900  0.18802300  0.49976000  1
  O  O32  1  0.91671800  0.38959500  0.49594100  1
  O  O33  1  0.94335700  0.40347100  0.84526300  1
  O  O34  1  0.18110000  0.26845500  0.88329100  1
  O  O35  1  0.44335700  0.90347100  0.65473700  1
  O  O36  1  0.81890000  0.76845500  0.11670900  1
  O  O37  1  0.02457400  0.75352700  0.41861500  1
  O  O38  1  0.84516500  0.76689100  0.79989000  1
  O  O39  1  0.21993300  0.01006300  0.03622000  1
  O  O40  1  0.16536600  0.98990100  0.92447700  1
  O  O41  1  0.34946900  0.46072300  0.54998600  1
  O  O42  1  0.60413400  0.97687500  0.55360700  1
  O  O43  1  0.23706100  0.68802300  0.50024000  1
  O  O44  1  0.94659500  0.00488400  0.39395800  1
  O  O45  1  0.89586600  0.97687500  0.05360700  1
  O  O46  1  0.25332100  0.03609400  0.67508600  1
  O  O47  1  0.19652500  0.46279500  0.69560400  1
  O  O48  1  0.83463400  0.48990100  0.07552300  1
  O  O49  1  0.74439500  0.21367000  0.63061000  1
  O  O50  1  0.15053100  0.46072300  0.04998600  1
  O  O51  1  0.02073500  0.58292100  0.82052900  1
  O  O52  1  0.78416100  0.20507000  0.81636200  1
  O  O53  1  0.73111700  0.53549600  0.16167200  1
  O  O54  1  0.70112700  0.77305000  0.99839000  1
  O  O55  1  0.96749100  0.57777800  0.49153300  1
  O  O56  1  0.93134500  0.33711300  0.66656800  1
  O  O57  1  0.08699800  0.96240500  0.24533000  1
  O  O58  1  0.18632700  0.46165900  0.33530400  1
  O  O59  1  0.28416100  0.70507000  0.68363800  1
  O  O60  1  0.24667900  0.03609400  0.17508600  1
  O  O61  1  0.49011800  0.08533900  0.35981000  1
  O  O62  1  0.25560500  0.71367000  0.36939000  1
  O  O63  1  0.57680600  0.72739200  0.39919100  1
  O  O64  1  0.57100400  0.40076800  0.65454100  1
  O  O65  1  0.55664300  0.40347100  0.34526300  1
  O  O66  1  0.58699800  0.46240500  0.25467000  1
  O  O67  1  0.94533100  0.47605100  0.41059400  1
  O  O68  1  0.08187700  0.83555700  0.67755100  1
  O  O69  1  0.97958800  0.15047000  0.30495000  1
  O  O70  1  0.84946900  0.96072300  0.95001400  1
  O  O71  1  0.24439500  0.71367000  0.86939000  1
  O  O72  1  0.55340500  0.00488400  0.89395800  1
  O  O73  1  0.56865500  0.33711300  0.16656800  1
  O  O74  1  0.40667300  0.24524500  0.28323200  1
  O  O75  1  0.99784000  0.00444800  0.74529800  1
  O  O76  1  0.68110000  0.76845500  0.61670900  1
  O  O77  1  0.43134500  0.83711300  0.83343200  1
  O  O78  1  0.21583900  0.70507000  0.18363800  1
  O  O79  1  0.42319400  0.22739200  0.60080900  1
  O  O80  1  0.50809800  0.15111500  0.16199100  1
  O  O81  1  0.99190200  0.15111500  0.66199100  1
  O  O82  1  0.99671800  0.64432300  0.01367400  1
  O  O83  1  0.92899600  0.40076800  0.15454100  1
  O  O84  1  0.50506800  0.72793700  0.07484400  1
  O  O85  1  0.80347500  0.96279500  0.30439600  1
  O  O86  1  0.92930700  0.32490800  0.00731500  1
  O  O87  1  0.00216000  0.50444800  0.25470200  1
  O  O88  1  0.97926500  0.08292100  0.17947100  1
  O  O89  1  0.05466900  0.97605100  0.58940600  1
  O  O90  1  0.74667900  0.53609400  0.32491400  1
  O  O91  1  0.36692300  0.75171400  0.57925400  1
  O  O92  1  0.50988200  0.58533900  0.64019000  1
  O  O93  1  0.46749100  0.07777800  0.00846700  1
  O  O94  1  0.31890000  0.26845500  0.38329100  1
  O  O95  1  0.09332700  0.24524500  0.78323200  1
  O  O96  1  0.07069300  0.82490800  0.99268500  1
  O  O97  1  0.75332100  0.53609400  0.82491400  1
  O  O98  1  0.65483500  0.76689100  0.29989000  1
  O  O99  1  0.20112700  0.27305000  0.50161000  1
  O  O100  1  0.13307700  0.75171400  0.07925400  1
  O  O101  1  0.71583900  0.20507000  0.31636200  1
  O  O102  1  0.15483500  0.26689100  0.20011000  1
  O  O103  1  0.99011800  0.58533900  0.14019000  1
  O  O104  1  0.52073500  0.08292100  0.67947100  1
  O  O105  1  0.65053100  0.96072300  0.45001400  1
  O  O106  1  0.28006700  0.01006300  0.53622000  1
  O  O107  1  0.76888300  0.53549600  0.66167200  1
  O  O108  1  0.99493200  0.72793700  0.57484400  1
  O  O109  1  0.41671800  0.88959500  0.00405900  1
  O  O110  1  0.49190200  0.65111500  0.83800900  1
  O  O111  1  0.68632700  0.96165900  0.16469600  1
  O  O112  1  0.50216000  0.00444800  0.24529800  1
  O  O113  1  0.71993300  0.51006300  0.46378000  1
  O  O114  1  0.02041200  0.65047000  0.69505000  1
  O  O115  1  0.75560500  0.21367000  0.13061000  1
  O  O116  1  0.97542600  0.25352700  0.58138500  1
  O  O117  1  0.55466900  0.47605100  0.91059400  1
  O  O118  1  0.47542600  0.75352700  0.91861500  1
  O  O119  1  0.30347500  0.46279500  0.19560400  1
  O  O120  1  0.57069300  0.32490800  0.50731500  1
  O  O121  1  0.81367300  0.96165900  0.66469600  1
  O  O122  1  0.00809800  0.65111500  0.33800900  1
  O  O123  1  0.41300200  0.96240500  0.74533000  1
  O  O124  1  0.47926500  0.58292100  0.32052900  1
  O  O125  1  0.44533100  0.97605100  0.08940600  1
  O  O126  1  0.52041200  0.15047000  0.80495000  1
  O  O127  1  0.91300200  0.46240500  0.75467000  1
  O  O128  1  0.07680600  0.22739200  0.10080900  1
  O  O129  1  0.33463400  0.98990100  0.42447700  1
  O  O130  1  0.52457400  0.25352700  0.08138500  1
  O  O131  1  0.23111700  0.03549600  0.33832800  1
  O  O132  1  0.31367300  0.46165900  0.83530400  1
  O  O133  1  0.05664300  0.90347100  0.15473700  1
  O  O134  1  0.53250900  0.57777800  0.99153300  1
  O  O135  1  0.92319400  0.72739200  0.89919100  1
  O  O136  1  0.26888300  0.03549600  0.83832800  1
  O  O137  1  0.42899600  0.90076800  0.34545900  1
  O  O138  1  0.29887300  0.27305000  0.00161000  1
  O  O139  1  0.06865500  0.83711300  0.33343200  1
  O  O140  1  0.50328200  0.64432300  0.51367400  1
  O  O141  1  0.00988200  0.08533900  0.85981000  1
  O  O142  1  0.44659500  0.50488400  0.10604200  1
  O  O143  1  0.58328200  0.38959500  0.99594100  1
loop_
_geom_bond_atom_site_label_1
_geom_bond_atom_site_label_2
_geom_bond_distance
_geom_bond_site_symmetry_2
Mo0 O98 1.702506 1_555
Mo0 O63 1.704617 1_555
Mo0 O137 2.029276 1_555
Mo0 O124 2.068310 1_555
Mo0 O62 2.320176 1_555
Mo0 O20 2.330529 1_555
Mo1 O12 1.701886 1_555
Mo1 O99 1.703085 1_555
Mo1 O5 2.041099 1_555
Mo1 O32 2.064783 1_455
Mo1 O116 2.316223 1_455
Mo1 O31 2.321746 1_455
Mo2 O142 1.701592 1_555
Mo2 O119 1.702815 1_555
Mo2 O73 2.054519 1_555
Mo2 O14 2.070461 1_555
Mo2 O53 2.294621 1_555
Mo2 O66 2.341582 1_555
Mo3 O87 1.701595 1_555
Mo3 O58 1.703582 1_555
Mo3 O122 2.042173 1_555
Mo3 O21 2.044926 1_455
Mo3 O90 2.314362 1_455
Mo3 O67 2.333637 1_455
Mo4 O50 1.704709 1_555
Mo4 O19 1.704721 1_554
Mo4 O86 2.032792 1_455
Mo4 O82 2.063323 1_455
Mo4 O13 2.307095 1_454
Mo4 O48 2.371101 1_455
Mo5 O38 1.702506 1_455
Mo5 O135 1.704617 1_455
Mo5 O23 2.029276 1_555
Mo5 O51 2.068310 1_555
Mo5 O71 2.320176 1_555
Mo5 O15 2.330529 1_555
Mo6 O95 1.703498 1_555
Mo6 O34 1.703977 1_555
Mo6 O33 2.037741 1_455
Mo6 O141 2.060138 1_555
Mo6 O52 2.297842 1_455
Mo6 O11 2.355750 1_455
Mo7 O24 1.703498 1_555
Mo7 O36 1.703977 1_555
Mo7 O133 2.037741 1_655
Mo7 O103 2.060138 1_555
Mo7 O78 2.297842 1_655
Mo7 O100 2.355750 1_655
Mo8 O108 1.701886 1_555
Mo8 O0 1.703085 1_555
Mo8 O55 2.041099 1_555
Mo8 O8 2.064783 1_655
Mo8 O37 2.316223 1_655
Mo8 O43 2.321746 1_655
Mo9 O7 1.701595 1_555
Mo9 O132 1.703582 1_555
Mo9 O110 2.042173 1_555
Mo9 O9 2.044926 1_555
Mo9 O97 2.314362 1_555
Mo9 O117 2.333637 1_555
Mo10 O41 1.704709 1_555
Mo10 O22 1.704721 1_555
Mo10 O120 2.032792 1_555
Mo10 O140 2.063323 1_555
Mo10 O113 2.307095 1_555
Mo10 O17 2.371101 1_555
Mo11 O44 1.701592 1_565
Mo11 O85 1.702815 1_555
Mo11 O139 2.054519 1_655
Mo11 O69 2.070461 1_565
Mo11 O131 2.294621 1_665
Mo11 O57 2.341582 1_655
Mo12 O105 1.704709 1_555
Mo12 O42 1.704721 1_555
Mo12 O2 2.032792 1_555
Mo12 O16 2.063323 1_565
Mo12 O106 2.307095 1_565
Mo12 O129 2.371101 1_555
Mo13 O70 1.704709 1_555
Mo13 O45 1.704721 1_556
Mo13 O96 2.032792 1_655
Mo13 O30 2.063323 1_665
Mo13 O39 2.307095 1_666
Mo13 O40 2.371101 1_655
Mo14 O84 1.701886 1_555
Mo14 O54 1.703085 1_554
Mo14 O134 2.041099 1_554
Mo14 O109 2.064783 1_555
Mo14 O118 2.316223 1_554
Mo14 O25 2.321746 1_555
Mo15 O75 1.701595 1_565
Mo15 O121 1.703582 1_555
Mo15 O81 2.042173 1_565
Mo15 O68 2.044926 1_655
Mo15 O46 2.314362 1_665
Mo15 O89 2.333637 1_655
Mo16 O112 1.701595 1_565
Mo16 O111 1.703582 1_555
Mo16 O80 2.042173 1_565
Mo16 O29 2.044926 1_555
Mo16 O60 2.314362 1_565
Mo16 O125 2.333637 1_555
Mo17 O4 1.703498 1_555
Mo17 O76 1.703977 1_555
Mo17 O35 2.037741 1_555
Mo17 O92 2.060138 1_555
Mo17 O59 2.297842 1_555
Mo17 O91 2.355750 1_555
Mo18 O28 1.702506 1_555
Mo18 O79 1.704617 1_555
Mo18 O64 2.029276 1_555
Mo18 O104 2.068310 1_555
Mo18 O49 2.320176 1_555
Mo18 O1 2.330529 1_555
Mo19 O102 1.702506 1_655
Mo19 O128 1.704617 1_655
Mo19 O83 2.029276 1_555
Mo19 O88 2.068310 1_555
Mo19 O115 2.320176 1_555
Mo19 O6 2.330529 1_555
Mo20 O72 1.701592 1_565
Mo20 O10 1.702815 1_555
Mo20 O77 2.054519 1_555
Mo20 O126 2.070461 1_565
Mo20 O136 2.294621 1_565
Mo20 O123 2.341582 1_555
Mo21 O74 1.703498 1_555
Mo21 O94 1.703977 1_555
Mo21 O65 2.037741 1_555
Mo21 O61 2.060138 1_555
Mo21 O101 2.297842 1_555
Mo21 O18 2.355750 1_555
Mo22 O27 1.701592 1_555
Mo22 O47 1.702815 1_555
Mo22 O56 2.054519 1_455
Mo22 O114 2.070461 1_555
Mo22 O107 2.294621 1_455
Mo22 O127 2.341582 1_455
Mo23 O3 1.701886 1_555
Mo23 O138 1.703085 1_556
Mo23 O93 2.041099 1_556
Mo23 O143 2.064783 1_555
Mo23 O130 2.316223 1_556
Mo23 O26 2.321746 1_555
O1 S6 1.463461 1_555
O2 S15 1.506273 1_555
O5 S18 1.506038 1_545
O6 S7 1.463461 1_555
O8 S18 1.509798 1_555
O9 S6 1.507199 1_555
O11 S0 1.463367 1_555
O13 S4 1.466526 1_555
O14 S13 1.513831 1_555
O15 S2 1.463461 1_555
O16 S16 1.512299 1_555
O17 S23 1.467175 1_555
O18 S16 1.463367 1_555
O20 S13 1.463461 1_555
O21 S7 1.507199 1_555
O23 S22 1.498894 1_565
O25 S10 1.463967 1_555
O26 S0 1.463967 1_555
O29 S13 1.507199 1_555
O30 S0 1.512299 1_455
O31 S16 1.463967 1_555
O32 S3 1.509798 1_555
O33 S9 1.510560 1_555
O35 S5 1.510560 1_555
O37 S1 1.457173 1_555
O39 S11 1.466526 1_545
O40 S22 1.467175 1_565
O43 S15 1.463967 1_555
O46 S5 1.462262 1_545
O48 S8 1.467175 1_555
O49 S17 1.464492 1_555
O51 S9 1.511817 1_455
O52 S6 1.457519 1_555
O53 S8 1.463215 1_555
O55 S3 1.506038 1_555
O56 S17 1.505746 1_555
O57 S19 1.459569 1_555
O59 S2 1.457519 1_555
O60 S19 1.462262 1_545
O61 S14 1.510530 1_555
O62 S1 1.464492 1_555
O64 S23 1.498894 1_555
O65 S21 1.510560 1_555
O66 S21 1.459569 1_555
O67 S3 1.455517 1_555
O68 S2 1.507199 1_555
O69 S7 1.513831 1_555
O71 S20 1.464492 1_555
O73 S12 1.505746 1_555
O77 S20 1.505746 1_555
O78 S13 1.457519 1_555
O80 S12 1.506286 1_555
O81 S17 1.506286 1_555
O82 S10 1.512299 1_655
O83 S8 1.498894 1_555
O86 S0 1.506273 1_554
O88 S19 1.511817 1_645
O89 S18 1.455517 1_555
O90 S21 1.462262 1_555
O91 S15 1.463367 1_555
O92 S23 1.510530 1_555
O93 S11 1.506038 1_545
O96 S10 1.506273 1_556
O97 S9 1.462262 1_555
O100 S10 1.463367 1_555
O101 S7 1.457519 1_555
O103 S8 1.510530 1_555
O104 S5 1.511817 1_545
O106 S18 1.466526 1_545
O107 S23 1.463215 1_555
O109 S11 1.509798 1_555
O110 S20 1.506286 1_555
O113 S3 1.466526 1_555
O114 S2 1.513831 1_555
O115 S12 1.464492 1_555
O116 S17 1.457173 1_555
O117 S4 1.455517 1_555
O118 S20 1.457173 1_555
O120 S16 1.506273 1_555
O122 S1 1.506286 1_555
O123 S5 1.459569 1_555
O124 S21 1.511817 1_555
O125 S11 1.455517 1_555
O126 S6 1.513831 1_555
O127 S9 1.459569 1_555
O129 S14 1.467175 1_565
O130 S12 1.457173 1_555
O131 S14 1.463215 1_555
O133 S19 1.510560 1_555
O134 S4 1.506038 1_555
O136 S22 1.463215 1_555
O137 S14 1.498894 1_565
O139 S1 1.505746 1_555
O140 S15 1.512299 1_555
O141 S22 1.510530 1_555
O143 S4 1.509798 1_555
