# generated using pymatgen
data_Li4Cr2(PO4)3
_symmetry_space_group_name_H-M   'P 1'
_cell_length_a   8.83259100
_cell_length_b   9.03827000
_cell_length_c   15.04898276
_cell_angle_alpha   53.85708426
_cell_angle_beta   90.00000000
_cell_angle_gamma   90.00000000
_symmetry_Int_Tables_number   1
_chemical_formula_structural   Li4Cr2(PO4)3
_chemical_formula_sum   'Li16 Cr8 P12 O48'
_cell_volume   970.17281939
_cell_formula_units_Z   4
loop_
 _symmetry_equiv_pos_site_id
 _symmetry_equiv_pos_as_xyz
  1  'x, y, z'
loop_
 _atom_site_type_symbol
 _atom_site_label
 _atom_site_symmetry_multiplicity
 _atom_site_fract_x
 _atom_site_fract_y
 _atom_site_fract_z
 _atom_site_occupancy
  Li  Li0  1  0.41404800  0.17725100  0.78398300  1
  Li  Li1  1  0.06520600  0.73636100  0.21203900  1
  Li  Li2  1  0.76306400  0.12293100  0.67829200  1
  Li  Li3  1  0.74159400  0.46088200  0.32409600  1
  Li  Li4  1  0.24159400  0.53911800  0.17590400  1
  Li  Li5  1  0.26306400  0.87706900  0.82170800  1
  Li  Li6  1  0.56520600  0.26363900  0.28796100  1
  Li  Li7  1  0.91404800  0.82274900  0.71601700  1
  Li  Li8  1  0.08595200  0.17725100  0.28398300  1
  Li  Li9  1  0.43479400  0.73636100  0.71203900  1
  Li  Li10  1  0.73693600  0.12293100  0.17829200  1
  Li  Li11  1  0.75840600  0.46088200  0.82409600  1
  Li  Li12  1  0.25840600  0.53911800  0.67590400  1
  Li  Li13  1  0.23693600  0.87706900  0.32170800  1
  Li  Li14  1  0.93479400  0.26363900  0.78796100  1
  Li  Li15  1  0.58595200  0.82274900  0.21601700  1
  Cr  Cr0  1  0.04955200  0.35877900  0.39034100  1
  Cr  Cr1  1  0.95396900  0.86107100  0.89147300  1
  Cr  Cr2  1  0.54955200  0.64122100  0.10965900  1
  Cr  Cr3  1  0.45396900  0.13892900  0.60852700  1
  Cr  Cr4  1  0.54603100  0.86107100  0.39147300  1
  Cr  Cr5  1  0.45044800  0.35877900  0.89034100  1
  Cr  Cr6  1  0.04603100  0.13892900  0.10852700  1
  Cr  Cr7  1  0.95044800  0.64122100  0.60965900  1
  P  P0  1  0.24395200  0.94825900  0.00060500  1
  P  P1  1  0.39759600  0.54615000  0.35188800  1
  P  P2  1  0.10962000  0.24010800  0.65366900  1
  P  P3  1  0.60962000  0.75989200  0.84633100  1
  P  P4  1  0.89759600  0.45385000  0.14811200  1
  P  P5  1  0.74395200  0.05174100  0.49939500  1
  P  P6  1  0.25604800  0.94825900  0.50060500  1
  P  P7  1  0.10240400  0.54615000  0.85188800  1
  P  P8  1  0.39038000  0.24010800  0.15366900  1
  P  P9  1  0.89038000  0.75989200  0.34633100  1
  P  P10  1  0.60240400  0.45385000  0.64811200  1
  P  P11  1  0.75604800  0.05174100  0.99939500  1
  O  O0  1  0.86404500  0.02914900  0.92603200  1
  O  O1  1  0.66706900  0.87924200  0.08258000  1
  O  O2  1  0.89114400  0.61354000  0.32409500  1
  O  O3  1  0.58031100  0.26316200  0.66766200  1
  O  O4  1  0.34250000  0.77909000  0.08081400  1
  O  O5  1  0.23742700  0.55101100  0.30738100  1
  O  O6  1  0.41399400  0.38265800  0.47144600  1
  O  O7  1  0.26824400  0.14151500  0.69155700  1
  O  O8  1  0.15414000  0.89983300  0.93078000  1
  O  O9  1  0.07325300  0.31013500  0.53744000  1
  O  O10  1  0.98063600  0.09928300  0.73150200  1
  O  O11  1  0.52590500  0.54169800  0.28082100  1
  O  O12  1  0.02590500  0.45830200  0.21917900  1
  O  O13  1  0.48063600  0.90071700  0.76849800  1
  O  O14  1  0.57325300  0.68986500  0.96256000  1
  O  O15  1  0.91399400  0.61734200  0.02855400  1
  O  O16  1  0.65414000  0.10016700  0.56922000  1
  O  O17  1  0.76824400  0.85848500  0.80844300  1
  O  O18  1  0.73742700  0.44898900  0.19261900  1
  O  O19  1  0.84250000  0.22091000  0.41918600  1
  O  O20  1  0.39114400  0.38646000  0.17590500  1
  O  O21  1  0.08031100  0.73683800  0.83233800  1
  O  O22  1  0.16706900  0.12075800  0.41742000  1
  O  O23  1  0.36404500  0.97085100  0.57396800  1
  O  O24  1  0.63595500  0.02914900  0.42603200  1
  O  O25  1  0.83293100  0.87924200  0.58258000  1
  O  O26  1  0.91968900  0.26316200  0.16766200  1
  O  O27  1  0.60885600  0.61354000  0.82409500  1
  O  O28  1  0.15750000  0.77909000  0.58081400  1
  O  O29  1  0.26257300  0.55101100  0.80738100  1
  O  O30  1  0.23175600  0.14151500  0.19155700  1
  O  O31  1  0.34586000  0.89983300  0.43078000  1
  O  O32  1  0.08600600  0.38265800  0.97144600  1
  O  O33  1  0.42674700  0.31013500  0.03744000  1
  O  O34  1  0.51936400  0.09928300  0.23150200  1
  O  O35  1  0.97409500  0.54169800  0.78082100  1
  O  O36  1  0.47409500  0.45830200  0.71917900  1
  O  O37  1  0.01936400  0.90071700  0.26849800  1
  O  O38  1  0.92674700  0.68986500  0.46256000  1
  O  O39  1  0.84586000  0.10016700  0.06922000  1
  O  O40  1  0.73175600  0.85848500  0.30844300  1
  O  O41  1  0.58600600  0.61734200  0.52855400  1
  O  O42  1  0.76257300  0.44898900  0.69261900  1
  O  O43  1  0.65750000  0.22091000  0.91918600  1
  O  O44  1  0.41968900  0.73683800  0.33233800  1
  O  O45  1  0.10885600  0.38646000  0.67590500  1
  O  O46  1  0.33293100  0.12075800  0.91742000  1
  O  O47  1  0.13595500  0.97085100  0.07396800  1
loop_
_geom_bond_atom_site_label_1
_geom_bond_atom_site_label_2
_geom_bond_distance
_geom_bond_site_symmetry_2
Li0 O46 1.896574 1_555
Li0 O3 2.054371 1_555
Li0 O7 2.056068 1_555
Li0 O36 2.182391 1_555
Li1 O47 2.001254 1_555
Li1 O2 2.057054 1_455
Li1 O5 2.084148 1_555
Li1 O37 2.140416 1_555
Li1 O12 2.475791 1_555
Li2 O3 1.999606 1_555
Li2 O17 2.007212 1_545
Li2 O16 2.015086 1_555
Li2 O10 2.044023 1_555
Li3 O2 1.910115 1_555
Li3 O19 1.971089 1_555
Li3 O11 2.006466 1_555
Li3 O18 2.044170 1_555
Li4 O20 1.910115 1_555
Li4 O4 1.971089 1_555
Li4 O12 2.006466 1_555
Li4 O5 2.044170 1_555
Li5 O21 1.999606 1_555
Li5 O7 2.007212 1_565
Li5 O8 2.015086 1_555
Li5 O13 2.044023 1_555
Li6 O24 2.001254 1_555
Li6 O20 2.057054 1_555
Li6 O18 2.084148 1_555
Li6 O34 2.140416 1_555
Li6 O11 2.475791 1_555
Li7 O25 1.896574 1_555
Li7 O21 2.054371 1_655
Li7 O17 2.056068 1_555
Li7 O35 2.182391 1_555
Li8 O22 1.896574 1_555
Li8 O26 2.054371 1_455
Li8 O30 2.056068 1_555
Li8 O12 2.182391 1_555
Li9 O23 2.001254 1_555
Li9 O27 2.057054 1_555
Li9 O29 2.084148 1_555
Li9 O13 2.140416 1_555
Li9 O36 2.475791 1_555
Li10 O26 1.999606 1_555
Li10 O40 2.007212 1_545
Li10 O39 2.015086 1_555
Li10 O34 2.044023 1_555
Li11 O27 1.910115 1_555
Li11 O43 1.971089 1_555
Li11 O35 2.006466 1_555
Li11 O42 2.044170 1_555
Li12 O45 1.910115 1_555
Li12 O28 1.971089 1_555
Li12 O36 2.006466 1_555
Li12 O29 2.044170 1_555
Li13 O44 1.999606 1_555
Li13 O30 2.007212 1_565
Li13 O31 2.015086 1_555
Li13 O37 2.044023 1_555
Li14 O0 2.001254 1_555
Li14 O45 2.057054 1_655
Li14 O42 2.084148 1_555
Li14 O10 2.140416 1_555
Li14 O35 2.475791 1_555
Li15 O1 1.896574 1_555
Li15 O44 2.054371 1_555
Li15 O40 2.056068 1_555
Li15 O11 2.182391 1_555
Cr0 O9 1.997368 1_555
Cr0 O19 2.108946 1_455
Cr0 O12 2.180470 1_555
Cr0 O5 2.184569 1_555
Cr0 O22 2.199413 1_555
Cr0 O2 2.354919 1_455
Cr1 O8 1.960365 1_655
Cr1 O15 1.967860 1_556
Cr1 O0 2.034962 1_565
Cr1 O17 2.070582 1_555
Cr1 O10 2.091043 1_565
Cr1 O21 2.115837 1_655
Cr2 O14 1.997368 1_554
Cr2 O4 2.108946 1_555
Cr2 O11 2.180470 1_555
Cr2 O18 2.184569 1_555
Cr2 O1 2.199413 1_555
Cr2 O20 2.354919 1_555
Cr3 O16 1.960365 1_555
Cr3 O6 1.967860 1_555
Cr3 O23 2.034962 1_545
Cr3 O7 2.070582 1_555
Cr3 O13 2.091043 1_545
Cr3 O3 2.115837 1_555
Cr4 O31 1.960365 1_555
Cr4 O41 1.967860 1_555
Cr4 O24 2.034962 1_565
Cr4 O40 2.070582 1_555
Cr4 O34 2.091043 1_565
Cr4 O44 2.115837 1_555
Cr5 O33 1.997368 1_556
Cr5 O43 2.108946 1_555
Cr5 O36 2.180470 1_555
Cr5 O29 2.184569 1_555
Cr5 O46 2.199413 1_555
Cr5 O27 2.354919 1_555
Cr6 O39 1.960365 1_455
Cr6 O32 1.967860 1_554
Cr6 O47 2.034962 1_545
Cr6 O30 2.070582 1_555
Cr6 O37 2.091043 1_545
Cr6 O26 2.115837 1_455
Cr7 O38 1.997368 1_555
Cr7 O28 2.108946 1_655
Cr7 O35 2.180470 1_555
Cr7 O42 2.184569 1_555
Cr7 O25 2.199413 1_555
Cr7 O45 2.354919 1_655
O0 P11 1.560908 1_555
O1 P11 1.520944 1_564
O2 P9 1.543980 1_555
O3 P10 1.580164 1_555
O4 P0 1.541239 1_555
O5 P1 1.554743 1_555
O6 P1 1.518403 1_555
O7 P2 1.575692 1_555
O8 P0 1.570842 1_556
O9 P2 1.502440 1_555
O10 P2 1.591012 1_655
O11 P1 1.574977 1_555
O12 P4 1.574977 1_455
O13 P3 1.591012 1_555
O14 P3 1.502440 1_555
O15 P4 1.518403 1_555
O16 P5 1.570842 1_555
O17 P3 1.575692 1_555
O18 P4 1.554743 1_555
O19 P5 1.541239 1_555
O20 P8 1.543980 1_555
O21 P7 1.580164 1_555
O22 P6 1.520944 1_545
O23 P6 1.560908 1_555
O24 P5 1.560908 1_555
O25 P5 1.520944 1_565
O26 P4 1.580164 1_555
O27 P3 1.543980 1_555
O28 P6 1.541239 1_555
O29 P7 1.554743 1_555
O30 P8 1.575692 1_555
O31 P6 1.570842 1_555
O32 P7 1.518403 1_555
O33 P8 1.502440 1_555
O34 P8 1.591012 1_555
O35 P7 1.574977 1_655
O36 P10 1.574977 1_555
O37 P9 1.591012 1_455
O38 P9 1.502440 1_555
O39 P11 1.570842 1_554
O40 P9 1.575692 1_555
O41 P10 1.518403 1_555
O42 P10 1.554743 1_555
O43 P11 1.541239 1_555
O44 P1 1.580164 1_555
O45 P2 1.543980 1_555
O46 P0 1.520944 1_546
O47 P0 1.560908 1_555
