# generated using pymatgen
data_Li4CrBi(TeO6)2
_symmetry_space_group_name_H-M   'P 1'
_cell_length_a   5.22317800
_cell_length_b   5.48819194
_cell_length_c   7.58922958
_cell_angle_alpha   94.06721809
_cell_angle_beta   90.09768455
_cell_angle_gamma   90.13367168
_symmetry_Int_Tables_number   1
_chemical_formula_structural   Li4CrBi(TeO6)2
_chemical_formula_sum   'Li4 Cr1 Bi1 Te2 O12'
_cell_volume   217.00249359
_cell_formula_units_Z   1
loop_
 _symmetry_equiv_pos_site_id
 _symmetry_equiv_pos_as_xyz
  1  'x, y, z'
loop_
 _atom_site_type_symbol
 _atom_site_label
 _atom_site_symmetry_multiplicity
 _atom_site_fract_x
 _atom_site_fract_y
 _atom_site_fract_z
 _atom_site_occupancy
  Li  Li0  1  0.50906500  0.04361800  0.75034400  1
  Li  Li1  1  0.49788900  0.05671600  0.19212400  1
  Li  Li2  1  0.99360100  0.59487800  0.18594400  1
  Li  Li3  1  0.00002500  0.58722800  0.73596800  1
  Cr  Cr0  1  0.99910300  0.00990500  0.99882200  1
  Bi  Bi0  1  0.50155200  0.50384200  0.49427800  1
  Te  Te0  1  0.00106800  0.00443300  0.49968700  1
  Te  Te1  1  0.49903600  0.49950700  0.99843500  1
  O  O0  1  0.32126700  0.18931400  0.95006700  1
  O  O1  1  0.67492300  0.14936900  0.43499900  1
  O  O2  1  0.16756700  0.30916400  0.58304300  1
  O  O3  1  0.78792400  0.30683300  0.07204400  1
  O  O4  1  0.64046500  0.46689300  0.75734700  1
  O  O5  1  0.35192600  0.48509800  0.23807200  1
  O  O6  1  0.19585900  0.68105900  0.94741700  1
  O  O7  1  0.85475700  0.67677300  0.43487700  1
  O  O8  1  0.30381700  0.82774400  0.58610000  1
  O  O9  1  0.69518700  0.78982100  0.06715000  1
  O  O10  1  0.87630500  0.96904100  0.73977300  1
  O  O11  1  0.12866400  0.99116200  0.26230900  1
loop_
_geom_bond_atom_site_label_1
_geom_bond_atom_site_label_2
_geom_bond_distance
_geom_bond_site_symmetry_2
Li0 O0 1.932828 1_555
Li0 O10 1.962861 1_545
Li0 O8 1.971469 1_545
Li0 O4 2.417682 1_555
Li1 O9 1.980001 1_545
Li1 O11 2.039564 1_545
Li1 O1 2.090491 1_555
Li1 O0 2.223127 1_554
Li1 O3 2.276437 1_555
Li1 O5 2.474513 1_555
Li2 O5 2.014677 1_655
Li2 O7 2.045187 1_555
Li2 O3 2.048279 1_555
Li2 O9 2.127609 1_555
Li2 O6 2.177694 1_654
Li2 O11 2.318688 1_655
Li3 O6 1.939422 1_555
Li3 O4 1.999997 1_455
Li3 O2 2.049413 1_555
Li3 O10 2.192530 1_455
Li3 O8 2.400665 1_555
Li3 O7 2.488735 1_455
Cr0 O0 1.996003 1_655
Cr0 O3 2.015707 1_556
Cr0 O10 2.063797 1_545
Cr0 O9 2.080963 1_546
Cr0 O6 2.091814 1_645
Cr0 O11 2.119451 1_646
Bi0 O5 2.090011 1_555
Bi0 O8 2.132507 1_555
Bi0 O7 2.136075 1_555
Bi0 O4 2.146328 1_555
Bi0 O1 2.166220 1_555
Bi0 O2 2.176217 1_555
O0 Te1 1.948813 1_555
O1 Te0 1.958203 1_655
O2 Te0 1.948011 1_555
O3 Te1 1.948184 1_554
O4 Te1 1.970837 1_555
O5 Te1 1.982189 1_554
O6 Te1 1.926222 1_555
O7 Te0 1.981545 1_665
O8 Te0 1.991177 1_565
O9 Te1 1.932076 1_554
O10 Te0 1.958566 1_665
O11 Te0 1.918499 1_565
