# generated using pymatgen
data_YbP3O17
_symmetry_space_group_name_H-M   'P 1'
_cell_length_a   10.13558900
_cell_length_b   15.54814700
_cell_length_c   19.80883800
_cell_angle_alpha   90.00000000
_cell_angle_beta   90.00000000
_cell_angle_gamma   90.00000000
_symmetry_Int_Tables_number   1
_chemical_formula_structural   YbP3O17
_chemical_formula_sum   'Yb8 P24 O136'
_cell_volume   3121.66740566
_cell_formula_units_Z   8
loop_
 _symmetry_equiv_pos_site_id
 _symmetry_equiv_pos_as_xyz
  1  'x, y, z'
loop_
 _atom_site_type_symbol
 _atom_site_label
 _atom_site_symmetry_multiplicity
 _atom_site_fract_x
 _atom_site_fract_y
 _atom_site_fract_z
 _atom_site_occupancy
  Yb  Yb0  1  0.09259800  0.88068300  0.50942900  1
  Yb  Yb1  1  0.59259800  0.61931700  0.49057100  1
  Yb  Yb2  1  0.90740200  0.38068300  0.99057100  1
  Yb  Yb3  1  0.40740200  0.11931700  0.00942900  1
  Yb  Yb4  1  0.15476900  0.55949400  0.21194200  1
  Yb  Yb5  1  0.65476900  0.94050600  0.78805800  1
  Yb  Yb6  1  0.84523100  0.05949400  0.28805800  1
  Yb  Yb7  1  0.34523100  0.44050600  0.71194200  1
  P  P0  1  0.85966700  0.85013500  0.64042800  1
  P  P1  1  0.35966700  0.64986500  0.35957200  1
  P  P2  1  0.14033300  0.35013500  0.85957200  1
  P  P3  1  0.64033300  0.14986500  0.14042800  1
  P  P4  1  0.87699400  0.70731300  0.54941700  1
  P  P5  1  0.37699400  0.79268700  0.45058300  1
  P  P6  1  0.12300600  0.20731300  0.95058300  1
  P  P7  1  0.62300600  0.29268700  0.04941700  1
  P  P8  1  0.80683900  0.54056800  0.61206000  1
  P  P9  1  0.30683900  0.95943200  0.38794000  1
  P  P10  1  0.19316100  0.04056800  0.88794000  1
  P  P11  1  0.69316100  0.45943200  0.11206000  1
  P  P12  1  0.56617600  0.61691700  0.66581100  1
  P  P13  1  0.06617600  0.88308300  0.33418900  1
  P  P14  1  0.43382400  0.11691700  0.83418900  1
  P  P15  1  0.93382400  0.38308300  0.16581100  1
  P  P16  1  0.62452800  0.71983000  0.79142000  1
  P  P17  1  0.12452800  0.78017000  0.20858000  1
  P  P18  1  0.37547200  0.21983000  0.70858000  1
  P  P19  1  0.87547200  0.28017000  0.29142000  1
  P  P20  1  0.90004300  0.79308700  0.78751500  1
  P  P21  1  0.40004300  0.70691300  0.21248500  1
  P  P22  1  0.09995700  0.29308700  0.71248500  1
  P  P23  1  0.59995700  0.20691300  0.28751500  1
  O  O0  1  0.79311300  0.77333200  0.60231300  1
  O  O1  1  0.29311300  0.72666800  0.39768700  1
  O  O2  1  0.20688700  0.27333200  0.89768700  1
  O  O3  1  0.70688700  0.22666800  0.10231300  1
  O  O4  1  0.90035100  0.62541800  0.59705700  1
  O  O5  1  0.40035100  0.87458200  0.40294300  1
  O  O6  1  0.09964900  0.12541800  0.90294300  1
  O  O7  1  0.59964900  0.37458200  0.09705700  1
  O  O8  1  0.71352500  0.57763000  0.67266700  1
  O  O9  1  0.21352500  0.92237000  0.32733300  1
  O  O10  1  0.28647500  0.07763000  0.82733300  1
  O  O11  1  0.78647500  0.42237000  0.17266700  1
  O  O12  1  0.57513400  0.69942400  0.71522500  1
  O  O13  1  0.07513400  0.80057600  0.28477500  1
  O  O14  1  0.42486600  0.19942400  0.78477500  1
  O  O15  1  0.92486600  0.30057600  0.21522500  1
  O  O16  1  0.78456300  0.72038900  0.78269700  1
  O  O17  1  0.28456300  0.77961100  0.21730300  1
  O  O18  1  0.21543700  0.22038900  0.71730300  1
  O  O19  1  0.71543700  0.27961100  0.28269700  1
  O  O20  1  0.92660800  0.81338500  0.70446300  1
  O  O21  1  0.42660800  0.68661500  0.29553700  1
  O  O22  1  0.07339200  0.31338500  0.79553700  1
  O  O23  1  0.57339200  0.18661500  0.20446300  1
  O  O24  1  0.94085200  0.90948100  0.59952700  1
  O  O25  1  0.44085200  0.59051900  0.40047300  1
  O  O26  1  0.05914800  0.40948100  0.90047300  1
  O  O27  1  0.55914800  0.09051900  0.09952700  1
  O  O28  1  0.72023800  0.89455400  0.67311800  1
  O  O29  1  0.22023800  0.60544600  0.32688200  1
  O  O30  1  0.27976200  0.39455400  0.82688200  1
  O  O31  1  0.77976200  0.10544600  0.17311800  1
  O  O32  1  0.00723900  0.74898200  0.53687800  1
  O  O33  1  0.50723900  0.75101800  0.46312200  1
  O  O34  1  0.99276100  0.24898200  0.96312200  1
  O  O35  1  0.49276100  0.25101800  0.03687800  1
  O  O36  1  0.78361100  0.68868800  0.49343900  1
  O  O37  1  0.28361100  0.81131200  0.50656100  1
  O  O38  1  0.21638900  0.18868800  0.00656100  1
  O  O39  1  0.71638900  0.31131200  0.99343900  1
  O  O40  1  0.89643800  0.47385000  0.64093800  1
  O  O41  1  0.39643800  0.02615000  0.35906200  1
  O  O42  1  0.10356200  0.97385000  0.85906200  1
  O  O43  1  0.60356200  0.52615000  0.14093800  1
  O  O44  1  0.72216800  0.52215100  0.55111400  1
  O  O45  1  0.22216800  0.97784900  0.44888600  1
  O  O46  1  0.27783200  0.02215100  0.94888600  1
  O  O47  1  0.77783200  0.47784900  0.05111400  1
  O  O48  1  0.46987000  0.55229400  0.69312700  1
  O  O49  1  0.96987000  0.94770600  0.30687300  1
  O  O50  1  0.53013000  0.05229400  0.80687300  1
  O  O51  1  0.03013000  0.44770600  0.19312700  1
  O  O52  1  0.54146900  0.65201900  0.59644000  1
  O  O53  1  0.04146900  0.84798100  0.40356000  1
  O  O54  1  0.45853100  0.15201900  0.90356000  1
  O  O55  1  0.95853100  0.34798100  0.09644000  1
  O  O56  1  0.57692100  0.80974700  0.80647700  1
  O  O57  1  0.07692100  0.69025300  0.19352300  1
  O  O58  1  0.42307900  0.30974700  0.69352300  1
  O  O59  1  0.92307900  0.19025300  0.30647700  1
  O  O60  1  0.58733300  0.64646400  0.83687700  1
  O  O61  1  0.08733300  0.85353600  0.16312300  1
  O  O62  1  0.41266700  0.14646400  0.66312300  1
  O  O63  1  0.91266700  0.35353600  0.33687700  1
  O  O64  1  0.84299700  0.87533900  0.81440900  1
  O  O65  1  0.34299700  0.62466100  0.18559100  1
  O  O66  1  0.15700300  0.37533900  0.68559100  1
  O  O67  1  0.65700300  0.12466100  0.31440900  1
  O  O68  1  0.02244900  0.75206500  0.81149500  1
  O  O69  1  0.52244900  0.74793500  0.18850500  1
  O  O70  1  0.97755100  0.25206500  0.68850500  1
  O  O71  1  0.47755100  0.24793500  0.31149500  1
  O  O72  1  0.96317900  0.58247400  0.91516500  1
  O  O73  1  0.46317900  0.91752600  0.08483500  1
  O  O74  1  0.03682100  0.08247400  0.58483500  1
  O  O75  1  0.53682100  0.41752600  0.41516500  1
  O  O76  1  0.34281900  0.52015100  0.53266300  1
  O  O77  1  0.84281900  0.97984900  0.46733700  1
  O  O78  1  0.65718100  0.02015100  0.96733700  1
  O  O79  1  0.15718100  0.47984900  0.03266300  1
  O  O80  1  0.34014800  0.92018400  0.61754900  1
  O  O81  1  0.84014800  0.57981600  0.38245100  1
  O  O82  1  0.65985200  0.42018400  0.88245100  1
  O  O83  1  0.15985200  0.07981600  0.11754900  1
  O  O84  1  0.32939100  0.88727000  0.75100700  1
  O  O85  1  0.82939100  0.61273000  0.24899300  1
  O  O86  1  0.67060900  0.38727000  0.74899300  1
  O  O87  1  0.17060900  0.11273000  0.25100700  1
  O  O88  1  0.28674600  0.48357200  0.82559300  1
  O  O89  1  0.78674600  0.01642800  0.17440700  1
  O  O90  1  0.71325400  0.98357200  0.67440700  1
  O  O91  1  0.21325400  0.51642800  0.32559300  1
  O  O92  1  0.63465200  0.95349400  0.93536500  1
  O  O93  1  0.13465200  0.54650600  0.06463500  1
  O  O94  1  0.36534800  0.45349400  0.56463500  1
  O  O95  1  0.86534800  0.04650600  0.43536500  1
  O  O96  1  0.16954400  0.59600900  0.67499800  1
  O  O97  1  0.66954400  0.90399100  0.32500200  1
  O  O98  1  0.83045600  0.09600900  0.82500200  1
  O  O99  1  0.33045600  0.40399100  0.17499800  1
  O  O100  1  0.20315900  0.64964900  0.63272000  1
  O  O101  1  0.70315900  0.85035100  0.36728000  1
  O  O102  1  0.79684100  0.14964900  0.86728000  1
  O  O103  1  0.29684100  0.35035100  0.13272000  1
  O  O104  1  0.57758100  0.00816700  0.53609500  1
  O  O105  1  0.07758100  0.49183300  0.46390500  1
  O  O106  1  0.42241900  0.50816700  0.96390500  1
  O  O107  1  0.92241900  0.99183300  0.03609500  1
  O  O108  1  0.90151200  0.52494200  0.81872100  1
  O  O109  1  0.40151200  0.97505800  0.18127900  1
  O  O110  1  0.09848800  0.02494200  0.68127900  1
  O  O111  1  0.59848800  0.47505800  0.31872100  1
  O  O112  1  0.44585300  0.88414000  0.60762200  1
  O  O113  1  0.94585300  0.61586000  0.39237800  1
  O  O114  1  0.55414700  0.38414000  0.89237800  1
  O  O115  1  0.05414700  0.11586000  0.10762200  1
  O  O116  1  0.96623200  0.93177600  0.00287600  1
  O  O117  1  0.46623200  0.56822400  0.99712400  1
  O  O118  1  0.03376800  0.43177600  0.49712400  1
  O  O119  1  0.53376800  0.06822400  0.50287600  1
  O  O120  1  0.97528500  0.57814100  0.85046700  1
  O  O121  1  0.47528500  0.92185900  0.14953300  1
  O  O122  1  0.02471500  0.07814100  0.64953300  1
  O  O123  1  0.52471500  0.42185900  0.35046700  1
  O  O124  1  0.67473400  0.68570100  0.94758600  1
  O  O125  1  0.17473400  0.81429900  0.05241400  1
  O  O126  1  0.32526600  0.18570100  0.55241400  1
  O  O127  1  0.82526600  0.31429900  0.44758600  1
  O  O128  1  0.71220500  0.75905600  0.95551300  1
  O  O129  1  0.21220500  0.74094400  0.04448700  1
  O  O130  1  0.28779500  0.25905600  0.54448700  1
  O  O131  1  0.78779500  0.24094400  0.45551300  1
  O  O132  1  0.27530500  0.81771300  0.75879900  1
  O  O133  1  0.77530500  0.68228700  0.24120100  1
  O  O134  1  0.72469500  0.31771300  0.74120100  1
  O  O135  1  0.22469500  0.18228700  0.25879900  1
loop_
_geom_bond_atom_site_label_1
_geom_bond_atom_site_label_2
_geom_bond_distance
_geom_bond_site_symmetry_2
O0 P0 1.565587 1_555
O0 P4 1.695394 1_555
O1 P1 1.565587 1_555
O1 P5 1.695394 1_555
O2 P2 1.565587 1_555
O2 P6 1.695394 1_555
O3 P3 1.565587 1_555
O3 P7 1.695394 1_555
O4 P4 1.602477 1_555
O4 P8 1.651392 1_555
O5 P5 1.602477 1_555
O5 P9 1.651392 1_555
O6 P6 1.602477 1_555
O6 P10 1.651392 1_555
O7 P7 1.602477 1_555
O7 P11 1.651392 1_555
O8 P12 1.619265 1_555
O8 P8 1.633375 1_555
O9 P13 1.619265 1_555
O9 P9 1.633375 1_555
O10 P14 1.619265 1_555
O10 P10 1.633375 1_555
O11 P15 1.619265 1_555
O11 P11 1.633375 1_555
O12 P12 1.616173 1_555
O12 P16 1.621540 1_555
O13 P13 1.616173 1_555
O13 P17 1.621540 1_555
O14 P14 1.616173 1_555
O14 P18 1.621540 1_555
O15 P15 1.616173 1_555
O15 P19 1.621540 1_555
O16 P20 1.629939 1_555
O16 P16 1.631250 1_555
O17 P21 1.629939 1_555
O17 P17 1.631250 1_555
O18 P22 1.629939 1_555
O18 P18 1.631250 1_555
O19 P23 1.629939 1_555
O19 P19 1.631250 1_555
O20 P0 1.547845 1_555
O20 P20 1.696662 1_555
O21 P1 1.547845 1_555
O21 P21 1.696662 1_555
O22 P2 1.547845 1_555
O22 P22 1.696662 1_555
O23 P3 1.547845 1_555
O23 P23 1.696662 1_555
O24 P0 1.478152 1_555
O24 Yb0 2.398191 1_655
O25 P1 1.478152 1_555
O25 Yb1 2.398191 1_555
O26 P2 1.478152 1_555
O26 Yb2 2.398191 1_455
O27 P3 1.478152 1_555
O27 Yb3 2.398191 1_555
O28 O90 1.386109 1_555
O28 P0 1.701005 1_555
O28 Yb5 2.476839 1_555
O29 O91 1.386109 1_555
O29 P1 1.701005 1_555
O29 Yb4 2.476839 1_555
O30 O88 1.386109 1_555
O30 P2 1.701005 1_555
O30 Yb7 2.476839 1_555
O31 O89 1.386109 1_555
O31 P3 1.701005 1_555
O31 Yb6 2.476839 1_555
O32 P4 1.491351 1_455
O32 Yb0 2.288505 1_555
O33 P5 1.491351 1_555
O33 Yb1 2.288505 1_555
O34 P6 1.491351 1_655
O34 Yb2 2.288505 1_555
O35 P7 1.491351 1_555
O35 Yb3 2.288505 1_555
O36 P4 1.486363 1_555
O36 Yb1 2.216934 1_555
O37 P5 1.486363 1_555
O37 Yb0 2.216934 1_555
O38 P6 1.486363 1_554
O38 Yb3 2.216934 1_555
O39 P7 1.486363 1_556
O39 Yb2 2.216934 1_555
O40 P8 1.492656 1_555
O41 P9 1.492656 1_545
O42 P10 1.492656 1_565
O43 P11 1.492656 1_555
O44 P8 1.508637 1_555
O44 Yb1 2.333523 1_555
O45 P9 1.508637 1_555
O45 Yb0 2.333523 1_555
O46 P10 1.508637 1_555
O46 Yb3 2.333523 1_556
O47 P11 1.508637 1_555
O47 Yb2 2.333523 1_554
O48 P12 1.501716 1_555
O48 Yb7 2.180777 1_555
O49 P13 1.501716 1_655
O49 Yb6 2.180777 1_565
O50 P14 1.501716 1_555
O50 Yb5 2.180777 1_545
O51 P15 1.501716 1_455
O51 Yb4 2.180777 1_555
O52 P12 1.499630 1_555
O52 Yb1 2.219253 1_555
O53 P13 1.499630 1_555
O53 Yb0 2.219253 1_555
O54 P14 1.499630 1_555
O54 Yb3 2.219253 1_556
O55 P15 1.499630 1_555
O55 Yb2 2.219253 1_554
O56 P16 1.508746 1_555
O56 Yb5 2.211116 1_555
O57 P17 1.508746 1_555
O57 Yb4 2.211116 1_555
O58 P18 1.508746 1_555
O58 Yb7 2.211116 1_555
O59 P19 1.508746 1_555
O59 Yb6 2.211116 1_555
O60 P16 1.501381 1_555
O61 P17 1.501381 1_555
O62 P18 1.501381 1_555
O63 P19 1.501381 1_555
O64 P20 1.501206 1_555
O64 Yb5 2.222341 1_555
O65 P21 1.501206 1_555
O65 Yb4 2.222341 1_555
O66 P22 1.501206 1_555
O66 Yb7 2.222341 1_555
O67 P23 1.501206 1_555
O67 Yb6 2.222341 1_555
O68 P20 1.473662 1_455
O69 P21 1.473662 1_555
O70 P22 1.473662 1_655
O71 P23 1.473662 1_555
O76 O94 1.235862 1_555
O76 Yb1 3.079252 1_555
O77 O95 1.235862 1_565
O77 Yb0 3.079252 1_655
O78 O92 1.235862 1_545
O78 Yb3 3.079252 1_556
O79 O93 1.235862 1_555
O79 Yb2 3.079252 1_454
O88 Yb7 2.422411 1_555
O89 Yb6 2.422411 1_555
O90 Yb5 2.422411 1_555
O91 Yb4 2.422411 1_555
O92 Yb5 2.932058 1_555
O93 Yb4 2.932058 1_555
O94 Yb7 2.932058 1_555
O95 Yb6 2.932058 1_555
O96 Yb7 3.090646 1_555
O97 Yb6 3.090646 1_565
O98 Yb5 3.090646 1_545
O99 Yb4 3.090646 1_555
O100 O96 1.230045 1_555
O101 O97 1.230045 1_555
O102 O98 1.230045 1_555
O103 O99 1.230045 1_555
O104 O119 1.225617 1_555
O105 O118 1.225617 1_555
O106 O117 1.225617 1_555
O107 O116 1.225617 1_555
O108 O120 1.280128 1_555
O109 O121 1.280128 1_555
O110 O122 1.280128 1_555
O111 O123 1.280128 1_555
O112 O80 1.224988 1_555
O113 O81 1.224988 1_555
O114 O82 1.224988 1_555
O115 O83 1.224988 1_555
O120 O72 1.289214 1_555
O121 O73 1.289214 1_555
O122 O74 1.289214 1_555
O123 O75 1.289214 1_555
O124 O128 1.212319 1_555
O125 O129 1.212319 1_555
O126 O130 1.212319 1_555
O127 O131 1.212319 1_555
O132 O84 1.222270 1_555
O133 O85 1.222270 1_555
O134 O86 1.222270 1_555
O135 O87 1.222270 1_555
