# generated using pymatgen
data_Ba2LaI7
_symmetry_space_group_name_H-M   'P 1'
_cell_length_a   18.10714800
_cell_length_b   7.94941300
_cell_length_c   12.18106365
_cell_angle_alpha   89.08931112
_cell_angle_beta   90.00000000
_cell_angle_gamma   90.00000000
_symmetry_Int_Tables_number   1
_chemical_formula_structural   Ba2LaI7
_chemical_formula_sum   'Ba8 La4 I28'
_cell_volume   1753.13541597
_cell_formula_units_Z   4
loop_
 _symmetry_equiv_pos_site_id
 _symmetry_equiv_pos_as_xyz
  1  'x, y, z'
loop_
 _atom_site_type_symbol
 _atom_site_label
 _atom_site_symmetry_multiplicity
 _atom_site_fract_x
 _atom_site_fract_y
 _atom_site_fract_z
 _atom_site_occupancy
  Ba  Ba0  1  0.22059400  0.73350000  0.04881300  1
  Ba  Ba1  1  0.56042600  0.73175200  0.17605100  1
  Ba  Ba2  1  0.06042600  0.26824800  0.32394900  1
  Ba  Ba3  1  0.72059400  0.26650000  0.45118700  1
  Ba  Ba4  1  0.27940600  0.73350000  0.54881300  1
  Ba  Ba5  1  0.93957400  0.73175200  0.67605100  1
  Ba  Ba6  1  0.43957400  0.26824800  0.82394900  1
  Ba  Ba7  1  0.77940600  0.26650000  0.95118700  1
  La  La0  1  0.87299100  0.78112200  0.21893900  1
  La  La1  1  0.37299100  0.21887800  0.28106100  1
  La  La2  1  0.62700900  0.78112200  0.71893900  1
  La  La3  1  0.12700900  0.21887800  0.78106100  1
  I  I0  1  0.14129200  0.29454700  0.03785400  1
  I  I1  1  0.39725200  0.99310600  0.06413400  1
  I  I2  1  0.39589900  0.49562600  0.07810700  1
  I  I3  1  0.93052600  0.14353000  0.12020400  1
  I  I4  1  0.73913900  0.50238500  0.19599700  1
  I  I5  1  0.72311100  0.00393000  0.20519800  1
  I  I6  1  0.04546500  0.70071700  0.21321500  1
  I  I7  1  0.54546500  0.29928300  0.28678500  1
  I  I8  1  0.22311100  0.99607000  0.29480200  1
  I  I9  1  0.23913900  0.49761500  0.30400300  1
  I  I10  1  0.43052600  0.85647000  0.37979600  1
  I  I11  1  0.89589900  0.50437400  0.42189300  1
  I  I12  1  0.89725200  0.00689400  0.43586600  1
  I  I13  1  0.64129200  0.70545300  0.46214600  1
  I  I14  1  0.35870800  0.29454700  0.53785400  1
  I  I15  1  0.10274800  0.99310600  0.56413400  1
  I  I16  1  0.10410100  0.49562600  0.57810700  1
  I  I17  1  0.56947400  0.14353000  0.62020400  1
  I  I18  1  0.76086100  0.50238500  0.69599700  1
  I  I19  1  0.77688900  0.00393000  0.70519800  1
  I  I20  1  0.45453500  0.70071700  0.71321500  1
  I  I21  1  0.95453500  0.29928300  0.78678500  1
  I  I22  1  0.27688900  0.99607000  0.79480200  1
  I  I23  1  0.26086100  0.49761500  0.80400300  1
  I  I24  1  0.06947400  0.85647000  0.87979600  1
  I  I25  1  0.60410100  0.50437400  0.92189300  1
  I  I26  1  0.60274800  0.00689400  0.93586600  1
  I  I27  1  0.85870800  0.70545300  0.96214600  1
loop_
_geom_bond_atom_site_label_1
_geom_bond_atom_site_label_2
_geom_bond_distance
_geom_bond_site_symmetry_2
Ba0 I24 3.552171 1_554
Ba0 I9 3.620267 1_555
Ba0 I23 3.621898 1_554
Ba0 I8 3.679140 1_555
Ba0 I2 3.709126 1_555
Ba0 I6 3.757325 1_555
Ba0 I0 3.777641 1_555
Ba0 I1 3.812891 1_555
Ba0 I22 3.842407 1_554
Ba1 I10 3.571149 1_555
Ba1 I5 3.675512 1_565
Ba1 I7 3.682985 1_555
Ba1 I25 3.695283 1_554
Ba1 I26 3.705069 1_564
Ba1 I4 3.720360 1_555
Ba1 I2 3.727342 1_555
Ba1 I13 3.782777 1_555
Ba1 I1 3.848985 1_555
Ba2 I3 3.571149 1_455
Ba2 I8 3.675512 1_545
Ba2 I6 3.682985 1_555
Ba2 I16 3.695283 1_555
Ba2 I15 3.705069 1_545
Ba2 I9 3.720360 1_555
Ba2 I11 3.727342 1_455
Ba2 I0 3.782777 1_555
Ba2 I12 3.848985 1_455
Ba3 I17 3.552171 1_555
Ba3 I4 3.620267 1_555
Ba3 I18 3.621898 1_555
Ba3 I5 3.679140 1_555
Ba3 I11 3.709126 1_555
Ba3 I7 3.757325 1_555
Ba3 I13 3.777641 1_555
Ba3 I12 3.812891 1_555
Ba3 I19 3.842407 1_555
Ba4 I10 3.552171 1_555
Ba4 I23 3.620267 1_555
Ba4 I9 3.621898 1_555
Ba4 I22 3.679140 1_555
Ba4 I16 3.709126 1_555
Ba4 I20 3.757325 1_555
Ba4 I14 3.777641 1_555
Ba4 I15 3.812891 1_555
Ba4 I8 3.842407 1_555
Ba5 I24 3.571149 1_655
Ba5 I19 3.675512 1_565
Ba5 I21 3.682985 1_555
Ba5 I11 3.695283 1_555
Ba5 I12 3.705069 1_565
Ba5 I18 3.720360 1_555
Ba5 I16 3.727342 1_655
Ba5 I27 3.782777 1_555
Ba5 I15 3.848985 1_655
Ba6 I17 3.571149 1_555
Ba6 I22 3.675512 1_545
Ba6 I20 3.682985 1_555
Ba6 I2 3.695283 1_556
Ba6 I1 3.705069 1_546
Ba6 I23 3.720360 1_555
Ba6 I25 3.727342 1_555
Ba6 I14 3.782777 1_555
Ba6 I26 3.848985 1_555
Ba7 I3 3.552171 1_556
Ba7 I18 3.620267 1_555
Ba7 I4 3.621898 1_556
Ba7 I19 3.679140 1_555
Ba7 I25 3.709126 1_555
Ba7 I21 3.757325 1_555
Ba7 I27 3.777641 1_555
Ba7 I26 3.812891 1_555
Ba7 I5 3.842407 1_556
I0 La3 3.205150 1_554
I1 La1 3.247640 1_565
I2 La1 3.309207 1_555
I3 La0 3.274361 1_545
I4 La0 3.298749 1_555
I5 La0 3.243604 1_545
I6 La0 3.188734 1_455
I7 La1 3.188734 1_555
I8 La1 3.243604 1_565
I9 La1 3.298749 1_555
I10 La1 3.274361 1_565
I11 La0 3.309207 1_555
I12 La0 3.247640 1_545
I13 La2 3.205150 1_555
I14 La1 3.205150 1_555
I15 La3 3.247640 1_565
I16 La3 3.309207 1_555
I17 La2 3.274361 1_545
I18 La2 3.298749 1_555
I19 La2 3.243604 1_545
I20 La2 3.188734 1_555
I21 La3 3.188734 1_655
I22 La3 3.243604 1_565
I23 La3 3.298749 1_555
I24 La3 3.274361 1_565
I25 La2 3.309207 1_555
I26 La2 3.247640 1_545
I27 La0 3.205150 1_556
