# generated using pymatgen
data_Li3Fe2F9
_symmetry_space_group_name_H-M   'P 1'
_cell_length_a   5.19651835
_cell_length_b   5.19651835
_cell_length_c   14.82706000
_cell_angle_alpha   90.00000000
_cell_angle_beta   90.00000000
_cell_angle_gamma   120.00000442
_symmetry_Int_Tables_number   1
_chemical_formula_structural   Li3Fe2F9
_chemical_formula_sum   'Li6 Fe4 F18'
_cell_volume   346.74530336
_cell_formula_units_Z   2
loop_
 _symmetry_equiv_pos_site_id
 _symmetry_equiv_pos_as_xyz
  1  'x, y, z'
loop_
 _atom_site_type_symbol
 _atom_site_label
 _atom_site_symmetry_multiplicity
 _atom_site_fract_x
 _atom_site_fract_y
 _atom_site_fract_z
 _atom_site_occupancy
  Li  Li0  1  0.33333300  0.66666700  0.47920400  1
  Li  Li1  1  0.33333300  0.66666700  0.25000000  1
  Li  Li2  1  0.33333300  0.66666700  0.02079600  1
  Li  Li3  1  0.66666700  0.33333300  0.97920400  1
  Li  Li4  1  0.66666700  0.33333300  0.52079600  1
  Li  Li5  1  0.66666700  0.33333300  0.75000000  1
  Fe  Fe0  1  0.00000000  0.00000000  0.14996700  1
  Fe  Fe1  1  0.00000000  0.00000000  0.35003300  1
  Fe  Fe2  1  0.00000000  0.00000000  0.64996700  1
  Fe  Fe3  1  0.00000000  0.00000000  0.85003300  1
  F  F0  1  0.98760400  0.71694400  0.75000000  1
  F  F1  1  0.30821200  0.97719600  0.08861700  1
  F  F2  1  0.30821200  0.97719600  0.41138300  1
  F  F3  1  0.02280400  0.33101700  0.08861700  1
  F  F4  1  0.02280400  0.33101700  0.41138300  1
  F  F5  1  0.28305600  0.27066000  0.75000000  1
  F  F6  1  0.27066000  0.28305600  0.25000000  1
  F  F7  1  0.33101700  0.02280400  0.58861700  1
  F  F8  1  0.33101700  0.02280400  0.91138300  1
  F  F9  1  0.66898300  0.69178800  0.41138300  1
  F  F10  1  0.66898300  0.69178800  0.08861700  1
  F  F11  1  0.72934000  0.01239600  0.75000000  1
  F  F12  1  0.69178800  0.66898300  0.58861700  1
  F  F13  1  0.69178800  0.66898300  0.91138300  1
  F  F14  1  0.01239600  0.72934000  0.25000000  1
  F  F15  1  0.97719600  0.30821200  0.91138300  1
  F  F16  1  0.97719600  0.30821200  0.58861700  1
  F  F17  1  0.71694400  0.98760400  0.25000000  1
loop_
_geom_bond_atom_site_label_1
_geom_bond_atom_site_label_2
_geom_bond_distance
_geom_bond_site_symmetry_2
F0 Li5 1.852200 1_555
F0 Fe3 2.067083 1_665
F0 Fe2 2.067083 1_665
F1 Fe0 1.896444 1_565
F1 Li2 1.960313 1_555
F1 Li3 2.465602 1_564
F2 Fe1 1.896444 1_565
F2 Li0 1.960313 1_555
F2 Li4 2.465602 1_565
F3 Fe0 1.896448 1_555
F3 Li2 1.960312 1_555
F3 Li3 2.465599 1_454
F4 Fe1 1.896448 1_555
F4 Li0 1.960312 1_555
F4 Li4 2.465599 1_455
F5 Li5 1.852202 1_555
F5 Fe3 2.067083 1_555
F5 Fe2 2.067083 1_555
F6 Li1 1.852202 1_555
F6 Fe1 2.067083 1_555
F6 Fe0 2.067083 1_555
F7 Fe2 1.896448 1_555
F7 Li4 1.960312 1_555
F7 Li0 2.465599 1_545
F8 Fe3 1.896448 1_555
F8 Li3 1.960312 1_555
F8 Li2 2.465599 1_546
F9 Fe1 1.896446 1_665
F9 Li0 1.960313 1_555
F9 Li4 2.465606 1_555
F10 Fe0 1.896446 1_665
F10 Li2 1.960313 1_555
F10 Li3 2.465606 1_554
F11 Li5 1.852197 1_555
F11 Fe3 2.067083 1_655
F11 Fe2 2.067083 1_655
F12 Fe2 1.896446 1_665
F12 Li4 1.960313 1_555
F12 Li0 2.465606 1_555
F13 Fe3 1.896446 1_665
F13 Li3 1.960313 1_555
F13 Li2 2.465606 1_556
F14 Li1 1.852197 1_555
F14 Fe1 2.067083 1_565
F14 Fe0 2.067083 1_565
F15 Fe3 1.896444 1_655
F15 Li3 1.960313 1_555
F15 Li2 2.465602 1_656
F16 Fe2 1.896444 1_655
F16 Li4 1.960313 1_555
F16 Li0 2.465602 1_655
F17 Li1 1.852200 1_555
F17 Fe1 2.067083 1_665
F17 Fe0 2.067083 1_665
