# generated using pymatgen
data_UH10N2O7
_symmetry_space_group_name_H-M   'P 1'
_cell_length_a   5.81744800
_cell_length_b   11.57151700
_cell_length_c   11.72515900
_cell_angle_alpha   90.00000000
_cell_angle_beta   90.00000000
_cell_angle_gamma   90.00000000
_symmetry_Int_Tables_number   1
_chemical_formula_structural   UH10N2O7
_chemical_formula_sum   'U4 H40 N8 O28'
_cell_volume   789.29899243
_cell_formula_units_Z   4
loop_
 _symmetry_equiv_pos_site_id
 _symmetry_equiv_pos_as_xyz
  1  'x, y, z'
loop_
 _atom_site_type_symbol
 _atom_site_label
 _atom_site_symmetry_multiplicity
 _atom_site_fract_x
 _atom_site_fract_y
 _atom_site_fract_z
 _atom_site_occupancy
  U  U0  1  0.50000000  0.50000000  0.00000000  1
  U  U1  1  0.00000000  0.00000000  0.50000000  1
  U  U2  1  0.00000000  0.00000000  0.00000000  1
  U  U3  1  0.50000000  0.50000000  0.50000000  1
  H  H0  1  0.72359300  0.46111700  0.75990400  1
  H  H1  1  0.77640700  0.03888300  0.25990400  1
  H  H2  1  0.22359300  0.03888300  0.24009600  1
  H  H3  1  0.27640700  0.46111700  0.74009600  1
  H  H4  1  0.27640700  0.53888300  0.24009600  1
  H  H5  1  0.22359300  0.96111700  0.74009600  1
  H  H6  1  0.77640700  0.96111700  0.75990400  1
  H  H7  1  0.72359300  0.53888300  0.25990400  1
  H  H8  1  0.83817100  0.57793400  0.80806300  1
  H  H9  1  0.66182900  0.92206600  0.30806300  1
  H  H10  1  0.33817100  0.92206600  0.19193700  1
  H  H11  1  0.16182900  0.57793400  0.69193700  1
  H  H12  1  0.16182900  0.42206600  0.19193700  1
  H  H13  1  0.33817100  0.07793400  0.69193700  1
  H  H14  1  0.66182900  0.07793400  0.80806300  1
  H  H15  1  0.83817100  0.42206600  0.30806300  1
  H  H16  1  0.85027500  0.70624900  0.03424100  1
  H  H17  1  0.64972500  0.79375100  0.53424100  1
  H  H18  1  0.35027500  0.79375100  0.96575900  1
  H  H19  1  0.14972500  0.70624900  0.46575900  1
  H  H20  1  0.14972500  0.29375100  0.96575900  1
  H  H21  1  0.35027500  0.20624900  0.46575900  1
  H  H22  1  0.64972500  0.20624900  0.03424100  1
  H  H23  1  0.85027500  0.29375100  0.53424100  1
  H  H24  1  0.97836700  0.58470400  0.08356200  1
  H  H25  1  0.52163300  0.91529600  0.58356200  1
  H  H26  1  0.47836700  0.91529600  0.91643800  1
  H  H27  1  0.02163300  0.58470400  0.41643800  1
  H  H28  1  0.02163300  0.41529600  0.91643800  1
  H  H29  1  0.47836700  0.08470400  0.41643800  1
  H  H30  1  0.52163300  0.08470400  0.08356200  1
  H  H31  1  0.97836700  0.41529600  0.58356200  1
  H  H32  1  0.08007200  0.74062500  0.80234600  1
  H  H33  1  0.41992800  0.75937500  0.30234600  1
  H  H34  1  0.58007200  0.75937500  0.19765400  1
  H  H35  1  0.91992800  0.74062500  0.69765400  1
  H  H36  1  0.91992800  0.25937500  0.19765400  1
  H  H37  1  0.58007200  0.24062500  0.69765400  1
  H  H38  1  0.41992800  0.24062500  0.80234600  1
  H  H39  1  0.08007200  0.25937500  0.30234600  1
  N  N0  1  0.82639100  0.62042900  0.05562800  1
  N  N1  1  0.67360900  0.87957100  0.55562800  1
  N  N2  1  0.32639100  0.87957100  0.94437200  1
  N  N3  1  0.17360900  0.62042900  0.44437200  1
  N  N4  1  0.17360900  0.37957100  0.94437200  1
  N  N5  1  0.32639100  0.12042900  0.44437200  1
  N  N6  1  0.67360900  0.12042900  0.05562800  1
  N  N7  1  0.82639100  0.37957100  0.55562800  1
  O  O0  1  0.34002300  0.62628900  0.94627100  1
  O  O1  1  0.15997700  0.87371100  0.44627100  1
  O  O2  1  0.84002300  0.87371100  0.05372900  1
  O  O3  1  0.65997700  0.62628900  0.55372900  1
  O  O4  1  0.65997700  0.37371100  0.05372900  1
  O  O5  1  0.84002300  0.12628900  0.55372900  1
  O  O6  1  0.15997700  0.12628900  0.94627100  1
  O  O7  1  0.34002300  0.37371100  0.44627100  1
  O  O8  1  0.65996000  0.61476500  0.14381100  1
  O  O9  1  0.84004000  0.88523500  0.64381100  1
  O  O10  1  0.15996000  0.88523500  0.85618900  1
  O  O11  1  0.34004000  0.61476500  0.35618900  1
  O  O12  1  0.34004000  0.38523500  0.85618900  1
  O  O13  1  0.15996000  0.11476500  0.35618900  1
  O  O14  1  0.84004000  0.11476500  0.14381100  1
  O  O15  1  0.65996000  0.38523500  0.64381100  1
  O  O16  1  0.76297700  0.50396300  0.83242600  1
  O  O17  1  0.73702300  0.99603700  0.33242600  1
  O  O18  1  0.26297700  0.99603700  0.16757400  1
  O  O19  1  0.23702300  0.50396300  0.66757400  1
  O  O20  1  0.23702300  0.49603700  0.16757400  1
  O  O21  1  0.26297700  0.00396300  0.66757400  1
  O  O22  1  0.73702300  0.00396300  0.83242600  1
  O  O23  1  0.76297700  0.49603700  0.33242600  1
  O  O24  1  0.00000000  0.68662300  0.75000000  1
  O  O25  1  0.50000000  0.81337700  0.25000000  1
  O  O26  1  0.00000000  0.31337700  0.25000000  1
  O  O27  1  0.50000000  0.18662300  0.75000000  1
loop_
_geom_bond_atom_site_label_1
_geom_bond_atom_site_label_2
_geom_bond_distance
_geom_bond_site_symmetry_2
H0 O16 1.010628 1_555
H0 O15 1.661605 1_555
H1 O17 1.010628 1_545
H1 O14 1.661605 1_555
H2 O18 1.010628 1_545
H2 O13 1.661605 1_555
H3 O19 1.010628 1_555
H3 O12 1.661605 1_555
H4 O20 1.010628 1_555
H4 O11 1.661605 1_555
H5 O21 1.010628 1_565
H5 O10 1.661605 1_555
H6 O22 1.010628 1_565
H6 O9 1.661605 1_555
H7 O23 1.010628 1_555
H7 O8 1.661605 1_555
H8 O16 1.002803 1_555
H9 O17 1.002803 1_555
H10 O18 1.002803 1_555
H11 O19 1.002803 1_555
H12 O20 1.002803 1_555
H13 O21 1.002803 1_555
H14 O22 1.002803 1_555
H15 O23 1.002803 1_555
H16 N0 1.033621 1_555
H17 N1 1.033621 1_555
H18 N2 1.033621 1_555
H19 N3 1.033621 1_555
H20 N4 1.033621 1_555
H21 N5 1.033621 1_555
H22 N6 1.033621 1_555
H23 N7 1.033621 1_555
H24 N0 1.029478 1_555
H25 N1 1.029478 1_555
H26 N2 1.029478 1_555
H27 N3 1.029478 1_555
H28 N4 1.029478 1_555
H29 N5 1.029478 1_555
H30 N6 1.029478 1_555
H31 N7 1.029478 1_555
H32 O24 0.992055 1_555
H33 O25 0.992055 1_555
H34 O25 0.992055 1_555
H35 O24 0.992055 1_655
H36 O26 0.992055 1_655
H37 O27 0.992055 1_555
H38 O27 0.992055 1_555
H39 O26 0.992055 1_555
N0 O8 1.418022 1_555
N1 O9 1.418022 1_555
N2 O10 1.418022 1_555
N3 O11 1.418022 1_555
N4 O12 1.418022 1_555
N5 O13 1.418022 1_555
N6 O14 1.418022 1_555
N7 O15 1.418022 1_555
O0 U0 1.843518 1_556
O1 U1 1.843518 1_565
O2 U2 1.843518 1_665
O3 U3 1.843518 1_555
O4 U0 1.843518 1_555
O5 U1 1.843518 1_655
O6 U2 1.843518 1_556
O7 U3 1.843518 1_555
O8 U0 2.339408 1_555
O9 U1 2.339408 1_665
O10 U2 2.339408 1_566
O11 U3 2.339408 1_555
O12 U0 2.339408 1_556
O13 U1 2.339408 1_555
O14 U2 2.339408 1_655
O15 U3 2.339408 1_555
