# generated using pymatgen
data_Li3V3P8O29
_symmetry_space_group_name_H-M   'P 1'
_cell_length_a   9.76303193
_cell_length_b   9.76303193
_cell_length_c   14.37435835
_cell_angle_alpha   89.44345926
_cell_angle_beta   89.44345926
_cell_angle_gamma   59.69055395
_symmetry_Int_Tables_number   1
_chemical_formula_structural   Li3V3P8O29
_chemical_formula_sum   'Li6 V6 P16 O58'
_cell_volume   1182.76540242
_cell_formula_units_Z   2
loop_
 _symmetry_equiv_pos_site_id
 _symmetry_equiv_pos_as_xyz
  1  'x, y, z'
loop_
 _atom_site_type_symbol
 _atom_site_label
 _atom_site_symmetry_multiplicity
 _atom_site_fract_x
 _atom_site_fract_y
 _atom_site_fract_z
 _atom_site_occupancy
  Li  Li0  1  0.09635700  0.22779500  0.94238700  1
  Li  Li1  1  0.22779500  0.09635700  0.44238700  1
  Li  Li2  1  0.32233400  0.76659200  0.55853300  1
  Li  Li3  1  0.76659200  0.32233400  0.05853300  1
  Li  Li4  1  0.01686100  0.92073700  0.00749800  1
  Li  Li5  1  0.92073700  0.01686100  0.50749800  1
  V  V0  1  0.56714600  0.00032200  0.75264100  1
  V  V1  1  0.44216300  0.99773000  0.24238300  1
  V  V2  1  0.00032200  0.56714600  0.25264100  1
  V  V3  1  0.99773000  0.44216300  0.74238300  1
  V  V4  1  0.43510400  0.56320800  0.75439200  1
  V  V5  1  0.56320800  0.43510400  0.25439200  1
  P  P0  1  0.22029200  0.69603000  0.16441000  1
  P  P1  1  0.08537600  0.69995000  0.65650800  1
  P  P2  1  0.69603000  0.22029200  0.66441000  1
  P  P3  1  0.33029800  0.33086900  0.86623000  1
  P  P4  1  0.33086900  0.33029800  0.36623000  1
  P  P5  1  0.69995000  0.08537600  0.15650800  1
  P  P6  1  0.77564300  0.91710200  0.33964300  1
  P  P7  1  0.08846600  0.22967800  0.15742800  1
  P  P8  1  0.91710200  0.77564300  0.83964300  1
  P  P9  1  0.22967800  0.08846600  0.65742800  1
  P  P10  1  0.30436000  0.91598200  0.83811400  1
  P  P11  1  0.65933200  0.67241500  0.63360200  1
  P  P12  1  0.67241500  0.65933200  0.13360200  1
  P  P13  1  0.31483600  0.77855800  0.34264700  1
  P  P14  1  0.91598200  0.30436000  0.33811400  1
  P  P15  1  0.77855800  0.31483600  0.84264700  1
  O  O0  1  0.24198000  0.78239400  0.43454400  1
  O  O1  1  0.26274300  0.65563300  0.66375600  1
  O  O2  1  0.99606500  0.78413200  0.92422900  1
  O  O3  1  0.08501500  0.65626700  0.17249500  1
  O  O4  1  0.38228000  0.54002900  0.17568700  1
  O  O5  1  0.33480300  0.47868900  0.82184500  1
  O  O6  1  0.54002900  0.38228000  0.67568700  1
  O  O7  1  0.78239400  0.24198000  0.93454400  1
  O  O8  1  0.65563300  0.26274300  0.16375600  1
  O  O9  1  0.18533200  0.48033500  0.32240300  1
  O  O10  1  0.08012600  0.54213300  0.66818900  1
  O  O11  1  0.47868900  0.33480300  0.32184500  1
  O  O12  1  0.32630100  0.32922600  0.96926400  1
  O  O13  1  0.32922600  0.32630100  0.46926400  1
  O  O14  1  0.48033500  0.18533200  0.82240300  1
  O  O15  1  0.08971800  0.38444900  0.17396000  1
  O  O16  1  0.18375500  0.33127300  0.82182200  1
  O  O17  1  0.65626700  0.08501500  0.67249500  1
  O  O18  1  0.79866700  0.00295800  0.24947000  1
  O  O19  1  0.78413200  0.99606500  0.42422900  1
  O  O20  1  0.79922900  0.00920000  0.07352000  1
  O  O21  1  0.54213300  0.08012600  0.16818900  1
  O  O22  1  0.33127300  0.18375500  0.32182200  1
  O  O23  1  0.74115800  0.91080100  0.83134300  1
  O  O24  1  0.38444900  0.08971800  0.67396000  1
  O  O25  1  0.08743100  0.26093400  0.66545800  1
  O  O26  1  0.00295800  0.79866700  0.74947000  1
  O  O27  1  0.00920000  0.79922900  0.57352000  1
  O  O28  1  0.00392500  0.19850400  0.41768300  1
  O  O29  1  0.91080100  0.74115800  0.33134300  1
  O  O30  1  0.61608600  0.92094300  0.32323700  1
  O  O31  1  0.26093400  0.08743100  0.16545800  1
  O  O32  1  0.66085200  0.81529500  0.68094300  1
  O  O33  1  0.45970100  0.92104900  0.82991900  1
  O  O34  1  0.19850400  0.00392500  0.91768300  1
  O  O35  1  0.22918900  0.00948600  0.56828000  1
  O  O36  1  0.20813900  0.99165600  0.74160300  1
  O  O37  1  0.34442000  0.92048400  0.33293600  1
  O  O38  1  0.81529500  0.66085200  0.18094300  1
  O  O39  1  0.92094300  0.61608600  0.82323700  1
  O  O40  1  0.52262600  0.81076700  0.17791800  1
  O  O41  1  0.67463100  0.65612400  0.03065000  1
  O  O42  1  0.65612400  0.67463100  0.53065000  1
  O  O43  1  0.50933600  0.67211200  0.67463200  1
  O  O44  1  0.92104900  0.45970100  0.32991900  1
  O  O45  1  0.81076700  0.52262600  0.67791800  1
  O  O46  1  0.34328500  0.74060900  0.83308700  1
  O  O47  1  0.20061300  0.79634000  0.25860600  1
  O  O48  1  0.20086400  0.79437100  0.08137700  1
  O  O49  1  0.47351900  0.61960600  0.32484800  1
  O  O50  1  0.67211200  0.50933600  0.17463200  1
  O  O51  1  0.61960600  0.47351900  0.82484800  1
  O  O52  1  0.92048400  0.34442000  0.83293600  1
  O  O53  1  0.00948600  0.22918900  0.06828000  1
  O  O54  1  0.99165600  0.20813900  0.24160300  1
  O  O55  1  0.74060900  0.34328500  0.33308700  1
  O  O56  1  0.79437100  0.20086400  0.58137700  1
  O  O57  1  0.79634000  0.20061300  0.75860600  1
loop_
_geom_bond_atom_site_label_1
_geom_bond_atom_site_label_2
_geom_bond_distance
_geom_bond_site_symmetry_2
Li0 O34 1.925064 1_555
Li0 O53 1.988285 1_556
Li0 O52 2.182729 1_455
Li0 O16 2.357853 1_555
Li1 O28 1.925064 1_555
Li1 O35 1.988285 1_555
Li1 O37 2.182729 1_545
Li1 O22 2.357853 1_555
Li2 O0 1.927527 1_555
Li2 O35 2.073019 1_565
Li2 O1 2.094497 1_555
Li2 O43 2.301870 1_555
Li3 O7 1.927527 1_554
Li3 O53 2.073019 1_655
Li3 O8 2.094497 1_555
Li3 O50 2.301870 1_555
Li4 O2 1.887227 1_454
Li4 O48 1.910916 1_555
Li4 O20 2.070183 1_465
Li5 O19 1.887227 1_545
Li5 O56 1.910916 1_555
Li5 O27 2.070183 1_645
O0 P13 1.485968 1_555
O1 P1 1.563022 1_555
O1 V4 1.957151 1_555
O2 P8 1.471115 1_555
O3 P0 1.556322 1_555
O3 V2 1.859074 1_555
O4 P0 1.554369 1_555
O4 V5 1.907721 1_555
O5 P3 1.592911 1_555
O5 V4 1.833442 1_555
O6 P2 1.554369 1_555
O6 V4 1.907721 1_555
O7 P15 1.485968 1_555
O8 P5 1.563022 1_555
O8 V5 1.957151 1_555
O9 P4 1.568491 1_555
O9 V2 1.860100 1_555
O10 P1 1.574585 1_555
O10 V3 1.868876 1_455
O11 P4 1.592911 1_555
O11 V5 1.833442 1_555
O12 P3 1.481327 1_555
O13 P4 1.481327 1_555
O14 P3 1.568491 1_555
O14 V0 1.860100 1_555
O15 P7 1.538025 1_555
O15 V2 1.916011 1_555
O16 P3 1.570478 1_555
O16 V3 1.950928 1_455
O17 P2 1.556322 1_555
O17 V0 1.859074 1_555
O18 P5 1.607273 1_555
O18 P6 1.611404 1_545
O19 P6 1.471115 1_555
O20 P5 1.477421 1_555
O21 P5 1.574585 1_555
O21 V1 1.868876 1_545
O22 P4 1.570478 1_555
O22 V1 1.950928 1_545
O23 P8 1.555378 1_555
O23 V0 1.857240 1_565
O24 P9 1.538025 1_555
O24 V0 1.916011 1_555
O25 P9 1.554867 1_555
O25 V3 1.890877 1_455
O26 P1 1.607273 1_555
O26 P8 1.611404 1_455
O27 P1 1.477421 1_555
O28 P14 1.487923 1_455
O29 P6 1.555378 1_555
O29 V2 1.857240 1_655
O30 P6 1.559372 1_555
O30 V1 1.879521 1_555
O31 P7 1.554867 1_555
O31 V1 1.890877 1_545
O32 P11 1.564829 1_555
O32 V0 1.874057 1_565
O33 P10 1.545490 1_555
O33 V0 1.927018 1_565
O34 P10 1.487923 1_545
O35 P9 1.503238 1_555
O36 P9 1.604682 1_565
O36 P10 1.630265 1_555
O37 P13 1.556368 1_555
O37 V1 1.963883 1_555
O38 P12 1.564829 1_555
O38 V2 1.874057 1_655
O39 P8 1.559372 1_555
O39 V3 1.879521 1_555
O40 P12 1.596292 1_555
O40 V1 1.838208 1_555
O41 P12 1.480221 1_555
O42 P11 1.480221 1_555
O43 P11 1.574777 1_555
O43 V4 1.925640 1_555
O44 P14 1.545490 1_555
O44 V2 1.927018 1_655
O45 P11 1.596292 1_555
O45 V3 1.838208 1_555
O46 P10 1.557658 1_555
O46 V4 1.879939 1_555
O47 P13 1.599927 1_555
O47 P0 1.630990 1_555
O48 P0 1.476706 1_555
O49 P13 1.564352 1_555
O49 V5 1.860993 1_555
O50 P12 1.574777 1_555
O50 V5 1.925640 1_555
O51 P15 1.564352 1_555
O51 V4 1.860993 1_555
O52 P15 1.556368 1_555
O52 V3 1.963883 1_555
O53 P7 1.503238 1_555
O54 P7 1.604682 1_655
O54 P14 1.630265 1_555
O55 P14 1.557658 1_555
O55 V5 1.879939 1_555
O56 P2 1.476706 1_555
O57 P15 1.599927 1_555
O57 P2 1.630990 1_555
