# generated using pymatgen
data_Li2VCrP2(O4F)2
_symmetry_space_group_name_H-M   'P 1'
_cell_length_a   5.21460600
_cell_length_b   7.34627603
_cell_length_c   14.97889863
_cell_angle_alpha   93.86340375
_cell_angle_beta   92.41883165
_cell_angle_gamma   108.41380970
_symmetry_Int_Tables_number   1
_chemical_formula_structural   Li2VCrP2(O4F)2
_chemical_formula_sum   'Li6 V3 Cr3 P6 O24 F6'
_cell_volume   541.97133846
_cell_formula_units_Z   3
loop_
 _symmetry_equiv_pos_site_id
 _symmetry_equiv_pos_as_xyz
  1  'x, y, z'
loop_
 _atom_site_type_symbol
 _atom_site_label
 _atom_site_symmetry_multiplicity
 _atom_site_fract_x
 _atom_site_fract_y
 _atom_site_fract_z
 _atom_site_occupancy
  Li  Li0  1  0.93466000  0.01553000  0.20494400  1
  Li  Li1  1  0.73187100  0.65036200  0.46103200  1
  Li  Li2  1  0.39743500  0.31560000  0.12811700  1
  Li  Li3  1  0.60256500  0.68440000  0.87188300  1
  Li  Li4  1  0.26812900  0.34963800  0.53896800  1
  Li  Li5  1  0.06534000  0.98447000  0.79505600  1
  V  V0  1  0.00000000  0.50000000  0.00000000  1
  V  V1  1  0.66716700  0.66694300  0.66634500  1
  V  V2  1  0.33283300  0.33305700  0.33365500  1
  Cr  Cr0  1  0.00000000  0.00000000  0.00000000  1
  Cr  Cr1  1  0.66685300  0.16647700  0.66668200  1
  Cr  Cr2  1  0.33314700  0.83352300  0.33331800  1
  P  P0  1  0.89139200  0.45270000  0.21410200  1
  P  P1  1  0.77433800  0.21334500  0.45352100  1
  P  P2  1  0.55738600  0.11764300  0.88037500  1
  P  P3  1  0.44261400  0.88235700  0.11962500  1
  P  P4  1  0.22566200  0.78665500  0.54647900  1
  P  P5  1  0.10860800  0.54730000  0.78589800  1
  O  O0  1  0.99023700  0.34601100  0.73764900  1
  O  O1  1  0.86228600  0.21002600  0.55350300  1
  O  O2  1  0.76379300  0.00180100  0.88868400  1
  O  O3  1  0.65572100  0.01231400  0.40454100  1
  O  O4  1  0.80511900  0.45871700  0.11389400  1
  O  O5  1  0.95359200  0.67039400  0.58403600  1
  O  O6  1  0.90717500  0.66694700  0.77820000  1
  O  O7  1  0.61926100  0.33618500  0.25098400  1
  O  O8  1  0.67592000  0.32094900  0.92898900  1
  O  O9  1  0.57359700  0.33371700  0.44501500  1
  O  O10  1  0.47290600  0.12262200  0.78039000  1
  O  O11  1  0.71383200  0.99866500  0.08251700  1
  O  O12  1  0.28616800  0.00133500  0.91748300  1
  O  O13  1  0.52709400  0.87737800  0.21961000  1
  O  O14  1  0.42640300  0.66628300  0.55498500  1
  O  O15  1  0.32408000  0.67905100  0.07101100  1
  O  O16  1  0.38073900  0.66381500  0.74901600  1
  O  O17  1  0.09282500  0.33305300  0.22180000  1
  O  O18  1  0.04640800  0.32960600  0.41596400  1
  O  O19  1  0.19488100  0.54128300  0.88610600  1
  O  O20  1  0.34427900  0.98768600  0.59545900  1
  O  O21  1  0.23620700  0.99819900  0.11131600  1
  O  O22  1  0.13771400  0.78997400  0.44649700  1
  O  O23  1  0.00976300  0.65398900  0.26235100  1
  F  F0  1  0.84724700  0.71717500  0.97624900  1
  F  F1  1  0.81963200  0.95832700  0.69048200  1
  F  F2  1  0.51467700  0.37517700  0.64303900  1
  F  F3  1  0.48532300  0.62482300  0.35696100  1
  F  F4  1  0.18036800  0.04167300  0.30951800  1
  F  F5  1  0.15275300  0.28282500  0.02375100  1
loop_
_geom_bond_atom_site_label_1
_geom_bond_atom_site_label_2
_geom_bond_distance
_geom_bond_site_symmetry_2
Li0 O13 2.074114 1_545
Li0 O11 2.098876 1_545
Li0 O21 2.178122 1_645
Li0 O17 2.207423 1_655
Li1 O22 2.067804 1_655
Li1 O5 2.104582 1_555
Li1 O14 2.194598 1_555
Li1 O9 2.201128 1_555
Li2 O4 2.080057 1_555
Li2 O7 2.102454 1_555
Li2 O17 2.191174 1_555
Li2 O21 2.207185 1_545
Li3 O19 2.080057 1_555
Li3 O16 2.102454 1_555
Li3 O6 2.191174 1_555
Li3 O2 2.207185 1_565
Li4 O1 2.067804 1_455
Li4 O18 2.104582 1_555
Li4 O9 2.194598 1_555
Li4 O14 2.201128 1_555
Li5 O10 2.074114 1_565
Li5 O12 2.098876 1_565
Li5 O2 2.178122 1_465
Li5 O6 2.207423 1_455
Cr0 O12 1.975530 1_554
Cr0 O11 1.975530 1_445
Cr0 F0 1.977083 1_444
Cr0 F5 1.977083 1_555
Cr0 O2 2.034068 1_454
Cr0 O21 2.034068 1_545
Cr1 F1 1.979680 1_545
Cr1 F2 1.980854 1_555
Cr1 O20 1.989141 1_545
Cr1 O0 1.991947 1_555
Cr1 O1 2.006963 1_555
Cr1 O10 2.010248 1_555
Cr2 F4 1.979680 1_565
Cr2 F3 1.980854 1_555
Cr2 O3 1.989141 1_565
Cr2 O23 1.991947 1_555
Cr2 O22 2.006963 1_555
Cr2 O13 2.010248 1_555
O0 P5 1.526973 1_655
O1 P1 1.551708 1_555
O2 P2 1.574746 1_555
O3 P1 1.529861 1_555
O4 P0 1.556235 1_555
O4 V0 2.014077 1_655
O5 P4 1.557356 1_655
O5 V1 1.971605 1_555
O6 P5 1.573499 1_655
O6 V1 2.048542 1_555
O7 P0 1.553742 1_555
O7 V2 1.975628 1_555
O8 P2 1.541172 1_555
O8 V0 1.993212 1_656
O9 P1 1.575649 1_555
O9 V2 2.043762 1_555
O10 P2 1.549283 1_555
O11 P3 1.551182 1_555
O12 P2 1.551182 1_555
O13 P3 1.549283 1_555
O14 P4 1.575649 1_555
O14 V1 2.043762 1_555
O15 P3 1.541172 1_555
O15 V0 1.993212 1_555
O16 P5 1.553742 1_555
O16 V1 1.975628 1_555
O17 P0 1.573499 1_455
O17 V2 2.048542 1_555
O18 P1 1.557356 1_455
O18 V2 1.971605 1_555
O19 P5 1.556235 1_555
O19 V0 2.014077 1_556
O20 P4 1.529861 1_555
O21 P3 1.574746 1_555
O22 P4 1.551708 1_555
O23 P0 1.526973 1_455
F0 Li3 1.927861 1_555
F0 V0 2.040065 1_656
F1 Li5 1.940813 1_655
F1 V1 2.034997 1_555
F2 Li4 1.938351 1_555
F2 V1 2.036492 1_555
F3 Li1 1.938351 1_555
F3 V2 2.036492 1_555
F4 Li0 1.940813 1_455
F4 V2 2.034997 1_555
F5 Li2 1.927861 1_555
F5 V0 2.040065 1_555
