# generated using pymatgen
data_Li2SnCSO7
_symmetry_space_group_name_H-M   'P 1'
_cell_length_a   6.82844800
_cell_length_b   5.10979200
_cell_length_c   9.52698163
_cell_angle_alpha   89.76573391
_cell_angle_beta   90.00000000
_cell_angle_gamma   90.00000000
_symmetry_Int_Tables_number   1
_chemical_formula_structural   Li2SnCSO7
_chemical_formula_sum   'Li4 Sn2 C2 S2 O14'
_cell_volume   332.41217836
_cell_formula_units_Z   2
loop_
 _symmetry_equiv_pos_site_id
 _symmetry_equiv_pos_as_xyz
  1  'x, y, z'
loop_
 _atom_site_type_symbol
 _atom_site_label
 _atom_site_symmetry_multiplicity
 _atom_site_fract_x
 _atom_site_fract_y
 _atom_site_fract_z
 _atom_site_occupancy
  Li  Li0  1  0.52635300  0.78080100  0.81866900  1
  Li  Li1  1  0.97364700  0.78080100  0.81866900  1
  Li  Li2  1  0.47364700  0.21919900  0.18133100  1
  Li  Li3  1  0.02635300  0.21919900  0.18133100  1
  Sn  Sn0  1  0.25000000  0.23350400  0.62621100  1
  Sn  Sn1  1  0.75000000  0.76649600  0.37378900  1
  C  C0  1  0.25000000  0.23215500  0.91402400  1
  C  C1  1  0.75000000  0.76784500  0.08597600  1
  S  S0  1  0.75000000  0.23177500  0.63657700  1
  S  S1  1  0.25000000  0.76822500  0.36342300  1
  O  O0  1  0.75000000  0.77389800  0.95270300  1
  O  O1  1  0.25000000  0.01352700  0.83955300  1
  O  O2  1  0.25000000  0.45194400  0.84176800  1
  O  O3  1  0.92552400  0.08511800  0.69006200  1
  O  O4  1  0.57447600  0.08511800  0.69006200  1
  O  O5  1  0.25000000  0.77296000  0.52063000  1
  O  O6  1  0.75000000  0.50284400  0.68790100  1
  O  O7  1  0.25000000  0.49715600  0.31209900  1
  O  O8  1  0.75000000  0.22704000  0.47937000  1
  O  O9  1  0.42552400  0.91488200  0.30993800  1
  O  O10  1  0.07447600  0.91488200  0.30993800  1
  O  O11  1  0.75000000  0.54805600  0.15823200  1
  O  O12  1  0.75000000  0.98647300  0.16044700  1
  O  O13  1  0.25000000  0.22610200  0.04729700  1
loop_
_geom_bond_atom_site_label_1
_geom_bond_atom_site_label_2
_geom_bond_distance
_geom_bond_site_symmetry_2
Li0 O0 1.990898 1_555
Li0 O4 2.002903 1_565
Li0 O1 2.239794 1_565
Li0 O6 2.432289 1_555
Li0 O2 2.535768 1_555
Li1 O0 1.990898 1_555
Li1 O3 2.002903 1_565
Li1 O1 2.239794 1_665
Li1 O6 2.432289 1_555
Li1 O2 2.535768 1_655
Li2 O13 1.990898 1_555
Li2 O9 2.002903 1_545
Li2 O12 2.239794 1_545
Li2 O7 2.432289 1_555
Li2 O11 2.535768 1_555
Li3 O13 1.990898 1_555
Li3 O10 2.002903 1_545
Li3 O12 2.239794 1_445
Li3 O7 2.432289 1_555
Li3 O11 2.535768 1_455
C0 O13 1.269940 1_556
C0 O2 1.314856 1_555
C0 O1 1.325843 1_555
C1 O0 1.269940 1_554
C1 O11 1.314856 1_555
C1 O12 1.325843 1_555
O1 Sn0 2.318589 1_555
O2 Sn0 2.341348 1_555
O3 S0 1.501545 1_555
O3 Sn0 2.418749 1_655
O4 S0 1.501545 1_555
O4 Sn0 2.418749 1_555
O5 S1 1.498003 1_555
O5 Sn0 2.563020 1_565
O6 S0 1.470762 1_555
O7 S1 1.470762 1_555
O8 S0 1.498003 1_555
O8 Sn1 2.563020 1_545
O9 S1 1.501545 1_555
O9 Sn1 2.418749 1_555
O10 S1 1.501545 1_555
O10 Sn1 2.418749 1_455
O11 Sn1 2.341348 1_555
O12 Sn1 2.318589 1_555
