# generated using pymatgen
data_Li4V2Cr3Fe3O16
_symmetry_space_group_name_H-M   'P 1'
_cell_length_a   5.94516402
_cell_length_b   5.94516402
_cell_length_c   9.44971547
_cell_angle_alpha   89.35284289
_cell_angle_beta   89.35284289
_cell_angle_gamma   59.96931031
_symmetry_Int_Tables_number   1
_chemical_formula_structural   Li4V2Cr3Fe3O16
_chemical_formula_sum   'Li4 V2 Cr3 Fe3 O16'
_cell_volume   289.13837076
_cell_formula_units_Z   1
loop_
 _symmetry_equiv_pos_site_id
 _symmetry_equiv_pos_as_xyz
  1  'x, y, z'
loop_
 _atom_site_type_symbol
 _atom_site_label
 _atom_site_symmetry_multiplicity
 _atom_site_fract_x
 _atom_site_fract_y
 _atom_site_fract_z
 _atom_site_occupancy
  Li  Li0  1  0.66786200  0.66786200  0.09977600  1
  Li  Li1  1  0.99917300  0.99917300  0.00870200  1
  Li  Li2  1  0.99955800  0.99955800  0.50732400  1
  Li  Li3  1  0.33375000  0.33375000  0.60252800  1
  V  V0  1  0.66623200  0.66623200  0.50568400  1
  V  V1  1  0.33096700  0.33096700  0.00358500  1
  Cr  Cr0  1  0.34414000  0.82848700  0.78578800  1
  Cr  Cr1  1  0.82848700  0.34414000  0.78578800  1
  Cr  Cr2  1  0.17272800  0.17272800  0.28685000  1
  Fe  Fe0  1  0.82725800  0.82725800  0.77954400  1
  Fe  Fe1  1  0.17661600  0.65368700  0.28114000  1
  Fe  Fe2  1  0.65368700  0.17661600  0.28114000  1
  O  O0  1  0.34967300  0.82686300  0.40984400  1
  O  O1  1  0.52315000  0.52315000  0.65763200  1
  O  O2  1  0.66930400  0.66930400  0.89435600  1
  O  O3  1  0.99928600  0.99928600  0.69616400  1
  O  O4  1  0.99957000  0.99957000  0.19851700  1
  O  O5  1  0.82686300  0.34967300  0.40984400  1
  O  O6  1  0.51725200  0.95693900  0.65256300  1
  O  O7  1  0.95693900  0.51725200  0.65256300  1
  O  O8  1  0.17332600  0.17332600  0.90699300  1
  O  O9  1  0.82372700  0.82372700  0.41372700  1
  O  O10  1  0.04544600  0.47395900  0.15315400  1
  O  O11  1  0.47395900  0.04544600  0.15315400  1
  O  O12  1  0.33539700  0.33539700  0.39561800  1
  O  O13  1  0.17717500  0.64867000  0.91071600  1
  O  O14  1  0.48007300  0.48007300  0.14873000  1
  O  O15  1  0.64867000  0.17717500  0.91071600  1
loop_
_geom_bond_atom_site_label_1
_geom_bond_atom_site_label_2
_geom_bond_distance
_geom_bond_site_symmetry_2
Li0 O2 1.941024 1_554
Li0 O14 1.982704 1_555
Li0 O11 2.011152 1_565
Li0 O10 2.011152 1_655
Li1 O4 1.793756 1_555
Li1 O8 2.023796 1_664
Li1 O13 2.033150 1_654
Li1 O15 2.033150 1_564
Li2 O3 1.784450 1_555
Li2 O5 2.018478 1_565
Li2 O0 2.018478 1_655
Li2 O9 2.025659 1_555
Li3 O12 1.955093 1_555
Li3 O6 1.993426 1_545
Li3 O7 1.993426 1_455
Li3 O1 2.025472 1_555
Cr0 O2 1.968994 1_555
Cr0 O3 1.971742 1_455
Cr0 O6 1.990733 1_555
Cr0 O1 1.995324 1_555
Cr0 O8 2.118730 1_565
Cr0 O13 2.128146 1_555
Cr1 O2 1.968994 1_555
Cr1 O3 1.971742 1_545
Cr1 O7 1.990733 1_555
Cr1 O1 1.995324 1_555
Cr1 O8 2.118730 1_655
Cr1 O15 2.128146 1_555
Cr2 O12 1.976870 1_555
Cr2 O4 1.978859 1_445
Cr2 O10 1.997506 1_555
Cr2 O11 1.997506 1_555
Cr2 O0 2.119925 1_545
Cr2 O5 2.119925 1_455
Fe0 O3 1.929595 1_555
Fe0 O2 1.943553 1_555
Fe0 O6 2.009436 1_555
Fe0 O7 2.009436 1_555
Fe0 O15 2.192982 1_565
Fe0 O13 2.192982 1_655
Fe1 O4 1.939549 1_455
Fe1 O12 1.957292 1_555
Fe1 O14 2.000016 1_555
Fe1 O10 2.024129 1_555
Fe1 O0 2.171293 1_555
Fe1 O9 2.199920 1_455
Fe2 O4 1.939549 1_545
Fe2 O12 1.957292 1_555
Fe2 O14 2.000016 1_555
Fe2 O11 2.024129 1_555
Fe2 O5 2.171293 1_555
Fe2 O9 2.199920 1_545
O0 V0 1.869263 1_555
O1 V0 2.044014 1_555
O5 V0 1.869263 1_555
O6 V0 2.047481 1_555
O7 V0 2.047481 1_555
O8 V1 1.872871 1_556
O9 V0 1.830115 1_555
O10 V1 2.032318 1_555
O11 V1 2.032318 1_555
O13 V1 1.850893 1_556
O14 V1 2.072274 1_555
O15 V1 1.850893 1_556
