# generated using pymatgen
data_Li3VP2H2O9
_symmetry_space_group_name_H-M   'P 1'
_cell_length_a   8.08611386
_cell_length_b   8.08611386
_cell_length_c   6.87361564
_cell_angle_alpha   85.99183481
_cell_angle_beta   85.99183481
_cell_angle_gamma   53.04273794
_symmetry_Int_Tables_number   1
_chemical_formula_structural   Li3VP2H2O9
_chemical_formula_sum   'Li6 V2 P4 H4 O18'
_cell_volume   358.03728833
_cell_formula_units_Z   2
loop_
 _symmetry_equiv_pos_site_id
 _symmetry_equiv_pos_as_xyz
  1  'x, y, z'
loop_
 _atom_site_type_symbol
 _atom_site_label
 _atom_site_symmetry_multiplicity
 _atom_site_fract_x
 _atom_site_fract_y
 _atom_site_fract_z
 _atom_site_occupancy
  Li  Li0  1  0.37748900  0.37748900  0.69837500  1
  Li  Li1  1  0.00000000  0.50000000  0.50000000  1
  Li  Li2  1  0.50000000  0.00000000  0.50000000  1
  Li  Li3  1  0.62251100  0.62251100  0.30162500  1
  Li  Li4  1  0.75131800  0.24868200  0.00000000  1
  Li  Li5  1  0.24868200  0.75131800  0.00000000  1
  V  V0  1  0.50000000  0.00000000  0.00000000  1
  V  V1  1  0.00000000  0.50000000  0.00000000  1
  P  P0  1  0.88091000  0.88091000  0.69062700  1
  P  P1  1  0.39315500  0.39315500  0.23661800  1
  P  P2  1  0.60684500  0.60684500  0.76338200  1
  P  P3  1  0.11909000  0.11909000  0.30937300  1
  H  H0  1  0.94597300  0.94597300  0.36777300  1
  H  H1  1  0.80957700  0.80957700  0.21625200  1
  H  H2  1  0.19042300  0.19042300  0.78374800  1
  H  H3  1  0.05402700  0.05402700  0.63222700  1
  O  O0  1  0.97635900  0.97635900  0.77382500  1
  O  O1  1  0.49866000  0.49866000  0.23651400  1
  O  O2  1  0.88414300  0.88414300  0.45952800  1
  O  O3  1  0.64730800  0.00460000  0.74743900  1
  O  O4  1  0.00460000  0.64730800  0.74743900  1
  O  O5  1  0.33662700  0.33662700  0.43743500  1
  O  O6  1  0.54566500  0.18946200  0.11873200  1
  O  O7  1  0.18946200  0.54566500  0.11873200  1
  O  O8  1  0.24255800  0.24255800  0.86606000  1
  O  O9  1  0.75744200  0.75744200  0.13394000  1
  O  O10  1  0.81053800  0.45433500  0.88126800  1
  O  O11  1  0.45433500  0.81053800  0.88126800  1
  O  O12  1  0.66337300  0.66337300  0.56256500  1
  O  O13  1  0.35269200  0.99540000  0.25256100  1
  O  O14  1  0.99540000  0.35269200  0.25256100  1
  O  O15  1  0.11585700  0.11585700  0.54047200  1
  O  O16  1  0.50134000  0.50134000  0.76348600  1
  O  O17  1  0.02364100  0.02364100  0.22617500  1
loop_
_geom_bond_atom_site_label_1
_geom_bond_atom_site_label_2
_geom_bond_distance
_geom_bond_site_symmetry_2
Li0 O16 1.880823 1_555
Li0 O5 1.931923 1_555
Li0 O8 2.188414 1_555
Li0 O3 2.452728 1_555
Li0 O4 2.452728 1_555
Li1 O4 2.158305 1_555
Li1 O14 2.158305 1_455
Li1 O5 2.220663 1_555
Li1 O12 2.220663 1_455
Li2 O3 2.158305 1_555
Li2 O13 2.158305 1_545
Li2 O5 2.220663 1_555
Li2 O12 2.220663 1_545
Li3 O1 1.880823 1_555
Li3 O12 1.931923 1_555
Li3 O9 2.188414 1_555
Li3 O14 2.452728 1_555
Li3 O13 2.452728 1_555
Li4 O10 2.091377 1_554
Li4 O6 2.091377 1_555
Li4 O0 2.417033 1_544
Li4 O17 2.417033 1_655
Li4 O16 2.435596 1_554
Li4 O1 2.435596 1_555
Li5 O11 2.091377 1_554
Li5 O7 2.091377 1_555
Li5 O17 2.417033 1_565
Li5 O0 2.417033 1_454
Li5 O16 2.435596 1_554
Li5 O1 2.435596 1_555
H0 O2 1.053614 1_555
H0 O17 1.428114 1_665
H1 O9 0.977720 1_555
H2 O8 0.977720 1_555
H3 O15 1.053614 1_555
H3 O0 1.428114 1_445
O0 P0 1.535615 1_555
O1 P1 1.526643 1_555
O2 P0 1.585517 1_555
O3 P0 1.549409 1_545
O3 V0 2.046732 1_556
O4 P0 1.549409 1_455
O4 V1 2.046732 1_556
O5 P1 1.548555 1_555
O6 P1 1.579486 1_555
O6 V0 2.011614 1_555
O7 P1 1.579486 1_555
O7 V1 2.011614 1_555
O8 V0 2.033220 1_556
O8 V1 2.033220 1_556
O9 V1 2.033220 1_655
O9 V0 2.033220 1_565
O10 P2 1.579486 1_555
O10 V1 2.011614 1_656
O11 P2 1.579486 1_555
O11 V0 2.011614 1_566
O12 P2 1.548555 1_555
O13 P3 1.549409 1_565
O13 V0 2.046732 1_565
O14 P3 1.549409 1_655
O14 V1 2.046732 1_655
O15 P3 1.585517 1_555
O16 P2 1.526643 1_555
O17 P3 1.535615 1_555
