# generated using pymatgen
data_Ce3Th2O9
_symmetry_space_group_name_H-M   'P 1'
_cell_length_a   6.86271309
_cell_length_b   6.86271309
_cell_length_c   9.68830494
_cell_angle_alpha   61.85225202
_cell_angle_beta   61.85225202
_cell_angle_gamma   33.25249655
_symmetry_Int_Tables_number   1
_chemical_formula_structural   Ce3Th2O9
_chemical_formula_sum   'Ce3 Th2 O9'
_cell_volume   217.77313529
_cell_formula_units_Z   1
loop_
 _symmetry_equiv_pos_site_id
 _symmetry_equiv_pos_as_xyz
  1  'x, y, z'
loop_
 _atom_site_type_symbol
 _atom_site_label
 _atom_site_symmetry_multiplicity
 _atom_site_fract_x
 _atom_site_fract_y
 _atom_site_fract_z
 _atom_site_occupancy
  Ce  Ce0  1  0.01044800  0.01044800  0.98569900  1
  Ce  Ce1  1  0.18384800  0.18384800  0.20433400  1
  Ce  Ce2  1  0.39657200  0.39657200  0.41611700  1
  Th  Th0  1  0.60629300  0.60629300  0.59060700  1
  Th  Th1  1  0.80485200  0.80485200  0.80591900  1
  O  O0  1  0.81296900  0.81296900  0.05913100  1
  O  O1  1  0.59274700  0.59274700  0.35200600  1
  O  O2  1  0.21292800  0.21292800  0.42840500  1
  O  O3  1  0.98578300  0.98578300  0.24030200  1
  O  O4  1  0.79594000  0.79594000  0.56437700  1
  O  O5  1  0.01036600  0.01036600  0.73624500  1
  O  O6  1  0.40198700  0.40198700  0.65544600  1
  O  O7  1  0.20520900  0.20520900  0.95119400  1
  O  O8  1  0.59406100  0.59406100  0.86379400  1
loop_
_geom_bond_atom_site_label_1
_geom_bond_atom_site_label_2
_geom_bond_distance
_geom_bond_site_symmetry_2
Ce0 O8 2.276192 1_455
Ce0 O8 2.276192 1_545
Ce0 O3 2.324181 1_446
Ce0 O0 2.330671 1_446
Ce0 O7 2.414430 1_555
Ce0 O5 2.417318 1_555
Ce1 O7 2.327069 1_554
Ce1 O1 2.377034 1_545
Ce1 O1 2.377034 1_455
Ce1 O2 2.382529 1_555
Ce1 O3 2.452138 1_445
Ce1 O0 2.523135 1_545
Ce1 O0 2.523135 1_455
Ce2 O1 2.337591 1_555
Ce2 O6 2.354570 1_555
Ce2 O2 2.358875 1_555
Ce2 O4 2.408047 1_545
Ce2 O4 2.408047 1_455
Ce2 O3 2.483121 1_545
Ce2 O3 2.483121 1_455
O0 Th1 2.507474 1_554
O1 Th0 2.404354 1_555
O2 Th0 2.474267 1_545
O2 Th0 2.474267 1_455
O4 Th0 2.379350 1_555
O4 Th1 2.400006 1_555
O5 Th0 2.384424 1_545
O5 Th0 2.384424 1_455
O5 Th1 2.442230 1_445
O6 Th1 2.403997 1_455
O6 Th1 2.403997 1_545
O6 Th0 2.439735 1_555
O7 Th1 2.395392 1_545
O7 Th1 2.395392 1_455
O8 Th1 2.543445 1_555
O8 Th0 2.571333 1_555
