# generated using pymatgen
data_Na3CoO3
_symmetry_space_group_name_H-M   'P 1'
_cell_length_a   9.63011700
_cell_length_b   6.44379900
_cell_length_c   6.89606541
_cell_angle_alpha   63.84298775
_cell_angle_beta   90.00000000
_cell_angle_gamma   90.00000000
_symmetry_Int_Tables_number   1
_chemical_formula_structural   Na3CoO3
_chemical_formula_sum   'Na12 Co4 O12'
_cell_volume   384.10735304
_cell_formula_units_Z   4
loop_
 _symmetry_equiv_pos_site_id
 _symmetry_equiv_pos_as_xyz
  1  'x, y, z'
loop_
 _atom_site_type_symbol
 _atom_site_label
 _atom_site_symmetry_multiplicity
 _atom_site_fract_x
 _atom_site_fract_y
 _atom_site_fract_z
 _atom_site_occupancy
  Na  Na0  1  0.21006700  0.03594300  0.99129200  1
  Na  Na1  1  0.28993300  0.53594300  0.99129200  1
  Na  Na2  1  0.05786100  0.24939200  0.23833300  1
  Na  Na3  1  0.78077400  0.20916500  0.46387800  1
  Na  Na4  1  0.44213900  0.74939200  0.23833300  1
  Na  Na5  1  0.28077400  0.29083500  0.53612200  1
  Na  Na6  1  0.71922600  0.70916500  0.46387800  1
  Na  Na7  1  0.55786100  0.25060800  0.76166700  1
  Na  Na8  1  0.21922600  0.79083500  0.53612200  1
  Na  Na9  1  0.94213900  0.75060800  0.76166700  1
  Na  Na10  1  0.71006700  0.46405700  0.00870800  1
  Na  Na11  1  0.78993300  0.96405700  0.00870800  1
  Co  Co0  1  0.48665000  0.18212800  0.27045300  1
  Co  Co1  1  0.01335000  0.68212800  0.27045300  1
  Co  Co2  1  0.98665000  0.31787200  0.72954700  1
  Co  Co3  1  0.51335000  0.81787200  0.72954700  1
  O  O0  1  0.60971500  0.04632600  0.17264600  1
  O  O1  1  0.30403400  0.13892200  0.26055500  1
  O  O2  1  0.89028500  0.54632600  0.17264600  1
  O  O3  1  0.55425700  0.39968100  0.33515700  1
  O  O4  1  0.19596600  0.63892200  0.26055500  1
  O  O5  1  0.05425700  0.10031900  0.66484300  1
  O  O6  1  0.94574300  0.89968100  0.33515700  1
  O  O7  1  0.80403400  0.36107800  0.73944500  1
  O  O8  1  0.44574300  0.60031900  0.66484300  1
  O  O9  1  0.10971500  0.45367400  0.82735400  1
  O  O10  1  0.69596600  0.86107800  0.73944500  1
  O  O11  1  0.39028500  0.95367400  0.82735400  1
loop_
_geom_bond_atom_site_label_1
_geom_bond_atom_site_label_2
_geom_bond_distance
_geom_bond_site_symmetry_2
Na0 O11 2.258219 1_545
Na0 O1 2.406963 1_556
Na0 O4 2.413105 1_546
Na0 O5 2.582266 1_555
Na0 O9 2.602817 1_555
Na1 O9 2.258219 1_555
Na1 O4 2.406963 1_556
Na1 O1 2.413105 1_556
Na1 O8 2.582266 1_555
Na1 O11 2.602817 1_555
Na2 O6 2.315841 1_445
Na2 O2 2.388794 1_455
Na2 O1 2.460514 1_555
Na2 O9 2.593305 1_554
Na2 O5 2.661548 1_555
Na3 O10 2.356115 1_545
Na3 O2 2.453334 1_555
Na3 O3 2.468345 1_555
Na3 O7 2.501950 1_555
Na3 O5 2.914070 1_655
Na3 O6 2.974832 1_545
Na4 O3 2.315841 1_555
Na4 O0 2.388794 1_565
Na4 O4 2.460514 1_555
Na4 O11 2.593305 1_554
Na4 O8 2.661548 1_555
Na5 O4 2.356115 1_555
Na5 O11 2.453334 1_545
Na5 O5 2.468345 1_555
Na5 O1 2.501950 1_555
Na5 O3 2.914070 1_555
Na5 O8 2.974832 1_555
Na6 O7 2.356115 1_555
Na6 O0 2.453334 1_565
Na6 O6 2.468345 1_555
Na6 O10 2.501950 1_555
Na6 O8 2.914070 1_555
Na6 O3 2.974832 1_555
Na7 O8 2.315841 1_555
Na7 O11 2.388794 1_545
Na7 O7 2.460514 1_555
Na7 O0 2.593305 1_556
Na7 O3 2.661548 1_555
Na8 O1 2.356115 1_565
Na8 O9 2.453334 1_555
Na8 O8 2.468345 1_555
Na8 O4 2.501950 1_555
Na8 O6 2.914070 1_455
Na8 O5 2.974832 1_565
Na9 O5 2.315841 1_665
Na9 O9 2.388794 1_655
Na9 O10 2.460514 1_555
Na9 O2 2.593305 1_556
Na9 O6 2.661548 1_555
Na10 O2 2.258219 1_555
Na10 O7 2.406963 1_554
Na10 O10 2.413105 1_554
Na10 O3 2.582266 1_555
Na10 O0 2.602817 1_555
Na11 O0 2.258219 1_565
Na11 O10 2.406963 1_554
Na11 O7 2.413105 1_564
Na11 O6 2.582266 1_555
Na11 O2 2.602817 1_555
Co0 O3 1.771923 1_555
Co0 O0 1.773587 1_555
Co0 O1 1.786518 1_555
Co1 O6 1.771923 1_455
Co1 O2 1.773587 1_455
Co1 O4 1.786518 1_555
Co2 O5 1.771923 1_655
Co2 O9 1.773587 1_655
Co2 O7 1.786518 1_555
Co3 O8 1.771923 1_555
Co3 O11 1.773587 1_555
Co3 O10 1.786518 1_555
