# generated using pymatgen
data_CrCoO4
_symmetry_space_group_name_H-M   'P 1'
_cell_length_a   4.95128700
_cell_length_b   6.08363700
_cell_length_c   10.46366000
_cell_angle_alpha   90.00000000
_cell_angle_beta   90.00000000
_cell_angle_gamma   90.00000000
_symmetry_Int_Tables_number   1
_chemical_formula_structural   CrCoO4
_chemical_formula_sum   'Cr4 Co4 O16'
_cell_volume   315.18461690
_cell_formula_units_Z   4
loop_
 _symmetry_equiv_pos_site_id
 _symmetry_equiv_pos_as_xyz
  1  'x, y, z'
loop_
 _atom_site_type_symbol
 _atom_site_label
 _atom_site_symmetry_multiplicity
 _atom_site_fract_x
 _atom_site_fract_y
 _atom_site_fract_z
 _atom_site_occupancy
  Cr  Cr0  1  0.40795200  0.75000000  0.40581100  1
  Cr  Cr1  1  0.09204800  0.75000000  0.90581100  1
  Cr  Cr2  1  0.90795200  0.25000000  0.09418900  1
  Cr  Cr3  1  0.59204800  0.25000000  0.59418900  1
  Co  Co0  1  0.97340600  0.75000000  0.23090900  1
  Co  Co1  1  0.52659400  0.75000000  0.73090900  1
  Co  Co2  1  0.47340600  0.25000000  0.26909100  1
  Co  Co3  1  0.02659400  0.25000000  0.76909100  1
  O  O0  1  0.27367000  0.53088200  0.32825200  1
  O  O1  1  0.22633000  0.53088200  0.82825200  1
  O  O2  1  0.16947100  0.75000000  0.05967200  1
  O  O3  1  0.73797100  0.75000000  0.38909100  1
  O  O4  1  0.76202900  0.75000000  0.88909100  1
  O  O5  1  0.33052900  0.75000000  0.55967200  1
  O  O6  1  0.27367000  0.96911800  0.32825200  1
  O  O7  1  0.22633000  0.96911800  0.82825200  1
  O  O8  1  0.72633000  0.03088200  0.67174800  1
  O  O9  1  0.77367000  0.03088200  0.17174800  1
  O  O10  1  0.83052900  0.25000000  0.94032800  1
  O  O11  1  0.66947100  0.25000000  0.44032800  1
  O  O12  1  0.23797100  0.25000000  0.11090900  1
  O  O13  1  0.26202900  0.25000000  0.61090900  1
  O  O14  1  0.77367000  0.46911800  0.17174800  1
  O  O15  1  0.72633000  0.46911800  0.67174800  1
loop_
_geom_bond_atom_site_label_1
_geom_bond_atom_site_label_2
_geom_bond_distance
_geom_bond_site_symmetry_2
Cr0 O3 1.643358 1_555
Cr0 O5 1.654959 1_555
Cr0 O6 1.696363 1_555
Cr0 O0 1.696363 1_555
Cr1 O4 1.643358 1_455
Cr1 O2 1.654959 1_556
Cr1 O7 1.696363 1_555
Cr1 O1 1.696363 1_555
Cr2 O12 1.643358 1_655
Cr2 O10 1.654959 1_554
Cr2 O9 1.696363 1_555
Cr2 O14 1.696363 1_555
Cr3 O13 1.643358 1_555
Cr3 O11 1.654959 1_555
Cr3 O15 1.696363 1_555
Cr3 O8 1.696363 1_555
Co0 O3 2.024459 1_555
Co0 O2 2.037849 1_655
Co0 O14 2.069101 1_555
Co0 O9 2.069101 1_565
Co0 O0 2.241587 1_655
Co0 O6 2.241587 1_655
Co1 O4 2.024459 1_555
Co1 O5 2.037849 1_555
Co1 O15 2.069101 1_555
Co1 O8 2.069101 1_565
Co1 O7 2.241587 1_555
Co1 O1 2.241587 1_555
Co2 O12 2.024459 1_555
Co2 O11 2.037849 1_555
Co2 O0 2.069101 1_555
Co2 O6 2.069101 1_545
Co2 O14 2.241587 1_555
Co2 O9 2.241587 1_555
Co3 O13 2.024459 1_555
Co3 O10 2.037849 1_455
Co3 O7 2.069101 1_545
Co3 O1 2.069101 1_555
Co3 O15 2.241587 1_455
Co3 O8 2.241587 1_455
