# generated using pymatgen
data_Li3Mn4F15
_symmetry_space_group_name_H-M   'P 1'
_cell_length_a   3.94353200
_cell_length_b   17.90613300
_cell_length_c   17.97340200
_cell_angle_alpha   90.00000000
_cell_angle_beta   90.00000000
_cell_angle_gamma   90.00000000
_symmetry_Int_Tables_number   1
_chemical_formula_structural   Li3Mn4F15
_chemical_formula_sum   'Li12 Mn16 F60'
_cell_volume   1269.16317723
_cell_formula_units_Z   4
loop_
 _symmetry_equiv_pos_site_id
 _symmetry_equiv_pos_as_xyz
  1  'x, y, z'
loop_
 _atom_site_type_symbol
 _atom_site_label
 _atom_site_symmetry_multiplicity
 _atom_site_fract_x
 _atom_site_fract_y
 _atom_site_fract_z
 _atom_site_occupancy
  Li  Li0  1  0.00000000  0.00535400  0.17855300  1
  Li  Li1  1  0.00000000  0.33920200  0.02470200  1
  Li  Li2  1  0.00000000  0.31591200  0.40765100  1
  Li  Li3  1  0.00000000  0.50897000  0.37082900  1
  Li  Li4  1  0.00000000  0.81204800  0.13326200  1
  Li  Li5  1  0.00000000  0.80811600  0.51770300  1
  Li  Li6  1  0.50000000  0.49103000  0.87082900  1
  Li  Li7  1  0.50000000  0.66079800  0.52470200  1
  Li  Li8  1  0.50000000  0.68408800  0.90765100  1
  Li  Li9  1  0.50000000  0.19188400  0.01770300  1
  Li  Li10  1  0.50000000  0.18795200  0.63326200  1
  Li  Li11  1  0.50000000  0.99464600  0.67855300  1
  Mn  Mn0  1  0.00000000  0.02623500  0.82301200  1
  Mn  Mn1  1  0.00000000  0.96333300  0.02350000  1
  Mn  Mn2  1  0.00000000  0.46469900  0.52536000  1
  Mn  Mn3  1  0.00000000  0.31482800  0.67425800  1
  Mn  Mn4  1  0.00000000  0.23918400  0.88009900  1
  Mn  Mn5  1  0.00000000  0.52504600  0.72763000  1
  Mn  Mn6  1  0.00000000  0.73477200  0.66788300  1
  Mn  Mn7  1  0.00000000  0.81448200  0.87217800  1
  Mn  Mn8  1  0.50000000  0.26522800  0.16788300  1
  Mn  Mn9  1  0.50000000  0.47495400  0.22763000  1
  Mn  Mn10  1  0.50000000  0.68517200  0.17425800  1
  Mn  Mn11  1  0.50000000  0.03666700  0.52350000  1
  Mn  Mn12  1  0.50000000  0.18551800  0.37217800  1
  Mn  Mn13  1  0.50000000  0.53530100  0.02536000  1
  Mn  Mn14  1  0.50000000  0.76081600  0.38009900  1
  Mn  Mn15  1  0.50000000  0.97376500  0.32301200  1
  F  F0  1  0.00000000  0.05008500  0.07811500  1
  F  F1  1  0.00000000  0.27037200  0.16321700  1
  F  F2  1  0.00000000  0.03708500  0.51816400  1
  F  F3  1  0.00000000  0.53273000  0.03146500  1
  F  F4  1  0.00000000  0.19769400  0.37674800  1
  F  F5  1  0.00000000  0.47397300  0.23468000  1
  F  F6  1  0.00000000  0.01068100  0.71806600  1
  F  F7  1  0.00000000  0.69682000  0.16989600  1
  F  F8  1  0.00000000  0.41605500  0.42483300  1
  F  F9  1  0.00000000  0.21630900  0.63478800  1
  F  F10  1  0.00000000  0.91312200  0.12177400  1
  F  F11  1  0.00000000  0.36878500  0.57029300  1
  F  F12  1  0.00000000  0.02478600  0.92900800  1
  F  F13  1  0.00000000  0.14286200  0.83679100  1
  F  F14  1  0.00000000  0.55388700  0.47310900  1
  F  F15  1  0.00000000  0.27668400  0.78155800  1
  F  F16  1  0.00000000  0.76539100  0.38815800  1
  F  F17  1  0.00000000  0.52716300  0.62243500  1
  F  F18  1  0.00000000  0.41042500  0.71598600  1
  F  F19  1  0.00000000  0.20477200  0.98253500  1
  F  F20  1  0.00000000  0.33522600  0.91912800  1
  F  F21  1  0.00000000  0.97265200  0.31536700  1
  F  F22  1  0.00000000  0.69339100  0.56588500  1
  F  F23  1  0.00000000  0.50752000  0.83155500  1
  F  F24  1  0.00000000  0.64154500  0.71793800  1
  F  F25  1  0.00000000  0.82680000  0.62224700  1
  F  F26  1  0.00000000  0.77918700  0.76434700  1
  F  F27  1  0.00000000  0.71454600  0.90813700  1
  F  F28  1  0.00000000  0.91048500  0.83268900  1
  F  F29  1  0.00000000  0.86679800  0.97726800  1
  F  F30  1  0.50000000  0.22081300  0.26434700  1
  F  F31  1  0.50000000  0.28545400  0.40813700  1
  F  F32  1  0.50000000  0.30660900  0.06588500  1
  F  F33  1  0.50000000  0.23460900  0.88815800  1
  F  F34  1  0.50000000  0.08687800  0.62177400  1
  F  F35  1  0.50000000  0.35845500  0.21793800  1
  F  F36  1  0.50000000  0.63121500  0.07029300  1
  F  F37  1  0.50000000  0.66477400  0.41912800  1
  F  F38  1  0.50000000  0.72331600  0.28155800  1
  F  F39  1  0.50000000  0.58394500  0.92483300  1
  F  F40  1  0.50000000  0.08951500  0.33268900  1
  F  F41  1  0.50000000  0.13320200  0.47726800  1
  F  F42  1  0.50000000  0.30318000  0.66989600  1
  F  F43  1  0.50000000  0.44611300  0.97310900  1
  F  F44  1  0.50000000  0.47283700  0.12243500  1
  F  F45  1  0.50000000  0.98931900  0.21806600  1
  F  F46  1  0.50000000  0.02734800  0.81536700  1
  F  F47  1  0.50000000  0.49248000  0.33155500  1
  F  F48  1  0.50000000  0.58957500  0.21598600  1
  F  F49  1  0.50000000  0.46727000  0.53146500  1
  F  F50  1  0.50000000  0.78369100  0.13478800  1
  F  F51  1  0.50000000  0.52602700  0.73468000  1
  F  F52  1  0.50000000  0.79522800  0.48253500  1
  F  F53  1  0.50000000  0.85713800  0.33679100  1
  F  F54  1  0.50000000  0.72962800  0.66321700  1
  F  F55  1  0.50000000  0.94991500  0.57811500  1
  F  F56  1  0.50000000  0.80230600  0.87674800  1
  F  F57  1  0.50000000  0.17320000  0.12224700  1
  F  F58  1  0.50000000  0.97521400  0.42900800  1
  F  F59  1  0.50000000  0.96291500  0.01816400  1
loop_
_geom_bond_atom_site_label_1
_geom_bond_atom_site_label_2
_geom_bond_distance
_geom_bond_site_symmetry_2
F0 Mn1 1.837553 1_545
F0 Li0 1.974925 1_555
F1 Mn8 1.975697 1_455
F1 Mn8 1.975697 1_555
F2 Mn11 1.974111 1_455
F2 Mn11 1.974111 1_555
F3 Mn13 1.975353 1_555
F3 Mn13 1.975353 1_455
F4 Mn12 1.985483 1_455
F4 Mn12 1.985483 1_555
F4 Li2 2.188484 1_555
F5 Mn9 1.975911 1_555
F5 Mn9 1.975911 1_455
F6 Mn0 1.906688 1_555
F6 Li11 2.115340 1_545
F6 Li11 2.115340 1_445
F7 Mn10 1.984316 1_455
F7 Mn10 1.984316 1_555
F7 Li4 2.165802 1_555
F8 Li2 1.819572 1_555
F8 Li3 1.926186 1_555
F8 Mn2 2.005806 1_555
F9 Mn3 1.901392 1_555
F9 Li10 2.036280 1_555
F9 Li10 2.036280 1_455
F10 Li4 1.821585 1_555
F10 Li0 1.941380 1_565
F10 Mn1 1.981977 1_555
F11 Mn2 1.897853 1_555
F11 Mn3 2.103604 1_555
F12 Mn0 1.905285 1_555
F12 Mn1 2.023664 1_546
F13 Mn4 1.892266 1_555
F13 Mn0 2.102972 1_555
F14 Mn2 1.852676 1_555
F14 Li3 2.006564 1_555
F15 Mn4 1.894133 1_555
F15 Mn3 2.045921 1_555
F16 Mn14 1.978776 1_455
F16 Mn14 1.978776 1_555
F16 Li5 2.450830 1_555
F17 Mn5 1.891092 1_555
F17 Mn2 2.072494 1_555
F18 Mn3 1.868865 1_555
F18 Mn5 2.063061 1_555
F19 Mn4 1.941500 1_555
F19 Li9 2.083424 1_556
F19 Li9 2.083424 1_456
F20 Mn4 1.857307 1_555
F20 Li1 1.898859 1_556
F21 Mn15 1.976648 1_555
F21 Mn15 1.976648 1_455
F22 Mn6 1.977334 1_555
F22 Li7 2.185489 1_455
F22 Li7 2.185489 1_555
F22 Li5 2.229354 1_555
F23 Mn5 1.894065 1_555
F23 Li6 2.115023 1_555
F23 Li6 2.115023 1_455
F24 Mn6 1.896329 1_555
F24 Mn5 2.093307 1_555
F25 Mn6 1.840719 1_555
F25 Li5 1.908563 1_555
F26 Mn6 1.907490 1_555
F26 Mn7 2.038532 1_555
F27 Mn7 1.902605 1_555
F27 Li8 2.045821 1_555
F27 Li8 2.045821 1_455
F28 Mn7 1.859800 1_555
F28 Mn0 2.079920 1_565
F29 Mn1 1.917921 1_556
F29 Mn7 2.108367 1_555
F30 Mn8 1.907490 1_555
F30 Mn12 2.038532 1_555
F31 Mn12 1.902605 1_555
F31 Li2 2.045821 1_555
F31 Li2 2.045821 1_655
F32 Mn8 1.977334 1_555
F32 Li1 2.185489 1_555
F32 Li1 2.185489 1_655
F32 Li9 2.229354 1_555
F33 Mn4 1.978776 1_555
F33 Mn4 1.978776 1_655
F33 Li9 2.450830 1_556
F34 Li10 1.821585 1_555
F34 Li11 1.941380 1_545
F34 Mn11 1.981977 1_555
F35 Mn8 1.896329 1_555
F35 Mn9 2.093307 1_555
F36 Mn13 1.897853 1_555
F36 Mn10 2.103604 1_555
F37 Mn14 1.857307 1_555
F37 Li7 1.898859 1_555
F38 Mn14 1.894133 1_555
F38 Mn10 2.045921 1_555
F39 Li8 1.819572 1_555
F39 Li6 1.926186 1_555
F39 Mn13 2.005806 1_556
F40 Mn12 1.859800 1_555
F40 Mn15 2.079920 1_545
F41 Mn11 1.917921 1_555
F41 Mn12 2.108367 1_555
F42 Mn3 1.984316 1_555
F42 Mn3 1.984316 1_655
F42 Li10 2.165802 1_555
F43 Mn13 1.852676 1_556
F43 Li6 2.006564 1_555
F44 Mn9 1.891092 1_555
F44 Mn13 2.072494 1_555
F45 Mn15 1.906688 1_555
F45 Li0 2.115340 1_665
F45 Li0 2.115340 1_565
F46 Mn0 1.976648 1_555
F46 Mn0 1.976648 1_655
F47 Mn9 1.894065 1_555
F47 Li3 2.115023 1_555
F47 Li3 2.115023 1_655
F48 Mn10 1.868865 1_555
F48 Mn9 2.063061 1_555
F49 Mn2 1.975353 1_555
F49 Mn2 1.975353 1_655
F50 Mn10 1.901392 1_555
F50 Li4 2.036280 1_555
F50 Li4 2.036280 1_655
F51 Mn5 1.975911 1_655
F51 Mn5 1.975911 1_555
F52 Mn14 1.941500 1_555
F52 Li5 2.083424 1_555
F52 Li5 2.083424 1_655
F53 Mn14 1.892266 1_555
F53 Mn15 2.102972 1_555
F54 Mn6 1.975697 1_555
F54 Mn6 1.975697 1_655
F55 Mn11 1.837553 1_565
F55 Li11 1.974925 1_555
F56 Mn7 1.985483 1_655
F56 Mn7 1.985483 1_555
F56 Li8 2.188484 1_555
F57 Mn8 1.840719 1_555
F57 Li9 1.908563 1_555
F58 Mn15 1.905285 1_555
F58 Mn11 2.023664 1_565
F59 Mn1 1.974111 1_555
F59 Mn1 1.974111 1_655
