# generated using pymatgen
data_Li2Cu3F8
_symmetry_space_group_name_H-M   'P 1'
_cell_length_a   8.53190300
_cell_length_b   8.53190300
_cell_length_c   8.53190300
_cell_angle_alpha   90.00000000
_cell_angle_beta   90.00000000
_cell_angle_gamma   90.00000000
_symmetry_Int_Tables_number   1
_chemical_formula_structural   Li2Cu3F8
_chemical_formula_sum   'Li8 Cu12 F32'
_cell_volume   621.06596166
_cell_formula_units_Z   4
loop_
 _symmetry_equiv_pos_site_id
 _symmetry_equiv_pos_as_xyz
  1  'x, y, z'
loop_
 _atom_site_type_symbol
 _atom_site_label
 _atom_site_symmetry_multiplicity
 _atom_site_fract_x
 _atom_site_fract_y
 _atom_site_fract_z
 _atom_site_occupancy
  Li  Li0  1  0.00710100  0.49289900  0.50710100  1
  Li  Li1  1  0.24289900  0.74289900  0.75710100  1
  Li  Li2  1  0.25710100  0.25710100  0.25710100  1
  Li  Li3  1  0.49289900  0.50710100  0.00710100  1
  Li  Li4  1  0.50710100  0.00710100  0.49289900  1
  Li  Li5  1  0.74289900  0.75710100  0.24289900  1
  Li  Li6  1  0.75710100  0.24289900  0.74289900  1
  Li  Li7  1  0.99289900  0.99289900  0.99289900  1
  Cu  Cu0  1  0.10959100  0.62500000  0.14040900  1
  Cu  Cu1  1  0.12500000  0.35959100  0.89040900  1
  Cu  Cu2  1  0.14040900  0.10959100  0.62500000  1
  Cu  Cu3  1  0.35959100  0.89040900  0.12500000  1
  Cu  Cu4  1  0.37500000  0.64040900  0.39040900  1
  Cu  Cu5  1  0.39040900  0.37500000  0.64040900  1
  Cu  Cu6  1  0.60959100  0.87500000  0.85959100  1
  Cu  Cu7  1  0.62500000  0.14040900  0.10959100  1
  Cu  Cu8  1  0.64040900  0.39040900  0.37500000  1
  Cu  Cu9  1  0.85959100  0.60959100  0.87500000  1
  Cu  Cu10  1  0.87500000  0.85959100  0.60959100  1
  Cu  Cu11  1  0.89040900  0.12500000  0.35959100  1
  F  F0  1  0.10553800  0.87376900  0.63145600  1
  F  F1  1  0.11198800  0.61198800  0.88801200  1
  F  F2  1  0.11854400  0.12376900  0.85553800  1
  F  F3  1  0.12623100  0.13145600  0.39446200  1
  F  F4  1  0.12376900  0.85553800  0.11854400  1
  F  F5  1  0.13145600  0.39446200  0.12623100  1
  F  F6  1  0.13801200  0.36198800  0.63801200  1
  F  F7  1  0.14446200  0.61854400  0.37623100  1
  F  F8  1  0.35553800  0.38145600  0.87623100  1
  F  F9  1  0.36198800  0.63801200  0.13801200  1
  F  F10  1  0.36854400  0.60553800  0.62623100  1
  F  F11  1  0.37623100  0.14446200  0.61854400  1
  F  F12  1  0.37376900  0.86854400  0.89446200  1
  F  F13  1  0.38145600  0.87623100  0.35553800  1
  F  F14  1  0.38801200  0.38801200  0.38801200  1
  F  F15  1  0.39446200  0.12623100  0.13145600  1
  F  F16  1  0.60553800  0.62623100  0.36854400  1
  F  F17  1  0.61198800  0.88801200  0.11198800  1
  F  F18  1  0.61854400  0.37623100  0.14446200  1
  F  F19  1  0.62623100  0.36854400  0.60553800  1
  F  F20  1  0.62376900  0.64446200  0.88145600  1
  F  F21  1  0.63145600  0.10553800  0.87376900  1
  F  F22  1  0.63801200  0.13801200  0.36198800  1
  F  F23  1  0.64446200  0.88145600  0.62376900  1
  F  F24  1  0.85553800  0.11854400  0.12376900  1
  F  F25  1  0.86198800  0.86198800  0.86198800  1
  F  F26  1  0.86854400  0.89446200  0.37376900  1
  F  F27  1  0.87623100  0.35553800  0.38145600  1
  F  F28  1  0.87376900  0.63145600  0.10553800  1
  F  F29  1  0.88145600  0.62376900  0.64446200  1
  F  F30  1  0.88801200  0.11198800  0.61198800  1
  F  F31  1  0.89446200  0.37376900  0.86854400  1
loop_
_geom_bond_atom_site_label_1
_geom_bond_atom_site_label_2
_geom_bond_distance
_geom_bond_site_symmetry_2
Cu0 F4 1.979454 1_555
Cu0 F5 1.979454 1_555
Cu0 F28 2.034634 1_455
Cu0 F7 2.034634 1_555
Cu0 F9 2.156383 1_555
Cu0 F1 2.156383 1_554
Cu1 F8 1.979454 1_555
Cu1 F31 1.979454 1_455
Cu1 F5 2.034634 1_556
Cu1 F2 2.034634 1_555
Cu1 F1 2.156383 1_555
Cu1 F6 2.156383 1_555
Cu2 F3 1.979454 1_555
Cu2 F2 1.979454 1_555
Cu2 F0 2.034634 1_545
Cu2 F11 2.034634 1_555
Cu2 F30 2.156383 1_455
Cu2 F6 2.156383 1_555
Cu3 F13 1.979454 1_555
Cu3 F12 1.979454 1_554
Cu3 F4 2.034634 1_555
Cu3 F15 2.034634 1_565
Cu3 F17 2.156383 1_555
Cu3 F9 2.156383 1_555
Cu4 F7 1.979454 1_555
Cu4 F16 1.979454 1_555
Cu4 F13 2.034634 1_555
Cu4 F10 2.034634 1_555
Cu4 F9 2.156383 1_555
Cu4 F14 2.156383 1_555
Cu5 F11 1.979454 1_555
Cu5 F10 1.979454 1_555
Cu5 F8 2.034634 1_555
Cu5 F19 2.034634 1_555
Cu5 F6 2.156383 1_555
Cu5 F14 2.156383 1_555
Cu6 F21 1.979454 1_565
Cu6 F20 1.979454 1_555
Cu6 F23 2.034634 1_555
Cu6 F12 2.034634 1_555
Cu6 F25 2.156383 1_555
Cu6 F17 2.156383 1_556
Cu7 F15 1.979454 1_555
Cu7 F24 1.979454 1_555
Cu7 F21 2.034634 1_554
Cu7 F18 2.034634 1_555
Cu7 F22 2.156383 1_555
Cu7 F17 2.156383 1_545
Cu8 F18 1.979454 1_555
Cu8 F19 1.979454 1_555
Cu8 F27 2.034634 1_555
Cu8 F16 2.034634 1_555
Cu8 F14 2.156383 1_555
Cu8 F22 2.156383 1_555
Cu9 F28 1.979454 1_556
Cu9 F29 1.979454 1_555
Cu9 F20 2.034634 1_555
Cu9 F31 2.034634 1_555
Cu9 F1 2.156383 1_655
Cu9 F25 2.156383 1_555
Cu10 F0 1.979454 1_655
Cu10 F23 1.979454 1_555
Cu10 F26 2.034634 1_555
Cu10 F29 2.034634 1_555
Cu10 F25 2.156383 1_555
Cu10 F30 2.156383 1_565
Cu11 F26 1.979454 1_545
Cu11 F27 1.979454 1_555
Cu11 F3 2.034634 1_655
Cu11 F24 2.034634 1_555
Cu11 F22 2.156383 1_555
Cu11 F30 2.156383 1_555
F0 Li1 1.941484 1_555
F1 Li1 1.934562 1_555
F2 Li7 1.941484 1_445
F3 Li2 1.941484 1_555
F4 Li7 1.941484 1_454
F5 Li2 1.941484 1_555
F6 Li0 1.934562 1_555
F7 Li0 1.941484 1_555
F8 Li3 1.941484 1_556
F9 Li3 1.934562 1_555
F10 Li1 1.941484 1_555
F11 Li4 1.941484 1_555
F12 Li1 1.941484 1_555
F13 Li4 1.941484 1_565
F14 Li2 1.934562 1_555
F15 Li2 1.941484 1_555
F16 Li5 1.941484 1_555
F17 Li5 1.934562 1_555
F18 Li3 1.941484 1_555
F19 Li6 1.941484 1_555
F20 Li3 1.941484 1_556
F21 Li6 1.941484 1_555
F22 Li4 1.934562 1_555
F23 Li4 1.941484 1_565
F24 Li7 1.941484 1_544
F25 Li7 1.934562 1_555
F26 Li5 1.941484 1_555
F27 Li0 1.941484 1_655
F28 Li5 1.941484 1_555
F29 Li0 1.941484 1_655
F30 Li6 1.934562 1_555
F31 Li6 1.941484 1_555
