# generated using pymatgen
data_Li3Mn(CuO3)2
_symmetry_space_group_name_H-M   'P 1'
_cell_length_a   6.69303384
_cell_length_b   6.69303384
_cell_length_c   5.85666476
_cell_angle_alpha   77.88531420
_cell_angle_beta   77.88531420
_cell_angle_gamma   24.87766677
_symmetry_Int_Tables_number   1
_chemical_formula_structural   Li3Mn(CuO3)2
_chemical_formula_sum   'Li3 Mn1 Cu2 O6'
_cell_volume   107.79086579
_cell_formula_units_Z   1
loop_
 _symmetry_equiv_pos_site_id
 _symmetry_equiv_pos_as_xyz
  1  'x, y, z'
loop_
 _atom_site_type_symbol
 _atom_site_label
 _atom_site_symmetry_multiplicity
 _atom_site_fract_x
 _atom_site_fract_y
 _atom_site_fract_z
 _atom_site_occupancy
  Li  Li0  1  0.50000000  0.50000000  0.50000000  1
  Li  Li1  1  0.16990000  0.16990000  0.16717600  1
  Li  Li2  1  0.83010000  0.83010000  0.83282400  1
  Mn  Mn0  1  0.50000000  0.50000000  0.00000000  1
  Cu  Cu0  1  0.17077200  0.17077200  0.65794600  1
  Cu  Cu1  1  0.82922800  0.82922800  0.34205400  1
  O  O0  1  0.65393400  0.65393400  0.90818900  1
  O  O1  1  0.33455300  0.33455300  0.57221300  1
  O  O2  1  0.34606600  0.34606600  0.09181100  1
  O  O3  1  0.00705700  0.00705700  0.21770000  1
  O  O4  1  0.99294300  0.99294300  0.78230000  1
  O  O5  1  0.66544700  0.66544700  0.42778700  1
loop_
_geom_bond_atom_site_label_1
_geom_bond_atom_site_label_2
_geom_bond_distance
_geom_bond_site_symmetry_2
Li0 O1 2.112577 1_555
Li0 O5 2.112577 1_555
Li0 O4 2.180564 1_545
Li0 O4 2.180564 1_455
Li0 O3 2.180564 1_565
Li0 O3 2.180564 1_655
Li1 O3 2.085188 1_555
Li1 O5 2.091223 1_545
Li1 O5 2.091223 1_455
Li1 O0 2.135110 1_454
Li1 O0 2.135110 1_544
Li1 O2 2.249642 1_555
Li2 O4 2.085188 1_555
Li2 O1 2.091223 1_655
Li2 O1 2.091223 1_565
Li2 O2 2.135110 1_656
Li2 O2 2.135110 1_566
Li2 O0 2.249642 1_555
Mn0 O3 1.939862 1_655
Mn0 O3 1.939862 1_565
Mn0 O4 1.939862 1_544
Mn0 O4 1.939862 1_454
Mn0 O2 1.968000 1_555
Mn0 O0 1.968000 1_554
Cu0 O5 1.985087 1_545
Cu0 O5 1.985087 1_455
Cu0 O0 2.033748 1_545
Cu0 O0 2.033748 1_455
Cu0 O1 2.091315 1_555
Cu0 O4 2.281729 1_445
Cu1 O1 1.985087 1_565
Cu1 O1 1.985087 1_655
Cu1 O2 2.033748 1_655
Cu1 O2 2.033748 1_565
Cu1 O5 2.091315 1_555
Cu1 O3 2.281729 1_665
