# generated using pymatgen
data_Li3Fe8(BO3)8
_symmetry_space_group_name_H-M   'P 1'
_cell_length_a   5.22810500
_cell_length_b   9.15960295
_cell_length_c   11.38694184
_cell_angle_alpha   112.76625800
_cell_angle_beta   102.92267721
_cell_angle_gamma   90.62097270
_symmetry_Int_Tables_number   1
_chemical_formula_structural   Li3Fe8(BO3)8
_chemical_formula_sum   'Li3 Fe8 B8 O24'
_cell_volume   487.18779059
_cell_formula_units_Z   1
loop_
 _symmetry_equiv_pos_site_id
 _symmetry_equiv_pos_as_xyz
  1  'x, y, z'
loop_
 _atom_site_type_symbol
 _atom_site_label
 _atom_site_symmetry_multiplicity
 _atom_site_fract_x
 _atom_site_fract_y
 _atom_site_fract_z
 _atom_site_occupancy
  Li  Li0  1  0.63663100  0.97236100  0.60769600  1
  Li  Li1  1  0.10056900  0.73714400  0.83501200  1
  Li  Li2  1  0.32625300  0.00139200  0.35042300  1
  Fe  Fe0  1  0.63853500  0.64573100  0.61702200  1
  Fe  Fe1  1  0.39655100  0.07223600  0.12458200  1
  Fe  Fe2  1  0.83789200  0.83839600  0.37077300  1
  Fe  Fe3  1  0.10628100  0.42342700  0.86940500  1
  Fe  Fe4  1  0.88909600  0.56570400  0.12216500  1
  Fe  Fe5  1  0.15257200  0.15557800  0.61837300  1
  Fe  Fe6  1  0.35326600  0.35651200  0.37454200  1
  Fe  Fe7  1  0.60296200  0.93514600  0.86911200  1
  B  B0  1  0.65214200  0.30520400  0.61662300  1
  B  B1  1  0.39056800  0.39410800  0.11984900  1
  B  B2  1  0.85724400  0.18019200  0.36588200  1
  B  B3  1  0.10470300  0.09921000  0.86927500  1
  B  B4  1  0.14283900  0.82705700  0.63376100  1
  B  B5  1  0.88581200  0.89754100  0.12314100  1
  B  B6  1  0.33696800  0.68882900  0.37280000  1
  B  B7  1  0.60891000  0.60791600  0.87725100  1
  O  O0  1  0.15282000  0.93448700  0.14543500  1
  O  O1  1  0.30350000  0.28782600  0.16888600  1
  O  O2  1  0.20085700  0.47245700  0.06656200  1
  O  O3  1  0.47418100  0.83023600  0.39656200  1
  O  O4  1  0.46253000  0.57739400  0.41399900  1
  O  O5  1  0.57286400  0.16145300  0.32548900  1
  O  O6  1  0.92143600  0.34191200  0.67998700  1
  O  O7  1  0.64600700  0.41659400  0.12364900  1
  O  O8  1  0.78699300  0.78226400  0.15500600  1
  O  O9  1  0.00768400  0.92499400  0.58090200  1
  O  O10  1  0.02037700  0.71252200  0.65609400  1
  O  O11  1  0.70760000  0.98279300  0.06862100  1
  O  O12  1  0.26917900  0.00229700  0.91983000  1
  O  O13  1  0.99756300  0.30238600  0.36152300  1
  O  O14  1  0.97948600  0.06902400  0.40635300  1
  O  O15  1  0.21723100  0.21088600  0.83783500  1
  O  O16  1  0.34568200  0.58862700  0.86999000  1
  O  O17  1  0.06985400  0.65764900  0.31302500  1
  O  O18  1  0.42494800  0.85072100  0.67257400  1
  O  O19  1  0.52690400  0.40830300  0.56445800  1
  O  O20  1  0.51945200  0.16782500  0.60171600  1
  O  O21  1  0.78854800  0.51860000  0.92184100  1
  O  O22  1  0.71222800  0.72046800  0.83894400  1
  O  O23  1  0.84043800  0.07378400  0.85162800  1
loop_
_geom_bond_atom_site_label_1
_geom_bond_atom_site_label_2
_geom_bond_distance
_geom_bond_site_symmetry_2
Li0 O20 1.919596 1_565
Li0 O18 1.996982 1_555
Li0 O9 2.055498 1_655
Li0 O3 2.199216 1_555
Li0 O23 2.524151 1_565
Li1 O10 1.907262 1_555
Li1 O16 1.969829 1_555
Li1 O22 2.046126 1_455
Li1 O12 2.316420 1_565
Li2 O3 1.952922 1_545
Li2 O14 2.076419 1_455
Li2 O5 2.082614 1_555
Li2 O0 2.140179 1_545
Fe0 O10 1.980678 1_655
Fe0 O19 2.058447 1_555
Fe0 O4 2.121108 1_555
Fe0 O18 2.148183 1_555
Fe0 O22 2.285352 1_555
Fe1 O0 1.898528 1_545
Fe1 O1 1.936558 1_555
Fe1 O11 1.951944 1_545
Fe1 O5 2.084398 1_555
Fe1 O12 2.104777 1_554
Fe2 O3 1.992802 1_555
Fe2 O17 2.049792 1_655
Fe2 O14 2.084276 1_565
Fe2 O9 2.169828 1_655
Fe2 O8 2.258006 1_555
Fe3 O16 1.950300 1_555
Fe3 O15 1.957497 1_555
Fe3 O21 1.986961 1_455
Fe3 O6 1.987272 1_455
Fe3 O2 2.050523 1_556
Fe4 O7 1.862976 1_555
Fe4 O2 1.964747 1_655
Fe4 O8 1.974237 1_555
Fe4 O17 1.993284 1_655
Fe4 O21 2.088746 1_554
Fe5 O20 1.975384 1_555
Fe5 O9 2.083252 1_545
Fe5 O6 2.088685 1_455
Fe5 O14 2.191345 1_455
Fe5 O15 2.292283 1_555
Fe6 O13 1.877739 1_455
Fe6 O4 1.943738 1_555
Fe6 O19 2.011077 1_555
Fe6 O5 2.093123 1_555
Fe6 O1 2.128656 1_555
Fe7 O23 1.861639 1_565
Fe7 O22 1.974907 1_555
Fe7 O12 1.989012 1_565
Fe7 O18 2.045985 1_555
Fe7 O11 2.079041 1_556
B0 O20 1.362559 1_555
B0 O19 1.395320 1_555
B0 O6 1.401232 1_555
B1 O7 1.337552 1_555
B1 O2 1.396490 1_555
B1 O1 1.411200 1_555
B2 O13 1.354562 1_555
B2 O14 1.379569 1_555
B2 O5 1.441874 1_555
B3 O23 1.355021 1_455
B3 O15 1.373025 1_555
B3 O12 1.431584 1_555
B4 O10 1.356440 1_555
B4 O9 1.381195 1_555
B4 O18 1.430037 1_555
B5 O8 1.371865 1_555
B5 O0 1.375646 1_655
B5 O11 1.412627 1_555
B6 O3 1.373774 1_555
B6 O17 1.382327 1_555
B6 O4 1.392918 1_555
B7 O16 1.365454 1_555
B7 O21 1.390675 1_555
B7 O22 1.409330 1_555
