# generated using pymatgen
data_Co3(OF2)2
_symmetry_space_group_name_H-M   'P 1'
_cell_length_a   4.66753200
_cell_length_b   5.61794634
_cell_length_c   7.63225556
_cell_angle_alpha   86.78490187
_cell_angle_beta   88.40667698
_cell_angle_gamma   88.82150749
_symmetry_Int_Tables_number   1
_chemical_formula_structural   Co3(OF2)2
_chemical_formula_sum   'Co6 O4 F8'
_cell_volume   199.70409112
_cell_formula_units_Z   2
loop_
 _symmetry_equiv_pos_site_id
 _symmetry_equiv_pos_as_xyz
  1  'x, y, z'
loop_
 _atom_site_type_symbol
 _atom_site_label
 _atom_site_symmetry_multiplicity
 _atom_site_fract_x
 _atom_site_fract_y
 _atom_site_fract_z
 _atom_site_occupancy
  Co  Co0  1  0.48630200  0.50836000  0.00548100  1
  Co  Co1  1  0.49323300  0.16489400  0.33582500  1
  Co  Co2  1  0.53825700  0.82408900  0.66597300  1
  Co  Co3  1  0.97067100  0.33084300  0.67473900  1
  Co  Co4  1  0.00615400  0.67141700  0.33822700  1
  Co  Co5  1  0.97389100  0.99663800  0.97778500  1
  O  O0  1  0.79134800  0.01962200  0.76244700  1
  O  O1  1  0.68452200  0.54746700  0.77344600  1
  O  O2  1  0.71307000  0.84985600  0.44578400  1
  O  O3  1  0.30222300  0.47927100  0.22855600  1
  F  F0  1  0.81808600  0.35931700  0.43229600  1
  F  F1  1  0.79909300  0.71128300  0.10120500  1
  F  F2  1  0.69948500  0.21192500  0.09754100  1
  F  F3  1  0.31116600  0.11361700  0.57868100  1
  F  F4  1  0.31138000  0.81113900  0.88780000  1
  F  F5  1  0.18913000  0.97067800  0.21759800  1
  F  F6  1  0.18525100  0.29746000  0.90451500  1
  F  F7  1  0.22673800  0.63212300  0.57210200  1
loop_
_geom_bond_atom_site_label_1
_geom_bond_atom_site_label_2
_geom_bond_distance
_geom_bond_site_symmetry_2
Co0 O3 1.885966 1_555
Co0 O1 1.978415 1_554
Co0 F2 2.024020 1_555
Co0 F4 2.044255 1_554
Co0 F1 2.045990 1_555
Co0 F6 2.050179 1_554
Co1 F3 2.025670 1_555
Co1 F2 2.040404 1_555
Co1 F0 2.062673 1_555
Co1 F5 2.065138 1_545
Co1 O3 2.097154 1_555
Co1 O2 2.167070 1_545
Co2 O0 1.826696 1_565
Co2 O1 1.843497 1_555
Co2 O2 1.847227 1_555
Co2 F4 1.970461 1_555
Co2 F7 1.999913 1_555
Co2 F3 2.014906 1_565
Co3 O1 1.952555 1_555
Co3 F0 1.998034 1_555
Co3 O0 2.025687 1_555
Co3 F6 2.041286 1_655
Co3 F3 2.123287 1_655
Co3 F7 2.188465 1_655
Co4 O2 1.877132 1_455
Co4 O3 1.936807 1_555
Co4 F5 2.060409 1_555
Co4 F0 2.060911 1_455
Co4 F1 2.073551 1_455
Co4 F7 2.084137 1_555
Co5 O0 1.869038 1_565
Co5 F2 1.983395 1_566
Co5 F1 1.991131 1_556
Co5 F4 1.997918 1_655
Co5 F6 2.018406 1_665
Co5 F5 2.108767 1_656
