# generated using pymatgen
data_K4P4H7(RuO9)2
_symmetry_space_group_name_H-M   'P 1'
_cell_length_a   9.41316200
_cell_length_b   9.23039300
_cell_length_c   13.87942228
_cell_angle_alpha   48.92136467
_cell_angle_beta   90.00000000
_cell_angle_gamma   90.00000000
_symmetry_Int_Tables_number   1
_chemical_formula_structural   K4P4H7(RuO9)2
_chemical_formula_sum   'K8 P8 H14 Ru4 O36'
_cell_volume   909.05073957
_cell_formula_units_Z   2
loop_
 _symmetry_equiv_pos_site_id
 _symmetry_equiv_pos_as_xyz
  1  'x, y, z'
loop_
 _atom_site_type_symbol
 _atom_site_label
 _atom_site_symmetry_multiplicity
 _atom_site_fract_x
 _atom_site_fract_y
 _atom_site_fract_z
 _atom_site_occupancy
  K  K0  1  0.77436100  0.20987800  0.65220200  1
  K  K1  1  0.62241100  0.62568900  0.21862200  1
  K  K2  1  0.12241100  0.37431100  0.28137800  1
  K  K3  1  0.27436100  0.79012200  0.84779800  1
  K  K4  1  0.72563900  0.20987800  0.15220200  1
  K  K5  1  0.87758900  0.62568900  0.71862200  1
  K  K6  1  0.37758900  0.37431100  0.78137800  1
  K  K7  1  0.22563900  0.79012200  0.34779800  1
  P  P0  1  0.28557200  0.82069900  0.07710600  1
  P  P1  1  0.36723500  0.24459300  0.53739900  1
  P  P2  1  0.86723500  0.75540700  0.96260100  1
  P  P3  1  0.78557200  0.17930100  0.42289400  1
  P  P4  1  0.21442800  0.82069900  0.57710600  1
  P  P5  1  0.13276500  0.24459300  0.03739900  1
  P  P6  1  0.63276500  0.75540700  0.46260100  1
  P  P7  1  0.71442800  0.17930100  0.92289400  1
  H  H0  1  0.50000000  0.50000000  0.50000000  1
  H  H1  1  0.89817300  0.55403400  0.36886800  1
  H  H2  1  0.12664800  0.27015700  0.63331900  1
  H  H3  1  0.62825800  0.98852700  0.89906900  1
  H  H4  1  0.12825800  0.01147300  0.60093100  1
  H  H5  1  0.62664800  0.72984300  0.86668100  1
  H  H6  1  0.39817300  0.44596600  0.13113200  1
  H  H7  1  0.00000000  0.50000000  0.00000000  1
  H  H8  1  0.60182700  0.55403400  0.86886800  1
  H  H9  1  0.37335200  0.27015700  0.13331900  1
  H  H10  1  0.87174200  0.98852700  0.39906900  1
  H  H11  1  0.37174200  0.01147300  0.10093100  1
  H  H12  1  0.87335200  0.72984300  0.36668100  1
  H  H13  1  0.10182700  0.44596600  0.63113200  1
  Ru  Ru0  1  0.96380300  0.89390300  0.10679700  1
  Ru  Ru1  1  0.03619700  0.10609700  0.89320300  1
  Ru  Ru2  1  0.46380300  0.10609700  0.39320300  1
  Ru  Ru3  1  0.53619700  0.89390300  0.60679700  1
  O  O0  1  0.06732100  0.31678300  0.66851800  1
  O  O1  1  0.59340900  0.11060200  0.87969400  1
  O  O2  1  0.38819800  0.41734800  0.53186200  1
  O  O3  1  0.23968500  0.99581800  0.93734400  1
  O  O4  1  0.15759100  0.75730800  0.16925900  1
  O  O5  1  0.89615100  0.68928400  0.09809300  1
  O  O6  1  0.97877400  0.91666100  0.86812400  1
  O  O7  1  0.21324400  0.17543800  0.58169000  1
  O  O8  1  0.34746300  0.65835100  0.08922800  1
  O  O9  1  0.84746300  0.34164900  0.41077200  1
  O  O10  1  0.71324400  0.82456200  0.91831000  1
  O  O11  1  0.39615100  0.31071600  0.40190700  1
  O  O12  1  0.47877400  0.08333900  0.63187600  1
  O  O13  1  0.65759100  0.24269200  0.33074100  1
  O  O14  1  0.73968500  0.00418200  0.56265600  1
  O  O15  1  0.88819800  0.58265200  0.96813800  1
  O  O16  1  0.09340900  0.88939800  0.62030600  1
  O  O17  1  0.56732100  0.68321700  0.83148200  1
  O  O18  1  0.43267900  0.31678300  0.16851800  1
  O  O19  1  0.90659100  0.11060200  0.37969400  1
  O  O20  1  0.11180200  0.41734800  0.03186200  1
  O  O21  1  0.26031500  0.99581800  0.43734400  1
  O  O22  1  0.34240900  0.75730800  0.66925900  1
  O  O23  1  0.52122600  0.91666100  0.36812400  1
  O  O24  1  0.60384900  0.68928400  0.59809300  1
  O  O25  1  0.28675600  0.17543800  0.08169000  1
  O  O26  1  0.15253700  0.65835100  0.58922800  1
  O  O27  1  0.65253700  0.34164900  0.91077200  1
  O  O28  1  0.78675600  0.82456200  0.41831000  1
  O  O29  1  0.02122600  0.08333900  0.13187600  1
  O  O30  1  0.10384900  0.31071600  0.90190700  1
  O  O31  1  0.84240900  0.24269200  0.83074100  1
  O  O32  1  0.76031500  0.00418200  0.06265600  1
  O  O33  1  0.61180200  0.58265200  0.46813800  1
  O  O34  1  0.40659100  0.88939800  0.12030600  1
  O  O35  1  0.93267900  0.68321700  0.33148200  1
loop_
_geom_bond_atom_site_label_1
_geom_bond_atom_site_label_2
_geom_bond_distance
_geom_bond_site_symmetry_2
K0 O31 2.762062 1_555
K0 O9 2.797363 1_555
K0 O14 2.890889 1_555
K0 O0 2.987219 1_655
K0 O33 3.025769 1_555
K0 O6 3.057681 1_545
K0 O10 3.059180 1_545
K0 O12 3.101396 1_555
K0 O1 3.147724 1_555
K1 O34 2.747567 1_555
K1 O13 2.792710 1_555
K1 O5 2.914147 1_555
K1 O32 2.939004 1_565
K1 O9 3.047159 1_555
K1 O8 3.050093 1_555
K1 O11 3.120966 1_555
K1 O33 3.217630 1_555
K2 O19 2.747567 1_455
K2 O4 2.792710 1_555
K2 O11 2.914147 1_555
K2 O21 2.939004 1_545
K2 O8 3.047159 1_555
K2 O9 3.050093 1_455
K2 O5 3.120966 1_455
K2 O20 3.217630 1_555
K3 O22 2.762062 1_555
K3 O8 2.797363 1_556
K3 O3 2.890889 1_555
K3 O17 2.987219 1_555
K3 O20 3.025769 1_556
K3 O12 3.057681 1_565
K3 O7 3.059180 1_565
K3 O6 3.101396 1_455
K3 O16 3.147724 1_555
K4 O13 2.762062 1_555
K4 O27 2.797363 1_554
K4 O32 2.890889 1_555
K4 O18 2.987219 1_555
K4 O15 3.025769 1_554
K4 O23 3.057681 1_545
K4 O28 3.059180 1_545
K4 O29 3.101396 1_655
K4 O19 3.147724 1_555
K5 O16 2.747567 1_655
K5 O31 2.792710 1_555
K5 O24 2.914147 1_555
K5 O14 2.939004 1_565
K5 O27 3.047159 1_555
K5 O26 3.050093 1_655
K5 O30 3.120966 1_655
K5 O15 3.217630 1_555
K6 O1 2.747567 1_555
K6 O22 2.792710 1_555
K6 O30 2.914147 1_555
K6 O3 2.939004 1_545
K6 O26 3.047159 1_555
K6 O27 3.050093 1_555
K6 O24 3.120966 1_555
K6 O2 3.217630 1_555
K7 O4 2.762062 1_555
K7 O26 2.797363 1_555
K7 O21 2.890889 1_555
K7 O35 2.987219 1_455
K7 O2 3.025769 1_555
K7 O29 3.057681 1_565
K7 O25 3.059180 1_565
K7 O23 3.101396 1_555
K7 O34 3.147724 1_555
H0 O33 1.200743 1_555
H0 O2 1.200743 1_555
H1 O35 0.991695 1_555
H2 O0 1.006025 1_555
H2 O7 1.663032 1_555
H3 O1 1.025372 1_565
H3 O10 1.571846 1_555
H3 K0 2.933566 1_565
H4 O16 1.025372 1_545
H4 O7 1.571846 1_555
H4 K3 2.933566 1_545
H5 O17 1.006025 1_555
H5 O10 1.663032 1_555
H6 O18 0.991695 1_555
H7 O15 1.200743 1_454
H7 O20 1.200743 1_555
H8 O17 0.991695 1_555
H9 O18 1.006025 1_555
H9 O25 1.663032 1_555
H10 O19 1.025372 1_565
H10 O28 1.571846 1_555
H10 K4 2.933566 1_565
H11 O34 1.025372 1_545
H11 O25 1.571846 1_555
H11 K7 2.933566 1_545
H12 O35 1.006025 1_555
H12 O28 1.663032 1_555
H13 O0 0.991695 1_555
O0 Ru1 2.371237 1_555
O1 P7 1.599687 1_555
O2 P1 1.557734 1_555
O3 P0 1.562549 1_556
O3 Ru1 2.064205 1_565
O4 P0 1.563994 1_555
O4 Ru0 2.057263 1_455
O5 P2 1.573111 1_554
O5 Ru0 2.070563 1_555
O6 P2 1.572352 1_555
O6 Ru1 2.066568 1_665
O7 P1 1.539754 1_555
O8 P0 1.510626 1_555
O9 P3 1.510626 1_555
O10 P2 1.539754 1_555
O11 P1 1.573111 1_555
O11 Ru2 2.070563 1_555
O12 P1 1.572352 1_555
O12 Ru3 2.066568 1_545
O13 P3 1.563994 1_555
O13 Ru2 2.057263 1_555
O14 P3 1.562549 1_555
O14 Ru3 2.064205 1_545
O15 P2 1.557734 1_555
O16 P4 1.599687 1_555
O17 Ru3 2.371237 1_555
O18 Ru2 2.371237 1_555
O19 P3 1.599687 1_555
O20 P5 1.557734 1_555
O21 P4 1.562549 1_555
O21 Ru2 2.064205 1_565
O22 P4 1.563994 1_555
O22 Ru3 2.057263 1_555
O23 P6 1.572352 1_555
O23 Ru2 2.066568 1_565
O24 P6 1.573111 1_555
O24 Ru3 2.070563 1_555
O25 P5 1.539754 1_555
O26 P4 1.510626 1_555
O27 P7 1.510626 1_555
O28 P6 1.539754 1_555
O29 P5 1.572352 1_555
O29 Ru0 2.066568 1_445
O30 P5 1.573111 1_556
O30 Ru1 2.070563 1_555
O31 P7 1.563994 1_555
O31 Ru1 2.057263 1_655
O32 P7 1.562549 1_554
O32 Ru0 2.064205 1_545
O33 P6 1.557734 1_555
O34 P0 1.599687 1_555
O35 Ru0 2.371237 1_555
