# generated using pymatgen
data_Fe4O5F3
_symmetry_space_group_name_H-M   'P 1'
_cell_length_a   4.72375200
_cell_length_b   6.09290200
_cell_length_c   9.91615632
_cell_angle_alpha   72.15150849
_cell_angle_beta   90.00000000
_cell_angle_gamma   90.00000000
_symmetry_Int_Tables_number   1
_chemical_formula_structural   Fe4O5F3
_chemical_formula_sum   'Fe8 O10 F6'
_cell_volume   271.66421620
_cell_formula_units_Z   2
loop_
 _symmetry_equiv_pos_site_id
 _symmetry_equiv_pos_as_xyz
  1  'x, y, z'
loop_
 _atom_site_type_symbol
 _atom_site_label
 _atom_site_symmetry_multiplicity
 _atom_site_fract_x
 _atom_site_fract_y
 _atom_site_fract_z
 _atom_site_occupancy
  Fe  Fe0  1  0.44910000  0.67849700  0.38576100  1
  Fe  Fe1  1  0.52514400  0.43813600  0.86645400  1
  Fe  Fe2  1  0.50553600  0.94044200  0.87710600  1
  Fe  Fe3  1  0.51748900  0.20003400  0.35254400  1
  Fe  Fe4  1  0.01748900  0.79996600  0.64745600  1
  Fe  Fe5  1  0.02514400  0.56186400  0.13354600  1
  Fe  Fe6  1  0.94910000  0.32150300  0.61423900  1
  Fe  Fe7  1  0.00553600  0.05955800  0.12289400  1
  O  O0  1  0.82451300  0.26842100  0.21107500  1
  O  O1  1  0.80342100  0.51426600  0.72409500  1
  O  O2  1  0.80413100  0.01566600  0.72291600  1
  O  O3  1  0.69867200  0.14105300  0.96907900  1
  O  O4  1  0.67219900  0.39124800  0.46474100  1
  O  O5  1  0.32451300  0.73157900  0.78892500  1
  O  O6  1  0.30342100  0.48573400  0.27590500  1
  O  O7  1  0.30413100  0.98433400  0.27708400  1
  O  O8  1  0.19867200  0.85894700  0.03092100  1
  O  O9  1  0.17219900  0.60875200  0.53525900  1
  F  F0  1  0.79750600  0.76220600  0.22633300  1
  F  F1  1  0.68914300  0.89191700  0.47184400  1
  F  F2  1  0.71314500  0.63479200  0.98071300  1
  F  F3  1  0.29750600  0.23779400  0.77366700  1
  F  F4  1  0.21314500  0.36520800  0.01928700  1
  F  F5  1  0.18914300  0.10808300  0.52815600  1
loop_
_geom_bond_atom_site_label_1
_geom_bond_atom_site_label_2
_geom_bond_distance
_geom_bond_site_symmetry_2
Fe0 O9 1.924306 1_555
Fe0 O6 1.955490 1_555
Fe0 O7 1.967660 1_555
Fe0 O4 1.986677 1_555
Fe1 O1 1.880020 1_555
Fe1 O5 1.960432 1_555
Fe1 O3 1.963364 1_555
Fe2 O5 1.948693 1_555
Fe2 O3 1.959973 1_565
Fe2 O2 2.026752 1_565
Fe2 O8 2.051801 1_556
Fe3 O6 1.954308 1_555
Fe3 O0 1.971451 1_555
Fe3 O7 1.976292 1_545
Fe3 O4 1.980855 1_555
Fe4 O1 1.954308 1_455
Fe4 O5 1.971451 1_555
Fe4 O2 1.976292 1_465
Fe4 O9 1.980855 1_555
Fe5 O6 1.880020 1_555
Fe5 O0 1.960432 1_455
Fe5 O8 1.963364 1_555
Fe6 O4 1.924306 1_555
Fe6 O1 1.955490 1_555
Fe6 O2 1.967660 1_555
Fe6 O9 1.986677 1_655
Fe7 O0 1.948693 1_455
Fe7 O8 1.959973 1_545
Fe7 O7 2.026752 1_545
Fe7 O3 2.051801 1_454
F0 Fe7 2.039850 1_665
F0 Fe5 2.044834 1_655
F0 Fe0 2.230190 1_555
F1 Fe3 2.054244 1_565
F1 Fe0 2.094212 1_555
F1 Fe4 2.270234 1_655
F2 Fe5 2.062409 1_656
F2 Fe2 2.076673 1_555
F2 Fe1 2.083333 1_555
F3 Fe2 2.039850 1_545
F3 Fe1 2.044834 1_555
F3 Fe6 2.230190 1_455
F4 Fe1 2.062409 1_554
F4 Fe7 2.076673 1_555
F4 Fe5 2.083333 1_555
F5 Fe4 2.054244 1_545
F5 Fe6 2.094212 1_455
F5 Fe3 2.270234 1_555
