# generated using pymatgen
data_Li4Cr2Co3Sb3O16
_symmetry_space_group_name_H-M   'P 1'
_cell_length_a   6.05598700
_cell_length_b   6.11868641
_cell_length_c   9.65953430
_cell_angle_alpha   91.59521885
_cell_angle_beta   90.41828307
_cell_angle_gamma   119.64241525
_symmetry_Int_Tables_number   1
_chemical_formula_structural   Li4Cr2Co3Sb3O16
_chemical_formula_sum   'Li4 Cr2 Co3 Sb3 O16'
_cell_volume   310.87621021
_cell_formula_units_Z   1
loop_
 _symmetry_equiv_pos_site_id
 _symmetry_equiv_pos_as_xyz
  1  'x, y, z'
loop_
 _atom_site_type_symbol
 _atom_site_label
 _atom_site_symmetry_multiplicity
 _atom_site_fract_x
 _atom_site_fract_y
 _atom_site_fract_z
 _atom_site_occupancy
  Li  Li0  1  0.65942600  0.32832400  0.88039100  1
  Li  Li1  1  0.97579900  0.95037000  0.98222400  1
  Li  Li2  1  0.99212300  0.98098600  0.50559100  1
  Li  Li3  1  0.32848600  0.65793400  0.40288000  1
  Cr  Cr0  1  0.68209800  0.35044000  0.49516400  1
  Cr  Cr1  1  0.34033600  0.68810900  0.97575300  1
  Co  Co0  1  0.83177800  0.66400700  0.21539900  1
  Co  Co1  1  0.16820000  0.82986200  0.70995100  1
  Co  Co2  1  0.66304900  0.84112900  0.71277500  1
  Sb  Sb0  1  0.33729100  0.17037000  0.21476800  1
  Sb  Sb1  1  0.83256500  0.17001800  0.21366500  1
  Sb  Sb2  1  0.17693900  0.34553000  0.71422600  1
  O  O0  1  0.34014500  0.18667300  0.59578100  1
  O  O1  1  0.51921000  0.03582700  0.33940000  1
  O  O2  1  0.65577200  0.31475000  0.09994400  1
  O  O3  1  0.00875600  0.01696700  0.31888300  1
  O  O4  1  0.02054500  0.01054700  0.80216800  1
  O  O5  1  0.84689600  0.17879200  0.59835700  1
  O  O6  1  0.51308200  0.47418800  0.34021900  1
  O  O7  1  0.96287400  0.47187300  0.33992200  1
  O  O8  1  0.15751600  0.31631600  0.10147600  1
  O  O9  1  0.85072500  0.67562100  0.60021000  1
  O  O10  1  0.03555200  0.50541600  0.84871300  1
  O  O11  1  0.47824700  0.52079600  0.84850000  1
  O  O12  1  0.31770100  0.66100100  0.60668500  1
  O  O13  1  0.16833100  0.84781400  0.10285900  1
  O  O14  1  0.45795700  0.95615000  0.84173000  1
  O  O15  1  0.67830000  0.85019000  0.10020600  1
loop_
_geom_bond_atom_site_label_1
_geom_bond_atom_site_label_2
_geom_bond_distance
_geom_bond_site_symmetry_2
Li0 O11 1.994778 1_555
Li0 O14 2.002867 1_545
Li0 O10 2.010818 1_655
Li0 O2 2.124563 1_556
Li1 O4 1.782656 1_665
Li1 O13 1.963603 1_656
Li1 O15 1.974071 1_556
Li1 O8 2.225322 1_666
Li2 O3 1.820466 1_665
Li2 O9 1.893022 1_555
Li2 O5 2.011312 1_565
Li2 O0 2.018241 1_665
Li3 O12 1.970096 1_555
Li3 O7 2.004179 1_455
Li3 O6 2.023692 1_555
Li3 O1 2.122247 1_565
Cr0 O9 1.973294 1_555
Cr0 O5 2.042858 1_555
Cr0 O0 2.065954 1_555
Cr0 O7 2.131100 1_555
Cr0 O6 2.160656 1_555
Cr0 O1 2.209371 1_555
Cr1 O14 1.961954 1_555
Cr1 O10 2.002983 1_555
Cr1 O11 2.011764 1_555
Cr1 O13 2.122769 1_556
Cr1 O15 2.123115 1_556
Cr1 O8 2.357498 1_556
Co0 O3 2.094416 1_665
Co0 O6 2.102915 1_555
Co0 O13 2.105639 1_655
Co0 O7 2.108834 1_555
Co0 O15 2.121941 1_555
Co0 O2 2.131536 1_555
Co1 O4 1.936490 1_565
Co1 O12 1.939935 1_555
Co1 O9 1.957183 1_455
Co1 O14 1.966722 1_555
Co1 O0 2.229130 1_565
Co1 O10 2.229190 1_555
Co2 O4 2.051899 1_665
Co2 O12 2.065110 1_555
Co2 O14 2.104285 1_555
Co2 O9 2.143562 1_555
Co2 O5 2.144627 1_565
Co2 O11 2.192644 1_555
O0 Sb2 2.033608 1_555
O1 Sb0 2.067299 1_555
O1 Sb1 2.073248 1_555
O2 Sb1 2.027828 1_555
O2 Sb0 2.032476 1_555
O3 Sb1 2.018423 1_455
O3 Sb0 2.021257 1_555
O4 Sb2 2.002044 1_555
O5 Sb2 2.043328 1_655
O6 Sb0 1.988894 1_555
O7 Sb1 1.984990 1_555
O8 Sb0 2.044272 1_555
O8 Sb1 2.047186 1_455
O10 Sb2 2.037615 1_555
O11 Sb2 2.028367 1_555
O12 Sb2 2.007146 1_555
O13 Sb0 1.994537 1_565
O15 Sb1 1.990151 1_565
