# generated using pymatgen
data_LiMn2(BO3)2
_symmetry_space_group_name_H-M   'P 1'
_cell_length_a   5.35461928
_cell_length_b   5.35480722
_cell_length_c   9.98021769
_cell_angle_alpha   88.99364444
_cell_angle_beta   91.01008501
_cell_angle_gamma   61.02601242
_symmetry_Int_Tables_number   1
_chemical_formula_structural   LiMn2(BO3)2
_chemical_formula_sum   'Li2 Mn4 B4 O12'
_cell_volume   250.19578654
_cell_formula_units_Z   2
loop_
 _symmetry_equiv_pos_site_id
 _symmetry_equiv_pos_as_xyz
  1  'x, y, z'
loop_
 _atom_site_type_symbol
 _atom_site_label
 _atom_site_symmetry_multiplicity
 _atom_site_fract_x
 _atom_site_fract_y
 _atom_site_fract_z
 _atom_site_occupancy
  Li  Li0  1  0.12836700  0.83674600  0.66767600  1
  Li  Li1  1  0.16326200  0.87163400  0.16766900  1
  Mn  Mn0  1  0.51544000  0.18745200  0.12712900  1
  Mn  Mn1  1  0.81232100  0.48466200  0.62709600  1
  Mn  Mn2  1  0.16764400  0.47699100  0.37782100  1
  Mn  Mn3  1  0.52300500  0.83240200  0.87781700  1
  B  B0  1  0.16197300  0.49378500  0.87283000  1
  B  B1  1  0.50621300  0.83804900  0.37283400  1
  B  B2  1  0.49227800  0.15516800  0.62823500  1
  B  B3  1  0.84484600  0.50770500  0.12823800  1
  O  O0  1  0.06665800  0.55410900  0.18225200  1
  O  O1  1  0.44589300  0.93334200  0.68223900  1
  O  O2  1  0.24636600  0.39979000  0.57349800  1
  O  O3  1  0.60022600  0.75362100  0.07349600  1
  O  O4  1  0.21191500  0.71725400  0.85755700  1
  O  O5  1  0.28274600  0.78810000  0.35755800  1
  O  O6  1  0.37032500  0.23217500  0.92644100  1
  O  O7  1  0.76783100  0.62970400  0.42643100  1
  O  O8  1  0.48321900  0.10175400  0.33281700  1
  O  O9  1  0.89825100  0.51679100  0.83278900  1
  O  O10  1  0.75149400  0.13572500  0.63226500  1
  O  O11  1  0.86425300  0.24851600  0.13227100  1
loop_
_geom_bond_atom_site_label_1
_geom_bond_atom_site_label_2
_geom_bond_distance
_geom_bond_site_symmetry_2
Li0 O10 1.893490 1_465
Li0 O4 1.962389 1_555
Li0 O1 2.006345 1_555
Li0 O2 2.328796 1_555
Li1 O11 1.893587 1_465
Li1 O5 1.962438 1_555
Li1 O0 2.006437 1_555
Li1 O3 2.328765 1_555
Mn0 O11 2.046213 1_555
Mn0 O6 2.102565 1_554
Mn0 O8 2.123791 1_555
Mn0 O3 2.218059 1_545
Mn0 O0 2.333606 1_555
Mn1 O10 2.046170 1_555
Mn1 O7 2.102376 1_555
Mn1 O9 2.123993 1_555
Mn1 O2 2.218868 1_655
Mn1 O1 2.332915 1_555
Mn2 O7 1.960039 1_455
Mn2 O8 1.965571 1_555
Mn2 O2 1.983983 1_555
Mn2 O0 1.997667 1_555
Mn2 O5 2.045332 1_555
Mn3 O6 1.959953 1_565
Mn3 O9 1.965718 1_555
Mn3 O3 1.984042 1_556
Mn3 O1 1.997725 1_555
Mn3 O4 2.045348 1_555
B0 O4 1.353417 1_555
B0 O6 1.389912 1_555
B0 O9 1.406705 1_455
B1 O5 1.353387 1_555
B1 O7 1.389852 1_555
B1 O8 1.406653 1_565
B2 O10 1.340481 1_555
B2 O2 1.423582 1_555
B2 O1 1.425200 1_545
B3 O11 1.340472 1_555
B3 O3 1.423606 1_555
B3 O0 1.425159 1_655
