# generated using pymatgen
data_Li3V(Si2O5)3
_symmetry_space_group_name_H-M   'P 1'
_cell_length_a   11.02754860
_cell_length_b   11.02754860
_cell_length_c   10.19935600
_cell_angle_alpha   90.00000000
_cell_angle_beta   90.00000000
_cell_angle_gamma   99.93961704
_symmetry_Int_Tables_number   1
_chemical_formula_structural   Li3V(Si2O5)3
_chemical_formula_sum   'Li12 V4 Si24 O60'
_cell_volume   1221.69451976
_cell_formula_units_Z   4
loop_
 _symmetry_equiv_pos_site_id
 _symmetry_equiv_pos_as_xyz
  1  'x, y, z'
loop_
 _atom_site_type_symbol
 _atom_site_label
 _atom_site_symmetry_multiplicity
 _atom_site_fract_x
 _atom_site_fract_y
 _atom_site_fract_z
 _atom_site_occupancy
  Li  Li0  1  0.23566600  0.23566600  0.00000000  1
  Li  Li1  1  0.47718800  0.02281200  0.25000000  1
  Li  Li2  1  0.02281200  0.47718800  0.75000000  1
  Li  Li3  1  0.26433400  0.26433400  0.50000000  1
  Li  Li4  1  0.06213700  0.93786300  0.79764800  1
  Li  Li5  1  0.56213700  0.43786300  0.70235200  1
  Li  Li6  1  0.43786300  0.56213700  0.29764800  1
  Li  Li7  1  0.93786300  0.06213700  0.20235200  1
  Li  Li8  1  0.73566600  0.73566600  0.50000000  1
  Li  Li9  1  0.52281200  0.97718800  0.75000000  1
  Li  Li10  1  0.97718800  0.52281200  0.25000000  1
  Li  Li11  1  0.76433400  0.76433400  0.00000000  1
  V  V0  1  0.15546400  0.34453600  0.25000000  1
  V  V1  1  0.34453600  0.15546400  0.75000000  1
  V  V2  1  0.84453600  0.65546400  0.75000000  1
  V  V3  1  0.65546400  0.84453600  0.25000000  1
  Si  Si0  1  0.04110100  0.18908100  0.80639200  1
  Si  Si1  1  0.18908100  0.04110100  0.19360800  1
  Si  Si2  1  0.31091900  0.45889900  0.69360800  1
  Si  Si3  1  0.45889900  0.31091900  0.30639200  1
  Si  Si4  1  0.01743200  0.76462600  0.48379800  1
  Si  Si5  1  0.26462600  0.51743200  0.98379800  1
  Si  Si6  1  0.76462600  0.01743200  0.51620200  1
  Si  Si7  1  0.51743200  0.26462600  0.01620200  1
  Si  Si8  1  0.20115700  0.58039800  0.45442300  1
  Si  Si9  1  0.70115700  0.08039800  0.04557700  1
  Si  Si10  1  0.08039800  0.70115700  0.95442300  1
  Si  Si11  1  0.58039800  0.20115700  0.54557700  1
  Si  Si12  1  0.41960200  0.79884300  0.45442300  1
  Si  Si13  1  0.29884300  0.91960200  0.95442300  1
  Si  Si14  1  0.91960200  0.29884300  0.04557700  1
  Si  Si15  1  0.79884300  0.41960200  0.54557700  1
  Si  Si16  1  0.73537400  0.48256800  0.01620200  1
  Si  Si17  1  0.23537400  0.98256800  0.48379800  1
  Si  Si18  1  0.48256800  0.73537400  0.98379800  1
  Si  Si19  1  0.98256800  0.23537400  0.51620200  1
  Si  Si20  1  0.54110100  0.68908100  0.69360800  1
  Si  Si21  1  0.68908100  0.54110100  0.30639200  1
  Si  Si22  1  0.81091900  0.95889900  0.80639200  1
  Si  Si23  1  0.95889900  0.81091900  0.19360800  1
  O  O0  1  0.28171100  0.01326600  0.07599800  1
  O  O1  1  0.01326600  0.28171100  0.92400200  1
  O  O2  1  0.02983300  0.26612200  0.67007000  1
  O  O3  1  0.26612200  0.02983300  0.32993000  1
  O  O4  1  0.16825600  0.14156900  0.83271000  1
  O  O5  1  0.14156900  0.16825600  0.16729000  1
  O  O6  1  0.09724300  0.25578800  0.41865500  1
  O  O7  1  0.25578800  0.09724300  0.58134500  1
  O  O8  1  0.14037100  0.51190900  0.32630500  1
  O  O9  1  0.01190900  0.64037100  0.82630500  1
  O  O10  1  0.64037100  0.01190900  0.17369500  1
  O  O11  1  0.51190900  0.14037100  0.67369500  1
  O  O12  1  0.24421200  0.40275700  0.08134500  1
  O  O13  1  0.40275700  0.24421200  0.91865500  1
  O  O14  1  0.35843100  0.33174400  0.66729000  1
  O  O15  1  0.33174400  0.35843100  0.33271000  1
  O  O16  1  0.47016700  0.23387800  0.17007000  1
  O  O17  1  0.23387800  0.47016700  0.82993000  1
  O  O18  1  0.21828900  0.48673400  0.57599800  1
  O  O19  1  0.48673400  0.21828900  0.42400200  1
  O  O20  1  0.17262300  0.61539000  0.01556400  1
  O  O21  1  0.11539000  0.67262300  0.51556400  1
  O  O22  1  0.61539000  0.17262300  0.98443600  1
  O  O23  1  0.67262300  0.11539000  0.48443600  1
  O  O24  1  0.59320500  0.40679500  0.00760000  1
  O  O25  1  0.34122900  0.65877100  0.41733400  1
  O  O26  1  0.06344300  0.93655700  0.19487500  1
  O  O27  1  0.09320500  0.90679500  0.49240000  1
  O  O28  1  0.15877100  0.84122900  0.91733400  1
  O  O29  1  0.43655700  0.56344300  0.69487500  1
  O  O30  1  0.84122900  0.15877100  0.08266600  1
  O  O31  1  0.40679500  0.59320500  0.99240000  1
  O  O32  1  0.65877100  0.34122900  0.58266600  1
  O  O33  1  0.93655700  0.06344300  0.80512500  1
  O  O34  1  0.56344300  0.43655700  0.30512500  1
  O  O35  1  0.90679500  0.09320500  0.50760000  1
  O  O36  1  0.32737700  0.88461000  0.51556400  1
  O  O37  1  0.88461000  0.32737700  0.48443600  1
  O  O38  1  0.38461000  0.82737700  0.01556400  1
  O  O39  1  0.82737700  0.38461000  0.98443600  1
  O  O40  1  0.51326600  0.78171100  0.57599800  1
  O  O41  1  0.78171100  0.51326600  0.42400200  1
  O  O42  1  0.52983300  0.76612200  0.82993000  1
  O  O43  1  0.76612200  0.52983300  0.17007000  1
  O  O44  1  0.64156900  0.66825600  0.33271000  1
  O  O45  1  0.66825600  0.64156900  0.66729000  1
  O  O46  1  0.59724300  0.75578800  0.08134500  1
  O  O47  1  0.75578800  0.59724300  0.91865500  1
  O  O48  1  0.35962900  0.98809100  0.82630500  1
  O  O49  1  0.48809100  0.85962900  0.32630500  1
  O  O50  1  0.98809100  0.35962900  0.17369500  1
  O  O51  1  0.85962900  0.48809100  0.67369500  1
  O  O52  1  0.74421200  0.90275700  0.41865500  1
  O  O53  1  0.90275700  0.74421200  0.58134500  1
  O  O54  1  0.85843100  0.83174400  0.83271000  1
  O  O55  1  0.83174400  0.85843100  0.16729000  1
  O  O56  1  0.73387800  0.97016700  0.67007000  1
  O  O57  1  0.97016700  0.73387800  0.32993000  1
  O  O58  1  0.71828900  0.98673400  0.92400200  1
  O  O59  1  0.98673400  0.71828900  0.07599800  1
loop_
_geom_bond_atom_site_label_1
_geom_bond_atom_site_label_2
_geom_bond_distance
_geom_bond_site_symmetry_2
Li0 O13 2.008101 1_554
Li0 O12 2.008101 1_555
Li0 O5 2.067446 1_555
Li0 O4 2.067446 1_554
Li1 O10 1.983197 1_555
Li1 O49 1.983197 1_545
Li1 O3 2.479971 1_555
Li1 O16 2.479971 1_555
Li2 O9 1.983197 1_555
Li2 O51 1.983197 1_455
Li2 O2 2.479971 1_555
Li2 O17 2.479971 1_555
Li3 O7 2.008101 1_555
Li3 O6 2.008101 1_555
Li3 O15 2.067446 1_555
Li3 O14 2.067446 1_555
Li4 O28 2.037975 1_555
Li4 O33 2.122130 1_465
Li4 O54 2.374033 1_455
Li4 O4 2.374033 1_565
Li5 O32 2.037975 1_555
Li5 O29 2.122130 1_555
Li5 O45 2.374033 1_555
Li5 O14 2.374033 1_555
Li6 O25 2.037975 1_555
Li6 O34 2.122130 1_555
Li6 O44 2.374033 1_555
Li6 O15 2.374033 1_555
Li7 O30 2.037975 1_555
Li7 O26 2.122130 1_645
Li7 O55 2.374033 1_545
Li7 O5 2.374033 1_655
Li8 O53 2.008101 1_555
Li8 O52 2.008101 1_555
Li8 O44 2.067446 1_555
Li8 O45 2.067446 1_555
Li9 O11 1.983197 1_565
Li9 O48 1.983197 1_555
Li9 O42 2.479971 1_555
Li9 O56 2.479971 1_555
Li10 O8 1.983197 1_655
Li10 O50 1.983197 1_555
Li10 O57 2.479971 1_555
Li10 O43 2.479971 1_555
Li11 O46 2.008101 1_555
Li11 O47 2.008101 1_554
Li11 O55 2.067446 1_555
Li11 O54 2.067446 1_554
O0 Si1 1.638535 1_555
O0 Si13 1.645440 1_544
O1 Si0 1.638535 1_555
O1 Si14 1.645440 1_456
O2 Si0 1.645254 1_555
O2 Si19 1.669881 1_455
O3 Si1 1.645254 1_555
O3 Si17 1.669881 1_545
O4 Si0 1.601992 1_555
O4 V1 2.100281 1_555
O5 Si1 1.601992 1_555
O5 V0 2.100281 1_555
O6 Si19 1.594187 1_455
O6 V0 2.027828 1_555
O7 Si17 1.594187 1_545
O7 V1 2.027828 1_555
O8 Si8 1.597655 1_555
O8 V0 2.036198 1_555
O9 Si10 1.597655 1_555
O9 V2 2.036198 1_455
O10 Si9 1.597655 1_555
O10 V3 2.036198 1_545
O11 Si11 1.597655 1_555
O11 V1 2.036198 1_555
O12 Si5 1.594187 1_554
O12 V0 2.027828 1_555
O13 Si7 1.594187 1_556
O13 V1 2.027828 1_555
O14 Si2 1.601992 1_555
O14 V1 2.100281 1_555
O15 Si3 1.601992 1_555
O15 V0 2.100281 1_555
O16 Si3 1.645254 1_555
O16 Si7 1.669881 1_555
O17 Si2 1.645254 1_555
O17 Si5 1.669881 1_555
O18 Si2 1.638535 1_555
O18 Si8 1.645440 1_555
O19 Si3 1.638535 1_555
O19 Si11 1.645440 1_555
O20 Si10 1.627820 1_554
O20 Si5 1.636943 1_554
O21 Si8 1.627820 1_555
O21 Si4 1.636943 1_555
O22 Si9 1.627820 1_556
O22 Si7 1.636943 1_556
O23 Si11 1.627820 1_555
O23 Si6 1.636943 1_555
O24 Si16 1.646689 1_555
O24 Si7 1.646689 1_555
O25 Si12 1.677835 1_555
O25 Si8 1.677835 1_555
O26 Si1 1.642378 1_565
O26 Si23 1.642378 1_455
O27 Si17 1.646689 1_555
O27 Si4 1.646689 1_555
O28 Si10 1.677835 1_555
O28 Si13 1.677835 1_555
O29 Si2 1.642378 1_555
O29 Si20 1.642378 1_555
O30 Si9 1.677835 1_555
O30 Si14 1.677835 1_555
O31 Si18 1.646689 1_555
O31 Si5 1.646689 1_555
O32 Si15 1.677835 1_555
O32 Si11 1.677835 1_555
O33 Si0 1.642378 1_655
O33 Si22 1.642378 1_545
O34 Si3 1.642378 1_555
O34 Si21 1.642378 1_555
O35 Si19 1.646689 1_555
O35 Si6 1.646689 1_555
O36 Si12 1.627820 1_555
O36 Si17 1.636943 1_555
O37 Si15 1.627820 1_555
O37 Si19 1.636943 1_555
O38 Si13 1.627820 1_554
O38 Si18 1.636943 1_554
O39 Si14 1.627820 1_556
O39 Si16 1.636943 1_556
O40 Si20 1.638535 1_555
O40 Si12 1.645440 1_555
O41 Si21 1.638535 1_555
O41 Si15 1.645440 1_555
O42 Si20 1.645254 1_555
O42 Si18 1.669881 1_555
O43 Si21 1.645254 1_555
O43 Si16 1.669881 1_555
O44 Si21 1.601992 1_555
O44 V3 2.100281 1_555
O45 Si20 1.601992 1_555
O45 V2 2.100281 1_555
O46 Si18 1.594187 1_554
O46 V3 2.027828 1_555
O47 Si16 1.594187 1_556
O47 V2 2.027828 1_555
O48 Si13 1.597655 1_555
O48 V1 2.036198 1_565
O49 Si12 1.597655 1_555
O49 V3 2.036198 1_555
O50 Si14 1.597655 1_555
O50 V0 2.036198 1_655
O51 Si15 1.597655 1_555
O51 V2 2.036198 1_555
O52 Si6 1.594187 1_565
O52 V3 2.027828 1_555
O53 Si4 1.594187 1_655
O53 V2 2.027828 1_555
O54 Si22 1.601992 1_555
O54 V2 2.100281 1_555
O55 Si23 1.601992 1_555
O55 V3 2.100281 1_555
O56 Si22 1.645254 1_555
O56 Si6 1.669881 1_565
O57 Si23 1.645254 1_555
O57 Si4 1.669881 1_655
O58 Si22 1.638535 1_555
O58 Si9 1.645440 1_566
O59 Si23 1.638535 1_555
O59 Si10 1.645440 1_654
