# generated using pymatgen
data_Sr6Te6O17
_symmetry_space_group_name_H-M   'P 1'
_cell_length_a   14.46197454
_cell_length_b   14.46197454
_cell_length_c   28.91983176
_cell_angle_alpha   67.09600996
_cell_angle_beta   67.09600996
_cell_angle_gamma   23.72371977
_symmetry_Int_Tables_number   1
_chemical_formula_structural   Sr6Te6O17
_chemical_formula_sum   'Sr24 Te24 O68'
_cell_volume   2232.78761186
_cell_formula_units_Z   4
loop_
 _symmetry_equiv_pos_site_id
 _symmetry_equiv_pos_as_xyz
  1  'x, y, z'
loop_
 _atom_site_type_symbol
 _atom_site_label
 _atom_site_symmetry_multiplicity
 _atom_site_fract_x
 _atom_site_fract_y
 _atom_site_fract_z
 _atom_site_occupancy
  Sr  Sr0  1  0.00000000  0.50000000  0.50000000  1
  Sr  Sr1  1  0.50000000  0.00000000  0.00000000  1
  Sr  Sr2  1  0.76167300  0.23832700  0.25000000  1
  Sr  Sr3  1  0.23832700  0.76167300  0.75000000  1
  Sr  Sr4  1  0.14522200  0.73932800  0.05499500  1
  Sr  Sr5  1  0.26067200  0.85477800  0.44500500  1
  Sr  Sr6  1  0.85477800  0.26067200  0.94500500  1
  Sr  Sr7  1  0.73932800  0.14522200  0.55499500  1
  Sr  Sr8  1  0.05223800  0.54550100  0.07606600  1
  Sr  Sr9  1  0.45449900  0.94776200  0.42393400  1
  Sr  Sr10  1  0.94776200  0.45449900  0.92393400  1
  Sr  Sr11  1  0.54550100  0.05223800  0.57606600  1
  Sr  Sr12  1  0.17690400  0.68461200  0.19875300  1
  Sr  Sr13  1  0.31538800  0.82309600  0.30124700  1
  Sr  Sr14  1  0.82309600  0.31538800  0.80124700  1
  Sr  Sr15  1  0.68461200  0.17690400  0.69875300  1
  Sr  Sr16  1  0.11446800  0.59409500  0.63797900  1
  Sr  Sr17  1  0.40590500  0.88553200  0.86202100  1
  Sr  Sr18  1  0.88553200  0.40590500  0.36202100  1
  Sr  Sr19  1  0.59409500  0.11446800  0.13797900  1
  Sr  Sr20  1  0.08743100  0.58085100  0.78946200  1
  Sr  Sr21  1  0.41914900  0.91256900  0.71053800  1
  Sr  Sr22  1  0.91256900  0.41914900  0.21053800  1
  Sr  Sr23  1  0.58085100  0.08743100  0.28946200  1
  Te  Te0  1  0.04910000  0.55969200  0.20560600  1
  Te  Te1  1  0.44030800  0.95090000  0.29439400  1
  Te  Te2  1  0.95090000  0.44030800  0.79439400  1
  Te  Te3  1  0.55969200  0.04910000  0.70560600  1
  Te  Te4  1  0.98775200  0.45920900  0.63877300  1
  Te  Te5  1  0.54079100  0.01224800  0.86122700  1
  Te  Te6  1  0.01224800  0.54079100  0.36122700  1
  Te  Te7  1  0.45920900  0.98775200  0.13877300  1
  Te  Te8  1  0.28399900  0.69109200  0.61024300  1
  Te  Te9  1  0.30890800  0.71600100  0.88975700  1
  Te  Te10  1  0.71600100  0.30890800  0.38975700  1
  Te  Te11  1  0.69109200  0.28399900  0.11024300  1
  Te  Te12  1  0.91095700  0.39776400  0.07411400  1
  Te  Te13  1  0.60223600  0.08904300  0.42588600  1
  Te  Te14  1  0.08904300  0.60223600  0.92588600  1
  Te  Te15  1  0.39776400  0.91095700  0.57411400  1
  Te  Te16  1  0.14097500  0.65289800  0.50030800  1
  Te  Te17  1  0.34710200  0.85902500  0.99969200  1
  Te  Te18  1  0.85902500  0.34710200  0.49969200  1
  Te  Te19  1  0.65289800  0.14097500  0.00030800  1
  Te  Te20  1  0.86383400  0.30390400  0.67405200  1
  Te  Te21  1  0.69609700  0.13616600  0.82594800  1
  Te  Te22  1  0.13616600  0.69609700  0.32594800  1
  Te  Te23  1  0.30390300  0.86383400  0.17405200  1
  O  O0  1  0.14063200  0.55407300  0.13629200  1
  O  O1  1  0.44592700  0.85936800  0.36370800  1
  O  O2  1  0.85936800  0.44592700  0.86370800  1
  O  O3  1  0.55407300  0.14063200  0.63629200  1
  O  O4  1  0.30226000  0.38462800  0.22481100  1
  O  O5  1  0.61537200  0.69774000  0.27518900  1
  O  O6  1  0.69774000  0.61537200  0.77518900  1
  O  O7  1  0.38462800  0.30226000  0.72481100  1
  O  O8  1  0.81871600  0.85712600  0.21369200  1
  O  O9  1  0.14287400  0.18128400  0.28630800  1
  O  O10  1  0.18128400  0.14287400  0.78630800  1
  O  O11  1  0.85712600  0.81871600  0.71369200  1
  O  O12  1  0.09242300  0.45558800  0.57378300  1
  O  O13  1  0.54441200  0.90757700  0.92621700  1
  O  O14  1  0.90757700  0.54441200  0.42621700  1
  O  O15  1  0.45558800  0.09242300  0.07378300  1
  O  O16  1  0.76084800  0.74743000  0.65480500  1
  O  O17  1  0.25257000  0.23915200  0.84519500  1
  O  O18  1  0.23915200  0.25257000  0.34519500  1
  O  O19  1  0.74743000  0.76084800  0.15480400  1
  O  O20  1  0.22239500  0.26993300  0.67425200  1
  O  O21  1  0.73006700  0.77760500  0.82574800  1
  O  O22  1  0.77760500  0.73006700  0.32574800  1
  O  O23  1  0.26993300  0.22239500  0.17425200  1
  O  O24  1  0.35767100  0.59516700  0.67802900  1
  O  O25  1  0.40483300  0.64232900  0.82197100  1
  O  O26  1  0.64232900  0.40483300  0.32197100  1
  O  O27  1  0.59516700  0.35767100  0.17802900  1
  O  O28  1  0.98467200  0.89243600  0.62498700  1
  O  O29  1  0.10756400  0.01532800  0.87501300  1
  O  O30  1  0.01532800  0.10756400  0.37501300  1
  O  O31  1  0.89243600  0.98467200  0.12498700  1
  O  O32  1  0.00992600  0.37961000  0.11196400  1
  O  O33  1  0.62039000  0.99007400  0.38803600  1
  O  O34  1  0.99007400  0.62039000  0.88803600  1
  O  O35  1  0.37961000  0.00992600  0.61196400  1
  O  O36  1  0.09115600  0.29515900  0.01186400  1
  O  O37  1  0.70484100  0.90884400  0.48813600  1
  O  O38  1  0.90884400  0.70484100  0.98813600  1
  O  O39  1  0.29515900  0.09115600  0.51186400  1
  O  O40  1  0.62763100  0.71612200  0.05731200  1
  O  O41  1  0.28387800  0.37236900  0.44268800  1
  O  O42  1  0.37236900  0.28387800  0.94268800  1
  O  O43  1  0.71612200  0.62763100  0.55731200  1
  O  O44  1  0.14773100  0.78315100  0.49136500  1
  O  O45  1  0.21684900  0.85226900  0.00863500  1
  O  O46  1  0.85226900  0.21684900  0.50863500  1
  O  O47  1  0.78315100  0.14773100  0.99136500  1
  O  O48  1  0.91894200  0.82101300  0.55672300  1
  O  O49  1  0.17898700  0.08105800  0.94327700  1
  O  O50  1  0.08105800  0.17898700  0.44327700  1
  O  O51  1  0.82101300  0.91894200  0.05672300  1
  O  O52  1  0.40388500  0.36892900  0.53629500  1
  O  O53  1  0.63107100  0.59611500  0.96370500  1
  O  O54  1  0.59611500  0.63107100  0.46370500  1
  O  O55  1  0.36892900  0.40388500  0.03629500  1
  O  O56  1  0.88833100  0.14377100  0.69065000  1
  O  O57  1  0.85622900  0.11166900  0.80935000  1
  O  O58  1  0.11166900  0.85622900  0.30935000  1
  O  O59  1  0.14377100  0.88833100  0.19065000  1
  O  O60  1  0.59659500  0.56415800  0.71251300  1
  O  O61  1  0.43584200  0.40340500  0.78748700  1
  O  O62  1  0.40340500  0.43584200  0.28748700  1
  O  O63  1  0.56415800  0.59659500  0.21251300  1
  O  O64  1  0.07887900  0.11239900  0.71932100  1
  O  O65  1  0.88760100  0.92112100  0.78067900  1
  O  O66  1  0.92112100  0.88760100  0.28067900  1
  O  O67  1  0.11239900  0.07887900  0.21932100  1
loop_
_geom_bond_atom_site_label_1
_geom_bond_atom_site_label_2
_geom_bond_distance
_geom_bond_site_symmetry_2
O0 Te0 1.908275 1_555
O0 Sr8 2.621922 1_555
O0 Sr19 2.663933 1_555
O0 Sr4 2.830392 1_555
O1 Te1 1.908275 1_555
O1 Sr9 2.621922 1_555
O1 Sr18 2.663933 1_555
O1 Sr5 2.830392 1_555
O2 Te2 1.908275 1_555
O2 Sr10 2.621922 1_555
O2 Sr17 2.663933 1_555
O2 Sr6 2.830392 1_555
O3 Te3 1.908275 1_555
O3 Sr11 2.621922 1_555
O3 Sr16 2.663933 1_555
O3 Sr7 2.830392 1_555
O4 Te0 1.907595 1_555
O4 Sr23 2.470473 1_555
O4 Sr12 2.606480 1_555
O4 Sr19 2.928892 1_555
O5 Te1 1.907595 1_555
O5 Sr22 2.470473 1_555
O5 Sr13 2.606480 1_555
O5 Sr18 2.928892 1_555
O6 Te2 1.907595 1_555
O6 Sr21 2.470473 1_555
O6 Sr14 2.606480 1_555
O6 Sr17 2.928892 1_555
O7 Te3 1.907595 1_555
O7 Sr20 2.470473 1_555
O7 Sr15 2.606480 1_555
O7 Sr16 2.928892 1_555
O8 Te0 1.895686 1_655
O8 Sr19 2.501011 1_565
O8 Sr23 2.561929 1_565
O8 Sr12 2.945887 1_655
O9 Te1 1.895686 1_545
O9 Sr18 2.501011 1_455
O9 Sr22 2.561929 1_455
O9 Sr13 2.945887 1_545
O10 Te2 1.895686 1_455
O10 Sr17 2.501011 1_545
O10 Sr21 2.561929 1_545
O10 Sr14 2.945887 1_455
O11 Te3 1.895686 1_565
O11 Sr16 2.501011 1_655
O11 Sr20 2.561929 1_655
O11 Sr15 2.945887 1_565
O12 Te4 1.882449 1_455
O12 Sr0 2.516639 1_555
O12 Sr11 2.649204 1_555
O13 Te5 1.882449 1_565
O13 Sr1 2.516639 1_566
O13 Sr10 2.649204 1_555
O14 Te6 1.882449 1_655
O14 Sr0 2.516639 1_655
O14 Sr9 2.649204 1_555
O15 Te7 1.882449 1_545
O15 Sr1 2.516639 1_555
O15 Sr8 2.649204 1_555
O16 Te4 1.906051 1_555
O16 Sr11 2.624153 1_565
O16 Sr21 2.812276 1_555
O16 Sr16 3.073457 1_655
O17 Te5 1.906051 1_555
O17 Sr10 2.624153 1_455
O17 Sr20 2.812276 1_555
O17 Sr17 3.073457 1_545
O18 Te6 1.906051 1_555
O18 Sr9 2.624153 1_545
O18 Sr23 2.812276 1_555
O18 Sr18 3.073457 1_455
O19 Te7 1.906039 1_555
O19 Sr8 2.624134 1_655
O19 Sr22 2.812282 1_555
O19 Sr19 3.073463 1_565
O20 Te4 1.891322 1_455
O20 Sr21 2.661667 1_545
O20 Te3 2.735097 1_555
O20 Sr11 3.082821 1_555
O20 Sr16 3.092403 1_555
O21 Te5 1.891322 1_565
O21 Sr20 2.661667 1_655
O21 Te2 2.735097 1_555
O21 Sr10 3.082821 1_555
O21 Sr17 3.092403 1_555
O22 Te6 1.891322 1_655
O22 Sr23 2.661667 1_565
O22 Te1 2.735097 1_555
O22 Sr9 3.082821 1_555
O22 Sr18 3.092403 1_555
O23 Te7 1.891322 1_545
O23 Sr22 2.661667 1_455
O23 Te0 2.735097 1_555
O23 Sr8 3.082821 1_555
O23 Sr19 3.092403 1_555
O24 Te8 1.924919 1_555
O24 Sr15 2.514167 1_555
O24 Sr3 2.569979 1_555
O25 Te9 1.924919 1_555
O25 Sr14 2.514167 1_555
O25 Sr3 2.569979 1_555
O26 Te10 1.924919 1_555
O26 Sr13 2.514167 1_555
O26 Sr2 2.569979 1_555
O27 Te11 1.924919 1_555
O27 Sr12 2.514167 1_555
O27 Sr2 2.569979 1_555
O28 Te8 1.962091 1_655
O28 Sr7 2.476182 1_565
O28 Sr16 2.595857 1_655
O28 Sr15 2.691576 1_565
O29 Te9 1.962091 1_545
O29 Sr6 2.476182 1_455
O29 Sr17 2.595857 1_545
O29 Sr14 2.691576 1_455
O30 Te10 1.962091 1_455
O30 Sr5 2.476182 1_545
O30 Sr18 2.595857 1_455
O30 Sr13 2.691576 1_545
O31 Te11 1.962091 1_565
O31 Sr4 2.476182 1_655
O31 Sr19 2.595857 1_565
O31 Sr12 2.691576 1_655
O32 Te12 1.903537 1_455
O32 Sr22 2.665815 1_455
O32 Sr8 2.731812 1_555
O33 Te13 1.903537 1_565
O33 Sr23 2.665815 1_565
O33 Sr9 2.731812 1_555
O34 Te14 1.903537 1_655
O34 Sr20 2.665815 1_655
O34 Sr10 2.731812 1_555
O35 Te15 1.903537 1_545
O35 Sr21 2.665815 1_545
O35 Sr11 2.731812 1_555
O36 Te12 1.892426 1_455
O36 Sr1 2.578234 1_555
O36 Sr10 2.621223 1_454
O37 Te13 1.892426 1_565
O37 Sr0 2.578234 1_655
O37 Sr11 2.621223 1_565
O38 Te14 1.892426 1_655
O38 Sr1 2.578234 1_566
O38 Sr8 2.621223 1_656
O39 Te15 1.892426 1_545
O39 Sr0 2.578234 1_555
O39 Sr9 2.621223 1_545
O40 Te12 1.868021 1_555
O40 Sr1 2.493716 1_565
O41 Te13 1.868021 1_555
O41 Sr0 2.493716 1_555
O42 Te14 1.868021 1_555
O42 Sr1 2.493716 1_556
O43 Te15 1.868021 1_555
O43 Sr0 2.493716 1_655
O44 Te16 1.887572 1_555
O44 Sr5 2.418833 1_555
O44 Sr7 2.846463 1_465
O45 Te17 1.887572 1_554
O45 Sr4 2.418833 1_555
O45 Sr6 2.846463 1_464
O46 Te18 1.887572 1_555
O46 Sr7 2.418833 1_555
O46 Sr5 2.846463 1_645
O47 Te19 1.887572 1_556
O47 Sr6 2.418833 1_555
O47 Sr4 2.846463 1_646
O48 Te16 1.897115 1_655
O48 Sr7 2.520390 1_565
O48 Sr16 2.542854 1_655
O48 Sr11 2.588385 1_565
O49 Te17 1.897115 1_545
O49 Sr6 2.520390 1_455
O49 Sr17 2.542854 1_545
O49 Sr10 2.588385 1_455
O50 Te18 1.897115 1_455
O50 Sr5 2.520390 1_545
O50 Sr18 2.542854 1_455
O50 Sr9 2.588385 1_545
O51 Te19 1.897115 1_565
O51 Sr4 2.520390 1_655
O51 Sr19 2.542854 1_565
O51 Sr8 2.588385 1_655
O52 Te16 1.888962 1_555
O52 Sr7 2.497282 1_555
O52 Sr11 2.655580 1_555
O52 Sr16 3.112497 1_555
O53 Te17 1.888962 1_555
O53 Sr6 2.497282 1_555
O53 Sr10 2.655580 1_555
O53 Sr17 3.112497 1_555
O54 Te18 1.888962 1_555
O54 Sr5 2.497282 1_555
O54 Sr9 2.655580 1_555
O54 Sr18 3.112497 1_555
O55 Te19 1.888962 1_555
O55 Sr4 2.497282 1_555
O55 Sr8 2.655580 1_555
O55 Sr19 3.112497 1_555
O56 Te20 1.866523 1_555
O56 Sr15 2.435089 1_555
O56 Sr3 2.696005 1_645
O57 Te21 1.866509 1_555
O57 Sr14 2.435089 1_555
O57 Sr3 2.696005 1_645
O58 Te22 1.866509 1_555
O58 Sr13 2.435089 1_555
O58 Sr2 2.696005 1_465
O59 Te23 1.866509 1_555
O59 Sr12 2.435089 1_555
O59 Sr2 2.696005 1_465
O60 Te20 1.902199 1_555
O60 Sr3 2.668252 1_555
O60 Sr14 2.835031 1_555
O60 Sr21 2.862149 1_555
O61 Te21 1.902204 1_555
O61 Sr3 2.668252 1_555
O61 Sr15 2.835031 1_555
O61 Sr20 2.862149 1_555
O62 Te22 1.902204 1_555
O62 Sr2 2.668252 1_555
O62 Sr12 2.835031 1_555
O62 Sr23 2.862149 1_555
O63 Te23 1.902204 1_555
O63 Sr2 2.668252 1_555
O63 Sr13 2.835031 1_555
O63 Sr22 2.862149 1_555
O64 Te20 1.905896 1_455
O64 Sr21 2.488292 1_545
O64 Sr14 2.573655 1_455
O64 Sr3 2.916457 1_545
O65 Te21 1.905900 1_565
O65 Sr20 2.488292 1_655
O65 Sr15 2.573655 1_565
O65 Sr3 2.916457 1_655
O66 Te22 1.905900 1_655
O66 Sr23 2.488292 1_565
O66 Sr12 2.573655 1_655
O66 Sr2 2.916457 1_565
O67 Te23 1.905900 1_545
O67 Sr22 2.488292 1_455
O67 Sr13 2.573655 1_545
O67 Sr2 2.916457 1_455
