# generated using pymatgen
data_Li3CrSiCO7
_symmetry_space_group_name_H-M   'P 1'
_cell_length_a   5.04580642
_cell_length_b   8.30816879
_cell_length_c   6.46851500
_cell_angle_alpha   90.00017814
_cell_angle_beta   90.00001481
_cell_angle_gamma   85.16076237
_symmetry_Int_Tables_number   1
_chemical_formula_structural   Li3CrSiCO7
_chemical_formula_sum   'Li6 Cr2 Si2 C2 O14'
_cell_volume   270.20264709
_cell_formula_units_Z   2
loop_
 _symmetry_equiv_pos_site_id
 _symmetry_equiv_pos_as_xyz
  1  'x, y, z'
loop_
 _atom_site_type_symbol
 _atom_site_label
 _atom_site_symmetry_multiplicity
 _atom_site_fract_x
 _atom_site_fract_y
 _atom_site_fract_z
 _atom_site_occupancy
  Li  Li0  1  0.77452200  0.10781700  0.24999800  1
  Li  Li1  1  0.22543300  0.89217200  0.75000100  1
  Li  Li2  1  0.23858500  0.29266200  0.03385200  1
  Li  Li3  1  0.23858500  0.29266300  0.46614500  1
  Li  Li4  1  0.76140500  0.70729400  0.53385000  1
  Li  Li5  1  0.76141100  0.70729400  0.96615100  1
  Cr  Cr0  1  0.19866800  0.67866400  0.25000400  1
  Cr  Cr1  1  0.80125800  0.32119400  0.74999900  1
  Si  Si0  1  0.71756100  0.42142300  0.25000100  1
  Si  Si1  1  0.28244600  0.57860200  0.75000100  1
  C  C0  1  0.69822700  0.03189300  0.74999800  1
  C  C1  1  0.30177700  0.96812600  0.25000000  1
  O  O0  1  0.36287300  0.11504200  0.24999400  1
  O  O1  1  0.63710500  0.88499100  0.74999900  1
  O  O2  1  0.94338900  0.07123100  0.74999600  1
  O  O3  1  0.05662200  0.92878400  0.25000300  1
  O  O4  1  0.51551500  0.15274500  0.74999800  1
  O  O5  1  0.48453600  0.84729900  0.25000400  1
  O  O6  1  0.38865700  0.45495700  0.25000500  1
  O  O7  1  0.61136900  0.54511200  0.75000200  1
  O  O8  1  0.15885400  0.40327400  0.74999800  1
  O  O9  1  0.84124600  0.59672400  0.25000200  1
  O  O10  1  0.82134200  0.30376500  0.05631200  1
  O  O11  1  0.82134500  0.30376500  0.44368700  1
  O  O12  1  0.17863500  0.69625300  0.55629900  1
  O  O13  1  0.17863500  0.69625500  0.94370100  1
loop_
_geom_bond_atom_site_label_1
_geom_bond_atom_site_label_2
_geom_bond_distance
_geom_bond_site_symmetry_2
Li0 O3 1.970120 1_645
Li0 O0 2.072900 1_555
Li0 O10 2.083424 1_555
Li0 O11 2.083433 1_555
Li1 O2 1.970084 1_465
Li1 O1 2.073037 1_555
Li1 O13 2.083255 1_555
Li1 O12 2.083270 1_555
Li2 O8 2.077337 1_554
Li2 O0 2.090354 1_555
Li2 O10 2.104579 1_455
Li2 O6 2.125725 1_555
Li2 O4 2.530037 1_554
Li3 O8 2.077322 1_555
Li3 O0 2.090393 1_555
Li3 O11 2.104563 1_455
Li3 O6 2.125670 1_555
Li3 O4 2.530041 1_555
Li4 O9 2.077236 1_555
Li4 O1 2.090828 1_555
Li4 O12 2.104530 1_655
Li4 O7 2.125028 1_555
Li4 O5 2.530148 1_555
Li5 O9 2.077253 1_556
Li5 O1 2.090854 1_555
Li5 O13 2.104501 1_655
Li5 O7 2.125022 1_555
Li5 O5 2.530192 1_556
Cr0 O9 1.980693 1_455
Cr0 O12 1.988599 1_555
Cr0 O13 1.988652 1_554
Cr0 O6 2.018110 1_555
Cr0 O5 2.093925 1_555
Cr0 O3 2.140249 1_555
Cr1 O8 1.982007 1_655
Cr1 O11 1.988629 1_555
Cr1 O10 1.988635 1_556
Cr1 O7 2.019454 1_555
Cr1 O4 2.092332 1_555
Cr1 O2 2.139128 1_555
C0 O1 1.283827 1_545
C0 O4 1.304572 1_555
C0 O2 1.305870 1_555
C1 O0 1.283898 1_565
C1 O5 1.304577 1_555
C1 O3 1.305847 1_555
O6 Si0 1.659468 1_555
O7 Si1 1.659532 1_555
O8 Si1 1.632180 1_555
O9 Si0 1.632187 1_555
O10 Si0 1.647150 1_555
O11 Si0 1.647144 1_555
O12 Si1 1.647226 1_555
O13 Si1 1.647222 1_555
