# generated using pymatgen
data_Fe3(OF2)2
_symmetry_space_group_name_H-M   'P 1'
_cell_length_a   9.47782200
_cell_length_b   4.75776100
_cell_length_c   4.78914770
_cell_angle_alpha   88.81763039
_cell_angle_beta   90.00000000
_cell_angle_gamma   90.00000000
_symmetry_Int_Tables_number   1
_chemical_formula_structural   Fe3(OF2)2
_chemical_formula_sum   'Fe6 O4 F8'
_cell_volume   215.91207040
_cell_formula_units_Z   2
loop_
 _symmetry_equiv_pos_site_id
 _symmetry_equiv_pos_as_xyz
  1  'x, y, z'
loop_
 _atom_site_type_symbol
 _atom_site_label
 _atom_site_symmetry_multiplicity
 _atom_site_fract_x
 _atom_site_fract_y
 _atom_site_fract_z
 _atom_site_occupancy
  Fe  Fe0  1  0.17446900  0.97512000  0.98912700  1
  Fe  Fe1  1  0.82553100  0.97512000  0.98912700  1
  Fe  Fe2  1  0.50000000  0.98223900  0.03235500  1
  Fe  Fe3  1  0.00000000  0.52040900  0.52980000  1
  Fe  Fe4  1  0.32322200  0.53133900  0.49175200  1
  Fe  Fe5  1  0.67677800  0.53133900  0.49175200  1
  O  O0  1  0.65648900  0.80374300  0.20169600  1
  O  O1  1  0.34351100  0.80374300  0.20169600  1
  O  O2  1  0.16647000  0.68181200  0.68677600  1
  O  O3  1  0.83353000  0.68181200  0.68677600  1
  F  F0  1  0.00000000  0.78643200  0.20314000  1
  F  F1  1  0.50000000  0.69724400  0.69701500  1
  F  F2  1  0.16497500  0.30217600  0.30341100  1
  F  F3  1  0.83502500  0.30217600  0.30341100  1
  F  F4  1  0.50000000  0.31062600  0.31135200  1
  F  F5  1  0.00000000  0.19476800  0.79808400  1
  F  F6  1  0.35026400  0.20998800  0.79113600  1
  F  F7  1  0.64973600  0.20998800  0.79113600  1
loop_
_geom_bond_atom_site_label_1
_geom_bond_atom_site_label_2
_geom_bond_distance
_geom_bond_site_symmetry_2
Fe0 O2 2.033038 1_555
Fe0 O1 2.057628 1_556
Fe1 O3 2.033038 1_555
Fe1 O0 2.057628 1_556
Fe2 O1 1.884228 1_555
Fe2 O0 1.884228 1_555
Fe3 O2 1.915219 1_555
Fe3 O3 1.915219 1_455
Fe4 O1 1.889983 1_555
Fe4 O2 1.902549 1_555
Fe5 O0 1.889983 1_555
Fe5 O3 1.902549 1_555
F0 Fe3 1.991892 1_555
F0 Fe1 2.133729 1_454
F0 Fe0 2.133729 1_554
F1 Fe4 2.104432 1_555
F1 Fe5 2.104432 1_555
F1 Fe2 2.123123 1_556
F2 Fe4 2.071822 1_555
F2 Fe3 2.178278 1_555
F2 Fe0 2.188959 1_544
F3 Fe5 2.071822 1_555
F3 Fe3 2.178278 1_655
F3 Fe1 2.188959 1_544
F4 Fe2 2.076662 1_545
F4 Fe4 2.166514 1_555
F4 Fe5 2.166514 1_555
F5 Fe3 1.992257 1_555
F5 Fe1 2.150368 1_445
F5 Fe0 2.150368 1_545
F6 Fe4 2.090109 1_555
F6 Fe2 2.114494 1_546
F6 Fe0 2.209100 1_545
F7 Fe5 2.090109 1_555
F7 Fe2 2.114494 1_546
F7 Fe1 2.209100 1_545
