# generated using pymatgen
data_Na3Li2Fe5(SiO3)10
_symmetry_space_group_name_H-M   'P 1'
_cell_length_a   6.61171100
_cell_length_b   7.45431713
_cell_length_c   22.60943778
_cell_angle_alpha   85.39730099
_cell_angle_beta   86.36678547
_cell_angle_gamma   85.24394269
_symmetry_Int_Tables_number   1
_chemical_formula_structural   Na3Li2Fe5(SiO3)10
_chemical_formula_sum   'Na6 Li4 Fe10 Si20 O60'
_cell_volume   1105.10021696
_cell_formula_units_Z   2
loop_
 _symmetry_equiv_pos_site_id
 _symmetry_equiv_pos_as_xyz
  1  'x, y, z'
loop_
 _atom_site_type_symbol
 _atom_site_label
 _atom_site_symmetry_multiplicity
 _atom_site_fract_x
 _atom_site_fract_y
 _atom_site_fract_z
 _atom_site_occupancy
  Na  Na0  1  0.81480900  0.92344300  0.89103900  1
  Na  Na1  1  0.01504000  0.32374800  0.69113700  1
  Na  Na2  1  0.21527200  0.72369400  0.49126700  1
  Na  Na3  1  0.41482600  0.12295700  0.29160400  1
  Na  Na4  1  0.18745700  0.07693400  0.10886400  1
  Na  Na5  1  0.61451100  0.52444500  0.09095000  1
  Li  Li0  1  0.35115700  0.45191200  0.90040400  1
  Li  Li1  1  0.55267700  0.85108400  0.70077400  1
  Li  Li2  1  0.75292400  0.25092900  0.50097900  1
  Li  Li3  1  0.95210600  0.65060600  0.30068500  1
  Fe  Fe0  1  0.12879300  0.16239000  0.97014400  1
  Fe  Fe1  1  0.06864700  0.23967000  0.82951600  1
  Fe  Fe2  1  0.33209000  0.56167900  0.77020500  1
  Fe  Fe3  1  0.26913300  0.63962600  0.62974500  1
  Fe  Fe4  1  0.53247000  0.96155800  0.57065200  1
  Fe  Fe5  1  0.46958600  0.03954100  0.43020300  1
  Fe  Fe6  1  0.73320000  0.36110900  0.37095300  1
  Fe  Fe7  1  0.67047700  0.43683700  0.23006600  1
  Fe  Fe8  1  0.93294100  0.76056100  0.17046600  1
  Fe  Fe9  1  0.86808900  0.84170200  0.02952100  1
  Si  Si0  1  0.07160700  0.92880800  0.72681200  1
  Si  Si1  1  0.33121300  0.87111800  0.87314200  1
  Si  Si2  1  0.62455300  0.22374000  0.99113700  1
  Si  Si3  1  0.86954200  0.52837300  0.92694500  1
  Si  Si4  1  0.82743700  0.62352100  0.79074700  1
  Si  Si5  1  0.02770800  0.02351400  0.59087000  1
  Si  Si6  1  0.57326700  0.18031600  0.80899700  1
  Si  Si7  1  0.27182000  0.32871000  0.52708700  1
  Si  Si8  1  0.53170100  0.27107300  0.67365600  1
  Si  Si9  1  0.22808500  0.42304600  0.39119300  1
  Si  Si10  1  0.77369800  0.58013700  0.60922800  1
  Si  Si11  1  0.47354200  0.72769300  0.32812000  1
  Si  Si12  1  0.73205400  0.67109100  0.47388700  1
  Si  Si13  1  0.42986900  0.81739600  0.19254500  1
  Si  Si14  1  0.97417200  0.97994600  0.40924400  1
  Si  Si15  1  0.17298200  0.38110400  0.20898900  1
  Si  Si16  1  0.12896500  0.47620900  0.07269200  1
  Si  Si17  1  0.37263100  0.78156500  0.00798000  1
  Si  Si18  1  0.66968900  0.12552100  0.12729100  1
  Si  Si19  1  0.93264600  0.07038100  0.27371500  1
  O  O0  1  0.05872300  0.37774200  0.91035200  1
  O  O1  1  0.42255300  0.77870800  0.93587000  1
  O  O2  1  0.27119900  0.70051900  0.83976400  1
  O  O3  1  0.02629500  0.47927300  0.77850400  1
  O  O4  1  0.51448400  0.97582900  0.83504300  1
  O  O5  1  0.26077600  0.77777800  0.71070200  1
  O  O6  1  0.14709800  0.02635500  0.88908100  1
  O  O7  1  0.41953200  0.19720600  0.95848500  1
  O  O8  1  0.68627500  0.42701700  0.96552100  1
  O  O9  1  0.22672500  0.87935100  0.57872800  1
  O  O10  1  0.37655400  0.32578200  0.82299600  1
  O  O11  1  0.13486000  0.09331300  0.76233200  1
  O  O12  1  0.93162800  0.69285700  0.96265400  1
  O  O13  1  0.78186400  0.62213200  0.86357000  1
  O  O14  1  0.34744200  0.42637100  0.68938100  1
  O  O15  1  0.62254000  0.59723200  0.75781200  1
  O  O16  1  0.02289600  0.98115200  0.33692100  1
  O  O17  1  0.82390300  0.08058100  0.97882100  1
  O  O18  1  0.08901500  0.22719100  0.56548300  1
  O  O19  1  0.88887500  0.82714900  0.76527900  1
  O  O20  1  0.57682200  0.72551700  0.62316700  1
  O  O21  1  0.33494700  0.49326500  0.56257600  1
  O  O22  1  0.77765400  0.21620000  0.84023800  1
  O  O23  1  0.18268300  0.42203500  0.46395100  1
  O  O24  1  0.62135300  0.18066700  0.73676200  1
  O  O25  1  0.54785300  0.82624300  0.48979200  1
  O  O26  1  0.82275600  0.99711300  0.55803700  1
  O  O27  1  0.02355300  0.39651900  0.35817800  1
  O  O28  1  0.47250300  0.09998800  0.64038300  1
  O  O29  1  0.28962900  0.62692300  0.36618400  1
  O  O30  1  0.71480900  0.37574100  0.63540900  1
  O  O31  1  0.53701600  0.89220900  0.36348700  1
  O  O32  1  0.17848500  0.01613700  0.44050600  1
  O  O33  1  0.97809300  0.61647400  0.64039700  1
  O  O34  1  0.46112000  0.17767400  0.51110000  1
  O  O35  1  0.38590600  0.82213400  0.26503400  1
  O  O36  1  0.82171000  0.58045300  0.53697600  1
  O  O37  1  0.22597800  0.78170700  0.16118500  1
  O  O38  1  0.67284500  0.49977300  0.44066400  1
  O  O39  1  0.42713500  0.27889500  0.37897700  1
  O  O40  1  0.11472000  0.17490700  0.23440800  1
  O  O41  1  0.91498700  0.77567500  0.43547300  1
  O  O42  1  0.17317800  0.92438200  0.02040200  1
  O  O43  1  0.98273100  0.02255000  0.66366500  1
  O  O44  1  0.37832500  0.41496500  0.24000100  1
  O  O45  1  0.66150600  0.57617600  0.31165400  1
  O  O46  1  0.21662800  0.38130500  0.13621200  1
  O  O47  1  0.87387500  0.89903600  0.24056300  1
  O  O48  1  0.06598300  0.31094500  0.03767100  1
  O  O49  1  0.62972900  0.67614300  0.17975400  1
  O  O50  1  0.77742900  0.12535900  0.42334000  1
  O  O51  1  0.31529000  0.57787200  0.03550500  1
  O  O52  1  0.57520300  0.81948500  0.03986300  1
  O  O53  1  0.85486800  0.97306900  0.11137500  1
  O  O54  1  0.74824700  0.22516800  0.28970800  1
  O  O55  1  0.48623300  0.02296300  0.16605500  1
  O  O56  1  0.97505100  0.52350100  0.22377700  1
  O  O57  1  0.73318100  0.29002200  0.16275300  1
  O  O58  1  0.57778000  0.22007000  0.06434900  1
  O  O59  1  0.94558300  0.62951600  0.08972000  1
loop_
_geom_bond_atom_site_label_1
_geom_bond_atom_site_label_2
_geom_bond_distance
_geom_bond_site_symmetry_2
Na0 O12 2.380010 1_555
Na0 O6 2.383060 1_665
Na0 O22 2.384663 1_565
Na0 O17 2.390532 1_565
Na0 O13 2.408346 1_555
Na0 O4 2.410162 1_555
Na1 O3 2.377382 1_555
Na1 O11 2.379387 1_555
Na1 O14 2.383218 1_555
Na1 O33 2.383812 1_455
Na1 O30 2.406071 1_455
Na1 O43 2.406789 1_455
Na2 O9 2.379946 1_555
Na2 O21 2.380706 1_555
Na2 O32 2.382117 1_565
Na2 O25 2.384559 1_555
Na2 O41 2.407209 1_455
Na2 O23 2.409239 1_555
Na3 O39 2.380093 1_555
Na3 O44 2.387166 1_555
Na3 O54 2.388180 1_555
Na3 O35 2.393281 1_545
Na3 O31 2.395833 1_545
Na3 O40 2.424204 1_555
Na4 O53 2.386975 1_445
Na4 O42 2.389380 1_545
Na4 O48 2.399950 1_555
Na4 O37 2.415535 1_545
Na4 O55 2.417559 1_555
Na4 O46 2.424905 1_555
Na5 O59 2.383030 1_555
Na5 O49 2.393532 1_555
Na5 O51 2.397400 1_555
Na5 O52 2.402968 1_555
Na5 O57 2.404897 1_555
Na5 O58 2.428484 1_555
Li0 O10 2.043500 1_555
Li0 O0 2.048621 1_555
Li0 O7 2.250882 1_555
Li0 O2 2.261676 1_555
Li1 O5 2.043049 1_555
Li1 O20 2.045414 1_555
Li1 O15 2.235196 1_555
Li1 O28 2.260513 1_565
Li2 O34 2.042435 1_555
Li2 O50 2.046037 1_555
Li2 O26 2.235187 1_545
Li2 O38 2.259098 1_555
Li3 O56 2.037515 1_555
Li3 O45 2.038449 1_555
Li3 O27 2.243785 1_655
Li3 O47 2.251890 1_555
Fe0 O7 1.959474 1_555
Fe0 O48 1.960720 1_556
Fe0 O42 2.038975 1_546
Fe0 O0 2.055947 1_555
Fe0 O17 2.146752 1_455
Fe0 O6 2.156820 1_555
Fe1 O22 1.944455 1_455
Fe1 O11 1.947239 1_555
Fe1 O6 2.054088 1_555
Fe1 O3 2.055745 1_555
Fe1 O0 2.163205 1_555
Fe1 O10 2.177545 1_555
Fe2 O2 1.954088 1_555
Fe2 O15 1.959811 1_555
Fe2 O10 2.055504 1_555
Fe2 O5 2.057612 1_555
Fe2 O14 2.149953 1_555
Fe2 O3 2.153999 1_555
Fe3 O33 1.944293 1_455
Fe3 O21 1.946644 1_555
Fe3 O14 2.054538 1_555
Fe3 O9 2.056578 1_555
Fe3 O5 2.166612 1_555
Fe3 O20 2.175545 1_555
Fe4 O28 1.954905 1_565
Fe4 O26 1.959107 1_555
Fe4 O20 2.053036 1_555
Fe4 O34 2.058422 1_565
Fe4 O25 2.150691 1_555
Fe4 O9 2.153136 1_555
Fe5 O31 1.944143 1_545
Fe5 O32 1.944586 1_555
Fe5 O25 2.054051 1_545
Fe5 O39 2.056728 1_555
Fe5 O34 2.165291 1_555
Fe5 O50 2.176235 1_555
Fe6 O38 1.955810 1_555
Fe6 O27 1.959587 1_655
Fe6 O50 2.049715 1_555
Fe6 O45 2.049868 1_555
Fe6 O39 2.155177 1_555
Fe6 O54 2.160984 1_555
Fe7 O57 1.948824 1_555
Fe7 O44 1.949248 1_555
Fe7 O49 2.045041 1_555
Fe7 O54 2.045541 1_555
Fe7 O56 2.158117 1_555
Fe7 O45 2.183702 1_555
Fe8 O37 1.953587 1_655
Fe8 O47 1.961390 1_555
Fe8 O53 2.042772 1_555
Fe8 O56 2.066920 1_555
Fe8 O59 2.132476 1_555
Fe8 O49 2.143303 1_555
Fe9 O12 1.950538 1_554
Fe9 O52 1.954898 1_555
Fe9 O17 2.049086 1_564
Fe9 O59 2.055551 1_555
Fe9 O42 2.150431 1_655
Fe9 O53 2.155858 1_555
O0 Si3 1.655687 1_455
O1 Si17 1.644293 1_556
O1 Si1 1.653306 1_555
O2 Si1 1.618587 1_555
O3 Si4 1.651881 1_455
O4 Si1 1.654149 1_555
O4 Si6 1.657267 1_565
O5 Si0 1.655009 1_555
O6 Si1 1.651829 1_545
O7 Si2 1.617510 1_555
O8 Si3 1.646783 1_555
O8 Si2 1.652215 1_555
O9 Si5 1.651886 1_565
O10 Si6 1.654273 1_555
O11 Si0 1.615319 1_545
O12 Si3 1.614942 1_555
O13 Si4 1.654304 1_555
O13 Si3 1.659824 1_555
O14 Si8 1.651667 1_555
O15 Si4 1.619708 1_555
O16 Si14 1.645916 1_455
O16 Si19 1.652383 1_465
O17 Si2 1.649705 1_555
O18 Si7 1.643290 1_555
O18 Si5 1.652761 1_555
O19 Si0 1.644147 1_655
O19 Si4 1.653162 1_555
O20 Si10 1.654398 1_555
O21 Si7 1.614928 1_555
O22 Si6 1.614884 1_555
O23 Si9 1.652892 1_555
O23 Si7 1.657775 1_555
O24 Si6 1.643791 1_555
O24 Si8 1.651629 1_555
O25 Si12 1.651616 1_555
O26 Si5 1.619013 1_665
O27 Si9 1.618947 1_555
O28 Si8 1.618530 1_555
O29 Si11 1.642740 1_555
O29 Si9 1.652408 1_555
O30 Si8 1.654660 1_555
O30 Si10 1.657668 1_555
O31 Si11 1.613919 1_555
O32 Si14 1.615313 1_445
O33 Si10 1.615026 1_555
O34 Si7 1.655003 1_555
O35 Si13 1.648956 1_555
O35 Si11 1.655816 1_555
O36 Si10 1.644121 1_555
O36 Si12 1.651846 1_555
O37 Si13 1.612971 1_555
O38 Si12 1.619409 1_555
O39 Si9 1.652274 1_555
O40 Si19 1.659793 1_455
O40 Si15 1.664206 1_555
O41 Si12 1.655160 1_555
O41 Si14 1.657678 1_555
O42 Si17 1.649101 1_555
O43 Si5 1.653404 1_655
O43 Si0 1.658341 1_645
O44 Si15 1.613842 1_555
O45 Si11 1.653727 1_555
O46 Si15 1.652353 1_555
O46 Si16 1.665350 1_555
O47 Si19 1.617737 1_565
O48 Si16 1.612892 1_555
O49 Si13 1.645655 1_555
O50 Si14 1.654603 1_545
O51 Si16 1.649284 1_555
O51 Si17 1.658445 1_555
O52 Si17 1.615931 1_555
O53 Si18 1.642880 1_565
O54 Si19 1.651157 1_555
O55 Si18 1.653894 1_555
O55 Si13 1.662779 1_545
O56 Si15 1.649928 1_655
O57 Si18 1.615101 1_555
O58 Si2 1.663010 1_554
O58 Si18 1.663966 1_555
O59 Si16 1.644983 1_655
