# generated using pymatgen
data_Ti3Co2Te(PO4)6
_symmetry_space_group_name_H-M   'P 1'
_cell_length_a   8.65259648
_cell_length_b   8.65259648
_cell_length_c   8.65259694
_cell_angle_alpha   61.10779740
_cell_angle_beta   61.10779740
_cell_angle_gamma   61.10779723
_symmetry_Int_Tables_number   1
_chemical_formula_structural   Ti3Co2Te(PO4)6
_chemical_formula_sum   'Ti3 Co2 Te1 P6 O24'
_cell_volume   469.48377235
_cell_formula_units_Z   1
loop_
 _symmetry_equiv_pos_site_id
 _symmetry_equiv_pos_as_xyz
  1  'x, y, z'
loop_
 _atom_site_type_symbol
 _atom_site_label
 _atom_site_symmetry_multiplicity
 _atom_site_fract_x
 _atom_site_fract_y
 _atom_site_fract_z
 _atom_site_occupancy
  Ti  Ti0  1  0.14033100  0.14033100  0.14033100  1
  Ti  Ti1  1  0.35692100  0.35692100  0.35692100  1
  Ti  Ti2  1  0.63992100  0.63992100  0.63992100  1
  Co  Co0  1  0.00833600  0.00833600  0.00833600  1
  Co  Co1  1  0.50384200  0.50384200  0.50384200  1
  Te  Te0  1  0.85678700  0.85678700  0.85678700  1
  P  P0  1  0.96009500  0.53517000  0.25568900  1
  P  P1  1  0.25568900  0.96009500  0.53517000  1
  P  P2  1  0.53517000  0.25568900  0.96009500  1
  P  P3  1  0.44984000  0.74539700  0.04655600  1
  P  P4  1  0.74539700  0.04655600  0.44984000  1
  P  P5  1  0.04655600  0.44984000  0.74539700  1
  O  O0  1  0.48476700  0.32577900  0.11684600  1
  O  O1  1  0.11684600  0.48476700  0.32577900  1
  O  O2  1  0.26118400  0.90876100  0.06014400  1
  O  O3  1  0.32577900  0.11684600  0.48476700  1
  O  O4  1  0.60162500  0.80852600  0.02408000  1
  O  O5  1  0.42991200  0.58600800  0.23757100  1
  O  O6  1  0.90876100  0.06014400  0.26118400  1
  O  O7  1  0.58600800  0.23757100  0.42991200  1
  O  O8  1  0.00038000  0.38224000  0.18471500  1
  O  O9  1  0.23757100  0.42991200  0.58600800  1
  O  O10  1  0.95231400  0.73074800  0.10018000  1
  O  O11  1  0.18471500  0.00038000  0.38224000  1
  O  O12  1  0.80852600  0.02408000  0.60162500  1
  O  O13  1  0.06014400  0.26118400  0.90876100  1
  O  O14  1  0.76729300  0.55260200  0.41390600  1
  O  O15  1  0.02408000  0.60162500  0.80852600  1
  O  O16  1  0.41390600  0.76729300  0.55260200  1
  O  O17  1  0.10018000  0.95231400  0.73074800  1
  O  O18  1  0.55260200  0.41390600  0.76729300  1
  O  O19  1  0.38224000  0.18471500  0.00038000  1
  O  O20  1  0.68921200  0.87977100  0.50254700  1
  O  O21  1  0.73074800  0.10018000  0.95231400  1
  O  O22  1  0.87977100  0.50254700  0.68921200  1
  O  O23  1  0.50254700  0.68921200  0.87977100  1
loop_
_geom_bond_atom_site_label_1
_geom_bond_atom_site_label_2
_geom_bond_distance
_geom_bond_site_symmetry_2
Co0 O13 2.117239 1_554
Co0 O2 2.117239 1_545
Co0 O6 2.117239 1_455
Co0 O10 2.354523 1_445
Co0 O21 2.354523 1_454
Co0 O17 2.354523 1_544
Co1 O14 2.208570 1_555
Co1 O16 2.208570 1_555
Co1 O18 2.208570 1_555
Co1 O9 2.371632 1_555
Co1 O7 2.371632 1_555
Co1 O5 2.371632 1_555
O0 P2 1.537929 1_554
O0 Ti1 1.908848 1_555
O1 P0 1.537929 1_455
O1 Ti1 1.908847 1_555
O2 P3 1.556256 1_555
O2 Ti0 2.051151 1_565
O3 P1 1.537929 1_545
O3 Ti1 1.908847 1_555
O4 P3 1.550741 1_555
O4 Te0 2.088705 1_554
O5 P3 1.554080 1_555
O5 Ti1 1.998960 1_555
O6 P4 1.556256 1_555
O6 Ti0 2.051151 1_655
O7 P4 1.554080 1_555
O7 Ti1 1.998960 1_555
O8 P0 1.543466 1_455
O8 Ti0 1.968037 1_555
O9 P5 1.554080 1_555
O9 Ti1 1.998960 1_555
O10 P0 1.567125 1_555
O10 Te0 2.213448 1_554
O11 P1 1.543467 1_545
O11 Ti0 1.968038 1_555
O12 P4 1.550741 1_555
O12 Te0 2.088705 1_545
O13 P5 1.556256 1_555
O13 Ti0 2.051152 1_556
O14 P0 1.558649 1_555
O14 Ti2 2.037237 1_555
O15 P5 1.550741 1_555
O15 Te0 2.088705 1_455
O16 P1 1.558649 1_555
O16 Ti2 2.037237 1_555
O17 P1 1.567126 1_555
O17 Te0 2.213448 1_455
O18 P2 1.558649 1_555
O18 Ti2 2.037237 1_555
O19 P2 1.543466 1_554
O19 Ti0 1.968037 1_555
O20 P4 1.534487 1_565
O20 Ti2 1.970640 1_555
O21 P2 1.567125 1_555
O21 Te0 2.213448 1_545
O22 P5 1.534487 1_655
O22 Ti2 1.970640 1_555
O23 P3 1.534487 1_556
O23 Ti2 1.970640 1_555
