# generated using pymatgen
data_Al12PbO19
_symmetry_space_group_name_H-M   'P 1'
_cell_length_a   5.63028899
_cell_length_b   5.63028899
_cell_length_c   22.24683000
_cell_angle_alpha   90.00000000
_cell_angle_beta   90.00000000
_cell_angle_gamma   119.99998809
_symmetry_Int_Tables_number   1
_chemical_formula_structural   Al12PbO19
_chemical_formula_sum   'Al24 Pb2 O38'
_cell_volume   610.74538353
_cell_formula_units_Z   2
loop_
 _symmetry_equiv_pos_site_id
 _symmetry_equiv_pos_as_xyz
  1  'x, y, z'
loop_
 _atom_site_type_symbol
 _atom_site_label
 _atom_site_symmetry_multiplicity
 _atom_site_fract_x
 _atom_site_fract_y
 _atom_site_fract_z
 _atom_site_occupancy
  Al  Al0  1  0.16903200  0.83096800  0.89206300  1
  Al  Al1  1  0.16757600  0.83242400  0.60874300  1
  Al  Al2  1  0.33333300  0.66666700  0.02844800  1
  Al  Al3  1  0.33333300  0.66666700  0.19029300  1
  Al  Al4  1  0.33333300  0.66666700  0.30980400  1
  Al  Al5  1  0.16757600  0.33515200  0.60874300  1
  Al  Al6  1  0.00000000  0.00000000  0.00029400  1
  Al  Al7  1  0.00000000  0.00000000  0.25877800  1
  Al  Al8  1  0.00000000  0.00000000  0.50029400  1
  Al  Al9  1  0.00000000  0.00000000  0.75877800  1
  Al  Al10  1  0.33333300  0.66666700  0.47191100  1
  Al  Al11  1  0.16903200  0.33806500  0.89206300  1
  Al  Al12  1  0.66484800  0.83242400  0.60874300  1
  Al  Al13  1  0.66193500  0.83096800  0.89206300  1
  Al  Al14  1  0.33515200  0.16757600  0.10874300  1
  Al  Al15  1  0.33806500  0.16903200  0.39206300  1
  Al  Al16  1  0.66666700  0.33333300  0.80980400  1
  Al  Al17  1  0.66666700  0.33333300  0.69029300  1
  Al  Al18  1  0.83096800  0.66193500  0.39206300  1
  Al  Al19  1  0.83242400  0.66484800  0.10874300  1
  Al  Al20  1  0.66666700  0.33333300  0.52844800  1
  Al  Al21  1  0.66666700  0.33333300  0.97191100  1
  Al  Al22  1  0.83242400  0.16757600  0.10874300  1
  Al  Al23  1  0.83096800  0.16903200  0.39206300  1
  Pb  Pb0  1  0.33333300  0.66666700  0.74867800  1
  Pb  Pb1  1  0.66666700  0.33333300  0.24867800  1
  O  O0  1  0.15529700  0.84470300  0.05122200  1
  O  O1  1  0.15447500  0.84552500  0.44797900  1
  O  O2  1  0.00301000  0.50150500  0.85299300  1
  O  O3  1  0.00264700  0.50132300  0.64743400  1
  O  O4  1  0.18161200  0.81838800  0.25081000  1
  O  O5  1  0.15447500  0.30895000  0.44797900  1
  O  O6  1  0.33333300  0.66666700  0.55417300  1
  O  O7  1  0.00000000  0.00000000  0.14703000  1
  O  O8  1  0.00000000  0.00000000  0.35027100  1
  O  O9  1  0.18161200  0.36322400  0.25081000  1
  O  O10  1  0.00000000  0.00000000  0.64703000  1
  O  O11  1  0.00000000  0.00000000  0.85027100  1
  O  O12  1  0.33333300  0.66666700  0.94593800  1
  O  O13  1  0.15529700  0.31059500  0.05122200  1
  O  O14  1  0.49867700  0.99735300  0.64743400  1
  O  O15  1  0.49849500  0.99699000  0.85299300  1
  O  O16  1  0.63677600  0.81838800  0.25081000  1
  O  O17  1  0.31059500  0.15529700  0.55122200  1
  O  O18  1  0.30895000  0.15447500  0.94797900  1
  O  O19  1  0.49867700  0.50132300  0.64743400  1
  O  O20  1  0.49849500  0.50150500  0.85299300  1
  O  O21  1  0.50150500  0.49849500  0.35299300  1
  O  O22  1  0.50132300  0.49867700  0.14743400  1
  O  O23  1  0.68940500  0.84470300  0.05122200  1
  O  O24  1  0.69105000  0.84552500  0.44797900  1
  O  O25  1  0.36322400  0.18161200  0.75081000  1
  O  O26  1  0.50150500  0.00301000  0.35299300  1
  O  O27  1  0.66666700  0.33333300  0.44593800  1
  O  O28  1  0.81838800  0.63677600  0.75081000  1
  O  O29  1  0.66666700  0.33333300  0.05417300  1
  O  O30  1  0.84552500  0.69105000  0.94797900  1
  O  O31  1  0.50132300  0.00264700  0.14743400  1
  O  O32  1  0.84470300  0.68940500  0.55122200  1
  O  O33  1  0.81838800  0.18161200  0.75081000  1
  O  O34  1  0.99735300  0.49867700  0.14743400  1
  O  O35  1  0.99699000  0.49849500  0.35299300  1
  O  O36  1  0.84552500  0.15447500  0.94797900  1
  O  O37  1  0.84470300  0.15529700  0.55122200  1
loop_
_geom_bond_atom_site_label_1
_geom_bond_atom_site_label_2
_geom_bond_distance
_geom_bond_site_symmetry_2
Al0 O15 1.826533 1_555
Al0 O2 1.826533 1_555
Al0 O11 1.892514 1_565
Al0 O12 2.000934 1_555
Al0 O18 2.012651 1_565
Al0 O30 2.012651 1_455
Al1 O14 1.829569 1_555
Al1 O3 1.829569 1_555
Al1 O10 1.842847 1_565
Al1 O6 2.021569 1_555
Al1 O17 2.031444 1_565
Al1 O32 2.031444 1_455
Al2 O0 1.808611 1_555
Al2 O13 1.808612 1_555
Al2 O23 1.808612 1_555
Al2 O12 1.835586 1_554
Al3 O22 1.895498 1_555
Al3 O34 1.895499 1_455
Al3 O31 1.895499 1_565
Al3 O4 2.000424 1_555
Al3 O16 2.000428 1_555
Al3 O9 2.000428 1_555
Al4 O26 1.900729 1_565
Al4 O35 1.900729 1_455
Al4 O21 1.900733 1_555
Al4 O4 1.977780 1_555
Al4 O9 1.977784 1_555
Al4 O16 1.977784 1_555
Al5 O3 1.829564 1_555
Al5 O19 1.829569 1_555
Al5 O10 1.842848 1_555
Al5 O6 2.021573 1_555
Al5 O37 2.031445 1_455
Al5 O17 2.031448 1_555
Al6 O0 1.891352 1_545
Al6 O23 1.891356 1_445
Al6 O13 1.891356 1_555
Al6 O36 1.903646 1_454
Al6 O30 1.903646 1_444
Al6 O18 1.903646 1_554
Al7 O4 1.779919 1_545
Al7 O16 1.779920 1_445
Al7 O9 1.779920 1_555
Al7 O8 2.035429 1_555
Al7 O7 2.486039 1_555
Al8 O37 1.891352 1_455
Al8 O32 1.891356 1_445
Al8 O17 1.891356 1_555
Al8 O1 1.903646 1_545
Al8 O24 1.903646 1_445
Al8 O5 1.903646 1_555
Al9 O33 1.779919 1_455
Al9 O25 1.779920 1_555
Al9 O28 1.779920 1_445
Al9 O11 2.035429 1_555
Al9 O10 2.486039 1_555
Al10 O1 1.823662 1_555
Al10 O5 1.823667 1_555
Al10 O24 1.823667 1_555
Al10 O6 1.830069 1_555
Al11 O2 1.826529 1_555
Al11 O20 1.826533 1_555
Al11 O11 1.892518 1_555
Al11 O12 2.000934 1_555
Al11 O36 2.012651 1_455
Al11 O18 2.012654 1_555
Al12 O14 1.829564 1_555
Al12 O19 1.829569 1_555
Al12 O10 1.842848 1_665
Al12 O6 2.021573 1_555
Al12 O37 2.031445 1_565
Al12 O32 2.031448 1_555
Al13 O15 1.826529 1_555
Al13 O20 1.826533 1_555
Al13 O11 1.892518 1_665
Al13 O12 2.000934 1_555
Al13 O36 2.012651 1_565
Al13 O30 2.012654 1_555
Al14 O31 1.829564 1_555
Al14 O22 1.829569 1_555
Al14 O7 1.842848 1_555
Al14 O29 2.021573 1_555
Al14 O0 2.031445 1_545
Al14 O13 2.031448 1_555
Al15 O26 1.826529 1_555
Al15 O21 1.826533 1_555
Al15 O8 1.892518 1_555
Al15 O27 2.000934 1_555
Al15 O1 2.012651 1_545
Al15 O5 2.012654 1_555
Al16 O15 1.900729 1_545
Al16 O2 1.900729 1_655
Al16 O20 1.900733 1_555
Al16 O33 1.977780 1_555
Al16 O28 1.977784 1_555
Al16 O25 1.977784 1_555
Al17 O19 1.895498 1_555
Al17 O14 1.895499 1_545
Al17 O3 1.895499 1_655
Al17 O33 2.000424 1_555
Al17 O28 2.000428 1_555
Al17 O25 2.000428 1_555
Al18 O35 1.826529 1_555
Al18 O21 1.826533 1_555
Al18 O8 1.892518 1_665
Al18 O27 2.000934 1_555
Al18 O1 2.012651 1_655
Al18 O24 2.012654 1_555
Al19 O34 1.829564 1_555
Al19 O22 1.829569 1_555
Al19 O7 1.842848 1_665
Al19 O29 2.021573 1_555
Al19 O0 2.031445 1_655
Al19 O23 2.031448 1_555
Al20 O37 1.808611 1_555
Al20 O17 1.808612 1_555
Al20 O32 1.808612 1_555
Al20 O27 1.835586 1_555
Al21 O36 1.823662 1_555
Al21 O18 1.823667 1_555
Al21 O30 1.823667 1_555
Al21 O29 1.830069 1_556
Al22 O34 1.829569 1_555
Al22 O31 1.829569 1_555
Al22 O7 1.842847 1_655
Al22 O29 2.021569 1_555
Al22 O23 2.031444 1_545
Al22 O13 2.031444 1_655
Al23 O35 1.826533 1_555
Al23 O26 1.826533 1_555
Al23 O8 1.892514 1_655
Al23 O27 2.000934 1_555
Al23 O5 2.012651 1_655
Al23 O24 2.012651 1_545
O2 Pb0 2.824841 1_555
O3 Pb0 2.770019 1_555
O4 Pb1 2.819314 1_455
O4 Pb1 2.819314 1_565
O9 Pb1 2.819311 1_455
O9 Pb1 2.819317 1_555
O14 Pb0 2.770019 1_555
O15 Pb0 2.824841 1_555
O16 Pb1 2.819311 1_565
O16 Pb1 2.819317 1_555
O19 Pb0 2.770024 1_555
O20 Pb0 2.824844 1_555
O21 Pb1 2.824844 1_555
O22 Pb1 2.770024 1_555
O25 Pb0 2.819311 1_545
O25 Pb0 2.819317 1_555
O26 Pb1 2.824841 1_555
O28 Pb0 2.819311 1_655
O28 Pb0 2.819317 1_555
O31 Pb1 2.770019 1_555
O33 Pb0 2.819314 1_545
O33 Pb0 2.819314 1_655
O34 Pb1 2.770019 1_555
O35 Pb1 2.824841 1_555
