# generated using pymatgen
data_LiV3O8
_symmetry_space_group_name_H-M   'P 1'
_cell_length_a   3.62309500
_cell_length_b   6.96986100
_cell_length_c   12.47283023
_cell_angle_alpha   75.07216029
_cell_angle_beta   90.00000000
_cell_angle_gamma   90.00000000
_symmetry_Int_Tables_number   1
_chemical_formula_structural   LiV3O8
_chemical_formula_sum   'Li2 V6 O16'
_cell_volume   304.33984681
_cell_formula_units_Z   2
loop_
 _symmetry_equiv_pos_site_id
 _symmetry_equiv_pos_as_xyz
  1  'x, y, z'
loop_
 _atom_site_type_symbol
 _atom_site_label
 _atom_site_symmetry_multiplicity
 _atom_site_fract_x
 _atom_site_fract_y
 _atom_site_fract_z
 _atom_site_occupancy
  Li  Li0  1  0.50000000  0.54251500  0.04050100  1
  Li  Li1  1  0.50000000  0.35482500  0.30171200  1
  V  V0  1  0.50000000  0.25960600  0.80027300  1
  V  V1  1  0.00000000  0.69380700  0.46275800  1
  V  V2  1  0.50000000  0.13957100  0.07280900  1
  V  V3  1  0.00000000  0.87724500  0.92242400  1
  V  V4  1  0.50000000  0.31566700  0.54778400  1
  V  V5  1  0.00000000  0.76307000  0.20262000  1
  O  O0  1  0.00000000  0.17920500  0.82998300  1
  O  O1  1  0.50000000  0.32919400  0.95115400  1
  O  O2  1  0.50000000  0.60472400  0.45573200  1
  O  O3  1  0.50000000  0.48760800  0.72748700  1
  O  O4  1  0.00000000  0.86691400  0.32377700  1
  O  O5  1  0.00000000  0.05615500  0.07829400  1
  O  O6  1  0.00000000  0.82700200  0.54915100  1
  O  O7  1  0.00000000  0.75328100  0.83036000  1
  O  O8  1  0.50000000  0.27713100  0.16419100  1
  O  O9  1  0.50000000  0.19038800  0.45344800  1
  O  O10  1  0.50000000  0.95232700  0.93504900  1
  O  O11  1  0.50000000  0.14206700  0.67876400  1
  O  O12  1  0.00000000  0.52238200  0.27132700  1
  O  O13  1  0.00000000  0.40571200  0.54899100  1
  O  O14  1  0.00000000  0.68117300  0.05149200  1
  O  O15  1  0.50000000  0.83026500  0.17201400  1
loop_
_geom_bond_atom_site_label_1
_geom_bond_atom_site_label_2
_geom_bond_distance
_geom_bond_site_symmetry_2
Li0 O14 2.074304 1_555
Li0 O14 2.074304 1_655
Li0 O1 2.075137 1_554
Li0 O8 2.081170 1_555
Li1 O8 1.927164 1_555
Li1 O9 1.943676 1_555
Li1 O12 2.135691 1_555
Li1 O12 2.135691 1_655
O0 V0 1.904224 1_555
O0 V0 1.904224 1_455
O0 V3 2.123352 1_545
O1 V2 1.736659 1_556
O1 V0 2.060849 1_555
O2 V1 1.924300 1_655
O2 V1 1.924300 1_555
O2 V4 2.045839 1_555
O3 V0 1.614396 1_555
O4 V5 1.836028 1_555
O4 V1 1.839331 1_555
O5 V2 1.898398 1_555
O5 V2 1.898398 1_455
O5 V5 2.223853 1_545
O5 V3 2.565861 1_544
O6 V1 1.593227 1_555
O7 V3 1.605074 1_555
O8 V2 1.667750 1_555
O9 V4 1.635922 1_555
O10 V3 1.903368 1_555
O10 V3 1.903368 1_655
O10 V0 2.357511 1_565
O10 V2 2.410584 1_566
O11 V4 1.764811 1_555
O11 V0 1.899405 1_555
O12 V5 1.675692 1_555
O13 V4 1.918510 1_555
O13 V4 1.918510 1_455
O13 V1 2.018946 1_555
O14 V3 1.823657 1_554
O14 V5 2.105558 1_555
O15 V5 1.885381 1_555
O15 V5 1.885381 1_655
O15 V2 2.191873 1_565
