# generated using pymatgen
data_Li3Co3NiO8
_symmetry_space_group_name_H-M   'P 1'
_cell_length_a   5.64222459
_cell_length_b   5.64222459
_cell_length_c   9.24581500
_cell_angle_alpha   90.00000000
_cell_angle_beta   90.00000000
_cell_angle_gamma   120.00000693
_symmetry_Int_Tables_number   1
_chemical_formula_structural   Li3Co3NiO8
_chemical_formula_sum   'Li6 Co6 Ni2 O16'
_cell_volume   254.90393486
_cell_formula_units_Z   2
loop_
 _symmetry_equiv_pos_site_id
 _symmetry_equiv_pos_as_xyz
  1  'x, y, z'
loop_
 _atom_site_type_symbol
 _atom_site_label
 _atom_site_symmetry_multiplicity
 _atom_site_fract_x
 _atom_site_fract_y
 _atom_site_fract_z
 _atom_site_occupancy
  Li  Li0  1  0.16936600  0.83063400  0.55259400  1
  Li  Li1  1  0.16936600  0.33873200  0.55259400  1
  Li  Li2  1  0.66126800  0.83063400  0.55259400  1
  Li  Li3  1  0.33873200  0.16936600  0.05259400  1
  Li  Li4  1  0.83063400  0.66126800  0.05259400  1
  Li  Li5  1  0.83063400  0.16936600  0.05259400  1
  Co  Co0  1  0.16721500  0.83278500  0.28554000  1
  Co  Co1  1  0.16721500  0.33442900  0.28554000  1
  Co  Co2  1  0.66557100  0.83278500  0.28554000  1
  Co  Co3  1  0.33442900  0.16721500  0.78554000  1
  Co  Co4  1  0.83278500  0.66557100  0.78554000  1
  Co  Co5  1  0.83278500  0.16721500  0.78554000  1
  Ni  Ni0  1  0.33333300  0.66666700  0.00772100  1
  Ni  Ni1  1  0.66666700  0.33333300  0.50772100  1
  O  O0  1  0.00000000  0.00000000  0.67803500  1
  O  O1  1  0.15365700  0.84634300  0.89875800  1
  O  O2  1  0.03211800  0.51605900  0.16721400  1
  O  O3  1  0.15365700  0.30731400  0.89875800  1
  O  O4  1  0.00000000  0.00000000  0.17803500  1
  O  O5  1  0.33333300  0.66666700  0.39651600  1
  O  O6  1  0.48394100  0.96788200  0.16721400  1
  O  O7  1  0.48394100  0.51605900  0.16721400  1
  O  O8  1  0.30731400  0.15365700  0.39875800  1
  O  O9  1  0.69268600  0.84634300  0.89875800  1
  O  O10  1  0.51605900  0.48394100  0.66721400  1
  O  O11  1  0.66666700  0.33333300  0.89651600  1
  O  O12  1  0.51605900  0.03211800  0.66721400  1
  O  O13  1  0.84634300  0.69268600  0.39875800  1
  O  O14  1  0.96788200  0.48394100  0.66721400  1
  O  O15  1  0.84634300  0.15365700  0.39875800  1
loop_
_geom_bond_atom_site_label_1
_geom_bond_atom_site_label_2
_geom_bond_distance
_geom_bond_site_symmetry_2
Li0 O12 2.004517 1_565
Li0 O14 2.004517 1_455
Li0 O0 2.021056 1_565
Li0 O8 2.128859 1_565
Li0 O13 2.128859 1_455
Li0 O5 2.156407 1_555
Li1 O10 2.004517 1_555
Li1 O14 2.004517 1_455
Li1 O0 2.021056 1_555
Li1 O15 2.128859 1_455
Li1 O8 2.128859 1_555
Li1 O5 2.156410 1_555
Li2 O10 2.004517 1_555
Li2 O12 2.004517 1_565
Li2 O0 2.021056 1_665
Li2 O15 2.128859 1_565
Li2 O13 2.128859 1_555
Li2 O5 2.156410 1_555
Li3 O7 2.004517 1_555
Li3 O6 2.004517 1_545
Li3 O4 2.021056 1_555
Li3 O1 2.128859 1_544
Li3 O3 2.128859 1_554
Li3 O11 2.156410 1_554
Li4 O7 2.004517 1_555
Li4 O2 2.004517 1_655
Li4 O4 2.021056 1_665
Li4 O1 2.128859 1_654
Li4 O9 2.128859 1_554
Li4 O11 2.156410 1_554
Li5 O2 2.004517 1_655
Li5 O6 2.004517 1_545
Li5 O4 2.021056 1_655
Li5 O3 2.128859 1_654
Li5 O9 2.128859 1_544
Li5 O11 2.156407 1_554
Co0 O8 1.888700 1_565
Co0 O13 1.888700 1_455
Co0 O6 1.899801 1_555
Co0 O2 1.899801 1_555
Co0 O4 1.912683 1_565
Co0 O5 1.920484 1_555
Co1 O8 1.888696 1_555
Co1 O15 1.888700 1_455
Co1 O7 1.899802 1_555
Co1 O2 1.899805 1_555
Co1 O4 1.912678 1_555
Co1 O5 1.920492 1_555
Co2 O13 1.888696 1_555
Co2 O15 1.888700 1_565
Co2 O7 1.899802 1_555
Co2 O6 1.899805 1_555
Co2 O4 1.912678 1_665
Co2 O5 1.920492 1_555
Co3 O3 1.888696 1_555
Co3 O1 1.888700 1_545
Co3 O10 1.899802 1_555
Co3 O12 1.899805 1_555
Co3 O0 1.912678 1_555
Co3 O11 1.920492 1_555
Co4 O9 1.888696 1_555
Co4 O1 1.888700 1_655
Co4 O10 1.899802 1_555
Co4 O14 1.899805 1_555
Co4 O0 1.912678 1_665
Co4 O11 1.920492 1_555
Co5 O3 1.888700 1_655
Co5 O9 1.888700 1_545
Co5 O14 1.899801 1_555
Co5 O12 1.899801 1_555
Co5 O0 1.912683 1_655
Co5 O11 1.920484 1_555
Ni0 O1 2.024392 1_554
Ni0 O3 2.024396 1_554
Ni0 O9 2.024396 1_554
Ni0 O6 2.083472 1_555
Ni0 O2 2.083472 1_555
Ni0 O7 2.083475 1_555
Ni1 O15 2.024392 1_555
Ni1 O13 2.024396 1_555
Ni1 O8 2.024396 1_555
Ni1 O14 2.083472 1_555
Ni1 O12 2.083472 1_555
Ni1 O10 2.083475 1_555
