# generated using pymatgen
data_Li7(NiO2)11
_symmetry_space_group_name_H-M   'P 1'
_cell_length_a   4.92451300
_cell_length_b   8.62587223
_cell_length_c   9.80664395
_cell_angle_alpha   114.62450048
_cell_angle_beta   94.49397874
_cell_angle_gamma   94.61085755
_symmetry_Int_Tables_number   1
_chemical_formula_structural   Li7(NiO2)11
_chemical_formula_sum   'Li7 Ni11 O22'
_cell_volume   374.57291463
_cell_formula_units_Z   1
loop_
 _symmetry_equiv_pos_site_id
 _symmetry_equiv_pos_as_xyz
  1  'x, y, z'
loop_
 _atom_site_type_symbol
 _atom_site_label
 _atom_site_symmetry_multiplicity
 _atom_site_fract_x
 _atom_site_fract_y
 _atom_site_fract_z
 _atom_site_occupancy
  Li  Li0  1  0.76466300  0.58533100  0.04238800  1
  Li  Li1  1  0.50000000  0.50000000  0.50000000  1
  Li  Li2  1  0.23533700  0.41466900  0.95761200  1
  Li  Li3  1  0.40712000  0.13662600  0.31638800  1
  Li  Li4  1  0.87307400  0.95422800  0.22434100  1
  Li  Li5  1  0.12692600  0.04577200  0.77565900  1
  Li  Li6  1  0.59288000  0.86337400  0.68361200  1
  Ni  Ni0  1  0.68090900  0.72770500  0.36390300  1
  Ni  Ni1  1  0.86342200  0.45339800  0.72325700  1
  Ni  Ni2  1  0.41536100  0.63524500  0.82170900  1
  Ni  Ni3  1  0.58463900  0.36475500  0.17829100  1
  Ni  Ni4  1  0.13657800  0.54660200  0.27674300  1
  Ni  Ni5  1  0.31909100  0.27229500  0.63609700  1
  Ni  Ni6  1  0.77329900  0.09294000  0.54577800  1
  Ni  Ni7  1  0.50000000  0.00000000  0.00000000  1
  Ni  Ni8  1  0.03776000  0.18567700  0.09034800  1
  Ni  Ni9  1  0.22670100  0.90706000  0.45422200  1
  Ni  Ni10  1  0.96224000  0.81432300  0.90965200  1
  O  O0  1  0.71288000  0.64342300  0.71620000  1
  O  O1  1  0.65093800  0.78494000  0.00172900  1
  O  O2  1  0.79050000  0.51893800  0.36111100  1
  O  O3  1  0.37673200  0.71568100  0.46406600  1
  O  O4  1  0.54366000  0.44574800  0.83368000  1
  O  O5  1  0.45634000  0.55425200  0.16632000  1
  O  O6  1  0.90049500  0.38373100  0.08617400  1
  O  O7  1  0.99858800  0.74311500  0.27208500  1
  O  O8  1  0.62326800  0.28431900  0.53593400  1
  O  O9  1  0.20950000  0.48106200  0.63888900  1
  O  O10  1  0.09950500  0.61626900  0.91382600  1
  O  O11  1  0.81888300  0.00099700  0.89305400  1
  O  O12  1  0.71033900  0.15919600  0.17955400  1
  O  O13  1  0.28712000  0.35657700  0.28380000  1
  O  O14  1  0.43832300  0.06459300  0.63710600  1
  O  O15  1  0.00141200  0.25688500  0.72791500  1
  O  O16  1  0.91198100  0.90659200  0.56363600  1
  O  O17  1  0.34906200  0.21506000  0.99827100  1
  O  O18  1  0.08801900  0.09340800  0.43636400  1
  O  O19  1  0.56167700  0.93540700  0.36289400  1
  O  O20  1  0.28966100  0.84080400  0.82044600  1
  O  O21  1  0.18111700  0.99900300  0.10694600  1
loop_
_geom_bond_atom_site_label_1
_geom_bond_atom_site_label_2
_geom_bond_distance
_geom_bond_site_symmetry_2
Li0 O1 2.032088 1_555
Li0 O4 2.051798 1_554
Li0 O5 2.085563 1_555
Li0 O6 2.102407 1_555
Li0 O10 2.217011 1_654
Li0 O7 2.244967 1_555
Li1 O2 2.093214 1_555
Li1 O9 2.093214 1_555
Li1 O0 2.093345 1_555
Li1 O13 2.093345 1_555
Li1 O3 2.155988 1_555
Li1 O8 2.155988 1_555
Li2 O17 2.032088 1_555
Li2 O5 2.051798 1_556
Li2 O4 2.085563 1_555
Li2 O10 2.102407 1_555
Li2 O6 2.217011 1_456
Li2 O15 2.244967 1_555
Li3 O21 2.064942 1_545
Li3 O8 2.128042 1_555
Li3 O12 2.133818 1_555
Li3 O18 2.133937 1_555
Li3 O19 2.148855 1_545
Li3 O13 2.169542 1_555
Li4 O18 2.062898 1_665
Li4 O21 2.079841 1_655
Li4 O19 2.166657 1_555
Li4 O7 2.182559 1_555
Li4 O12 2.186507 1_565
Li4 O1 2.192532 1_555
Li5 O16 2.062898 1_445
Li5 O11 2.079841 1_455
Li5 O14 2.166657 1_555
Li5 O15 2.182559 1_555
Li5 O20 2.186507 1_545
Li5 O17 2.192532 1_555
Li6 O11 2.064942 1_565
Li6 O3 2.128042 1_555
Li6 O20 2.133818 1_555
Li6 O16 2.133937 1_555
Li6 O14 2.148855 1_565
Li6 O0 2.169542 1_555
Ni0 O3 1.873464 1_555
Ni0 O7 1.887560 1_555
Ni0 O2 1.911114 1_555
Ni0 O19 1.933317 1_555
Ni0 O5 2.048964 1_555
Ni0 O16 2.088578 1_555
Ni1 O0 1.876964 1_555
Ni1 O15 1.892633 1_655
Ni1 O9 1.991509 1_655
Ni1 O4 1.991641 1_555
Ni1 O10 2.006714 1_655
Ni1 O8 2.012435 1_555
Ni2 O4 1.843674 1_555
Ni2 O0 1.871885 1_555
Ni2 O9 1.876755 1_555
Ni2 O10 1.888046 1_555
Ni2 O1 1.915291 1_556
Ni2 O20 1.928955 1_555
Ni3 O5 1.843674 1_555
Ni3 O13 1.871885 1_555
Ni3 O2 1.876755 1_555
Ni3 O6 1.888046 1_555
Ni3 O17 1.915291 1_554
Ni3 O12 1.928955 1_555
Ni4 O13 1.876964 1_555
Ni4 O7 1.892633 1_455
Ni4 O2 1.991509 1_455
Ni4 O5 1.991641 1_555
Ni4 O6 2.006714 1_455
Ni4 O3 2.012435 1_555
Ni5 O8 1.873464 1_555
Ni5 O15 1.887560 1_555
Ni5 O9 1.911114 1_555
Ni5 O14 1.933317 1_555
Ni5 O4 2.048964 1_555
Ni5 O18 2.088578 1_555
Ni6 O16 1.863651 1_545
Ni6 O19 1.896739 1_545
Ni6 O8 1.896862 1_555
Ni6 O15 1.943536 1_655
Ni6 O18 1.953593 1_655
Ni6 O14 1.982992 1_555
Ni7 O12 1.878725 1_555
Ni7 O20 1.878725 1_544
Ni7 O21 1.956893 1_545
Ni7 O11 1.956893 1_554
Ni7 O1 2.059132 1_545
Ni7 O17 2.059132 1_554
Ni8 O21 1.871064 1_545
Ni8 O17 1.890736 1_554
Ni8 O6 1.901788 1_455
Ni8 O12 1.935361 1_455
Ni8 O11 2.066779 1_454
Ni8 O13 2.072064 1_555
Ni9 O18 1.863651 1_565
Ni9 O14 1.896739 1_565
Ni9 O3 1.896862 1_555
Ni9 O7 1.943536 1_455
Ni9 O16 1.953593 1_455
Ni9 O19 1.982992 1_555
Ni10 O11 1.871064 1_565
Ni10 O1 1.890736 1_556
Ni10 O10 1.901788 1_655
Ni10 O20 1.935361 1_655
Ni10 O21 2.066779 1_656
Ni10 O0 2.072064 1_555
