# generated using pymatgen
data_CaFeSn(PO4)3
_symmetry_space_group_name_H-M   'P 1'
_cell_length_a   8.86262927
_cell_length_b   8.86262927
_cell_length_c   8.86262931
_cell_angle_alpha   58.26625708
_cell_angle_beta   58.26625708
_cell_angle_gamma   58.26625474
_symmetry_Int_Tables_number   1
_chemical_formula_structural   CaFeSn(PO4)3
_chemical_formula_sum   'Ca2 Fe2 Sn2 P6 O24'
_cell_volume   472.68742653
_cell_formula_units_Z   2
loop_
 _symmetry_equiv_pos_site_id
 _symmetry_equiv_pos_as_xyz
  1  'x, y, z'
loop_
 _atom_site_type_symbol
 _atom_site_label
 _atom_site_symmetry_multiplicity
 _atom_site_fract_x
 _atom_site_fract_y
 _atom_site_fract_z
 _atom_site_occupancy
  Ca  Ca0  1  0.99713353  0.99713353  0.99713353  1
  Ca  Ca1  1  0.49713353  0.49713353  0.49713353  1
  Fe  Fe0  1  0.35265423  0.35265423  0.35265423  1
  Fe  Fe1  1  0.85265423  0.85265423  0.85265423  1
  Sn  Sn0  1  0.14702432  0.14702432  0.14702432  1
  Sn  Sn1  1  0.64702432  0.64702432  0.64702432  1
  P  P0  1  0.74975363  0.04450744  0.45911637  1
  P  P1  1  0.04450744  0.45911637  0.74975363  1
  P  P2  1  0.45911637  0.74975363  0.04450744  1
  P  P3  1  0.54450744  0.24975363  0.95911637  1
  P  P4  1  0.95911637  0.54450744  0.24975363  1
  P  P5  1  0.24975363  0.95911637  0.54450744  1
  O  O0  1  0.30076202  0.11808491  0.50379991  1
  O  O1  1  0.50379991  0.30076202  0.11808491  1
  O  O2  1  0.91700053  0.06552390  0.26851321  1
  O  O3  1  0.11808491  0.50379991  0.30076202  1
  O  O4  1  0.80076202  0.00379991  0.61808491  1
  O  O5  1  0.58194142  0.22857557  0.43950436  1
  O  O6  1  0.06552390  0.26851321  0.91700053  1
  O  O7  1  0.22857557  0.43950436  0.58194142  1
  O  O8  1  0.43950436  0.58194142  0.22857557  1
  O  O9  1  0.38339622  0.21005925  0.98264921  1
  O  O10  1  0.72857557  0.08194142  0.93950436  1
  O  O11  1  0.98264921  0.38339622  0.21005925  1
  O  O12  1  0.00379991  0.61808491  0.80076202  1
  O  O13  1  0.26851321  0.91700053  0.06552390  1
  O  O14  1  0.61808491  0.80076202  0.00379991  1
  O  O15  1  0.56552390  0.41700053  0.76851321  1
  O  O16  1  0.76851321  0.56552390  0.41700053  1
  O  O17  1  0.93950436  0.72857557  0.08194142  1
  O  O18  1  0.41700053  0.76851321  0.56552390  1
  O  O19  1  0.21005925  0.98264921  0.38339622  1
  O  O20  1  0.88339622  0.48264921  0.71005925  1
  O  O21  1  0.08194142  0.93950436  0.72857557  1
  O  O22  1  0.48264921  0.71005925  0.88339622  1
  O  O23  1  0.71005925  0.88339622  0.48264921  1
loop_
_geom_bond_atom_site_label_1
_geom_bond_atom_site_label_2
_geom_bond_distance
_geom_bond_site_symmetry_2
Ca0 O10 2.341771 1_565
Ca0 O21 2.341771 1_655
Ca0 O17 2.341771 1_556
Ca0 O13 2.437275 1_656
Ca0 O2 2.437275 1_566
Ca0 O6 2.437275 1_665
Ca1 O5 2.341771 1_555
Ca1 O8 2.341771 1_555
Ca1 O7 2.341771 1_555
Ca1 O18 2.437275 1_555
Ca1 O15 2.437275 1_555
Ca1 O16 2.437275 1_555
Fe0 O3 1.938034 1_555
Fe0 O1 1.938034 1_555
Fe0 O0 1.938034 1_555
Fe0 O5 2.082164 1_555
Fe0 O7 2.082164 1_555
Fe0 O8 2.082164 1_555
Fe1 O12 1.938034 1_655
Fe1 O4 1.938034 1_565
Fe1 O14 1.938034 1_556
Fe1 O10 2.082164 1_565
Fe1 O17 2.082164 1_556
Fe1 O21 2.082164 1_655
O0 P5 1.511026 1_545
O1 P3 1.511026 1_554
O2 P0 1.552674 1_555
O2 Sn0 2.063699 1_655
O3 P4 1.511026 1_455
O4 P0 1.511026 1_555
O5 P0 1.524729 1_555
O6 P1 1.552674 1_555
O6 Sn0 2.063699 1_556
O7 P1 1.524729 1_555
O8 P2 1.524729 1_555
O9 P3 1.531022 1_555
O9 Sn0 1.996874 1_556
O10 P3 1.524729 1_555
O11 P4 1.531022 1_555
O11 Sn0 1.996874 1_655
O12 P1 1.511026 1_555
O13 P2 1.552674 1_555
O13 Sn0 2.063699 1_565
O14 P2 1.511026 1_555
O15 P3 1.552674 1_555
O15 Sn1 2.063699 1_555
O16 P4 1.552674 1_555
O16 Sn1 2.063699 1_555
O17 P4 1.524729 1_555
O18 P5 1.552674 1_555
O18 Sn1 2.063699 1_555
O19 P5 1.531022 1_555
O19 Sn0 1.996874 1_565
O20 P1 1.531022 1_655
O20 Sn1 1.996874 1_555
O21 P5 1.524729 1_555
O22 P2 1.531022 1_556
O22 Sn1 1.996874 1_555
O23 P0 1.531022 1_565
O23 Sn1 1.996874 1_555
