# generated using pymatgen
data_Li3V2(O2F)2
_symmetry_space_group_name_H-M   'P 1'
_cell_length_a   5.99343933
_cell_length_b   5.99343933
_cell_length_c   14.88106678
_cell_angle_alpha   89.65543182
_cell_angle_beta   89.65543182
_cell_angle_gamma   59.71779497
_symmetry_Int_Tables_number   1
_chemical_formula_structural   Li3V2(O2F)2
_chemical_formula_sum   'Li12 V8 O16 F8'
_cell_volume   461.59856331
_cell_formula_units_Z   4
loop_
 _symmetry_equiv_pos_site_id
 _symmetry_equiv_pos_as_xyz
  1  'x, y, z'
loop_
 _atom_site_type_symbol
 _atom_site_label
 _atom_site_symmetry_multiplicity
 _atom_site_fract_x
 _atom_site_fract_y
 _atom_site_fract_z
 _atom_site_occupancy
  Li  Li0  1  0.30230500  0.87640500  0.83018800  1
  Li  Li1  1  0.33237200  0.83966400  0.33280600  1
  Li  Li2  1  0.49667000  0.49667000  0.95389100  1
  Li  Li3  1  0.87640500  0.30230500  0.83018800  1
  Li  Li4  1  0.83966400  0.33237200  0.33280600  1
  Li  Li5  1  0.66694700  0.66694700  0.69047900  1
  Li  Li6  1  0.83771100  0.83771100  0.84009900  1
  Li  Li7  1  0.83346100  0.83346100  0.33408100  1
  Li  Li8  1  0.02326100  0.49290400  0.96289700  1
  Li  Li9  1  0.49290400  0.02326100  0.96289700  1
  Li  Li10  1  0.16745000  0.63551900  0.71104700  1
  Li  Li11  1  0.63551900  0.16745000  0.71104700  1
  V  V0  1  0.49586700  0.49586700  0.49512000  1
  V  V1  1  0.00266300  0.00266300  0.50888500  1
  V  V2  1  0.66669400  0.66669400  0.16351000  1
  V  V3  1  0.00217300  0.49740600  0.49746700  1
  V  V4  1  0.17050000  0.17050000  0.16677900  1
  V  V5  1  0.49740600  0.00217300  0.49746700  1
  V  V6  1  0.16697400  0.66830200  0.16900500  1
  V  V7  1  0.66830200  0.16697400  0.16900500  1
  O  O0  1  0.34222000  0.83480900  0.10119300  1
  O  O1  1  0.33472100  0.81890500  0.56529800  1
  O  O2  1  0.50450200  0.50450200  0.23933100  1
  O  O3  1  0.81890500  0.33472100  0.56529800  1
  O  O4  1  0.83480900  0.34222000  0.10119300  1
  O  O5  1  0.01073900  0.01073900  0.24356900  1
  O  O6  1  0.66600200  0.66600200  0.42224600  1
  O  O7  1  0.83363600  0.83363600  0.10359900  1
  O  O8  1  0.83283200  0.83283200  0.56521600  1
  O  O9  1  0.98534000  0.50597700  0.24083000  1
  O  O10  1  0.15769400  0.15769400  0.42773600  1
  O  O11  1  0.33655000  0.33655000  0.56453400  1
  O  O12  1  0.32308200  0.32308200  0.10018600  1
  O  O13  1  0.50597700  0.98534000  0.24083000  1
  O  O14  1  0.16656500  0.68313300  0.42713500  1
  O  O15  1  0.68313300  0.16656500  0.42713500  1
  F  F0  1  0.50558000  0.50558000  0.74268400  1
  F  F1  1  0.98591400  0.98591400  0.75344700  1
  F  F2  1  0.67254800  0.67254800  0.92391800  1
  F  F3  1  0.96726100  0.51592800  0.75617300  1
  F  F4  1  0.16625100  0.16625100  0.91556800  1
  F  F5  1  0.51592800  0.96726100  0.75617300  1
  F  F6  1  0.16754800  0.67370500  0.91185400  1
  F  F7  1  0.67370500  0.16754800  0.91185400  1
loop_
_geom_bond_atom_site_label_1
_geom_bond_atom_site_label_2
_geom_bond_distance
_geom_bond_site_symmetry_2
Li1 O5 2.133488 1_565
Li1 O13 2.145451 1_555
Li1 O10 2.174146 1_565
Li1 O14 2.178470 1_555
Li1 O6 2.183927 1_555
Li1 O2 2.227267 1_555
Li4 O5 2.133488 1_655
Li4 O9 2.145451 1_555
Li4 O10 2.174146 1_655
Li4 O15 2.178470 1_555
Li4 O6 2.183927 1_555
Li4 O2 2.227267 1_555
Li5 O8 2.530601 1_555
Li5 O1 2.541588 1_555
Li5 O3 2.541588 1_555
Li7 O6 2.172601 1_555
Li7 O9 2.195985 1_555
Li7 O13 2.195985 1_555
Li7 O15 2.217930 1_565
Li7 O14 2.217930 1_655
Li7 O5 2.275109 1_665
Li8 O12 2.571669 1_556
Li9 O12 2.571669 1_556
O0 V2 1.921303 1_555
O0 V4 1.995728 1_565
O0 V6 2.037067 1_555
O1 V1 1.917527 1_565
O1 V0 1.974402 1_555
O1 V5 2.056947 1_565
O2 V2 2.022272 1_555
O2 V7 2.039987 1_555
O2 V6 2.039987 1_555
O3 V1 1.917527 1_655
O3 V0 1.974402 1_555
O3 V3 2.056947 1_655
O4 V2 1.921303 1_555
O4 V4 1.995728 1_655
O4 V7 2.037067 1_555
O5 V4 2.009431 1_555
O5 V6 2.096894 1_545
O5 V7 2.096894 1_455
O6 V0 2.068236 1_555
O6 V3 2.072149 1_655
O6 V5 2.072149 1_565
O7 V2 1.945573 1_555
O7 V7 1.983897 1_565
O7 V6 1.983897 1_655
O8 V1 1.949148 1_665
O8 V5 2.010560 1_565
O8 V3 2.010560 1_655
O9 V2 2.014162 1_555
O9 V4 2.061605 1_655
O9 V6 2.077402 1_655
O10 V1 2.007159 1_555
O10 V5 2.047159 1_555
O10 V3 2.047159 1_555
O11 V0 1.945839 1_555
O11 V3 2.001435 1_555
O11 V5 2.001435 1_555
O12 V4 1.864467 1_555
O12 V7 2.065617 1_555
O12 V6 2.065617 1_555
O13 V2 2.014162 1_555
O13 V4 2.061605 1_565
O13 V7 2.077402 1_565
O14 V0 1.988680 1_555
O14 V1 2.056413 1_565
O14 V3 2.094023 1_555
O15 V0 1.988680 1_555
O15 V1 2.056413 1_655
O15 V5 2.094023 1_555
F0 Li10 1.830429 1_555
F0 Li11 1.830429 1_555
F0 Li5 1.843777 1_555
F0 Li3 2.324739 1_555
F0 Li0 2.324739 1_555
F1 Li10 1.922366 1_655
F1 Li11 1.922366 1_565
F1 Li6 2.002212 1_555
F1 Li0 2.023016 1_655
F1 Li3 2.023016 1_565
F2 Li2 1.878981 1_555
F2 Li8 1.907543 1_655
F2 Li9 1.907543 1_565
F2 Li6 2.115211 1_555
F2 Li3 2.375875 1_555
F2 Li0 2.375875 1_555
F3 Li10 1.804464 1_655
F3 Li5 1.839057 1_555
F3 Li3 1.956496 1_555
F3 Li6 2.095040 1_555
F4 Li8 1.838640 1_555
F4 Li9 1.838640 1_555
F4 Li3 1.970396 1_455
F4 Li0 1.970396 1_545
F5 Li11 1.804464 1_565
F5 Li5 1.839057 1_555
F5 Li0 1.956496 1_555
F5 Li6 2.095040 1_555
F6 Li2 1.817751 1_555
F6 Li8 1.851025 1_555
F6 Li6 2.016778 1_455
F6 Li0 2.136613 1_555
F7 Li2 1.817751 1_555
F7 Li9 1.851025 1_555
F7 Li6 2.016778 1_545
F7 Li3 2.136613 1_555
