# generated using pymatgen
data_Li24Mn11CrO36
_symmetry_space_group_name_H-M   'P 1'
_cell_length_a   5.00806900
_cell_length_b   10.55935727
_cell_length_c   13.01255275
_cell_angle_alpha   112.74387545
_cell_angle_beta   97.17888700
_cell_angle_gamma   94.77849606
_symmetry_Int_Tables_number   1
_chemical_formula_structural   Li24Mn11CrO36
_chemical_formula_sum   'Li24 Mn11 Cr1 O36'
_cell_volume   623.09940789
_cell_formula_units_Z   1
loop_
 _symmetry_equiv_pos_site_id
 _symmetry_equiv_pos_as_xyz
  1  'x, y, z'
loop_
 _atom_site_type_symbol
 _atom_site_label
 _atom_site_symmetry_multiplicity
 _atom_site_fract_x
 _atom_site_fract_y
 _atom_site_fract_z
 _atom_site_occupancy
  Li  Li0  1  0.78152800  0.05829800  0.05851200  1
  Li  Li1  1  0.66695800  0.33347500  0.08352400  1
  Li  Li2  1  0.88336800  0.27464700  0.27432000  1
  Li  Li3  1  0.33364600  0.16694000  0.16670600  1
  Li  Li4  1  0.55789400  0.60762100  0.10789300  1
  Li  Li5  1  0.00006200  0.00011000  0.25005000  1
  Li  Li6  1  0.99968400  0.50001800  0.00022800  1
  Li  Li7  1  0.77745200  0.05874000  0.55812900  1
  Li  Li8  1  0.44941600  0.39070200  0.39180600  1
  Li  Li9  1  0.66671400  0.33341900  0.58345400  1
  Li  Li10  1  0.66759200  0.83372800  0.33331000  1
  Li  Li11  1  0.10861600  0.72549500  0.22437000  1
  Li  Li12  1  0.88923700  0.27470700  0.77525800  1
  Li  Li13  1  0.33336300  0.16673900  0.66671700  1
  Li  Li14  1  0.33384100  0.66767200  0.41765400  1
  Li  Li15  1  0.55274200  0.60869100  0.60823500  1
  Li  Li16  1  0.99913600  0.49984500  0.50028200  1
  Li  Li17  1  0.22238000  0.94141900  0.44187100  1
  Li  Li18  1  0.44359400  0.39188400  0.89162900  1
  Li  Li19  1  0.66668500  0.83335700  0.83339000  1
  Li  Li20  1  0.11419800  0.72457400  0.72519500  1
  Li  Li21  1  0.33336100  0.66672700  0.91674600  1
  Li  Li22  1  0.99999800  0.99998100  0.74997100  1
  Li  Li23  1  0.21918000  0.94206600  0.94155200  1
  Mn  Mn0  1  0.88899100  0.77795300  0.02795300  1
  Mn  Mn1  1  0.55560400  0.11125600  0.36127400  1
  Mn  Mn2  1  0.77809800  0.55551100  0.30528600  1
  Mn  Mn3  1  0.44430000  0.88855200  0.13856300  1
  Mn  Mn4  1  0.11100200  0.22191300  0.47192500  1
  Mn  Mn5  1  0.88902500  0.77810400  0.52811700  1
  Mn  Mn6  1  0.55566900  0.11144200  0.86139400  1
  Mn  Mn7  1  0.77758300  0.55523800  0.80521300  1
  Mn  Mn8  1  0.22231000  0.44463100  0.69460400  1
  Mn  Mn9  1  0.44438000  0.88872900  0.63873400  1
  Mn  Mn10  1  0.11084600  0.22173700  0.97199100  1
  Cr  Cr0  1  0.22434000  0.44684100  0.19685900  1
  O  O0  1  0.42815900  0.13953900  0.00163700  1
  O  O1  1  0.64296800  0.07583400  0.21196700  1
  O  O2  1  0.89880400  0.52901900  0.16514900  1
  O  O3  1  0.30672800  0.40912700  0.04533100  1
  O  O4  1  0.88030800  0.04420000  0.40626600  1
  O  O5  1  0.02494100  0.25697300  0.12102100  1
  O  O6  1  0.55404200  0.37750600  0.24120000  1
  O  O7  1  0.78645900  0.28908000  0.42712000  1
  O  O8  1  0.76130700  0.80640500  0.16845800  1
  O  O9  1  0.23860800  0.19371000  0.33155600  1
  O  O10  1  0.21377600  0.71083100  0.07297200  1
  O  O11  1  0.45232900  0.62130200  0.25931800  1
  O  O12  1  0.42817900  0.13959800  0.50173500  1
  O  O13  1  0.97765600  0.74289400  0.37892600  1
  O  O14  1  0.11956000  0.95561400  0.09364400  1
  O  O15  1  0.68928700  0.59095200  0.45487400  1
  O  O16  1  0.09447600  0.47166400  0.33362800  1
  O  O17  1  0.64290200  0.07582400  0.71181700  1
  O  O18  1  0.35698700  0.92392900  0.28800900  1
  O  O19  1  0.90522100  0.52693300  0.66481100  1
  O  O20  1  0.30960100  0.40928200  0.54517900  1
  O  O21  1  0.88024800  0.04402300  0.90610200  1
  O  O22  1  0.02363500  0.25730300  0.62130400  1
  O  O23  1  0.57181000  0.86014500  0.49795400  1
  O  O24  1  0.54697100  0.37759200  0.73959000  1
  O  O25  1  0.78602600  0.28896600  0.92695300  1
  O  O26  1  0.76138200  0.80642700  0.66842500  1
  O  O27  1  0.23851500  0.19352500  0.83141100  1
  O  O28  1  0.21357000  0.71056200  0.57270500  1
  O  O29  1  0.45279400  0.62241800  0.76026700  1
  O  O30  1  0.97637500  0.74260500  0.87861300  1
  O  O31  1  0.11971500  0.95569000  0.59375400  1
  O  O32  1  0.69020800  0.59065300  0.95451800  1
  O  O33  1  0.09475500  0.47299600  0.83500700  1
  O  O34  1  0.35694000  0.92384400  0.78784800  1
  O  O35  1  0.57196300  0.86027200  0.99821400  1
loop_
_geom_bond_atom_site_label_1
_geom_bond_atom_site_label_2
_geom_bond_distance
_geom_bond_site_symmetry_2
Li0 O21 2.055902 1_554
Li0 O35 2.061421 1_544
Li0 O5 2.134340 1_655
Li0 O1 2.141264 1_555
Li0 O14 2.178574 1_645
Li0 O0 2.198173 1_555
Li1 O2 2.082385 1_555
Li1 O25 2.082631 1_554
Li1 O6 2.083717 1_555
Li1 O0 2.084589 1_555
Li1 O5 2.105281 1_655
Li1 O3 2.112523 1_555
Li2 O16 2.056576 1_655
Li2 O7 2.057031 1_555
Li2 O1 2.129014 1_555
Li2 O6 2.137356 1_555
Li2 O5 2.145803 1_655
Li2 O9 2.205567 1_655
Li3 O5 2.024735 1_555
Li3 O1 2.032351 1_555
Li3 O9 2.171799 1_555
Li3 O0 2.172073 1_555
Li3 O14 2.176940 1_545
Li3 O6 2.181467 1_555
Li4 O8 2.056399 1_555
Li4 O11 2.058138 1_555
Li4 O32 2.127964 1_554
Li4 O2 2.134282 1_555
Li4 O3 2.150230 1_555
Li4 O10 2.205523 1_555
Li5 O4 2.080394 1_455
Li5 O9 2.081139 1_555
Li5 O14 2.081581 1_545
Li5 O8 2.082470 1_445
Li5 O1 2.099110 1_455
Li5 O18 2.100565 1_545
Li6 O3 2.021375 1_655
Li6 O32 2.031929 1_554
Li6 O10 2.172624 1_655
Li6 O25 2.173771 1_554
Li6 O33 2.175895 1_654
Li6 O2 2.177872 1_555
Li7 O4 2.055961 1_555
Li7 O23 2.059196 1_545
Li7 O17 2.136398 1_555
Li7 O22 2.138979 1_655
Li7 O12 2.177064 1_555
Li7 O31 2.199819 1_645
Li8 O6 2.047516 1_555
Li8 O9 2.054840 1_555
Li8 O15 2.139242 1_555
Li8 O20 2.140395 1_555
Li8 O7 2.168164 1_555
Li8 O16 2.209298 1_555
Li9 O24 2.079292 1_555
Li9 O19 2.080274 1_555
Li9 O7 2.081457 1_555
Li9 O12 2.082999 1_555
Li9 O22 2.099782 1_655
Li9 O20 2.100682 1_555
Li10 O18 2.031294 1_555
Li10 O13 2.035081 1_555
Li10 O4 2.167202 1_565
Li10 O8 2.168133 1_555
Li10 O23 2.171405 1_555
Li10 O11 2.188242 1_555
Li11 O2 2.049479 1_455
Li11 O10 2.054156 1_555
Li11 O13 2.138398 1_455
Li11 O18 2.142436 1_555
Li11 O8 2.167147 1_455
Li11 O11 2.210663 1_555
Li12 O25 2.055346 1_555
Li12 O33 2.056712 1_655
Li12 O22 2.138480 1_655
Li12 O17 2.141737 1_555
Li12 O27 2.177886 1_655
Li12 O24 2.198884 1_555
Li13 O22 2.030947 1_555
Li13 O17 2.031086 1_555
Li13 O27 2.169465 1_555
Li13 O24 2.172076 1_555
Li13 O12 2.172152 1_555
Li13 O31 2.173809 1_545
Li14 O28 2.069130 1_555
Li14 O23 2.070241 1_555
Li14 O13 2.094685 1_455
Li14 O15 2.094700 1_555
Li14 O11 2.100204 1_555
Li14 O16 2.103682 1_555
Li15 O29 2.055038 1_555
Li15 O26 2.057256 1_555
Li15 O15 2.135083 1_555
Li15 O20 2.139357 1_555
Li15 O28 2.179172 1_555
Li15 O19 2.196337 1_555
Li16 O20 2.031251 1_655
Li16 O15 2.035101 1_555
Li16 O19 2.165004 1_555
Li16 O7 2.169603 1_555
Li16 O28 2.172501 1_655
Li16 O16 2.191533 1_655
Li17 O12 2.056151 1_565
Li17 O31 2.056638 1_555
Li17 O13 2.135610 1_455
Li17 O18 2.137585 1_555
Li17 O23 2.178711 1_555
Li17 O4 2.197160 1_465
Li18 O27 2.056050 1_555
Li18 O24 2.059876 1_555
Li18 O3 2.141272 1_556
Li18 O32 2.141901 1_555
Li18 O33 2.178077 1_555
Li18 O25 2.198409 1_555
Li19 O34 2.031121 1_555
Li19 O30 2.031154 1_555
Li19 O21 2.170432 1_565
Li19 O35 2.170557 1_555
Li19 O26 2.172246 1_555
Li19 O29 2.173249 1_555
Li20 O19 2.056876 1_455
Li20 O28 2.058886 1_555
Li20 O34 2.137684 1_555
Li20 O30 2.137874 1_455
Li20 O29 2.176994 1_555
Li20 O26 2.199247 1_455
Li21 O10 2.080132 1_556
Li21 O35 2.080802 1_555
Li21 O33 2.082466 1_555
Li21 O29 2.082576 1_555
Li21 O32 2.098944 1_555
Li21 O30 2.099712 1_455
Li22 O21 2.079426 1_565
Li22 O31 2.080052 1_655
Li22 O27 2.080591 1_665
Li22 O26 2.080962 1_555
Li22 O17 2.100057 1_565
Li22 O34 2.100090 1_655
Li23 O0 2.055707 1_566
Li23 O14 2.055719 1_556
Li23 O30 2.139156 1_455
Li23 O34 2.140737 1_555
Li23 O21 2.178481 1_465
Li23 O35 2.198204 1_555
Mn0 O14 1.932824 1_655
Mn0 O8 1.934277 1_555
Mn0 O35 1.939736 1_554
Mn0 O10 1.940655 1_655
Mn0 O30 1.945802 1_554
Mn0 O32 1.946440 1_554
Mn1 O12 1.933361 1_555
Mn1 O7 1.934760 1_555
Mn1 O4 1.939814 1_555
Mn1 O9 1.940375 1_555
Mn1 O1 1.945219 1_555
Mn1 O18 1.946285 1_545
Mn2 O2 1.917871 1_555
Mn2 O6 1.920993 1_555
Mn2 O11 1.941227 1_555
Mn2 O16 1.941779 1_655
Mn2 O13 1.948640 1_555
Mn2 O15 1.951327 1_555
Mn3 O35 1.932680 1_554
Mn3 O10 1.933206 1_555
Mn3 O8 1.939121 1_555
Mn3 O14 1.939678 1_555
Mn3 O1 1.946067 1_565
Mn3 O18 1.946932 1_555
Mn4 O9 1.932939 1_555
Mn4 O4 1.933528 1_455
Mn4 O7 1.938969 1_455
Mn4 O12 1.940581 1_555
Mn4 O22 1.946176 1_555
Mn4 O20 1.946596 1_555
Mn5 O26 1.932057 1_555
Mn5 O31 1.932515 1_655
Mn5 O28 1.940214 1_655
Mn5 O23 1.940271 1_555
Mn5 O13 1.946504 1_555
Mn5 O15 1.946886 1_555
Mn6 O25 1.931263 1_555
Mn6 O0 1.931403 1_556
Mn6 O27 1.939643 1_555
Mn6 O21 1.940163 1_555
Mn6 O17 1.947964 1_555
Mn6 O34 1.948857 1_545
Mn7 O24 1.932812 1_555
Mn7 O19 1.933213 1_555
Mn7 O33 1.940046 1_655
Mn7 O29 1.940688 1_555
Mn7 O32 1.945227 1_555
Mn7 O30 1.946995 1_555
Mn8 O33 1.932917 1_555
Mn8 O29 1.933629 1_555
Mn8 O24 1.939510 1_555
Mn8 O19 1.940073 1_455
Mn8 O22 1.946415 1_555
Mn8 O20 1.946684 1_555
Mn9 O23 1.936752 1_555
Mn9 O28 1.937356 1_555
Mn9 O31 1.939046 1_555
Mn9 O26 1.939352 1_555
Mn9 O34 1.943536 1_555
Mn9 O17 1.944112 1_565
Mn10 O21 1.933293 1_455
Mn10 O27 1.935612 1_555
Mn10 O5 1.939468 1_556
Mn10 O0 1.939838 1_556
Mn10 O25 1.941508 1_455
Mn10 O3 1.941882 1_556
Cr0 O16 1.901593 1_555
Cr0 O11 1.902061 1_555
Cr0 O3 1.959656 1_555
Cr0 O5 1.970009 1_555
Cr0 O6 1.971098 1_555
Cr0 O2 1.981305 1_455
