# generated using pymatgen
data_Li7Zr3Nb(TeO6)4
_symmetry_space_group_name_H-M   'P 1'
_cell_length_a   18.70535935
_cell_length_b   18.70535935
_cell_length_c   18.70535957
_cell_angle_alpha   16.15917866
_cell_angle_beta   16.15917866
_cell_angle_gamma   16.15917858
_symmetry_Int_Tables_number   1
_chemical_formula_structural   Li7Zr3Nb(TeO6)4
_chemical_formula_sum   'Li7 Zr3 Nb1 Te4 O24'
_cell_volume   441.92186209
_cell_formula_units_Z   1
loop_
 _symmetry_equiv_pos_site_id
 _symmetry_equiv_pos_as_xyz
  1  'x, y, z'
loop_
 _atom_site_type_symbol
 _atom_site_label
 _atom_site_symmetry_multiplicity
 _atom_site_fract_x
 _atom_site_fract_y
 _atom_site_fract_z
 _atom_site_occupancy
  Li  Li0  1  0.44271800  0.44271800  0.44271800  1
  Li  Li1  1  0.94195700  0.94195700  0.94195700  1
  Li  Li2  1  0.69228200  0.69228200  0.69228200  1
  Li  Li3  1  0.32173800  0.32173800  0.32173800  1
  Li  Li4  1  0.19180800  0.19180800  0.19180800  1
  Li  Li5  1  0.07198700  0.07198700  0.07198700  1
  Li  Li6  1  0.57111700  0.57111700  0.57111700  1
  Zr  Zr0  1  0.00041600  0.00041600  0.00041600  1
  Zr  Zr1  1  0.75082200  0.75082200  0.75082200  1
  Zr  Zr2  1  0.24979100  0.24979100  0.24979100  1
  Nb  Nb0  1  0.49965000  0.49965000  0.49965000  1
  Te  Te0  1  0.37546800  0.37546800  0.37546800  1
  Te  Te1  1  0.87401600  0.87401600  0.87401600  1
  Te  Te2  1  0.12566600  0.12566600  0.12566600  1
  Te  Te3  1  0.62489900  0.62489900  0.62489900  1
  O  O0  1  0.82348300  0.40889500  0.07997700  1
  O  O1  1  0.65798900  0.33290400  0.07026000  1
  O  O2  1  0.33290400  0.07026000  0.65798900  1
  O  O3  1  0.81551500  0.56774200  0.17700000  1
  O  O4  1  0.67565300  0.93451900  0.32263900  1
  O  O5  1  0.42539800  0.68496800  0.07370000  1
  O  O6  1  0.21050200  0.41168700  0.81346700  1
  O  O7  1  0.41168700  0.81346700  0.21050200  1
  O  O8  1  0.07370000  0.42539800  0.68496800  1
  O  O9  1  0.57090200  0.93011500  0.17916100  1
  O  O10  1  0.07026000  0.65798900  0.33290400  1
  O  O11  1  0.32064500  0.90711800  0.58180500  1
  O  O12  1  0.17700000  0.81551500  0.56774200  1
  O  O13  1  0.07997700  0.82348300  0.40889500  1
  O  O14  1  0.93011500  0.17916100  0.57090200  1
  O  O15  1  0.68496800  0.07370000  0.42539800  1
  O  O16  1  0.93451900  0.32263900  0.67565300  1
  O  O17  1  0.81346700  0.21050200  0.41168700  1
  O  O18  1  0.56774200  0.17700000  0.81551500  1
  O  O19  1  0.40889500  0.07997700  0.82348300  1
  O  O20  1  0.90711800  0.58180500  0.32064500  1
  O  O21  1  0.58180500  0.32064500  0.90711800  1
  O  O22  1  0.17916100  0.57090200  0.93011500  1
  O  O23  1  0.32263900  0.67565300  0.93451900  1
loop_
_geom_bond_atom_site_label_1
_geom_bond_atom_site_label_2
_geom_bond_distance
_geom_bond_site_symmetry_2
Li0 O13 1.980591 1_555
Li0 O19 1.980591 1_555
Li0 O0 1.980591 1_555
Li0 O7 2.557858 1_555
Li0 O17 2.557858 1_555
Li0 O6 2.557859 1_555
Li1 O21 1.970143 1_565
Li1 O20 1.970143 1_556
Li1 O11 1.970143 1_655
Li2 O2 1.964500 1_565
Li2 O1 1.964500 1_556
Li2 O10 1.964500 1_655
Li3 O16 2.038869 1_455
Li3 O4 2.038869 1_545
Li3 O23 2.038869 1_554
Li3 O1 2.352048 1_555
Li3 O10 2.352048 1_555
Li3 O2 2.352048 1_555
Li4 O3 1.997822 1_455
Li4 O12 1.997822 1_545
Li4 O18 1.997822 1_554
Li4 O22 2.573572 1_554
Li4 O9 2.573572 1_545
Li4 O14 2.573572 1_455
Li5 O15 2.034446 1_455
Li5 O5 2.034446 1_545
Li5 O8 2.034446 1_554
Li5 O19 2.355049 1_554
Li5 O0 2.355049 1_455
Li5 O13 2.355049 1_545
Li6 O22 2.067622 1_555
Li6 O14 2.067622 1_555
Li6 O9 2.067622 1_555
Li6 O20 2.353855 1_555
Li6 O11 2.353855 1_555
Li6 O21 2.353855 1_555
Nb0 O6 1.992576 1_555
Nb0 O17 1.992576 1_555
Nb0 O7 1.992576 1_555
Nb0 O3 2.036036 1_555
Nb0 O12 2.036036 1_555
Nb0 O18 2.036036 1_555
O0 Te2 1.950476 1_655
O0 Zr1 2.095750 1_554
O1 Te0 1.961364 1_555
O1 Zr0 2.102969 1_655
O2 Te0 1.961364 1_555
O2 Zr0 2.102969 1_556
O3 Te1 1.973859 1_554
O4 Te3 1.938732 1_555
O4 Zr0 2.127735 1_665
O5 Te0 1.932566 1_555
O5 Zr1 2.130084 1_554
O6 Te2 1.932362 1_556
O7 Te2 1.932362 1_565
O8 Te0 1.932566 1_555
O8 Zr1 2.130084 1_455
O9 Te1 1.932956 1_554
O9 Zr2 2.125099 1_565
O10 Te0 1.961364 1_555
O10 Zr0 2.102969 1_565
O11 Te3 1.957507 1_555
O11 Zr2 2.105736 1_565
O12 Te1 1.973859 1_455
O13 Te2 1.950476 1_565
O13 Zr1 2.095750 1_455
O14 Te1 1.932956 1_545
O14 Zr2 2.125099 1_655
O15 Te0 1.932566 1_555
O15 Zr1 2.130084 1_545
O16 Te3 1.938732 1_555
O16 Zr0 2.127735 1_656
O17 Te2 1.932362 1_655
O18 Te1 1.973859 1_545
O19 Te2 1.950476 1_556
O19 Zr1 2.095750 1_545
O20 Te3 1.957507 1_555
O20 Zr2 2.105736 1_655
O21 Te3 1.957507 1_555
O21 Zr2 2.105736 1_556
O22 Te1 1.932956 1_455
O22 Zr2 2.125099 1_556
O23 Te3 1.938732 1_555
O23 Zr0 2.127735 1_566
