# generated using pymatgen
data_YNb2NO5
_symmetry_space_group_name_H-M   'P 1'
_cell_length_a   5.28343100
_cell_length_b   5.92416252
_cell_length_c   14.99668645
_cell_angle_alpha   89.82144986
_cell_angle_beta   89.77930848
_cell_angle_gamma   89.80441205
_symmetry_Int_Tables_number   1
_chemical_formula_structural   YNb2NO5
_chemical_formula_sum   'Y4 Nb8 N4 O20'
_cell_volume   469.38636772
_cell_formula_units_Z   4
loop_
 _symmetry_equiv_pos_site_id
 _symmetry_equiv_pos_as_xyz
  1  'x, y, z'
loop_
 _atom_site_type_symbol
 _atom_site_label
 _atom_site_symmetry_multiplicity
 _atom_site_fract_x
 _atom_site_fract_y
 _atom_site_fract_z
 _atom_site_occupancy
  Y  Y0  1  0.25261300  0.69958900  0.00200800  1
  Y  Y1  1  0.75417100  0.29532600  0.00027400  1
  Y  Y2  1  0.75496900  0.79564000  0.49837500  1
  Y  Y3  1  0.24997000  0.20993900  0.50143100  1
  Nb  Nb0  1  0.72571000  0.82809800  0.16857000  1
  Nb  Nb1  1  0.21951900  0.18065100  0.17229000  1
  Nb  Nb2  1  0.21777500  0.67209300  0.33881300  1
  Nb  Nb3  1  0.74238400  0.31323100  0.33153300  1
  Nb  Nb4  1  0.26915600  0.67807000  0.66571000  1
  Nb  Nb5  1  0.77013800  0.30698200  0.67296000  1
  Nb  Nb6  1  0.76406200  0.82490700  0.83159300  1
  Nb  Nb7  1  0.28501400  0.18980100  0.83571200  1
  N  N0  1  0.90567300  0.12129600  0.24469100  1
  N  N1  1  0.03195600  0.42635000  0.40041700  1
  N  N2  1  0.60415200  0.12089900  0.75642200  1
  N  N3  1  0.39866200  0.38965400  0.91816900  1
  O  O0  1  0.10174900  0.38973000  0.08588600  1
  O  O1  1  0.60976000  0.61586500  0.08317600  1
  O  O2  1  0.02866700  0.91894100  0.09592900  1
  O  O3  1  0.52989300  0.08375100  0.09744300  1
  O  O4  1  0.39808200  0.86839300  0.23999700  1
  O  O5  1  0.40560300  0.37207900  0.25449200  1
  O  O6  1  0.89989100  0.63186000  0.25324800  1
  O  O7  1  0.53100600  0.59601400  0.39943800  1
  O  O8  1  0.10436900  0.89775400  0.41837600  1
  O  O9  1  0.59961600  0.11413000  0.41849700  1
  O  O10  1  0.39910300  0.88577300  0.58197300  1
  O  O11  1  0.89897300  0.10928900  0.58272600  1
  O  O12  1  0.97723500  0.58697700  0.59600300  1
  O  O13  1  0.47045700  0.41619300  0.59969900  1
  O  O14  1  0.59865200  0.62553300  0.74257800  1
  O  O15  1  0.09536600  0.37287600  0.74179600  1
  O  O16  1  0.08829200  0.85401700  0.75262000  1
  O  O17  1  0.46017200  0.90702500  0.90114900  1
  O  O18  1  0.96220600  0.08088300  0.89859200  1
  O  O19  1  0.89498200  0.62039100  0.91741200  1
loop_
_geom_bond_atom_site_label_1
_geom_bond_atom_site_label_2
_geom_bond_distance
_geom_bond_site_symmetry_2
Nb0 O1 1.901959 1_555
Nb0 O6 1.950265 1_555
Nb0 O2 2.006800 1_655
Nb0 O4 2.045785 1_555
Nb0 O3 2.118888 1_565
Nb1 O0 1.895078 1_555
Nb1 O5 1.948854 1_555
Nb1 O3 2.064444 1_555
Nb1 O2 2.182335 1_545
Nb1 O4 2.307989 1_545
Nb2 O8 1.889135 1_555
Nb2 O7 1.942288 1_555
Nb2 O4 2.107582 1_555
Nb2 O6 2.131997 1_455
Nb2 O5 2.394800 1_555
Nb3 O9 1.910493 1_555
Nb3 O5 2.152117 1_555
Nb3 O7 2.253852 1_555
Nb3 O6 2.371348 1_555
Nb4 O10 1.884647 1_555
Nb4 O16 1.921050 1_555
Nb4 O12 1.945373 1_455
Nb4 O14 2.113265 1_555
Nb4 O13 2.123252 1_555
Nb4 O15 2.324739 1_555
Nb5 O11 1.914024 1_555
Nb5 O13 2.033377 1_555
Nb5 O15 2.047299 1_655
Nb5 O12 2.295935 1_555
Nb5 O14 2.337854 1_555
Nb6 O19 1.895834 1_555
Nb6 O17 1.971690 1_555
Nb6 O14 1.991660 1_555
Nb6 O16 2.086152 1_655
Nb6 O18 2.105599 1_565
Nb7 O15 2.039087 1_555
Nb7 O18 2.050794 1_455
Nb7 O17 2.147546 1_545
Nb7 O16 2.574816 1_545
N0 Nb3 1.930586 1_555
N0 Nb1 2.009939 1_655
N0 Nb0 2.292646 1_545
N1 Nb3 1.969879 1_455
N1 Nb2 1.982718 1_555
N1 Y3 2.292717 1_555
N2 Nb5 1.881627 1_555
N2 Nb7 2.099168 1_555
N2 Nb6 2.245959 1_545
N3 Nb7 1.819654 1_555
N3 Y1 2.315768 1_556
N3 Y0 2.354734 1_556
O0 Y1 2.315858 1_455
O0 Y0 2.361172 1_555
O1 Y0 2.301277 1_555
O1 Y1 2.394005 1_555
O2 Y0 2.249570 1_555
O3 Y1 2.254789 1_555
O7 Y2 2.243708 1_555
O8 Y2 2.280164 1_455
O8 Y3 2.365383 1_565
O9 Y3 2.293732 1_555
O9 Y2 2.377302 1_545
O10 Y2 2.317574 1_555
O10 Y3 2.397978 1_565
O11 Y3 2.294892 1_655
O11 Y2 2.379777 1_545
O12 Y2 2.245607 1_555
O13 Y3 2.248554 1_555
O17 Y0 2.232798 1_556
O18 Y1 2.266481 1_556
O19 Y0 2.329837 1_656
O19 Y1 2.407050 1_556
