# generated using pymatgen
data_Ba4Fe4O11
_symmetry_space_group_name_H-M   'P 1'
_cell_length_a   5.76862800
_cell_length_b   5.79561712
_cell_length_c   28.43960906
_cell_angle_alpha   90.19542730
_cell_angle_beta   90.05372259
_cell_angle_gamma   119.76561412
_symmetry_Int_Tables_number   1
_chemical_formula_structural   Ba4Fe4O11
_chemical_formula_sum   'Ba12 Fe12 O33'
_cell_volume   825.35891069
_cell_formula_units_Z   3
loop_
 _symmetry_equiv_pos_site_id
 _symmetry_equiv_pos_as_xyz
  1  'x, y, z'
loop_
 _atom_site_type_symbol
 _atom_site_label
 _atom_site_symmetry_multiplicity
 _atom_site_fract_x
 _atom_site_fract_y
 _atom_site_fract_z
 _atom_site_occupancy
  Ba  Ba0  1  0.33413400  0.66792200  0.79786000  1
  Ba  Ba1  1  0.33611500  0.66691400  0.28892200  1
  Ba  Ba2  1  0.33342600  0.66698700  0.95076300  1
  Ba  Ba3  1  0.98523500  0.99288200  0.37389900  1
  Ba  Ba4  1  0.99966300  0.99691100  0.12779100  1
  Ba  Ba5  1  0.99546000  0.98677000  0.62635700  1
  Ba  Ba6  1  0.33935700  0.67132700  0.45866700  1
  Ba  Ba7  1  0.00022800  0.00044100  0.87360900  1
  Ba  Ba8  1  0.67252600  0.34427000  0.04567600  1
  Ba  Ba9  1  0.67153300  0.33883500  0.54109900  1
  Ba  Ba10  1  0.66647200  0.32980100  0.20347000  1
  Ba  Ba11  1  0.67044300  0.33890500  0.71180400  1
  Fe  Fe0  1  0.36123900  0.72051800  0.08074400  1
  Fe  Fe1  1  0.31882500  0.63813700  0.57453600  1
  Fe  Fe2  1  0.33047200  0.66298700  0.17254000  1
  Fe  Fe3  1  0.98135400  0.96215600  0.99498600  1
  Fe  Fe4  1  0.99577700  0.99627900  0.24908500  1
  Fe  Fe5  1  0.99436200  0.99333900  0.50019200  1
  Fe  Fe6  1  0.32134100  0.64078900  0.67664800  1
  Fe  Fe7  1  0.99977500  0.99833100  0.75132700  1
  Fe  Fe8  1  0.63999100  0.31965400  0.32342200  1
  Fe  Fe9  1  0.66695400  0.33360700  0.82899100  1
  Fe  Fe10  1  0.66050200  0.32104900  0.92297400  1
  Fe  Fe11  1  0.63775100  0.31780500  0.42532600  1
  O  O0  1  0.15887900  0.31468700  0.71045500  1
  O  O1  1  0.16228100  0.32759100  0.20757300  1
  O  O2  1  0.15480400  0.31595000  0.54066900  1
  O  O3  1  0.48050600  0.52309400  0.11772700  1
  O  O4  1  0.50047700  0.55726300  0.62566900  1
  O  O5  1  0.66152500  0.83579800  0.54097200  1
  O  O6  1  0.66878800  0.83895700  0.04010800  1
  O  O7  1  0.66134800  0.83990000  0.70636600  1
  O  O8  1  0.66592400  0.82519900  0.21087200  1
  O  O9  1  0.05620300  0.55064800  0.62648100  1
  O  O10  1  0.04396200  0.52162800  0.11683600  1
  O  O11  1  0.49972500  0.99686400  0.12743100  1
  O  O12  1  0.18059000  0.84101200  0.70630600  1
  O  O13  1  0.15586100  0.82240500  0.20889300  1
  O  O14  1  0.17199700  0.84014500  0.04002700  1
  O  O15  1  0.17672300  0.83947500  0.54387300  1
  O  O16  1  0.82704400  0.16774300  0.79164300  1
  O  O17  1  0.83962600  0.17540200  0.29265000  1
  O  O18  1  0.83888900  0.17741700  0.45636700  1
  O  O19  1  0.84998600  0.17688100  0.96451600  1
  O  O20  1  0.55057900  0.05546800  0.37404100  1
  O  O21  1  0.51179100  0.02322200  0.88083300  1
  O  O22  1  0.31516000  0.15817500  0.28969000  1
  O  O23  1  0.34097200  0.16764600  0.79173800  1
  O  O24  1  0.31560300  0.15331900  0.45952400  1
  O  O25  1  0.32656600  0.17728400  0.96459600  1
  O  O26  1  0.96374400  0.47685800  0.87344100  1
  O  O27  1  0.55400000  0.49805100  0.37537600  1
  O  O28  1  0.51336400  0.47733900  0.87346600  1
  O  O29  1  0.83969800  0.66117800  0.29428400  1
  O  O30  1  0.83553400  0.65982900  0.45894800  1
  O  O31  1  0.83934900  0.67820800  0.78827000  1
  O  O32  1  0.82592900  0.65134100  0.95799100  1
loop_
_geom_bond_atom_site_label_1
_geom_bond_atom_site_label_2
_geom_bond_distance
_geom_bond_site_symmetry_2
Ba0 O28 2.838716 1_555
Ba0 O26 2.843837 1_455
Ba0 O23 2.882692 1_565
Ba0 O16 2.886814 1_565
Ba0 O31 2.896924 1_455
Ba0 O31 2.898404 1_555
Ba0 O23 2.923793 1_555
Ba0 O16 2.927010 1_455
Ba0 O21 2.953940 1_565
Ba0 O0 3.049222 1_555
Ba0 O12 3.076713 1_555
Ba0 O7 3.079925 1_555
Ba1 O8 2.770780 1_555
Ba1 O13 2.830799 1_555
Ba1 O29 2.851518 1_455
Ba1 O17 2.868901 1_455
Ba1 O1 2.869149 1_555
Ba1 O22 2.890509 1_555
Ba1 O22 2.909076 1_565
Ba1 O29 2.925470 1_555
Ba1 O17 2.937826 1_565
Ba1 O20 3.106877 1_565
Ba1 O27 3.132866 1_555
Ba2 O21 2.683117 1_565
Ba2 O25 2.847359 1_555
Ba2 O19 2.853581 1_455
Ba2 O28 2.870299 1_555
Ba2 O26 2.870384 1_455
Ba2 O32 2.891153 1_455
Ba2 O32 2.894299 1_555
Ba2 O25 3.001892 1_565
Ba2 O19 3.001978 1_565
Ba2 O14 3.038737 1_556
Ba2 O6 3.041604 1_556
Ba3 O20 2.705832 1_565
Ba3 O27 2.707789 1_555
Ba3 O29 2.809179 1_555
Ba3 O17 2.838849 1_565
Ba3 O18 2.870592 1_565
Ba3 O22 2.913632 1_665
Ba3 O24 2.939870 1_665
Ba3 O30 2.950034 1_555
Ba3 O20 3.097227 1_665
Ba3 O27 3.130425 1_665
Ba4 O1 2.807568 1_665
Ba4 O13 2.841054 1_655
Ba4 O11 2.883830 1_555
Ba4 O11 2.884835 1_655
Ba4 O8 2.898594 1_555
Ba4 O3 2.901576 1_555
Ba4 O10 2.905714 1_655
Ba4 O10 2.940308 1_665
Ba4 O3 2.946910 1_665
Ba4 O14 2.988253 1_655
Ba4 O6 2.990006 1_555
Ba5 O4 2.700401 1_555
Ba5 O9 2.718638 1_655
Ba5 O12 2.815710 1_655
Ba5 O7 2.830079 1_555
Ba5 O15 2.863944 1_655
Ba5 O0 2.899431 1_665
Ba5 O5 2.945555 1_555
Ba5 O2 2.952623 1_665
Ba5 O9 3.108966 1_665
Ba5 O4 3.139436 1_665
Ba6 O5 2.838867 1_555
Ba6 O24 2.863964 1_565
Ba6 O30 2.873886 1_455
Ba6 O18 2.885479 1_455
Ba6 O30 2.895925 1_555
Ba6 O18 2.919011 1_565
Ba6 O15 2.932205 1_555
Ba6 O24 2.936745 1_555
Ba6 O2 2.945243 1_555
Ba6 O27 3.062118 1_555
Ba6 O20 3.095506 1_565
Ba7 O26 2.871453 1_455
Ba7 O28 2.877166 1_555
Ba7 O16 2.888776 1_455
Ba7 O23 2.890811 1_555
Ba7 O21 2.892896 1_455
Ba7 O21 2.894816 1_555
Ba7 O31 2.912615 1_445
Ba7 O26 2.935679 1_445
Ba7 O28 2.936793 1_445
Ba7 O32 2.980146 1_445
Ba7 O19 3.057293 1_455
Ba7 O25 3.057324 1_555
Ba8 O10 2.744831 1_655
Ba8 O3 2.762164 1_555
Ba8 O19 2.879570 1_554
Ba8 O25 2.880106 1_554
Ba8 O6 2.882672 1_555
Ba8 O14 2.892937 1_655
Ba8 O11 2.914969 1_545
Ba8 O14 2.918702 1_545
Ba8 O6 2.921707 1_545
Ba8 O32 2.939335 1_554
Ba9 O30 2.846178 1_555
Ba9 O2 2.856014 1_655
Ba9 O15 2.886040 1_545
Ba9 O5 2.887173 1_545
Ba9 O5 2.909315 1_555
Ba9 O18 2.915446 1_555
Ba9 O2 2.917256 1_555
Ba9 O15 2.918927 1_655
Ba9 O24 2.921660 1_555
Ba9 O4 3.095953 1_555
Ba9 O9 3.097122 1_655
Ba10 O11 2.729422 1_545
Ba10 O13 2.852710 1_655
Ba10 O1 2.868785 1_655
Ba10 O8 2.879695 1_555
Ba10 O1 2.904609 1_555
Ba10 O8 2.931199 1_545
Ba10 O13 2.958213 1_545
Ba10 O17 3.021457 1_555
Ba10 O22 3.022170 1_555
Ba10 O29 3.068096 1_555
Ba10 O3 3.091770 1_555
Ba10 O10 3.110208 1_655
Ba11 O31 2.758612 1_555
Ba11 O16 2.803034 1_555
Ba11 O23 2.813488 1_555
Ba11 O12 2.869848 1_545
Ba11 O7 2.869992 1_545
Ba11 O0 2.884128 1_555
Ba11 O0 2.890140 1_655
Ba11 O7 2.934574 1_555
Ba11 O12 2.941767 1_655
Ba11 O9 3.108871 1_655
Ba11 O4 3.132455 1_555
Fe0 O10 1.910223 1_555
Fe0 O3 1.917618 1_555
Fe0 O11 1.918166 1_555
Fe0 O6 1.937627 1_555
Fe0 O14 1.941115 1_555
Fe1 O2 1.881868 1_555
Fe1 O15 1.936330 1_555
Fe1 O5 1.973331 1_555
Fe1 O4 1.980385 1_555
Fe1 O9 1.995300 1_555
Fe2 O1 1.963394 1_555
Fe2 O13 1.963816 1_555
Fe2 O8 1.999896 1_555
Fe2 O11 2.118204 1_555
Fe2 O3 2.127699 1_555
Fe2 O10 2.134085 1_555
Fe3 O32 1.880805 1_555
Fe3 O25 1.952556 1_665
Fe3 O19 1.953559 1_565
Fe3 O14 2.031254 1_656
Fe3 O6 2.034684 1_556
Fe4 O22 1.969911 1_665
Fe4 O8 1.974918 1_555
Fe4 O13 2.023096 1_655
Fe4 O1 2.046878 1_665
Fe4 O17 2.084698 1_565
Fe4 O29 2.125518 1_555
Fe5 O24 1.984123 1_665
Fe5 O2 1.985635 1_665
Fe5 O5 2.033700 1_555
Fe5 O30 2.043407 1_555
Fe5 O15 2.093230 1_655
Fe5 O18 2.110204 1_565
Fe6 O0 1.905277 1_555
Fe6 O7 1.906796 1_555
Fe6 O12 1.909804 1_555
Fe6 O9 1.960932 1_555
Fe6 O4 1.974560 1_555
Fe7 O31 1.926861 1_555
Fe7 O0 1.975056 1_665
Fe7 O23 2.056228 1_665
Fe7 O16 2.058485 1_565
Fe7 O7 2.120583 1_555
Fe7 O12 2.120720 1_655
Fe8 O22 1.885915 1_555
Fe8 O29 1.918480 1_555
Fe8 O17 1.934918 1_555
Fe8 O20 1.978654 1_555
Fe8 O27 1.999602 1_555
Fe9 O23 1.943499 1_555
Fe9 O16 1.944590 1_555
Fe9 O26 1.948326 1_555
Fe9 O28 1.951025 1_555
Fe9 O31 2.089198 1_555
Fe9 O21 2.152376 1_555
Fe10 O21 1.914516 1_555
Fe10 O32 1.933440 1_555
Fe10 O19 2.049353 1_555
Fe10 O25 2.055136 1_555
Fe10 O28 2.071995 1_555
Fe10 O26 2.074790 1_555
Fe11 O24 1.886498 1_555
Fe11 O18 1.930786 1_555
Fe11 O27 1.962808 1_555
Fe11 O30 1.970985 1_555
Fe11 O20 1.978930 1_555
