# generated using pymatgen
data_LiSiBiO4
_symmetry_space_group_name_H-M   'P 1'
_cell_length_a   5.77458700
_cell_length_b   7.09848800
_cell_length_c   9.05877100
_cell_angle_alpha   90.00000000
_cell_angle_beta   90.00000000
_cell_angle_gamma   90.00000000
_symmetry_Int_Tables_number   1
_chemical_formula_structural   LiSiBiO4
_chemical_formula_sum   'Li4 Si4 Bi4 O16'
_cell_volume   371.32660117
_cell_formula_units_Z   4
loop_
 _symmetry_equiv_pos_site_id
 _symmetry_equiv_pos_as_xyz
  1  'x, y, z'
loop_
 _atom_site_type_symbol
 _atom_site_label
 _atom_site_symmetry_multiplicity
 _atom_site_fract_x
 _atom_site_fract_y
 _atom_site_fract_z
 _atom_site_occupancy
  Li  Li0  1  0.00000000  0.00000000  0.00000000  1
  Li  Li1  1  0.00000000  0.50000000  0.00000000  1
  Li  Li2  1  0.50000000  0.50000000  0.50000000  1
  Li  Li3  1  0.50000000  0.00000000  0.50000000  1
  Si  Si0  1  0.91557300  0.75000000  0.67762200  1
  Si  Si1  1  0.58442700  0.75000000  0.17762200  1
  Si  Si2  1  0.41557300  0.25000000  0.82237800  1
  Si  Si3  1  0.08442700  0.25000000  0.32237800  1
  Bi  Bi0  1  0.86719100  0.25000000  0.65596500  1
  Bi  Bi1  1  0.63280900  0.25000000  0.15596500  1
  Bi  Bi2  1  0.36719100  0.75000000  0.84403500  1
  Bi  Bi3  1  0.13280900  0.75000000  0.34403500  1
  O  O0  1  0.01187400  0.25000000  0.14405900  1
  O  O1  1  0.67783800  0.25000000  0.90485600  1
  O  O2  1  0.73452400  0.93596000  0.13361400  1
  O  O3  1  0.73452400  0.56404000  0.13361400  1
  O  O4  1  0.76547600  0.93596000  0.63361400  1
  O  O5  1  0.76547600  0.56404000  0.63361400  1
  O  O6  1  0.82216200  0.25000000  0.40485600  1
  O  O7  1  0.48812600  0.25000000  0.64405900  1
  O  O8  1  0.51187400  0.75000000  0.35594100  1
  O  O9  1  0.17783800  0.75000000  0.59514400  1
  O  O10  1  0.26547600  0.43596000  0.86638600  1
  O  O11  1  0.26547600  0.06404000  0.86638600  1
  O  O12  1  0.23452400  0.06404000  0.36638600  1
  O  O13  1  0.23452400  0.43596000  0.36638600  1
  O  O14  1  0.98812600  0.75000000  0.85594100  1
  O  O15  1  0.32216200  0.75000000  0.09514400  1
loop_
_geom_bond_atom_site_label_1
_geom_bond_atom_site_label_2
_geom_bond_distance
_geom_bond_site_symmetry_2
Li0 O11 2.005442 1_554
Li0 O2 2.005442 1_445
Li0 O0 2.203861 1_555
Li0 O14 2.203861 1_444
Li1 O10 2.005442 1_554
Li1 O3 2.005442 1_455
Li1 O14 2.203861 1_454
Li1 O0 2.203861 1_555
Li2 O13 2.005442 1_555
Li2 O5 2.005442 1_555
Li2 O7 2.203861 1_555
Li2 O8 2.203861 1_555
Li3 O4 2.005442 1_545
Li3 O12 2.005442 1_555
Li3 O7 2.203861 1_555
Li3 O8 2.203861 1_545
Bi0 O7 2.191599 1_555
Bi0 O6 2.289552 1_555
Bi0 O4 2.314166 1_545
Bi0 O5 2.314166 1_555
Bi0 O1 2.505800 1_555
Bi1 O0 2.191599 1_655
Bi1 O1 2.289552 1_554
Bi1 O2 2.314166 1_545
Bi1 O3 2.314166 1_555
Bi1 O6 2.505800 1_555
Bi2 O14 2.191599 1_455
Bi2 O15 2.289552 1_556
Bi2 O10 2.314166 1_555
Bi2 O11 2.314166 1_565
Bi2 O9 2.505800 1_555
Bi3 O8 2.191599 1_555
Bi3 O9 2.289552 1_555
Bi3 O13 2.314166 1_555
Bi3 O12 2.314166 1_565
Bi3 O15 2.505800 1_555
O0 Si3 1.668799 1_555
O1 Si2 1.688744 1_555
O2 Si1 1.628703 1_555
O3 Si1 1.628703 1_555
O4 Si0 1.628703 1_555
O5 Si0 1.628703 1_555
O6 Si3 1.688744 1_655
O7 Si2 1.668799 1_555
O8 Si1 1.668799 1_555
O9 Si0 1.688744 1_455
O10 Si2 1.628703 1_555
O11 Si2 1.628703 1_555
O12 Si3 1.628703 1_555
O13 Si3 1.628703 1_555
O14 Si0 1.668799 1_555
O15 Si1 1.688744 1_555
