# generated using pymatgen
data_Mn4P3NO12
_symmetry_space_group_name_H-M   'P 1'
_cell_length_a   6.45656700
_cell_length_b   9.99486200
_cell_length_c   16.61120200
_cell_angle_alpha   90.00000000
_cell_angle_beta   90.00000000
_cell_angle_gamma   90.00000000
_symmetry_Int_Tables_number   1
_chemical_formula_structural   Mn4P3NO12
_chemical_formula_sum   'Mn16 P12 N4 O48'
_cell_volume   1071.96232926
_cell_formula_units_Z   4
loop_
 _symmetry_equiv_pos_site_id
 _symmetry_equiv_pos_as_xyz
  1  'x, y, z'
loop_
 _atom_site_type_symbol
 _atom_site_label
 _atom_site_symmetry_multiplicity
 _atom_site_fract_x
 _atom_site_fract_y
 _atom_site_fract_z
 _atom_site_occupancy
  Mn  Mn0  1  0.50000000  0.54145200  0.09605900  1
  Mn  Mn1  1  0.50000000  0.45854800  0.90394100  1
  Mn  Mn2  1  0.00000000  0.04145200  0.40394100  1
  Mn  Mn3  1  0.00000000  0.95854800  0.59605900  1
  Mn  Mn4  1  0.50000000  0.98397100  0.13716300  1
  Mn  Mn5  1  0.50000000  0.01602900  0.86283700  1
  Mn  Mn6  1  0.00000000  0.48397100  0.36283700  1
  Mn  Mn7  1  0.00000000  0.51602900  0.63716300  1
  Mn  Mn8  1  0.24839200  0.25334500  0.20315700  1
  Mn  Mn9  1  0.24839200  0.74665500  0.79684300  1
  Mn  Mn10  1  0.25160800  0.75334500  0.29684300  1
  Mn  Mn11  1  0.25160800  0.24665500  0.70315700  1
  Mn  Mn12  1  0.75160800  0.74665500  0.79684300  1
  Mn  Mn13  1  0.75160800  0.25334500  0.20315700  1
  Mn  Mn14  1  0.74839200  0.24665500  0.70315700  1
  Mn  Mn15  1  0.74839200  0.75334500  0.29684300  1
  P  P0  1  0.50000000  0.04361000  0.33357000  1
  P  P1  1  0.50000000  0.95639000  0.66643000  1
  P  P2  1  0.00000000  0.54361000  0.16643000  1
  P  P3  1  0.00000000  0.45639000  0.83357000  1
  P  P4  1  0.50000000  0.46102000  0.28163000  1
  P  P5  1  0.50000000  0.53898000  0.71837000  1
  P  P6  1  0.00000000  0.96102000  0.21837000  1
  P  P7  1  0.00000000  0.03898000  0.78163000  1
  P  P8  1  0.50000000  0.78405200  0.96564400  1
  P  P9  1  0.50000000  0.21594800  0.03435600  1
  P  P10  1  0.00000000  0.28405200  0.53435600  1
  P  P11  1  0.00000000  0.71594800  0.46564400  1
  N  N0  1  0.50000000  0.30032400  0.47227200  1
  N  N1  1  0.50000000  0.69967600  0.52772800  1
  N  N2  1  0.00000000  0.80032400  0.02772800  1
  N  N3  1  0.00000000  0.19967600  0.97227200  1
  O  O0  1  0.69940000  0.08376700  0.37745200  1
  O  O1  1  0.69940000  0.91623300  0.62254800  1
  O  O2  1  0.80060000  0.58376700  0.12254800  1
  O  O3  1  0.80060000  0.41623300  0.87745200  1
  O  O4  1  0.30060000  0.91623300  0.62254800  1
  O  O5  1  0.30060000  0.08376700  0.37745200  1
  O  O6  1  0.19940000  0.41623300  0.87745200  1
  O  O7  1  0.19940000  0.58376700  0.12254800  1
  O  O8  1  0.50000000  0.62804400  0.98212000  1
  O  O9  1  0.50000000  0.37195600  0.01788000  1
  O  O10  1  0.00000000  0.12804400  0.51788000  1
  O  O11  1  0.00000000  0.87195600  0.48212000  1
  O  O12  1  0.50000000  0.40568400  0.18902900  1
  O  O13  1  0.50000000  0.59431600  0.81097100  1
  O  O14  1  0.00000000  0.90568400  0.31097100  1
  O  O15  1  0.00000000  0.09431600  0.68902900  1
  O  O16  1  0.50000000  0.84898900  0.04801700  1
  O  O17  1  0.50000000  0.15101100  0.95198300  1
  O  O18  1  0.00000000  0.34898900  0.45198300  1
  O  O19  1  0.00000000  0.65101100  0.54801700  1
  O  O20  1  0.20197600  0.90398800  0.18437200  1
  O  O21  1  0.20197600  0.09601200  0.81562800  1
  O  O22  1  0.29802400  0.40398800  0.31562800  1
  O  O23  1  0.29802400  0.59601200  0.68437200  1
  O  O24  1  0.79802400  0.09601200  0.81562800  1
  O  O25  1  0.79802400  0.90398800  0.18437200  1
  O  O26  1  0.70197600  0.59601200  0.68437200  1
  O  O27  1  0.70197600  0.40398800  0.31562800  1
  O  O28  1  0.50000000  0.11790200  0.24766800  1
  O  O29  1  0.50000000  0.88209800  0.75233200  1
  O  O30  1  0.00000000  0.61790200  0.25233200  1
  O  O31  1  0.00000000  0.38209800  0.74766800  1
  O  O32  1  0.68811800  0.17330400  0.08766900  1
  O  O33  1  0.68811800  0.82669600  0.91233100  1
  O  O34  1  0.81188200  0.67330400  0.41233100  1
  O  O35  1  0.81188200  0.32669600  0.58766900  1
  O  O36  1  0.31188200  0.82669600  0.91233100  1
  O  O37  1  0.31188200  0.17330400  0.08766900  1
  O  O38  1  0.18811800  0.32669600  0.58766900  1
  O  O39  1  0.18811800  0.67330400  0.41233100  1
  O  O40  1  0.50000000  0.88941100  0.31645500  1
  O  O41  1  0.50000000  0.11058900  0.68354500  1
  O  O42  1  0.00000000  0.38941100  0.18354500  1
  O  O43  1  0.00000000  0.61058900  0.81645500  1
  O  O44  1  0.50000000  0.61622200  0.27547400  1
  O  O45  1  0.50000000  0.38377800  0.72452600  1
  O  O46  1  0.00000000  0.11622200  0.22452600  1
  O  O47  1  0.00000000  0.88377800  0.77547400  1
loop_
_geom_bond_atom_site_label_1
_geom_bond_atom_site_label_2
_geom_bond_distance
_geom_bond_site_symmetry_2
Mn0 O7 2.034542 1_555
Mn0 O2 2.034542 1_555
Mn0 O12 2.055821 1_555
Mn0 O8 2.081159 1_554
Mn0 O9 2.134578 1_555
Mn1 O6 2.034542 1_555
Mn1 O3 2.034542 1_555
Mn1 O13 2.055821 1_555
Mn1 O9 2.081159 1_556
Mn1 O8 2.134578 1_555
Mn2 O0 2.034542 1_455
Mn2 O5 2.034542 1_555
Mn2 O14 2.055821 1_545
Mn2 O10 2.081159 1_555
Mn2 O11 2.134578 1_545
Mn3 O1 2.034542 1_455
Mn3 O4 2.034542 1_555
Mn3 O15 2.055821 1_565
Mn3 O11 2.081159 1_555
Mn3 O10 2.134578 1_565
Mn4 O16 2.003242 1_555
Mn4 O25 2.226349 1_555
Mn4 O20 2.226349 1_555
Mn4 O28 2.271874 1_565
Mn4 O37 2.394201 1_565
Mn4 O32 2.394201 1_565
Mn5 O17 2.003242 1_555
Mn5 O24 2.226349 1_555
Mn5 O21 2.226349 1_555
Mn5 O29 2.271874 1_545
Mn5 O36 2.394201 1_545
Mn5 O33 2.394201 1_545
Mn6 O18 2.003242 1_555
Mn6 O27 2.226349 1_455
Mn6 O22 2.226349 1_555
Mn6 O30 2.271874 1_555
Mn6 O34 2.394201 1_455
Mn6 O39 2.394201 1_555
Mn7 O19 2.003242 1_555
Mn7 O26 2.226349 1_455
Mn7 O23 2.226349 1_555
Mn7 O31 2.271874 1_555
Mn7 O35 2.394201 1_455
Mn7 O38 2.394201 1_555
Mn8 O37 2.118555 1_555
Mn8 O42 2.127832 1_555
Mn8 O46 2.139249 1_555
Mn8 O12 2.238858 1_555
Mn8 O28 2.240169 1_555
Mn8 O22 2.420776 1_555
Mn9 O36 2.118555 1_555
Mn9 O43 2.127832 1_555
Mn9 O47 2.139249 1_555
Mn9 O13 2.238858 1_555
Mn9 O29 2.240169 1_555
Mn9 O23 2.420776 1_555
Mn10 O39 2.118555 1_555
Mn10 O40 2.127832 1_555
Mn10 O44 2.139249 1_555
Mn10 O14 2.238858 1_555
Mn10 O30 2.240169 1_555
Mn10 O20 2.420776 1_555
Mn11 O38 2.118555 1_555
Mn11 O41 2.127832 1_555
Mn11 O45 2.139249 1_555
Mn11 O15 2.238858 1_555
Mn11 O31 2.240169 1_555
Mn11 O21 2.420776 1_555
Mn12 O33 2.118555 1_555
Mn12 O43 2.127832 1_655
Mn12 O47 2.139249 1_655
Mn12 O13 2.238858 1_555
Mn12 O29 2.240169 1_555
Mn12 O26 2.420776 1_555
Mn13 O32 2.118555 1_555
Mn13 O42 2.127832 1_655
Mn13 O46 2.139249 1_655
Mn13 O12 2.238858 1_555
Mn13 O28 2.240169 1_555
Mn13 O27 2.420776 1_555
Mn14 O35 2.118555 1_555
Mn14 O41 2.127832 1_555
Mn14 O45 2.139249 1_555
Mn14 O15 2.238858 1_655
Mn14 O31 2.240169 1_655
Mn14 O24 2.420776 1_555
Mn15 O34 2.118555 1_555
Mn15 O40 2.127832 1_555
Mn15 O44 2.139249 1_555
Mn15 O14 2.238858 1_655
Mn15 O30 2.240169 1_655
Mn15 O25 2.420776 1_555
O0 P0 1.532950 1_555
O1 P1 1.532950 1_555
O2 P2 1.532950 1_655
O3 P3 1.532950 1_655
O4 P1 1.532950 1_555
O5 P0 1.532950 1_555
O6 P3 1.532950 1_555
O7 P2 1.532950 1_555
O8 P8 1.583115 1_555
O9 P9 1.583115 1_555
O10 P10 1.583115 1_555
O11 P11 1.583115 1_555
O12 P4 1.634624 1_555
O13 P5 1.634624 1_555
O14 P6 1.634624 1_555
O15 P7 1.634624 1_555
O16 P8 1.514441 1_554
O17 P9 1.514441 1_556
O18 P10 1.514441 1_555
O19 P11 1.514441 1_555
O20 P6 1.531167 1_555
O21 P7 1.531167 1_555
O22 P4 1.531167 1_555
O23 P5 1.531167 1_555
O24 P7 1.531167 1_655
O25 P6 1.531167 1_655
O26 P5 1.531167 1_555
O27 P4 1.531167 1_555
O28 P0 1.608573 1_555
O29 P1 1.608573 1_555
O30 P2 1.608573 1_555
O31 P3 1.608573 1_555
O32 P9 1.562429 1_555
O33 P8 1.562429 1_555
O34 P11 1.562429 1_655
O35 P10 1.562429 1_655
O36 P8 1.562429 1_555
O37 P9 1.562429 1_555
O38 P10 1.562429 1_555
O39 P11 1.562429 1_555
O40 P0 1.567200 1_565
O41 P1 1.567200 1_545
O42 P2 1.567200 1_555
O43 P3 1.567200 1_555
O44 P4 1.554589 1_555
O45 P5 1.554589 1_555
O46 P6 1.554589 1_545
O47 P7 1.554589 1_565
