# generated using pymatgen
data_Li8VO6
_symmetry_space_group_name_H-M   'P 1'
_cell_length_a   5.44103454
_cell_length_b   8.07108004
_cell_length_c   11.71214500
_cell_angle_alpha   97.48128883
_cell_angle_beta   88.85110497
_cell_angle_gamma   89.16869710
_symmetry_Int_Tables_number   1
_chemical_formula_structural   Li8VO6
_chemical_formula_sum   'Li32 V4 O24'
_cell_volume   509.78224292
_cell_formula_units_Z   4
loop_
 _symmetry_equiv_pos_site_id
 _symmetry_equiv_pos_as_xyz
  1  'x, y, z'
loop_
 _atom_site_type_symbol
 _atom_site_label
 _atom_site_symmetry_multiplicity
 _atom_site_fract_x
 _atom_site_fract_y
 _atom_site_fract_z
 _atom_site_occupancy
  Li  Li0  1  0.48980000  0.15260800  0.08696800  1
  Li  Li1  1  0.99186200  0.65176500  0.33671100  1
  Li  Li2  1  0.49208700  0.15229300  0.58733100  1
  Li  Li3  1  0.99085100  0.65236900  0.83728200  1
  Li  Li4  1  0.51041400  0.84687800  0.41254000  1
  Li  Li5  1  0.00760400  0.34807400  0.66255200  1
  Li  Li6  1  0.50769000  0.84834000  0.91311600  1
  Li  Li7  1  0.00997700  0.34773100  0.16334200  1
  Li  Li8  1  0.36413700  0.12860000  0.38527300  1
  Li  Li9  1  0.86358500  0.62936100  0.63511400  1
  Li  Li10  1  0.36314000  0.12947700  0.88510200  1
  Li  Li11  1  0.86330100  0.62901400  0.13497600  1
  Li  Li12  1  0.17057900  0.06815900  0.21062800  1
  Li  Li13  1  0.67130800  0.56780500  0.46039500  1
  Li  Li14  1  0.17011200  0.06865600  0.71028300  1
  Li  Li15  1  0.66965000  0.56871200  0.96027300  1
  Li  Li16  1  0.69297200  0.20593000  0.27849200  1
  Li  Li17  1  0.19324200  0.70615800  0.52862900  1
  Li  Li18  1  0.69285200  0.20624000  0.77906700  1
  Li  Li19  1  0.19227200  0.70631000  0.02887600  1
  Li  Li20  1  0.30744600  0.79375500  0.22120300  1
  Li  Li21  1  0.80757300  0.29352900  0.47088200  1
  Li  Li22  1  0.30675400  0.79400600  0.72122600  1
  Li  Li23  1  0.80693200  0.29408400  0.97158600  1
  Li  Li24  1  0.83025900  0.93145600  0.28950900  1
  Li  Li25  1  0.33011700  0.43150500  0.53984700  1
  Li  Li26  1  0.82905100  0.93167800  0.78961600  1
  Li  Li27  1  0.32895200  0.43210000  0.03941800  1
  Li  Li28  1  0.63629100  0.87111000  0.11494700  1
  Li  Li29  1  0.13721900  0.37059100  0.36505100  1
  Li  Li30  1  0.63633700  0.87082900  0.61475800  1
  Li  Li31  1  0.13588300  0.37095400  0.86479400  1
  V  V0  1  0.00032500  0.99990600  0.50003900  1
  V  V1  1  0.49965700  0.50015900  0.75001700  1
  V  V2  1  0.99958200  0.00012200  0.00000100  1
  V  V3  1  0.50039000  0.49992600  0.25000400  1
  O  O0  1  0.35630400  0.26550100  0.24906700  1
  O  O1  1  0.85643000  0.76572100  0.49938500  1
  O  O2  1  0.35661800  0.26605900  0.74928900  1
  O  O3  1  0.85597200  0.76573800  0.99933400  1
  O  O4  1  0.15720100  0.93377500  0.35058700  1
  O  O5  1  0.65714400  0.43422500  0.60031300  1
  O  O6  1  0.15572500  0.93430000  0.85016400  1
  O  O7  1  0.65601300  0.43453900  0.10022800  1
  O  O8  1  0.69311100  0.07495700  0.42011200  1
  O  O9  1  0.19253100  0.57542100  0.67030000  1
  O  O10  1  0.69246800  0.07529000  0.92026200  1
  O  O11  1  0.19241300  0.57544200  0.17027000  1
  O  O12  1  0.30699100  0.92477200  0.07972300  1
  O  O13  1  0.80782600  0.42440800  0.32967100  1
  O  O14  1  0.30717600  0.92493900  0.57993800  1
  O  O15  1  0.80696800  0.42494800  0.82966800  1
  O  O16  1  0.84425500  0.06571500  0.14978100  1
  O  O17  1  0.34400000  0.56546300  0.39972800  1
  O  O18  1  0.84312500  0.06580300  0.64957400  1
  O  O19  1  0.34268500  0.56583200  0.89969400  1
  O  O20  1  0.64423000  0.73440000  0.25099400  1
  O  O21  1  0.14378800  0.23411500  0.50055500  1
  O  O22  1  0.64320500  0.73405400  0.75078000  1
  O  O23  1  0.14361500  0.23439700  0.00073500  1
loop_
_geom_bond_atom_site_label_1
_geom_bond_atom_site_label_2
_geom_bond_distance
_geom_bond_site_symmetry_2
Li0 O12 2.096159 1_545
Li0 O0 2.106479 1_555
Li0 O16 2.214628 1_555
Li0 O10 2.234733 1_554
Li0 O23 2.284207 1_555
Li0 O7 2.448095 1_555
Li1 O13 2.096189 1_555
Li1 O1 2.118177 1_555
Li1 O17 2.202911 1_655
Li1 O11 2.225482 1_655
Li1 O20 2.290042 1_555
Li1 O4 2.446511 1_655
Li2 O14 2.098246 1_545
Li2 O2 2.110757 1_555
Li2 O18 2.194662 1_555
Li2 O8 2.235532 1_555
Li2 O21 2.296994 1_555
Li2 O5 2.445859 1_555
Li3 O15 2.095806 1_555
Li3 O3 2.109635 1_555
Li3 O19 2.199347 1_655
Li3 O9 2.234409 1_655
Li3 O22 2.292085 1_555
Li3 O6 2.445532 1_655
Li4 O8 2.097343 1_565
Li4 O20 2.100574 1_555
Li4 O4 2.204815 1_555
Li4 O14 2.243855 1_555
Li4 O1 2.285310 1_555
Li4 O17 2.444926 1_555
Li5 O9 2.097981 1_555
Li5 O21 2.112893 1_555
Li5 O5 2.190947 1_455
Li5 O15 2.232957 1_455
Li5 O2 2.300515 1_555
Li5 O18 2.447202 1_455
Li6 O10 2.095216 1_565
Li6 O22 2.115850 1_555
Li6 O6 2.200833 1_555
Li6 O12 2.227610 1_556
Li6 O3 2.295785 1_555
Li6 O19 2.449803 1_555
Li7 O11 2.094524 1_555
Li7 O23 2.112817 1_555
Li7 O7 2.213440 1_455
Li7 O13 2.228935 1_455
Li7 O0 2.283095 1_555
Li7 O16 2.447532 1_455
Li8 O21 1.895191 1_555
Li8 O8 1.900186 1_555
Li8 O4 1.951603 1_545
Li8 O0 2.056196 1_555
Li9 O22 1.895892 1_555
Li9 O9 1.901699 1_655
Li9 O5 1.952140 1_555
Li9 O1 2.048580 1_555
Li10 O23 1.893432 1_556
Li10 O10 1.904062 1_555
Li10 O6 1.955724 1_545
Li10 O2 2.050467 1_555
Li11 O20 1.896136 1_555
Li11 O11 1.902165 1_655
Li11 O7 1.950602 1_555
Li11 O3 2.049620 1_554
Li12 O0 1.907611 1_555
Li12 O12 1.925680 1_545
Li12 O16 1.925850 1_455
Li12 O4 2.080683 1_545
Li13 O1 1.910484 1_555
Li13 O13 1.924423 1_555
Li13 O17 1.930034 1_555
Li13 O5 2.076345 1_555
Li14 O2 1.911262 1_555
Li14 O14 1.923628 1_545
Li14 O18 1.928502 1_455
Li14 O6 2.079915 1_545
Li15 O3 1.908340 1_555
Li15 O15 1.926472 1_555
Li15 O19 1.927799 1_555
Li15 O7 2.079618 1_556
Li16 O13 1.905518 1_555
Li16 O16 1.926066 1_555
Li16 O0 1.936084 1_555
Li16 O8 2.079726 1_555
Li17 O14 1.906266 1_555
Li17 O17 1.928329 1_555
Li17 O1 1.936324 1_455
Li17 O9 2.079040 1_555
Li18 O15 1.904432 1_555
Li18 O18 1.931122 1_555
Li18 O2 1.935321 1_555
Li18 O10 2.075291 1_555
Li19 O12 1.904371 1_555
Li19 O19 1.929035 1_554
Li19 O3 1.934207 1_454
Li19 O11 2.076921 1_555
Li20 O11 1.904097 1_555
Li20 O4 1.928557 1_555
Li20 O20 1.937220 1_555
Li20 O12 2.078544 1_555
Li21 O8 1.904497 1_555
Li21 O5 1.931954 1_555
Li21 O21 1.934094 1_655
Li21 O13 2.075107 1_555
Li22 O9 1.904503 1_555
Li22 O6 1.927671 1_555
Li22 O22 1.936110 1_555
Li22 O14 2.076146 1_555
Li23 O10 1.907391 1_555
Li23 O7 1.925634 1_556
Li23 O23 1.935664 1_656
Li23 O15 2.082195 1_555
Li24 O20 1.906766 1_555
Li24 O8 1.925073 1_565
Li24 O4 1.930049 1_655
Li24 O16 2.077832 1_565
Li25 O21 1.911126 1_555
Li25 O9 1.926348 1_555
Li25 O5 1.927633 1_555
Li25 O17 2.080216 1_555
Li26 O22 1.910465 1_555
Li26 O10 1.924758 1_565
Li26 O6 1.926234 1_655
Li26 O18 2.080314 1_565
Li27 O23 1.909221 1_555
Li27 O11 1.925310 1_555
Li27 O7 1.929411 1_555
Li27 O19 2.075098 1_554
Li28 O3 1.895061 1_554
Li28 O12 1.903087 1_555
Li28 O16 1.953729 1_565
Li28 O20 2.053653 1_555
Li29 O0 1.895100 1_555
Li29 O13 1.904353 1_455
Li29 O17 1.951390 1_555
Li29 O21 2.046866 1_555
Li30 O1 1.893884 1_555
Li30 O14 1.902002 1_555
Li30 O18 1.952248 1_565
Li30 O22 2.053581 1_555
Li31 O2 1.896422 1_555
Li31 O15 1.901459 1_455
Li31 O19 1.951797 1_555
Li31 O23 2.051783 1_556
O0 V3 2.057334 1_555
O1 V0 2.055489 1_655
O2 V1 2.052929 1_555
O3 V2 2.056348 1_566
O4 V0 1.939318 1_555
O5 V1 1.943002 1_555
O6 V2 1.941153 1_466
O7 V3 1.938841 1_555
O8 V0 2.053872 1_645
O9 V1 2.052809 1_555
O10 V2 2.052626 1_556
O11 V3 2.057407 1_555
O12 V2 2.054344 1_465
O13 V3 2.054602 1_555
O14 V0 2.051855 1_555
O15 V1 2.053098 1_555
O16 V2 1.938461 1_555
O17 V3 1.940231 1_555
O18 V0 1.940605 1_645
O19 V1 1.941243 1_555
O20 V3 2.057106 1_555
O21 V0 2.054919 1_545
O22 V1 2.052443 1_555
O23 V2 2.056356 1_455
