# generated using pymatgen
data_V3(O2F)2
_symmetry_space_group_name_H-M   'P 1'
_cell_length_a   10.41153077
_cell_length_b   10.41153077
_cell_length_c   3.08018300
_cell_angle_alpha   90.00000000
_cell_angle_beta   90.00000000
_cell_angle_gamma   143.24012703
_symmetry_Int_Tables_number   1
_chemical_formula_structural   V3(O2F)2
_chemical_formula_sum   'V6 O8 F4'
_cell_volume   199.82174755
_cell_formula_units_Z   2
loop_
 _symmetry_equiv_pos_site_id
 _symmetry_equiv_pos_as_xyz
  1  'x, y, z'
loop_
 _atom_site_type_symbol
 _atom_site_label
 _atom_site_symmetry_multiplicity
 _atom_site_fract_x
 _atom_site_fract_y
 _atom_site_fract_z
 _atom_site_occupancy
  V  V0  1  0.83950500  0.16049500  0.00000000  1
  V  V1  1  0.00000000  0.00000000  0.50000000  1
  V  V2  1  0.34025000  0.65975000  0.50000000  1
  V  V3  1  0.50000000  0.50000000  0.00000000  1
  V  V4  1  0.16049500  0.83950500  0.00000000  1
  V  V5  1  0.65975000  0.34025000  0.50000000  1
  O  O0  1  0.90301400  0.09698600  0.50000000  1
  O  O1  1  0.14042600  0.47690100  0.00000000  1
  O  O2  1  0.52309900  0.85957400  0.00000000  1
  O  O3  1  0.85957400  0.52309900  0.00000000  1
  O  O4  1  0.43442100  0.56557900  0.50000000  1
  O  O5  1  0.09698600  0.90301400  0.50000000  1
  O  O6  1  0.56557900  0.43442100  0.50000000  1
  O  O7  1  0.47690100  0.14042600  0.00000000  1
  F  F0  1  0.19956100  0.19956100  0.00000000  1
  F  F1  1  0.23302200  0.76697800  0.50000000  1
  F  F2  1  0.80043900  0.80043900  0.00000000  1
  F  F3  1  0.76697800  0.23302200  0.50000000  1
loop_
_geom_bond_atom_site_label_1
_geom_bond_atom_site_label_2
_geom_bond_distance
_geom_bond_site_symmetry_2
O0 V1 1.916521 1_655
O0 V0 1.986675 1_556
O0 V0 1.986675 1_555
O1 V2 1.994561 1_555
O1 V2 1.994561 1_554
O1 V0 2.032408 1_455
O2 V2 1.994561 1_554
O2 V2 1.994561 1_555
O2 V0 2.032408 1_565
O3 V5 1.994561 1_554
O3 V5 1.994561 1_555
O3 V4 2.032408 1_655
O4 V2 1.860895 1_555
O4 V3 2.012765 1_556
O4 V3 2.012765 1_555
O5 V1 1.916521 1_565
O5 V4 1.986675 1_555
O5 V4 1.986675 1_556
O6 V5 1.860895 1_555
O6 V3 2.012765 1_556
O6 V3 2.012765 1_555
O7 V5 1.994561 1_555
O7 V5 1.994561 1_554
O7 V4 2.032408 1_545
F0 V3 1.972640 1_555
F0 V1 2.022063 1_555
F0 V1 2.022063 1_554
F1 V4 2.103787 1_556
F1 V4 2.103787 1_555
F1 V2 2.118911 1_555
F2 V3 1.972640 1_555
F2 V1 2.022063 1_664
F2 V1 2.022063 1_665
F3 V0 2.103787 1_555
F3 V0 2.103787 1_556
F3 V5 2.118911 1_555
