# generated using pymatgen
data_Mn7(P2O7)4
_symmetry_space_group_name_H-M   'P 1'
_cell_length_a   6.60516336
_cell_length_b   6.60516336
_cell_length_c   23.95444300
_cell_angle_alpha   90.00000000
_cell_angle_beta   90.00000000
_cell_angle_gamma   97.85001536
_symmetry_Int_Tables_number   1
_chemical_formula_structural   Mn7(P2O7)4
_chemical_formula_sum   'Mn14 P16 O56'
_cell_volume   1035.29528700
_cell_formula_units_Z   2
loop_
 _symmetry_equiv_pos_site_id
 _symmetry_equiv_pos_as_xyz
  1  'x, y, z'
loop_
 _atom_site_type_symbol
 _atom_site_label
 _atom_site_symmetry_multiplicity
 _atom_site_fract_x
 _atom_site_fract_y
 _atom_site_fract_z
 _atom_site_occupancy
  Mn  Mn0  1  0.07247600  0.07247600  0.00000000  1
  Mn  Mn1  1  0.03725800  0.32505500  0.13555300  1
  Mn  Mn2  1  0.32505500  0.03725800  0.86444700  1
  Mn  Mn3  1  0.30978900  0.30978900  0.50000000  1
  Mn  Mn4  1  0.57996700  0.28420500  0.62335000  1
  Mn  Mn5  1  0.28420500  0.57996700  0.37665000  1
  Mn  Mn6  1  0.72154100  0.27845900  0.25000000  1
  Mn  Mn7  1  0.27845900  0.72154100  0.75000000  1
  Mn  Mn8  1  0.42003300  0.71579500  0.12335000  1
  Mn  Mn9  1  0.71579500  0.42003300  0.87665000  1
  Mn  Mn10  1  0.69021100  0.69021100  0.00000000  1
  Mn  Mn11  1  0.96274200  0.67494500  0.63555300  1
  Mn  Mn12  1  0.67494500  0.96274200  0.36444700  1
  Mn  Mn13  1  0.92752400  0.92752400  0.50000000  1
  P  P0  1  0.18067400  0.07276800  0.37638100  1
  P  P1  1  0.07276800  0.18067400  0.62361900  1
  P  P2  1  0.22154600  0.29779900  0.26805800  1
  P  P3  1  0.29779900  0.22154600  0.73194200  1
  P  P4  1  0.52366900  0.24100600  0.11896500  1
  P  P5  1  0.24100600  0.52366900  0.88103500  1
  P  P6  1  0.18796000  0.59634300  0.00509000  1
  P  P7  1  0.59634300  0.18796000  0.99491000  1
  P  P8  1  0.40365700  0.81204000  0.49491000  1
  P  P9  1  0.81204000  0.40365700  0.50509000  1
  P  P10  1  0.75899400  0.47633100  0.38103500  1
  P  P11  1  0.47633100  0.75899400  0.61896500  1
  P  P12  1  0.70220100  0.77845400  0.23194200  1
  P  P13  1  0.77845400  0.70220100  0.76805800  1
  P  P14  1  0.92723200  0.81932600  0.12361900  1
  P  P15  1  0.81932600  0.92723200  0.87638100  1
  O  O0  1  0.02615300  0.01024200  0.90265700  1
  O  O1  1  0.01024200  0.02615300  0.09734300  1
  O  O2  1  0.12289200  0.12916900  0.31350600  1
  O  O3  1  0.12916900  0.12289200  0.68649400  1
  O  O4  1  0.04394700  0.29769000  0.22626800  1
  O  O5  1  0.29769000  0.04394700  0.77373200  1
  O  O6  1  0.42530700  0.02128300  0.11988100  1
  O  O7  1  0.02128300  0.42530700  0.88011900  1
  O  O8  1  0.09870300  0.38253800  0.02296600  1
  O  O9  1  0.38253800  0.09870300  0.97703400  1
  O  O10  1  0.28117800  0.27009100  0.40522800  1
  O  O11  1  0.27009100  0.28117800  0.59477200  1
  O  O12  1  0.22771000  0.40790000  0.75774700  1
  O  O13  1  0.40790000  0.22771000  0.24225300  1
  O  O14  1  0.08346500  0.66600000  0.12796900  1
  O  O15  1  0.66600000  0.08346500  0.87203100  1
  O  O16  1  0.36617900  0.39154900  0.12868600  1
  O  O17  1  0.39154900  0.36617900  0.87131400  1
  O  O18  1  0.02619500  0.74135000  0.00356400  1
  O  O19  1  0.74135000  0.02619500  0.99643600  1
  O  O20  1  0.26861500  0.50425000  0.29908400  1
  O  O21  1  0.50425000  0.26861500  0.70091600  1
  O  O22  1  0.60249300  0.29461300  0.05542900  1
  O  O23  1  0.29461300  0.60249300  0.94457100  1
  O  O24  1  0.31638800  0.61787500  0.46081600  1
  O  O25  1  0.61787500  0.31638800  0.53918400  1
  O  O26  1  0.28468200  0.70699100  0.65480400  1
  O  O27  1  0.70699100  0.28468200  0.34519600  1
  O  O28  1  0.71531800  0.29300900  0.15480400  1
  O  O29  1  0.29300900  0.71531800  0.84519600  1
  O  O30  1  0.68361200  0.38212500  0.96081600  1
  O  O31  1  0.38212500  0.68361200  0.03918400  1
  O  O32  1  0.70538700  0.39750700  0.44457100  1
  O  O33  1  0.39750700  0.70538700  0.55542900  1
  O  O34  1  0.49575000  0.73138500  0.20091600  1
  O  O35  1  0.73138500  0.49575000  0.79908400  1
  O  O36  1  0.97380500  0.25865000  0.50356400  1
  O  O37  1  0.25865000  0.97380500  0.49643600  1
  O  O38  1  0.60845100  0.63382100  0.37131400  1
  O  O39  1  0.63382100  0.60845100  0.62868600  1
  O  O40  1  0.91653500  0.33400000  0.62796900  1
  O  O41  1  0.33400000  0.91653500  0.37203100  1
  O  O42  1  0.77229000  0.59210000  0.25774700  1
  O  O43  1  0.59210000  0.77229000  0.74225300  1
  O  O44  1  0.72990900  0.71882200  0.09477200  1
  O  O45  1  0.71882200  0.72990900  0.90522800  1
  O  O46  1  0.90129700  0.61746200  0.52296600  1
  O  O47  1  0.61746200  0.90129700  0.47703400  1
  O  O48  1  0.97871700  0.57469300  0.38011900  1
  O  O49  1  0.57469300  0.97871700  0.61988100  1
  O  O50  1  0.95605300  0.70231000  0.72626800  1
  O  O51  1  0.70231000  0.95605300  0.27373200  1
  O  O52  1  0.87083100  0.87710800  0.18649400  1
  O  O53  1  0.87710800  0.87083100  0.81350600  1
  O  O54  1  0.98975800  0.97384700  0.59734300  1
  O  O55  1  0.97384700  0.98975800  0.40265700  1
loop_
_geom_bond_atom_site_label_1
_geom_bond_atom_site_label_2
_geom_bond_distance
_geom_bond_site_symmetry_2
Mn0 O9 2.104779 1_554
Mn0 O8 2.104779 1_555
Mn0 O19 2.168338 1_454
Mn0 O18 2.168338 1_545
Mn0 O1 2.380234 1_555
Mn0 O0 2.380234 1_554
Mn1 O28 2.157862 1_455
Mn1 O1 2.161302 1_555
Mn1 O16 2.163192 1_555
Mn1 O4 2.181479 1_555
Mn1 O14 2.238280 1_555
Mn1 O8 2.745974 1_555
Mn2 O29 2.157862 1_545
Mn2 O0 2.161302 1_555
Mn2 O17 2.163192 1_555
Mn2 O5 2.181479 1_555
Mn2 O15 2.238280 1_555
Mn2 O9 2.745974 1_555
Mn3 O36 2.200363 1_455
Mn3 O37 2.200363 1_545
Mn3 O25 2.236013 1_555
Mn3 O24 2.236013 1_555
Mn3 O11 2.290150 1_555
Mn3 O10 2.290150 1_555
Mn4 O21 1.923281 1_555
Mn4 O49 2.015050 1_545
Mn4 O25 2.039167 1_555
Mn4 O39 2.126414 1_555
Mn4 O11 2.155730 1_555
Mn4 O40 2.205177 1_555
Mn5 O20 1.923281 1_555
Mn5 O48 2.015050 1_455
Mn5 O24 2.039167 1_555
Mn5 O38 2.126414 1_555
Mn5 O10 2.155730 1_555
Mn5 O41 2.205177 1_555
Mn6 O13 2.061272 1_555
Mn6 O42 2.061272 1_555
Mn6 O4 2.190977 1_655
Mn6 O51 2.190977 1_545
Mn6 O28 2.282998 1_555
Mn6 O27 2.282998 1_555
Mn7 O12 2.061272 1_555
Mn7 O43 2.061272 1_555
Mn7 O5 2.190977 1_565
Mn7 O50 2.190977 1_455
Mn7 O29 2.282998 1_555
Mn7 O26 2.282998 1_555
Mn8 O34 1.923281 1_555
Mn8 O6 2.015050 1_565
Mn8 O31 2.039167 1_555
Mn8 O16 2.126414 1_555
Mn8 O44 2.155730 1_555
Mn8 O14 2.205177 1_555
Mn9 O35 1.923281 1_555
Mn9 O7 2.015050 1_655
Mn9 O30 2.039167 1_555
Mn9 O17 2.126414 1_555
Mn9 O45 2.155730 1_555
Mn9 O15 2.205177 1_555
Mn10 O19 2.200363 1_564
Mn10 O18 2.200363 1_655
Mn10 O31 2.236013 1_555
Mn10 O30 2.236013 1_554
Mn10 O44 2.290150 1_555
Mn10 O45 2.290150 1_554
Mn11 O26 2.157862 1_655
Mn11 O54 2.161302 1_555
Mn11 O39 2.163192 1_555
Mn11 O50 2.181479 1_555
Mn11 O40 2.238280 1_555
Mn11 O46 2.745974 1_555
Mn12 O27 2.157862 1_565
Mn12 O55 2.161302 1_555
Mn12 O38 2.163192 1_555
Mn12 O51 2.181479 1_555
Mn12 O41 2.238280 1_555
Mn12 O47 2.745974 1_555
Mn13 O46 2.104779 1_555
Mn13 O47 2.104779 1_555
Mn13 O36 2.168338 1_565
Mn13 O37 2.168338 1_655
Mn13 O54 2.380234 1_555
Mn13 O55 2.380234 1_555
O0 P15 1.535740 1_445
O1 P14 1.535740 1_445
O2 P0 1.609886 1_555
O2 P2 1.628557 1_555
O3 P1 1.609886 1_555
O3 P3 1.628557 1_555
O4 P2 1.542069 1_555
O5 P3 1.542069 1_555
O6 P4 1.507087 1_555
O7 P5 1.507087 1_555
O8 P6 1.515872 1_555
O9 P7 1.515872 1_555
O10 P0 1.542909 1_555
O11 P1 1.542909 1_555
O12 P3 1.505721 1_555
O13 P2 1.505721 1_555
O14 P14 1.544958 1_455
O15 P15 1.544958 1_545
O16 P4 1.551659 1_555
O17 P5 1.551659 1_555
O18 P6 1.529678 1_555
O19 P7 1.529678 1_555
O20 P2 1.546846 1_555
O21 P3 1.546846 1_555
O22 P7 1.609883 1_554
O22 P4 1.631711 1_555
O23 P6 1.609883 1_556
O23 P5 1.631711 1_555
O24 P8 1.562728 1_555
O25 P9 1.562728 1_555
O26 P11 1.529272 1_555
O27 P10 1.529272 1_555
O28 P4 1.529272 1_555
O29 P5 1.529272 1_555
O30 P7 1.562728 1_555
O31 P6 1.562728 1_555
O32 P9 1.609883 1_555
O32 P10 1.631711 1_555
O33 P8 1.609883 1_555
O33 P11 1.631711 1_555
O34 P12 1.546846 1_555
O35 P13 1.546846 1_555
O36 P9 1.529678 1_555
O37 P8 1.529678 1_555
O38 P10 1.551659 1_555
O39 P11 1.551659 1_555
O40 P1 1.544958 1_655
O41 P0 1.544958 1_565
O42 P12 1.505721 1_555
O43 P13 1.505721 1_555
O44 P14 1.542909 1_555
O45 P15 1.542909 1_555
O46 P9 1.515872 1_555
O47 P8 1.515872 1_555
O48 P10 1.507087 1_555
O49 P11 1.507087 1_555
O50 P13 1.542069 1_555
O51 P12 1.542069 1_555
O52 P14 1.609886 1_555
O52 P12 1.628557 1_555
O53 P15 1.609886 1_555
O53 P13 1.628557 1_555
O54 P1 1.535740 1_665
O55 P0 1.535740 1_665
