# generated using pymatgen
data_Cr3Co5O16
_symmetry_space_group_name_H-M   'P 1'
_cell_length_a   5.73111569
_cell_length_b   5.73111569
_cell_length_c   8.61089600
_cell_angle_alpha   89.99904510
_cell_angle_beta   89.99904510
_cell_angle_gamma   60.34368667
_symmetry_Int_Tables_number   1
_chemical_formula_structural   Cr3Co5O16
_chemical_formula_sum   'Cr3 Co5 O16'
_cell_volume   245.78251749
_cell_formula_units_Z   1
loop_
 _symmetry_equiv_pos_site_id
 _symmetry_equiv_pos_as_xyz
  1  'x, y, z'
loop_
 _atom_site_type_symbol
 _atom_site_label
 _atom_site_symmetry_multiplicity
 _atom_site_fract_x
 _atom_site_fract_y
 _atom_site_fract_z
 _atom_site_occupancy
  Cr  Cr0  1  0.67228000  0.16845200  0.79767000  1
  Cr  Cr1  1  0.16845200  0.67228000  0.79767000  1
  Cr  Cr2  1  0.83849800  0.83849800  0.29922900  1
  Co  Co0  1  0.32926500  0.32926500  0.51292500  1
  Co  Co1  1  0.17306700  0.17306700  0.78666600  1
  Co  Co2  1  0.66476900  0.66476900  0.01836500  1
  Co  Co3  1  0.83143300  0.33984600  0.29195800  1
  Co  Co4  1  0.33984600  0.83143300  0.29195800  1
  O  O0  1  0.66224800  0.16735300  0.39471300  1
  O  O1  1  0.47146800  0.47146800  0.65628900  1
  O  O2  1  0.32765900  0.32765900  0.90548400  1
  O  O3  1  0.00879900  0.00879900  0.68260900  1
  O  O4  1  0.00865200  0.00865200  0.18377400  1
  O  O5  1  0.16735300  0.66224800  0.39471300  1
  O  O6  1  0.47338000  0.04436500  0.65536000  1
  O  O7  1  0.04436500  0.47338000  0.65536000  1
  O  O8  1  0.82489100  0.82489100  0.89125300  1
  O  O9  1  0.16829000  0.16829000  0.39675500  1
  O  O10  1  0.95196000  0.52172900  0.15853800  1
  O  O11  1  0.52172900  0.95196000  0.15853800  1
  O  O12  1  0.66045700  0.66045700  0.40203000  1
  O  O13  1  0.82793700  0.34025800  0.89771300  1
  O  O14  1  0.52111700  0.52111700  0.16123300  1
  O  O15  1  0.34025800  0.82793700  0.89771300  1
loop_
_geom_bond_atom_site_label_1
_geom_bond_atom_site_label_2
_geom_bond_distance
_geom_bond_site_symmetry_2
Cr0 O13 1.837593 1_555
Cr0 O8 1.893942 1_545
Cr0 O3 1.947335 1_655
Cr0 O2 1.952408 1_555
Cr0 O1 1.960768 1_555
Cr0 O6 2.027093 1_555
Cr1 O15 1.837593 1_555
Cr1 O8 1.893942 1_455
Cr1 O3 1.947335 1_565
Cr1 O2 1.952408 1_555
Cr1 O1 1.960768 1_555
Cr1 O7 2.027093 1_555
Cr2 O0 1.834266 1_565
Cr2 O5 1.834266 1_655
Cr2 O4 1.957370 1_665
Cr2 O12 1.973876 1_555
Cr2 O10 2.004534 1_555
Cr2 O11 2.004534 1_555
Co0 O1 1.873423 1_555
Co0 O6 1.875605 1_555
Co0 O7 1.875605 1_555
Co0 O9 1.882882 1_555
Co0 O0 1.945924 1_555
Co0 O5 1.945924 1_555
Co1 O2 1.842170 1_555
Co1 O3 1.858121 1_555
Co1 O6 1.878405 1_555
Co1 O7 1.878405 1_555
Co1 O13 1.967051 1_455
Co1 O15 1.967051 1_545
Co2 O10 1.871570 1_555
Co2 O11 1.871570 1_555
Co2 O14 1.881415 1_555
Co2 O15 1.921377 1_554
Co2 O13 1.921377 1_554
Co2 O8 1.927590 1_554
Co3 O12 1.858240 1_555
Co3 O4 1.895904 1_655
Co3 O10 1.896337 1_555
Co3 O9 1.905187 1_655
Co3 O0 1.910196 1_555
Co3 O14 1.918579 1_555
Co4 O12 1.858240 1_555
Co4 O4 1.895904 1_565
Co4 O11 1.896337 1_555
Co4 O9 1.905187 1_565
Co4 O5 1.910196 1_555
Co4 O14 1.918579 1_555
