# generated using pymatgen
data_CrH10S2(NO2)4
_symmetry_space_group_name_H-M   'P 1'
_cell_length_a   5.56835728
_cell_length_b   9.48403288
_cell_length_c   9.27348041
_cell_angle_alpha   103.68660985
_cell_angle_beta   105.10777534
_cell_angle_gamma   84.68051492
_symmetry_Int_Tables_number   1
_chemical_formula_structural   CrH10S2(NO2)4
_chemical_formula_sum   'Cr2 H20 S4 N8 O16'
_cell_volume   459.13304197
_cell_formula_units_Z   2
loop_
 _symmetry_equiv_pos_site_id
 _symmetry_equiv_pos_as_xyz
  1  'x, y, z'
loop_
 _atom_site_type_symbol
 _atom_site_label
 _atom_site_symmetry_multiplicity
 _atom_site_fract_x
 _atom_site_fract_y
 _atom_site_fract_z
 _atom_site_occupancy
  Cr  Cr0  1  0.00017800  0.49982100  0.49993700  1
  Cr  Cr1  1  0.00014900  0.00023800  0.00011600  1
  H  H0  1  0.91945700  0.21325200  0.48802000  1
  H  H1  1  0.91939500  0.71334700  0.98804200  1
  H  H2  1  0.08057900  0.78672500  0.51196500  1
  H  H3  1  0.08053100  0.28679500  0.01197500  1
  H  H4  1  0.25246800  0.19221500  0.36739400  1
  H  H5  1  0.25239500  0.69224800  0.86740500  1
  H  H6  1  0.74754900  0.80774400  0.63258300  1
  H  H7  1  0.74748600  0.30776300  0.13259400  1
  H  H8  1  0.44252300  0.25376100  0.54435200  1
  H  H9  1  0.44247000  0.75379500  0.04435400  1
  H  H10  1  0.55753200  0.74617700  0.45561700  1
  H  H11  1  0.55748000  0.24619600  0.95561500  1
  H  H12  1  0.11601500  0.27647000  0.65207200  1
  H  H13  1  0.11595100  0.77653900  0.15208700  1
  H  H14  1  0.88406900  0.72342000  0.34792900  1
  H  H15  1  0.88401000  0.22347400  0.84793500  1
  H  H16  1  0.29515800  0.09368600  0.50582500  1
  H  H17  1  0.29506800  0.59374000  0.00584400  1
  H  H18  1  0.70487800  0.90625800  0.49414700  1
  H  H19  1  0.70481000  0.40629400  0.99416500  1
  S  S0  1  0.65568900  0.01015900  0.23804000  1
  S  S1  1  0.65569700  0.51014600  0.73805700  1
  S  S2  1  0.34429600  0.98984800  0.76195700  1
  S  S3  1  0.34430700  0.48985400  0.26195100  1
  N  N0  1  0.27867100  0.19814500  0.48300700  1
  N  N1  1  0.27860200  0.69818800  0.98303500  1
  N  N2  1  0.72137300  0.80180300  0.51696700  1
  N  N3  1  0.72131300  0.30183300  0.01697200  1
  N  N4  1  0.07287800  0.27832600  0.53755900  1
  N  N5  1  0.07282100  0.77842700  0.03758100  1
  N  N6  1  0.92721100  0.72159700  0.46244100  1
  N  N7  1  0.92715300  0.22167700  0.96245200  1
  O  O0  1  0.85562000  0.07458900  0.19155300  1
  O  O1  1  0.85562700  0.57456300  0.69156100  1
  O  O2  1  0.14432100  0.92543700  0.80843400  1
  O  O3  1  0.14437600  0.42542400  0.30844000  1
  O  O4  1  0.40743100  0.06916200  0.17032100  1
  O  O5  1  0.40743400  0.56912700  0.67032800  1
  O  O6  1  0.59252600  0.93086700  0.82969400  1
  O  O7  1  0.59256100  0.43086700  0.32967900  1
  O  O8  1  0.71009600  0.05253000  0.40906400  1
  O  O9  1  0.71010400  0.55253700  0.90908200  1
  O  O10  1  0.28989100  0.94747000  0.59092800  1
  O  O11  1  0.28988700  0.44746800  0.09092700  1
  O  O12  1  0.67176900  0.84880500  0.18761400  1
  O  O13  1  0.67177600  0.34879500  0.68764000  1
  O  O14  1  0.32820600  0.15120500  0.81237100  1
  O  O15  1  0.32821300  0.65119300  0.31237200  1
loop_
_geom_bond_atom_site_label_1
_geom_bond_atom_site_label_2
_geom_bond_distance
_geom_bond_site_symmetry_2
Cr0 O3 2.083621 1_555
Cr0 O1 2.086114 1_455
Cr0 N4 2.194065 1_555
Cr0 N6 2.196358 1_455
Cr0 O5 2.447142 1_555
Cr0 O7 2.447626 1_455
Cr1 O0 2.084154 1_455
Cr1 O2 2.085425 1_544
Cr1 N7 2.193767 1_454
Cr1 N5 2.196496 1_545
Cr1 O4 2.445940 1_555
Cr1 O6 2.448966 1_444
H0 N4 1.039607 1_655
H1 N5 1.039660 1_656
H2 N6 1.039659 1_455
H3 N7 1.039647 1_454
H4 N0 1.032167 1_555
H5 N1 1.032303 1_555
H6 N2 1.032195 1_555
H7 N3 1.032270 1_555
H8 N0 1.054025 1_555
H8 O13 1.723366 1_555
H9 N1 1.054008 1_554
H9 O12 1.723306 1_555
H10 N2 1.054030 1_555
H10 O15 1.723207 1_555
H11 N3 1.054055 1_556
H11 O14 1.723082 1_555
H12 N4 1.029955 1_555
H13 N5 1.029966 1_555
H14 N6 1.029870 1_555
H15 N7 1.029856 1_555
H16 N0 1.052088 1_555
H17 N1 1.051958 1_554
H18 N2 1.052055 1_555
H19 N3 1.052061 1_556
O0 S0 1.516447 1_555
O1 S1 1.516424 1_555
O2 S2 1.516505 1_555
O3 S3 1.516458 1_555
O4 S0 1.479474 1_555
O5 S1 1.479439 1_555
O6 S2 1.479314 1_555
O7 S3 1.479420 1_555
O8 S0 1.496374 1_555
O9 S1 1.496390 1_555
O10 S2 1.496421 1_555
O11 S3 1.496376 1_555
O12 S0 1.492062 1_565
O13 S1 1.492028 1_555
O14 S2 1.492082 1_545
O15 S3 1.491927 1_555
