# generated using pymatgen
data_Li10Zn3(GeO4)4
_symmetry_space_group_name_H-M   'P 1'
_cell_length_a   5.37419000
_cell_length_b   6.49135798
_cell_length_c   11.05642419
_cell_angle_alpha   91.97588643
_cell_angle_beta   91.86255598
_cell_angle_gamma   91.49985041
_symmetry_Int_Tables_number   1
_chemical_formula_structural   Li10Zn3(GeO4)4
_chemical_formula_sum   'Li10 Zn3 Ge4 O16'
_cell_volume   385.13523987
_cell_formula_units_Z   1
loop_
 _symmetry_equiv_pos_site_id
 _symmetry_equiv_pos_as_xyz
  1  'x, y, z'
loop_
 _atom_site_type_symbol
 _atom_site_label
 _atom_site_symmetry_multiplicity
 _atom_site_fract_x
 _atom_site_fract_y
 _atom_site_fract_z
 _atom_site_occupancy
  Li  Li0  1  0.35213000  0.74285600  0.92171400  1
  Li  Li1  1  0.85339700  0.54686800  0.82514100  1
  Li  Li2  1  0.82731800  0.26414500  0.56801200  1
  Li  Li3  1  0.17634200  0.92590400  0.50978000  1
  Li  Li4  1  0.82670800  0.03494100  0.34289600  1
  Li  Li5  1  0.39031100  0.94804300  0.18554600  1
  Li  Li6  1  0.07583700  0.20172700  0.19752200  1
  Li  Li7  1  0.37488900  0.54313600  0.16909200  1
  Li  Li8  1  0.63319600  0.25727500  0.06474500  1
  Li  Li9  1  0.01098900  0.47449900  0.05505200  1
  Zn  Zn0  1  0.68016000  0.02849900  0.81973600  1
  Zn  Zn1  1  0.22503600  0.49621000  0.65550200  1
  Zn  Zn2  1  0.85167100  0.54816100  0.33468100  1
  Ge  Ge0  1  0.18884000  0.23939600  0.90737700  1
  Ge  Ge1  1  0.70753100  0.76221300  0.58228800  1
  Ge  Ge2  1  0.33987600  0.27556700  0.39992300  1
  Ge  Ge3  1  0.85197600  0.80863600  0.08117000  1
  O  O0  1  0.73285000  0.77714800  0.92920800  1
  O  O1  1  0.85276800  0.26244400  0.92030400  1
  O  O2  1  0.31632700  0.01605700  0.84864500  1
  O  O3  1  0.24920600  0.47710900  0.83475100  1
  O  O4  1  0.84493900  0.54672500  0.65213700  1
  O  O5  1  0.78813800  0.00463900  0.65590800  1
  O  O6  1  0.38268200  0.72005200  0.57394800  1
  O  O7  1  0.21714000  0.24662200  0.54582900  1
  O  O8  1  0.67224800  0.29880500  0.40028500  1
  O  O9  1  0.83685100  0.79669100  0.43745000  1
  O  O10  1  0.22732500  0.04262500  0.32349900  1
  O  O11  1  0.19437800  0.45844300  0.30472200  1
  O  O12  1  0.73364900  0.57494000  0.15381100  1
  O  O13  1  0.75344300  0.03020000  0.16176200  1
  O  O14  1  0.17696400  0.75562800  0.08242800  1
  O  O15  1  0.27931600  0.28400800  0.06510800  1
loop_
_geom_bond_atom_site_label_1
_geom_bond_atom_site_label_2
_geom_bond_distance
_geom_bond_site_symmetry_2
Li0 O2 1.985286 1_565
Li0 O3 2.001841 1_555
Li0 O14 2.037934 1_556
Li0 O0 2.051012 1_555
Li1 O4 1.911836 1_555
Li1 O0 1.989639 1_555
Li1 O1 2.156325 1_555
Li1 O3 2.186361 1_655
Li2 O5 1.983451 1_555
Li2 O4 2.026421 1_555
Li2 O8 2.030342 1_555
Li2 O7 2.122728 1_655
Li3 O6 1.900110 1_555
Li3 O9 2.109649 1_455
Li3 O7 2.110551 1_565
Li3 O10 2.241547 1_565
Li4 O9 1.897356 1_545
Li4 O8 2.014747 1_555
Li4 O13 2.027466 1_555
Li4 O10 2.170020 1_655
Li5 O10 1.876445 1_565
Li5 O14 1.978997 1_555
Li5 O13 2.037309 1_565
Li6 O10 1.933649 1_555
Li6 O15 1.936978 1_555
Li6 O13 2.054782 1_455
Li6 O11 2.084901 1_555
Li7 O11 1.901470 1_555
Li7 O12 1.947117 1_555
Li7 O14 2.013429 1_555
Li7 O15 2.048919 1_555
Li8 O15 1.914358 1_555
Li8 O13 1.963365 1_555
Li8 O1 2.016956 1_554
Li8 O12 2.297929 1_555
Li9 O15 1.926990 1_555
Li9 O12 1.986578 1_455
Li9 O14 2.019081 1_555
Li9 O1 2.133637 1_454
Ge0 O2 1.734628 1_555
Ge0 O3 1.790893 1_555
Ge0 O15 1.806737 1_556
Ge0 O1 1.826010 1_455
Ge1 O6 1.758979 1_555
Ge1 O5 1.783178 1_565
Ge1 O9 1.785069 1_555
Ge1 O4 1.786029 1_555
Ge2 O7 1.776620 1_555
Ge2 O10 1.788049 1_555
Ge2 O8 1.788513 1_555
Ge2 O11 1.791604 1_555
Ge3 O13 1.767803 1_565
Ge3 O0 1.781605 1_554
Ge3 O14 1.788640 1_655
Ge3 O12 1.848635 1_555
O0 Zn0 2.084565 1_565
O1 Zn0 2.036134 1_555
O2 Zn0 1.991495 1_555
O3 Zn1 1.990237 1_555
O4 Zn1 2.076669 1_655
O5 Zn0 1.922345 1_555
O6 Zn1 1.928139 1_555
O7 Zn1 1.988641 1_555
O8 Zn2 2.029948 1_555
O9 Zn2 1.945856 1_555
O11 Zn2 1.980790 1_455
O12 Zn2 2.092585 1_555
