# generated using pymatgen
data_Al2O3
_symmetry_space_group_name_H-M   'P 1'
_cell_length_a   2.91370900
_cell_length_b   7.11443800
_cell_length_c   13.84234094
_cell_angle_alpha   77.12232720
_cell_angle_beta   90.00000000
_cell_angle_gamma   90.00000000
_symmetry_Int_Tables_number   1
_chemical_formula_structural   Al2O3
_chemical_formula_sum   'Al12 O18'
_cell_volume   279.72628229
_cell_formula_units_Z   6
loop_
 _symmetry_equiv_pos_site_id
 _symmetry_equiv_pos_as_xyz
  1  'x, y, z'
loop_
 _atom_site_type_symbol
 _atom_site_label
 _atom_site_symmetry_multiplicity
 _atom_site_fract_x
 _atom_site_fract_y
 _atom_site_fract_z
 _atom_site_occupancy
  Al  Al0  1  0.25000000  0.82609800  0.02784400  1
  Al  Al1  1  0.25000000  0.43827000  0.11274300  1
  Al  Al2  1  0.75000000  0.80237900  0.21273300  1
  Al  Al3  1  0.75000000  0.18683000  0.29761200  1
  Al  Al4  1  0.25000000  0.46666000  0.41226600  1
  Al  Al5  1  0.25000000  0.84866400  0.39757000  1
  Al  Al6  1  0.75000000  0.15133600  0.60243000  1
  Al  Al7  1  0.75000000  0.53334000  0.58773400  1
  Al  Al8  1  0.25000000  0.81317000  0.70238800  1
  Al  Al9  1  0.25000000  0.19762100  0.78726700  1
  Al  Al10  1  0.75000000  0.56173000  0.88725700  1
  Al  Al11  1  0.75000000  0.17390200  0.97215600  1
  O  O0  1  0.75000000  0.65790000  0.00208400  1
  O  O1  1  0.75000000  0.31469700  0.16777700  1
  O  O2  1  0.75000000  0.95897100  0.07765000  1
  O  O3  1  0.25000000  0.66704600  0.16030200  1
  O  O4  1  0.25000000  0.30512900  0.32984500  1
  O  O5  1  0.25000000  0.94541800  0.25679800  1
  O  O6  1  0.75000000  0.64223700  0.34500800  1
  O  O7  1  0.75000000  0.98673800  0.40677300  1
  O  O8  1  0.75000000  0.35390400  0.49561600  1
  O  O9  1  0.25000000  0.64609600  0.50438400  1
  O  O10  1  0.25000000  0.01326200  0.59322700  1
  O  O11  1  0.25000000  0.35776300  0.65499200  1
  O  O12  1  0.75000000  0.05458200  0.74320200  1
  O  O13  1  0.75000000  0.69487100  0.67015500  1
  O  O14  1  0.75000000  0.33295400  0.83969800  1
  O  O15  1  0.25000000  0.04102900  0.92235000  1
  O  O16  1  0.25000000  0.68530300  0.83222300  1
  O  O17  1  0.25000000  0.34210000  0.99791600  1
loop_
_geom_bond_atom_site_label_1
_geom_bond_atom_site_label_2
_geom_bond_distance
_geom_bond_site_symmetry_2
Al0 O15 1.864217 1_564
Al0 O3 1.928073 1_555
Al0 O2 1.944702 1_455
Al0 O2 1.944702 1_555
Al0 O0 1.967664 1_555
Al0 O0 1.967664 1_455
Al1 O1 1.782454 1_455
Al1 O1 1.782454 1_555
Al1 O17 1.865288 1_554
Al1 O3 1.886831 1_555
Al1 O0 2.417323 1_455
Al1 O0 2.417323 1_555
Al2 O6 1.928922 1_555
Al2 O5 1.951091 1_655
Al2 O5 1.951091 1_555
Al2 O2 1.951663 1_555
Al2 O3 1.971715 1_555
Al2 O3 1.971715 1_655
Al3 O4 1.788080 1_555
Al3 O4 1.788080 1_655
Al3 O1 1.824500 1_555
Al3 O7 1.830552 1_545
Al3 O5 2.413289 1_545
Al3 O5 2.413289 1_645
Al4 O4 1.790737 1_555
Al4 O8 1.919519 1_455
Al4 O8 1.919519 1_555
Al4 O9 1.995296 1_555
Al4 O6 2.007774 1_455
Al4 O6 2.007774 1_555
Al5 O7 1.777465 1_555
Al5 O7 1.777465 1_455
Al5 O9 1.820237 1_555
Al5 O5 1.916517 1_555
Al5 O6 2.298893 1_455
Al5 O6 2.298893 1_555
Al6 O10 1.777465 1_555
Al6 O10 1.777465 1_655
Al6 O8 1.820237 1_555
Al6 O12 1.916517 1_555
Al6 O11 2.298893 1_555
Al6 O11 2.298893 1_655
Al7 O13 1.790737 1_555
Al7 O9 1.919519 1_555
Al7 O9 1.919519 1_655
Al7 O8 1.995296 1_555
Al7 O11 2.007774 1_555
Al7 O11 2.007774 1_655
Al8 O13 1.788080 1_455
Al8 O13 1.788080 1_555
Al8 O16 1.824500 1_555
Al8 O10 1.830552 1_565
Al8 O12 2.413289 1_565
Al8 O12 2.413289 1_465
Al9 O11 1.928922 1_555
Al9 O12 1.951091 1_555
Al9 O12 1.951091 1_455
Al9 O15 1.951663 1_555
Al9 O14 1.971715 1_455
Al9 O14 1.971715 1_555
Al10 O16 1.782454 1_555
Al10 O16 1.782454 1_655
Al10 O0 1.865288 1_556
Al10 O14 1.886831 1_555
Al10 O17 2.417323 1_555
Al10 O17 2.417323 1_655
Al11 O2 1.864217 1_546
Al11 O14 1.928073 1_555
Al11 O15 1.944702 1_555
Al11 O15 1.944702 1_655
Al11 O17 1.967664 1_555
Al11 O17 1.967664 1_655
