# generated using pymatgen
data_U(MoO4)2
_symmetry_space_group_name_H-M   'P 1'
_cell_length_a   17.73976239
_cell_length_b   17.73976239
_cell_length_c   6.21900000
_cell_angle_alpha   90.00000000
_cell_angle_beta   90.00000000
_cell_angle_gamma   120.00000146
_symmetry_Int_Tables_number   1
_chemical_formula_structural   U(MoO4)2
_chemical_formula_sum   'U9 Mo18 O72'
_cell_volume   1694.91053517
_cell_formula_units_Z   9
loop_
 _symmetry_equiv_pos_site_id
 _symmetry_equiv_pos_as_xyz
  1  'x, y, z'
loop_
 _atom_site_type_symbol
 _atom_site_label
 _atom_site_symmetry_multiplicity
 _atom_site_fract_x
 _atom_site_fract_y
 _atom_site_fract_z
 _atom_site_occupancy
  U  U0  1  0.33412900  0.33357600  0.75041800  1
  U  U1  1  0.66666700  0.33333300  0.00996600  1
  U  U2  1  0.33134800  0.99734300  0.26118600  1
  U  U3  1  0.66599500  0.66865200  0.26118600  1
  U  U4  1  0.99944600  0.66587100  0.75041800  1
  U  U5  1  0.00265700  0.33400500  0.26118600  1
  U  U6  1  0.00000000  0.00000000  0.00487200  1
  U  U7  1  0.33333300  0.66666700  0.52880700  1
  U  U8  1  0.66642400  0.00055400  0.75041800  1
  Mo  Mo0  1  0.93207900  0.77127400  0.25090000  1
  Mo  Mo1  1  0.50517400  0.40435400  0.25315100  1
  Mo  Mo2  1  0.56077100  0.82938300  0.25450400  1
  Mo  Mo3  1  0.26861200  0.43922900  0.25450400  1
  Mo  Mo4  1  0.49473700  0.60258000  0.75121900  1
  Mo  Mo5  1  0.59564600  0.10081900  0.25315100  1
  Mo  Mo6  1  0.39742000  0.89215700  0.75121900  1
  Mo  Mo7  1  0.16028900  0.93047100  0.76185800  1
  Mo  Mo8  1  0.89918100  0.49482600  0.25315100  1
  Mo  Mo9  1  0.06952900  0.22981800  0.76185800  1
  Mo  Mo10  1  0.73153300  0.56154600  0.76663300  1
  Mo  Mo11  1  0.77018200  0.83971100  0.76185800  1
  Mo  Mo12  1  0.22872600  0.16080400  0.25090000  1
  Mo  Mo13  1  0.10784300  0.50526300  0.75121900  1
  Mo  Mo14  1  0.43845400  0.16998700  0.76663300  1
  Mo  Mo15  1  0.17061700  0.73138800  0.25450400  1
  Mo  Mo16  1  0.83919600  0.06792100  0.25090000  1
  Mo  Mo17  1  0.83001300  0.26846700  0.76663300  1
  O  O0  1  0.41705400  0.10703900  0.52541300  1
  O  O1  1  0.51167000  0.95993900  0.73220500  1
  O  O2  1  0.68998500  0.58294600  0.52541300  1
  O  O3  1  0.59833300  0.91086000  0.46054400  1
  O  O4  1  0.75245400  0.77631800  0.52216700  1
  O  O5  1  0.11681700  0.81603600  0.75947800  1
  O  O6  1  0.04184500  0.11503200  0.79769000  1
  O  O7  1  0.88367900  0.18230300  0.25193200  1
  O  O8  1  0.64735100  0.08990100  0.48955800  1
  O  O9  1  0.76519800  0.02128100  0.02975700  1
  O  O10  1  0.81769700  0.70137700  0.25193200  1
  O  O11  1  0.31252700  0.40166700  0.46054400  1
  O  O12  1  0.22368200  0.97613600  0.52216700  1
  O  O13  1  0.63356400  0.06713300  0.02592500  1
  O  O14  1  0.44714600  0.74554400  0.32675400  1
  O  O15  1  0.69977000  0.44554800  0.80093000  1
  O  O16  1  0.92718000  0.04155600  0.21300500  1
  O  O17  1  0.37307200  0.21963000  0.77208000  1
  O  O18  1  0.96905100  0.45053000  0.27175600  1
  O  O19  1  0.23163300  0.97542400  0.98702600  1
  O  O20  1  0.68574900  0.58898200  0.98879600  1
  O  O21  1  0.77972600  0.02498300  0.49583200  1
  O  O22  1  0.89296100  0.31001500  0.52541300  1
  O  O23  1  0.15416100  0.36959000  0.24938500  1
  O  O24  1  0.56320800  0.65149600  0.52114200  1
  O  O25  1  0.84655800  0.62692800  0.77208000  1
  O  O26  1  0.44255000  0.35264900  0.48955800  1
  O  O27  1  0.54947000  0.51852100  0.27175600  1
  O  O28  1  0.56947200  0.88203400  0.00365900  1
  O  O29  1  0.97501700  0.75474300  0.49583200  1
  O  O30  1  0.36744700  0.77612100  0.74620800  1
  O  O31  1  0.21542900  0.84583900  0.24938500  1
  O  O32  1  0.74577800  0.30023000  0.80093000  1
  O  O33  1  0.56032900  0.64363300  0.98777000  1
  O  O34  1  0.22387900  0.59132500  0.74620800  1
  O  O35  1  0.02457600  0.25620900  0.98702600  1
  O  O36  1  0.40867500  0.63255300  0.74620800  1
  O  O37  1  0.02386400  0.24754600  0.52216700  1
  O  O38  1  0.59138100  0.37587100  0.20790000  1
  O  O39  1  0.63041000  0.78457100  0.24938500  1
  O  O40  1  0.08330500  0.43967100  0.98777000  1
  O  O41  1  0.90323300  0.31425100  0.98879600  1
  O  O42  1  0.41101800  0.09676700  0.98879600  1
  O  O43  1  0.11796600  0.68743800  0.00365900  1
  O  O44  1  0.62412900  0.21551100  0.20790000  1
  O  O45  1  0.25445600  0.70160200  0.32675400  1
  O  O46  1  0.48147900  0.03094900  0.27175600  1
  O  O47  1  0.43356800  0.36643600  0.02592500  1
  O  O48  1  0.88496800  0.92681300  0.79769000  1
  O  O49  1  0.04006100  0.55173100  0.73220500  1
  O  O50  1  0.97871900  0.74391700  0.02975700  1
  O  O51  1  0.31256200  0.43052800  0.00365900  1
  O  O52  1  0.34850400  0.91171200  0.52114200  1
  O  O53  1  0.35636700  0.91669500  0.98777000  1
  O  O54  1  0.93286700  0.56643200  0.02592500  1
  O  O55  1  0.55445200  0.25422200  0.80093000  1
  O  O56  1  0.11437500  0.07282000  0.21300500  1
  O  O57  1  0.25608300  0.23480200  0.02975700  1
  O  O58  1  0.91009900  0.55745000  0.48955800  1
  O  O59  1  0.95844400  0.88562500  0.21300500  1
  O  O60  1  0.69921900  0.88318300  0.75947800  1
  O  O61  1  0.07318700  0.95815500  0.79769000  1
  O  O62  1  0.78037000  0.15344200  0.77208000  1
  O  O63  1  0.08914000  0.68747300  0.46054400  1
  O  O64  1  0.29862300  0.11632100  0.25193200  1
  O  O65  1  0.44826900  0.48833000  0.73220500  1
  O  O66  1  0.29839800  0.55285400  0.32675400  1
  O  O67  1  0.78448900  0.40861900  0.20790000  1
  O  O68  1  0.08828800  0.43679200  0.52114200  1
  O  O69  1  0.24525700  0.22027400  0.49583200  1
  O  O70  1  0.74379100  0.76836700  0.98702600  1
  O  O71  1  0.18396400  0.30078100  0.75947800  1
loop_
_geom_bond_atom_site_label_1
_geom_bond_atom_site_label_2
_geom_bond_distance
_geom_bond_site_symmetry_2
Mo0 O10 1.771669 1_555
Mo0 O29 1.791595 1_555
Mo0 O50 1.792495 1_555
Mo0 O59 1.854877 1_555
Mo1 O27 1.772347 1_555
Mo1 O47 1.791231 1_555
Mo1 O26 1.793890 1_555
Mo1 O38 1.856330 1_555
Mo2 O39 1.772342 1_555
Mo2 O28 1.784841 1_555
Mo2 O3 1.792181 1_555
Mo2 O14 1.865203 1_555
Mo3 O23 1.772342 1_555
Mo3 O51 1.784841 1_555
Mo3 O11 1.792181 1_555
Mo3 O66 1.865203 1_555
Mo4 O65 1.769340 1_555
Mo4 O33 1.789154 1_555
Mo4 O24 1.794909 1_555
Mo4 O36 1.851038 1_555
Mo5 O46 1.772345 1_555
Mo5 O13 1.791212 1_555
Mo5 O8 1.793883 1_555
Mo5 O44 1.856364 1_555
Mo6 O1 1.769340 1_555
Mo6 O53 1.789146 1_555
Mo6 O52 1.794909 1_555
Mo6 O30 1.851055 1_555
Mo7 O5 1.774966 1_555
Mo7 O19 1.785878 1_555
Mo7 O12 1.797752 1_555
Mo7 O61 1.853978 1_555
Mo8 O18 1.772331 1_555
Mo8 O54 1.791231 1_555
Mo8 O58 1.793893 1_555
Mo8 O67 1.856354 1_555
Mo9 O71 1.774966 1_555
Mo9 O35 1.785878 1_555
Mo9 O37 1.797752 1_555
Mo9 O6 1.853978 1_555
Mo10 O25 1.772968 1_555
Mo10 O20 1.789066 1_555
Mo10 O2 1.793771 1_555
Mo10 O15 1.854169 1_555
Mo11 O60 1.774966 1_555
Mo11 O70 1.785878 1_555
Mo11 O4 1.797752 1_555
Mo11 O48 1.853978 1_555
Mo12 O64 1.771641 1_555
Mo12 O69 1.791604 1_555
Mo12 O57 1.792505 1_555
Mo12 O56 1.854867 1_555
Mo13 O49 1.769340 1_555
Mo13 O40 1.789156 1_555
Mo13 O68 1.794909 1_555
Mo13 O34 1.851050 1_555
Mo14 O17 1.772968 1_555
Mo14 O42 1.789066 1_555
Mo14 O0 1.793771 1_555
Mo14 O55 1.854169 1_555
Mo15 O31 1.772342 1_555
Mo15 O43 1.784841 1_555
Mo15 O63 1.792181 1_555
Mo15 O45 1.865203 1_555
Mo16 O7 1.771673 1_555
Mo16 O21 1.791602 1_555
Mo16 O9 1.792503 1_555
Mo16 O16 1.854843 1_555
Mo17 O62 1.772968 1_555
Mo17 O41 1.789066 1_555
Mo17 O22 1.793771 1_555
Mo17 O32 1.854170 1_555
O0 U2 2.416607 1_545
O1 U8 2.467920 1_565
O2 U3 2.416607 1_555
O3 U8 2.306224 1_565
O4 U3 2.388563 1_555
O5 U4 2.426560 1_455
O6 U6 2.204674 1_556
O7 U5 2.453646 1_655
O8 U8 2.407237 1_555
O9 U8 2.362015 1_554
O10 U3 2.453641 1_555
O11 U0 2.306216 1_555
O12 U2 2.388563 1_555
O13 U8 2.314941 1_554
O14 U7 2.188192 1_555
O15 U1 2.197406 1_556
O16 U6 2.199990 1_655
O17 U0 2.444956 1_555
O18 U5 2.421793 1_655
O19 U2 2.345097 1_556
O20 U3 2.342047 1_556
O21 U8 2.421448 1_555
O22 U5 2.416607 1_655
O23 U5 2.435302 1_555
O24 U3 2.340115 1_555
O25 U4 2.444939 1_555
O26 U0 2.407250 1_555
O27 U3 2.421793 1_555
O28 U8 2.498569 1_564
O29 U4 2.421435 1_555
O30 U7 2.188442 1_555
O31 U2 2.435302 1_555
O32 U1 2.197393 1_556
O33 U3 2.402085 1_556
O34 U7 2.188448 1_555
O35 U5 2.345097 1_556
O36 U7 2.188468 1_555
O37 U5 2.388563 1_555
O38 U1 2.208217 1_555
O39 U3 2.435302 1_555
O40 U5 2.402089 1_556
O41 U5 2.342047 1_656
O42 U2 2.342047 1_546
O43 U4 2.498574 1_454
O44 U1 2.208189 1_555
O45 U7 2.188182 1_555
O46 U2 2.421793 1_545
O47 U0 2.314941 1_554
O48 U6 2.204674 1_666
O49 U4 2.467937 1_455
O50 U4 2.362003 1_554
O51 U0 2.498561 1_554
O52 U2 2.340115 1_555
O53 U2 2.402097 1_556
O54 U4 2.314941 1_554
O55 U1 2.197403 1_556
O56 U6 2.199979 1_555
O57 U0 2.362011 1_554
O58 U4 2.407246 1_555
O59 U6 2.199977 1_665
O60 U8 2.426572 1_565
O61 U6 2.204674 1_566
O62 U8 2.444944 1_555
O63 U4 2.306227 1_455
O64 U2 2.453658 1_545
O65 U0 2.467925 1_555
O66 U7 2.188196 1_555
O67 U1 2.208194 1_555
O68 U5 2.340115 1_555
O69 U0 2.421444 1_555
O70 U3 2.345097 1_556
O71 U0 2.426555 1_555
