# generated using pymatgen
data_Nd2NiO4
_symmetry_space_group_name_H-M   'P 1'
_cell_length_a   3.93006086
_cell_length_b   6.82410180
_cell_length_c   3.94917947
_cell_angle_alpha   73.04021665
_cell_angle_beta   89.99896700
_cell_angle_gamma   106.59871204
_symmetry_Int_Tables_number   1
_chemical_formula_structural   Nd2NiO4
_chemical_formula_sum   'Nd2 Ni1 O4'
_cell_volume   96.68362931
_cell_formula_units_Z   1
loop_
 _symmetry_equiv_pos_site_id
 _symmetry_equiv_pos_as_xyz
  1  'x, y, z'
loop_
 _atom_site_type_symbol
 _atom_site_label
 _atom_site_symmetry_multiplicity
 _atom_site_fract_x
 _atom_site_fract_y
 _atom_site_fract_z
 _atom_site_occupancy
  Nd  Nd0  1  0.64825700  0.30188000  0.34958500  1
  Nd  Nd1  1  0.34711300  0.70219600  0.64768900  1
  Ni  Ni0  1  0.99665100  0.00092300  0.99771600  1
  O  O0  1  0.49665000  0.00160200  0.99467500  1
  O  O1  1  0.74707100  0.50047500  0.74901900  1
  O  O2  1  0.99512400  0.00096800  0.49711000  1
  O  O3  1  0.24788200  0.50330600  0.24799300  1
loop_
_geom_bond_atom_site_label_1
_geom_bond_atom_site_label_2
_geom_bond_distance
_geom_bond_site_symmetry_2
Nd0 O1 2.328582 1_555
Nd0 O3 2.330516 1_655
Nd0 O1 2.331674 1_554
Nd0 O3 2.332436 1_555
Nd0 O0 2.702024 1_555
Nd0 O2 2.704781 1_555
Nd0 O2 2.726789 1_455
Nd0 O0 2.737967 1_554
Nd1 O3 2.330933 1_555
Nd1 O3 2.331276 1_556
Nd1 O1 2.332403 1_455
Nd1 O1 2.332529 1_555
Nd1 O2 2.705986 1_565
Nd1 O2 2.707076 1_465
Nd1 O0 2.710184 1_565
Nd1 O0 2.722213 1_564
Ni0 O0 1.963736 1_655
Ni0 O0 1.966392 1_555
Ni0 O2 1.972295 1_556
Ni0 O2 1.976903 1_555
