# generated using pymatgen
data_NaSr9Fe5(MoO6)5
_symmetry_space_group_name_H-M   'P 1'
_cell_length_a   20.57466765
_cell_length_b   20.57466765
_cell_length_c   5.63027624
_cell_angle_alpha   82.13227003
_cell_angle_beta   82.13227003
_cell_angle_gamma   157.67394828
_symmetry_Int_Tables_number   1
_chemical_formula_structural   NaSr9Fe5(MoO6)5
_chemical_formula_sum   'Na1 Sr9 Fe5 Mo5 O30'
_cell_volume   640.25836319
_cell_formula_units_Z   1
loop_
 _symmetry_equiv_pos_site_id
 _symmetry_equiv_pos_as_xyz
  1  'x, y, z'
loop_
 _atom_site_type_symbol
 _atom_site_label
 _atom_site_symmetry_multiplicity
 _atom_site_fract_x
 _atom_site_fract_y
 _atom_site_fract_z
 _atom_site_occupancy
  Na  Na0  1  0.44923300  0.55076700  0.00000000  1
  Sr  Sr0  1  0.94848500  0.05151500  0.00000000  1
  Sr  Sr1  1  0.35131800  0.64868200  0.00000000  1
  Sr  Sr2  1  0.75037500  0.24962500  0.00000000  1
  Sr  Sr3  1  0.85054600  0.14945400  0.00000000  1
  Sr  Sr4  1  0.15008800  0.84991200  0.00000000  1
  Sr  Sr5  1  0.25042500  0.74957500  0.00000000  1
  Sr  Sr6  1  0.54954600  0.45045400  0.00000000  1
  Sr  Sr7  1  0.65002000  0.34998000  0.00000000  1
  Sr  Sr8  1  0.04963700  0.95036300  0.00000000  1
  Fe  Fe0  1  0.40243300  0.59756700  0.50000000  1
  Fe  Fe1  1  0.49909500  0.50090500  0.50000000  1
  Fe  Fe2  1  0.79973400  0.20026600  0.50000000  1
  Fe  Fe3  1  0.20066200  0.79933800  0.50000000  1
  Fe  Fe4  1  0.59836000  0.40164000  0.50000000  1
  Mo  Mo0  1  0.89902900  0.10097100  0.50000000  1
  Mo  Mo1  1  0.30078800  0.69921200  0.50000000  1
  Mo  Mo2  1  0.69952800  0.30047200  0.50000000  1
  Mo  Mo3  1  0.99887500  0.00112500  0.50000000  1
  Mo  Mo4  1  0.10065100  0.89934900  0.50000000  1
  O  O0  1  0.45110600  0.54889400  0.50000000  1
  O  O1  1  0.11877800  0.32018000  0.99650900  1
  O  O2  1  0.63614800  0.83455500  0.55073600  1
  O  O3  1  0.84995600  0.15004400  0.50000000  1
  O  O4  1  0.95149900  0.04850100  0.50000000  1
  O  O5  1  0.16544500  0.36385200  0.44926400  1
  O  O6  1  0.51320700  0.91312500  0.01572300  1
  O  O7  1  0.67982000  0.88122200  0.00349100  1
  O  O8  1  0.01753600  0.41723700  0.56044800  1
  O  O9  1  0.24994600  0.75005400  0.50000000  1
  O  O10  1  0.35058600  0.64941400  0.50000000  1
  O  O11  1  0.58276300  0.98246400  0.43955200  1
  O  O12  1  0.92186900  0.52261200  0.99536400  1
  O  O13  1  0.08687500  0.48679300  0.98427700  1
  O  O14  1  0.42848100  0.02902100  0.55844800  1
  O  O15  1  0.64937000  0.35063000  0.50000000  1
  O  O16  1  0.74997900  0.25002100  0.50000000  1
  O  O17  1  0.97097900  0.57151900  0.44155200  1
  O  O18  1  0.31200800  0.11353800  0.01818100  1
  O  O19  1  0.47738800  0.07813100  0.00463600  1
  O  O20  1  0.81783000  0.61805400  0.56189500  1
  O  O21  1  0.04894000  0.95106000  0.50000000  1
  O  O22  1  0.14994900  0.85005100  0.50000000  1
  O  O23  1  0.38194600  0.18217000  0.43810500  1
  O  O24  1  0.73631000  0.73426400  0.98048400  1
  O  O25  1  0.88646200  0.68799200  0.98181900  1
  O  O26  1  0.21251500  0.21140700  0.55862600  1
  O  O27  1  0.54912000  0.45088000  0.50000000  1
  O  O28  1  0.78859300  0.78748500  0.44137400  1
  O  O29  1  0.26573600  0.26369000  0.01951600  1
loop_
_geom_bond_atom_site_label_1
_geom_bond_atom_site_label_2
_geom_bond_distance
_geom_bond_site_symmetry_2
Na0 O5 2.651557 1_555
Na0 O2 2.651557 1_554
Na0 O24 2.757855 1_554
Na0 O29 2.757855 1_555
Na0 O0 2.816153 1_555
Na0 O0 2.816153 1_554
Na0 O4 2.818299 1_564
Na0 O4 2.818299 1_455
Fe0 O0 1.964968 1_555
Fe0 O7 1.997656 1_555
Fe0 O1 1.997656 1_555
Fe0 O5 2.087765 1_555
Fe0 O2 2.087765 1_555
Fe0 O10 2.093105 1_555
Fe1 O0 1.937354 1_555
Fe1 O27 2.019549 1_555
Fe1 O28 2.075306 1_555
Fe1 O26 2.075306 1_555
Fe1 O24 2.078962 1_554
Fe1 O29 2.078962 1_556
Fe2 O11 1.987161 1_545
Fe2 O8 1.987161 1_655
Fe2 O16 2.008649 1_555
Fe2 O3 2.027502 1_555
Fe2 O6 2.066457 1_546
Fe2 O13 2.066457 1_654
Fe3 O19 1.987374 1_565
Fe3 O12 1.987374 1_455
Fe3 O9 1.989635 1_555
Fe3 O22 2.047324 1_555
Fe3 O17 2.068512 1_455
Fe3 O14 2.068512 1_565
Fe4 O27 1.987858 1_555
Fe4 O20 1.998856 1_555
Fe4 O23 1.998856 1_555
Fe4 O15 2.059315 1_555
Fe4 O25 2.075713 1_554
Fe4 O18 2.075713 1_556
Mo0 O2 1.918364 1_545
Mo0 O5 1.918364 1_655
Mo0 O3 1.981116 1_555
Mo0 O7 2.020941 1_546
Mo0 O1 2.020941 1_654
Mo0 O4 2.118256 1_555
Mo1 O13 1.942013 1_555
Mo1 O6 1.942013 1_555
Mo1 O10 2.010385 1_555
Mo1 O8 2.025336 1_555
Mo1 O11 2.025336 1_555
Mo1 O9 2.052532 1_555
Mo2 O14 1.942255 1_555
Mo2 O17 1.942255 1_555
Mo2 O12 2.023309 1_554
Mo2 O19 2.023309 1_556
Mo2 O15 2.024919 1_555
Mo2 O16 2.036747 1_555
Mo3 O4 1.912607 1_555
Mo3 O24 1.925025 1_545
Mo3 O29 1.925025 1_655
Mo3 O28 1.937294 1_545
Mo3 O26 1.937294 1_655
Mo3 O21 2.021164 1_645
Mo4 O18 1.932128 1_565
Mo4 O25 1.932128 1_455
Mo4 O22 1.990200 1_555
Mo4 O20 2.015990 1_455
Mo4 O23 2.015990 1_565
Mo4 O21 2.087615 1_555
O0 Sr0 2.818801 1_456
O0 Sr0 2.818801 1_565
O1 Sr3 2.623513 1_456
O1 Sr0 2.636652 1_456
O1 Sr1 2.967974 1_556
O2 Sr1 2.682730 1_556
O2 Sr0 2.919201 1_565
O2 Sr3 2.988425 1_565
O3 Sr3 2.815239 1_556
O3 Sr3 2.815239 1_555
O3 Sr1 2.817351 1_655
O3 Sr1 2.817351 1_546
O4 Sr0 2.817767 1_556
O4 Sr0 2.817767 1_555
O5 Sr1 2.682730 1_555
O5 Sr0 2.919201 1_456
O5 Sr3 2.988425 1_456
O6 Sr5 2.667671 1_555
O6 Sr1 2.718381 1_555
O6 Sr2 2.993932 1_565
O6 Sr3 3.016721 1_565
O7 Sr3 2.623513 1_565
O7 Sr0 2.636652 1_565
O7 Sr1 2.967974 1_555
O8 Sr2 2.664757 1_456
O8 Sr3 2.683743 1_456
O8 Sr5 3.001566 1_555
O8 Sr1 3.040862 1_555
O9 Sr5 2.815205 1_556
O9 Sr5 2.815205 1_555
O9 Sr2 2.816868 1_456
O9 Sr2 2.816868 1_565
O10 Sr1 2.815293 1_556
O10 Sr1 2.815293 1_555
O10 Sr3 2.816815 1_456
O10 Sr3 2.816815 1_565
O11 Sr2 2.664757 1_565
O11 Sr3 2.683743 1_565
O11 Sr5 3.001566 1_556
O11 Sr1 3.040862 1_556
O12 Sr7 2.661001 1_556
O12 Sr2 2.695747 1_556
O12 Sr4 2.996456 1_656
O12 Sr5 3.030535 1_656
O13 Sr5 2.667671 1_556
O13 Sr1 2.718381 1_556
O13 Sr2 2.993932 1_456
O13 Sr3 3.016721 1_456
O14 Sr4 2.666691 1_546
O14 Sr5 2.698784 1_546
O14 Sr7 2.995835 1_555
O14 Sr2 3.021250 1_555
O15 Sr7 2.815260 1_556
O15 Sr7 2.815260 1_555
O15 Sr4 2.816963 1_546
O15 Sr4 2.816963 1_655
O16 Sr2 2.815184 1_555
O16 Sr2 2.815184 1_556
O16 Sr5 2.816872 1_546
O16 Sr5 2.816872 1_655
O17 Sr4 2.666691 1_655
O17 Sr5 2.698784 1_655
O17 Sr7 2.995835 1_556
O17 Sr2 3.021250 1_556
O18 Sr8 2.671770 1_545
O18 Sr4 2.709948 1_545
O18 Sr6 2.989840 1_555
O18 Sr7 3.019704 1_555
O19 Sr7 2.661001 1_555
O19 Sr2 2.695747 1_555
O19 Sr4 2.996456 1_545
O19 Sr5 3.030535 1_545
O20 Sr7 2.671843 1_556
O20 Sr6 2.678270 1_556
O20 Sr4 3.018653 1_655
O20 Sr8 3.020036 1_655
O21 Sr8 2.815279 1_556
O21 Sr8 2.815279 1_555
O21 Sr6 2.816921 1_456
O21 Sr6 2.816921 1_565
O22 Sr4 2.815144 1_556
O22 Sr4 2.815144 1_555
O22 Sr7 2.816816 1_456
O22 Sr7 2.816816 1_565
O23 Sr7 2.671843 1_555
O23 Sr6 2.678270 1_555
O23 Sr4 3.018653 1_546
O23 Sr8 3.020036 1_546
O24 Sr6 2.659256 1_556
O24 Sr8 2.939177 1_656
O24 Sr0 3.047238 1_566
O25 Sr8 2.671770 1_656
O25 Sr4 2.709948 1_656
O25 Sr6 2.989840 1_556
O25 Sr7 3.019704 1_556
O26 Sr8 2.649400 1_546
O26 Sr0 2.740728 1_456
O26 Sr6 2.977218 1_555
O27 Sr6 2.815191 1_556
O27 Sr6 2.815191 1_555
O27 Sr8 2.816892 1_655
O27 Sr8 2.816892 1_546
O28 Sr8 2.649400 1_655
O28 Sr0 2.740728 1_565
O28 Sr6 2.977218 1_556
O29 Sr6 2.659256 1_555
O29 Sr8 2.939177 1_545
O29 Sr0 3.047238 1_455
