# generated using pymatgen
data_Rb2CdC2Cl2O5
_symmetry_space_group_name_H-M   'P 1'
_cell_length_a   6.11666400
_cell_length_b   11.05149800
_cell_length_c   15.82654700
_cell_angle_alpha   90.00000000
_cell_angle_beta   90.00000000
_cell_angle_gamma   90.00000000
_symmetry_Int_Tables_number   1
_chemical_formula_structural   Rb2CdC2Cl2O5
_chemical_formula_sum   'Rb8 Cd4 C8 Cl8 O20'
_cell_volume   1069.84767148
_cell_formula_units_Z   4
loop_
 _symmetry_equiv_pos_site_id
 _symmetry_equiv_pos_as_xyz
  1  'x, y, z'
loop_
 _atom_site_type_symbol
 _atom_site_label
 _atom_site_symmetry_multiplicity
 _atom_site_fract_x
 _atom_site_fract_y
 _atom_site_fract_z
 _atom_site_occupancy
  Rb  Rb0  1  0.16209200  0.11131700  0.61439900  1
  Rb  Rb1  1  0.83790800  0.88868300  0.11439900  1
  Rb  Rb2  1  0.16209200  0.38868300  0.38560100  1
  Rb  Rb3  1  0.83790800  0.61131700  0.88560100  1
  Rb  Rb4  1  0.83790800  0.88868300  0.38560100  1
  Rb  Rb5  1  0.16209200  0.11131700  0.88560100  1
  Rb  Rb6  1  0.83790800  0.61131700  0.61439900  1
  Rb  Rb7  1  0.16209200  0.38868300  0.11439900  1
  Cd  Cd0  1  0.64889500  0.91405800  0.75000000  1
  Cd  Cd1  1  0.35110500  0.08594200  0.25000000  1
  Cd  Cd2  1  0.64889500  0.58594200  0.25000000  1
  Cd  Cd3  1  0.35110500  0.41405800  0.75000000  1
  C  C0  1  0.31105800  0.70123000  0.75000000  1
  C  C1  1  0.68894200  0.29877000  0.25000000  1
  C  C2  1  0.31105800  0.79877000  0.25000000  1
  C  C3  1  0.68894200  0.20123000  0.75000000  1
  C  C4  1  0.17167500  0.82040600  0.75000000  1
  C  C5  1  0.82832500  0.17959400  0.25000000  1
  C  C6  1  0.17167500  0.67959400  0.25000000  1
  C  C7  1  0.82832500  0.32040600  0.75000000  1
  Cl  Cl0  1  0.65887700  0.91473800  0.91501500  1
  Cl  Cl1  1  0.34112300  0.08526200  0.41501500  1
  Cl  Cl2  1  0.65887700  0.58526200  0.08498500  1
  Cl  Cl3  1  0.34112300  0.41473800  0.58498500  1
  Cl  Cl4  1  0.34112300  0.08526200  0.08498500  1
  Cl  Cl5  1  0.65887700  0.91473800  0.58498500  1
  Cl  Cl6  1  0.34112300  0.41473800  0.91501500  1
  Cl  Cl7  1  0.65887700  0.58526200  0.41501500  1
  O  O0  1  0.19975900  0.60422900  0.75000000  1
  O  O1  1  0.80024100  0.39577100  0.25000000  1
  O  O2  1  0.19975900  0.89577100  0.25000000  1
  O  O3  1  0.80024100  0.10422900  0.75000000  1
  O  O4  1  0.96749200  0.80324800  0.75000000  1
  O  O5  1  0.03250800  0.19675200  0.25000000  1
  O  O6  1  0.96749200  0.69675200  0.25000000  1
  O  O7  1  0.03250800  0.30324800  0.75000000  1
  O  O8  1  0.26776700  0.92203900  0.75000000  1
  O  O9  1  0.73223300  0.07796100  0.25000000  1
  O  O10  1  0.26776700  0.57796100  0.25000000  1
  O  O11  1  0.73223300  0.42203900  0.75000000  1
  O  O12  1  0.51698200  0.70908200  0.75000000  1
  O  O13  1  0.48301800  0.29091800  0.25000000  1
  O  O14  1  0.51698200  0.79091800  0.25000000  1
  O  O15  1  0.48301800  0.20908200  0.75000000  1
  O  O16  1  0.78022000  0.25000000  0.50000000  1
  O  O17  1  0.21978000  0.75000000  0.00000000  1
  O  O18  1  0.21978000  0.75000000  0.50000000  1
  O  O19  1  0.78022000  0.25000000  0.00000000  1
loop_
_geom_bond_atom_site_label_1
_geom_bond_atom_site_label_2
_geom_bond_distance
_geom_bond_site_symmetry_2
Cd0 O3 2.296523 1_565
Cd0 O4 2.301590 1_555
Cd0 O8 2.332900 1_555
Cd0 O12 2.404700 1_555
Cd0 Cl0 2.612342 1_555
Cd0 Cl5 2.612342 1_555
Cd1 O2 2.296523 1_545
Cd1 O5 2.301590 1_555
Cd1 O9 2.332900 1_555
Cd1 O13 2.404700 1_555
Cd1 Cl4 2.612342 1_555
Cd1 Cl1 2.612342 1_555
Cd2 O1 2.296523 1_555
Cd2 O6 2.301590 1_555
Cd2 O10 2.332900 1_555
Cd2 O14 2.404700 1_555
Cd2 Cl2 2.612342 1_555
Cd2 Cl7 2.612342 1_555
Cd3 O0 2.296523 1_555
Cd3 O7 2.301590 1_555
Cd3 O11 2.332900 1_555
Cd3 O15 2.404700 1_555
Cd3 Cl6 2.612342 1_555
Cd3 Cl3 2.612342 1_555
C0 O12 1.262554 1_555
C0 O0 1.269904 1_555
C1 O13 1.262554 1_555
C1 O1 1.269904 1_555
C2 O14 1.262554 1_555
C2 O2 1.269904 1_555
C3 O15 1.262554 1_555
C3 O3 1.269904 1_555
C4 O4 1.263232 1_455
C4 O8 1.267689 1_555
C5 O5 1.263232 1_655
C5 O9 1.267689 1_555
C6 O6 1.263232 1_455
C6 O10 1.267689 1_555
C7 O7 1.263232 1_655
C7 O11 1.267689 1_555
Cl0 Rb1 3.352560 1_556
Cl0 Rb3 3.558121 1_555
Cl0 Rb5 3.764297 1_565
Cl0 Rb5 3.796116 1_665
Cl1 Rb0 3.352560 1_555
Cl1 Rb2 3.558121 1_555
Cl1 Rb4 3.764297 1_545
Cl1 Rb4 3.796116 1_445
Cl2 Rb3 3.352560 1_554
Cl2 Rb1 3.558121 1_555
Cl2 Rb7 3.764297 1_555
Cl2 Rb7 3.796116 1_655
Cl3 Rb2 3.352560 1_555
Cl3 Rb0 3.558121 1_555
Cl3 Rb6 3.764297 1_555
Cl3 Rb6 3.796116 1_455
Cl4 Rb5 3.352560 1_554
Cl4 Rb7 3.558121 1_555
Cl4 Rb1 3.764297 1_545
Cl4 Rb1 3.796116 1_445
Cl5 Rb4 3.352560 1_555
Cl5 Rb6 3.558121 1_555
Cl5 Rb0 3.764297 1_565
Cl5 Rb0 3.796116 1_665
Cl6 Rb7 3.352560 1_556
Cl6 Rb5 3.558121 1_555
Cl6 Rb3 3.764297 1_555
Cl6 Rb3 3.796116 1_455
Cl7 Rb6 3.352560 1_555
Cl7 Rb4 3.558121 1_555
Cl7 Rb2 3.764297 1_555
Cl7 Rb2 3.796116 1_655
O0 Rb6 3.083935 1_455
O0 Rb3 3.083935 1_455
O1 Rb2 3.083935 1_655
O1 Rb7 3.083935 1_655
O2 Rb1 3.083935 1_455
O2 Rb4 3.083935 1_455
O3 Rb0 3.083935 1_655
O3 Rb5 3.083935 1_655
O4 Rb6 3.119799 1_555
O4 Rb3 3.119799 1_555
O5 Rb7 3.119799 1_555
O5 Rb2 3.119799 1_555
O6 Rb1 3.119799 1_555
O6 Rb4 3.119799 1_555
O7 Rb0 3.119799 1_555
O7 Rb5 3.119799 1_555
O8 Rb5 3.065808 1_565
O8 Rb0 3.065808 1_565
O9 Rb1 3.065808 1_545
O9 Rb4 3.065808 1_545
O10 Rb7 3.065808 1_555
O10 Rb2 3.065808 1_555
O11 Rb6 3.065808 1_555
O11 Rb3 3.065808 1_555
O12 Rb6 3.102653 1_555
O12 Rb3 3.102653 1_555
O13 Rb7 3.102653 1_555
O13 Rb2 3.102653 1_555
O14 Rb1 3.102653 1_555
O14 Rb4 3.102653 1_555
O15 Rb5 3.102653 1_555
O15 Rb0 3.102653 1_555
O16 Rb2 3.329110 1_655
O16 Rb0 3.329110 1_655
O17 Rb3 3.329110 1_454
O17 Rb1 3.329110 1_455
O18 Rb4 3.329110 1_455
O18 Rb6 3.329110 1_455
O19 Rb7 3.329110 1_655
O19 Rb5 3.329110 1_654
