# generated using pymatgen
data_Li2CdGeO4
_symmetry_space_group_name_H-M   'P 1'
_cell_length_a   5.24070000
_cell_length_b   5.57503700
_cell_length_c   6.70555500
_cell_angle_alpha   90.00000000
_cell_angle_beta   90.00000000
_cell_angle_gamma   90.00000000
_symmetry_Int_Tables_number   1
_chemical_formula_structural   Li2CdGeO4
_chemical_formula_sum   'Li4 Cd2 Ge2 O8'
_cell_volume   195.91684689
_cell_formula_units_Z   2
loop_
 _symmetry_equiv_pos_site_id
 _symmetry_equiv_pos_as_xyz
  1  'x, y, z'
loop_
 _atom_site_type_symbol
 _atom_site_label
 _atom_site_symmetry_multiplicity
 _atom_site_fract_x
 _atom_site_fract_y
 _atom_site_fract_z
 _atom_site_occupancy
  Li  Li0  1  0.98781500  0.33027900  0.25039000  1
  Li  Li1  1  0.48781500  0.66972100  0.75039000  1
  Li  Li2  1  0.98781500  0.33027900  0.74961000  1
  Li  Li3  1  0.48781500  0.66972100  0.24961000  1
  Cd  Cd0  1  0.49081600  0.17575100  0.50000000  1
  Cd  Cd1  1  0.99081600  0.82424900  0.00000000  1
  Ge  Ge0  1  0.48193900  0.18452300  0.00000000  1
  Ge  Ge1  1  0.98193900  0.81547700  0.50000000  1
  O  O0  1  0.56338400  0.87171400  0.00000000  1
  O  O1  1  0.14230100  0.20322100  0.00000000  1
  O  O2  1  0.06338400  0.12828600  0.50000000  1
  O  O3  1  0.64230100  0.79677900  0.50000000  1
  O  O4  1  0.10896500  0.66564300  0.28709700  1
  O  O5  1  0.60896500  0.33435700  0.21290300  1
  O  O6  1  0.60896500  0.33435700  0.78709700  1
  O  O7  1  0.10896500  0.66564300  0.71290300  1
loop_
_geom_bond_atom_site_label_1
_geom_bond_atom_site_label_2
_geom_bond_distance
_geom_bond_site_symmetry_2
Li0 O4 1.989812 1_655
Li0 O1 1.994065 1_655
Li0 O5 2.001418 1_555
Li0 O2 2.055846 1_655
Li1 O6 1.989812 1_555
Li1 O3 1.994065 1_555
Li1 O7 2.001418 1_555
Li1 O0 2.055846 1_556
Li2 O7 1.989812 1_655
Li2 O1 1.994065 1_656
Li2 O6 2.001418 1_555
Li2 O2 2.055846 1_655
Li3 O5 1.989812 1_555
Li3 O3 1.994065 1_555
Li3 O4 2.001418 1_555
Li3 O0 2.055846 1_555
Cd0 O6 2.207134 1_555
Cd0 O5 2.207134 1_555
Cd0 O2 2.255619 1_555
Cd0 O3 2.257013 1_545
Cd1 O4 2.207134 1_655
Cd1 O7 2.207134 1_654
Cd1 O0 2.255619 1_555
Cd1 O1 2.257013 1_665
Ge0 O1 1.782991 1_555
Ge0 O5 1.782996 1_555
Ge0 O6 1.782996 1_554
Ge0 O0 1.795396 1_545
Ge1 O3 1.782991 1_555
Ge1 O4 1.782996 1_655
Ge1 O7 1.782996 1_655
Ge1 O2 1.795396 1_665
