# generated using pymatgen
data_Na4V2P(CO4)4
_symmetry_space_group_name_H-M   'P 1'
_cell_length_a   10.03061881
_cell_length_b   10.02676245
_cell_length_c   9.84052019
_cell_angle_alpha   60.63833225
_cell_angle_beta   60.59920162
_cell_angle_gamma   58.76246613
_symmetry_Int_Tables_number   1
_chemical_formula_structural   Na4V2P(CO4)4
_chemical_formula_sum   'Na8 V4 P2 C8 O32'
_cell_volume   699.34441916
_cell_formula_units_Z   2
loop_
 _symmetry_equiv_pos_site_id
 _symmetry_equiv_pos_as_xyz
  1  'x, y, z'
loop_
 _atom_site_type_symbol
 _atom_site_label
 _atom_site_symmetry_multiplicity
 _atom_site_fract_x
 _atom_site_fract_y
 _atom_site_fract_z
 _atom_site_occupancy
  Na  Na0  1  0.79062400  0.20937600  0.20937600  1
  Na  Na1  1  0.20824300  0.79175700  0.20824300  1
  Na  Na2  1  0.45824300  0.04175700  0.45824300  1
  Na  Na3  1  0.04062400  0.45937600  0.45937600  1
  Na  Na4  1  0.20937600  0.79062400  0.79062400  1
  Na  Na5  1  0.79175700  0.20824300  0.79175700  1
  Na  Na6  1  0.04175700  0.45824300  0.04175700  1
  Na  Na7  1  0.45937600  0.04062400  0.04062400  1
  V  V0  1  0.62500000  0.62500000  0.12500000  1
  V  V1  1  0.62500000  0.62500000  0.62500000  1
  V  V2  1  0.62500000  0.12500000  0.62500000  1
  V  V3  1  0.12500000  0.62500000  0.62500000  1
  P  P0  1  0.25000000  0.25000000  0.25000000  1
  P  P1  1  0.00000000  0.00000000  0.00000000  1
  C  C0  1  0.83182800  0.83549900  0.48642800  1
  C  C1  1  0.41450100  0.41817200  0.40375500  1
  C  C2  1  0.84624500  0.48642800  0.83549900  1
  C  C3  1  0.48642800  0.84624500  0.83182800  1
  C  C4  1  0.76357200  0.40375500  0.41817200  1
  C  C5  1  0.40375500  0.76357200  0.41450100  1
  C  C6  1  0.83549900  0.83182800  0.84624500  1
  C  C7  1  0.41817200  0.41450100  0.76357200  1
  O  O0  1  0.79917000  0.98072900  0.48231800  1
  O  O1  1  0.44111200  0.18034900  0.18840500  1
  O  O2  1  0.71818200  0.80717300  0.48902100  1
  O  O3  1  0.44282700  0.53181800  0.26437600  1
  O  O4  1  0.98562400  0.48902100  0.80717300  1
  O  O5  1  0.52625100  0.27257900  0.43142800  1
  O  O6  1  0.19013400  0.18840500  0.18034900  1
  O  O7  1  0.18034900  0.44111200  0.19013400  1
  O  O8  1  0.43142800  0.76974200  0.52625100  1
  O  O9  1  0.48902100  0.98562400  0.71818200  1
  O  O10  1  0.26927100  0.45083000  0.51221700  1
  O  O11  1  0.18840500  0.19013400  0.44111200  1
  O  O12  1  0.73778300  0.48231800  0.98072900  1
  O  O13  1  0.48231800  0.73778300  0.79917000  1
  O  O14  1  0.97742100  0.72374900  0.48025800  1
  O  O15  1  0.76974200  0.43142800  0.27257900  1
  O  O16  1  0.48025800  0.81857200  0.97742100  1
  O  O17  1  0.27257900  0.52625100  0.76974200  1
  O  O18  1  0.76768200  0.51221700  0.45083000  1
  O  O19  1  0.51221700  0.76768200  0.26927100  1
  O  O20  1  0.06159500  0.05986600  0.80888800  1
  O  O21  1  0.98072900  0.79917000  0.73778300  1
  O  O22  1  0.76097900  0.26437600  0.53181800  1
  O  O23  1  0.81857200  0.48025800  0.72374900  1
  O  O24  1  0.06965100  0.80888800  0.05986600  1
  O  O25  1  0.05986600  0.06159500  0.06965100  1
  O  O26  1  0.72374900  0.97742100  0.81857200  1
  O  O27  1  0.26437600  0.76097900  0.44282700  1
  O  O28  1  0.80717300  0.71818200  0.98562400  1
  O  O29  1  0.53181800  0.44282700  0.76097900  1
  O  O30  1  0.80888800  0.06965100  0.06159500  1
  O  O31  1  0.45083000  0.26927100  0.76768200  1
loop_
_geom_bond_atom_site_label_1
_geom_bond_atom_site_label_2
_geom_bond_distance
_geom_bond_site_symmetry_2
Na0 O25 2.362480 1_655
Na0 O30 2.362480 1_555
Na0 O5 2.476727 1_555
Na0 O15 2.476727 1_555
Na0 O12 2.541871 1_554
Na0 O0 2.541871 1_545
Na1 O24 2.365010 1_555
Na1 O25 2.365010 1_565
Na1 O3 2.477585 1_555
Na1 O27 2.477585 1_555
Na1 O14 2.598706 1_455
Na1 O16 2.598706 1_554
Na2 O11 2.365010 1_555
Na2 O1 2.365010 1_555
Na2 O2 2.477585 1_545
Na2 O9 2.477585 1_545
Na2 O8 2.598706 1_545
Na2 O5 2.598706 1_555
Na3 O7 2.362480 1_555
Na3 O11 2.362480 1_555
Na3 O14 2.476727 1_455
Na3 O23 2.476727 1_455
Na3 O10 2.541871 1_555
Na3 O18 2.541871 1_455
Na4 O24 2.362480 1_556
Na4 O20 2.362480 1_565
Na4 O17 2.476727 1_555
Na4 O8 2.476727 1_555
Na4 O21 2.541871 1_455
Na4 O13 2.541871 1_555
Na5 O20 2.365010 1_655
Na5 O30 2.365010 1_556
Na5 O22 2.477585 1_555
Na5 O29 2.477585 1_555
Na5 O26 2.598706 1_545
Na5 O23 2.598706 1_555
Na6 O6 2.365010 1_555
Na6 O7 2.365010 1_555
Na6 O4 2.477585 1_454
Na6 O28 2.477585 1_454
Na6 O15 2.598706 1_455
Na6 O17 2.598706 1_554
Na7 O1 2.362480 1_555
Na7 O6 2.362480 1_555
Na7 O26 2.476727 1_544
Na7 O16 2.476727 1_544
Na7 O19 2.541871 1_545
Na7 O31 2.541871 1_554
C0 O14 1.293984 1_555
C0 O2 1.296500 1_555
C0 O0 1.299972 1_555
C1 O5 1.293984 1_555
C1 O3 1.296500 1_555
C1 O10 1.299972 1_555
C2 O23 1.293984 1_555
C2 O4 1.296500 1_555
C2 O12 1.299972 1_555
C3 O16 1.293984 1_555
C3 O9 1.296500 1_555
C3 O13 1.299972 1_555
C4 O15 1.293984 1_555
C4 O22 1.296500 1_555
C4 O18 1.299972 1_555
C5 O8 1.293984 1_555
C5 O27 1.296500 1_555
C5 O19 1.299972 1_555
C6 O26 1.293984 1_555
C6 O28 1.296500 1_555
C6 O21 1.299972 1_555
C7 O17 1.293984 1_555
C7 O29 1.296500 1_555
C7 O31 1.299972 1_555
O0 V2 2.019484 1_565
O1 P0 1.554238 1_555
O2 V1 2.036303 1_555
O3 V0 2.036303 1_555
O4 V3 2.036303 1_655
O5 V2 2.089831 1_555
O6 P0 1.554238 1_555
O7 P0 1.554238 1_555
O8 V1 2.089831 1_555
O9 V2 2.036303 1_565
O10 V3 2.019484 1_555
O11 P0 1.554238 1_555
O12 V0 2.019484 1_556
O13 V1 2.019484 1_555
O14 V3 2.089831 1_655
O15 V0 2.089831 1_555
O16 V0 2.089831 1_556
O17 V3 2.089831 1_555
O18 V1 2.019484 1_555
O19 V0 2.019484 1_555
O20 P1 1.554238 1_556
O21 V3 2.019484 1_655
O22 V2 2.036303 1_555
O23 V1 2.089831 1_555
O24 P1 1.554238 1_565
O25 P1 1.554238 1_555
O26 V2 2.089831 1_565
O27 V3 2.036303 1_555
O28 V0 2.036303 1_556
O29 V1 2.036303 1_555
O30 P1 1.554238 1_655
O31 V2 2.019484 1_555
