# generated using pymatgen
data_Mg2P2H12O13
_symmetry_space_group_name_H-M   'P 1'
_cell_length_a   18.44245800
_cell_length_b   7.27880000
_cell_length_c   10.34086733
_cell_angle_alpha   47.98415323
_cell_angle_beta   90.00000000
_cell_angle_gamma   90.00000000
_symmetry_Int_Tables_number   1
_chemical_formula_structural   Mg2P2H12O13
_chemical_formula_sum   'Mg8 P8 H48 O52'
_cell_volume   1031.33755064
_cell_formula_units_Z   4
loop_
 _symmetry_equiv_pos_site_id
 _symmetry_equiv_pos_as_xyz
  1  'x, y, z'
loop_
 _atom_site_type_symbol
 _atom_site_label
 _atom_site_symmetry_multiplicity
 _atom_site_fract_x
 _atom_site_fract_y
 _atom_site_fract_z
 _atom_site_occupancy
  Mg  Mg0  1  0.50000000  0.00000000  0.50000000  1
  Mg  Mg1  1  0.00000000  0.00000000  0.00000000  1
  Mg  Mg2  1  0.50000000  0.00000000  0.00000000  1
  Mg  Mg3  1  0.00000000  0.00000000  0.50000000  1
  Mg  Mg4  1  0.75645800  0.32742000  0.97566100  1
  Mg  Mg5  1  0.74354200  0.32742000  0.47566100  1
  Mg  Mg6  1  0.24354200  0.67258000  0.02433900  1
  Mg  Mg7  1  0.25645800  0.67258000  0.52433900  1
  P  P0  1  0.59678500  0.49870400  0.79888300  1
  P  P1  1  0.90321500  0.49870400  0.29888300  1
  P  P2  1  0.40321500  0.50129600  0.20111700  1
  P  P3  1  0.09678500  0.50129600  0.70111700  1
  P  P4  1  0.60492100  0.15355400  0.17865000  1
  P  P5  1  0.89507900  0.15355400  0.67865000  1
  P  P6  1  0.39507900  0.84644600  0.82135000  1
  P  P7  1  0.10492100  0.84644600  0.32135000  1
  H  H0  1  0.49581900  0.57640800  0.58635700  1
  H  H1  1  0.00418100  0.57640800  0.08635700  1
  H  H2  1  0.50418100  0.42359200  0.41364300  1
  H  H3  1  0.99581900  0.42359200  0.91364300  1
  H  H4  1  0.51085600  0.78451800  0.37961000  1
  H  H5  1  0.98914400  0.78451800  0.87961000  1
  H  H6  1  0.48914400  0.21548200  0.62039000  1
  H  H7  1  0.01085600  0.21548200  0.12039000  1
  H  H8  1  0.88872700  0.26747100  0.09970400  1
  H  H9  1  0.61127300  0.26747100  0.59970400  1
  H  H10  1  0.11127300  0.73252900  0.90029600  1
  H  H11  1  0.38872700  0.73252900  0.40029600  1
  H  H12  1  0.83542700  0.29900800  0.20747100  1
  H  H13  1  0.66457300  0.29900800  0.70747100  1
  H  H14  1  0.16457300  0.70099200  0.79252900  1
  H  H15  1  0.33542700  0.70099200  0.29252900  1
  H  H16  1  0.85671400  0.67908600  0.71776700  1
  H  H17  1  0.64328600  0.67908600  0.21776700  1
  H  H18  1  0.14328600  0.32091400  0.28223300  1
  H  H19  1  0.35671400  0.32091400  0.78223300  1
  H  H20  1  0.87037500  0.41856800  0.77538600  1
  H  H21  1  0.62962500  0.41856800  0.27538600  1
  H  H22  1  0.12962500  0.58143200  0.22461400  1
  H  H23  1  0.37037500  0.58143200  0.72461400  1
  H  H24  1  0.78903200  0.05975500  0.89553500  1
  H  H25  1  0.71096800  0.05975500  0.39553500  1
  H  H26  1  0.21096800  0.94024500  0.10446500  1
  H  H27  1  0.28903200  0.94024500  0.60446500  1
  H  H28  1  0.82953900  0.93261300  0.07142100  1
  H  H29  1  0.67046100  0.93261300  0.57142100  1
  H  H30  1  0.17046100  0.06738700  0.92857900  1
  H  H31  1  0.32953900  0.06738700  0.42857900  1
  H  H32  1  0.38509400  0.04712400  0.14139000  1
  H  H33  1  0.11490600  0.04712400  0.64139000  1
  H  H34  1  0.61490600  0.95287600  0.85861000  1
  H  H35  1  0.88509400  0.95287600  0.35861000  1
  H  H36  1  0.42663800  0.29998600  0.03360100  1
  H  H37  1  0.07336200  0.29998600  0.53360100  1
  H  H38  1  0.57336200  0.70001400  0.96639900  1
  H  H39  1  0.92663800  0.70001400  0.46639900  1
  H  H40  1  0.74229600  0.64064600  0.03597100  1
  H  H41  1  0.75770400  0.64064600  0.53597100  1
  H  H42  1  0.25770400  0.35935400  0.96402900  1
  H  H43  1  0.24229600  0.35935400  0.46402900  1
  H  H44  1  0.76463400  0.81509900  0.83818200  1
  H  H45  1  0.73536600  0.81509900  0.33818200  1
  H  H46  1  0.23536600  0.18490100  0.16181800  1
  H  H47  1  0.26463400  0.18490100  0.66181800  1
  O  O0  1  0.57405300  0.18208800  0.30075200  1
  O  O1  1  0.92594700  0.18208800  0.80075200  1
  O  O2  1  0.42594700  0.81791200  0.69924800  1
  O  O3  1  0.07405300  0.81791200  0.19924800  1
  O  O4  1  0.68835600  0.12931500  0.19129300  1
  O  O5  1  0.81164400  0.12931500  0.69129300  1
  O  O6  1  0.31164400  0.87068500  0.80870700  1
  O  O7  1  0.18835600  0.87068500  0.30870700  1
  O  O8  1  0.67361100  0.41094800  0.80518400  1
  O  O9  1  0.82638900  0.41094800  0.30518400  1
  O  O10  1  0.32638900  0.58905200  0.19481600  1
  O  O11  1  0.17361100  0.58905200  0.69481600  1
  O  O12  1  0.58561300  0.42441500  0.98667800  1
  O  O13  1  0.91438700  0.42441500  0.48667800  1
  O  O14  1  0.41438700  0.57558500  0.01332200  1
  O  O15  1  0.08561300  0.57558500  0.51332200  1
  O  O16  1  0.56918400  0.95327800  0.18923100  1
  O  O17  1  0.93081600  0.95327800  0.68923100  1
  O  O18  1  0.43081600  0.04672200  0.81076900  1
  O  O19  1  0.06918400  0.04672200  0.31076900  1
  O  O20  1  0.58778900  0.77798400  0.66237700  1
  O  O21  1  0.91221100  0.77798400  0.16237700  1
  O  O22  1  0.41221100  0.22201600  0.33762300  1
  O  O23  1  0.08778900  0.22201600  0.83762300  1
  O  O24  1  0.53802100  0.35846200  0.78908400  1
  O  O25  1  0.96197900  0.35846200  0.28908400  1
  O  O26  1  0.46197900  0.64153800  0.21091600  1
  O  O27  1  0.03802100  0.64153800  0.71091600  1
  O  O28  1  0.47728300  0.73499500  0.47406900  1
  O  O29  1  0.02271700  0.73499500  0.97406900  1
  O  O30  1  0.52271700  0.26500500  0.52593100  1
  O  O31  1  0.97728300  0.26500500  0.02593100  1
  O  O32  1  0.84037300  0.22055500  0.15663100  1
  O  O33  1  0.65962700  0.22055500  0.65663100  1
  O  O34  1  0.15962700  0.77944500  0.84336900  1
  O  O35  1  0.34037300  0.77944500  0.34336900  1
  O  O36  1  0.83349400  0.52068600  0.77262100  1
  O  O37  1  0.66650600  0.52068600  0.27262100  1
  O  O38  1  0.16650600  0.47931400  0.22737900  1
  O  O39  1  0.33349400  0.47931400  0.72737900  1
  O  O40  1  0.78379400  0.02153900  0.00670800  1
  O  O41  1  0.71620600  0.02153900  0.50670800  1
  O  O42  1  0.21620600  0.97846100  0.99329200  1
  O  O43  1  0.28379400  0.97846100  0.49329200  1
  O  O44  1  0.42032800  0.15471900  0.04579800  1
  O  O45  1  0.07967200  0.15471900  0.54579800  1
  O  O46  1  0.57967200  0.84528100  0.95420200  1
  O  O47  1  0.92032800  0.84528100  0.45420200  1
  O  O48  1  0.74311900  0.65264000  0.93583100  1
  O  O49  1  0.75688100  0.65264000  0.43583100  1
  O  O50  1  0.25688100  0.34736000  0.06416900  1
  O  O51  1  0.24311900  0.34736000  0.56416900  1
loop_
_geom_bond_atom_site_label_1
_geom_bond_atom_site_label_2
_geom_bond_distance
_geom_bond_site_symmetry_2
Mg0 O0 2.052169 1_555
Mg0 O2 2.052169 1_545
Mg0 O22 2.102328 1_555
Mg0 O20 2.102328 1_545
Mg0 O30 2.158835 1_555
Mg0 O28 2.158835 1_545
Mg1 O3 2.052169 1_545
Mg1 O1 2.052169 1_454
Mg1 O23 2.102328 1_554
Mg1 O21 2.102328 1_445
Mg1 O29 2.158835 1_544
Mg1 O31 2.158835 1_455
Mg2 O46 2.089378 1_544
Mg2 O44 2.089378 1_555
Mg2 O24 2.106755 1_554
Mg2 O26 2.106755 1_545
Mg2 O16 2.163770 1_545
Mg2 O18 2.163770 1_554
Mg3 O45 2.089378 1_555
Mg3 O47 2.089378 1_445
Mg3 O27 2.106755 1_545
Mg3 O25 2.106755 1_455
Mg3 O17 2.163770 1_445
Mg3 O19 2.163770 1_555
Mg4 O4 2.079557 1_556
Mg4 O40 2.087440 1_556
Mg4 O8 2.092148 1_555
Mg4 O36 2.109941 1_555
Mg4 O48 2.128061 1_555
Mg4 O32 2.133906 1_556
Mg5 O5 2.079557 1_555
Mg5 O41 2.087440 1_555
Mg5 O9 2.092148 1_555
Mg5 O37 2.109941 1_555
Mg5 O49 2.128061 1_555
Mg5 O33 2.133906 1_555
Mg6 O6 2.079557 1_554
Mg6 O42 2.087440 1_554
Mg6 O10 2.092148 1_555
Mg6 O38 2.109941 1_555
Mg6 O50 2.128061 1_555
Mg6 O34 2.133906 1_554
Mg7 O7 2.079557 1_555
Mg7 O43 2.087440 1_555
Mg7 O11 2.092148 1_555
Mg7 O39 2.109941 1_555
Mg7 O51 2.128061 1_555
Mg7 O35 2.133906 1_555
H0 O28 1.001657 1_555
H0 O24 1.750771 1_555
H1 O29 1.001657 1_554
H1 O25 1.750771 1_455
H2 O30 1.001657 1_555
H2 O26 1.750771 1_555
H3 O31 1.001657 1_556
H3 O27 1.750771 1_655
H4 O28 0.998035 1_555
H5 O29 0.998035 1_655
H6 O30 0.998035 1_555
H7 O31 0.998035 1_455
H8 O32 0.994632 1_555
H9 O33 0.994632 1_555
H10 O34 0.994632 1_555
H11 O35 0.994632 1_555
H12 O32 1.006326 1_555
H12 O9 1.677727 1_555
H13 O33 1.006326 1_555
H13 O8 1.677727 1_555
H14 O34 1.006326 1_555
H14 O11 1.677727 1_555
H15 O35 1.006326 1_555
H15 O10 1.677727 1_555
H16 O36 0.979269 1_555
H17 O37 0.979269 1_555
H18 O38 0.979269 1_555
H19 O39 0.979269 1_555
H20 O36 0.993729 1_555
H21 O37 0.993729 1_555
H22 O38 0.993729 1_555
H23 O39 0.993729 1_555
H24 O40 0.990079 1_556
H25 O41 0.990079 1_555
H26 O42 0.990079 1_554
H27 O43 0.990079 1_555
H28 O40 0.999339 1_565
H29 O41 0.999339 1_565
H30 O42 0.999339 1_545
H31 O43 0.999339 1_545
H32 O44 0.988120 1_555
H33 O45 0.988120 1_555
H34 O46 0.988120 1_555
H35 O47 0.988120 1_555
H36 O44 0.984353 1_555
H37 O45 0.984353 1_555
H38 O46 0.984353 1_555
H39 O47 0.984353 1_555
H40 O48 0.979368 1_554
H41 O49 0.979368 1_555
H42 O50 0.979368 1_556
H43 O51 0.979368 1_555
H44 O48 0.988406 1_555
H45 O49 0.988406 1_555
H46 O50 0.988406 1_555
H47 O51 0.988406 1_555
O0 P4 1.520702 1_555
O1 P5 1.520702 1_555
O2 P6 1.520702 1_555
O3 P7 1.520702 1_555
O4 P4 1.544371 1_555
O5 P5 1.544371 1_555
O6 P6 1.544371 1_555
O7 P7 1.544371 1_555
O8 P0 1.537542 1_555
O9 P1 1.537542 1_555
O10 P2 1.537542 1_555
O11 P3 1.537542 1_555
O12 P0 1.643273 1_555
O12 P4 1.647818 1_556
O13 P1 1.643273 1_555
O13 P5 1.647818 1_555
O14 P2 1.643273 1_555
O14 P6 1.647818 1_554
O15 P3 1.643273 1_555
O15 P7 1.647818 1_555
O16 P4 1.535553 1_565
O17 P5 1.535553 1_565
O18 P6 1.535553 1_545
O19 P7 1.535553 1_545
O20 P0 1.520245 1_555
O21 P1 1.520245 1_555
O22 P2 1.520245 1_555
O23 P3 1.520245 1_555
O24 P0 1.537945 1_555
O25 P1 1.537945 1_555
O26 P2 1.537945 1_555
O27 P3 1.537945 1_555
