# generated using pymatgen
data_Li3MnV(PO4)3
_symmetry_space_group_name_H-M   'P 1'
_cell_length_a   8.54904800
_cell_length_b   8.56493565
_cell_length_c   9.14166382
_cell_angle_alpha   90.10929025
_cell_angle_beta   117.13232480
_cell_angle_gamma   119.71139383
_symmetry_Int_Tables_number   1
_chemical_formula_structural   Li3MnV(PO4)3
_chemical_formula_sum   'Li6 Mn2 V2 P6 O24'
_cell_volume   494.38619679
_cell_formula_units_Z   2
loop_
 _symmetry_equiv_pos_site_id
 _symmetry_equiv_pos_as_xyz
  1  'x, y, z'
loop_
 _atom_site_type_symbol
 _atom_site_label
 _atom_site_symmetry_multiplicity
 _atom_site_fract_x
 _atom_site_fract_y
 _atom_site_fract_z
 _atom_site_occupancy
  Li  Li0  1  0.18784500  0.93015100  0.85796300  1
  Li  Li1  1  0.60928200  0.67649200  0.87052600  1
  Li  Li2  1  0.92357900  0.26100200  0.84900400  1
  Li  Li3  1  0.07642100  0.73899800  0.15099600  1
  Li  Li4  1  0.39071800  0.32350800  0.12947400  1
  Li  Li5  1  0.81215500  0.06984900  0.14203700  1
  Mn  Mn0  1  0.29535500  0.15093300  0.43961800  1
  Mn  Mn1  1  0.70464500  0.84906700  0.56038200  1
  V  V0  1  0.30625800  0.65418200  0.96015000  1
  V  V1  1  0.69374200  0.34581800  0.03985000  1
  P  P0  1  0.21262000  0.26061900  0.75062000  1
  P  P1  1  0.49472400  0.95439100  0.75074800  1
  P  P2  1  0.79912600  0.54325600  0.75242500  1
  P  P3  1  0.20087400  0.45674400  0.24757500  1
  P  P4  1  0.50527600  0.04560900  0.24925200  1
  P  P5  1  0.78738000  0.73938100  0.24938000  1
  O  O0  1  0.36864800  0.21282000  0.89398600  1
  O  O1  1  0.00167200  0.13846100  0.74385200  1
  O  O2  1  0.31347000  0.47785100  0.82277400  1
  O  O3  1  0.34935000  0.83670100  0.82308800  1
  O  O4  1  0.68560500  0.15505800  0.89559900  1
  O  O5  1  0.74240500  0.52750300  0.89991800  1
  O  O6  1  0.19888400  0.22495600  0.58302100  1
  O  O7  1  0.60672600  0.86197500  0.74170700  1
  O  O8  1  0.36766300  0.98085000  0.58578400  1
  O  O9  1  0.98937600  0.51713900  0.81980200  1
  O  O10  1  0.88046100  0.74908800  0.74948100  1
  O  O11  1  0.61058200  0.39324200  0.58682700  1
  O  O12  1  0.38941800  0.60675800  0.41317300  1
  O  O13  1  0.11953900  0.25091200  0.25051900  1
  O  O14  1  0.01062400  0.48286100  0.18019800  1
  O  O15  1  0.63233700  0.01915000  0.41421600  1
  O  O16  1  0.39327400  0.13802500  0.25829300  1
  O  O17  1  0.80111600  0.77504400  0.41697900  1
  O  O18  1  0.25759500  0.47249700  0.10008200  1
  O  O19  1  0.31439500  0.84494200  0.10440100  1
  O  O20  1  0.65065000  0.16329900  0.17691200  1
  O  O21  1  0.68653000  0.52214900  0.17722600  1
  O  O22  1  0.99832800  0.86153900  0.25614800  1
  O  O23  1  0.63135200  0.78718000  0.10601400  1
loop_
_geom_bond_atom_site_label_1
_geom_bond_atom_site_label_2
_geom_bond_distance
_geom_bond_site_symmetry_2
Li0 O10 1.967620 1_455
Li0 O3 2.035836 1_555
Li0 O0 2.045056 1_565
Li0 O19 2.311777 1_556
Li1 O7 1.982209 1_555
Li1 O5 2.039063 1_555
Li1 O2 2.050812 1_555
Li1 O23 2.239006 1_556
Li2 O1 1.935819 1_655
Li2 O4 2.026266 1_555
Li2 O9 2.028887 1_555
Li2 O18 2.362682 1_656
Li3 O22 1.935819 1_455
Li3 O19 2.026266 1_555
Li3 O14 2.028887 1_555
Li3 O5 2.362682 1_454
Li4 O16 1.982209 1_555
Li4 O18 2.039063 1_555
Li4 O21 2.050812 1_555
Li4 O0 2.239006 1_554
Li5 O13 1.967620 1_655
Li5 O20 2.035836 1_555
Li5 O23 2.045056 1_545
Li5 O4 2.311777 1_554
Mn0 O6 2.074126 1_555
Mn0 O8 2.106268 1_545
Mn0 O11 2.125581 1_555
Mn0 O16 2.194842 1_555
Mn0 O13 2.211873 1_555
Mn0 O22 2.294627 1_445
Mn1 O17 2.074126 1_555
Mn1 O15 2.106268 1_565
Mn1 O12 2.125581 1_555
Mn1 O7 2.194842 1_555
Mn1 O10 2.211873 1_555
Mn1 O1 2.294627 1_665
O0 P0 1.616599 1_555
O0 V1 2.067764 1_556
O1 P0 1.542206 1_555
O2 P0 1.589549 1_555
O2 V0 2.004379 1_555
O3 P1 1.583774 1_555
O3 V0 2.001767 1_555
O4 P1 1.615725 1_545
O4 V1 2.051511 1_556
O5 P2 1.613544 1_555
O5 V1 2.020454 1_556
O6 P0 1.501027 1_555
O7 P1 1.540585 1_555
O8 P1 1.502232 1_555
O9 P2 1.588148 1_555
O9 V0 2.008683 1_655
O10 P2 1.547350 1_555
O11 P2 1.501579 1_555
O12 P3 1.501579 1_555
O13 P3 1.547350 1_555
O14 P3 1.588148 1_555
O14 V1 2.008683 1_455
O15 P4 1.502232 1_555
O16 P4 1.540585 1_555
O17 P5 1.501027 1_555
O18 P3 1.613544 1_555
O18 V0 2.020454 1_554
O19 P4 1.615725 1_565
O19 V0 2.051511 1_554
O20 P4 1.583774 1_555
O20 V1 2.001767 1_555
O21 P5 1.589549 1_555
O21 V1 2.004379 1_555
O22 P5 1.542206 1_555
O23 P5 1.616599 1_555
O23 V0 2.067764 1_554
