# generated using pymatgen
data_LiVSiO4
_symmetry_space_group_name_H-M   'P 1'
_cell_length_a   4.85527102
_cell_length_b   5.16752416
_cell_length_c   16.48533826
_cell_angle_alpha   86.26566313
_cell_angle_beta   89.99305589
_cell_angle_gamma   61.97016680
_symmetry_Int_Tables_number   1
_chemical_formula_structural   LiVSiO4
_chemical_formula_sum   'Li4 V4 Si4 O16'
_cell_volume   364.10371829
_cell_formula_units_Z   4
loop_
 _symmetry_equiv_pos_site_id
 _symmetry_equiv_pos_as_xyz
  1  'x, y, z'
loop_
 _atom_site_type_symbol
 _atom_site_label
 _atom_site_symmetry_multiplicity
 _atom_site_fract_x
 _atom_site_fract_y
 _atom_site_fract_z
 _atom_site_occupancy
  Li  Li0  1  0.87498600  0.24999500  0.62495700  1
  Li  Li1  1  0.62502300  0.74997300  0.87499600  1
  Li  Li2  1  0.37509000  0.24994400  0.12509600  1
  Li  Li3  1  0.12506900  0.74997800  0.37500200  1
  V  V0  1  0.25002200  0.50006100  0.75001000  1
  V  V1  1  0.00011700  0.99990900  0.99996600  1
  V  V2  1  0.74999200  0.49999900  0.24994100  1
  V  V3  1  0.49995700  0.99998500  0.50006700  1
  Si  Si0  1  0.56243700  0.87499400  0.68748100  1
  Si  Si1  1  0.31246500  0.37504300  0.93749100  1
  Si  Si2  1  0.06247400  0.87505200  0.18762600  1
  Si  Si3  1  0.81257500  0.37493100  0.43739100  1
  O  O0  1  0.65138800  0.28217200  0.51411800  1
  O  O1  1  0.40151700  0.78210300  0.76424900  1
  O  O2  1  0.15147200  0.28223800  0.01425700  1
  O  O3  1  0.90124500  0.78241800  0.26435900  1
  O  O4  1  0.33801900  0.95594000  0.60485200  1
  O  O5  1  0.08806400  0.45609500  0.85484500  1
  O  O6  1  0.83832800  0.95632300  0.10492600  1
  O  O7  1  0.58816700  0.45595400  0.35477500  1
  O  O8  1  0.90824900  0.59852300  0.67221800  1
  O  O9  1  0.65819800  0.09829900  0.92232800  1
  O  O10  1  0.40809300  0.59817600  0.17245400  1
  O  O11  1  0.15845600  0.09835900  0.42230100  1
  O  O12  1  0.60189800  0.16352400  0.70851300  1
  O  O13  1  0.35210100  0.66347900  0.95852200  1
  O  O14  1  0.10251500  0.16312700  0.20881600  1
  O  O15  1  0.85208200  0.66340600  0.45844000  1
loop_
_geom_bond_atom_site_label_1
_geom_bond_atom_site_label_2
_geom_bond_distance
_geom_bond_site_symmetry_2
Li0 O4 2.080322 1_645
Li0 O12 2.081180 1_555
Li0 O8 2.081583 1_555
Li0 O0 2.082357 1_555
Li1 O5 2.080294 1_655
Li1 O13 2.080321 1_555
Li1 O1 2.080872 1_555
Li1 O9 2.080914 1_565
Li2 O10 2.080245 1_555
Li2 O6 2.080757 1_545
Li2 O14 2.081939 1_555
Li2 O2 2.082270 1_555
Li3 O3 2.079769 1_455
Li3 O15 2.079805 1_455
Li3 O7 2.080934 1_555
Li3 O11 2.081441 1_565
O0 Si3 1.647873 1_555
O0 V3 1.942240 1_545
O1 Si0 1.647904 1_555
O1 V0 1.942290 1_555
O2 Si1 1.647889 1_554
O2 V1 1.943327 1_544
O3 Si2 1.647772 1_655
O3 V2 1.943758 1_555
O4 Si0 1.647875 1_555
O4 V3 1.941806 1_555
O5 Si1 1.647997 1_555
O5 V0 1.942476 1_555
O6 Si2 1.647924 1_655
O6 V1 1.943430 1_654
O7 Si3 1.647631 1_555
O7 V2 1.942267 1_555
O8 Si0 1.647942 1_555
O8 V0 1.943990 1_655
O9 Si1 1.647926 1_555
O9 V1 1.942945 1_645
O10 Si2 1.647891 1_555
O10 V2 1.941479 1_555
O11 Si3 1.647761 1_455
O11 V3 1.942832 1_545
O12 Si0 1.647969 1_545
O12 V0 1.942521 1_555
O13 Si1 1.647952 1_555
O13 V1 1.942124 1_555
O14 Si2 1.647911 1_545
O14 V2 1.942331 1_455
O15 Si3 1.647889 1_555
O15 V3 1.944065 1_555
