# generated using pymatgen
data_NaCa9TaTi9(SiO5)10
_symmetry_space_group_name_H-M   'P 1'
_cell_length_a   5.50915800
_cell_length_b   7.51564520
_cell_length_c   24.42952346
_cell_angle_alpha   98.04068908
_cell_angle_beta   88.05964485
_cell_angle_gamma   107.51118246
_symmetry_Int_Tables_number   1
_chemical_formula_structural   NaCa9TaTi9(SiO5)10
_chemical_formula_sum   'Na1 Ca9 Ta1 Ti9 Si10 O50'
_cell_volume   955.10713385
_cell_formula_units_Z   1
loop_
 _symmetry_equiv_pos_site_id
 _symmetry_equiv_pos_as_xyz
  1  'x, y, z'
loop_
 _atom_site_type_symbol
 _atom_site_label
 _atom_site_symmetry_multiplicity
 _atom_site_fract_x
 _atom_site_fract_y
 _atom_site_fract_z
 _atom_site_occupancy
  Na  Na0  1  0.21684400  0.39399500  0.81502200  1
  Ca  Ca0  1  0.81246600  0.98443700  0.61423000  1
  Ca  Ca1  1  0.40965400  0.58122900  0.41559000  1
  Ca  Ca2  1  0.38723900  0.21542900  0.98492500  1
  Ca  Ca3  1  0.01043600  0.18165600  0.21572900  1
  Ca  Ca4  1  0.97803600  0.80233400  0.78772300  1
  Ca  Ca5  1  0.61023400  0.78155500  0.01594700  1
  Ca  Ca6  1  0.59041600  0.41929100  0.58380000  1
  Ca  Ca7  1  0.19006200  0.01857500  0.38397400  1
  Ca  Ca8  1  0.79066800  0.61890400  0.18411400  1
  Ta  Ta0  1  0.60222300  0.10593700  0.80069500  1
  Ti  Ti0  1  0.29633800  0.79152300  0.90083100  1
  Ti  Ti1  1  0.20289500  0.70373500  0.59873700  1
  Ti  Ti2  1  0.90896600  0.40628300  0.69843000  1
  Ti  Ti3  1  0.80177300  0.30118700  0.39950400  1
  Ti  Ti4  1  0.50058700  0.00138200  0.49890200  1
  Ti  Ti5  1  0.40032800  0.90002000  0.20012200  1
  Ti  Ti6  1  0.09991900  0.60031400  0.29968100  1
  Ti  Ti7  1  0.99764400  0.49609200  0.00066400  1
  Ti  Ti8  1  0.69893700  0.19905200  0.10049900  1
  Si  Si0  1  0.89346500  0.07335300  0.91578200  1
  Si  Si1  1  0.49812900  0.67789300  0.71251400  1
  Si  Si2  1  0.70316200  0.52676200  0.88771400  1
  Si  Si3  1  0.09767500  0.27842800  0.51338600  1
  Si  Si4  1  0.30591600  0.12308700  0.68467200  1
  Si  Si5  1  0.69674200  0.87745400  0.31383200  1
  Si  Si6  1  0.90322300  0.72272500  0.48545500  1
  Si  Si7  1  0.29616500  0.47684300  0.11435300  1
  Si  Si8  1  0.50287900  0.32215600  0.28615400  1
  Si  Si9  1  0.10208400  0.92114300  0.08654700  1
  O  O0  1  0.52680300  0.65078500  0.87020100  1
  O  O1  1  0.24471600  0.67441900  0.96441000  1
  O  O2  1  0.12635300  0.24748600  0.66815500  1
  O  O3  1  0.03750700  0.29020000  0.94447000  1
  O  O4  1  0.87539700  0.06360300  0.84758300  1
  O  O5  1  0.98867900  0.61112700  0.86203200  1
  O  O6  1  0.85215300  0.28069200  0.76290800  1
  O  O7  1  0.72191500  0.84482100  0.46787200  1
  O  O8  1  0.64876800  0.89140000  0.74381300  1
  O  O9  1  0.60461800  0.99349700  0.94101400  1
  O  O10  1  0.49371200  0.68143600  0.64502800  1
  O  O11  1  0.70974100  0.52337300  0.95510600  1
  O  O12  1  0.59446800  0.20545400  0.65970500  1
  O  O13  1  0.56528000  0.30886500  0.85850100  1
  O  O14  1  0.44801800  0.87742800  0.56268600  1
  O  O15  1  0.32131400  0.44432000  0.26868800  1
  O  O16  1  0.34434700  0.92154600  0.83704100  1
  O  O17  1  0.24483200  0.49426900  0.54226400  1
  O  O18  1  0.20689000  0.60362300  0.73629400  1
  O  O19  1  0.08867700  0.27596400  0.44558400  1
  O  O20  1  0.31688100  0.11703100  0.75214600  1
  O  O21  1  0.19137700  0.80598200  0.46003600  1
  O  O22  1  0.15720100  0.90884400  0.65472200  1
  O  O23  1  0.04634500  0.47750500  0.36373300  1
  O  O24  1  0.92134600  0.04431600  0.06922100  1
  O  O25  1  0.07704100  0.95408900  0.93335600  1
  O  O26  1  0.95548200  0.52185300  0.63463600  1
  O  O27  1  0.84298300  0.09337700  0.34295400  1
  O  O28  1  0.80908900  0.19508000  0.53865700  1
  O  O29  1  0.68815600  0.87556300  0.24607000  1
  O  O30  1  0.91261000  0.72481700  0.55318400  1
  O  O31  1  0.79110000  0.40534300  0.26074900  1
  O  O32  1  0.75688300  0.50648800  0.45658400  1
  O  O33  1  0.64606600  0.07702900  0.16426300  1
  O  O34  1  0.67679500  0.55355600  0.72949200  1
  O  O35  1  0.55311600  0.12278900  0.43585600  1
  O  O36  1  0.44234100  0.69303000  0.14337800  1
  O  O37  1  0.40844800  0.79429400  0.33921700  1
  O  O38  1  0.28660500  0.47437000  0.04660500  1
  O  O39  1  0.51167500  0.32409600  0.35391800  1
  O  O40  1  0.39071400  0.00463900  0.06137300  1
  O  O41  1  0.35640500  0.10618000  0.25709600  1
  O  O42  1  0.27794900  0.15547100  0.53107300  1
  O  O43  1  0.15302200  0.72210500  0.23637600  1
  O  O44  1  0.00793000  0.39382400  0.13982100  1
  O  O45  1  0.11108000  0.92343100  0.15438700  1
  O  O46  1  0.95581000  0.70558400  0.05747300  1
  O  O47  1  0.87812200  0.75527600  0.33140600  1
  O  O48  1  0.75075600  0.32212100  0.03721200  1
  O  O49  1  0.47737400  0.35483700  0.13211800  1
loop_
_geom_bond_atom_site_label_1
_geom_bond_atom_site_label_2
_geom_bond_distance
_geom_bond_site_symmetry_2
Na0 O6 2.285380 1_455
Na0 O0 2.429520 1_555
Na0 O5 2.484829 1_455
Na0 O13 2.507920 1_555
Na0 O20 2.595110 1_555
Na0 O18 2.662898 1_555
Na0 O4 2.824428 1_455
Ca0 O14 2.275920 1_555
Ca0 O22 2.417025 1_655
Ca0 O2 2.450016 1_665
Ca0 O12 2.455539 1_565
Ca0 O30 2.472593 1_555
Ca0 O28 2.598617 1_565
Ca0 O10 2.611324 1_555
Ca1 O23 2.274900 1_555
Ca1 O7 2.430100 1_555
Ca1 O32 2.431369 1_555
Ca1 O21 2.469646 1_555
Ca1 O39 2.470265 1_555
Ca1 O19 2.620803 1_555
Ca1 O37 2.624570 1_555
Ca2 O48 2.281579 1_556
Ca2 O25 2.408116 1_545
Ca2 O3 2.437353 1_555
Ca2 O9 2.445720 1_545
Ca2 O38 2.477409 1_556
Ca2 O40 2.616560 1_556
Ca2 O11 2.636905 1_555
Ca3 O33 2.274440 1_455
Ca3 O15 2.430032 1_555
Ca3 O41 2.432551 1_555
Ca3 O45 2.469253 1_545
Ca3 O31 2.472091 1_455
Ca3 O44 2.612253 1_555
Ca3 O29 2.631336 1_445
Ca4 O16 2.258647 1_655
Ca4 O34 2.412931 1_555
Ca4 O18 2.428869 1_655
Ca4 O8 2.439815 1_555
Ca4 O4 2.474436 1_565
Ca4 O5 2.480258 1_555
Ca4 O20 2.764474 1_665
Ca5 O1 2.280525 1_554
Ca5 O24 2.434447 1_565
Ca5 O46 2.434483 1_555
Ca5 O11 2.460278 1_554
Ca5 O40 2.472643 1_565
Ca5 O9 2.595855 1_554
Ca5 O38 2.643113 1_555
Ca6 O26 2.269325 1_555
Ca6 O17 2.430704 1_555
Ca6 O42 2.436302 1_555
Ca6 O28 2.473631 1_555
Ca6 O10 2.481144 1_555
Ca6 O12 2.622965 1_555
Ca6 O30 2.630688 1_555
Ca7 O35 2.274116 1_555
Ca7 O47 2.431141 1_445
Ca7 O27 2.431190 1_455
Ca7 O19 2.469445 1_555
Ca7 O37 2.469829 1_545
Ca7 O21 2.616128 1_545
Ca7 O39 2.624155 1_555
Ca8 O43 2.276074 1_655
Ca8 O36 2.431255 1_555
Ca8 O49 2.431696 1_555
Ca8 O44 2.466529 1_655
Ca8 O29 2.472167 1_555
Ca8 O45 2.613137 1_655
Ca8 O31 2.631423 1_555
O0 Si2 1.637244 1_555
O0 Ti0 1.952744 1_555
O1 Ti0 1.862741 1_555
O1 Ti7 1.893679 1_456
O2 Si4 1.644587 1_555
O2 Ti2 1.989693 1_455
O3 Si0 1.648276 1_455
O3 Ti7 1.979163 1_456
O4 Si0 1.662453 1_555
O4 Ta0 2.045735 1_555
O5 Si2 1.647461 1_555
O5 Ti0 1.993941 1_655
O6 Ta0 1.907315 1_555
O6 Ti2 1.916982 1_555
O7 Si6 1.647777 1_555
O7 Ti4 1.999301 1_565
O8 Si1 1.657284 1_555
O8 Ta0 2.048023 1_565
O9 Si0 1.653706 1_565
O9 Ti0 2.072896 1_555
O10 Si1 1.653704 1_555
O10 Ti1 2.052109 1_555
O11 Si2 1.651900 1_555
O11 Ti7 2.043410 1_556
O12 Si4 1.652293 1_555
O12 Ti2 2.076752 1_555
O13 Si2 1.652070 1_555
O13 Ta0 1.981541 1_555
O14 Ti1 1.866447 1_555
O14 Ti4 1.895506 1_565
O15 Si8 1.648258 1_555
O15 Ti6 1.996275 1_555
O16 Ti0 1.922483 1_555
O16 Ta0 1.949674 1_565
O17 Si3 1.647298 1_555
O17 Ti1 2.006174 1_555
O18 Si1 1.646832 1_555
O18 Ti2 2.000830 1_455
O19 Si3 1.656137 1_555
O19 Ti3 2.040088 1_455
O20 Si4 1.658972 1_555
O20 Ta0 2.029182 1_555
O21 Si6 1.655726 1_455
O21 Ti4 2.043043 1_565
O22 Si4 1.648143 1_565
O22 Ti1 1.982585 1_555
O23 Ti3 1.872124 1_455
O23 Ti6 1.896396 1_555
O24 Si9 1.649370 1_645
O24 Ti8 1.995778 1_555
O25 Si0 1.641088 1_465
O25 Ti0 2.033572 1_555
O26 Ti2 1.861878 1_555
O26 Ti1 1.904926 1_655
O27 Si5 1.648564 1_545
O27 Ti3 1.996972 1_555
O28 Si3 1.656380 1_655
O28 Ti4 2.044111 1_555
O29 Si5 1.655622 1_555
O29 Ti5 2.040056 1_555
O30 Si6 1.654874 1_555
O30 Ti1 2.035526 1_655
O31 Si8 1.655824 1_555
O31 Ti6 2.041015 1_655
O32 Si6 1.648621 1_555
O32 Ti3 1.997684 1_555
O33 Ti5 1.879332 1_545
O33 Ti8 1.886942 1_555
O34 Si1 1.644296 1_555
O34 Ti2 1.997055 1_555
O35 Ti4 1.868835 1_555
O35 Ti3 1.899565 1_555
O36 Si7 1.649299 1_555
O36 Ti5 1.996737 1_555
O37 Si5 1.655937 1_555
O37 Ti6 2.042892 1_555
O38 Si7 1.654999 1_555
O38 Ti7 2.036943 1_455
O39 Si8 1.655689 1_555
O39 Ti3 2.040548 1_555
O40 Si9 1.655809 1_545
O40 Ti8 2.039127 1_555
O41 Si8 1.648655 1_555
O41 Ti5 1.999006 1_545
O42 Si3 1.649269 1_555
O42 Ti4 1.999534 1_555
O43 Ti6 1.875994 1_555
O43 Ti5 1.892589 1_555
O44 Si7 1.656319 1_555
O44 Ti8 2.044794 1_455
O45 Si9 1.657247 1_555
O45 Ti5 2.040307 1_555
O46 Si9 1.646113 1_655
O46 Ti7 2.010853 1_555
O47 Si5 1.648487 1_555
O47 Ti6 1.997468 1_655
O48 Ti7 1.879064 1_555
O48 Ti8 1.881121 1_555
O49 Si7 1.648428 1_555
O49 Ti8 2.000149 1_555
