# generated using pymatgen
data_Li6Mn3Sb3O16
_symmetry_space_group_name_H-M   'P 1'
_cell_length_a   6.08608924
_cell_length_b   6.08608924
_cell_length_c   10.03025962
_cell_angle_alpha   89.78383174
_cell_angle_beta   89.78383174
_cell_angle_gamma   59.40592476
_symmetry_Int_Tables_number   1
_chemical_formula_structural   Li6Mn3Sb3O16
_chemical_formula_sum   'Li6 Mn3 Sb3 O16'
_cell_volume   319.80428177
_cell_formula_units_Z   1
loop_
 _symmetry_equiv_pos_site_id
 _symmetry_equiv_pos_as_xyz
  1  'x, y, z'
loop_
 _atom_site_type_symbol
 _atom_site_label
 _atom_site_symmetry_multiplicity
 _atom_site_fract_x
 _atom_site_fract_y
 _atom_site_fract_z
 _atom_site_occupancy
  Li  Li0  1  0.66889300  0.66889300  0.50640100  1
  Li  Li1  1  0.66390800  0.66390800  0.87419900  1
  Li  Li2  1  0.98658000  0.98658000  0.99769900  1
  Li  Li3  1  0.99325600  0.99325600  0.50661100  1
  Li  Li4  1  0.34169900  0.34169900  0.99425500  1
  Li  Li5  1  0.33084200  0.33084200  0.38221500  1
  Mn  Mn0  1  0.83406200  0.83406200  0.21877200  1
  Mn  Mn1  1  0.66425400  0.16865700  0.71618400  1
  Mn  Mn2  1  0.16865700  0.66425400  0.71618400  1
  Sb  Sb0  1  0.83341100  0.33846400  0.21451700  1
  Sb  Sb1  1  0.33846400  0.83341100  0.21451700  1
  Sb  Sb2  1  0.16961800  0.16961800  0.71688000  1
  O  O0  1  0.84358800  0.30623600  0.61199000  1
  O  O1  1  0.51396000  0.51396000  0.32888600  1
  O  O2  1  0.65366700  0.65366700  0.09454000  1
  O  O3  1  0.01636500  0.01636500  0.32769500  1
  O  O4  1  0.99503200  0.99503200  0.81624400  1
  O  O5  1  0.30623600  0.84358800  0.61199000  1
  O  O6  1  0.96960300  0.51566700  0.32043300  1
  O  O7  1  0.51566700  0.96960300  0.32043300  1
  O  O8  1  0.15342500  0.15342500  0.09927500  1
  O  O9  1  0.84878600  0.84878600  0.61743600  1
  O  O10  1  0.49090000  0.03056100  0.82257500  1
  O  O11  1  0.03056100  0.49090000  0.82257500  1
  O  O12  1  0.33931900  0.33931900  0.60891800  1
  O  O13  1  0.69581200  0.15329700  0.11465300  1
  O  O14  1  0.48070200  0.48070200  0.81711100  1
  O  O15  1  0.15329700  0.69581200  0.11465300  1
loop_
_geom_bond_atom_site_label_1
_geom_bond_atom_site_label_2
_geom_bond_distance
_geom_bond_site_symmetry_2
Li0 O0 2.173892 1_555
Li0 O5 2.173892 1_555
Li0 O9 2.208228 1_555
Li0 O1 2.424644 1_555
Li0 O6 2.438968 1_555
Li0 O7 2.438968 1_555
Li1 O11 1.989981 1_655
Li1 O10 1.989981 1_565
Li1 O14 2.022252 1_555
Li1 O2 2.212258 1_556
Li2 O4 1.821845 1_555
Li2 O15 1.924281 1_656
Li2 O13 1.924281 1_566
Li2 O8 2.040934 1_666
Li3 O3 1.810078 1_665
Li3 O9 1.885215 1_555
Li3 O5 1.953729 1_655
Li3 O0 1.953729 1_565
Li4 O13 2.216216 1_556
Li4 O15 2.216216 1_556
Li4 O8 2.248073 1_556
Li4 O14 2.300917 1_555
Li4 O10 2.374472 1_555
Li4 O11 2.374472 1_555
Li5 O7 1.992629 1_545
Li5 O6 1.992629 1_455
Li5 O1 2.006368 1_555
Li5 O12 2.276045 1_555
Mn0 O6 1.959477 1_555
Mn0 O7 1.959477 1_555
Mn0 O15 1.975027 1_655
Mn0 O13 1.975027 1_565
Mn0 O3 2.219685 1_665
Mn0 O2 2.282782 1_555
Mn1 O14 1.930257 1_555
Mn1 O9 1.952655 1_545
Mn1 O10 1.961024 1_555
Mn1 O0 1.974742 1_555
Mn1 O4 2.004619 1_545
Mn1 O12 2.015945 1_555
Mn2 O14 1.930257 1_555
Mn2 O9 1.952655 1_455
Mn2 O11 1.961024 1_555
Mn2 O5 1.974742 1_555
Mn2 O4 2.004619 1_455
Mn2 O12 2.015945 1_555
O0 Sb2 2.016237 1_655
O1 Sb0 2.028635 1_555
O1 Sb1 2.028635 1_555
O2 Sb1 2.044831 1_555
O2 Sb0 2.044831 1_555
O3 Sb1 2.035258 1_545
O3 Sb0 2.035258 1_455
O4 Sb2 2.093932 1_665
O5 Sb2 2.016237 1_565
O6 Sb0 1.975848 1_555
O7 Sb1 1.975848 1_555
O8 Sb0 2.039081 1_455
O8 Sb1 2.039081 1_545
O10 Sb2 1.996988 1_555
O11 Sb2 1.996988 1_555
O12 Sb2 2.091647 1_555
O13 Sb0 1.987492 1_555
O15 Sb1 1.987492 1_555
