# generated using pymatgen
data_V5Cr(PO4)6
_symmetry_space_group_name_H-M   'P 1'
_cell_length_a   8.53520643
_cell_length_b   8.53520643
_cell_length_c   8.53520556
_cell_angle_alpha   60.55284028
_cell_angle_beta   60.55284028
_cell_angle_gamma   60.55283621
_symmetry_Int_Tables_number   1
_chemical_formula_structural   V5Cr(PO4)6
_chemical_formula_sum   'V5 Cr1 P6 O24'
_cell_volume   445.16159881
_cell_formula_units_Z   1
loop_
 _symmetry_equiv_pos_site_id
 _symmetry_equiv_pos_as_xyz
  1  'x, y, z'
loop_
 _atom_site_type_symbol
 _atom_site_label
 _atom_site_symmetry_multiplicity
 _atom_site_fract_x
 _atom_site_fract_y
 _atom_site_fract_z
 _atom_site_occupancy
  V  V0  1  0.99975900  0.99975900  0.99975900  1
  V  V1  1  0.64321000  0.64321000  0.64321000  1
  V  V2  1  0.50086100  0.50086100  0.50086100  1
  V  V3  1  0.85702400  0.85702400  0.85702400  1
  V  V4  1  0.35655200  0.35655200  0.35655200  1
  Cr  Cr0  1  0.14172000  0.14172000  0.14172000  1
  P  P0  1  0.95699400  0.25060400  0.54080600  1
  P  P1  1  0.54080600  0.95699400  0.25060400  1
  P  P2  1  0.25060400  0.54080600  0.95699400  1
  P  P3  1  0.75017600  0.45558100  0.04356700  1
  P  P4  1  0.45558100  0.04356700  0.75017600  1
  P  P5  1  0.04356700  0.75017600  0.45558100  1
  O  O0  1  0.50159200  0.11628700  0.31591900  1
  O  O1  1  0.31591900  0.50159200  0.11628700  1
  O  O2  1  0.11628700  0.31591900  0.50159200  1
  O  O3  1  0.94251400  0.09005100  0.74146300  1
  O  O4  1  0.99310900  0.18701700  0.38576200  1
  O  O5  1  0.75835700  0.40977700  0.56191800  1
  O  O6  1  0.74146300  0.94251400  0.09005100  1
  O  O7  1  0.56191800  0.75835700  0.40977700  1
  O  O8  1  0.81509800  0.61351100  0.00493600  1
  O  O9  1  0.40977700  0.56191800  0.75835700  1
  O  O10  1  0.91013500  0.25722800  0.05876000  1
  O  O11  1  0.61351100  0.00493600  0.81509800  1
  O  O12  1  0.38576200  0.99310900  0.18701700  1
  O  O13  1  0.09005100  0.74146300  0.94251400  1
  O  O14  1  0.58839900  0.43874700  0.24342500  1
  O  O15  1  0.18701700  0.38576200  0.99310900  1
  O  O16  1  0.43874700  0.24342500  0.58839900  1
  O  O17  1  0.25722800  0.05876000  0.91013500  1
  O  O18  1  0.24342500  0.58839900  0.43874700  1
  O  O19  1  0.00493600  0.81509800  0.61351100  1
  O  O20  1  0.05876000  0.91013500  0.25722800  1
  O  O21  1  0.88894000  0.68228400  0.49790500  1
  O  O22  1  0.68228400  0.49790500  0.88894000  1
  O  O23  1  0.49790500  0.88894000  0.68228400  1
loop_
_geom_bond_atom_site_label_1
_geom_bond_atom_site_label_2
_geom_bond_distance
_geom_bond_site_symmetry_2
Cr0 O4 1.951640 1_455
Cr0 O12 1.951640 1_545
Cr0 O15 1.951640 1_554
Cr0 O17 2.038160 1_554
Cr0 O10 2.038160 1_455
Cr0 O20 2.038160 1_545
O0 P1 1.544560 1_545
O0 V4 1.907677 1_555
O1 P2 1.544559 1_554
O1 V4 1.907677 1_555
O2 P0 1.544560 1_455
O2 V4 1.907677 1_555
O3 P0 1.573884 1_555
O3 V3 2.061934 1_545
O3 V0 2.170553 1_545
O4 P0 1.510424 1_555
O5 P0 1.558264 1_555
O5 V1 2.044607 1_555
O5 V2 2.180375 1_555
O6 P1 1.573884 1_555
O6 V3 2.061933 1_554
O6 V0 2.170553 1_554
O7 P1 1.558264 1_555
O7 V1 2.044607 1_555
O7 V2 2.180375 1_555
O8 P3 1.533149 1_555
O8 V3 1.936203 1_554
O9 P2 1.558264 1_555
O9 V1 2.044607 1_555
O9 V2 2.180375 1_555
O10 P3 1.559666 1_555
O10 V0 2.173584 1_544
O11 P4 1.533149 1_555
O11 V3 1.936203 1_545
O12 P1 1.510425 1_555
O13 P2 1.573884 1_555
O13 V3 2.061933 1_455
O13 V0 2.170553 1_455
O14 P3 1.573294 1_555
O14 V4 2.039768 1_555
O14 V2 2.192946 1_555
O15 P2 1.510425 1_555
O16 P4 1.573294 1_555
O16 V4 2.039768 1_555
O16 V2 2.192946 1_555
O17 P4 1.559666 1_555
O17 V0 2.173584 1_445
O18 P5 1.573294 1_555
O18 V4 2.039768 1_555
O18 V2 2.192946 1_555
O19 P5 1.533149 1_555
O19 V3 1.936203 1_455
O20 P5 1.559666 1_555
O20 V0 2.173584 1_454
O21 P5 1.511770 1_655
O21 V1 1.942100 1_555
O22 P3 1.511770 1_556
O22 V1 1.942099 1_555
O23 P4 1.511770 1_565
O23 V1 1.942099 1_555
