# generated using pymatgen
data_Mn7P12WO48
_symmetry_space_group_name_H-M   'P 1'
_cell_length_a   8.49952800
_cell_length_b   8.51644592
_cell_length_c   11.84655509
_cell_angle_alpha   89.95924693
_cell_angle_beta   89.92899059
_cell_angle_gamma   89.95252960
_symmetry_Int_Tables_number   1
_chemical_formula_structural   Mn7P12WO48
_chemical_formula_sum   'Mn7 P12 W1 O48'
_cell_volume   857.52084948
_cell_formula_units_Z   1
loop_
 _symmetry_equiv_pos_site_id
 _symmetry_equiv_pos_as_xyz
  1  'x, y, z'
loop_
 _atom_site_type_symbol
 _atom_site_label
 _atom_site_symmetry_multiplicity
 _atom_site_fract_x
 _atom_site_fract_y
 _atom_site_fract_z
 _atom_site_occupancy
  Mn  Mn0  1  0.03213000  0.24930700  0.61871300  1
  Mn  Mn1  1  0.46547300  0.25078000  0.38052500  1
  Mn  Mn2  1  0.96490500  0.24973900  0.11765300  1
  Mn  Mn3  1  0.53454200  0.25047400  0.88312000  1
  Mn  Mn4  1  0.46461300  0.75062400  0.11963100  1
  Mn  Mn5  1  0.03378600  0.74994600  0.88357000  1
  Mn  Mn6  1  0.96712500  0.74926200  0.38128900  1
  P  P0  1  0.75565000  0.04325600  0.49639400  1
  P  P1  1  0.60764800  0.10656200  0.14583700  1
  P  P2  1  0.89153000  0.10667600  0.85505300  1
  P  P3  1  0.39056500  0.38276300  0.64621400  1
  P  P4  1  0.10769500  0.39243500  0.35473300  1
  P  P5  1  0.24978300  0.46360400  0.00058400  1
  P  P6  1  0.74959000  0.53728000  0.00048200  1
  P  P7  1  0.60854500  0.60363800  0.34916300  1
  P  P8  1  0.90241700  0.60372000  0.64580300  1
  P  P9  1  0.38732900  0.89908600  0.86139700  1
  P  P10  1  0.10781900  0.89320200  0.14576900  1
  P  P11  1  0.24259000  0.96795600  0.49600400  1
  W  W0  1  0.53234700  0.75032200  0.62084200  1
  O  O0  1  0.35606900  0.06207200  0.42297500  1
  O  O1  1  0.13937500  0.05937400  0.57823700  1
  O  O2  1  0.09867600  0.07459300  0.15897700  1
  O  O3  1  0.39865700  0.07724600  0.84401700  1
  O  O4  1  0.84054800  0.14694500  0.58259000  1
  O  O5  1  0.65634200  0.14446700  0.41772500  1
  O  O6  1  0.56182900  0.15861200  0.02669400  1
  O  O7  1  0.93857200  0.15922000  0.97365900  1
  O  O8  1  0.77810000  0.15301700  0.17636500  1
  O  O9  1  0.72146000  0.15253400  0.82428100  1
  O  O10  1  0.48610400  0.18021500  0.22721600  1
  O  O11  1  0.01332600  0.17877200  0.77233900  1
  O  O12  1  0.98621500  0.32034700  0.27195600  1
  O  O13  1  0.51310000  0.31665100  0.72821600  1
  O  O14  1  0.21958400  0.34714800  0.67654200  1
  O  O15  1  0.27772000  0.34732200  0.32333500  1
  O  O16  1  0.43621100  0.34011700  0.52625900  1
  O  O17  1  0.06100600  0.33979100  0.47357800  1
  O  O18  1  0.15902400  0.35316600  0.08159600  1
  O  O19  1  0.34191800  0.35552800  0.91926900  1
  O  O20  1  0.90099300  0.42414300  0.65967000  1
  O  O21  1  0.60194000  0.42359500  0.34396900  1
  O  O22  1  0.85950600  0.44061600  0.07685300  1
  O  O23  1  0.64113400  0.44109000  0.92283700  1
  O  O24  1  0.35866200  0.55994700  0.07743500  1
  O  O25  1  0.14027800  0.55983200  0.92349600  1
  O  O26  1  0.40802200  0.56866300  0.65611000  1
  O  O27  1  0.09977700  0.57408500  0.34136800  1
  O  O28  1  0.65844400  0.64612000  0.08196800  1
  O  O29  1  0.84015200  0.64666100  0.91821800  1
  O  O30  1  0.93995800  0.65796000  0.52673600  1
  O  O31  1  0.56210400  0.66245100  0.47160800  1
  O  O32  1  0.77774800  0.65362500  0.32425200  1
  O  O33  1  0.72565100  0.65292700  0.67131700  1
  O  O34  1  0.48531200  0.67996500  0.27220300  1
  O  O35  1  0.01538200  0.68374300  0.72826500  1
  O  O36  1  0.98626800  0.81899000  0.22760300  1
  O  O37  1  0.50610300  0.82417200  0.77217300  1
  O  O38  1  0.27788600  0.84748500  0.17661600  1
  O  O39  1  0.22204600  0.84720700  0.82573400  1
  O  O40  1  0.43969800  0.84013800  0.97500000  1
  O  O41  1  0.06154500  0.84151200  0.02680000  1
  O  O42  1  0.34484900  0.85754500  0.57598000  1
  O  O43  1  0.15824100  0.85290100  0.41783600  1
  O  O44  1  0.89945100  0.92520100  0.84236700  1
  O  O45  1  0.59946800  0.92552000  0.15912700  1
  O  O46  1  0.86160400  0.94122200  0.42267400  1
  O  O47  1  0.64786600  0.93491300  0.57318700  1
loop_
_geom_bond_atom_site_label_1
_geom_bond_atom_site_label_2
_geom_bond_distance
_geom_bond_site_symmetry_2
Mn0 O4 1.897168 1_455
Mn0 O17 1.899371 1_555
Mn0 O1 1.916995 1_555
Mn0 O20 1.921395 1_455
Mn0 O11 1.922616 1_555
Mn0 O14 1.925584 1_555
Mn1 O16 1.903111 1_555
Mn1 O5 1.909081 1_555
Mn1 O15 1.918683 1_555
Mn1 O10 1.921202 1_555
Mn1 O21 1.923462 1_555
Mn1 O0 1.923690 1_555
Mn2 O7 1.886094 1_554
Mn2 O22 1.917354 1_555
Mn2 O18 1.918510 1_655
Mn2 O8 1.918821 1_555
Mn2 O12 1.933495 1_555
Mn2 O2 1.937748 1_655
Mn3 O6 1.886145 1_556
Mn3 O19 1.913296 1_555
Mn3 O23 1.918879 1_555
Mn3 O9 1.923925 1_555
Mn3 O13 1.928096 1_555
Mn3 O3 1.931349 1_555
Mn4 O40 1.886916 1_554
Mn4 O38 1.910768 1_555
Mn4 O34 1.912857 1_555
Mn4 O28 1.923969 1_555
Mn4 O24 1.924202 1_555
Mn4 O45 1.938154 1_555
Mn5 O41 1.883091 1_556
Mn5 O29 1.910778 1_455
Mn5 O25 1.913633 1_555
Mn5 O39 1.927332 1_555
Mn5 O35 1.931233 1_555
Mn5 O44 1.940915 1_455
Mn6 O43 1.899953 1_655
Mn6 O30 1.903739 1_555
Mn6 O36 1.921397 1_555
Mn6 O46 1.927434 1_555
Mn6 O32 1.927813 1_555
Mn6 O27 1.928078 1_655
O0 P11 1.522974 1_545
O1 P11 1.524014 1_545
O2 P10 1.554691 1_545
O3 P9 1.534138 1_545
O4 P0 1.532109 1_555
O5 P0 1.524327 1_555
O6 P1 1.529867 1_555
O7 P2 1.528701 1_555
O8 P1 1.545535 1_555
O9 P2 1.541136 1_555
O10 P1 1.545126 1_555
O11 P2 1.551288 1_455
O12 P4 1.552113 1_655
O13 P3 1.531721 1_555
O14 P3 1.527194 1_555
O15 P4 1.540235 1_555
O16 P3 1.516890 1_555
O17 P4 1.529278 1_555
O18 P5 1.548812 1_555
O19 P5 1.544856 1_556
O20 P8 1.538095 1_555
O21 P7 1.535680 1_555
O22 P6 1.539094 1_555
O23 P6 1.539919 1_556
O24 P5 1.537171 1_555
O25 P5 1.540018 1_556
O26 P3 1.594679 1_555
O26 W0 1.919730 1_555
O27 P4 1.556390 1_555
O28 P6 1.545783 1_555
O29 P6 1.551782 1_556
O30 P8 1.517564 1_555
O31 P7 1.584321 1_555
O31 W0 1.936480 1_555
O32 P7 1.528518 1_555
O33 P8 1.588167 1_555
O33 W0 1.935058 1_555
O34 P7 1.533379 1_555
O35 P8 1.531345 1_455
O36 P10 1.550602 1_655
O37 P9 1.593948 1_555
O37 W0 1.913023 1_555
O38 P10 1.541020 1_555
O39 P9 1.532973 1_555
O40 P9 1.503828 1_555
O41 P10 1.528841 1_555
O42 P11 1.592693 1_555
O42 W0 1.911808 1_555
O43 P11 1.528308 1_555
O44 P2 1.554313 1_565
O45 P1 1.551348 1_565
O46 P0 1.525335 1_565
O47 P0 1.586313 1_565
O47 W0 1.937537 1_555
