# generated using pymatgen
data_Li2VCr3O8
_symmetry_space_group_name_H-M   'P 1'
_cell_length_a   5.90701263
_cell_length_b   5.90697633
_cell_length_c   9.38588200
_cell_angle_alpha   89.99936257
_cell_angle_beta   90.00067862
_cell_angle_gamma   119.73662656
_symmetry_Int_Tables_number   1
_chemical_formula_structural   Li2VCr3O8
_chemical_formula_sum   'Li4 V2 Cr6 O16'
_cell_volume   284.37101599
_cell_formula_units_Z   2
loop_
 _symmetry_equiv_pos_site_id
 _symmetry_equiv_pos_as_xyz
  1  'x, y, z'
loop_
 _atom_site_type_symbol
 _atom_site_label
 _atom_site_symmetry_multiplicity
 _atom_site_fract_x
 _atom_site_fract_y
 _atom_site_fract_z
 _atom_site_occupancy
  Li  Li0  1  0.33337500  0.66663000  0.89825900  1
  Li  Li1  1  0.66662800  0.33340100  0.39826000  1
  Li  Li2  1  0.00022800  0.99979500  0.99341600  1
  Li  Li3  1  0.99977700  0.00023400  0.49340900  1
  V  V0  1  0.33341700  0.66658500  0.49442300  1
  V  V1  1  0.66658100  0.33343700  0.99442600  1
  Cr  Cr0  1  0.17129000  0.34401100  0.21519000  1
  Cr  Cr1  1  0.65600900  0.82873400  0.21519100  1
  Cr  Cr2  1  0.34398500  0.17128900  0.71519400  1
  Cr  Cr3  1  0.82872400  0.65601700  0.71519100  1
  Cr  Cr4  1  0.17298800  0.82701900  0.21535500  1
  Cr  Cr5  1  0.82703800  0.17295600  0.71535200  1
  O  O0  1  0.33416500  0.66585000  0.10353900  1
  O  O1  1  0.66584100  0.33416800  0.60354000  1
  O  O2  1  0.00000400  0.00001200  0.30616300  1
  O  O3  1  0.00000700  0.00000300  0.80616400  1
  O  O4  1  0.17438700  0.82562000  0.59117000  1
  O  O5  1  0.17443800  0.34911800  0.59094600  1
  O  O6  1  0.34911400  0.17444200  0.09094300  1
  O  O7  1  0.65088700  0.82556900  0.59094600  1
  O  O8  1  0.82556600  0.65088800  0.09094300  1
  O  O9  1  0.82561800  0.17439600  0.09117200  1
  O  O10  1  0.04392100  0.52231300  0.34709500  1
  O  O11  1  0.47770100  0.95609700  0.34709200  1
  O  O12  1  0.47706000  0.52294800  0.34516200  1
  O  O13  1  0.52290200  0.47710800  0.84515400  1
  O  O14  1  0.52230100  0.04395700  0.84707600  1
  O  O15  1  0.95605000  0.47770200  0.84707300  1
loop_
_geom_bond_atom_site_label_1
_geom_bond_atom_site_label_2
_geom_bond_distance
_geom_bond_site_symmetry_2
Li0 O0 1.926750 1_556
Li0 O14 1.994109 1_565
Li0 O15 1.994117 1_455
Li0 O13 1.999612 1_555
Li1 O1 1.926750 1_555
Li1 O10 1.993917 1_655
Li1 O11 1.993967 1_545
Li1 O12 1.999910 1_555
Li2 O3 1.757527 1_565
Li2 O9 2.006175 1_466
Li2 O6 2.010036 1_566
Li2 O8 2.010123 1_456
Li3 O2 1.757470 1_655
Li3 O4 2.006233 1_645
Li3 O5 2.010071 1_655
Li3 O7 2.010109 1_545
Cr0 O0 1.955378 1_555
Cr0 O2 1.960158 1_555
Cr0 O12 1.993432 1_555
Cr0 O10 1.998562 1_555
Cr0 O9 2.120982 1_455
Cr0 O6 2.123767 1_555
Cr1 O0 1.955412 1_555
Cr1 O2 1.960144 1_665
Cr1 O12 1.993487 1_555
Cr1 O11 1.998543 1_555
Cr1 O9 2.120936 1_565
Cr1 O8 2.123816 1_555
Cr2 O1 1.955486 1_555
Cr2 O3 1.960069 1_555
Cr2 O13 1.993544 1_555
Cr2 O14 1.998324 1_555
Cr2 O4 2.121004 1_545
Cr2 O5 2.123674 1_555
Cr3 O1 1.955432 1_555
Cr3 O3 1.960107 1_665
Cr3 O13 1.993576 1_555
Cr3 O15 1.998295 1_555
Cr3 O4 2.120973 1_655
Cr3 O7 2.123715 1_555
Cr4 O0 1.952803 1_555
Cr4 O2 1.962304 1_565
Cr4 O10 1.997113 1_555
Cr4 O11 1.997128 1_555
Cr4 O6 2.130602 1_565
Cr4 O8 2.130606 1_455
Cr5 O1 1.953031 1_555
Cr5 O3 1.962047 1_655
Cr5 O14 1.997200 1_555
Cr5 O15 1.997206 1_555
Cr5 O7 2.130431 1_545
Cr5 O5 2.130497 1_655
O4 V0 1.861454 1_555
O5 V0 1.863399 1_555
O6 V1 1.863391 1_554
O7 V0 1.863420 1_555
O8 V1 1.863309 1_554
O9 V1 1.861486 1_554
O10 V0 2.029030 1_555
O11 V0 2.029104 1_555
O12 V0 2.028971 1_555
O13 V1 2.029274 1_555
O14 V1 2.029117 1_555
O15 V1 2.029103 1_555
