# generated using pymatgen
data_Na4Zr2Ge5O17
_symmetry_space_group_name_H-M   'P 1'
_cell_length_a   5.53698200
_cell_length_b   7.19312600
_cell_length_c   21.46822701
_cell_angle_alpha   72.99405305
_cell_angle_beta   90.00000000
_cell_angle_gamma   90.00000000
_symmetry_Int_Tables_number   1
_chemical_formula_structural   Na4Zr2Ge5O17
_chemical_formula_sum   'Na8 Zr4 Ge10 O34'
_cell_volume   817.65385773
_cell_formula_units_Z   2
loop_
 _symmetry_equiv_pos_site_id
 _symmetry_equiv_pos_as_xyz
  1  'x, y, z'
loop_
 _atom_site_type_symbol
 _atom_site_label
 _atom_site_symmetry_multiplicity
 _atom_site_fract_x
 _atom_site_fract_y
 _atom_site_fract_z
 _atom_site_occupancy
  Na  Na0  1  0.99298900  0.24975900  0.28842000  1
  Na  Na1  1  0.99298900  0.75024100  0.21158000  1
  Na  Na2  1  0.00701100  0.75024100  0.71158000  1
  Na  Na3  1  0.00701100  0.24975900  0.78842000  1
  Na  Na4  1  0.76024000  0.38492000  0.47365100  1
  Na  Na5  1  0.76024000  0.61508000  0.02634900  1
  Na  Na6  1  0.23976000  0.61508000  0.52634900  1
  Na  Na7  1  0.23976000  0.38492000  0.97365100  1
  Zr  Zr0  1  0.76563500  0.88487400  0.41073500  1
  Zr  Zr1  1  0.76563500  0.11512600  0.08926500  1
  Zr  Zr2  1  0.23436500  0.11512600  0.58926500  1
  Zr  Zr3  1  0.23436500  0.88487400  0.91073500  1
  Ge  Ge0  1  0.28621700  0.19223300  0.42147800  1
  Ge  Ge1  1  0.28621700  0.80776700  0.07852200  1
  Ge  Ge2  1  0.71378300  0.80776700  0.57852200  1
  Ge  Ge3  1  0.71378300  0.19223300  0.92147800  1
  Ge  Ge4  1  0.25789500  0.35225200  0.13506400  1
  Ge  Ge5  1  0.25789500  0.64774800  0.36493600  1
  Ge  Ge6  1  0.74210500  0.64774800  0.86493600  1
  Ge  Ge7  1  0.74210500  0.35225200  0.63506400  1
  Ge  Ge8  1  0.49131900  0.00000000  0.25000000  1
  Ge  Ge9  1  0.50868100  0.00000000  0.75000000  1
  O  O0  1  0.09045200  0.04196700  0.39369700  1
  O  O1  1  0.09045200  0.95803300  0.10630300  1
  O  O2  1  0.90954800  0.95803300  0.60630300  1
  O  O3  1  0.90954800  0.04196700  0.89369700  1
  O  O4  1  0.58798100  0.11555500  0.43583000  1
  O  O5  1  0.58798100  0.88444500  0.06417000  1
  O  O6  1  0.41201900  0.88444500  0.56417000  1
  O  O7  1  0.41201900  0.11555500  0.93583000  1
  O  O8  1  0.66869000  0.02784700  0.31348800  1
  O  O9  1  0.66869000  0.97215300  0.18651200  1
  O  O10  1  0.33131000  0.97215300  0.68651200  1
  O  O11  1  0.33131000  0.02784700  0.81348800  1
  O  O12  1  0.16888700  0.25375300  0.48927900  1
  O  O13  1  0.16888700  0.74624700  0.01072100  1
  O  O14  1  0.83111300  0.74624700  0.51072100  1
  O  O15  1  0.83111300  0.25375300  0.98927900  1
  O  O16  1  0.95973200  0.34392300  0.10959700  1
  O  O17  1  0.95973200  0.65607700  0.39040300  1
  O  O18  1  0.04026800  0.65607700  0.89040300  1
  O  O19  1  0.04026800  0.34392300  0.60959700  1
  O  O20  1  0.46710300  0.31137900  0.07935600  1
  O  O21  1  0.46710300  0.68862100  0.42064400  1
  O  O22  1  0.53289700  0.68862100  0.92064400  1
  O  O23  1  0.53289700  0.31137900  0.57935600  1
  O  O24  1  0.29220400  0.41175500  0.35264300  1
  O  O25  1  0.29220400  0.58824500  0.14735700  1
  O  O26  1  0.70779600  0.58824500  0.64735700  1
  O  O27  1  0.70779600  0.41175500  0.85264300  1
  O  O28  1  0.28658800  0.19943200  0.21775200  1
  O  O29  1  0.28658800  0.80056800  0.28224800  1
  O  O30  1  0.71341200  0.80056800  0.78224800  1
  O  O31  1  0.71341200  0.19943200  0.71775200  1
  O  O32  1  0.69444400  0.50000000  0.25000000  1
  O  O33  1  0.30555600  0.50000000  0.75000000  1
loop_
_geom_bond_atom_site_label_1
_geom_bond_atom_site_label_2
_geom_bond_distance
_geom_bond_site_symmetry_2
Na0 O28 2.323079 1_655
Na0 O8 2.357845 1_555
Na0 O0 2.378521 1_655
Na0 O32 2.405089 1_555
Na0 O24 2.635028 1_655
Na1 O29 2.323079 1_655
Na1 O9 2.357845 1_555
Na1 O1 2.378521 1_655
Na1 O32 2.405089 1_555
Na1 O25 2.635028 1_655
Na2 O30 2.323079 1_455
Na2 O10 2.357845 1_555
Na2 O2 2.378521 1_455
Na2 O33 2.405089 1_555
Na2 O26 2.635028 1_455
Na3 O31 2.323079 1_455
Na3 O11 2.357845 1_555
Na3 O3 2.378521 1_455
Na3 O33 2.405089 1_555
Na3 O27 2.635028 1_455
Na4 O12 2.436652 1_655
Na4 O17 2.485849 1_555
Na4 O4 2.498685 1_555
Na4 O23 2.512355 1_555
Na4 O21 2.692130 1_555
Na4 O14 2.958446 1_555
Na5 O13 2.436652 1_655
Na5 O16 2.485849 1_555
Na5 O5 2.498685 1_555
Na5 O22 2.512355 1_554
Na5 O20 2.692130 1_555
Na5 O15 2.958446 1_554
Na6 O14 2.436652 1_455
Na6 O19 2.485849 1_555
Na6 O6 2.498685 1_555
Na6 O21 2.512355 1_555
Na6 O23 2.692130 1_555
Na6 O12 2.958446 1_555
Na7 O15 2.436652 1_455
Na7 O18 2.485849 1_555
Na7 O7 2.498685 1_555
Na7 O20 2.512355 1_556
Na7 O22 2.692130 1_555
Na7 O13 2.958446 1_556
Ge0 O0 1.753862 1_555
Ge0 O4 1.758272 1_555
Ge0 O12 1.764461 1_555
Ge0 O24 1.820260 1_555
Ge1 O1 1.753862 1_555
Ge1 O5 1.758272 1_555
Ge1 O13 1.764461 1_555
Ge1 O25 1.820260 1_555
Ge2 O2 1.753862 1_555
Ge2 O6 1.758272 1_555
Ge2 O14 1.764461 1_555
Ge2 O26 1.820260 1_555
Ge3 O3 1.753862 1_555
Ge3 O7 1.758272 1_555
Ge3 O15 1.764461 1_555
Ge3 O27 1.820260 1_555
Ge4 O16 1.745627 1_455
Ge4 O20 1.750503 1_555
Ge4 O28 1.800938 1_555
Ge4 O25 1.802605 1_555
Ge5 O17 1.745627 1_455
Ge5 O21 1.750503 1_555
Ge5 O29 1.800938 1_555
Ge5 O24 1.802605 1_555
Ge6 O18 1.745627 1_655
Ge6 O22 1.750503 1_555
Ge6 O30 1.800938 1_555
Ge6 O27 1.802605 1_555
Ge7 O19 1.745627 1_655
Ge7 O23 1.750503 1_555
Ge7 O31 1.800938 1_555
Ge7 O26 1.802605 1_555
Ge8 O9 1.738402 1_545
Ge8 O8 1.738402 1_555
Ge8 O28 1.800359 1_555
Ge8 O29 1.800359 1_545
Ge9 O10 1.738402 1_545
Ge9 O11 1.738402 1_555
Ge9 O31 1.800359 1_555
Ge9 O30 1.800359 1_545
O0 Zr0 2.098457 1_445
O1 Zr1 2.098457 1_465
O2 Zr2 2.098457 1_665
O3 Zr3 2.098457 1_645
O4 Zr0 2.129340 1_545
O5 Zr1 2.129340 1_565
O6 Zr2 2.129340 1_565
O7 Zr3 2.129340 1_545
O8 Zr0 2.109138 1_545
O9 Zr1 2.109138 1_565
O10 Zr2 2.109138 1_565
O11 Zr3 2.109138 1_545
O12 Zr2 2.116909 1_555
O13 Zr3 2.116909 1_554
O14 Zr0 2.116909 1_555
O15 Zr1 2.116909 1_556
O16 Zr1 2.115248 1_555
O17 Zr0 2.115248 1_555
O18 Zr3 2.115248 1_555
O19 Zr2 2.115248 1_555
O20 Zr1 2.143528 1_555
O21 Zr0 2.143528 1_555
O22 Zr3 2.143528 1_555
O23 Zr2 2.143528 1_555
