# generated using pymatgen
data_Li5Mn5(FeO6)2
_symmetry_space_group_name_H-M   'P 1'
_cell_length_a   5.24372875
_cell_length_b   5.24265594
_cell_length_c   9.92287081
_cell_angle_alpha   85.16759462
_cell_angle_beta   80.30238188
_cell_angle_gamma   59.99322406
_symmetry_Int_Tables_number   1
_chemical_formula_structural   Li5Mn5(FeO6)2
_chemical_formula_sum   'Li5 Mn5 Fe2 O12'
_cell_volume   232.85161720
_cell_formula_units_Z   1
loop_
 _symmetry_equiv_pos_site_id
 _symmetry_equiv_pos_as_xyz
  1  'x, y, z'
loop_
 _atom_site_type_symbol
 _atom_site_label
 _atom_site_symmetry_multiplicity
 _atom_site_fract_x
 _atom_site_fract_y
 _atom_site_fract_z
 _atom_site_occupancy
  Li  Li0  1  0.32100300  0.84339800  0.00917900  1
  Li  Li1  1  0.16745700  0.16938700  0.49669500  1
  Li  Li2  1  0.83559900  0.84339800  0.49082100  1
  Li  Li3  1  0.66315700  0.16938700  0.00330500  1
  Li  Li4  1  0.91587900  0.16824400  0.25000000  1
  Mn  Mn0  1  0.99401800  0.49508800  0.00546500  1
  Mn  Mn1  1  0.51089400  0.49508800  0.49453500  1
  Mn  Mn2  1  0.07284300  0.85431500  0.75000000  1
  Mn  Mn3  1  0.57671000  0.84658100  0.25000000  1
  Mn  Mn4  1  0.41312900  0.17374100  0.75000000  1
  Fe  Fe0  1  0.25034300  0.49931500  0.25000000  1
  Fe  Fe1  1  0.74358100  0.51283700  0.75000000  1
  O  O0  1  0.22522400  0.79268000  0.37759400  1
  O  O1  1  0.44675500  0.86156300  0.63705900  1
  O  O2  1  0.16587400  0.48741200  0.62413500  1
  O  O3  1  0.62654700  0.52648400  0.12787600  1
  O  O4  1  0.30271900  0.16603400  0.13747100  1
  O  O5  1  0.69168200  0.86156300  0.86294100  1
  O  O6  1  0.98209500  0.79268000  0.12240600  1
  O  O7  1  0.01741700  0.19362700  0.88436800  1
  O  O8  1  0.34671400  0.48741200  0.87586500  1
  O  O9  1  0.84696900  0.52648400  0.37212400  1
  O  O10  1  0.53124700  0.16603400  0.36252900  1
  O  O11  1  0.78895600  0.19362700  0.61563200  1
loop_
_geom_bond_atom_site_label_1
_geom_bond_atom_site_label_2
_geom_bond_distance
_geom_bond_site_symmetry_2
Li0 O6 2.059343 1_455
Li0 O3 2.087644 1_555
Li0 O4 2.156460 1_565
Li0 O7 2.190192 1_564
Li0 O5 2.259317 1_554
Li0 O8 2.314186 1_554
Li1 O11 2.081373 1_455
Li1 O10 2.127559 1_555
Li1 O1 2.152620 1_545
Li1 O2 2.171851 1_555
Li1 O9 2.240577 1_455
Li1 O0 2.250145 1_545
Li2 O0 2.059338 1_655
Li2 O9 2.087644 1_555
Li2 O10 2.156460 1_565
Li2 O11 2.190192 1_565
Li2 O1 2.259317 1_555
Li2 O2 2.314186 1_655
Li3 O7 2.081369 1_654
Li3 O4 2.127563 1_555
Li3 O5 2.152622 1_544
Li3 O8 2.171853 1_554
Li3 O3 2.240575 1_555
Li3 O6 2.250140 1_545
Li4 O4 2.139461 1_655
Li4 O10 2.139470 1_555
Li4 O9 2.164161 1_555
Li4 O3 2.164165 1_555
Li4 O0 2.277811 1_645
Li4 O6 2.277817 1_545
Mn0 O6 1.991876 1_555
Mn0 O7 2.008271 1_654
Mn0 O3 2.035546 1_555
Mn0 O8 2.051553 1_654
Mn0 O4 2.202878 1_655
Mn0 O5 2.335776 1_554
Mn1 O0 1.991879 1_555
Mn1 O11 2.008271 1_555
Mn1 O9 2.035546 1_555
Mn1 O2 2.051553 1_555
Mn1 O10 2.202878 1_555
Mn1 O1 2.335776 1_555
Mn2 O1 2.104470 1_555
Mn2 O5 2.104474 1_455
Mn2 O8 2.181468 1_555
Mn2 O2 2.181470 1_555
Mn2 O7 2.186004 1_565
Mn2 O11 2.186006 1_465
Mn3 O10 1.983583 1_565
Mn3 O4 1.983585 1_565
Mn3 O9 2.037230 1_555
Mn3 O3 2.037232 1_555
Mn3 O6 2.180441 1_555
Mn3 O0 2.180450 1_555
Mn4 O1 1.979764 1_545
Mn4 O5 1.979767 1_545
Mn4 O2 2.003021 1_555
Mn4 O8 2.003023 1_555
Mn4 O7 2.229176 1_555
Mn4 O11 2.229180 1_555
Fe0 O0 2.013731 1_555
Fe0 O6 2.013735 1_455
Fe0 O10 2.029935 1_555
Fe0 O4 2.029938 1_555
Fe0 O3 2.197038 1_555
Fe0 O9 2.197043 1_455
Fe1 O1 2.101744 1_555
Fe1 O5 2.101746 1_555
Fe1 O11 2.122680 1_555
Fe1 O7 2.122682 1_655
Fe1 O8 2.298306 1_555
Fe1 O2 2.298311 1_655
