# generated using pymatgen
data_LiMnPH2O5
_symmetry_space_group_name_H-M   'P 1'
_cell_length_a   5.14006600
_cell_length_b   10.21377400
_cell_length_c   17.14230500
_cell_angle_alpha   90.00000000
_cell_angle_beta   90.00000000
_cell_angle_gamma   90.00000000
_symmetry_Int_Tables_number   1
_chemical_formula_structural   LiMnPH2O5
_chemical_formula_sum   'Li8 Mn8 P8 H16 O40'
_cell_volume   899.96196940
_cell_formula_units_Z   8
loop_
 _symmetry_equiv_pos_site_id
 _symmetry_equiv_pos_as_xyz
  1  'x, y, z'
loop_
 _atom_site_type_symbol
 _atom_site_label
 _atom_site_symmetry_multiplicity
 _atom_site_fract_x
 _atom_site_fract_y
 _atom_site_fract_z
 _atom_site_occupancy
  Li  Li0  1  0.52846600  0.14951700  0.19335800  1
  Li  Li1  1  0.47153400  0.14951700  0.69335800  1
  Li  Li2  1  0.09806200  0.42004500  0.94579100  1
  Li  Li3  1  0.90193800  0.42004500  0.44579100  1
  Li  Li4  1  0.47153400  0.64951700  0.80664200  1
  Li  Li5  1  0.52846600  0.64951700  0.30664200  1
  Li  Li6  1  0.09806200  0.92004500  0.55420900  1
  Li  Li7  1  0.90193800  0.92004500  0.05420900  1
  Mn  Mn0  1  0.46540700  0.18293400  0.50018800  1
  Mn  Mn1  1  0.53459300  0.18293400  0.00018800  1
  Mn  Mn2  1  0.90760000  0.39123100  0.25109900  1
  Mn  Mn3  1  0.09240000  0.39123100  0.75109900  1
  Mn  Mn4  1  0.46540700  0.68293400  0.99981200  1
  Mn  Mn5  1  0.53459300  0.68293400  0.49981200  1
  Mn  Mn6  1  0.09240000  0.89123100  0.74890100  1
  Mn  Mn7  1  0.90760000  0.89123100  0.24890100  1
  P  P0  1  0.01036900  0.22606700  0.09252800  1
  P  P1  1  0.98963100  0.22606700  0.59252800  1
  P  P2  1  0.41035100  0.34528400  0.34242500  1
  P  P3  1  0.58964900  0.34528400  0.84242500  1
  P  P4  1  0.98963100  0.72606700  0.90747200  1
  P  P5  1  0.01036900  0.72606700  0.40747200  1
  P  P6  1  0.58964900  0.84528400  0.65757500  1
  P  P7  1  0.41035100  0.84528400  0.15757500  1
  H  H0  1  0.09091400  0.00364200  0.37576100  1
  H  H1  1  0.90908600  0.00364200  0.87576100  1
  H  H2  1  0.63040700  0.05391100  0.37681000  1
  H  H3  1  0.36959300  0.05391100  0.87681000  1
  H  H4  1  0.16550300  0.11115700  0.31134500  1
  H  H5  1  0.83449700  0.11115700  0.81134500  1
  H  H6  1  0.65992700  0.44940200  0.05659100  1
  H  H7  1  0.34007300  0.44940200  0.55659100  1
  H  H8  1  0.09091400  0.50364200  0.12423900  1
  H  H9  1  0.90908600  0.50364200  0.62423900  1
  H  H10  1  0.36959300  0.55391100  0.62319000  1
  H  H11  1  0.63040700  0.55391100  0.12319000  1
  H  H12  1  0.83449700  0.61115700  0.68865500  1
  H  H13  1  0.16550300  0.61115700  0.18865500  1
  H  H14  1  0.65992700  0.94940200  0.44340900  1
  H  H15  1  0.34007300  0.94940200  0.94340900  1
  O  O0  1  0.54305200  0.02031900  0.42395100  1
  O  O1  1  0.45694800  0.02031900  0.92395100  1
  O  O2  1  0.02983700  0.04409300  0.32661900  1
  O  O3  1  0.97016300  0.04409300  0.82661900  1
  O  O4  1  0.87571100  0.11155600  0.04750100  1
  O  O5  1  0.12428900  0.11155600  0.54750100  1
  O  O6  1  0.69277200  0.19820700  0.59966000  1
  O  O7  1  0.30722800  0.19820700  0.09966000  1
  O  O8  1  0.57696900  0.21427100  0.79699100  1
  O  O9  1  0.42303100  0.21427100  0.29699100  1
  O  O10  1  0.88675800  0.23465100  0.17565300  1
  O  O11  1  0.11324200  0.23465100  0.67565300  1
  O  O12  1  0.45642900  0.33325200  0.92418900  1
  O  O13  1  0.54357100  0.33325200  0.42418900  1
  O  O14  1  0.95767200  0.35478300  0.04667600  1
  O  O15  1  0.04232800  0.35478300  0.54667600  1
  O  O16  1  0.12006800  0.38529100  0.35314100  1
  O  O17  1  0.87993200  0.38529100  0.85314100  1
  O  O18  1  0.55596200  0.45479400  0.29603700  1
  O  O19  1  0.44403800  0.45479400  0.79603700  1
  O  O20  1  0.54305200  0.52031900  0.07604900  1
  O  O21  1  0.45694800  0.52031900  0.57604900  1
  O  O22  1  0.02983700  0.54409300  0.17338100  1
  O  O23  1  0.97016300  0.54409300  0.67338100  1
  O  O24  1  0.12428900  0.61155600  0.95249900  1
  O  O25  1  0.87571100  0.61155600  0.45249900  1
  O  O26  1  0.69277200  0.69820700  0.90034000  1
  O  O27  1  0.30722800  0.69820700  0.40034000  1
  O  O28  1  0.57696900  0.71427100  0.70300900  1
  O  O29  1  0.42303100  0.71427100  0.20300900  1
  O  O30  1  0.88675800  0.73465100  0.32434700  1
  O  O31  1  0.11324200  0.73465100  0.82434700  1
  O  O32  1  0.45642900  0.83325200  0.57581100  1
  O  O33  1  0.54357100  0.83325200  0.07581100  1
  O  O34  1  0.95767200  0.85478300  0.45332400  1
  O  O35  1  0.04232800  0.85478300  0.95332400  1
  O  O36  1  0.87993200  0.88529100  0.64685900  1
  O  O37  1  0.12006800  0.88529100  0.14685900  1
  O  O38  1  0.44403800  0.95479400  0.70396300  1
  O  O39  1  0.55596200  0.95479400  0.20396300  1
loop_
_geom_bond_atom_site_label_1
_geom_bond_atom_site_label_2
_geom_bond_distance
_geom_bond_site_symmetry_2
Li0 O9 1.971576 1_555
Li0 O39 2.002143 1_545
Li0 O7 2.029869 1_555
Li0 O10 2.059094 1_555
Li1 O8 1.971576 1_555
Li1 O38 2.002143 1_545
Li1 O6 2.029869 1_555
Li1 O11 2.059094 1_555
Li2 O24 1.964059 1_555
Li2 O17 1.976256 1_455
Li2 O14 1.988938 1_456
Li2 O12 2.077512 1_555
Li3 O25 1.964059 1_555
Li3 O16 1.976256 1_655
Li3 O15 1.988938 1_655
Li3 O13 2.077512 1_555
Li4 O28 1.971576 1_555
Li4 O19 2.002143 1_555
Li4 O26 2.029869 1_555
Li4 O31 2.059094 1_555
Li5 O29 1.971576 1_555
Li5 O18 2.002143 1_555
Li5 O27 2.029869 1_555
Li5 O30 2.059094 1_555
Li6 O5 1.964059 1_565
Li6 O36 1.976256 1_455
Li6 O34 1.988938 1_455
Li6 O32 2.077512 1_555
Li7 O4 1.964059 1_565
Li7 O37 1.976256 1_655
Li7 O35 1.988938 1_654
Li7 O33 2.077512 1_555
Mn0 O13 2.053263 1_555
Mn0 O5 2.064851 1_555
Mn0 O6 2.073105 1_555
Mn0 O0 2.150777 1_555
Mn1 O12 2.053263 1_554
Mn1 O4 2.064851 1_555
Mn1 O7 2.073105 1_555
Mn1 O1 2.150777 1_554
Mn2 O10 2.059568 1_555
Mn2 O16 2.063053 1_655
Mn2 O18 2.069241 1_555
Mn2 O22 2.146474 1_655
Mn3 O11 2.059568 1_555
Mn3 O17 2.063053 1_455
Mn3 O19 2.069241 1_555
Mn3 O23 2.146474 1_455
Mn4 O33 2.053263 1_556
Mn4 O24 2.064851 1_555
Mn4 O26 2.073105 1_555
Mn4 O20 2.150777 1_556
Mn5 O32 2.053263 1_555
Mn5 O25 2.064851 1_555
Mn5 O27 2.073105 1_555
Mn5 O21 2.150777 1_555
Mn6 O31 2.059568 1_555
Mn6 O36 2.063053 1_455
Mn6 O38 2.069241 1_555
Mn6 O3 2.146474 1_465
Mn7 O30 2.059568 1_555
Mn7 O37 2.063053 1_655
Mn7 O39 2.069241 1_555
Mn7 O2 2.146474 1_665
H0 O2 0.989397 1_555
H1 O3 0.989397 1_555
H2 O0 0.986085 1_555
H3 O1 0.986085 1_555
H4 O2 1.011939 1_555
H4 O9 1.709372 1_555
H5 O3 1.011939 1_555
H5 O8 1.709372 1_555
H6 O20 0.998403 1_555
H7 O21 0.998403 1_555
H8 O22 0.989397 1_555
H9 O23 0.989397 1_555
H10 O21 0.986085 1_555
H11 O20 0.986085 1_555
H12 O23 1.011939 1_555
H12 O28 1.709372 1_555
H13 O22 1.011939 1_555
H13 O29 1.709372 1_555
H14 O0 0.998403 1_565
H15 O1 0.998403 1_565
O4 P0 1.562943 1_655
O5 P1 1.562943 1_455
O6 P1 1.556989 1_555
O7 P0 1.556989 1_555
O8 P3 1.549663 1_555
O9 P2 1.549663 1_555
O10 P0 1.562650 1_655
O11 P1 1.562650 1_455
O12 P3 1.564783 1_555
O13 P2 1.564783 1_555
O14 P0 1.555491 1_655
O15 P1 1.555491 1_455
O16 P2 1.557884 1_555
O17 P3 1.557884 1_555
O18 P2 1.563196 1_555
O19 P3 1.563196 1_555
O24 P4 1.562943 1_455
O25 P5 1.562943 1_655
O26 P4 1.556989 1_555
O27 P5 1.556989 1_555
O28 P6 1.549663 1_555
O29 P7 1.549663 1_555
O30 P5 1.562650 1_655
O31 P4 1.562650 1_455
O32 P6 1.564783 1_555
O33 P7 1.564783 1_555
O34 P5 1.555491 1_655
O35 P4 1.555491 1_455
O36 P6 1.557884 1_555
O37 P7 1.557884 1_555
O38 P6 1.563196 1_555
O39 P7 1.563196 1_555
