# generated using pymatgen
data_CsMgH12(ClO2)3
_symmetry_space_group_name_H-M   'P 1'
_cell_length_a   6.83184500
_cell_length_b   6.86630535
_cell_length_c   13.70721404
_cell_angle_alpha   89.74496714
_cell_angle_beta   89.93449563
_cell_angle_gamma   89.40732241
_symmetry_Int_Tables_number   1
_chemical_formula_structural   CsMgH12(ClO2)3
_chemical_formula_sum   'Cs2 Mg2 H24 Cl6 O12'
_cell_volume   642.95786414
_cell_formula_units_Z   2
loop_
 _symmetry_equiv_pos_site_id
 _symmetry_equiv_pos_as_xyz
  1  'x, y, z'
loop_
 _atom_site_type_symbol
 _atom_site_label
 _atom_site_symmetry_multiplicity
 _atom_site_fract_x
 _atom_site_fract_y
 _atom_site_fract_z
 _atom_site_occupancy
  Cs  Cs0  1  0.00013400  0.99284200  0.00114500  1
  Cs  Cs1  1  0.01249900  0.01756100  0.49908500  1
  Mg  Mg0  1  0.50538400  0.49923800  0.75152000  1
  Mg  Mg1  1  0.50698900  0.50344700  0.24583100  1
  H  H0  1  0.85284200  0.71795100  0.73127700  1
  H  H1  1  0.83295400  0.57288200  0.64392900  1
  H  H2  1  0.27083400  0.54643700  0.58404500  1
  H  H3  1  0.43071200  0.71067000  0.58473500  1
  H  H4  1  0.55460900  0.16375100  0.63073400  1
  H  H5  1  0.70207300  0.15461900  0.71879500  1
  H  H6  1  0.45269600  0.83626500  0.86810200  1
  H  H7  1  0.28677900  0.83359800  0.78813200  1
  H  H8  1  0.56225500  0.29660600  0.92276100  1
  H  H9  1  0.74543500  0.43486400  0.91536500  1
  H  H10  1  0.16796900  0.42644500  0.85122900  1
  H  H11  1  0.16848300  0.27095800  0.76729800  1
  H  H12  1  0.85356300  0.30214800  0.21737100  1
  H  H13  1  0.84994900  0.44826900  0.12909600  1
  H  H14  1  0.55270200  0.27173900  0.41556500  1
  H  H15  1  0.69959100  0.44793900  0.42200100  1
  H  H16  1  0.46313600  0.73178300  0.07521600  1
  H  H17  1  0.30725800  0.56510000  0.07103300  1
  H  H18  1  0.18109200  0.55677200  0.36939500  1
  H  H19  1  0.15909300  0.70014100  0.28049300  1
  H  H20  1  0.73991500  0.84052300  0.26458600  1
  H  H21  1  0.57783800  0.84132700  0.34611300  1
  H  H22  1  0.45301500  0.15963100  0.14921800  1
  H  H23  1  0.28104700  0.16168700  0.22525400  1
  Cl  Cl0  1  0.50336200  0.01628000  0.00167600  1
  Cl  Cl1  1  0.51006400  0.99390000  0.49408300  1
  Cl  Cl2  1  0.02297900  0.49316400  0.99331800  1
  Cl  Cl3  1  0.99278500  0.51529600  0.50410300  1
  Cl  Cl4  1  0.00283000  0.99548200  0.75058100  1
  Cl  Cl5  1  0.00872200  0.00373000  0.24868500  1
  O  O0  1  0.77851000  0.60407500  0.70870000  1
  O  O1  1  0.39252700  0.58790200  0.61625000  1
  O  O2  1  0.58624900  0.22493100  0.69363200  1
  O  O3  1  0.40768300  0.76624200  0.81051100  1
  O  O4  1  0.61493500  0.41043000  0.88791400  1
  O  O5  1  0.23123800  0.39125000  0.78912600  1
  O  O6  1  0.78273300  0.41547400  0.19029000  1
  O  O7  1  0.58503900  0.39942500  0.38642900  1
  O  O8  1  0.42331300  0.60897400  0.10690400  1
  O  O9  1  0.23306000  0.58561800  0.30375800  1
  O  O10  1  0.61544000  0.77895000  0.28412600  1
  O  O11  1  0.40531500  0.22613400  0.20829000  1
loop_
_geom_bond_atom_site_label_1
_geom_bond_atom_site_label_2
_geom_bond_distance
_geom_bond_site_symmetry_2
Mg0 O5 2.084817 1_555
Mg0 O0 2.089494 1_555
Mg0 O1 2.094416 1_555
Mg0 O4 2.100223 1_555
Mg0 O3 2.108818 1_555
Mg0 O2 2.114966 1_555
Mg1 O11 2.099965 1_555
Mg1 O9 2.104717 1_555
Mg1 O10 2.107536 1_555
Mg1 O8 2.111828 1_555
Mg1 O6 2.114379 1_555
Mg1 O7 2.119156 1_555
H0 O0 0.987807 1_555
H1 O0 0.985776 1_555
H2 O1 0.986910 1_555
H3 O1 0.983006 1_555
H4 O2 0.985918 1_555
H5 O2 0.984595 1_555
H6 O3 0.977702 1_555
H7 O3 0.990796 1_555
H8 O4 0.985194 1_555
H9 O4 0.984391 1_555
H10 O5 0.984228 1_555
H11 O5 0.982530 1_555
H12 O6 0.983610 1_555
H13 O6 0.982212 1_555
H14 O7 0.988762 1_555
H15 O7 0.984321 1_555
H16 O8 0.987400 1_555
H17 O8 0.984026 1_555
H18 O9 0.986854 1_555
H19 O9 0.982506 1_555
H20 O10 0.989727 1_555
H21 O10 0.985817 1_555
H22 O11 0.984861 1_555
H23 O11 0.988463 1_555
Cl0 Cs0 3.396021 1_645
Cl0 Cs0 3.443420 1_545
Cl1 Cs1 3.402115 1_565
Cl1 Cs1 3.438855 1_665
Cl2 Cs0 3.435024 1_556
Cl2 Cs0 3.441710 1_546
Cl3 Cs1 3.419856 1_655
Cl3 Cs1 3.453102 1_665
Cl4 Cs0 3.434531 1_556
Cl4 Cs1 3.450554 1_565
Cl5 Cs0 3.394827 1_545
Cl5 Cs1 3.434156 1_555
