# generated using pymatgen
data_LiSb(PO3)4
_symmetry_space_group_name_H-M   'P 1'
_cell_length_a   9.28542400
_cell_length_b   10.08406700
_cell_length_c   12.42771754
_cell_angle_alpha   55.59269312
_cell_angle_beta   90.00000000
_cell_angle_gamma   90.00000000
_symmetry_Int_Tables_number   1
_chemical_formula_structural   LiSb(PO3)4
_chemical_formula_sum   'Li4 Sb4 P16 O48'
_cell_volume   960.07375985
_cell_formula_units_Z   4
loop_
 _symmetry_equiv_pos_site_id
 _symmetry_equiv_pos_as_xyz
  1  'x, y, z'
loop_
 _atom_site_type_symbol
 _atom_site_label
 _atom_site_symmetry_multiplicity
 _atom_site_fract_x
 _atom_site_fract_y
 _atom_site_fract_z
 _atom_site_occupancy
  Li  Li0  1  0.31943200  0.75871200  0.51801300  1
  Li  Li1  1  0.81943200  0.24128800  0.98198700  1
  Li  Li2  1  0.18056800  0.75871200  0.01801300  1
  Li  Li3  1  0.68056800  0.24128800  0.48198700  1
  Sb  Sb0  1  0.09287500  0.19885000  0.25375700  1
  Sb  Sb1  1  0.40712500  0.19885000  0.75375700  1
  Sb  Sb2  1  0.59287500  0.80115000  0.24624300  1
  Sb  Sb3  1  0.90712500  0.80115000  0.74624300  1
  P  P0  1  0.68283900  0.77086800  0.54967100  1
  P  P1  1  0.62383600  0.29098100  0.20089300  1
  P  P2  1  0.50582600  0.49369000  0.73872900  1
  P  P3  1  0.00582600  0.50631000  0.76127100  1
  P  P4  1  0.38318400  0.10932600  0.16070000  1
  P  P5  1  0.88318400  0.89067400  0.33930000  1
  P  P6  1  0.18283900  0.22913200  0.95032900  1
  P  P7  1  0.87616400  0.29098100  0.70089300  1
  P  P8  1  0.12383600  0.70901900  0.29910700  1
  P  P9  1  0.81716100  0.77086800  0.04967100  1
  P  P10  1  0.11681600  0.10932600  0.66070000  1
  P  P11  1  0.61681600  0.89067400  0.83930000  1
  P  P12  1  0.99417400  0.49369000  0.23872900  1
  P  P13  1  0.49417400  0.50631000  0.26127100  1
  P  P14  1  0.37616400  0.70901900  0.79910700  1
  P  P15  1  0.31716100  0.22913200  0.45032900  1
  O  O0  1  0.76032100  0.86018800  0.60068100  1
  O  O1  1  0.32263800  0.79236000  0.66355500  1
  O  O2  1  0.46312500  0.54472400  0.83402300  1
  O  O3  1  0.65849400  0.58817700  0.67317500  1
  O  O4  1  0.03736400  0.68765900  0.67151600  1
  O  O5  1  0.71182400  0.33111400  0.08619400  1
  O  O6  1  0.47493200  0.19751200  0.20565100  1
  O  O7  1  0.90037000  0.46770000  0.86614400  1
  O  O8  1  0.40037000  0.53230000  0.63385600  1
  O  O9  1  0.30989200  0.25522100  0.02719300  1
  O  O10  1  0.53736400  0.31234100  0.82848400  1
  O  O11  1  0.97785700  0.98835800  0.37259300  1
  O  O12  1  0.15849400  0.41182300  0.82682500  1
  O  O13  1  0.55253600  0.84425800  0.46791600  1
  O  O14  1  0.96312500  0.45527600  0.66597700  1
  O  O15  1  0.76438400  0.98084900  0.24172300  1
  O  O16  1  0.26438400  0.01915100  0.25827700  1
  O  O17  1  0.05253600  0.15574200  0.03208400  1
  O  O18  1  0.47785700  0.01164200  0.12740700  1
  O  O19  1  0.80989200  0.74477900  0.47280700  1
  O  O20  1  0.82263800  0.20764000  0.83644500  1
  O  O21  1  0.26032100  0.13981200  0.89931900  1
  O  O22  1  0.78817600  0.33111400  0.58619400  1
  O  O23  1  0.97493200  0.80248800  0.29434900  1
  O  O24  1  0.02506800  0.19751200  0.70565100  1
  O  O25  1  0.21182400  0.66888600  0.41380600  1
  O  O26  1  0.73967900  0.86018800  0.10068100  1
  O  O27  1  0.17736200  0.79236000  0.16355500  1
  O  O28  1  0.19010800  0.25522100  0.52719300  1
  O  O29  1  0.52214300  0.98835800  0.87259300  1
  O  O30  1  0.94746400  0.84425800  0.96791600  1
  O  O31  1  0.73561600  0.98084900  0.74172300  1
  O  O32  1  0.23561600  0.01915100  0.75827700  1
  O  O33  1  0.03687500  0.54472400  0.33402300  1
  O  O34  1  0.44746400  0.15574200  0.53208400  1
  O  O35  1  0.84150600  0.58817700  0.17317500  1
  O  O36  1  0.02214300  0.01164200  0.62740700  1
  O  O37  1  0.46263600  0.68765900  0.17151600  1
  O  O38  1  0.69010800  0.74477900  0.97280700  1
  O  O39  1  0.59963000  0.46770000  0.36614400  1
  O  O40  1  0.09963000  0.53230000  0.13385600  1
  O  O41  1  0.52506800  0.80248800  0.79434900  1
  O  O42  1  0.28817600  0.66888600  0.91380600  1
  O  O43  1  0.96263600  0.31234100  0.32848400  1
  O  O44  1  0.34150600  0.41182300  0.32682500  1
  O  O45  1  0.53687500  0.45527600  0.16597700  1
  O  O46  1  0.67736200  0.20764000  0.33644500  1
  O  O47  1  0.23967900  0.13981200  0.39931900  1
loop_
_geom_bond_atom_site_label_1
_geom_bond_atom_site_label_2
_geom_bond_distance
_geom_bond_site_symmetry_2
Li0 O1 2.020200 1_555
Li0 O8 2.033589 1_555
Li0 O25 2.195855 1_555
Li0 O13 2.282485 1_555
Li1 O20 2.020200 1_555
Li1 O7 2.033589 1_555
Li1 O5 2.195855 1_556
Li1 O17 2.282485 1_656
Li2 O27 2.020200 1_555
Li2 O40 2.033589 1_555
Li2 O42 2.195855 1_554
Li2 O30 2.282485 1_454
Li3 O46 2.020200 1_555
Li3 O39 2.033589 1_555
Li3 O22 2.195855 1_555
Li3 O34 2.282485 1_555
O0 P0 1.541451 1_555
O0 Sb3 2.065897 1_555
O1 P14 1.480264 1_555
O2 P2 1.585364 1_555
O2 P14 1.665138 1_555
O3 P0 1.614075 1_555
O3 P2 1.644340 1_555
O4 P3 1.539130 1_555
O4 Sb3 2.199056 1_455
O5 P1 1.487017 1_555
O6 P4 1.545990 1_555
O6 P1 1.655473 1_555
O7 P3 1.495198 1_655
O8 P2 1.495198 1_555
O9 P4 1.619202 1_555
O9 P6 1.630186 1_554
O10 P2 1.539130 1_555
O10 Sb1 2.199056 1_555
O11 P5 1.541076 1_555
O11 Sb0 2.069887 1_665
O12 P6 1.614075 1_555
O12 P3 1.644340 1_555
O13 P0 1.481259 1_555
O14 P3 1.585364 1_655
O14 P7 1.665138 1_555
O15 P5 1.506006 1_555
O15 Sb2 2.389137 1_555
O16 P4 1.506006 1_555
O16 Sb0 2.389137 1_555
O17 P6 1.481259 1_554
O18 P4 1.541076 1_555
O18 Sb2 2.069887 1_545
O19 P5 1.619202 1_555
O19 P0 1.630186 1_555
O20 P7 1.480264 1_555
O21 P6 1.541451 1_555
O21 Sb1 2.065897 1_555
O22 P7 1.487017 1_555
O23 P5 1.545990 1_555
O23 P8 1.655473 1_655
O24 P10 1.545990 1_555
O24 P7 1.655473 1_455
O25 P8 1.487017 1_555
O26 P9 1.541451 1_555
O26 Sb2 2.065897 1_555
O27 P8 1.480264 1_555
O28 P10 1.619202 1_555
O28 P15 1.630186 1_555
O29 P11 1.541076 1_555
O29 Sb1 2.069887 1_565
O30 P9 1.481259 1_556
O31 P11 1.506006 1_555
O31 Sb3 2.389137 1_555
O32 P10 1.506006 1_555
O32 Sb1 2.389137 1_555
O33 P12 1.585364 1_455
O33 P8 1.665138 1_555
O34 P15 1.481259 1_555
O35 P9 1.614075 1_555
O35 P12 1.644340 1_555
O36 P10 1.541076 1_555
O36 Sb3 2.069887 1_445
O37 P13 1.539130 1_555
O37 Sb2 2.199056 1_555
O38 P11 1.619202 1_555
O38 P9 1.630186 1_556
O39 P13 1.495198 1_555
O40 P12 1.495198 1_455
O41 P11 1.545990 1_555
O41 P14 1.655473 1_555
O42 P14 1.487017 1_555
O43 P12 1.539130 1_555
O43 Sb0 2.199056 1_655
O44 P15 1.614075 1_555
O44 P13 1.644340 1_555
O45 P13 1.585364 1_555
O45 P1 1.665138 1_555
O46 P1 1.480264 1_555
O47 P15 1.541451 1_555
O47 Sb0 2.065897 1_555
