# generated using pymatgen
data_Mn5Cr(PO4)6
_symmetry_space_group_name_H-M   'P 1'
_cell_length_a   8.61114456
_cell_length_b   8.61114456
_cell_length_c   8.61114491
_cell_angle_alpha   59.63398994
_cell_angle_beta   59.63398994
_cell_angle_gamma   59.63399146
_symmetry_Int_Tables_number   1
_chemical_formula_structural   Mn5Cr(PO4)6
_chemical_formula_sum   'Mn5 Cr1 P6 O24'
_cell_volume   447.75497828
_cell_formula_units_Z   1
loop_
 _symmetry_equiv_pos_site_id
 _symmetry_equiv_pos_as_xyz
  1  'x, y, z'
loop_
 _atom_site_type_symbol
 _atom_site_label
 _atom_site_symmetry_multiplicity
 _atom_site_fract_x
 _atom_site_fract_y
 _atom_site_fract_z
 _atom_site_occupancy
  Mn  Mn0  1  0.99964800  0.99964800  0.99964800  1
  Mn  Mn1  1  0.35638900  0.35638900  0.35638900  1
  Mn  Mn2  1  0.50055900  0.50055900  0.50055900  1
  Mn  Mn3  1  0.14358900  0.14358900  0.14358900  1
  Mn  Mn4  1  0.64394800  0.64394800  0.64394800  1
  Cr  Cr0  1  0.85775400  0.85775400  0.85775400  1
  P  P0  1  0.45939400  0.74987600  0.03998900  1
  P  P1  1  0.74987600  0.03998900  0.45939400  1
  P  P2  1  0.03998900  0.45939400  0.74987600  1
  P  P3  1  0.96138200  0.53938700  0.25036900  1
  P  P4  1  0.25036900  0.96138200  0.53938700  1
  P  P5  1  0.53938700  0.25036900  0.96138200  1
  O  O0  1  0.69847000  0.87996300  0.48687500  1
  O  O1  1  0.87996300  0.48687500  0.69847000  1
  O  O2  1  0.48687500  0.69847000  0.87996300  1
  O  O3  1  0.26208500  0.91476600  0.05940500  1
  O  O4  1  0.61789300  0.80313300  0.00998700  1
  O  O5  1  0.44369400  0.57995600  0.23680500  1
  O  O6  1  0.91476600  0.05940500  0.26208500  1
  O  O7  1  0.57995600  0.23680500  0.44369400  1
  O  O8  1  0.98946500  0.37926100  0.19869200  1
  O  O9  1  0.23680500  0.44369400  0.57995600  1
  O  O10  1  0.94437200  0.73486200  0.08530400  1
  O  O11  1  0.19869200  0.98946500  0.37926100  1
  O  O12  1  0.80313300  0.00998700  0.61789300  1
  O  O13  1  0.05940500  0.26208500  0.91476600  1
  O  O14  1  0.76529800  0.55508800  0.41787200  1
  O  O15  1  0.00998700  0.61789300  0.80313300  1
  O  O16  1  0.41787200  0.76529800  0.55508800  1
  O  O17  1  0.08530400  0.94437200  0.73486200  1
  O  O18  1  0.55508800  0.41787200  0.76529800  1
  O  O19  1  0.37926100  0.19869200  0.98946500  1
  O  O20  1  0.73486200  0.08530400  0.94437200  1
  O  O21  1  0.50673600  0.30551300  0.12222100  1
  O  O22  1  0.12222100  0.50673600  0.30551300  1
  O  O23  1  0.30551300  0.12222100  0.50673600  1
loop_
_geom_bond_atom_site_label_1
_geom_bond_atom_site_label_2
_geom_bond_distance
_geom_bond_site_symmetry_2
Mn0 O10 2.238632 1_556
Mn0 O20 2.238632 1_565
Mn0 O17 2.238632 1_655
Mn0 O13 2.243103 1_665
Mn0 O3 2.243103 1_656
Mn0 O6 2.243103 1_566
Mn1 O23 1.901163 1_555
Mn1 O22 1.901163 1_555
Mn1 O21 1.901163 1_555
Mn1 O5 2.002029 1_555
Mn1 O7 2.002029 1_555
Mn1 O9 2.002029 1_555
Mn2 O14 2.242237 1_555
Mn2 O16 2.242237 1_555
Mn2 O18 2.242237 1_555
Mn2 O9 2.254252 1_555
Mn2 O7 2.254252 1_555
Mn2 O5 2.254252 1_555
Mn3 O19 1.928419 1_554
Mn3 O8 1.928419 1_455
Mn3 O11 1.928419 1_545
Mn3 O6 2.028002 1_455
Mn3 O3 2.028002 1_545
Mn3 O13 2.028002 1_554
Mn4 O0 1.929709 1_555
Mn4 O1 1.929709 1_555
Mn4 O2 1.929709 1_555
Mn4 O18 2.026890 1_555
Mn4 O16 2.026890 1_555
Mn4 O14 2.026890 1_555
Cr0 O4 1.956319 1_556
Cr0 O15 1.956319 1_655
Cr0 O12 1.956319 1_565
Cr0 O17 2.024564 1_655
Cr0 O20 2.024564 1_565
Cr0 O10 2.024564 1_556
O0 P1 1.527082 1_565
O1 P2 1.527082 1_655
O2 P0 1.527082 1_556
O3 P0 1.563499 1_555
O4 P0 1.515402 1_555
O5 P0 1.578838 1_555
O6 P1 1.563499 1_555
O7 P1 1.578838 1_555
O8 P3 1.527161 1_555
O9 P2 1.578838 1_555
O10 P3 1.554803 1_555
O11 P4 1.527161 1_555
O12 P1 1.515402 1_555
O13 P2 1.563499 1_555
O14 P3 1.566462 1_555
O15 P2 1.515402 1_555
O16 P4 1.566462 1_555
O17 P4 1.554803 1_555
O18 P5 1.566462 1_555
O19 P5 1.527161 1_555
O20 P5 1.554803 1_555
O21 P5 1.535912 1_554
O22 P3 1.535912 1_455
O23 P4 1.535912 1_545
