# generated using pymatgen
data_Li5Co5(NiO6)2
_symmetry_space_group_name_H-M   'P 1'
_cell_length_a   5.02987260
_cell_length_b   5.02987260
_cell_length_c   9.56886529
_cell_angle_alpha   85.29609578
_cell_angle_beta   85.29609578
_cell_angle_gamma   119.75602173
_symmetry_Int_Tables_number   1
_chemical_formula_structural   Li5Co5(NiO6)2
_chemical_formula_sum   'Li5 Co5 Ni2 O12'
_cell_volume   207.34339035
_cell_formula_units_Z   1
loop_
 _symmetry_equiv_pos_site_id
 _symmetry_equiv_pos_as_xyz
  1  'x, y, z'
loop_
 _atom_site_type_symbol
 _atom_site_label
 _atom_site_symmetry_multiplicity
 _atom_site_fract_x
 _atom_site_fract_y
 _atom_site_fract_z
 _atom_site_occupancy
  Li  Li0  1  0.17354300  0.33189200  0.74913300  1
  Li  Li1  1  0.32374000  0.15438000  0.25230900  1
  Li  Li2  1  0.66810800  0.82645700  0.25086700  1
  Li  Li3  1  0.84562000  0.67626000  0.74769100  1
  Li  Li4  1  0.91466300  0.08533700  0.50000000  1
  Co  Co0  1  0.08870600  0.91129400  0.00000000  1
  Co  Co1  1  0.42283900  0.57716100  0.00000000  1
  Co  Co2  1  0.52422900  0.00660200  0.74266800  1
  Co  Co3  1  0.99339800  0.47577100  0.25733200  1
  Co  Co4  1  0.57668200  0.42331800  0.50000000  1
  Ni  Ni0  1  0.24479000  0.75521000  0.50000000  1
  Ni  Ni1  1  0.75421300  0.24578700  0.00000000  1
  O  O0  1  0.15133300  0.63957300  0.88585500  1
  O  O1  1  0.29188300  0.48304100  0.38416300  1
  O  O2  1  0.06963700  0.21526700  0.11259000  1
  O  O3  1  0.36042700  0.84866700  0.11414500  1
  O  O4  1  0.51695900  0.70811700  0.61583700  1
  O  O5  1  0.23597600  0.05365700  0.61072800  1
  O  O6  1  0.78473300  0.93036300  0.88741000  1
  O  O7  1  0.43998500  0.27186900  0.88729700  1
  O  O8  1  0.62428500  0.16014300  0.37633100  1
  O  O9  1  0.94634300  0.76402400  0.38927200  1
  O  O10  1  0.72813100  0.56001500  0.11270300  1
  O  O11  1  0.83985700  0.37571500  0.62366900  1
loop_
_geom_bond_atom_site_label_1
_geom_bond_atom_site_label_2
_geom_bond_distance
_geom_bond_site_symmetry_2
Li0 O4 2.046893 1_555
Li0 O7 2.064420 1_555
Li0 O5 2.117350 1_555
Li0 O0 2.144488 1_555
Li0 O6 2.207043 1_445
Li0 O11 2.227383 1_455
Li1 O8 1.987674 1_555
Li1 O2 2.028898 1_555
Li1 O9 2.155558 1_445
Li1 O3 2.172905 1_545
Li1 O1 2.218609 1_555
Li1 O10 2.252238 1_555
Li2 O1 2.046893 1_555
Li2 O10 2.064420 1_555
Li2 O9 2.117350 1_555
Li2 O3 2.144488 1_555
Li2 O2 2.207043 1_665
Li2 O8 2.227383 1_565
Li3 O11 1.987674 1_555
Li3 O6 2.028898 1_555
Li3 O5 2.155558 1_665
Li3 O0 2.172905 1_655
Li3 O4 2.218609 1_555
Li3 O7 2.252238 1_555
Li4 O9 2.066106 1_545
Li4 O5 2.066106 1_655
Li4 O1 2.086661 1_655
Li4 O4 2.086661 1_545
Li4 O8 2.105028 1_555
Li4 O11 2.105028 1_555
Co0 O10 1.939091 1_455
Co0 O7 1.939091 1_564
Co0 O3 1.943166 1_555
Co0 O0 1.943166 1_554
Co0 O2 1.976451 1_565
Co0 O6 1.976451 1_454
Co1 O3 1.941766 1_555
Co1 O0 1.941766 1_554
Co1 O2 1.945448 1_555
Co1 O6 1.945448 1_554
Co1 O10 1.978961 1_555
Co1 O7 1.978961 1_554
Co2 O11 1.922233 1_555
Co2 O4 1.994965 1_545
Co2 O5 2.084213 1_555
Co2 O6 2.119318 1_545
Co2 O0 2.128372 1_545
Co2 O7 2.154751 1_555
Co3 O8 1.922233 1_555
Co3 O1 1.994965 1_655
Co3 O9 2.084213 1_555
Co3 O2 2.119318 1_655
Co3 O3 2.128372 1_655
Co3 O10 2.154751 1_555
Co4 O9 1.932053 1_555
Co4 O5 1.932053 1_555
Co4 O8 1.932625 1_555
Co4 O11 1.932625 1_555
Co4 O4 2.000968 1_555
Co4 O1 2.000968 1_555
Ni0 O4 1.920027 1_555
Ni0 O1 1.920027 1_555
Ni0 O9 1.922828 1_455
Ni0 O5 1.922828 1_565
Ni0 O8 2.137160 1_565
Ni0 O11 2.137160 1_455
Ni1 O7 2.034817 1_554
Ni1 O10 2.034817 1_555
Ni1 O2 2.048501 1_655
Ni1 O6 2.048501 1_544
Ni1 O0 2.113337 1_654
Ni1 O3 2.113337 1_545
