# generated using pymatgen
data_Na3NiBAsO7
_symmetry_space_group_name_H-M   'P 1'
_cell_length_a   6.95765900
_cell_length_b   5.21613200
_cell_length_c   8.99765508
_cell_angle_alpha   87.96044143
_cell_angle_beta   90.00000000
_cell_angle_gamma   90.00000000
_symmetry_Int_Tables_number   1
_chemical_formula_structural   Na3NiBAsO7
_chemical_formula_sum   'Na6 Ni2 B2 As2 O14'
_cell_volume   326.33664011
_cell_formula_units_Z   2
loop_
 _symmetry_equiv_pos_site_id
 _symmetry_equiv_pos_as_xyz
  1  'x, y, z'
loop_
 _atom_site_type_symbol
 _atom_site_label
 _atom_site_symmetry_multiplicity
 _atom_site_fract_x
 _atom_site_fract_y
 _atom_site_fract_z
 _atom_site_occupancy
  Na  Na0  1  0.75000000  0.23756100  0.91942200  1
  Na  Na1  1  0.99668800  0.74883900  0.74574000  1
  Na  Na2  1  0.50331200  0.74883900  0.74574000  1
  Na  Na3  1  0.49668800  0.25116100  0.25426000  1
  Na  Na4  1  0.00331200  0.25116100  0.25426000  1
  Na  Na5  1  0.25000000  0.76243900  0.08057800  1
  Ni  Ni0  1  0.25000000  0.21356800  0.66720200  1
  Ni  Ni1  1  0.75000000  0.78643200  0.33279800  1
  B  B0  1  0.25000000  0.26997100  0.93251500  1
  B  B1  1  0.75000000  0.73002900  0.06748500  1
  As  As0  1  0.75000000  0.28512900  0.57812700  1
  As  As1  1  0.25000000  0.71487100  0.42187300  1
  O  O0  1  0.75000000  0.69983300  0.91996500  1
  O  O1  1  0.25000000  0.03453700  0.86583400  1
  O  O2  1  0.25000000  0.46877900  0.82612300  1
  O  O3  1  0.94164300  0.21703000  0.69249900  1
  O  O4  1  0.55835700  0.21703000  0.69249900  1
  O  O5  1  0.75000000  0.61017800  0.53068100  1
  O  O6  1  0.25000000  0.86885900  0.58633500  1
  O  O7  1  0.75000000  0.13114100  0.41366500  1
  O  O8  1  0.25000000  0.38982200  0.46931900  1
  O  O9  1  0.44164300  0.78297000  0.30750100  1
  O  O10  1  0.05835700  0.78297000  0.30750100  1
  O  O11  1  0.75000000  0.53122100  0.17387700  1
  O  O12  1  0.75000000  0.96546300  0.13416600  1
  O  O13  1  0.25000000  0.30016700  0.08003500  1
loop_
_geom_bond_atom_site_label_1
_geom_bond_atom_site_label_2
_geom_bond_distance
_geom_bond_site_symmetry_2
Na0 O12 2.356391 1_546
Na0 O0 2.411451 1_555
Na0 O3 2.444135 1_555
Na0 O4 2.444135 1_555
Na0 O11 2.799597 1_556
Na0 O0 2.804691 1_545
Na1 O0 2.332417 1_555
Na1 O6 2.343375 1_655
Na1 O2 2.384991 1_655
Na1 O3 2.501393 1_565
Na1 O1 2.570858 1_665
Na1 O5 2.704256 1_555
Na1 O3 2.857577 1_555
Na2 O0 2.332417 1_555
Na2 O6 2.343375 1_555
Na2 O2 2.384991 1_555
Na2 O4 2.501393 1_565
Na2 O1 2.570858 1_565
Na2 O5 2.704256 1_555
Na2 O4 2.857577 1_555
Na3 O13 2.332417 1_555
Na3 O7 2.343375 1_555
Na3 O11 2.384991 1_555
Na3 O9 2.501393 1_545
Na3 O12 2.570858 1_545
Na3 O8 2.704256 1_555
Na3 O9 2.857577 1_555
Na4 O13 2.332417 1_555
Na4 O7 2.343375 1_455
Na4 O11 2.384991 1_455
Na4 O10 2.501393 1_545
Na4 O12 2.570858 1_445
Na4 O8 2.704256 1_555
Na4 O10 2.857577 1_555
Na5 O1 2.356391 1_564
Na5 O13 2.411451 1_555
Na5 O9 2.444135 1_555
Na5 O10 2.444135 1_555
Na5 O2 2.799597 1_554
Na5 O13 2.804691 1_565
Ni0 O6 1.963548 1_545
Ni0 O8 1.974547 1_555
Ni0 O1 1.986817 1_555
Ni0 O2 1.988035 1_555
Ni0 O3 2.157626 1_455
Ni0 O4 2.157626 1_555
Ni1 O7 1.963548 1_565
Ni1 O5 1.974547 1_555
Ni1 O12 1.986817 1_555
Ni1 O11 1.988035 1_555
Ni1 O10 2.157626 1_655
Ni1 O9 2.157626 1_555
B0 O13 1.342202 1_556
B0 O1 1.385832 1_555
B0 O2 1.386041 1_555
B1 O0 1.342202 1_554
B1 O12 1.385832 1_555
B1 O11 1.386041 1_555
As0 O7 1.708653 1_555
As0 O4 1.713792 1_555
As0 O3 1.713792 1_555
As0 O5 1.733621 1_555
As1 O6 1.708653 1_555
As1 O9 1.713792 1_555
As1 O10 1.713792 1_555
As1 O8 1.733621 1_555
