# generated using pymatgen
data_Ba3GeO5
_symmetry_space_group_name_H-M   'P 1'
_cell_length_a   7.82351431
_cell_length_b   7.82351431
_cell_length_c   7.82351431
_cell_angle_alpha   123.90047089
_cell_angle_beta   123.90047089
_cell_angle_gamma   83.36731217
_symmetry_Int_Tables_number   1
_chemical_formula_structural   Ba3GeO5
_chemical_formula_sum   'Ba6 Ge2 O10'
_cell_volume   316.31670398
_cell_formula_units_Z   2
loop_
 _symmetry_equiv_pos_site_id
 _symmetry_equiv_pos_as_xyz
  1  'x, y, z'
loop_
 _atom_site_type_symbol
 _atom_site_label
 _atom_site_symmetry_multiplicity
 _atom_site_fract_x
 _atom_site_fract_y
 _atom_site_fract_z
 _atom_site_occupancy
  Ba  Ba0  1  0.81945506  0.31945506  0.13890911  1
  Ba  Ba1  1  0.25000000  0.25000000  -0.00000000  1
  Ba  Ba2  1  0.75000000  0.75000000  0.00000000  1
  Ba  Ba3  1  0.31945506  0.18054494  0.50000000  1
  Ba  Ba4  1  0.68054494  0.81945506  0.50000000  1
  Ba  Ba5  1  0.18054494  0.68054494  0.86109089  1
  Ge  Ge0  1  0.75000000  0.25000000  0.50000000  1
  Ge  Ge1  1  0.25000000  0.75000000  0.50000000  1
  O  O0  1  0.52334916  0.02334916  0.23111069  1
  O  O1  1  0.97665084  0.20776153  0.50000000  1
  O  O2  1  0.00000000  0.00000000  0.00000000  1
  O  O3  1  0.50000000  0.50000000  0.00000000  1
  O  O4  1  0.70776153  0.47665084  0.50000000  1
  O  O5  1  0.79223847  0.29223847  0.76888931  1
  O  O6  1  0.29223847  0.52334916  0.50000000  1
  O  O7  1  0.20776153  0.70776153  0.23111069  1
  O  O8  1  0.02334916  0.79223847  0.50000000  1
  O  O9  1  0.47665084  0.97665084  0.76888931  1
loop_
_geom_bond_atom_site_label_1
_geom_bond_atom_site_label_2
_geom_bond_distance
_geom_bond_site_symmetry_2
Ba0 O5 2.665735 1_554
Ba0 O9 2.665744 1_544
Ba0 O3 2.699912 1_555
Ba0 O2 2.699912 1_655
Ba0 O6 2.981033 1_655
Ba0 O8 2.981033 1_655
Ba0 O1 2.981040 1_555
Ba0 O4 2.981040 1_555
Ba1 O3 2.921409 1_555
Ba1 O2 2.921409 1_555
Ba1 O6 3.061698 1_555
Ba1 O8 3.061698 1_544
Ba1 O0 3.061698 1_555
Ba1 O7 3.061698 1_555
Ba1 O4 3.061698 1_555
Ba1 O9 3.061698 1_544
Ba1 O5 3.061698 1_454
Ba1 O1 3.061698 1_454
Ba2 O3 2.921409 1_555
Ba2 O2 2.921409 1_665
Ba2 O6 3.061698 1_554
Ba2 O4 3.061698 1_554
Ba2 O0 3.061698 1_565
Ba2 O7 3.061698 1_655
Ba2 O1 3.061698 1_565
Ba2 O9 3.061698 1_554
Ba2 O5 3.061698 1_554
Ba2 O8 3.061698 1_655
Ba3 O6 2.665743 1_555
Ba3 O1 2.665743 1_455
Ba3 O2 2.699913 1_555
Ba3 O3 2.699913 1_556
Ba3 O0 2.981033 1_555
Ba3 O9 2.981033 1_545
Ba3 O5 2.981033 1_555
Ba3 O7 2.981033 1_545
Ba4 O8 2.665743 1_655
Ba4 O4 2.665743 1_555
Ba4 O3 2.699913 1_555
Ba4 O2 2.699913 1_666
Ba4 O0 2.981033 1_565
Ba4 O5 2.981033 1_565
Ba4 O9 2.981033 1_555
Ba4 O7 2.981033 1_555
Ba5 O7 2.665735 1_556
Ba5 O0 2.665744 1_566
Ba5 O3 2.699912 1_556
Ba5 O2 2.699912 1_566
Ba5 O4 2.981033 1_455
Ba5 O1 2.981033 1_455
Ba5 O6 2.981040 1_555
Ba5 O8 2.981040 1_555
Ge0 O0 1.765814 1_555
Ge0 O5 1.765814 1_555
Ge0 O1 1.765814 1_555
Ge0 O4 1.765814 1_555
Ge1 O8 1.765814 1_555
Ge1 O7 1.765814 1_555
Ge1 O6 1.765814 1_555
Ge1 O9 1.765814 1_555
