# generated using pymatgen
data_Co(BiO3)2
_symmetry_space_group_name_H-M   'P 1'
_cell_length_a   6.81324137
_cell_length_b   6.81280961
_cell_length_c   9.69575849
_cell_angle_alpha   89.99998477
_cell_angle_beta   89.99999810
_cell_angle_gamma   89.99958814
_symmetry_Int_Tables_number   1
_chemical_formula_structural   Co(BiO3)2
_chemical_formula_sum   'Co4 Bi8 O24'
_cell_volume   450.05108852
_cell_formula_units_Z   4
loop_
 _symmetry_equiv_pos_site_id
 _symmetry_equiv_pos_as_xyz
  1  'x, y, z'
loop_
 _atom_site_type_symbol
 _atom_site_label
 _atom_site_symmetry_multiplicity
 _atom_site_fract_x
 _atom_site_fract_y
 _atom_site_fract_z
 _atom_site_occupancy
  Co  Co0  1  0.50000078  0.50000014  -0.00000275  1
  Co  Co1  1  0.00000014  0.49999948  0.50000281  1
  Co  Co2  1  0.00000065  0.00000040  -0.00000310  1
  Co  Co3  1  0.49999985  -0.00000061  0.50000306  1
  Bi  Bi0  1  0.50000043  0.50000021  0.33397410  1
  Bi  Bi1  1  0.00000020  0.00000021  0.33397669  1
  Bi  Bi2  1  -0.00000008  0.00000011  0.66603366  1
  Bi  Bi3  1  0.50000016  0.49999936  0.66603714  1
  Bi  Bi4  1  0.50000055  0.00000018  0.16597793  1
  Bi  Bi5  1  0.00000099  0.50000029  0.16597905  1
  Bi  Bi6  1  0.49999979  -0.00000037  0.83401051  1
  Bi  Bi7  1  -0.00000035  0.50000007  0.83400955  1
  O  O0  1  0.50000202  0.28313584  0.50000508  1
  O  O1  1  0.00000977  0.78313176  0.50000495  1
  O  O2  1  0.28312496  0.00000388  -0.00000513  1
  O  O3  1  0.78311043  0.50000396  -0.00000483  1
  O  O4  1  0.71687473  0.99999648  -0.00000553  1
  O  O5  1  0.21688947  0.49999637  -0.00000540  1
  O  O6  1  0.49999824  0.71686445  0.50000537  1
  O  O7  1  0.99999055  0.21686890  0.50000487  1
  O  O8  1  0.50000408  0.31840126  0.14996461  1
  O  O9  1  0.00000297  0.81839129  0.14997231  1
  O  O10  1  0.50000503  0.31840314  0.85003353  1
  O  O11  1  0.00000370  0.81839351  0.85002545  1
  O  O12  1  0.31840866  0.99999980  0.34995023  1
  O  O13  1  0.81840947  0.50001103  0.34994935  1
  O  O14  1  0.31841035  0.99999980  0.65005199  1
  O  O15  1  0.81841226  0.50001216  0.65005123  1
  O  O16  1  0.68159177  -0.00000036  0.34995012  1
  O  O17  1  0.18159145  0.49998873  0.34994926  1
  O  O18  1  0.68158969  -0.00000011  0.65005232  1
  O  O19  1  0.18158836  0.49998600  0.65005216  1
  O  O20  1  0.49999560  0.68159884  0.14996418  1
  O  O21  1  0.99999676  0.18160902  0.14997200  1
  O  O22  1  0.49999683  0.68159620  0.85003354  1
  O  O23  1  0.99999777  0.18160660  0.85002568  1
loop_
_geom_bond_atom_site_label_1
_geom_bond_atom_site_label_2
_geom_bond_distance
_geom_bond_site_symmetry_2
Co0 O22 1.909126 1_554
Co0 O10 1.909131 1_554
Co0 O20 1.909162 1_555
Co0 O8 1.909166 1_555
Co0 O3 1.928894 1_555
Co0 O5 1.928906 1_555
Co1 O15 1.909767 1_455
Co1 O19 1.909775 1_555
Co1 O13 1.909816 1_455
Co1 O17 1.909820 1_555
Co1 O7 1.928915 1_455
Co1 O1 1.928926 1_555
Co2 O23 1.909226 1_454
Co2 O11 1.909232 1_544
Co2 O21 1.909266 1_455
Co2 O9 1.909270 1_545
Co2 O2 1.928994 1_555
Co2 O4 1.929005 1_445
Co3 O14 1.909778 1_545
Co3 O18 1.909782 1_555
Co3 O12 1.909814 1_545
Co3 O16 1.909818 1_555
Co3 O6 1.928944 1_545
Co3 O0 1.928955 1_555
Bi0 O8 2.171110 1_555
Bi0 O20 2.171111 1_555
Bi0 O17 2.174920 1_555
Bi0 O13 2.174920 1_555
Bi0 O0 2.185021 1_555
Bi0 O6 2.185023 1_555
Bi1 O9 2.171108 1_545
Bi1 O21 2.171109 1_455
Bi1 O16 2.174915 1_455
Bi1 O12 2.174915 1_545
Bi1 O1 2.185021 1_545
Bi1 O7 2.185022 1_455
Bi2 O11 2.170998 1_545
Bi2 O23 2.171000 1_455
Bi2 O18 2.174932 1_455
Bi2 O14 2.174934 1_545
Bi2 O1 2.185024 1_545
Bi2 O7 2.185026 1_455
Bi3 O10 2.170994 1_555
Bi3 O22 2.170997 1_555
Bi3 O19 2.174946 1_555
Bi3 O15 2.174948 1_555
Bi3 O0 2.185026 1_555
Bi3 O6 2.185030 1_555
Bi4 O16 2.170827 1_555
Bi4 O12 2.170830 1_545
Bi4 O8 2.174755 1_555
Bi4 O20 2.174757 1_545
Bi4 O4 2.184791 1_545
Bi4 O2 2.184794 1_555
Bi5 O17 2.170808 1_555
Bi5 O13 2.170813 1_455
Bi5 O9 2.174682 1_555
Bi5 O21 2.174684 1_455
Bi5 O5 2.184864 1_555
Bi5 O3 2.184869 1_455
Bi6 O18 2.170710 1_555
Bi6 O14 2.170711 1_545
Bi6 O22 2.174778 1_545
Bi6 O10 2.174779 1_555
Bi6 O4 2.184798 1_546
Bi6 O2 2.184800 1_556
Bi7 O19 2.170699 1_555
Bi7 O15 2.170701 1_455
Bi7 O11 2.174705 1_555
Bi7 O23 2.174705 1_455
Bi7 O5 2.184874 1_556
Bi7 O3 2.184875 1_456
