# generated using pymatgen
data_Ba4LiY2Cu5O14
_symmetry_space_group_name_H-M   'P 1'
_cell_length_a   5.50372501
_cell_length_b   5.50372501
_cell_length_c   12.50736570
_cell_angle_alpha   77.52371200
_cell_angle_beta   77.52371200
_cell_angle_gamma   90.97640653
_symmetry_Int_Tables_number   1
_chemical_formula_structural   Ba4LiY2Cu5O14
_chemical_formula_sum   'Ba4 Li1 Y2 Cu5 O14'
_cell_volume   360.37105583
_cell_formula_units_Z   1
loop_
 _symmetry_equiv_pos_site_id
 _symmetry_equiv_pos_as_xyz
  1  'x, y, z'
loop_
 _atom_site_type_symbol
 _atom_site_label
 _atom_site_symmetry_multiplicity
 _atom_site_fract_x
 _atom_site_fract_y
 _atom_site_fract_z
 _atom_site_occupancy
  Ba  Ba0  1  0.90484900  0.40468000  0.18725500  1
  Ba  Ba1  1  0.59066700  0.09206900  0.81807400  1
  Ba  Ba2  1  0.40468000  0.90484900  0.18725500  1
  Ba  Ba3  1  0.09206900  0.59066700  0.81807400  1
  Li  Li0  1  0.82957200  0.82957200  0.33683100  1
  Y  Y0  1  0.75045600  0.24880500  0.49743500  1
  Y  Y1  1  0.24880500  0.75045600  0.49743500  1
  Cu  Cu0  1  0.99866100  0.99866100  0.00272400  1
  Cu  Cu1  1  0.49898500  0.49898500  0.99985800  1
  Cu  Cu2  1  0.17632700  0.17632700  0.64666000  1
  Cu  Cu3  1  0.67656200  0.67656200  0.64567900  1
  Cu  Cu4  1  0.31174200  0.31174200  0.37171600  1
  O  O0  1  0.73634800  0.23584900  0.00125300  1
  O  O1  1  0.54684700  0.06812900  0.38083300  1
  O  O2  1  0.42207800  0.42207800  0.15511400  1
  O  O3  1  0.06514300  0.06514300  0.38149500  1
  O  O4  1  0.23584900  0.73634800  0.00125300  1
  O  O5  1  0.93617400  0.43767300  0.62141700  1
  O  O6  1  0.06812900  0.54684700  0.38083300  1
  O  O7  1  0.08117800  0.08117800  0.84482600  1
  O  O8  1  0.92125500  0.92125500  0.16117100  1
  O  O9  1  0.43823100  0.43823100  0.62307500  1
  O  O10  1  0.54974800  0.54974800  0.38160800  1
  O  O11  1  0.43767300  0.93617400  0.62141700  1
  O  O12  1  0.58232500  0.58232500  0.84273900  1
  O  O13  1  0.93749400  0.93749400  0.62335600  1
loop_
_geom_bond_atom_site_label_1
_geom_bond_atom_site_label_2
_geom_bond_distance
_geom_bond_site_symmetry_2
Ba0 O8 2.750288 1_545
Ba0 O2 2.772034 1_555
Ba0 O2 2.784605 1_655
Ba0 O8 2.788457 1_555
Ba0 O4 2.878128 1_655
Ba0 O0 2.995392 1_555
Ba0 O6 3.002734 1_655
Ba0 O1 3.008640 1_555
Ba0 O3 3.032031 1_655
Ba0 O10 3.033997 1_555
Ba1 O7 2.749304 1_555
Ba1 O12 2.753833 1_545
Ba1 O12 2.781276 1_555
Ba1 O7 2.791187 1_655
Ba1 O0 2.841401 1_556
Ba1 O4 2.982292 1_546
Ba1 O5 3.019654 1_555
Ba1 O9 3.035265 1_555
Ba1 O13 3.039833 1_545
Ba1 O11 3.045853 1_545
Ba2 O8 2.750288 1_455
Ba2 O2 2.772034 1_555
Ba2 O2 2.784605 1_565
Ba2 O8 2.788457 1_555
Ba2 O0 2.878128 1_565
Ba2 O4 2.995392 1_555
Ba2 O1 3.002734 1_565
Ba2 O6 3.008640 1_555
Ba2 O3 3.032031 1_565
Ba2 O10 3.033997 1_555
Ba3 O7 2.749304 1_555
Ba3 O12 2.753833 1_455
Ba3 O12 2.781276 1_555
Ba3 O7 2.791187 1_565
Ba3 O4 2.841401 1_556
Ba3 O0 2.982292 1_456
Ba3 O11 3.019654 1_555
Ba3 O9 3.035265 1_555
Ba3 O13 3.039833 1_455
Ba3 O5 3.045853 1_455
Li0 O10 2.056974 1_555
Li0 O3 2.059750 1_665
Li0 O8 2.090348 1_555
Li0 O6 2.111827 1_655
Li0 O1 2.111827 1_565
Cu0 O7 1.878992 1_664
Cu0 O8 1.885361 1_555
Cu0 O0 1.963173 1_565
Cu0 O4 1.963173 1_655
Cu1 O2 1.847351 1_556
Cu1 O12 1.869889 1_555
Cu1 O0 1.966649 1_556
Cu1 O4 1.966649 1_556
Cu2 O9 1.950463 1_555
Cu2 O13 1.952644 1_445
Cu2 O11 1.991099 1_545
Cu2 O5 1.991099 1_455
Cu2 O7 2.358103 1_555
Cu3 O9 1.944969 1_555
Cu3 O13 1.945747 1_555
Cu3 O5 1.977717 1_555
Cu3 O11 1.977717 1_555
Cu3 O12 2.344980 1_555
Cu4 O3 1.868900 1_555
Cu4 O10 1.878471 1_555
Cu4 O1 1.881974 1_555
Cu4 O6 1.881974 1_555
Cu4 O2 2.577336 1_555
O1 Y1 2.375160 1_545
O1 Y0 2.380377 1_555
O3 Y0 2.394174 1_455
O3 Y1 2.394174 1_545
O5 Y0 2.423842 1_555
O5 Y1 2.433412 1_655
O6 Y0 2.375160 1_455
O6 Y1 2.380377 1_555
O9 Y0 2.472117 1_555
O9 Y1 2.472117 1_555
O10 Y1 2.404026 1_555
O10 Y0 2.404026 1_555
O11 Y1 2.423842 1_555
O11 Y0 2.433412 1_565
O13 Y0 2.463825 1_565
O13 Y1 2.463825 1_655
