# generated using pymatgen
data_Mn2InO5
_symmetry_space_group_name_H-M   'P 1'
_cell_length_a   5.37868114
_cell_length_b   5.37868114
_cell_length_c   10.27286900
_cell_angle_alpha   90.00000000
_cell_angle_beta   90.00000000
_cell_angle_gamma   137.37261674
_symmetry_Int_Tables_number   1
_chemical_formula_structural   Mn2InO5
_chemical_formula_sum   'Mn4 In2 O10'
_cell_volume   201.26954167
_cell_formula_units_Z   2
loop_
 _symmetry_equiv_pos_site_id
 _symmetry_equiv_pos_as_xyz
  1  'x, y, z'
loop_
 _atom_site_type_symbol
 _atom_site_label
 _atom_site_symmetry_multiplicity
 _atom_site_fract_x
 _atom_site_fract_y
 _atom_site_fract_z
 _atom_site_occupancy
  Mn  Mn0  1  0.86208100  0.13791900  0.55757900  1
  Mn  Mn1  1  0.86208100  0.13791900  0.94242100  1
  Mn  Mn2  1  0.13791900  0.86208100  0.05757900  1
  Mn  Mn3  1  0.13791900  0.86208100  0.44242100  1
  In  In0  1  0.80425300  0.19574700  0.25000000  1
  In  In1  1  0.19574700  0.80425300  0.75000000  1
  O  O0  1  0.95289000  0.04711000  0.10808100  1
  O  O1  1  0.95289000  0.04711000  0.39191900  1
  O  O2  1  0.68945000  0.31055000  0.44644600  1
  O  O3  1  0.68945000  0.31055000  0.05355400  1
  O  O4  1  0.78882400  0.21117600  0.75000000  1
  O  O5  1  0.21117600  0.78882400  0.25000000  1
  O  O6  1  0.04711000  0.95289000  0.60808100  1
  O  O7  1  0.31055000  0.68945000  0.55355400  1
  O  O8  1  0.04711000  0.95289000  0.89191900  1
  O  O9  1  0.31055000  0.68945000  0.94644600  1
loop_
_geom_bond_atom_site_label_1
_geom_bond_atom_site_label_2
_geom_bond_distance
_geom_bond_site_symmetry_2
Mn0 O6 1.925497 1_645
Mn0 O1 1.929852 1_555
Mn0 O7 2.022490 1_655
Mn0 O7 2.022490 1_545
Mn0 O2 2.072779 1_555
Mn0 O4 2.108645 1_555
Mn1 O8 1.925497 1_645
Mn1 O0 1.929852 1_556
Mn1 O9 2.022490 1_655
Mn1 O9 2.022490 1_545
Mn1 O3 2.072779 1_556
Mn1 O4 2.108645 1_555
Mn2 O0 1.925497 1_465
Mn2 O8 1.929852 1_554
Mn2 O3 2.022490 1_455
Mn2 O3 2.022490 1_565
Mn2 O9 2.072779 1_554
Mn2 O5 2.108645 1_555
Mn3 O1 1.925497 1_465
Mn3 O6 1.929852 1_555
Mn3 O2 2.022490 1_455
Mn3 O2 2.022490 1_565
Mn3 O7 2.072779 1_555
Mn3 O5 2.108645 1_555
In0 O1 2.084315 1_555
In0 O0 2.084315 1_555
In0 O5 2.166136 1_655
In0 O5 2.166136 1_545
In0 O2 2.322984 1_555
In0 O3 2.322984 1_555
In1 O8 2.084315 1_555
In1 O6 2.084315 1_555
In1 O4 2.166136 1_455
In1 O4 2.166136 1_565
In1 O7 2.322984 1_555
In1 O9 2.322984 1_555
