# generated using pymatgen
data_FeOF
_symmetry_space_group_name_H-M   'P 1'
_cell_length_a   12.26487500
_cell_length_b   4.75331000
_cell_length_c   4.76836892
_cell_angle_alpha   89.90972524
_cell_angle_beta   90.00000000
_cell_angle_gamma   90.00000000
_symmetry_Int_Tables_number   1
_chemical_formula_structural   FeOF
_chemical_formula_sum   'Fe8 O8 F8'
_cell_volume   277.98961669
_cell_formula_units_Z   8
loop_
 _symmetry_equiv_pos_site_id
 _symmetry_equiv_pos_as_xyz
  1  'x, y, z'
loop_
 _atom_site_type_symbol
 _atom_site_label
 _atom_site_symmetry_multiplicity
 _atom_site_fract_x
 _atom_site_fract_y
 _atom_site_fract_z
 _atom_site_occupancy
  Fe  Fe0  1  0.12536900  0.95258700  0.00797600  1
  Fe  Fe1  1  0.37552600  0.02764600  0.97069700  1
  Fe  Fe2  1  0.62447400  0.02764600  0.97069700  1
  Fe  Fe3  1  0.87463100  0.95258700  0.00797600  1
  Fe  Fe4  1  0.50000000  0.44522600  0.48084300  1
  Fe  Fe5  1  0.00000000  0.53836800  0.49851000  1
  Fe  Fe6  1  0.25037300  0.52726000  0.52601100  1
  Fe  Fe7  1  0.74962700  0.52726000  0.52601100  1
  O  O0  1  0.25361100  0.81212300  0.81622800  1
  O  O1  1  0.74638900  0.81212300  0.81622800  1
  O  O2  1  0.00000000  0.79906900  0.81865600  1
  O  O3  1  0.87140800  0.68884900  0.32049800  1
  O  O4  1  0.12859200  0.68884900  0.32049800  1
  O  O5  1  0.37304600  0.31056500  0.67799700  1
  O  O6  1  0.62695400  0.31056500  0.67799700  1
  O  O7  1  0.50000000  0.18276200  0.16946100  1
  F  F0  1  0.50000000  0.80112500  0.78024600  1
  F  F1  1  0.37760800  0.69983100  0.29376900  1
  F  F2  1  0.62239200  0.69983100  0.29376900  1
  F  F3  1  0.87604400  0.29990300  0.70981500  1
  F  F4  1  0.12395600  0.29990300  0.70981500  1
  F  F5  1  0.75139700  0.20231000  0.19883600  1
  F  F6  1  0.00000000  0.19130300  0.20863200  1
  F  F7  1  0.24860300  0.20231000  0.19883600  1
loop_
_geom_bond_atom_site_label_1
_geom_bond_atom_site_label_2
_geom_bond_distance
_geom_bond_site_symmetry_2
Fe0 O2 1.927133 1_554
Fe0 O0 1.938459 1_554
Fe0 O4 1.946283 1_555
Fe1 O5 1.936875 1_555
Fe1 O7 1.942886 1_556
Fe1 O0 1.957099 1_545
Fe2 O6 1.936875 1_555
Fe2 O7 1.942886 1_556
Fe2 O1 1.957099 1_545
Fe3 O2 1.927133 1_654
Fe3 O1 1.938459 1_554
Fe3 O3 1.946283 1_555
Fe4 O6 1.927716 1_555
Fe4 O5 1.927716 1_555
Fe4 O7 1.940840 1_555
Fe5 O4 1.928127 1_555
Fe5 O3 1.928127 1_455
Fe5 O2 1.967737 1_555
Fe6 O0 1.938036 1_555
Fe6 O4 1.943922 1_555
Fe6 O5 1.961515 1_555
Fe7 O1 1.938036 1_555
Fe7 O3 1.943922 1_555
Fe7 O6 1.961515 1_555
F0 Fe2 2.077937 1_565
F0 Fe1 2.077937 1_565
F0 Fe4 2.215328 1_555
F1 Fe6 2.081249 1_555
F1 Fe4 2.123752 1_555
F1 Fe1 2.189593 1_564
F2 Fe7 2.081249 1_555
F2 Fe4 2.123752 1_555
F2 Fe2 2.189593 1_564
F3 Fe7 2.082569 1_555
F3 Fe5 2.146570 1_655
F3 Fe3 2.177091 1_546
F4 Fe6 2.082569 1_555
F4 Fe5 2.146570 1_555
F4 Fe0 2.177091 1_546
F5 Fe2 2.073367 1_554
F5 Fe3 2.127239 1_545
F5 Fe7 2.197203 1_555
F6 Fe0 2.137928 1_545
F6 Fe3 2.137928 1_445
F6 Fe5 2.153909 1_555
F7 Fe1 2.073367 1_554
F7 Fe0 2.127239 1_545
F7 Fe6 2.197203 1_555
