# generated using pymatgen
data_LiBi(BO3)2
_symmetry_space_group_name_H-M   'P 1'
_cell_length_a   5.98673800
_cell_length_b   4.62087800
_cell_length_c   9.08124517
_cell_angle_alpha   62.20671449
_cell_angle_beta   90.00000000
_cell_angle_gamma   90.00000000
_symmetry_Int_Tables_number   1
_chemical_formula_structural   LiBi(BO3)2
_chemical_formula_sum   'Li2 Bi2 B4 O12'
_cell_volume   222.24120361
_cell_formula_units_Z   2
loop_
 _symmetry_equiv_pos_site_id
 _symmetry_equiv_pos_as_xyz
  1  'x, y, z'
loop_
 _atom_site_type_symbol
 _atom_site_label
 _atom_site_symmetry_multiplicity
 _atom_site_fract_x
 _atom_site_fract_y
 _atom_site_fract_z
 _atom_site_occupancy
  Li  Li0  1  0.50000000  0.50000000  0.50000000  1
  Li  Li1  1  0.00000000  0.50000000  0.00000000  1
  Bi  Bi0  1  0.50000000  0.00000000  0.00000000  1
  Bi  Bi1  1  0.00000000  0.00000000  0.50000000  1
  B  B0  1  0.13888800  0.73566700  0.25958800  1
  B  B1  1  0.63888800  0.26433300  0.24041200  1
  B  B2  1  0.36111200  0.73566700  0.75958800  1
  B  B3  1  0.86111200  0.26433300  0.74041200  1
  O  O0  1  0.44589000  0.01111100  0.76256500  1
  O  O1  1  0.18786300  0.75753300  0.10471400  1
  O  O2  1  0.18368000  0.45380000  0.40612300  1
  O  O3  1  0.68368000  0.54620000  0.09387700  1
  O  O4  1  0.68786300  0.24246700  0.39528600  1
  O  O5  1  0.94589000  0.98888900  0.73743500  1
  O  O6  1  0.05411000  0.01111100  0.26256500  1
  O  O7  1  0.31213700  0.75753300  0.60471400  1
  O  O8  1  0.31632000  0.45380000  0.90612300  1
  O  O9  1  0.81632000  0.54620000  0.59387700  1
  O  O10  1  0.81213700  0.24246700  0.89528600  1
  O  O11  1  0.55411000  0.98888900  0.23743500  1
loop_
_geom_bond_atom_site_label_1
_geom_bond_atom_site_label_2
_geom_bond_distance
_geom_bond_site_symmetry_2
Li0 O9 2.127977 1_555
Li0 O2 2.127977 1_555
Li0 O7 2.154226 1_555
Li0 O4 2.154226 1_555
Li0 O0 2.422914 1_555
Li0 O11 2.422914 1_555
Li1 O3 2.127977 1_455
Li1 O8 2.127977 1_554
Li1 O1 2.154226 1_555
Li1 O10 2.154226 1_454
Li1 O5 2.422914 1_454
Li1 O6 2.422914 1_555
Bi0 O11 2.157210 1_545
Bi0 O0 2.157210 1_554
Bi0 O1 2.158235 1_545
Bi0 O10 2.158235 1_554
Bi0 O3 2.160111 1_545
Bi0 O8 2.160111 1_554
Bi1 O5 2.157210 1_445
Bi1 O6 2.157210 1_555
Bi1 O7 2.158235 1_545
Bi1 O4 2.158235 1_455
Bi1 O2 2.160111 1_555
Bi1 O9 2.160111 1_445
B0 O6 1.382181 1_565
B0 O2 1.386655 1_555
B0 O1 1.393467 1_555
B1 O11 1.382181 1_545
B1 O3 1.386655 1_555
B1 O4 1.393467 1_555
B2 O0 1.382181 1_565
B2 O8 1.386655 1_555
B2 O7 1.393467 1_555
B3 O5 1.382181 1_545
B3 O9 1.386655 1_555
B3 O10 1.393467 1_555
