# generated using pymatgen
data_V2H15(NO4)3
_symmetry_space_group_name_H-M   'P 1'
_cell_length_a   10.84156800
_cell_length_b   7.87113900
_cell_length_c   18.24841231
_cell_angle_alpha   88.50311806
_cell_angle_beta   90.00000000
_cell_angle_gamma   90.00000000
_symmetry_Int_Tables_number   1
_chemical_formula_structural   V2H15(NO4)3
_chemical_formula_sum   'V8 H60 N12 O48'
_cell_volume   1556.70577204
_cell_formula_units_Z   4
loop_
 _symmetry_equiv_pos_site_id
 _symmetry_equiv_pos_as_xyz
  1  'x, y, z'
loop_
 _atom_site_type_symbol
 _atom_site_label
 _atom_site_symmetry_multiplicity
 _atom_site_fract_x
 _atom_site_fract_y
 _atom_site_fract_z
 _atom_site_occupancy
  V  V0  1  0.18719200  0.75937100  0.94756500  1
  V  V1  1  0.68719200  0.24062900  0.55243500  1
  V  V2  1  0.81280800  0.24062900  0.05243500  1
  V  V3  1  0.31280800  0.75937100  0.44756500  1
  V  V4  1  0.40712800  0.72562600  0.83003800  1
  V  V5  1  0.90712800  0.27437400  0.66996200  1
  V  V6  1  0.59287200  0.27437400  0.16996200  1
  V  V7  1  0.09287200  0.72562600  0.33003800  1
  H  H0  1  0.30834200  0.65355200  0.71388200  1
  H  H1  1  0.80834200  0.34644800  0.78611800  1
  H  H2  1  0.69165800  0.34644800  0.28611800  1
  H  H3  1  0.19165800  0.65355200  0.21388200  1
  H  H4  1  0.24800200  0.28429900  0.61635300  1
  H  H5  1  0.74800200  0.71570100  0.88364700  1
  H  H6  1  0.75199800  0.71570100  0.38364700  1
  H  H7  1  0.25199800  0.28429900  0.11635300  1
  H  H8  1  0.40720600  0.24590800  0.60698000  1
  H  H9  1  0.90720600  0.75409200  0.89302000  1
  H  H10  1  0.59279400  0.75409200  0.39302000  1
  H  H11  1  0.09279400  0.24590800  0.10698000  1
  H  H12  1  0.20548300  0.01845700  0.76759400  1
  H  H13  1  0.70548300  0.98154300  0.73240600  1
  H  H14  1  0.79451700  0.98154300  0.23240600  1
  H  H15  1  0.29451700  0.01845700  0.26759400  1
  H  H16  1  0.60066200  0.91110600  0.67173000  1
  H  H17  1  0.10066200  0.08889400  0.82827000  1
  H  H18  1  0.39933800  0.08889400  0.32827000  1
  H  H19  1  0.89933800  0.91110600  0.17173000  1
  H  H20  1  0.33983200  0.42499300  0.56124500  1
  H  H21  1  0.83983200  0.57500700  0.93875500  1
  H  H22  1  0.66016800  0.57500700  0.43875500  1
  H  H23  1  0.16016800  0.42499300  0.06124500  1
  H  H24  1  0.60873800  0.95372200  0.50050500  1
  H  H25  1  0.10873800  0.04627800  0.99949500  1
  H  H26  1  0.39126200  0.04627800  0.49949500  1
  H  H27  1  0.89126200  0.95372200  0.00050500  1
  H  H28  1  0.77254100  0.56136200  0.64340000  1
  H  H29  1  0.27254100  0.43863800  0.85660000  1
  H  H30  1  0.22745900  0.43863800  0.35660000  1
  H  H31  1  0.72745900  0.56136200  0.14340000  1
  H  H32  1  0.12489300  0.19722700  0.74682900  1
  H  H33  1  0.62489300  0.80277300  0.75317100  1
  H  H34  1  0.87510700  0.80277300  0.25317100  1
  H  H35  1  0.37510700  0.19722700  0.24682900  1
  H  H36  1  0.10002400  0.79808900  0.61651800  1
  H  H37  1  0.60002400  0.20191100  0.88348200  1
  H  H38  1  0.89997600  0.20191100  0.38348200  1
  H  H39  1  0.39997600  0.79808900  0.11651800  1
  H  H40  1  0.14595700  0.68241200  0.81327100  1
  H  H41  1  0.64595700  0.31758800  0.68672900  1
  H  H42  1  0.85404300  0.31758800  0.18672900  1
  H  H43  1  0.35404300  0.68241200  0.31327100  1
  H  H44  1  0.87140000  0.61834500  0.69727000  1
  H  H45  1  0.37140000  0.38165500  0.80273000  1
  H  H46  1  0.12860000  0.38165500  0.30273000  1
  H  H47  1  0.62860000  0.61834500  0.19727000  1
  H  H48  1  0.41405200  0.28682300  0.93259300  1
  H  H49  1  0.91405200  0.71317700  0.56740700  1
  H  H50  1  0.58594800  0.71317700  0.06740700  1
  H  H51  1  0.08594800  0.28682300  0.43259300  1
  H  H52  1  0.39919600  0.12662500  0.98508300  1
  H  H53  1  0.89919600  0.87337500  0.51491700  1
  H  H54  1  0.60080400  0.87337500  0.01491700  1
  H  H55  1  0.10080400  0.12662500  0.48508300  1
  H  H56  1  0.56353800  0.27100600  0.03041600  1
  H  H57  1  0.06353800  0.72899400  0.46958400  1
  H  H58  1  0.43646200  0.72899400  0.96958400  1
  H  H59  1  0.93646200  0.27100600  0.53041600  1
  N  N0  1  0.33040500  0.31446000  0.59314600  1
  N  N1  1  0.83040500  0.68554000  0.90685400  1
  N  N2  1  0.66959500  0.68554000  0.40685400  1
  N  N3  1  0.16959500  0.31446000  0.09314600  1
  N  N4  1  0.62535700  0.91677600  0.72546900  1
  N  N5  1  0.12535700  0.08322400  0.77453100  1
  N  N6  1  0.37464300  0.08322400  0.27453100  1
  N  N7  1  0.87464300  0.91677600  0.22546900  1
  N  N8  1  0.15688800  0.75676200  0.65998500  1
  N  N9  1  0.65688800  0.24323800  0.84001500  1
  N  N10  1  0.84311200  0.24323800  0.34001500  1
  N  N11  1  0.34311200  0.75676200  0.15998500  1
  O  O0  1  0.06834900  0.88925900  0.92308800  1
  O  O1  1  0.56834900  0.11074100  0.57691200  1
  O  O2  1  0.93165100  0.11074100  0.07691200  1
  O  O3  1  0.43165100  0.88925900  0.42308800  1
  O  O4  1  0.20968500  0.66311700  0.84987000  1
  O  O5  1  0.70968500  0.33688300  0.65013000  1
  O  O6  1  0.79031500  0.33688300  0.15013000  1
  O  O7  1  0.29031500  0.66311700  0.34987000  1
  O  O8  1  0.17269300  0.03249200  0.03913100  1
  O  O9  1  0.67269300  0.96750800  0.46086900  1
  O  O10  1  0.82730700  0.96750800  0.96086900  1
  O  O11  1  0.32730700  0.03249200  0.53913100  1
  O  O12  1  0.26725300  0.94208800  0.00325700  1
  O  O13  1  0.76725300  0.05791200  0.49674300  1
  O  O14  1  0.73274700  0.05791200  0.99674300  1
  O  O15  1  0.23274700  0.94208800  0.50325700  1
  O  O16  1  0.37564900  0.60792100  0.74496600  1
  O  O17  1  0.87564900  0.39207900  0.75503400  1
  O  O18  1  0.62435100  0.39207900  0.25503400  1
  O  O19  1  0.12435100  0.60792100  0.24496600  1
  O  O20  1  0.33918000  0.35474900  0.85181000  1
  O  O21  1  0.83918000  0.64525100  0.64819000  1
  O  O22  1  0.66082000  0.64525100  0.14819000  1
  O  O23  1  0.16082000  0.35474900  0.35181000  1
  O  O24  1  0.40602900  0.93771300  0.77083500  1
  O  O25  1  0.90602900  0.06228700  0.72916500  1
  O  O26  1  0.59397100  0.06228700  0.22916500  1
  O  O27  1  0.09397100  0.93771300  0.27083500  1
  O  O28  1  0.39080300  0.96589600  0.84424600  1
  O  O29  1  0.89080300  0.03410400  0.65575400  1
  O  O30  1  0.60919700  0.03410400  0.15575400  1
  O  O31  1  0.10919700  0.96589600  0.34424600  1
  O  O32  1  0.13556000  0.61421800  0.00611400  1
  O  O33  1  0.63556000  0.38578200  0.49388600  1
  O  O34  1  0.86444000  0.38578200  0.99388600  1
  O  O35  1  0.36444000  0.61421800  0.50611400  1
  O  O36  1  0.55211000  0.68070100  0.84293800  1
  O  O37  1  0.05211000  0.31929900  0.65706200  1
  O  O38  1  0.44789000  0.31929900  0.15706200  1
  O  O39  1  0.94789000  0.68070100  0.34293800  1
  O  O40  1  0.45446300  0.22209200  0.97335400  1
  O  O41  1  0.95446300  0.77790800  0.52664600  1
  O  O42  1  0.54553700  0.77790800  0.02664600  1
  O  O43  1  0.04553700  0.22209200  0.47335400  1
  O  O44  1  0.36765900  0.70298500  0.93438700  1
  O  O45  1  0.86765900  0.29701500  0.56561300  1
  O  O46  1  0.63234100  0.29701500  0.06561300  1
  O  O47  1  0.13234100  0.70298500  0.43438700  1
loop_
_geom_bond_atom_site_label_1
_geom_bond_atom_site_label_2
_geom_bond_distance
_geom_bond_site_symmetry_2
H0 O16 0.986201 1_555
H1 O17 0.986201 1_555
H2 O18 0.986201 1_555
H3 O19 0.986201 1_555
H4 N0 1.014187 1_555
H5 N1 1.014187 1_555
H6 N2 1.014187 1_555
H7 N3 1.014187 1_555
H8 N0 1.020322 1_555
H9 N1 1.020322 1_555
H10 N2 1.020322 1_555
H11 N3 1.020322 1_555
H12 N5 1.016812 1_555
H13 N4 1.016812 1_555
H14 N7 1.016812 1_555
H15 N6 1.016812 1_555
H16 N4 1.018644 1_555
H17 N5 1.018644 1_555
H18 N6 1.018644 1_555
H19 N7 1.018644 1_555
H20 N0 1.039139 1_555
H21 N1 1.039139 1_555
H22 N2 1.039139 1_555
H23 N3 1.039139 1_555
H24 O9 1.005780 1_555
H25 O8 1.005780 1_556
H26 O11 1.005780 1_555
H27 O10 1.005780 1_554
H28 O21 0.984185 1_555
H29 O20 0.984185 1_555
H30 O23 0.984185 1_555
H31 O22 0.984185 1_555
H32 N5 1.018372 1_555
H33 N4 1.018372 1_555
H34 N7 1.018372 1_555
H35 N6 1.018372 1_555
H36 N8 1.049558 1_555
H37 N9 1.049558 1_555
H38 N10 1.049558 1_555
H39 N11 1.049558 1_555
H40 O4 0.970144 1_555
H41 O5 0.970144 1_555
H42 O6 0.970144 1_555
H43 O7 0.970144 1_555
H44 O21 0.979346 1_555
H45 O20 0.979346 1_555
H46 O23 0.979346 1_555
H47 O22 0.979346 1_555
H48 O40 0.992481 1_555
H49 O41 0.992481 1_555
H50 O42 0.992481 1_555
H51 O43 0.992481 1_555
H52 O40 0.980347 1_555
H53 O41 0.980347 1_555
H54 O42 0.980347 1_555
H55 O43 0.980347 1_555
H56 O46 1.008827 1_555
H56 O40 1.628458 1_554
H57 O47 1.008827 1_555
H57 O41 1.628458 1_455
H58 O44 1.008827 1_555
H58 O42 1.628458 1_556
H59 O45 1.008827 1_555
H59 O43 1.628458 1_655
O0 V0 1.697344 1_555
O1 V1 1.697344 1_555
O2 V2 1.697344 1_555
O3 V3 1.697344 1_555
O4 V0 1.970364 1_555
O4 V4 2.223934 1_555
O5 V1 1.970364 1_555
O5 V5 2.223934 1_555
O6 V2 1.970364 1_555
O6 V6 2.223934 1_555
O7 V3 1.970364 1_555
O7 V7 2.223934 1_555
O10 O14 1.417828 1_565
O11 O15 1.417828 1_545
O12 O8 1.417828 1_565
O12 V0 1.982676 1_554
O13 O9 1.417828 1_545
O13 V1 1.982676 1_555
O14 V2 1.982676 1_556
O15 V3 1.982676 1_555
O16 V4 1.860108 1_555
O17 V5 1.860108 1_555
O18 V6 1.860108 1_555
O19 V7 1.860108 1_555
O24 O28 1.373537 1_555
O24 V4 1.964658 1_555
O25 O29 1.373537 1_555
O25 V5 1.964658 1_555
O26 O30 1.373537 1_555
O26 V6 1.964658 1_555
O27 O31 1.373537 1_555
O27 V7 1.964658 1_555
O28 V4 1.923746 1_555
O29 V5 1.923746 1_555
O30 V6 1.923746 1_555
O31 V7 1.923746 1_555
O32 V0 1.642088 1_554
O33 V1 1.642088 1_555
O34 V2 1.642088 1_556
O35 V3 1.642088 1_555
O36 V4 1.626888 1_555
O37 V5 1.626888 1_455
O38 V6 1.626888 1_555
O39 V7 1.626888 1_655
O44 V4 1.955281 1_555
O44 V0 2.021992 1_555
O45 V5 1.955281 1_555
O45 V1 2.021992 1_555
O46 V6 1.955281 1_555
O46 V2 2.021992 1_555
O47 V7 1.955281 1_555
O47 V3 2.021992 1_555
