# generated using pymatgen
data_MnOF
_symmetry_space_group_name_H-M   'P 1'
_cell_length_a   4.57074602
_cell_length_b   7.48257714
_cell_length_c   7.53185002
_cell_angle_alpha   84.76362514
_cell_angle_beta   88.59847197
_cell_angle_gamma   89.48810865
_symmetry_Int_Tables_number   1
_chemical_formula_structural   MnOF
_chemical_formula_sum   'Mn8 O8 F8'
_cell_volume   256.43890850
_cell_formula_units_Z   8
loop_
 _symmetry_equiv_pos_site_id
 _symmetry_equiv_pos_as_xyz
  1  'x, y, z'
loop_
 _atom_site_type_symbol
 _atom_site_label
 _atom_site_symmetry_multiplicity
 _atom_site_fract_x
 _atom_site_fract_y
 _atom_site_fract_z
 _atom_site_occupancy
  Mn  Mn0  1  0.48407043  0.69015482  0.94267753  1
  Mn  Mn1  1  0.43460192  0.29393912  0.05673059  1
  Mn  Mn2  1  0.48537276  0.20905526  0.46764133  1
  Mn  Mn3  1  0.56938235  0.80397944  0.55067256  1
  Mn  Mn4  1  0.01406161  0.94257578  0.19501306  1
  Mn  Mn5  1  0.03174694  0.55648860  0.29004524  1
  Mn  Mn6  1  0.01248186  0.46270645  0.71079796  1
  Mn  Mn7  1  0.99052414  0.06087314  0.79092370  1
  O  O0  1  0.19909723  0.10136829  0.01267692  1
  O  O1  1  0.23632390  0.73390811  0.13802919  1
  O  O2  1  0.20637128  0.24382353  0.65772373  1
  O  O3  1  0.26465771  0.34161544  0.27533456  1
  O  O4  1  0.25335092  0.48374072  0.90946503  1
  O  O5  1  0.73774437  0.65734644  0.73541217  1
  O  O6  1  0.73096366  0.02427411  0.59994264  1
  O  O7  1  0.81023424  0.76404087  0.34810556  1
  F  F0  1  0.29187136  0.60648094  0.51667872  1
  F  F1  1  0.30144372  0.96179039  0.40549847  1
  F  F2  1  0.26042965  0.84978406  0.74765412  1
  F  F3  1  0.72060791  0.13794811  0.23522860  1
  F  F4  1  0.71778555  0.48732930  0.10391090  1
  F  F5  1  0.79232489  0.41844896  0.48377277  1
  F  F6  1  0.71252490  0.26842714  0.85740070  1
  F  F7  1  0.74202672  0.89990199  0.96866095  1
loop_
_geom_bond_atom_site_label_1
_geom_bond_atom_site_label_2
_geom_bond_distance
_geom_bond_site_symmetry_2
Mn0 O1 1.885253 1_556
Mn0 O4 1.916432 1_555
Mn0 O5 1.953967 1_555
Mn1 O0 1.864812 1_555
Mn1 O3 1.865817 1_555
Mn1 O4 1.915723 1_554
Mn2 O2 1.927787 1_555
Mn2 O3 1.972534 1_555
Mn2 O6 1.985003 1_555
Mn3 O5 1.868351 1_555
Mn3 O6 1.883376 1_565
Mn3 O7 1.903729 1_555
Mn4 O7 1.915903 1_455
Mn4 O0 1.917390 1_565
Mn4 O1 1.930492 1_555
Mn5 O1 1.907894 1_555
Mn5 O7 1.924173 1_455
Mn5 O3 1.930492 1_555
Mn6 O4 1.898036 1_555
Mn6 O2 1.924536 1_555
Mn6 O5 1.933296 1_455
Mn7 O2 1.891790 1_655
Mn7 O6 1.926864 1_555
Mn7 O0 1.991406 1_656
F0 Mn3 1.994193 1_555
F0 Mn6 2.138203 1_555
F0 Mn5 2.165891 1_555
F1 Mn3 1.973268 1_555
F1 Mn4 2.099107 1_555
F1 Mn2 2.134035 1_565
F2 Mn7 2.040200 1_465
F2 Mn3 2.072311 1_555
F2 Mn0 2.088205 1_555
F3 Mn4 2.013423 1_645
F3 Mn2 2.138014 1_555
F3 Mn1 2.156633 1_555
F4 Mn1 2.011330 1_555
F4 Mn5 2.129944 1_655
F4 Mn0 2.148782 1_554
F5 Mn5 2.015064 1_655
F5 Mn6 2.059024 1_655
F5 Mn2 2.126126 1_555
F6 Mn1 1.964382 1_556
F6 Mn7 2.086328 1_555
F6 Mn6 2.209251 1_655
F7 Mn0 1.998012 1_555
F7 Mn7 2.046630 1_565
F7 Mn4 2.182814 1_656
