# generated using pymatgen
data_Li2CrSn(PO4)2
_symmetry_space_group_name_H-M   'P 1'
_cell_length_a   6.69137000
_cell_length_b   4.84100800
_cell_length_c   10.73206452
_cell_angle_alpha   86.48368018
_cell_angle_beta   90.00000000
_cell_angle_gamma   90.00000000
_symmetry_Int_Tables_number   1
_chemical_formula_structural   Li2CrSn(PO4)2
_chemical_formula_sum   'Li4 Cr2 Sn2 P4 O16'
_cell_volume   346.98902069
_cell_formula_units_Z   2
loop_
 _symmetry_equiv_pos_site_id
 _symmetry_equiv_pos_as_xyz
  1  'x, y, z'
loop_
 _atom_site_type_symbol
 _atom_site_label
 _atom_site_symmetry_multiplicity
 _atom_site_fract_x
 _atom_site_fract_y
 _atom_site_fract_z
 _atom_site_occupancy
  Li  Li0  1  0.00000000  0.00000000  0.00000000  1
  Li  Li1  1  0.50000000  0.00000000  0.00000000  1
  Li  Li2  1  0.00000000  0.50000000  0.50000000  1
  Li  Li3  1  0.50000000  0.50000000  0.50000000  1
  Cr  Cr0  1  0.25000000  0.55496700  0.78718400  1
  Cr  Cr1  1  0.75000000  0.44503300  0.21281600  1
  Sn  Sn0  1  0.75000000  0.04069000  0.71770500  1
  Sn  Sn1  1  0.25000000  0.95931000  0.28229500  1
  P  P0  1  0.75000000  0.57207900  0.92392000  1
  P  P1  1  0.25000000  0.11671200  0.59722000  1
  P  P2  1  0.75000000  0.88328800  0.40278000  1
  P  P3  1  0.25000000  0.42792100  0.07608000  1
  O  O0  1  0.25000000  0.29545800  0.94575400  1
  O  O1  1  0.75000000  0.25368500  0.93978700  1
  O  O2  1  0.93783000  0.69275200  0.85037800  1
  O  O3  1  0.56217000  0.69275200  0.85037800  1
  O  O4  1  0.43524200  0.24889600  0.65822500  1
  O  O5  1  0.06475800  0.24889600  0.65822500  1
  O  O6  1  0.25000000  0.79526600  0.61356800  1
  O  O7  1  0.75000000  0.77006100  0.54276200  1
  O  O8  1  0.25000000  0.22993900  0.45723800  1
  O  O9  1  0.75000000  0.20473400  0.38643200  1
  O  O10  1  0.93524200  0.75110400  0.34177500  1
  O  O11  1  0.56475800  0.75110400  0.34177500  1
  O  O12  1  0.43783000  0.30724800  0.14962200  1
  O  O13  1  0.06217000  0.30724800  0.14962200  1
  O  O14  1  0.25000000  0.74631500  0.06021300  1
  O  O15  1  0.75000000  0.70454200  0.05424600  1
loop_
_geom_bond_atom_site_label_1
_geom_bond_atom_site_label_2
_geom_bond_distance
_geom_bond_site_symmetry_2
Li0 O14 2.151011 1_545
Li0 O1 2.151011 1_454
Li0 O15 2.254104 1_445
Li0 O0 2.254104 1_554
Li0 O13 2.292772 1_555
Li0 O2 2.292772 1_444
Li1 O14 2.151011 1_545
Li1 O1 2.151011 1_554
Li1 O15 2.254104 1_545
Li1 O0 2.254104 1_554
Li1 O12 2.292772 1_555
Li1 O3 2.292772 1_544
Li2 O10 2.072611 1_455
Li2 O5 2.072611 1_555
Li2 O7 2.189023 1_455
Li2 O8 2.189023 1_555
Li2 O6 2.557492 1_555
Li2 O9 2.557492 1_455
Li3 O11 2.072611 1_555
Li3 O4 2.072611 1_555
Li3 O7 2.189023 1_555
Li3 O8 2.189023 1_555
Li3 O6 2.557492 1_555
Li3 O9 2.557492 1_555
Cr0 O0 2.052333 1_555
Cr0 O6 2.135204 1_555
Cr0 O2 2.307300 1_455
Cr0 O3 2.307300 1_555
Cr0 O4 2.428749 1_555
Cr0 O5 2.428749 1_555
Cr1 O15 2.052333 1_555
Cr1 O9 2.135204 1_555
Cr1 O12 2.307300 1_555
Cr1 O13 2.307300 1_655
Cr1 O10 2.428749 1_555
Cr1 O11 2.428749 1_555
O0 P3 1.574006 1_556
O1 P0 1.540310 1_555
O1 Sn0 2.654286 1_555
O2 P0 1.577112 1_555
O2 Sn0 2.479904 1_565
O3 P0 1.577112 1_555
O3 Sn0 2.479904 1_565
O4 P1 1.557539 1_555
O4 Sn0 2.404245 1_555
O5 P1 1.557539 1_555
O5 Sn0 2.404245 1_455
O6 P1 1.555252 1_565
O7 P2 1.567269 1_555
O7 Sn0 2.354387 1_565
O8 P1 1.567269 1_555
O8 Sn1 2.354387 1_545
O9 P2 1.555252 1_545
O10 P2 1.557539 1_555
O10 Sn1 2.404245 1_655
O11 P2 1.557539 1_555
O11 Sn1 2.404245 1_555
O12 P3 1.577112 1_555
O12 Sn1 2.479904 1_545
O13 P3 1.577112 1_555
O13 Sn1 2.479904 1_545
O14 P3 1.540310 1_555
O14 Sn1 2.654286 1_555
O15 P0 1.574006 1_554
