# generated using pymatgen
data_Cs2CaO2
_symmetry_space_group_name_H-M   'P 1'
_cell_length_a   6.53973600
_cell_length_b   6.91265900
_cell_length_c   11.37056700
_cell_angle_alpha   90.00000000
_cell_angle_beta   90.00000000
_cell_angle_gamma   90.00000000
_symmetry_Int_Tables_number   1
_chemical_formula_structural   Cs2CaO2
_chemical_formula_sum   'Cs8 Ca4 O8'
_cell_volume   514.02882347
_cell_formula_units_Z   4
loop_
 _symmetry_equiv_pos_site_id
 _symmetry_equiv_pos_as_xyz
  1  'x, y, z'
loop_
 _atom_site_type_symbol
 _atom_site_label
 _atom_site_symmetry_multiplicity
 _atom_site_fract_x
 _atom_site_fract_y
 _atom_site_fract_z
 _atom_site_occupancy
  Cs  Cs0  1  0.59647900  0.38955200  0.15824600  1
  Cs  Cs1  1  0.09647900  0.61044800  0.15824600  1
  Cs  Cs2  1  0.09647900  0.11044800  0.34175400  1
  Cs  Cs3  1  0.59647900  0.88955200  0.34175400  1
  Cs  Cs4  1  0.40352100  0.11044800  0.65824600  1
  Cs  Cs5  1  0.90352100  0.88955200  0.65824600  1
  Cs  Cs6  1  0.90352100  0.38955200  0.84175400  1
  Cs  Cs7  1  0.40352100  0.61044800  0.84175400  1
  Ca  Ca0  1  0.25000000  0.01953800  0.00000000  1
  Ca  Ca1  1  0.75000000  0.98046200  0.00000000  1
  Ca  Ca2  1  0.75000000  0.48046200  0.50000000  1
  Ca  Ca3  1  0.25000000  0.51953800  0.50000000  1
  O  O0  1  0.98716700  0.17314600  0.09442200  1
  O  O1  1  0.48716700  0.82685400  0.09442200  1
  O  O2  1  0.48716700  0.32685400  0.40557800  1
  O  O3  1  0.98716700  0.67314600  0.40557800  1
  O  O4  1  0.01283300  0.32685400  0.59442200  1
  O  O5  1  0.51283300  0.67314600  0.59442200  1
  O  O6  1  0.51283300  0.17314600  0.90557800  1
  O  O7  1  0.01283300  0.82685400  0.90557800  1
loop_
_geom_bond_atom_site_label_1
_geom_bond_atom_site_label_2
_geom_bond_distance
_geom_bond_site_symmetry_2
Cs0 O2 2.933930 1_555
Cs0 O0 3.048362 1_555
Cs0 O1 3.189945 1_555
Cs0 O6 3.284978 1_554
Cs1 O3 2.933930 1_455
Cs1 O1 3.048362 1_555
Cs1 O0 3.189945 1_455
Cs1 O7 3.284978 1_554
Cs2 O0 2.933930 1_455
Cs2 O2 3.048362 1_555
Cs2 O3 3.189945 1_445
Cs2 O4 3.284978 1_555
Cs3 O1 2.933930 1_555
Cs3 O3 3.048362 1_555
Cs3 O2 3.189945 1_565
Cs3 O5 3.284978 1_555
Cs4 O6 2.933930 1_555
Cs4 O4 3.048362 1_555
Cs4 O5 3.189945 1_545
Cs4 O2 3.284978 1_555
Cs5 O7 2.933930 1_655
Cs5 O5 3.048362 1_555
Cs5 O4 3.189945 1_665
Cs5 O3 3.284978 1_555
Cs6 O4 2.933930 1_655
Cs6 O6 3.048362 1_555
Cs6 O7 3.189945 1_655
Cs6 O0 3.284978 1_556
Cs7 O5 2.933930 1_555
Cs7 O7 3.048362 1_555
Cs7 O6 3.189945 1_555
Cs7 O1 3.284978 1_556
Ca0 O0 2.287939 1_455
Ca0 O6 2.287939 1_554
Ca0 O1 2.309205 1_545
Ca0 O7 2.309205 1_544
Ca1 O7 2.287939 1_654
Ca1 O1 2.287939 1_555
Ca1 O0 2.309205 1_565
Ca1 O6 2.309205 1_564
Ca2 O4 2.287939 1_655
Ca2 O2 2.287939 1_555
Ca2 O3 2.309205 1_555
Ca2 O5 2.309205 1_555
Ca3 O5 2.287939 1_555
Ca3 O3 2.287939 1_455
Ca3 O2 2.309205 1_555
Ca3 O4 2.309205 1_555
