# generated using pymatgen
data_LiV2BO5
_symmetry_space_group_name_H-M   'P 1'
_cell_length_a   3.05861300
_cell_length_b   9.31492300
_cell_length_c   12.40150300
_cell_angle_alpha   90.00000000
_cell_angle_beta   90.00000000
_cell_angle_gamma   90.00000000
_symmetry_Int_Tables_number   1
_chemical_formula_structural   LiV2BO5
_chemical_formula_sum   'Li4 V8 B4 O20'
_cell_volume   353.32805440
_cell_formula_units_Z   4
loop_
 _symmetry_equiv_pos_site_id
 _symmetry_equiv_pos_as_xyz
  1  'x, y, z'
loop_
 _atom_site_type_symbol
 _atom_site_label
 _atom_site_symmetry_multiplicity
 _atom_site_fract_x
 _atom_site_fract_y
 _atom_site_fract_z
 _atom_site_occupancy
  Li  Li0  1  0.00000000  0.00000000  0.00000000  1
  Li  Li1  1  0.50000000  0.00000000  0.50000000  1
  Li  Li2  1  0.00000000  0.50000000  0.50000000  1
  Li  Li3  1  0.50000000  0.50000000  0.00000000  1
  V  V0  1  0.00000000  0.00210400  0.28390600  1
  V  V1  1  0.50000000  0.24032000  0.10874300  1
  V  V2  1  0.50000000  0.25968000  0.60874300  1
  V  V3  1  0.00000000  0.49789600  0.78390600  1
  V  V4  1  0.00000000  0.50210400  0.21609400  1
  V  V5  1  0.50000000  0.74032000  0.39125700  1
  V  V6  1  0.50000000  0.75968000  0.89125700  1
  V  V7  1  0.00000000  0.99789600  0.71609400  1
  B  B0  1  0.50000000  0.22386600  0.86162400  1
  B  B1  1  0.50000000  0.27613400  0.36162400  1
  B  B2  1  0.50000000  0.72386600  0.63837600  1
  B  B3  1  0.50000000  0.77613400  0.13837600  1
  O  O0  1  0.00000000  0.11064100  0.15106300  1
  O  O1  1  0.00000000  0.11858300  0.58100700  1
  O  O2  1  0.50000000  0.12532100  0.35234000  1
  O  O3  1  0.50000000  0.14509400  0.76288600  1
  O  O4  1  0.50000000  0.15380500  0.95610500  1
  O  O5  1  0.50000000  0.34619500  0.45610500  1
  O  O6  1  0.50000000  0.35490600  0.26288600  1
  O  O7  1  0.50000000  0.37467900  0.85234000  1
  O  O8  1  0.00000000  0.38141700  0.08100700  1
  O  O9  1  0.00000000  0.38935900  0.65106300  1
  O  O10  1  0.00000000  0.61064100  0.34893700  1
  O  O11  1  0.00000000  0.61858300  0.91899300  1
  O  O12  1  0.50000000  0.62532100  0.14766000  1
  O  O13  1  0.50000000  0.64509400  0.73711400  1
  O  O14  1  0.50000000  0.65380500  0.54389500  1
  O  O15  1  0.50000000  0.84619500  0.04389500  1
  O  O16  1  0.50000000  0.85490600  0.23711400  1
  O  O17  1  0.50000000  0.87467900  0.64766000  1
  O  O18  1  0.00000000  0.88141700  0.41899300  1
  O  O19  1  0.00000000  0.88935900  0.84893700  1
loop_
_geom_bond_atom_site_label_1
_geom_bond_atom_site_label_2
_geom_bond_distance
_geom_bond_site_symmetry_2
Li0 O19 2.138182 1_544
Li0 O0 2.138182 1_555
Li0 O4 2.165107 1_454
Li0 O4 2.165107 1_554
Li0 O15 2.165107 1_545
Li0 O15 2.165107 1_445
Li1 O18 2.137321 1_545
Li1 O18 2.137321 1_645
Li1 O1 2.137321 1_655
Li1 O1 2.137321 1_555
Li1 O2 2.171643 1_555
Li1 O17 2.171643 1_545
Li2 O9 2.138182 1_555
Li2 O10 2.138182 1_555
Li2 O14 2.165107 1_455
Li2 O5 2.165107 1_455
Li2 O14 2.165107 1_555
Li2 O5 2.165107 1_555
Li3 O8 2.137321 1_555
Li3 O8 2.137321 1_655
Li3 O11 2.137321 1_654
Li3 O11 2.137321 1_554
Li3 O12 2.171643 1_555
Li3 O7 2.171643 1_554
B0 O4 1.341193 1_555
B0 O7 1.409522 1_555
B0 O3 1.427514 1_555
B1 O5 1.341193 1_555
B1 O2 1.409522 1_555
B1 O6 1.427514 1_555
B2 O14 1.341193 1_555
B2 O17 1.409522 1_555
B2 O13 1.427514 1_555
B3 O15 1.341193 1_555
B3 O12 1.409522 1_555
B3 O16 1.427514 1_555
O0 V0 1.932938 1_555
O0 V1 2.018259 1_555
O0 V1 2.018259 1_455
O1 V7 2.017516 1_545
O1 V2 2.045604 1_555
O1 V2 2.045604 1_455
O2 V0 2.091982 1_555
O2 V0 2.091982 1_655
O3 V7 2.134370 1_545
O3 V7 2.134370 1_645
O3 V2 2.189404 1_555
O4 V1 2.057345 1_556
O5 V2 2.057345 1_555
O6 V4 2.134370 1_655
O6 V4 2.134370 1_555
O6 V1 2.189404 1_555
O7 V3 2.091982 1_555
O7 V3 2.091982 1_655
O8 V4 2.017516 1_555
O8 V1 2.045604 1_555
O8 V1 2.045604 1_455
O9 V3 1.932938 1_555
O9 V2 2.018259 1_455
O9 V2 2.018259 1_555
O10 V4 1.932938 1_555
O10 V5 2.018259 1_555
O10 V5 2.018259 1_455
O11 V3 2.017516 1_555
O11 V6 2.045604 1_555
O11 V6 2.045604 1_455
O12 V4 2.091982 1_555
O12 V4 2.091982 1_655
O13 V3 2.134370 1_555
O13 V3 2.134370 1_655
O13 V6 2.189404 1_555
O14 V5 2.057345 1_555
O15 V6 2.057345 1_554
O16 V0 2.134370 1_665
O16 V0 2.134370 1_565
O16 V5 2.189404 1_555
O17 V7 2.091982 1_655
O17 V7 2.091982 1_555
O18 V0 2.017516 1_565
O18 V5 2.045604 1_455
O18 V5 2.045604 1_555
O19 V7 1.932938 1_555
O19 V6 2.018259 1_455
O19 V6 2.018259 1_555
