# generated using pymatgen
data_Na3V2(PO4)3
_symmetry_space_group_name_H-M   'P 1'
_cell_length_a   8.87318255
_cell_length_b   8.87318255
_cell_length_c   8.89007718
_cell_angle_alpha   60.12004409
_cell_angle_beta   60.12004409
_cell_angle_gamma   60.42110268
_symmetry_Int_Tables_number   1
_chemical_formula_structural   Na3V2(PO4)3
_chemical_formula_sum   'Na6 V4 P6 O24'
_cell_volume   497.39696664
_cell_formula_units_Z   2
loop_
 _symmetry_equiv_pos_site_id
 _symmetry_equiv_pos_as_xyz
  1  'x, y, z'
loop_
 _atom_site_type_symbol
 _atom_site_label
 _atom_site_symmetry_multiplicity
 _atom_site_fract_x
 _atom_site_fract_y
 _atom_site_fract_z
 _atom_site_occupancy
  Na  Na0  1  0.00000000  0.50000000  0.00000000  1
  Na  Na1  1  0.50000000  0.00000000  0.50000000  1
  Na  Na2  1  0.10455500  0.24688700  0.76458200  1
  Na  Na3  1  0.75311300  0.89544500  0.73541800  1
  Na  Na4  1  0.24688700  0.10455500  0.26458200  1
  Na  Na5  1  0.89544500  0.75311300  0.23541800  1
  V  V0  1  0.15098300  0.63987800  0.56242000  1
  V  V1  1  0.63987800  0.15098300  0.06242000  1
  V  V2  1  0.36012200  0.84901700  0.93758000  1
  V  V3  1  0.84901700  0.36012200  0.43758000  1
  P  P0  1  0.54726200  0.74782900  0.24280700  1
  P  P1  1  0.04347500  0.95652500  0.75000000  1
  P  P2  1  0.25217100  0.45273800  0.25719300  1
  P  P3  1  0.74782900  0.54726200  0.74280700  1
  P  P4  1  0.95652500  0.04347500  0.25000000  1
  P  P5  1  0.45273800  0.25217100  0.75719300  1
  O  O0  1  0.73037000  0.58693100  0.25063700  1
  O  O1  1  0.56377300  0.91384300  0.24687100  1
  O  O2  1  0.22034300  0.93758200  0.76313900  1
  O  O3  1  0.52780000  0.79941100  0.05748200  1
  O  O4  1  0.37638100  0.71087200  0.40540100  1
  O  O5  1  0.87456100  0.98393200  0.92400400  1
  O  O6  1  0.06241800  0.77965700  0.73686100  1
  O  O7  1  0.41306900  0.26963000  0.24936300  1
  O  O8  1  0.20058900  0.47220000  0.44251800  1
  O  O9  1  0.28912800  0.62361900  0.09459900  1
  O  O10  1  0.98393200  0.87456100  0.42400400  1
  O  O11  1  0.91384300  0.56377300  0.74687100  1
  O  O12  1  0.08615700  0.43622700  0.25312900  1
  O  O13  1  0.01606800  0.12543900  0.57599600  1
  O  O14  1  0.71087200  0.37638100  0.90540100  1
  O  O15  1  0.79941100  0.52780000  0.55748200  1
  O  O16  1  0.58693100  0.73037000  0.75063700  1
  O  O17  1  0.93758200  0.22034300  0.26313900  1
  O  O18  1  0.12543900  0.01606800  0.07599600  1
  O  O19  1  0.62361900  0.28912800  0.59459900  1
  O  O20  1  0.47220000  0.20058900  0.94251800  1
  O  O21  1  0.77965700  0.06241800  0.23686100  1
  O  O22  1  0.43622700  0.08615700  0.75312900  1
  O  O23  1  0.26963000  0.41306900  0.74936300  1
loop_
_geom_bond_atom_site_label_1
_geom_bond_atom_site_label_2
_geom_bond_distance
_geom_bond_site_symmetry_2
Na0 O23 2.421318 1_554
Na0 O0 2.421318 1_455
Na0 O12 2.446817 1_555
Na0 O11 2.446817 1_454
Na0 O17 2.493757 1_455
Na0 O6 2.493757 1_554
Na1 O7 2.421318 1_555
Na1 O16 2.421318 1_545
Na1 O22 2.446817 1_555
Na1 O1 2.446817 1_545
Na1 O2 2.493757 1_545
Na1 O21 2.493757 1_555
Na2 O2 2.413772 1_545
Na2 O11 2.433402 1_455
Na2 O23 2.464583 1_555
Na2 O18 2.525970 1_556
Na2 O22 2.531395 1_555
Na2 O8 2.543307 1_555
Na2 O14 2.864169 1_455
Na2 O13 2.921574 1_555
Na3 O6 2.413772 1_655
Na3 O22 2.433402 1_565
Na3 O16 2.464583 1_555
Na3 O10 2.525970 1_555
Na3 O11 2.531395 1_555
Na3 O3 2.543307 1_556
Na3 O19 2.864169 1_565
Na3 O5 2.921574 1_555
Na4 O17 2.413772 1_455
Na4 O1 2.433402 1_545
Na4 O7 2.464583 1_555
Na4 O13 2.525970 1_555
Na4 O12 2.531395 1_555
Na4 O20 2.543307 1_554
Na4 O4 2.864169 1_545
Na4 O18 2.921574 1_555
Na5 O21 2.413772 1_565
Na5 O12 2.433402 1_655
Na5 O0 2.464583 1_555
Na5 O5 2.525970 1_554
Na5 O1 2.531395 1_555
Na5 O15 2.543307 1_555
Na5 O9 2.864169 1_655
Na5 O10 2.921574 1_555
O0 P0 1.551310 1_555
O0 V3 2.059044 1_555
O1 P0 1.569737 1_555
O1 V1 2.105738 1_565
O2 P1 1.551618 1_555
O2 V2 2.073826 1_555
O3 P0 1.551725 1_555
O3 V2 2.002446 1_554
O4 P0 1.526698 1_555
O4 V0 1.982767 1_555
O5 P1 1.550280 1_655
O5 V1 2.065092 1_566
O6 P1 1.551618 1_555
O6 V0 2.073826 1_555
O7 P2 1.551310 1_555
O7 V1 2.059044 1_555
O8 P2 1.551725 1_555
O8 V0 2.002446 1_555
O9 P2 1.526698 1_555
O9 V2 1.982767 1_554
O10 P4 1.550280 1_565
O10 V0 2.065092 1_655
O11 P3 1.569737 1_555
O11 V0 2.105738 1_655
O12 P2 1.569737 1_555
O12 V3 2.105738 1_455
O13 P1 1.550280 1_545
O13 V3 2.065092 1_455
O14 P3 1.526698 1_555
O14 V1 1.982767 1_556
O15 P3 1.551725 1_555
O15 V3 2.002446 1_555
O16 P3 1.551310 1_555
O16 V2 2.059044 1_555
O17 P4 1.551618 1_555
O17 V3 2.073826 1_555
O18 P4 1.550280 1_455
O18 V2 2.065092 1_544
O19 P5 1.526698 1_555
O19 V3 1.982767 1_555
O20 P5 1.551725 1_555
O20 V1 2.002446 1_556
O21 P4 1.551618 1_555
O21 V1 2.073826 1_555
O22 P5 1.569737 1_555
O22 V2 2.105738 1_545
O23 P5 1.551310 1_555
O23 V0 2.059044 1_555
