# generated using pymatgen
data_Na5Mn2O8
_symmetry_space_group_name_H-M   'P 1'
_cell_length_a   10.48284100
_cell_length_b   10.63065400
_cell_length_c   15.13637500
_cell_angle_alpha   90.00000000
_cell_angle_beta   90.00000000
_cell_angle_gamma   90.00000000
_symmetry_Int_Tables_number   1
_chemical_formula_structural   Na5Mn2O8
_chemical_formula_sum   'Na40 Mn16 O64'
_cell_volume   1686.78938988
_cell_formula_units_Z   8
loop_
 _symmetry_equiv_pos_site_id
 _symmetry_equiv_pos_as_xyz
  1  'x, y, z'
loop_
 _atom_site_type_symbol
 _atom_site_label
 _atom_site_symmetry_multiplicity
 _atom_site_fract_x
 _atom_site_fract_y
 _atom_site_fract_z
 _atom_site_occupancy
  Na  Na0  1  0.79640100  0.00352500  0.50369800  1
  Na  Na1  1  0.79640100  0.00352500  0.99630200  1
  Na  Na2  1  0.52014400  0.01057600  0.11276600  1
  Na  Na3  1  0.52014400  0.01057600  0.38723400  1
  Na  Na4  1  0.99390400  0.18440900  0.75000000  1
  Na  Na5  1  0.56518400  0.24501100  0.75000000  1
  Na  Na6  1  0.28043900  0.24218100  0.63795000  1
  Na  Na7  1  0.28043900  0.24218100  0.86205000  1
  Na  Na8  1  0.75835400  0.24404600  0.60334300  1
  Na  Na9  1  0.75835400  0.24404600  0.89665700  1
  Na  Na10  1  0.25835400  0.25595400  0.10334300  1
  Na  Na11  1  0.25835400  0.25595400  0.39665700  1
  Na  Na12  1  0.78043900  0.25781900  0.13795000  1
  Na  Na13  1  0.78043900  0.25781900  0.36205000  1
  Na  Na14  1  0.06518400  0.25498900  0.25000000  1
  Na  Na15  1  0.49390400  0.31559100  0.25000000  1
  Na  Na16  1  0.02014400  0.48942400  0.61276600  1
  Na  Na17  1  0.02014400  0.48942400  0.88723400  1
  Na  Na18  1  0.29640100  0.49647500  0.00369800  1
  Na  Na19  1  0.29640100  0.49647500  0.49630200  1
  Na  Na20  1  0.70359900  0.50352500  0.50369800  1
  Na  Na21  1  0.70359900  0.50352500  0.99630200  1
  Na  Na22  1  0.97985600  0.51057600  0.11276600  1
  Na  Na23  1  0.97985600  0.51057600  0.38723400  1
  Na  Na24  1  0.50609600  0.68440900  0.75000000  1
  Na  Na25  1  0.93481600  0.74501100  0.75000000  1
  Na  Na26  1  0.21956100  0.74218100  0.63795000  1
  Na  Na27  1  0.21956100  0.74218100  0.86205000  1
  Na  Na28  1  0.74164600  0.74404600  0.60334300  1
  Na  Na29  1  0.74164600  0.74404600  0.89665700  1
  Na  Na30  1  0.24164600  0.75595400  0.10334300  1
  Na  Na31  1  0.24164600  0.75595400  0.39665700  1
  Na  Na32  1  0.71956100  0.75781900  0.13795000  1
  Na  Na33  1  0.71956100  0.75781900  0.36205000  1
  Na  Na34  1  0.43481600  0.75498900  0.25000000  1
  Na  Na35  1  0.00609600  0.81559100  0.25000000  1
  Na  Na36  1  0.47985600  0.98942400  0.61276600  1
  Na  Na37  1  0.47985600  0.98942400  0.88723400  1
  Na  Na38  1  0.20359900  0.99647500  0.00369800  1
  Na  Na39  1  0.20359900  0.99647500  0.49630200  1
  Mn  Mn0  1  0.72599800  0.00508400  0.25000000  1
  Mn  Mn1  1  0.25726600  0.02262000  0.25000000  1
  Mn  Mn2  1  0.00674600  0.25291900  0.00104300  1
  Mn  Mn3  1  0.00674600  0.25291900  0.49895700  1
  Mn  Mn4  1  0.50674600  0.24708100  0.50104300  1
  Mn  Mn5  1  0.50674600  0.24708100  0.99895700  1
  Mn  Mn6  1  0.75726600  0.47738000  0.75000000  1
  Mn  Mn7  1  0.22599800  0.49491600  0.75000000  1
  Mn  Mn8  1  0.77400200  0.50508400  0.25000000  1
  Mn  Mn9  1  0.24273400  0.52262000  0.25000000  1
  Mn  Mn10  1  0.49325400  0.75291900  0.00104300  1
  Mn  Mn11  1  0.49325400  0.75291900  0.49895700  1
  Mn  Mn12  1  0.99325400  0.74708100  0.50104300  1
  Mn  Mn13  1  0.99325400  0.74708100  0.99895700  1
  Mn  Mn14  1  0.74273400  0.97738000  0.75000000  1
  Mn  Mn15  1  0.27400200  0.99491600  0.75000000  1
  O  O0  1  0.10197500  0.00861900  0.25000000  1
  O  O1  1  0.19121600  0.01408000  0.65712600  1
  O  O2  1  0.19121600  0.01408000  0.84287400  1
  O  O3  1  0.68328500  0.04592600  0.65872400  1
  O  O4  1  0.68328500  0.04592600  0.84127600  1
  O  O5  1  0.38947200  0.11045600  0.75000000  1
  O  O6  1  0.95242800  0.14469300  0.57068500  1
  O  O7  1  0.95242800  0.14469300  0.92931500  1
  O  O8  1  0.38748100  0.13580600  0.51152100  1
  O  O9  1  0.38748100  0.13580600  0.98847900  1
  O  O10  1  0.65041900  0.14829300  0.25000000  1
  O  O11  1  0.64126000  0.17236000  0.03543700  1
  O  O12  1  0.64126000  0.17236000  0.46456300  1
  O  O13  1  0.29421300  0.17963200  0.25000000  1
  O  O14  1  0.03997200  0.18935700  0.10003600  1
  O  O15  1  0.03997200  0.18935700  0.39996400  1
  O  O16  1  0.53997200  0.31064300  0.60003600  1
  O  O17  1  0.53997200  0.31064300  0.89996400  1
  O  O18  1  0.79421300  0.32036800  0.75000000  1
  O  O19  1  0.14126000  0.32764000  0.53543700  1
  O  O20  1  0.14126000  0.32764000  0.96456300  1
  O  O21  1  0.15041900  0.35170700  0.75000000  1
  O  O22  1  0.88748100  0.36419400  0.01152100  1
  O  O23  1  0.88748100  0.36419400  0.48847900  1
  O  O24  1  0.45242800  0.35530700  0.07068500  1
  O  O25  1  0.45242800  0.35530700  0.42931500  1
  O  O26  1  0.88947200  0.38954400  0.25000000  1
  O  O27  1  0.18328500  0.45407400  0.15872400  1
  O  O28  1  0.18328500  0.45407400  0.34127600  1
  O  O29  1  0.69121600  0.48592000  0.15712600  1
  O  O30  1  0.69121600  0.48592000  0.34287400  1
  O  O31  1  0.60197500  0.49138100  0.75000000  1
  O  O32  1  0.39802500  0.50861900  0.25000000  1
  O  O33  1  0.30878400  0.51408000  0.65712600  1
  O  O34  1  0.30878400  0.51408000  0.84287400  1
  O  O35  1  0.81671500  0.54592600  0.65872400  1
  O  O36  1  0.81671500  0.54592600  0.84127600  1
  O  O37  1  0.11052800  0.61045600  0.75000000  1
  O  O38  1  0.54757200  0.64469300  0.57068500  1
  O  O39  1  0.54757200  0.64469300  0.92931500  1
  O  O40  1  0.11251900  0.63580600  0.51152100  1
  O  O41  1  0.11251900  0.63580600  0.98847900  1
  O  O42  1  0.84958100  0.64829300  0.25000000  1
  O  O43  1  0.85874000  0.67236000  0.03543700  1
  O  O44  1  0.85874000  0.67236000  0.46456300  1
  O  O45  1  0.20578700  0.67963200  0.25000000  1
  O  O46  1  0.46002800  0.68935700  0.10003600  1
  O  O47  1  0.46002800  0.68935700  0.39996400  1
  O  O48  1  0.96002800  0.81064300  0.60003600  1
  O  O49  1  0.96002800  0.81064300  0.89996400  1
  O  O50  1  0.70578700  0.82036800  0.75000000  1
  O  O51  1  0.35874000  0.82764000  0.53543700  1
  O  O52  1  0.35874000  0.82764000  0.96456300  1
  O  O53  1  0.34958100  0.85170700  0.75000000  1
  O  O54  1  0.61251900  0.86419400  0.01152100  1
  O  O55  1  0.61251900  0.86419400  0.48847900  1
  O  O56  1  0.04757200  0.85530700  0.07068500  1
  O  O57  1  0.04757200  0.85530700  0.42931500  1
  O  O58  1  0.61052800  0.88954400  0.25000000  1
  O  O59  1  0.31671500  0.95407400  0.15872400  1
  O  O60  1  0.31671500  0.95407400  0.34127600  1
  O  O61  1  0.80878400  0.98592000  0.15712600  1
  O  O62  1  0.80878400  0.98592000  0.34287400  1
  O  O63  1  0.89802500  0.99138100  0.75000000  1
loop_
_geom_bond_atom_site_label_1
_geom_bond_atom_site_label_2
_geom_bond_distance
_geom_bond_site_symmetry_2
Na0 O6 2.440370 1_555
Na0 O55 2.441848 1_545
Na0 O62 2.444925 1_545
Na0 O12 2.493433 1_555
Na0 O3 2.667481 1_555
Na1 O7 2.440370 1_555
Na1 O54 2.441848 1_546
Na1 O61 2.444925 1_546
Na1 O11 2.493433 1_556
Na1 O4 2.667481 1_555
Na2 O59 2.322135 1_545
Na2 O54 2.389094 1_545
Na2 O11 2.437204 1_555
Na2 O58 2.620697 1_545
Na2 O9 2.691732 1_554
Na2 O10 2.885001 1_555
Na3 O60 2.322135 1_545
Na3 O55 2.389094 1_545
Na3 O12 2.437204 1_555
Na3 O58 2.620697 1_545
Na3 O8 2.691732 1_555
Na3 O10 2.885001 1_555
Na4 O63 2.284941 1_545
Na4 O21 2.419708 1_655
Na4 O18 2.543819 1_555
Na4 O7 2.781019 1_555
Na4 O6 2.781019 1_555
Na5 O5 2.332142 1_555
Na5 O16 2.389383 1_555
Na5 O17 2.389383 1_555
Na5 O18 2.530998 1_555
Na5 O31 2.647318 1_555
Na5 O4 2.814370 1_555
Na5 O3 2.814370 1_555
Na6 O19 2.315534 1_555
Na6 O21 2.467773 1_555
Na6 O5 2.478673 1_555
Na6 O8 2.489993 1_555
Na6 O1 2.615151 1_555
Na6 O16 2.874182 1_555
Na6 O33 2.920158 1_555
Na7 O20 2.315534 1_555
Na7 O21 2.467773 1_555
Na7 O5 2.478673 1_555
Na7 O9 2.489993 1_555
Na7 O2 2.615151 1_555
Na7 O17 2.874182 1_555
Na7 O34 2.920158 1_555
Na8 O6 2.344965 1_555
Na8 O18 2.393189 1_555
Na8 O16 2.396759 1_555
Na8 O3 2.399543 1_555
Na8 O23 2.546855 1_555
Na8 O12 2.549526 1_555
Na9 O7 2.344965 1_555
Na9 O18 2.393189 1_555
Na9 O17 2.396759 1_555
Na9 O4 2.399543 1_555
Na9 O22 2.546855 1_556
Na9 O11 2.549526 1_556
Na10 O24 2.344965 1_555
Na10 O13 2.393189 1_555
Na10 O14 2.396759 1_555
Na10 O27 2.399543 1_555
Na10 O9 2.546855 1_554
Na10 O20 2.549526 1_554
Na11 O25 2.344965 1_555
Na11 O13 2.393189 1_555
Na11 O15 2.396759 1_555
Na11 O28 2.399543 1_555
Na11 O8 2.546855 1_555
Na11 O19 2.549526 1_555
Na12 O11 2.315534 1_555
Na12 O10 2.467773 1_555
Na12 O26 2.478673 1_555
Na12 O22 2.489993 1_555
Na12 O29 2.615151 1_555
Na12 O14 2.874182 1_655
Na12 O61 2.920158 1_545
Na13 O12 2.315534 1_555
Na13 O10 2.467773 1_555
Na13 O26 2.478673 1_555
Na13 O23 2.489993 1_555
Na13 O30 2.615151 1_555
Na13 O15 2.874182 1_655
Na13 O62 2.920158 1_545
Na14 O26 2.332142 1_455
Na14 O15 2.389383 1_555
Na14 O14 2.389383 1_555
Na14 O13 2.530998 1_555
Na14 O0 2.647318 1_555
Na14 O28 2.814370 1_555
Na14 O27 2.814370 1_555
Na15 O32 2.284941 1_555
Na15 O10 2.419708 1_555
Na15 O13 2.543819 1_555
Na15 O25 2.781019 1_555
Na15 O24 2.781019 1_555
Na16 O35 2.322135 1_455
Na16 O40 2.389094 1_555
Na16 O19 2.437204 1_555
Na16 O37 2.620697 1_555
Na16 O23 2.691732 1_455
Na16 O21 2.885001 1_555
Na17 O36 2.322135 1_455
Na17 O41 2.389094 1_555
Na17 O20 2.437204 1_555
Na17 O37 2.620697 1_555
Na17 O22 2.691732 1_456
Na17 O21 2.885001 1_555
Na18 O24 2.440370 1_555
Na18 O41 2.441848 1_554
Na18 O34 2.444925 1_554
Na18 O20 2.493433 1_554
Na18 O27 2.667481 1_555
Na19 O25 2.440370 1_555
Na19 O40 2.441848 1_555
Na19 O33 2.444925 1_555
Na19 O19 2.493433 1_555
Na19 O28 2.667481 1_555
Na20 O38 2.440370 1_555
Na20 O23 2.441848 1_555
Na20 O30 2.444925 1_555
Na20 O44 2.493433 1_555
Na20 O35 2.667481 1_555
Na21 O39 2.440370 1_555
Na21 O22 2.441848 1_556
Na21 O29 2.444925 1_556
Na21 O43 2.493433 1_556
Na21 O36 2.667481 1_555
Na22 O27 2.322135 1_655
Na22 O22 2.389094 1_555
Na22 O43 2.437204 1_555
Na22 O26 2.620697 1_555
Na22 O41 2.691732 1_654
Na22 O42 2.885001 1_555
Na23 O28 2.322135 1_655
Na23 O23 2.389094 1_555
Na23 O44 2.437204 1_555
Na23 O26 2.620697 1_555
Na23 O40 2.691732 1_655
Na23 O42 2.885001 1_555
Na24 O31 2.284941 1_555
Na24 O53 2.419708 1_555
Na24 O50 2.543819 1_555
Na24 O39 2.781019 1_555
Na24 O38 2.781019 1_555
Na25 O37 2.332142 1_655
Na25 O48 2.389383 1_555
Na25 O49 2.389383 1_555
Na25 O50 2.530998 1_555
Na25 O63 2.647318 1_555
Na25 O35 2.814370 1_555
Na25 O36 2.814370 1_555
Na26 O51 2.315534 1_555
Na26 O53 2.467773 1_555
Na26 O37 2.478673 1_555
Na26 O40 2.489993 1_555
Na26 O33 2.615151 1_555
Na26 O48 2.874182 1_455
Na26 O1 2.920158 1_565
Na27 O52 2.315534 1_555
Na27 O53 2.467773 1_555
Na27 O37 2.478673 1_555
Na27 O41 2.489993 1_555
Na27 O34 2.615151 1_555
Na27 O49 2.874182 1_455
Na27 O2 2.920158 1_565
Na28 O38 2.344965 1_555
Na28 O50 2.393189 1_555
Na28 O48 2.396759 1_555
Na28 O35 2.399543 1_555
Na28 O55 2.546855 1_555
Na28 O44 2.549526 1_555
Na29 O39 2.344965 1_555
Na29 O50 2.393189 1_555
Na29 O49 2.396759 1_555
Na29 O36 2.399543 1_555
Na29 O54 2.546855 1_556
Na29 O43 2.549526 1_556
Na30 O56 2.344965 1_555
Na30 O45 2.393189 1_555
Na30 O46 2.396759 1_555
Na30 O59 2.399543 1_555
Na30 O41 2.546855 1_554
Na30 O52 2.549526 1_554
Na31 O57 2.344965 1_555
Na31 O45 2.393189 1_555
Na31 O47 2.396759 1_555
Na31 O60 2.399543 1_555
Na31 O40 2.546855 1_555
Na31 O51 2.549526 1_555
Na32 O43 2.315534 1_555
Na32 O42 2.467773 1_555
Na32 O58 2.478673 1_555
Na32 O54 2.489993 1_555
Na32 O61 2.615151 1_555
Na32 O46 2.874182 1_555
Na32 O29 2.920158 1_555
Na33 O44 2.315534 1_555
Na33 O42 2.467773 1_555
Na33 O58 2.478673 1_555
Na33 O55 2.489993 1_555
Na33 O62 2.615151 1_555
Na33 O47 2.874182 1_555
Na33 O30 2.920158 1_555
Na34 O58 2.332142 1_555
Na34 O47 2.389383 1_555
Na34 O46 2.389383 1_555
Na34 O45 2.530998 1_555
Na34 O32 2.647318 1_555
Na34 O59 2.814370 1_555
Na34 O60 2.814370 1_555
Na35 O0 2.284941 1_565
Na35 O42 2.419708 1_455
Na35 O45 2.543819 1_555
Na35 O57 2.781019 1_555
Na35 O56 2.781019 1_555
Na36 O3 2.322135 1_565
Na36 O8 2.389094 1_565
Na36 O51 2.437204 1_555
Na36 O5 2.620697 1_565
Na36 O55 2.691732 1_555
Na36 O53 2.885001 1_555
Na37 O4 2.322135 1_565
Na37 O9 2.389094 1_565
Na37 O52 2.437204 1_555
Na37 O5 2.620697 1_565
Na37 O54 2.691732 1_556
Na37 O53 2.885001 1_555
Na38 O56 2.440370 1_555
Na38 O9 2.441848 1_564
Na38 O2 2.444925 1_564
Na38 O52 2.493433 1_554
Na38 O59 2.667481 1_555
Na39 O57 2.440370 1_555
Na39 O8 2.441848 1_565
Na39 O1 2.444925 1_565
Na39 O51 2.493433 1_555
Na39 O60 2.667481 1_555
Mn0 O62 1.664585 1_545
Mn0 O61 1.664585 1_545
Mn0 O10 1.716225 1_555
Mn0 O58 1.724481 1_545
Mn1 O0 1.634681 1_555
Mn1 O59 1.681708 1_545
Mn1 O60 1.681708 1_545
Mn1 O13 1.713487 1_555
Mn2 O14 1.680203 1_555
Mn2 O7 1.681265 1_454
Mn2 O20 1.710033 1_554
Mn2 O22 1.728455 1_455
Mn3 O15 1.680203 1_555
Mn3 O6 1.681265 1_455
Mn3 O19 1.710033 1_555
Mn3 O23 1.728455 1_455
Mn4 O16 1.680203 1_555
Mn4 O25 1.681265 1_555
Mn4 O12 1.710033 1_555
Mn4 O8 1.728455 1_555
Mn5 O17 1.680203 1_555
Mn5 O24 1.681265 1_556
Mn5 O11 1.710033 1_556
Mn5 O9 1.728455 1_555
Mn6 O31 1.634681 1_555
Mn6 O36 1.681708 1_555
Mn6 O35 1.681708 1_555
Mn6 O18 1.713487 1_555
Mn7 O34 1.664585 1_555
Mn7 O33 1.664585 1_555
Mn7 O21 1.716225 1_555
Mn7 O37 1.724481 1_555
Mn8 O30 1.664585 1_555
Mn8 O29 1.664585 1_555
Mn8 O42 1.716225 1_555
Mn8 O26 1.724481 1_555
Mn9 O32 1.634681 1_555
Mn9 O27 1.681708 1_555
Mn9 O28 1.681708 1_555
Mn9 O45 1.713487 1_555
Mn10 O46 1.680203 1_555
Mn10 O39 1.681265 1_554
Mn10 O52 1.710033 1_554
Mn10 O54 1.728455 1_555
Mn11 O47 1.680203 1_555
Mn11 O38 1.681265 1_555
Mn11 O51 1.710033 1_555
Mn11 O55 1.728455 1_555
Mn12 O48 1.680203 1_555
Mn12 O57 1.681265 1_655
Mn12 O44 1.710033 1_555
Mn12 O40 1.728455 1_655
Mn13 O49 1.680203 1_555
Mn13 O56 1.681265 1_656
Mn13 O43 1.710033 1_556
Mn13 O41 1.728455 1_655
Mn14 O63 1.634681 1_555
Mn14 O3 1.681708 1_565
Mn14 O4 1.681708 1_565
Mn14 O50 1.713487 1_555
Mn15 O2 1.664585 1_565
Mn15 O1 1.664585 1_565
Mn15 O53 1.716225 1_555
Mn15 O5 1.724481 1_565
