# generated using pymatgen
data_LiVCr(P2O7)2
_symmetry_space_group_name_H-M   'P 1'
_cell_length_a   7.15547900
_cell_length_b   9.67699245
_cell_length_c   16.83835270
_cell_angle_alpha   102.12327961
_cell_angle_beta   96.10596843
_cell_angle_gamma   111.34158987
_symmetry_Int_Tables_number   1
_chemical_formula_structural   LiVCr(P2O7)2
_chemical_formula_sum   'Li4 V4 Cr4 P16 O56'
_cell_volume   1040.16345786
_cell_formula_units_Z   4
loop_
 _symmetry_equiv_pos_site_id
 _symmetry_equiv_pos_as_xyz
  1  'x, y, z'
loop_
 _atom_site_type_symbol
 _atom_site_label
 _atom_site_symmetry_multiplicity
 _atom_site_fract_x
 _atom_site_fract_y
 _atom_site_fract_z
 _atom_site_occupancy
  Li  Li0  1  0.29035200  0.96525000  0.43230600  1
  Li  Li1  1  0.26508000  0.59081900  0.68040500  1
  Li  Li2  1  0.01328200  0.34092500  0.18093400  1
  Li  Li3  1  0.03990700  0.71474100  0.93240200  1
  V  V0  1  0.15777000  0.88027800  0.24786300  1
  V  V1  1  0.90163700  0.63000900  0.74804900  1
  V  V2  1  0.65489800  0.38291800  0.25331900  1
  V  V3  1  0.41146600  0.13362300  0.75309500  1
  Cr  Cr0  1  0.72273900  0.99435500  0.50283800  1
  Cr  Cr1  1  0.47373300  0.74468400  0.00298800  1
  Cr  Cr2  1  0.21744800  0.49379200  0.49879900  1
  Cr  Cr3  1  0.96692600  0.24389300  0.99847000  1
  P  P0  1  0.33411800  0.85689800  0.59146300  1
  P  P1  1  0.08193600  0.60522900  0.09037900  1
  P  P2  1  0.79476400  0.88179400  0.89150300  1
  P  P3  1  0.54655700  0.63141900  0.39170700  1
  P  P4  1  0.97359900  0.89016900  0.64174200  1
  P  P5  1  0.72087900  0.63623100  0.14169400  1
  P  P6  1  0.38019200  0.85784600  0.83980800  1
  P  P7  1  0.13346900  0.60890700  0.34096900  1
  P  P8  1  0.83304600  0.35252900  0.58755700  1
  P  P9  1  0.58565500  0.10433300  0.08839300  1
  P  P10  1  0.29492800  0.38071900  0.89107200  1
  P  P11  1  0.04281400  0.13101700  0.39112000  1
  P  P12  1  0.47292700  0.38361100  0.64090400  1
  P  P13  1  0.22576400  0.13727800  0.14099500  1
  P  P14  1  0.88150800  0.35798500  0.83987500  1
  P  P15  1  0.62793700  0.10631200  0.33884500  1
  O  O0  1  0.54816900  0.94118000  0.08999100  1
  O  O1  1  0.45545500  0.98614200  0.26917300  1
  O  O2  1  0.13389500  0.98526600  0.16546900  1
  O  O3  1  0.80192700  0.91327800  0.59503600  1
  O  O4  1  0.55277900  0.66425400  0.09560200  1
  O  O5  1  0.66177700  0.80430300  0.41178700  1
  O  O6  1  0.42699800  0.91032000  0.52020900  1
  O  O7  1  0.17721500  0.66063600  0.02019700  1
  O  O8  1  0.44794700  0.96728400  0.67655200  1
  O  O9  1  0.19697500  0.71536400  0.17608400  1
  O  O10  1  0.16619300  0.77443700  0.33731100  1
  O  O11  1  0.86265400  0.76720700  0.21771500  1
  O  O12  1  0.10986000  0.86258100  0.57438900  1
  O  O13  1  0.85967800  0.61263200  0.07411400  1
  O  O14  1  0.58371400  0.83116600  0.82440500  1
  O  O15  1  0.33527100  0.58289200  0.32313500  1
  O  O16  1  0.74468100  0.82400900  0.96749400  1
  O  O17  1  0.48831600  0.57420000  0.46673500  1
  O  O18  1  0.30181900  0.69215200  0.59163200  1
  O  O19  1  0.05158300  0.44155100  0.09148000  1
  O  O20  1  0.34020700  0.83248100  0.92397700  1
  O  O21  1  0.10124000  0.59051700  0.42604200  1
  O  O22  1  0.21294000  0.73204900  0.76867700  1
  O  O23  1  0.96442300  0.48531300  0.26965200  1
  O  O24  1  0.88708700  0.73867200  0.66930500  1
  O  O25  1  0.63658200  0.48627300  0.16890900  1
  O  O26  1  0.91092400  0.79541400  0.84441200  1
  O  O27  1  0.66008100  0.54877300  0.34126200  1
  O  O28  1  0.30704700  0.42276200  0.59897400  1
  O  O29  1  0.05703000  0.17302400  0.09863800  1
  O  O30  1  0.41175500  0.55387100  0.91141300  1
  O  O31  1  0.16066000  0.30326000  0.40958900  1
  O  O32  1  0.93346800  0.41008100  0.51982900  1
  O  O33  1  0.68347900  0.15940600  0.01943300  1
  O  O34  1  0.95160600  0.46921600  0.67378900  1
  O  O35  1  0.70338000  0.22059900  0.17405200  1
  O  O36  1  0.91718000  0.52537400  0.83589100  1
  O  O37  1  0.66312300  0.27078600  0.33360200  1
  O  O38  1  0.60627800  0.51739100  0.71806100  1
  O  O39  1  0.35608400  0.26943600  0.21848200  1
  O  O40  1  0.61114600  0.36481200  0.57412800  1
  O  O41  1  0.36217000  0.11548600  0.07442800  1
  O  O42  1  0.08445200  0.33417700  0.82259300  1
  O  O43  1  0.83256400  0.08196700  0.32396000  1
  O  O44  1  0.23776400  0.32444600  0.96649000  1
  O  O45  1  0.99370900  0.07430800  0.46752800  1
  O  O46  1  0.79797100  0.19048600  0.59005600  1
  O  O47  1  0.85317700  0.34221700  0.92591200  1
  O  O48  1  0.59182000  0.08370600  0.42399600  1
  O  O49  1  0.70804300  0.23942300  0.76999200  1
  O  O50  1  0.38307300  0.23307600  0.66570300  1
  O  O51  1  0.40718500  0.29722800  0.84058200  1
  O  O52  1  0.15797000  0.04377300  0.34405700  1
  O  O53  1  0.91120300  0.05384700  0.90987400  1
  O  O54  1  0.41251100  0.02085000  0.83526700  1
  O  O55  1  0.11125400  0.01915900  0.71809700  1
loop_
_geom_bond_atom_site_label_1
_geom_bond_atom_site_label_2
_geom_bond_distance
_geom_bond_site_symmetry_2
Li0 O6 1.957113 1_555
Li0 O10 2.005118 1_555
Li0 O48 2.078138 1_565
Li0 O52 2.093209 1_565
Li1 O18 1.943380 1_555
Li1 O22 1.962682 1_555
Li1 O28 2.030147 1_555
Li1 O34 2.097391 1_455
Li2 O19 1.949814 1_555
Li2 O23 1.973846 1_455
Li2 O29 2.043261 1_555
Li2 O35 2.072642 1_455
Li3 O7 1.953311 1_556
Li3 O36 2.011073 1_455
Li3 O20 2.070349 1_555
Li3 O26 2.091835 1_455
Cr0 O46 1.991538 1_565
Cr0 O3 1.998707 1_555
Cr0 O5 2.003170 1_555
Cr0 O45 2.014474 1_565
Cr0 O48 2.048113 1_565
Cr0 O6 2.050382 1_555
Cr1 O0 1.993069 1_555
Cr1 O4 2.000059 1_555
Cr1 O30 2.011582 1_554
Cr1 O16 2.015248 1_554
Cr1 O20 2.049369 1_554
Cr1 O7 2.054497 1_555
Cr2 O21 1.974809 1_555
Cr2 O17 1.988695 1_555
Cr2 O31 1.995641 1_555
Cr2 O32 1.996533 1_455
Cr2 O18 2.046453 1_555
Cr2 O28 2.075191 1_555
Cr3 O47 1.975068 1_555
Cr3 O44 1.987996 1_655
Cr3 O53 1.988474 1_555
Cr3 O33 1.993290 1_556
Cr3 O19 2.043251 1_656
Cr3 O29 2.075376 1_656
O0 P9 1.508813 1_565
O1 P15 1.525173 1_565
O1 V0 1.951971 1_555
O2 P13 1.540869 1_565
O2 V0 1.911584 1_555
O3 P4 1.498588 1_555
O4 P5 1.499975 1_555
O5 P3 1.513978 1_555
O6 P0 1.525960 1_555
O7 P1 1.523251 1_555
O8 P0 1.527380 1_555
O8 V3 1.956094 1_565
O9 P1 1.535839 1_555
O9 V0 1.916801 1_555
O10 P7 1.547901 1_555
O10 V0 1.998687 1_555
O11 P5 1.542908 1_555
O11 V0 1.941925 1_655
O12 P4 1.614205 1_455
O12 P0 1.622771 1_555
O13 P1 1.614899 1_655
O13 P5 1.621666 1_555
O14 P6 1.606431 1_555
O14 P2 1.631909 1_555
O15 P7 1.601170 1_555
O15 P3 1.650320 1_555
O16 P2 1.526640 1_555
O17 P3 1.521245 1_555
O18 P0 1.526075 1_555
O19 P1 1.522856 1_555
O20 P6 1.527096 1_555
O21 P7 1.511410 1_555
O22 P6 1.539795 1_555
O22 V1 2.036647 1_455
O23 P7 1.539608 1_655
O23 V2 2.030128 1_555
O24 P4 1.560203 1_555
O24 V1 1.873649 1_555
O25 P5 1.542942 1_555
O25 V2 1.921082 1_555
O26 P2 1.544616 1_555
O26 V1 2.001993 1_555
O27 P3 1.534696 1_555
O27 V2 1.927915 1_555
O28 P12 1.520612 1_555
O29 P13 1.520037 1_555
O30 P10 1.517316 1_555
O31 P11 1.513094 1_555
O32 P8 1.508945 1_555
O33 P9 1.511170 1_555
O34 P8 1.566876 1_555
O34 V1 1.948158 1_555
O35 P9 1.557535 1_555
O35 V2 1.995906 1_555
O36 P14 1.562633 1_555
O36 V1 1.975210 1_555
O37 P15 1.541589 1_555
O37 V2 1.911557 1_555
O38 P12 1.550825 1_555
O38 V1 1.942851 1_555
O39 P13 1.542652 1_555
O39 V2 1.968589 1_555
O40 P12 1.599107 1_555
O40 P8 1.630536 1_555
O41 P13 1.592729 1_555
O41 P9 1.637218 1_555
O42 P14 1.597431 1_455
O42 P10 1.649046 1_555
O43 P15 1.602047 1_555
O43 P11 1.631056 1_655
O44 P10 1.521637 1_555
O45 P11 1.527186 1_655
O46 P8 1.505714 1_555
O47 P14 1.515251 1_555
O48 P15 1.529659 1_555
O49 P14 1.525560 1_555
O49 V3 1.949480 1_555
O50 P12 1.529938 1_555
O50 V3 1.951024 1_555
O51 P10 1.532938 1_555
O51 V3 1.934651 1_555
O52 P11 1.544014 1_555
O52 V0 2.012017 1_545
O53 P2 1.510334 1_545
O54 P6 1.528527 1_545
O54 V3 1.934796 1_555
O55 P4 1.530657 1_445
O55 V3 1.978238 1_555
