# generated using pymatgen
data_LuAlO3
_symmetry_space_group_name_H-M   'P 1'
_cell_length_a   5.11999600
_cell_length_b   5.36178700
_cell_length_c   7.36044000
_cell_angle_alpha   90.00000000
_cell_angle_beta   90.00000000
_cell_angle_gamma   90.00000000
_symmetry_Int_Tables_number   1
_chemical_formula_structural   LuAlO3
_chemical_formula_sum   'Lu4 Al4 O12'
_cell_volume   202.06121305
_cell_formula_units_Z   4
loop_
 _symmetry_equiv_pos_site_id
 _symmetry_equiv_pos_as_xyz
  1  'x, y, z'
loop_
 _atom_site_type_symbol
 _atom_site_label
 _atom_site_symmetry_multiplicity
 _atom_site_fract_x
 _atom_site_fract_y
 _atom_site_fract_z
 _atom_site_occupancy
  Lu  Lu0  1  0.01712400  0.93642400  0.75000000  1
  Lu  Lu1  1  0.48287600  0.43642400  0.75000000  1
  Lu  Lu2  1  0.51712400  0.56357600  0.25000000  1
  Lu  Lu3  1  0.98287600  0.06357600  0.25000000  1
  Al  Al0  1  0.00000000  0.50000000  0.00000000  1
  Al  Al1  1  0.00000000  0.50000000  0.50000000  1
  Al  Al2  1  0.50000000  0.00000000  0.00000000  1
  Al  Al3  1  0.50000000  0.00000000  0.50000000  1
  O  O0  1  0.10210200  0.46717000  0.25000000  1
  O  O1  1  0.19877500  0.20036400  0.55291900  1
  O  O2  1  0.19877500  0.20036400  0.94708100  1
  O  O3  1  0.30122500  0.70036400  0.94708100  1
  O  O4  1  0.30122500  0.70036400  0.55291900  1
  O  O5  1  0.39789800  0.96717000  0.25000000  1
  O  O6  1  0.60210200  0.03283000  0.75000000  1
  O  O7  1  0.69877500  0.29963600  0.05291900  1
  O  O8  1  0.69877500  0.29963600  0.44708100  1
  O  O9  1  0.80122500  0.79963600  0.05291900  1
  O  O10  1  0.80122500  0.79963600  0.44708100  1
  O  O11  1  0.89789800  0.53283000  0.75000000  1
loop_
_geom_bond_atom_site_label_1
_geom_bond_atom_site_label_2
_geom_bond_distance
_geom_bond_site_symmetry_2
Lu0 O6 2.186879 1_465
Lu0 O2 2.229800 1_565
Lu0 O1 2.229800 1_565
Lu0 O11 2.248436 1_455
Lu0 O3 2.412904 1_555
Lu0 O4 2.412904 1_555
Lu0 O9 2.594422 1_456
Lu0 O10 2.594422 1_455
Lu1 O11 2.186879 1_555
Lu1 O3 2.229800 1_555
Lu1 O4 2.229800 1_555
Lu1 O6 2.248436 1_555
Lu1 O2 2.412904 1_555
Lu1 O1 2.412904 1_555
Lu1 O7 2.594422 1_556
Lu1 O8 2.594422 1_555
Lu2 O0 2.186879 1_555
Lu2 O7 2.229800 1_555
Lu2 O8 2.229800 1_555
Lu2 O5 2.248436 1_555
Lu2 O10 2.412904 1_555
Lu2 O9 2.412904 1_555
Lu2 O4 2.594422 1_555
Lu2 O3 2.594422 1_554
Lu3 O5 2.186879 1_645
Lu3 O9 2.229800 1_545
Lu3 O10 2.229800 1_545
Lu3 O0 2.248436 1_655
Lu3 O7 2.412904 1_555
Lu3 O8 2.412904 1_555
Lu3 O1 2.594422 1_655
Lu3 O2 2.594422 1_654
Al0 O3 1.919493 1_554
Al0 O7 1.919493 1_455
Al0 O0 1.921008 1_555
Al0 O11 1.921008 1_454
Al0 O2 1.941288 1_554
Al0 O9 1.941288 1_455
Al1 O4 1.919493 1_555
Al1 O8 1.919493 1_455
Al1 O0 1.921008 1_555
Al1 O11 1.921008 1_455
Al1 O1 1.941288 1_555
Al1 O10 1.941288 1_455
Al2 O9 1.919493 1_545
Al2 O2 1.919493 1_554
Al2 O5 1.921008 1_545
Al2 O6 1.921008 1_554
Al2 O7 1.941288 1_555
Al2 O3 1.941288 1_544
Al3 O10 1.919493 1_545
Al3 O1 1.919493 1_555
Al3 O5 1.921008 1_545
Al3 O6 1.921008 1_555
Al3 O8 1.941288 1_555
Al3 O4 1.941288 1_545
