# generated using pymatgen
data_Li2MnSiO4
_symmetry_space_group_name_H-M   'P 1'
_cell_length_a   5.07452700
_cell_length_b   6.36049500
_cell_length_c   11.05764600
_cell_angle_alpha   90.00000000
_cell_angle_beta   90.00000000
_cell_angle_gamma   90.00000000
_symmetry_Int_Tables_number   1
_chemical_formula_structural   Li2MnSiO4
_chemical_formula_sum   'Li8 Mn4 Si4 O16'
_cell_volume   356.90215105
_cell_formula_units_Z   4
loop_
 _symmetry_equiv_pos_site_id
 _symmetry_equiv_pos_as_xyz
  1  'x, y, z'
loop_
 _atom_site_type_symbol
 _atom_site_label
 _atom_site_symmetry_multiplicity
 _atom_site_fract_x
 _atom_site_fract_y
 _atom_site_fract_z
 _atom_site_occupancy
  Li  Li0  1  0.70552400  0.87027700  0.59502900  1
  Li  Li1  1  0.19629400  0.11709500  0.67367600  1
  Li  Li2  1  0.69629400  0.61709500  0.82632400  1
  Li  Li3  1  0.20552400  0.37027700  0.90497100  1
  Li  Li4  1  0.79447600  0.87027700  0.09502900  1
  Li  Li5  1  0.30370600  0.11709500  0.17367600  1
  Li  Li6  1  0.80370600  0.61709500  0.32632400  1
  Li  Li7  1  0.29447600  0.37027700  0.40497100  1
  Mn  Mn0  1  0.70079900  0.36264800  0.58644700  1
  Mn  Mn1  1  0.20079900  0.86264800  0.91355300  1
  Mn  Mn2  1  0.79920100  0.36264800  0.08644700  1
  Mn  Mn3  1  0.29920100  0.86264800  0.41355300  1
  Si  Si0  1  0.19033100  0.61820900  0.66448000  1
  Si  Si1  1  0.69033100  0.11820900  0.83552000  1
  Si  Si2  1  0.30966900  0.61820900  0.16448000  1
  Si  Si3  1  0.80966900  0.11820900  0.33552000  1
  O  O0  1  0.30186700  0.83461100  0.59876900  1
  O  O1  1  0.28402600  0.40380200  0.59006000  1
  O  O2  1  0.86467300  0.62471900  0.66519100  1
  O  O3  1  0.80320700  0.11075100  0.69502100  1
  O  O4  1  0.30320700  0.61075100  0.80497900  1
  O  O5  1  0.36467300  0.12471900  0.83480900  1
  O  O6  1  0.78402600  0.90380200  0.90994000  1
  O  O7  1  0.80186700  0.33461100  0.90123100  1
  O  O8  1  0.19813300  0.83461100  0.09876900  1
  O  O9  1  0.21597400  0.40380200  0.09006000  1
  O  O10  1  0.63532700  0.62471900  0.16519100  1
  O  O11  1  0.69679300  0.11075100  0.19502100  1
  O  O12  1  0.19679300  0.61075100  0.30497900  1
  O  O13  1  0.13532700  0.12471900  0.33480900  1
  O  O14  1  0.71597400  0.90380200  0.40994000  1
  O  O15  1  0.69813300  0.33461100  0.40123100  1
loop_
_geom_bond_atom_site_label_1
_geom_bond_atom_site_label_2
_geom_bond_distance
_geom_bond_site_symmetry_2
Li0 O2 1.921867 1_555
Li0 O3 1.951335 1_565
Li0 O14 2.058410 1_555
Li0 O0 2.061307 1_555
Li1 O5 1.976630 1_555
Li1 O3 2.009051 1_455
Li1 O0 2.049720 1_545
Li1 O1 2.092508 1_555
Li2 O2 1.976630 1_555
Li2 O4 2.009051 1_555
Li2 O7 2.049720 1_555
Li2 O6 2.092508 1_555
Li3 O5 1.921867 1_555
Li3 O4 1.951335 1_555
Li3 O9 2.058410 1_556
Li3 O7 2.061307 1_455
Li4 O10 1.921867 1_555
Li4 O11 1.951335 1_565
Li4 O6 2.058410 1_554
Li4 O8 2.061307 1_655
Li5 O13 1.976630 1_555
Li5 O11 2.009051 1_555
Li5 O8 2.049720 1_545
Li5 O9 2.092508 1_555
Li6 O10 1.976630 1_555
Li6 O12 2.009051 1_655
Li6 O15 2.049720 1_555
Li6 O14 2.092508 1_555
Li7 O13 1.921867 1_555
Li7 O12 1.951335 1_555
Li7 O1 2.058410 1_555
Li7 O15 2.061307 1_555
Mn0 O15 2.055847 1_555
Mn0 O2 2.056271 1_555
Mn0 O3 2.068440 1_555
Mn0 O1 2.131437 1_555
Mn1 O8 2.055847 1_556
Mn1 O5 2.056271 1_565
Mn1 O4 2.068440 1_555
Mn1 O6 2.131437 1_455
Mn2 O7 2.055847 1_554
Mn2 O10 2.056271 1_555
Mn2 O11 2.068440 1_555
Mn2 O9 2.131437 1_655
Mn3 O0 2.055847 1_555
Mn3 O13 2.056271 1_565
Mn3 O12 2.068440 1_555
Mn3 O14 2.131437 1_555
O0 Si0 1.656155 1_555
O1 Si0 1.662231 1_555
O2 Si0 1.653098 1_655
O3 Si1 1.656496 1_555
O4 Si0 1.656496 1_555
O5 Si1 1.653098 1_555
O6 Si1 1.662231 1_565
O7 Si1 1.656155 1_555
O8 Si2 1.656155 1_555
O9 Si2 1.662231 1_555
O10 Si2 1.653098 1_555
O11 Si3 1.656496 1_555
O12 Si2 1.656496 1_555
O13 Si3 1.653098 1_455
O14 Si3 1.662231 1_565
O15 Si3 1.656155 1_555
