# generated using pymatgen
data_Li5V4O8
_symmetry_space_group_name_H-M   'P 1'
_cell_length_a   5.98862027
_cell_length_b   5.98862027
_cell_length_c   5.98862027
_cell_angle_alpha   60.00000000
_cell_angle_beta   60.00000000
_cell_angle_gamma   60.00000000
_symmetry_Int_Tables_number   1
_chemical_formula_structural   Li5V4O8
_chemical_formula_sum   'Li5 V4 O8'
_cell_volume   151.86766973
_cell_formula_units_Z   1
loop_
 _symmetry_equiv_pos_site_id
 _symmetry_equiv_pos_as_xyz
  1  'x, y, z'
loop_
 _atom_site_type_symbol
 _atom_site_label
 _atom_site_symmetry_multiplicity
 _atom_site_fract_x
 _atom_site_fract_y
 _atom_site_fract_z
 _atom_site_occupancy
  Li  Li0  1  0.14569800  0.14569800  0.14569800  1
  Li  Li1  1  0.14569800  0.56290500  0.14569800  1
  Li  Li2  1  0.14569800  0.14569800  0.56290500  1
  Li  Li3  1  0.00000000  0.00000000  0.00000000  1
  Li  Li4  1  0.56290500  0.14569800  0.14569800  1
  V  V0  1  0.62521300  0.62521300  0.12436000  1
  V  V1  1  0.62521300  0.62521300  0.62521300  1
  V  V2  1  0.12436000  0.62521300  0.62521300  1
  V  V3  1  0.62521300  0.12436000  0.62521300  1
  O  O0  1  0.37970800  0.37970800  0.37970800  1
  O  O1  1  0.86087500  0.37970800  0.37970800  1
  O  O2  1  0.37970800  0.86087500  0.37970800  1
  O  O3  1  0.37970800  0.37970800  0.86087500  1
  O  O4  1  0.87074100  0.38777700  0.87074100  1
  O  O5  1  0.87074100  0.87074100  0.38777700  1
  O  O6  1  0.38777700  0.87074100  0.87074100  1
  O  O7  1  0.87074100  0.87074100  0.87074100  1
loop_
_geom_bond_atom_site_label_1
_geom_bond_atom_site_label_2
_geom_bond_distance
_geom_bond_site_symmetry_2
Li0 O3 2.005100 1_554
Li0 O2 2.005100 1_545
Li0 O1 2.005100 1_455
Li0 O4 2.336972 1_454
Li0 O6 2.336972 1_544
Li0 O5 2.336972 1_445
Li1 O3 2.005100 1_554
Li1 O0 2.005100 1_555
Li1 O1 2.005100 1_455
Li1 O7 2.336972 1_454
Li1 O5 2.336976 1_455
Li1 O6 2.336976 1_554
Li2 O0 2.005100 1_555
Li2 O2 2.005100 1_545
Li2 O1 2.005100 1_455
Li2 O7 2.336972 1_445
Li2 O4 2.336976 1_455
Li2 O6 2.336976 1_545
Li3 O6 1.896109 1_544
Li3 O4 1.896109 1_454
Li3 O5 1.896109 1_445
Li3 O7 1.896109 1_444
Li4 O3 2.005100 1_554
Li4 O0 2.005100 1_555
Li4 O2 2.005100 1_545
Li4 O7 2.336972 1_544
Li4 O4 2.336976 1_554
Li4 O5 2.336976 1_545
O0 V2 2.080063 1_555
O0 V3 2.080063 1_555
O0 V0 2.080063 1_555
O1 V0 2.080063 1_555
O1 V3 2.080063 1_555
O1 V1 2.080063 1_555
O2 V0 2.080063 1_555
O2 V2 2.080063 1_555
O2 V1 2.080063 1_555
O3 V3 2.080063 1_555
O3 V2 2.080063 1_555
O3 V1 2.080063 1_555
O4 V0 2.079983 1_556
O4 V2 2.079983 1_655
O4 V1 2.079987 1_555
O5 V3 2.079983 1_565
O5 V2 2.079983 1_655
O5 V1 2.079987 1_555
O6 V0 2.079983 1_556
O6 V3 2.079983 1_565
O6 V1 2.079987 1_555
O7 V0 2.079987 1_556
O7 V3 2.079987 1_565
O7 V2 2.079987 1_655
