# generated using pymatgen
data_Na2Be(GeO3)2
_symmetry_space_group_name_H-M   'P 1'
_cell_length_a   15.47099934
_cell_length_b   11.52455591
_cell_length_c   11.50361930
_cell_angle_alpha   84.41674144
_cell_angle_beta   47.84906166
_cell_angle_gamma   47.73419690
_symmetry_Int_Tables_number   1
_chemical_formula_structural   Na2Be(GeO3)2
_chemical_formula_sum   'Na12 Be6 Ge12 O36'
_cell_volume   859.61500168
_cell_formula_units_Z   6
loop_
 _symmetry_equiv_pos_site_id
 _symmetry_equiv_pos_as_xyz
  1  'x, y, z'
loop_
 _atom_site_type_symbol
 _atom_site_label
 _atom_site_symmetry_multiplicity
 _atom_site_fract_x
 _atom_site_fract_y
 _atom_site_fract_z
 _atom_site_occupancy
  Na  Na0  1  0.55958000  0.75491400  0.27267900  1
  Na  Na1  1  0.60805800  0.04824500  0.94348000  1
  Na  Na2  1  0.49630500  0.68661800  0.83041700  1
  Na  Na3  1  0.89481600  0.10888300  0.88770500  1
  Na  Na4  1  0.93816100  0.40751200  0.61234100  1
  Na  Na5  1  0.50661100  0.99633300  0.50478300  1
  Na  Na6  1  0.84160200  0.31342800  0.21471400  1
  Na  Na7  1  0.26221200  0.73635800  0.25119500  1
  Na  Na8  1  0.83790300  0.97930900  0.48868400  1
  Na  Na9  1  0.13633000  0.36004100  0.14100000  1
  Na  Na10  1  0.26245100  0.42383300  0.56298300  1
  Na  Na11  1  0.20258900  0.64248600  0.85433100  1
  Be  Be0  1  0.11423600  0.88133900  0.11542800  1
  Be  Be1  1  0.64930300  0.51441200  0.99593600  1
  Be  Be2  1  0.42148900  0.24130900  0.72809700  1
  Be  Be3  1  0.73420400  0.60558400  0.40873400  1
  Be  Be4  1  0.36509900  0.13434100  0.36069800  1
  Be  Be5  1  0.00955800  0.82826100  0.63975100  1
  Ge  Ge0  1  0.78772900  0.91192600  0.05652300  1
  Ge  Ge1  1  0.40212100  0.59334800  0.40753800  1
  Ge  Ge2  1  0.69959900  0.17136600  0.32906900  1
  Ge  Ge3  1  0.32163200  0.81227000  0.70761400  1
  Ge  Ge4  1  0.33079800  0.47114700  0.00986800  1
  Ge  Ge5  1  0.08773300  0.54242300  0.43765500  1
  Ge  Ge6  1  0.74498800  0.25513500  0.75522300  1
  Ge  Ge7  1  0.01706400  0.18815800  0.32435100  1
  Ge  Ge8  1  0.65488500  0.84847000  0.65118900  1
  Ge  Ge9  1  0.05334400  0.24325500  0.78871300  1
  Ge  Ge10  1  0.44044900  0.92906500  0.08259000  1
  Ge  Ge11  1  0.00202400  0.50218000  0.99389700  1
  O  O0  1  0.49022100  0.96431200  0.16723500  1
  O  O1  1  0.48534000  0.64516600  0.24579200  1
  O  O2  1  0.16133600  0.38531800  0.48952900  1
  O  O3  1  0.28322100  0.42933700  0.93155300  1
  O  O4  1  0.82852200  0.95964800  0.88677000  1
  O  O5  1  0.49737100  0.98007900  0.91299500  1
  O  O6  1  0.97579600  0.98772800  0.60366400  1
  O  O7  1  0.16404300  0.13693100  0.30353500  1
  O  O8  1  0.64423500  0.33672400  0.25921800  1
  O  O9  1  0.28417500  0.75458100  0.86952700  1
  O  O10  1  0.62679800  0.00985500  0.59908000  1
  O  O11  1  0.29974200  0.09339400  0.52601300  1
  O  O12  1  0.82681400  0.64042400  0.25704600  1
  O  O13  1  0.24437000  0.62241800  0.47870500  1
  O  O14  1  0.79144800  0.33935800  0.60663300  1
  O  O15  1  0.92228800  0.45147100  0.97597400  1
  O  O16  1  0.15124200  0.96226800  0.17546900  1
  O  O17  1  0.97492400  0.65067700  0.92237800  1
  O  O18  1  0.93075300  0.36177100  0.28293800  1
  O  O19  1  0.56917500  0.65935800  0.47050200  1
  O  O20  1  0.11525300  0.08277100  0.86005200  1
  O  O21  1  0.46447700  0.29992900  0.57619200  1
  O  O22  1  0.17775300  0.71083300  0.15144400  1
  O  O23  1  0.26875000  0.75444100  0.63689200  1
  O  O24  1  0.59715600  0.76605400  0.63238900  1
  O  O25  1  0.58784900  0.67592500  0.94987400  1
  O  O26  1  0.30743600  0.39025100  0.16197400  1
  O  O27  1  0.94890700  0.77956500  0.58956200  1
  O  O28  1  0.25755500  0.27221500  0.82566200  1
  O  O29  1  0.89476100  0.31495400  0.81968800  1
  O  O30  1  0.91892100  0.60591300  0.49143200  1
  O  O31  1  0.53279000  0.07273200  0.29379500  1
  O  O32  1  0.87183100  0.08193500  0.28193600  1
  O  O33  1  0.59781200  0.27592300  0.79900200  1
  O  O34  1  0.61146300  0.42393300  0.97062900  1
  O  O35  1  0.85070400  0.94883500  0.11750100  1
loop_
_geom_bond_atom_site_label_1
_geom_bond_atom_site_label_2
_geom_bond_distance
_geom_bond_site_symmetry_2
Na0 O11 2.294401 1_565
Na0 O1 2.349809 1_555
Na0 O15 2.363729 1_554
Na0 O0 2.478009 1_555
Na0 O19 2.481804 1_555
Na1 O26 2.250140 1_556
Na1 O4 2.358019 1_545
Na1 O27 2.375870 1_545
Na1 O5 2.518285 1_545
Na1 O0 2.544409 1_546
Na2 O14 2.267146 1_555
Na2 O24 2.281881 1_555
Na2 O16 2.355242 1_556
Na2 O9 2.493118 1_555
Na2 O25 2.500775 1_555
Na3 O29 2.426696 1_555
Na3 O4 2.530051 1_545
Na3 O8 2.538134 1_556
Na3 O23 2.565379 1_645
Na3 O34 2.638425 1_555
Na3 O6 2.689983 1_545
Na4 O7 2.321795 1_655
Na4 O25 2.357914 1_555
Na4 O29 2.365759 1_555
Na4 O30 2.504504 1_555
Na4 O2 2.513582 1_655
Na4 O14 2.895066 1_555
Na5 O28 2.301268 1_565
Na5 O12 2.340963 1_555
Na5 O31 2.361072 1_565
Na5 O11 2.396323 1_565
Na6 O19 2.313223 1_555
Na6 O18 2.323849 1_555
Na6 O20 2.329048 1_654
Na6 O32 2.517896 1_555
Na6 O8 2.546313 1_555
Na7 O34 2.293829 1_554
Na7 O6 2.317632 1_455
Na7 O22 2.388687 1_555
Na7 O16 2.457259 1_555
Na7 O13 2.738492 1_555
Na7 O1 2.805257 1_555
Na8 O22 2.311714 1_655
Na8 O10 2.318846 1_565
Na8 O33 2.392382 1_565
Na8 O32 2.437839 1_565
Na8 O27 2.536198 1_555
Na9 O18 2.394350 1_455
Na9 O3 2.515009 1_554
Na9 O12 2.568922 1_455
Na9 O28 2.594336 1_554
Na9 O30 2.607098 1_455
Na9 O5 2.631410 1_544
Na10 O13 2.308028 1_555
Na10 O17 2.343362 1_455
Na10 O31 2.396892 1_555
Na10 O2 2.477776 1_555
Na10 O21 2.534336 1_555
Na11 O3 2.306558 1_555
Na11 O35 2.317816 1_456
Na11 O21 2.404410 1_555
Na11 O9 2.413726 1_555
Na11 O23 2.584800 1_555
Be0 O32 1.623533 1_465
Be0 O9 1.644392 1_554
Be0 O22 1.670080 1_555
Be0 O16 1.746156 1_555
Be1 O34 1.619783 1_555
Be1 O29 1.626811 1_555
Be1 O25 1.659258 1_555
Be1 O1 1.697618 1_556
Be2 O10 1.566253 1_555
Be2 O21 1.663470 1_555
Be2 O3 1.667712 1_555
Be2 O28 1.691473 1_555
Be3 O12 1.593999 1_555
Be3 O18 1.621059 1_555
Be3 O24 1.692580 1_555
Be3 O19 1.711724 1_555
Be4 O0 1.582362 1_545
Be4 O11 1.657702 1_555
Be4 O31 1.666055 1_555
Be4 O2 1.672892 1_555
Be5 O13 1.576944 1_555
Be5 O4 1.631725 1_455
Be5 O6 1.635223 1_455
Be5 O27 1.739902 1_455
Ge0 O17 1.735005 1_554
Ge0 O4 1.765757 1_554
Ge0 O31 1.773084 1_565
Ge0 O35 1.776237 1_555
Ge1 O13 1.735124 1_555
Ge1 O1 1.754721 1_555
Ge1 O23 1.777309 1_555
Ge1 O8 1.786346 1_555
Ge2 O32 1.712259 1_555
Ge2 O21 1.788664 1_555
Ge2 O8 1.855016 1_555
Ge2 O35 1.865209 1_545
Ge3 O19 1.746123 1_555
Ge3 O9 1.753754 1_555
Ge3 O20 1.774204 1_565
Ge3 O23 1.872881 1_555
Ge4 O22 1.670571 1_555
Ge4 O3 1.742746 1_554
Ge4 O33 1.766812 1_554
Ge4 O26 1.829892 1_555
Ge5 O2 1.690977 1_555
Ge5 O30 1.757290 1_455
Ge5 O27 1.769704 1_455
Ge5 O26 1.811708 1_555
Ge6 O34 1.689355 1_555
Ge6 O6 1.781802 1_545
Ge6 O33 1.801718 1_555
Ge6 O14 1.829524 1_555
Ge7 O16 1.687036 1_545
Ge7 O7 1.751415 1_555
Ge7 O18 1.757208 1_455
Ge7 O14 1.863136 1_455
Ge8 O10 1.747250 1_565
Ge8 O24 1.785183 1_555
Ge8 O5 1.837362 1_555
Ge8 O30 1.855199 1_555
Ge9 O29 1.728022 1_455
Ge9 O15 1.763116 1_455
Ge9 O11 1.828849 1_555
Ge9 O20 1.840736 1_555
Ge10 O5 1.759169 1_554
Ge10 O0 1.791684 1_555
Ge10 O25 1.812985 1_554
Ge10 O7 1.817266 1_565
Ge11 O17 1.733570 1_455
Ge11 O28 1.741769 1_555
Ge11 O12 1.779222 1_456
Ge11 O15 1.800093 1_455
