# generated using pymatgen
data_Na2MnO2
_symmetry_space_group_name_H-M   'P 1'
_cell_length_a   5.83082206
_cell_length_b   5.59940602
_cell_length_c   8.91894707
_cell_angle_alpha   90.00005054
_cell_angle_beta   89.98592016
_cell_angle_gamma   90.00925330
_symmetry_Int_Tables_number   1
_chemical_formula_structural   Na2MnO2
_chemical_formula_sum   'Na8 Mn4 O8'
_cell_volume   291.19594021
_cell_formula_units_Z   4
loop_
 _symmetry_equiv_pos_site_id
 _symmetry_equiv_pos_as_xyz
  1  'x, y, z'
loop_
 _atom_site_type_symbol
 _atom_site_label
 _atom_site_symmetry_multiplicity
 _atom_site_fract_x
 _atom_site_fract_y
 _atom_site_fract_z
 _atom_site_occupancy
  Na  Na0  1  0.39554800  0.49997600  0.15306900  1
  Na  Na1  1  0.89551700  0.00001100  0.65307000  1
  Na  Na2  1  0.60448800  0.00001100  0.15307600  1
  Na  Na3  1  0.10447100  0.49998600  0.65308600  1
  Na  Na4  1  0.89554300  0.49997300  0.34692600  1
  Na  Na5  1  0.39555700  0.00001400  0.84692000  1
  Na  Na6  1  0.10447700  0.00001600  0.34695500  1
  Na  Na7  1  0.60450100  0.49998500  0.84695400  1
  Mn  Mn0  1  0.50004200  0.74998800  0.49996500  1
  Mn  Mn1  1  0.99996000  0.75025000  0.00003400  1
  Mn  Mn2  1  0.99969800  0.24973400  0.99994100  1
  Mn  Mn3  1  0.49996300  0.25004000  0.49997000  1
  O  O0  1  0.21773100  0.00004400  0.10035900  1
  O  O1  1  0.71767100  0.49994800  0.60033300  1
  O  O2  1  0.71762800  0.99999800  0.39968400  1
  O  O3  1  0.21764500  0.50003900  0.89970200  1
  O  O4  1  0.78243500  0.50002100  0.10030600  1
  O  O5  1  0.28242700  0.99995400  0.60029600  1
  O  O6  1  0.28232800  0.49997600  0.39966300  1
  O  O7  1  0.78237000  0.00003700  0.89969100  1
loop_
_geom_bond_atom_site_label_1
_geom_bond_atom_site_label_2
_geom_bond_distance
_geom_bond_site_symmetry_2
Na0 O6 2.296146 1_555
Na0 O4 2.304318 1_555
Na0 O3 2.486711 1_554
Na1 O7 2.296254 1_555
Na1 O5 2.304469 1_645
Na1 O2 2.486831 1_545
Na2 O2 2.296442 1_545
Na2 O0 2.303718 1_555
Na2 O7 2.486343 1_554
Na3 O3 2.296567 1_555
Na3 O1 2.304029 1_455
Na3 O6 2.486590 1_555
Na4 O4 2.296491 1_555
Na4 O6 2.303914 1_655
Na4 O1 2.486497 1_555
Na5 O5 2.296562 1_545
Na5 O7 2.304136 1_555
Na5 O0 2.486644 1_556
Na6 O0 2.296220 1_555
Na6 O2 2.304039 1_445
Na6 O5 2.486615 1_545
Na7 O1 2.296292 1_555
Na7 O3 2.304113 1_555
Na7 O4 2.486665 1_556
Mn0 O2 2.090019 1_555
Mn0 O5 2.090420 1_555
Mn0 O6 2.090825 1_555
Mn0 O1 2.091157 1_555
Mn1 O7 2.089975 1_564
Mn1 O0 2.090298 1_665
Mn1 O4 2.090590 1_555
Mn1 O3 2.091591 1_654
Mn2 O7 2.088080 1_555
Mn2 O4 2.090510 1_556
Mn2 O0 2.091468 1_656
Mn2 O3 2.092242 1_655
Mn3 O5 2.090298 1_545
Mn3 O6 2.090555 1_555
Mn3 O1 2.090647 1_555
Mn3 O2 2.090711 1_545
