# generated using pymatgen
data_NdSi2
_symmetry_space_group_name_H-M   'P 1'
_cell_length_a   5.46614614
_cell_length_b   5.46614614
_cell_length_c   5.46614614
_cell_angle_alpha   60.00000000
_cell_angle_beta   60.00000000
_cell_angle_gamma   60.00000000
_symmetry_Int_Tables_number   1
_chemical_formula_structural   NdSi2
_chemical_formula_sum   'Nd2 Si4'
_cell_volume   115.48583454
_cell_formula_units_Z   2
loop_
 _symmetry_equiv_pos_site_id
 _symmetry_equiv_pos_as_xyz
  1  'x, y, z'
loop_
 _atom_site_type_symbol
 _atom_site_label
 _atom_site_symmetry_multiplicity
 _atom_site_fract_x
 _atom_site_fract_y
 _atom_site_fract_z
 _atom_site_occupancy
  Nd  Nd0  1  0.00000000  0.00000000  0.00000000  1
  Nd  Nd1  1  0.25000000  0.25000000  0.25000000  1
  Si  Si0  1  0.62500000  0.62500000  0.62500000  1
  Si  Si1  1  0.12500000  0.62500000  0.62500000  1
  Si  Si2  1  0.62500000  0.12500000  0.62500000  1
  Si  Si3  1  0.62500000  0.62500000  0.12500000  1
loop_
_geom_bond_atom_site_label_1
_geom_bond_atom_site_label_2
_geom_bond_distance
_geom_bond_site_symmetry_2
Nd0 Si1 3.204812 1_545
Nd0 Si0 3.204812 1_454
Nd0 Si0 3.204812 1_544
Nd0 Si3 3.204812 1_455
Nd0 Si0 3.204812 1_445
Nd0 Si3 3.204812 1_445
Nd0 Si3 3.204812 1_545
Nd0 Si1 3.204812 1_554
Nd0 Si2 3.204812 1_554
Nd0 Si2 3.204812 1_455
Nd0 Si2 3.204812 1_454
Nd0 Si1 3.204812 1_544
Nd1 Si1 3.204812 1_545
Nd1 Si0 3.204812 1_455
Nd1 Si2 3.204812 1_555
Nd1 Si3 3.204812 1_455
Nd1 Si3 3.204812 1_545
Nd1 Si1 3.204812 1_554
Nd1 Si0 3.204812 1_545
Nd1 Si0 3.204812 1_554
Nd1 Si3 3.204812 1_555
Nd1 Si2 3.204812 1_554
Nd1 Si2 3.204812 1_455
Nd1 Si1 3.204812 1_555
Si0 Si2 2.733073 1_565
Si0 Si2 2.733073 1_555
Si0 Si3 2.733073 1_556
Si0 Si3 2.733073 1_555
Si0 Si1 2.733073 1_555
Si0 Si1 2.733073 1_655
Si1 Si2 2.733073 1_555
Si1 Si3 2.733073 1_555
Si1 Si3 2.733073 1_456
Si1 Si2 2.733073 1_465
Si2 Si3 2.733073 1_555
Si2 Si3 2.733073 1_546
