# generated using pymatgen
data_Li4Nb3TeO12
_symmetry_space_group_name_H-M   'P 1'
_cell_length_a   5.23750200
_cell_length_b   5.59024746
_cell_length_c   7.67119572
_cell_angle_alpha   84.81913364
_cell_angle_beta   89.93667823
_cell_angle_gamma   89.93621898
_symmetry_Int_Tables_number   1
_chemical_formula_structural   Li4Nb3TeO12
_chemical_formula_sum   'Li4 Nb3 Te1 O12'
_cell_volume   223.68657068
_cell_formula_units_Z   1
loop_
 _symmetry_equiv_pos_site_id
 _symmetry_equiv_pos_as_xyz
  1  'x, y, z'
loop_
 _atom_site_type_symbol
 _atom_site_label
 _atom_site_symmetry_multiplicity
 _atom_site_fract_x
 _atom_site_fract_y
 _atom_site_fract_z
 _atom_site_occupancy
  Li  Li0  1  0.49863400  0.00644700  0.74889100  1
  Li  Li1  1  0.50068900  0.00054500  0.25205200  1
  Li  Li2  1  0.99780600  0.49730200  0.74776800  1
  Li  Li3  1  0.00139500  0.50274400  0.25570500  1
  Nb  Nb0  1  0.49805400  0.42665800  0.97342400  1
  Nb  Nb1  1  0.49921400  0.44256800  0.47174400  1
  Nb  Nb2  1  0.00209300  0.94337600  0.46340600  1
  Te  Te0  1  0.00211200  0.92684600  0.96388600  1
  O  O0  1  0.19444400  0.22440300  0.88255800  1
  O  O1  1  0.31847100  0.09406300  0.51180600  1
  O  O2  1  0.37327800  0.40063800  0.20703900  1
  O  O3  1  0.69411900  0.71804400  0.38716700  1
  O  O4  1  0.17952100  0.59296300  0.51193000  1
  O  O5  1  0.13209400  0.89785400  0.20900700  1
  O  O6  1  0.82262100  0.58772200  0.01493500  1
  O  O7  1  0.31408500  0.72341800  0.88691000  1
  O  O8  1  0.86940300  0.89997600  0.70381800  1
  O  O9  1  0.67294100  0.09163900  0.01453500  1
  O  O10  1  0.62480100  0.39918500  0.70536000  1
  O  O11  1  0.80422500  0.21881200  0.38566000  1
loop_
_geom_bond_atom_site_label_1
_geom_bond_atom_site_label_2
_geom_bond_distance
_geom_bond_site_symmetry_2
Li0 O7 2.063306 1_545
Li0 O8 2.068312 1_545
Li0 O1 2.068800 1_555
Li0 O10 2.288828 1_555
Li0 O0 2.300425 1_555
Li0 O9 2.322340 1_556
Li1 O5 2.050268 1_545
Li1 O9 2.054965 1_555
Li1 O3 2.073123 1_545
Li1 O11 2.302269 1_555
Li1 O1 2.310302 1_555
Li1 O2 2.329102 1_555
Li2 O0 2.042346 1_655
Li2 O10 2.063809 1_555
Li2 O4 2.070611 1_655
Li2 O6 2.340872 1_556
Li2 O8 2.343762 1_555
Li2 O7 2.394450 1_655
Li3 O2 2.072020 1_555
Li3 O11 2.072491 1_455
Li3 O6 2.087616 1_455
Li3 O4 2.274261 1_555
Li3 O3 2.294986 1_455
Li3 O5 2.309865 1_555
Nb0 O2 1.900113 1_556
Nb0 O6 1.964234 1_556
Nb0 O7 1.979906 1_555
Nb0 O9 2.082339 1_556
Nb0 O0 2.107523 1_555
Nb0 O10 2.178698 1_555
Nb1 O10 1.904442 1_555
Nb1 O4 1.909976 1_555
Nb1 O3 1.912103 1_555
Nb1 O1 2.163679 1_555
Nb1 O11 2.166819 1_555
Nb1 O2 2.168552 1_555
Nb2 O11 1.905912 1_465
Nb2 O1 1.911585 1_565
Nb2 O8 1.964643 1_455
Nb2 O5 2.103153 1_555
Nb2 O3 2.161079 1_455
Nb2 O4 2.168966 1_555
O0 Te0 1.996456 1_545
O5 Te0 1.993256 1_554
O6 Te0 2.121367 1_654
O7 Te0 2.103989 1_555
O8 Te0 2.131490 1_655
O9 Te0 2.007873 1_644
