# generated using pymatgen
data_Dy2TeO6
_symmetry_space_group_name_H-M   'P 1'
_cell_length_a   4.99913600
_cell_length_b   4.99913600
_cell_length_c   10.10404800
_cell_angle_alpha   90.00000000
_cell_angle_beta   90.00000000
_cell_angle_gamma   90.00000000
_symmetry_Int_Tables_number   1
_chemical_formula_structural   Dy2TeO6
_chemical_formula_sum   'Dy4 Te2 O12'
_cell_volume   252.51390857
_cell_formula_units_Z   2
loop_
 _symmetry_equiv_pos_site_id
 _symmetry_equiv_pos_as_xyz
  1  'x, y, z'
loop_
 _atom_site_type_symbol
 _atom_site_label
 _atom_site_symmetry_multiplicity
 _atom_site_fract_x
 _atom_site_fract_y
 _atom_site_fract_z
 _atom_site_occupancy
  Dy  Dy0  1  0.50000000  0.50000000  0.33456900  1
  Dy  Dy1  1  0.50000000  0.50000000  0.66543100  1
  Dy  Dy2  1  0.00000000  0.00000000  0.16543100  1
  Dy  Dy3  1  0.00000000  0.00000000  0.83456900  1
  Te  Te0  1  0.50000000  0.50000000  0.00000000  1
  Te  Te1  1  0.00000000  0.00000000  0.50000000  1
  O  O0  1  0.68300100  0.68300100  0.14572100  1
  O  O1  1  0.68300100  0.68300100  0.85427900  1
  O  O2  1  0.72223900  0.72223900  0.50000000  1
  O  O3  1  0.77776100  0.22223900  0.00000000  1
  O  O4  1  0.81699900  0.18300100  0.35427900  1
  O  O5  1  0.81699900  0.18300100  0.64572100  1
  O  O6  1  0.18300100  0.81699900  0.35427900  1
  O  O7  1  0.18300100  0.81699900  0.64572100  1
  O  O8  1  0.22223900  0.77776100  0.00000000  1
  O  O9  1  0.27776100  0.27776100  0.50000000  1
  O  O10  1  0.31699900  0.31699900  0.14572100  1
  O  O11  1  0.31699900  0.31699900  0.85427900  1
loop_
_geom_bond_atom_site_label_1
_geom_bond_atom_site_label_2
_geom_bond_distance
_geom_bond_site_symmetry_2
Dy0 O6 2.249965 1_555
Dy0 O4 2.249965 1_555
Dy0 O9 2.294045 1_555
Dy0 O2 2.294045 1_555
Dy0 O10 2.305395 1_555
Dy0 O0 2.305395 1_555
Dy1 O7 2.249965 1_555
Dy1 O5 2.249965 1_555
Dy1 O9 2.294045 1_555
Dy1 O2 2.294045 1_555
Dy1 O11 2.305395 1_555
Dy1 O1 2.305395 1_555
Dy2 O10 2.249965 1_555
Dy2 O0 2.249965 1_445
Dy2 O8 2.294045 1_545
Dy2 O3 2.294045 1_455
Dy2 O4 2.305395 1_455
Dy2 O6 2.305395 1_545
Dy3 O1 2.249965 1_445
Dy3 O11 2.249965 1_555
Dy3 O3 2.294045 1_456
Dy3 O8 2.294045 1_546
Dy3 O7 2.305395 1_545
Dy3 O5 2.305395 1_455
O0 Te0 1.960043 1_555
O1 Te0 1.960043 1_556
O2 Te1 1.963727 1_665
O3 Te0 1.963727 1_555
O4 Te1 1.960043 1_655
O5 Te1 1.960043 1_655
O6 Te1 1.960043 1_565
O7 Te1 1.960043 1_565
O8 Te0 1.963727 1_555
O9 Te1 1.963727 1_555
O10 Te0 1.960043 1_555
O11 Te0 1.960043 1_556
