# generated using pymatgen
data_Li5CuF8
_symmetry_space_group_name_H-M   'P 1'
_cell_length_a   5.67987118
_cell_length_b   5.81165519
_cell_length_c   5.68523577
_cell_angle_alpha   119.25746041
_cell_angle_beta   119.96886650
_cell_angle_gamma   89.99718959
_symmetry_Int_Tables_number   1
_chemical_formula_structural   Li5CuF8
_chemical_formula_sum   'Li5 Cu1 F8'
_cell_volume   134.23504843
_cell_formula_units_Z   1
loop_
 _symmetry_equiv_pos_site_id
 _symmetry_equiv_pos_as_xyz
  1  'x, y, z'
loop_
 _atom_site_type_symbol
 _atom_site_label
 _atom_site_symmetry_multiplicity
 _atom_site_fract_x
 _atom_site_fract_y
 _atom_site_fract_z
 _atom_site_occupancy
  Li  Li0  1  0.14060736  0.42181096  0.28121968  1
  Li  Li1  1  0.50000000  -0.00000000  -0.00000000  1
  Li  Li2  1  -0.00000000  -0.00000000  0.50000000  1
  Li  Li3  1  0.85939264  0.57818904  0.71878032  1
  Li  Li4  1  0.50000000  -0.00000000  0.50000000  1
  Cu  Cu0  1  0.50000000  0.50000000  -0.00000000  1
  F  F0  1  0.26673599  0.26660197  0.99927941  1
  F  F1  1  0.26597205  0.79751783  0.53194120  1
  F  F2  1  0.73258273  0.26660479  0.99929385  1
  F  F3  1  0.73269527  0.73305248  0.46540943  1
  F  F4  1  0.26730473  0.26694852  0.53459057  1
  F  F5  1  0.26741727  0.73339621  0.00070615  1
  F  F6  1  0.73402795  0.20248217  0.46805880  1
  F  F7  1  0.73326401  0.73339903  0.00072059  1
loop_
_geom_bond_atom_site_label_1
_geom_bond_atom_site_label_2
_geom_bond_distance
_geom_bond_site_symmetry_2
Cu0 F0 1.893310 1_554
Cu0 F7 1.893314 1_555
Cu0 F2 1.893361 1_554
Cu0 F5 1.893366 1_555
Cu0 F4 1.893610 1_554
Cu0 F3 1.893610 1_555
F0 Li0 1.905264 1_556
F0 Li1 2.038779 1_556
F0 Li2 2.039136 1_555
F1 Li0 1.802860 1_555
F1 Li2 1.906446 1_565
F1 Li4 1.906520 1_565
F1 Li1 1.907407 1_566
F2 Li0 1.905130 1_656
F2 Li1 2.038978 1_556
F2 Li4 2.039177 1_555
F3 Li3 1.906409 1_555
F3 Li4 2.038044 1_565
F3 Li2 2.038225 1_665
F4 Li0 1.906404 1_555
F4 Li4 2.038048 1_555
F4 Li2 2.038229 1_555
F5 Li3 1.905131 1_454
F5 Li1 2.038973 1_565
F5 Li4 2.039176 1_565
F6 Li3 1.802860 1_555
F6 Li2 1.906446 1_655
F6 Li4 1.906520 1_555
F6 Li1 1.907407 1_555
F7 Li3 1.905265 1_554
F7 Li1 2.038774 1_565
F7 Li2 2.039135 1_665
