# generated using pymatgen
data_Li2VSO4F3
_symmetry_space_group_name_H-M   'P 1'
_cell_length_a   10.04175300
_cell_length_b   7.09079400
_cell_length_c   7.88716502
_cell_angle_alpha   89.11210550
_cell_angle_beta   90.00000000
_cell_angle_gamma   90.00000000
_symmetry_Int_Tables_number   1
_chemical_formula_structural   Li2VSO4F3
_chemical_formula_sum   'Li8 V4 S4 O16 F12'
_cell_volume   561.53028163
_cell_formula_units_Z   4
loop_
 _symmetry_equiv_pos_site_id
 _symmetry_equiv_pos_as_xyz
  1  'x, y, z'
loop_
 _atom_site_type_symbol
 _atom_site_label
 _atom_site_symmetry_multiplicity
 _atom_site_fract_x
 _atom_site_fract_y
 _atom_site_fract_z
 _atom_site_occupancy
  Li  Li0  1  0.27675200  0.24043000  0.89322500  1
  Li  Li1  1  0.22324800  0.24043000  0.39322500  1
  Li  Li2  1  0.72376500  0.26682000  0.88498200  1
  Li  Li3  1  0.77623500  0.26682000  0.38498200  1
  Li  Li4  1  0.22376500  0.73318000  0.61501800  1
  Li  Li5  1  0.27623500  0.73318000  0.11501800  1
  Li  Li6  1  0.77675200  0.75957000  0.60677500  1
  Li  Li7  1  0.72324800  0.75957000  0.10677500  1
  V  V0  1  0.50000000  0.00000000  0.50000000  1
  V  V1  1  0.00000000  0.00000000  0.00000000  1
  V  V2  1  0.50000000  0.50000000  0.50000000  1
  V  V3  1  0.00000000  0.50000000  0.00000000  1
  S  S0  1  0.99898500  0.25391100  0.66637000  1
  S  S1  1  0.50101500  0.25391100  0.16637000  1
  S  S2  1  0.49898500  0.74608900  0.83363000  1
  S  S3  1  0.00101500  0.74608900  0.33363000  1
  O  O0  1  0.07469400  0.11576700  0.78196500  1
  O  O1  1  0.42530600  0.11576700  0.28196500  1
  O  O2  1  0.90184900  0.15757200  0.56109000  1
  O  O3  1  0.59815100  0.15757200  0.06109000  1
  O  O4  1  0.10097200  0.35560600  0.56768000  1
  O  O5  1  0.39902800  0.35560600  0.06768000  1
  O  O6  1  0.92136000  0.38312100  0.78276100  1
  O  O7  1  0.57864000  0.38312100  0.28276100  1
  O  O8  1  0.42136000  0.61687900  0.71723900  1
  O  O9  1  0.07864000  0.61687900  0.21723900  1
  O  O10  1  0.60097200  0.64439400  0.93232000  1
  O  O11  1  0.89902800  0.64439400  0.43232000  1
  O  O12  1  0.40184900  0.84242800  0.93891000  1
  O  O13  1  0.09815100  0.84242800  0.43891000  1
  O  O14  1  0.57469400  0.88423300  0.71803500  1
  O  O15  1  0.92530600  0.88423300  0.21803500  1
  F  F0  1  0.81908600  0.02766100  0.92197700  1
  F  F1  1  0.68091400  0.02766100  0.42197700  1
  F  F2  1  0.49730400  0.25122500  0.61679700  1
  F  F3  1  0.00269600  0.25122500  0.11679800  1
  F  F4  1  0.17935000  0.47360600  0.91802400  1
  F  F5  1  0.32065000  0.47360600  0.41802400  1
  F  F6  1  0.67935000  0.52639400  0.58197600  1
  F  F7  1  0.82065000  0.52639400  0.08197600  1
  F  F8  1  0.99730400  0.74877500  0.88320300  1
  F  F9  1  0.50269600  0.74877500  0.38320300  1
  F  F10  1  0.31908600  0.97233900  0.57802300  1
  F  F11  1  0.18091400  0.97233900  0.07802300  1
loop_
_geom_bond_atom_site_label_1
_geom_bond_atom_site_label_2
_geom_bond_distance
_geom_bond_site_symmetry_2
Li0 O5 2.025516 1_556
Li0 O0 2.385872 1_555
Li1 O4 2.025516 1_555
Li1 O1 2.385872 1_555
Li2 O3 2.021667 1_556
Li2 O6 2.290531 1_555
Li3 O2 2.021667 1_555
Li3 O7 2.290531 1_555
Li4 O13 2.021667 1_555
Li4 O8 2.290531 1_555
Li5 O12 2.021667 1_554
Li5 O9 2.290531 1_555
Li6 O11 2.025516 1_555
Li6 O14 2.385872 1_555
Li7 O10 2.025516 1_554
Li7 O15 2.385872 1_555
O0 S0 1.530049 1_455
O0 V1 2.037149 1_556
O1 S1 1.530049 1_555
O1 V0 2.037149 1_555
O2 S0 1.457795 1_555
O3 S1 1.457795 1_555
O4 S0 1.468778 1_455
O5 S1 1.468778 1_555
O6 S0 1.521780 1_555
O6 V3 2.071280 1_656
O7 S1 1.521780 1_555
O7 V2 2.071280 1_555
O8 S2 1.521780 1_555
O8 V2 2.071280 1_555
O9 S3 1.521780 1_555
O9 V3 2.071280 1_555
O10 S2 1.468778 1_555
O11 S3 1.468778 1_655
O12 S2 1.457795 1_555
O13 S3 1.457795 1_555
O14 S2 1.530049 1_555
O14 V0 2.037149 1_565
O15 S3 1.530049 1_655
O15 V1 2.037149 1_665
F0 V1 1.927122 1_656
F0 Li2 1.965158 1_555
F0 Li7 2.564844 1_546
F1 V0 1.927122 1_555
F1 Li3 1.965158 1_555
F1 Li6 2.564844 1_545
F2 V2 1.977553 1_555
F2 V0 2.018298 1_555
F3 V3 1.977556 1_555
F3 V1 2.018302 1_555
F4 V3 1.923636 1_556
F4 Li0 1.933565 1_555
F5 V2 1.923636 1_555
F5 Li1 1.933565 1_555
F6 V2 1.923636 1_555
F6 Li6 1.933565 1_555
F7 V3 1.923636 1_655
F7 Li7 1.933565 1_555
F8 V3 1.977553 1_656
F8 V1 2.018298 1_666
F9 V2 1.977553 1_555
F9 V0 2.018298 1_565
F10 V0 1.927122 1_565
F10 Li4 1.965158 1_555
F10 Li1 2.564844 1_565
F11 V1 1.927122 1_565
F11 Li5 1.965158 1_555
F11 Li0 2.564844 1_564
