# generated using pymatgen
data_Mg16Si8HO32
_symmetry_space_group_name_H-M   'P 1'
_cell_length_a   11.65746300
_cell_length_b   5.77818700
_cell_length_c   8.40443447
_cell_angle_alpha   89.81784753
_cell_angle_beta   90.00000000
_cell_angle_gamma   90.00000000
_symmetry_Int_Tables_number   1
_chemical_formula_structural   Mg16Si8HO32
_chemical_formula_sum   'Mg16 Si8 H1 O32'
_cell_volume   566.11145047
_cell_formula_units_Z   1
loop_
 _symmetry_equiv_pos_site_id
 _symmetry_equiv_pos_as_xyz
  1  'x, y, z'
loop_
 _atom_site_type_symbol
 _atom_site_label
 _atom_site_symmetry_multiplicity
 _atom_site_fract_x
 _atom_site_fract_y
 _atom_site_fract_z
 _atom_site_occupancy
  Mg  Mg0  1  0.50000000  0.74993900  0.78283300  1
  Mg  Mg1  1  0.50000000  0.25025700  0.21725800  1
  Mg  Mg2  1  0.25175600  0.24835200  0.24911100  1
  Mg  Mg3  1  0.74824400  0.24835200  0.24911100  1
  Mg  Mg4  1  0.87729500  0.00062900  0.99933700  1
  Mg  Mg5  1  0.12286600  0.49940900  0.99891800  1
  Mg  Mg6  1  0.12270500  0.00062900  0.99933700  1
  Mg  Mg7  1  0.87713400  0.49940900  0.99891800  1
  Mg  Mg8  1  0.00000000  0.24367800  0.27479400  1
  Mg  Mg9  1  0.00000000  0.75856000  0.72845700  1
  Mg  Mg10  1  0.74860000  0.75193100  0.75113800  1
  Mg  Mg11  1  0.25140000  0.75193100  0.75113800  1
  Mg  Mg12  1  0.37947900  0.49952300  0.50074300  1
  Mg  Mg13  1  0.62067800  0.00042300  0.50063400  1
  Mg  Mg14  1  0.62052100  0.49952300  0.50074300  1
  Mg  Mg15  1  0.37932200  0.00042300  0.50063400  1
  Si  Si0  1  0.63007900  0.74986400  0.13339400  1
  Si  Si1  1  0.36992100  0.74986400  0.13339400  1
  Si  Si2  1  0.36978200  0.25013700  0.86670000  1
  Si  Si3  1  0.63021800  0.25013700  0.86670000  1
  Si  Si4  1  0.13397600  0.25445200  0.63455100  1
  Si  Si5  1  0.86602400  0.25445200  0.63455100  1
  Si  Si6  1  0.85984100  0.74590300  0.36077100  1
  Si  Si7  1  0.14015900  0.74590300  0.36077100  1
  H  H0  1  0.00000000  0.53340000  0.49305200  1
  O  O0  1  0.50000000  0.75035700  0.03513100  1
  O  O1  1  0.50000000  0.24965800  0.96507300  1
  O  O2  1  0.50000000  0.75004900  0.53747400  1
  O  O3  1  0.50000000  0.24989200  0.46291800  1
  O  O4  1  0.74029100  0.75116100  0.00698400  1
  O  O5  1  0.25970900  0.75116100  0.00698400  1
  O  O6  1  0.25987500  0.24898400  0.99354200  1
  O  O7  1  0.74012500  0.24898400  0.99354200  1
  O  O8  1  0.87454000  0.98717700  0.26059500  1
  O  O9  1  0.12855400  0.50700300  0.25546000  1
  O  O10  1  0.12795500  0.49333900  0.74289300  1
  O  O11  1  0.87399700  0.01363100  0.73958800  1
  O  O12  1  0.12600300  0.01363100  0.73958800  1
  O  O13  1  0.87204500  0.49333900  0.74289300  1
  O  O14  1  0.87144600  0.50700300  0.25546000  1
  O  O15  1  0.12546000  0.98717700  0.26059500  1
  O  O16  1  0.00000000  0.27430500  0.53203000  1
  O  O17  1  0.00000000  0.71383600  0.46852700  1
  O  O18  1  0.00000000  0.24913600  0.03250100  1
  O  O19  1  0.00000000  0.75109400  0.96765100  1
  O  O20  1  0.24119800  0.25167000  0.50513900  1
  O  O21  1  0.75880200  0.25167000  0.50513900  1
  O  O22  1  0.75691400  0.74866700  0.49480200  1
  O  O23  1  0.24308600  0.74866700  0.49480200  1
  O  O24  1  0.37238600  0.48895100  0.75813000  1
  O  O25  1  0.62764000  0.01253400  0.75741800  1
  O  O26  1  0.62774900  0.98738200  0.24294600  1
  O  O27  1  0.37246600  0.51131600  0.24237900  1
  O  O28  1  0.62753400  0.51131600  0.24237900  1
  O  O29  1  0.37225100  0.98738200  0.24294600  1
  O  O30  1  0.37236000  0.01253400  0.75741800  1
  O  O31  1  0.62761400  0.48895100  0.75813000  1
loop_
_geom_bond_atom_site_label_1
_geom_bond_atom_site_label_2
_geom_bond_distance
_geom_bond_site_symmetry_2
Mg0 O2 2.062102 1_555
Mg0 O0 2.120431 1_556
Mg0 O24 2.128941 1_555
Mg0 O31 2.128941 1_555
Mg0 O30 2.135381 1_565
Mg0 O25 2.135381 1_565
Mg1 O3 2.064628 1_555
Mg1 O1 2.119486 1_554
Mg1 O28 2.128934 1_555
Mg1 O27 2.128934 1_555
Mg1 O26 2.137641 1_545
Mg1 O29 2.137641 1_545
Mg2 O29 2.061585 1_545
Mg2 O27 2.071601 1_555
Mg2 O9 2.073577 1_555
Mg2 O15 2.110324 1_545
Mg2 O6 2.149989 1_554
Mg2 O20 2.155434 1_555
Mg3 O26 2.061585 1_545
Mg3 O28 2.071601 1_555
Mg3 O14 2.073577 1_555
Mg3 O8 2.110324 1_545
Mg3 O7 2.149989 1_554
Mg3 O21 2.155434 1_555
Mg4 O18 2.046515 1_656
Mg4 O19 2.049011 1_645
Mg4 O7 2.149011 1_555
Mg4 O4 2.152249 1_546
Mg4 O11 2.184435 1_555
Mg4 O8 2.197089 1_546
Mg5 O18 2.054226 1_556
Mg5 O19 2.057441 1_555
Mg5 O10 2.152960 1_555
Mg5 O6 2.155748 1_555
Mg5 O9 2.157695 1_556
Mg5 O5 2.160112 1_556
Mg6 O18 2.046515 1_556
Mg6 O19 2.049011 1_545
Mg6 O6 2.149011 1_555
Mg6 O5 2.152249 1_546
Mg6 O12 2.184435 1_555
Mg6 O15 2.197089 1_546
Mg7 O18 2.054226 1_656
Mg7 O19 2.057441 1_655
Mg7 O13 2.152960 1_555
Mg7 O7 2.155748 1_555
Mg7 O14 2.157695 1_556
Mg7 O4 2.160112 1_556
Mg8 O18 2.036480 1_555
Mg8 O8 2.085919 1_445
Mg8 O15 2.085919 1_545
Mg8 O9 2.141439 1_555
Mg8 O14 2.141439 1_455
Mg8 O16 2.169715 1_555
Mg9 O19 2.010616 1_555
Mg9 O12 2.083135 1_565
Mg9 O11 2.083135 1_465
Mg9 O10 2.141739 1_555
Mg9 O13 2.141739 1_455
Mg9 O17 2.200612 1_555
Mg10 O25 2.063761 1_565
Mg10 O31 2.073912 1_555
Mg10 O13 2.075802 1_555
Mg10 O11 2.105228 1_565
Mg10 O4 2.152412 1_556
Mg10 O22 2.156680 1_555
Mg11 O30 2.063761 1_565
Mg11 O24 2.073912 1_555
Mg11 O10 2.075802 1_555
Mg11 O12 2.105228 1_565
Mg11 O5 2.152412 1_556
Mg11 O23 2.156680 1_555
Mg12 O3 2.039233 1_555
Mg12 O2 2.041466 1_555
Mg12 O23 2.145361 1_555
Mg12 O20 2.156529 1_555
Mg12 O24 2.165440 1_555
Mg12 O27 2.173794 1_555
Mg13 O3 2.038263 1_555
Mg13 O2 2.040849 1_545
Mg13 O22 2.154358 1_545
Mg13 O25 2.161005 1_555
Mg13 O21 2.168417 1_555
Mg13 O26 2.168839 1_545
Mg14 O3 2.039233 1_555
Mg14 O2 2.041466 1_555
Mg14 O22 2.145361 1_555
Mg14 O21 2.156529 1_555
Mg14 O31 2.165440 1_555
Mg14 O28 2.173794 1_555
Mg15 O3 2.038263 1_555
Mg15 O2 2.040849 1_545
Mg15 O23 2.154358 1_545
Mg15 O30 2.161005 1_555
Mg15 O20 2.168417 1_555
Mg15 O29 2.168839 1_545
H0 O17 1.062129 1_555
H0 O16 1.531503 1_555
O0 Si0 1.726689 1_555
O0 Si1 1.726689 1_555
O1 Si3 1.728554 1_555
O1 Si2 1.728554 1_555
O4 Si0 1.667153 1_555
O5 Si1 1.667153 1_555
O6 Si2 1.666733 1_555
O7 Si3 1.666733 1_555
O8 Si6 1.635335 1_555
O9 Si7 1.647715 1_555
O10 Si4 1.657512 1_555
O11 Si5 1.648156 1_555
O12 Si4 1.648156 1_555
O13 Si5 1.657512 1_555
O14 Si6 1.647715 1_555
O15 Si7 1.635335 1_555
O16 Si4 1.787239 1_555
O16 Si5 1.787239 1_455
O17 Si7 1.876979 1_555
O17 Si6 1.876979 1_455
O20 Si4 1.657003 1_555
O21 Si5 1.657003 1_555
O22 Si6 1.645890 1_555
O23 Si7 1.645890 1_555
O24 Si2 1.652172 1_555
O25 Si3 1.654500 1_555
O26 Si0 1.655309 1_555
O27 Si1 1.652800 1_555
O28 Si0 1.652800 1_555
O29 Si1 1.655309 1_555
O30 Si2 1.654500 1_555
O31 Si3 1.652172 1_555
