# generated using pymatgen
data_LiV2(PO4)3
_symmetry_space_group_name_H-M   'P 1'
_cell_length_a   9.52581837
_cell_length_b   9.52581837
_cell_length_c   8.01009830
_cell_angle_alpha   74.41193553
_cell_angle_beta   74.41193553
_cell_angle_gamma   37.54168407
_symmetry_Int_Tables_number   1
_chemical_formula_structural   LiV2(PO4)3
_chemical_formula_sum   'Li2 V4 P6 O24'
_cell_volume   424.68306366
_cell_formula_units_Z   2
loop_
 _symmetry_equiv_pos_site_id
 _symmetry_equiv_pos_as_xyz
  1  'x, y, z'
loop_
 _atom_site_type_symbol
 _atom_site_label
 _atom_site_symmetry_multiplicity
 _atom_site_fract_x
 _atom_site_fract_y
 _atom_site_fract_z
 _atom_site_occupancy
  Li  Li0  1  0.50000000  0.50000000  0.00000000  1
  Li  Li1  1  0.50000000  0.50000000  0.50000000  1
  V  V0  1  0.70249500  0.02927300  0.09405200  1
  V  V1  1  0.02927300  0.70249500  0.59405200  1
  V  V2  1  0.97072700  0.29750500  0.40594800  1
  V  V3  1  0.29750500  0.97072700  0.90594800  1
  P  P0  1  0.14559300  0.50147300  0.22410700  1
  P  P1  1  0.50147300  0.14559300  0.72410700  1
  P  P2  1  0.49852700  0.85440700  0.27589300  1
  P  P3  1  0.85440700  0.49852700  0.77589300  1
  P  P4  1  0.94968500  0.05031500  0.75000000  1
  P  P5  1  0.05031500  0.94968500  0.25000000  1
  O  O0  1  0.77153600  0.17205800  0.90871900  1
  O  O1  1  0.03795800  0.82899600  0.73602400  1
  O  O2  1  0.17205800  0.77153600  0.40871900  1
  O  O3  1  0.40100700  0.34907900  0.16398300  1
  O  O4  1  0.82899600  0.03795800  0.23602400  1
  O  O5  1  0.07459300  0.58115500  0.40800900  1
  O  O6  1  0.00887200  0.71006700  0.08354100  1
  O  O7  1  0.34907900  0.40100700  0.66398300  1
  O  O8  1  0.58115500  0.07459300  0.90800900  1
  O  O9  1  0.71006700  0.00887200  0.58354100  1
  O  O10  1  0.61721600  0.90741500  0.25630600  1
  O  O11  1  0.09258500  0.38278400  0.24369400  1
  O  O12  1  0.90741500  0.61721600  0.75630600  1
  O  O13  1  0.38278400  0.09258500  0.74369400  1
  O  O14  1  0.28993300  0.99112800  0.41645900  1
  O  O15  1  0.41884500  0.92540700  0.09199100  1
  O  O16  1  0.65092100  0.59899300  0.33601700  1
  O  O17  1  0.99112800  0.28993300  0.91645900  1
  O  O18  1  0.92540700  0.41884500  0.59199100  1
  O  O19  1  0.17100400  0.96204200  0.76397600  1
  O  O20  1  0.59899300  0.65092100  0.83601700  1
  O  O21  1  0.82794200  0.22846400  0.59128100  1
  O  O22  1  0.96204200  0.17100400  0.26397600  1
  O  O23  1  0.22846400  0.82794200  0.09128100  1
loop_
_geom_bond_atom_site_label_1
_geom_bond_atom_site_label_2
_geom_bond_distance
_geom_bond_site_symmetry_2
Li0 O23 2.093123 1_555
Li0 O0 2.093123 1_554
Li0 O20 2.269512 1_554
Li0 O3 2.269512 1_555
Li1 O21 2.093123 1_555
Li1 O2 2.093123 1_555
Li1 O16 2.269512 1_555
Li1 O7 2.269512 1_555
O0 P4 1.533960 1_555
O0 V0 2.072444 1_556
O1 P4 1.558608 1_465
O1 V1 1.922843 1_555
O2 P5 1.533960 1_555
O2 V1 2.072444 1_555
O3 P0 1.550436 1_555
O3 V0 2.005102 1_555
O4 P5 1.558608 1_645
O4 V0 1.922843 1_555
O5 P0 1.566807 1_555
O5 V1 1.879311 1_555
O6 P0 1.547270 1_555
O6 V0 1.924341 1_465
O7 P1 1.550436 1_555
O7 V1 2.005102 1_555
O8 P1 1.566807 1_555
O8 V0 1.879311 1_556
O9 P1 1.547270 1_555
O9 V1 1.924341 1_645
O10 P2 1.524890 1_555
O10 V0 1.952862 1_565
O11 P0 1.524890 1_555
O11 V2 1.952862 1_455
O12 P3 1.524890 1_555
O12 V1 1.952862 1_655
O13 P1 1.524890 1_555
O13 V3 1.952862 1_545
O14 P2 1.547270 1_555
O14 V2 1.924341 1_465
O15 P2 1.566807 1_555
O15 V3 1.879311 1_554
O16 P2 1.550436 1_555
O16 V2 2.005102 1_555
O17 P3 1.547270 1_555
O17 V3 1.924341 1_645
O18 P3 1.566807 1_555
O18 V2 1.879311 1_555
O19 P4 1.558608 1_465
O19 V3 1.922843 1_555
O20 P3 1.550436 1_555
O20 V3 2.005102 1_555
O21 P4 1.533960 1_555
O21 V2 2.072444 1_555
O22 P5 1.558608 1_645
O22 V2 1.922843 1_555
O23 P5 1.533960 1_555
O23 V3 2.072444 1_554
