# generated using pymatgen
data_CrP4O11
_symmetry_space_group_name_H-M   'P 1'
_cell_length_a   9.52559200
_cell_length_b   9.55411119
_cell_length_c   10.86071438
_cell_angle_alpha   110.10449306
_cell_angle_beta   109.10598413
_cell_angle_gamma   89.92052205
_symmetry_Int_Tables_number   1
_chemical_formula_structural   CrP4O11
_chemical_formula_sum   'Cr4 P16 O44'
_cell_volume   870.15680843
_cell_formula_units_Z   4
loop_
 _symmetry_equiv_pos_site_id
 _symmetry_equiv_pos_as_xyz
  1  'x, y, z'
loop_
 _atom_site_type_symbol
 _atom_site_label
 _atom_site_symmetry_multiplicity
 _atom_site_fract_x
 _atom_site_fract_y
 _atom_site_fract_z
 _atom_site_occupancy
  Cr  Cr0  1  0.75534800  0.77774800  0.01523100  1
  Cr  Cr1  1  0.26776800  0.72978300  0.49594800  1
  Cr  Cr2  1  0.73223200  0.27021700  0.50405200  1
  Cr  Cr3  1  0.24465200  0.22225200  0.98476900  1
  P  P0  1  0.93622100  0.58679900  0.22677100  1
  P  P1  1  0.76161500  0.91152600  0.55842500  1
  P  P2  1  0.92623200  0.25056000  0.07380700  1
  P  P3  1  0.40447200  0.77421600  0.08977400  1
  P  P4  1  0.73766400  0.58016200  0.38876700  1
  P  P5  1  0.59486400  0.90414600  0.75554900  1
  P  P6  1  0.91667200  0.11073600  0.28400000  1
  P  P7  1  0.41250900  0.55693000  0.24553100  1
  P  P8  1  0.58749100  0.44307000  0.75446900  1
  P  P9  1  0.08332800  0.88926400  0.71600000  1
  P  P10  1  0.40513600  0.09585400  0.24445100  1
  P  P11  1  0.26233600  0.41983800  0.61123300  1
  P  P12  1  0.59552800  0.22578400  0.91022600  1
  P  P13  1  0.07376800  0.74944000  0.92619300  1
  P  P14  1  0.23838500  0.08847400  0.44157500  1
  P  P15  1  0.06377900  0.41320100  0.77322900  1
  O  O0  1  0.01398900  0.82261700  0.03830900  1
  O  O1  1  0.80176000  0.98111400  0.18676600  1
  O  O2  1  0.93180700  0.95907100  0.65333300  1
  O  O3  1  0.81704400  0.64261600  0.13390000  1
  O  O4  1  0.97312400  0.42577500  0.13597100  1
  O  O5  1  0.52585400  0.76256900  0.03324300  1
  O  O6  1  0.75897100  0.75938300  0.43433000  1
  O  O7  1  0.41986100  0.91802400  0.22402500  1
  O  O8  1  0.86259200  0.53033000  0.32181600  1
  O  O9  1  0.68256800  0.85969500  0.64419100  1
  O  O10  1  0.98006200  0.19766300  0.20219500  1
  O  O11  1  0.74829300  0.22959400  0.03114400  1
  O  O12  1  0.69947900  0.90568100  0.89205300  1
  O  O13  1  0.58627300  0.53000900  0.25697400  1
  O  O14  1  0.36986200  0.63945300  0.13103100  1
  O  O15  1  0.30327400  0.97399800  0.49704500  1
  O  O16  1  0.74663700  0.52349100  0.50061600  1
  O  O17  1  0.88754500  0.22996000  0.40109500  1
  O  O18  1  0.41523800  0.66486300  0.38386600  1
  O  O19  1  0.44607000  0.81136400  0.68629600  1
  O  O20  1  0.91636900  0.32064800  0.68622100  1
  O  O21  1  0.68343200  0.59007600  0.82566700  1
  O  O22  1  0.31656800  0.40992400  0.17433300  1
  O  O23  1  0.08363100  0.67935200  0.31377900  1
  O  O24  1  0.55393000  0.18863600  0.31370400  1
  O  O25  1  0.58476200  0.33513700  0.61613400  1
  O  O26  1  0.11245500  0.77004000  0.59890500  1
  O  O27  1  0.25336300  0.47650900  0.49938400  1
  O  O28  1  0.69672600  0.02600200  0.50295500  1
  O  O29  1  0.63013800  0.36054700  0.86896900  1
  O  O30  1  0.41372700  0.46999100  0.74302600  1
  O  O31  1  0.30052100  0.09431900  0.10794700  1
  O  O32  1  0.25170700  0.77040600  0.96885600  1
  O  O33  1  0.01993800  0.80233700  0.79780500  1
  O  O34  1  0.31743200  0.14030500  0.35580900  1
  O  O35  1  0.13740800  0.46967000  0.67818400  1
  O  O36  1  0.58013900  0.08197600  0.77597500  1
  O  O37  1  0.24102900  0.24061700  0.56567000  1
  O  O38  1  0.47414600  0.23743100  0.96675700  1
  O  O39  1  0.02687600  0.57422500  0.86402900  1
  O  O40  1  0.18295600  0.35738400  0.86610000  1
  O  O41  1  0.06819300  0.04092900  0.34666700  1
  O  O42  1  0.19824000  0.01888600  0.81323400  1
  O  O43  1  0.98601100  0.17738300  0.96169100  1
loop_
_geom_bond_atom_site_label_1
_geom_bond_atom_site_label_2
_geom_bond_distance
_geom_bond_site_symmetry_2
Cr0 O12 2.055035 1_554
Cr0 O3 2.078290 1_555
Cr0 O1 2.101455 1_555
Cr0 O21 2.113120 1_554
Cr0 O5 2.266830 1_555
Cr0 O0 2.416872 1_655
Cr1 O23 2.073247 1_555
Cr1 O19 2.088868 1_555
Cr1 O26 2.091114 1_555
Cr1 O18 2.106593 1_555
Cr1 O15 2.353521 1_555
Cr1 O27 2.437631 1_555
Cr2 O20 2.073247 1_555
Cr2 O24 2.088868 1_555
Cr2 O17 2.091114 1_555
Cr2 O25 2.106593 1_555
Cr2 O28 2.353521 1_555
Cr2 O16 2.437631 1_555
Cr3 O31 2.055035 1_556
Cr3 O40 2.078290 1_555
Cr3 O42 2.101455 1_555
Cr3 O22 2.113120 1_556
Cr3 O38 2.266830 1_555
Cr3 O43 2.416872 1_455
O0 P13 1.470814 1_554
O1 P6 1.481560 1_565
O2 P1 1.575840 1_555
O2 P9 1.630200 1_655
O3 P0 1.486279 1_555
O4 P2 1.576505 1_555
O4 P0 1.626443 1_555
O5 P3 1.464108 1_555
O6 P1 1.600340 1_555
O6 P4 1.603352 1_555
O7 P3 1.587016 1_555
O7 P10 1.648063 1_565
O8 P4 1.580639 1_555
O8 P0 1.645109 1_555
O9 P1 1.567522 1_555
O9 P5 1.627382 1_555
O10 P2 1.574272 1_555
O10 P6 1.644253 1_555
O11 P2 1.597111 1_555
O11 P12 1.599929 1_554
O12 P5 1.486312 1_555
O13 P4 1.592851 1_555
O13 P7 1.645428 1_555
O14 P3 1.568988 1_555
O14 P7 1.635700 1_555
O15 P14 1.465790 1_565
O16 P4 1.469751 1_555
O17 P6 1.491989 1_555
O18 P7 1.493563 1_555
O19 P5 1.485816 1_555
O20 P15 1.485577 1_655
O21 P8 1.483276 1_555
O22 P7 1.483276 1_555
O23 P0 1.485577 1_455
O24 P10 1.485816 1_555
O25 P8 1.493563 1_555
O26 P9 1.491989 1_555
O27 P11 1.469751 1_555
O28 P1 1.465790 1_545
O29 P12 1.568988 1_555
O29 P8 1.635700 1_555
O30 P11 1.592851 1_555
O30 P8 1.645428 1_555
O31 P10 1.486312 1_555
O32 P13 1.597111 1_555
O32 P3 1.599929 1_556
O33 P13 1.574272 1_555
O33 P9 1.644253 1_555
O34 P14 1.567522 1_555
O34 P10 1.627382 1_555
O35 P11 1.580639 1_555
O35 P15 1.645109 1_555
O36 P12 1.587016 1_555
O36 P5 1.648063 1_545
O37 P14 1.600340 1_555
O37 P11 1.603352 1_555
O38 P12 1.464108 1_555
O39 P13 1.576505 1_555
O39 P15 1.626443 1_555
O40 P15 1.486279 1_555
O41 P14 1.575840 1_555
O41 P6 1.630200 1_455
O42 P9 1.481560 1_545
O43 P2 1.470814 1_556
