# generated using pymatgen
data_KPO4
_symmetry_space_group_name_H-M   'P 1'
_cell_length_a   14.88993800
_cell_length_b   7.35792400
_cell_length_c   7.72952170
_cell_angle_alpha   88.31137498
_cell_angle_beta   90.00000000
_cell_angle_gamma   90.00000000
_symmetry_Int_Tables_number   1
_chemical_formula_structural   KPO4
_chemical_formula_sum   'K8 P8 O32'
_cell_volume   846.47115978
_cell_formula_units_Z   8
loop_
 _symmetry_equiv_pos_site_id
 _symmetry_equiv_pos_as_xyz
  1  'x, y, z'
loop_
 _atom_site_type_symbol
 _atom_site_label
 _atom_site_symmetry_multiplicity
 _atom_site_fract_x
 _atom_site_fract_y
 _atom_site_fract_z
 _atom_site_occupancy
  K  K0  1  0.61817900  0.36535300  0.77387200  1
  K  K1  1  0.11817900  0.63464700  0.22612800  1
  K  K2  1  0.61235300  0.67055600  0.27589400  1
  K  K3  1  0.11235300  0.32944400  0.72410600  1
  K  K4  1  0.89562300  0.20685400  0.36365300  1
  K  K5  1  0.39562300  0.79314600  0.63634700  1
  K  K6  1  0.87953600  0.90690700  0.86515200  1
  K  K7  1  0.37953600  0.09309300  0.13484800  1
  P  P0  1  0.63291500  0.17886500  0.26855600  1
  P  P1  1  0.13291500  0.82113500  0.73144400  1
  P  P2  1  0.62844800  0.86934000  0.77623500  1
  P  P3  1  0.12844800  0.13066000  0.22376500  1
  P  P4  1  0.87302200  0.40533000  0.86386400  1
  P  P5  1  0.37302200  0.59467000  0.13613600  1
  P  P6  1  0.86629500  0.71405800  0.36430300  1
  P  P7  1  0.36629500  0.28594200  0.63569700  1
  O  O0  1  0.66337600  0.31613000  0.12523900  1
  O  O1  1  0.16337600  0.68387000  0.87476100  1
  O  O2  1  0.71567200  0.08515300  0.35372000  1
  O  O3  1  0.21567200  0.91484700  0.64628000  1
  O  O4  1  0.58873600  0.28810000  0.41352400  1
  O  O5  1  0.08873600  0.71190000  0.58647600  1
  O  O6  1  0.56736900  0.03960600  0.19580900  1
  O  O7  1  0.06736900  0.96039400  0.80419100  1
  O  O8  1  0.54591300  0.97822500  0.83697300  1
  O  O9  1  0.04591300  0.02177500  0.16302700  1
  O  O10  1  0.59333400  0.74727500  0.63371000  1
  O  O11  1  0.09333400  0.25272500  0.36629000  1
  O  O12  1  0.66919200  0.75725800  0.93016200  1
  O  O13  1  0.16919200  0.24274200  0.06983800  1
  O  O14  1  0.70740200  0.99441900  0.72016300  1
  O  O15  1  0.20740200  0.00558100  0.27983700  1
  O  O16  1  0.94672700  0.53161300  0.93472200  1
  O  O17  1  0.44672700  0.46838700  0.06527800  1
  O  O18  1  0.79179300  0.51304700  0.79023400  1
  O  O19  1  0.29179300  0.48695300  0.20976600  1
  O  O20  1  0.84266900  0.27644900  0.01437900  1
  O  O21  1  0.34266900  0.72355100  0.98562100  1
  O  O22  1  0.91312500  0.29490700  0.71667400  1
  O  O23  1  0.41312500  0.70509300  0.28332600  1
  O  O24  1  0.93813100  0.58238600  0.30003900  1
  O  O25  1  0.43813100  0.41761400  0.69996100  1
  O  O26  1  0.90757300  0.82999600  0.50653100  1
  O  O27  1  0.40757300  0.17000400  0.49346900  1
  O  O28  1  0.83217900  0.84120700  0.21502000  1
  O  O29  1  0.33217900  0.15879300  0.78498000  1
  O  O30  1  0.78413800  0.60514700  0.43167400  1
  O  O31  1  0.28413800  0.39485300  0.56832600  1
loop_
_geom_bond_atom_site_label_1
_geom_bond_atom_site_label_2
_geom_bond_distance
_geom_bond_site_symmetry_2
K0 O25 2.765600 1_555
K0 O18 2.808524 1_555
K0 O0 2.811087 1_556
K0 O4 2.892508 1_555
K0 O10 3.004682 1_555
K0 O8 3.070437 1_545
K0 O14 3.074606 1_545
K0 O12 3.249128 1_555
K1 O24 2.765600 1_455
K1 O19 2.808524 1_555
K1 O1 2.811087 1_554
K1 O5 2.892508 1_555
K1 O11 3.004682 1_555
K1 O9 3.070437 1_565
K1 O15 3.074606 1_565
K1 O13 3.249128 1_555
K2 O6 2.847172 1_565
K2 O10 2.853106 1_555
K2 O12 2.857305 1_554
K2 O30 2.861823 1_555
K2 O23 2.978056 1_555
K2 O0 2.985470 1_555
K2 O4 2.999665 1_555
K3 O7 2.847172 1_545
K3 O11 2.853106 1_555
K3 O13 2.857305 1_556
K3 O31 2.861823 1_555
K3 O22 2.978056 1_455
K3 O1 2.985470 1_555
K3 O5 2.999665 1_555
K4 O2 2.826890 1_555
K4 O22 2.835062 1_555
K4 O20 2.844458 1_555
K4 O24 2.863082 1_555
K4 O26 2.959690 1_545
K4 O11 2.963328 1_655
K4 O9 3.064563 1_655
K4 O28 3.103664 1_545
K5 O3 2.826890 1_555
K5 O23 2.835062 1_555
K5 O21 2.844458 1_555
K5 O25 2.863082 1_555
K5 O27 2.959690 1_565
K5 O10 2.963328 1_555
K5 O8 3.064563 1_555
K5 O29 3.103664 1_565
K6 O28 2.822618 1_556
K6 O7 2.861502 1_655
K6 O14 2.863101 1_555
K6 O26 2.875898 1_555
K6 O16 2.971168 1_555
K6 O20 3.034788 1_566
K6 O22 3.086176 1_565
K6 O18 3.246460 1_555
K7 O29 2.822618 1_554
K7 O6 2.861502 1_555
K7 O15 2.863101 1_555
K7 O27 2.875898 1_555
K7 O17 2.971168 1_555
K7 O21 3.034788 1_544
K7 O23 3.086176 1_545
K7 O19 3.246460 1_555
O0 P0 1.544995 1_555
O1 P1 1.544995 1_555
O2 P0 1.549340 1_555
O3 P1 1.549340 1_555
O4 P0 1.545123 1_555
O5 P1 1.545123 1_555
O6 P0 1.533815 1_555
O7 P1 1.533815 1_555
O8 P2 1.547495 1_555
O9 P3 1.547495 1_555
O10 P2 1.533616 1_555
O11 P3 1.533616 1_555
O12 P2 1.551104 1_555
O13 P3 1.551104 1_555
O14 P2 1.547065 1_555
O15 P3 1.547065 1_555
O16 P4 1.548473 1_555
O17 P5 1.548473 1_555
O18 P4 1.545435 1_555
O19 P5 1.545435 1_555
O20 P4 1.546618 1_554
O21 P5 1.546618 1_556
O22 P4 1.538036 1_555
O23 P5 1.538036 1_555
O24 P6 1.535531 1_555
O25 P7 1.535531 1_555
O26 P6 1.539264 1_555
O27 P7 1.539264 1_555
O28 P6 1.549561 1_555
O29 P7 1.549561 1_555
O30 P6 1.544426 1_555
O31 P7 1.544426 1_555
