# generated using pymatgen
data_H12C4N2O9
_symmetry_space_group_name_H-M   'P 1'
_cell_length_a   6.98272100
_cell_length_b   11.32714900
_cell_length_c   12.49471800
_cell_angle_alpha   90.00000000
_cell_angle_beta   90.00000000
_cell_angle_gamma   90.00000000
_symmetry_Int_Tables_number   1
_chemical_formula_structural   H12C4N2O9
_chemical_formula_sum   'H48 C16 N8 O36'
_cell_volume   988.26123870
_cell_formula_units_Z   4
loop_
 _symmetry_equiv_pos_site_id
 _symmetry_equiv_pos_as_xyz
  1  'x, y, z'
loop_
 _atom_site_type_symbol
 _atom_site_label
 _atom_site_symmetry_multiplicity
 _atom_site_fract_x
 _atom_site_fract_y
 _atom_site_fract_z
 _atom_site_occupancy
  H  H0  1  0.30042900  0.28320700  0.49568600  1
  H  H1  1  0.19957100  0.78320700  0.00431400  1
  H  H2  1  0.69957100  0.71679300  0.99568600  1
  H  H3  1  0.80042900  0.21679300  0.50431400  1
  H  H4  1  0.69957100  0.71679300  0.50431400  1
  H  H5  1  0.80042900  0.21679300  0.99568600  1
  H  H6  1  0.30042900  0.28320700  0.00431400  1
  H  H7  1  0.19957100  0.78320700  0.49568600  1
  H  H8  1  0.86138300  0.65856300  0.18697500  1
  H  H9  1  0.63861700  0.15856300  0.31302500  1
  H  H10  1  0.13861700  0.34143700  0.68697500  1
  H  H11  1  0.36138300  0.84143700  0.81302500  1
  H  H12  1  0.13861700  0.34143700  0.81302500  1
  H  H13  1  0.36138300  0.84143700  0.68697500  1
  H  H14  1  0.86138300  0.65856300  0.31302500  1
  H  H15  1  0.63861700  0.15856300  0.18697500  1
  H  H16  1  0.48643400  0.88689100  0.31779600  1
  H  H17  1  0.01356600  0.38689100  0.18220400  1
  H  H18  1  0.51356600  0.11310900  0.81779600  1
  H  H19  1  0.98643400  0.61310900  0.68220400  1
  H  H20  1  0.51356600  0.11310900  0.68220400  1
  H  H21  1  0.98643400  0.61310900  0.81779600  1
  H  H22  1  0.48643400  0.88689100  0.18220400  1
  H  H23  1  0.01356600  0.38689100  0.31779600  1
  H  H24  1  0.61743100  0.78729300  0.25000000  1
  H  H25  1  0.88256900  0.28729300  0.25000000  1
  H  H26  1  0.38256900  0.21270700  0.75000000  1
  H  H27  1  0.11743100  0.71270700  0.75000000  1
  H  H28  1  0.37853500  0.77472100  0.25000000  1
  H  H29  1  0.12146500  0.27472000  0.25000000  1
  H  H30  1  0.62146500  0.22527900  0.75000000  1
  H  H31  1  0.87853500  0.72527900  0.75000000  1
  H  H32  1  0.95444300  0.85378300  0.25000000  1
  H  H33  1  0.54555700  0.35378300  0.25000000  1
  H  H34  1  0.04555700  0.14621700  0.75000000  1
  H  H35  1  0.45444300  0.64621700  0.75000000  1
  H  H36  1  0.87694200  0.99423500  0.25000000  1
  H  H37  1  0.62305800  0.49423500  0.25000000  1
  H  H38  1  0.12305800  0.00576500  0.75000000  1
  H  H39  1  0.37694200  0.50576500  0.75000000  1
  H  H40  1  0.07730700  0.96069300  0.31835300  1
  H  H41  1  0.42269300  0.46069300  0.18164700  1
  H  H42  1  0.92269300  0.03930700  0.81835300  1
  H  H43  1  0.57730700  0.53930700  0.68164700  1
  H  H44  1  0.92269300  0.03930700  0.68164700  1
  H  H45  1  0.57730700  0.53930700  0.81835300  1
  H  H46  1  0.07730700  0.96069300  0.18164700  1
  H  H47  1  0.42269300  0.46069300  0.31835300  1
  C  C0  1  0.26738200  0.99044000  0.51137100  1
  C  C1  1  0.23261800  0.49044000  0.98862900  1
  C  C2  1  0.73261800  0.00956000  0.01137100  1
  C  C3  1  0.76738200  0.50956000  0.48862900  1
  C  C4  1  0.73261800  0.00956000  0.48862900  1
  C  C5  1  0.76738200  0.50956000  0.01137100  1
  C  C6  1  0.26738200  0.99044000  0.98862900  1
  C  C7  1  0.23261800  0.49044000  0.51137100  1
  C  C8  1  0.25039300  0.11729500  0.46429900  1
  C  C9  1  0.24960700  0.61729500  0.03570100  1
  C  C10  1  0.74960700  0.88270500  0.96429900  1
  C  C11  1  0.75039300  0.38270500  0.53570100  1
  C  C12  1  0.74960700  0.88270500  0.53570100  1
  C  C13  1  0.75039300  0.38270500  0.96429900  1
  C  C14  1  0.25039300  0.11729500  0.03570100  1
  C  C15  1  0.24960700  0.61729500  0.46429900  1
  N  N0  1  0.48912900  0.83505500  0.25000000  1
  N  N1  1  0.01087100  0.33505500  0.25000000  1
  N  N2  1  0.51087100  0.16494500  0.75000000  1
  N  N3  1  0.98912900  0.66494500  0.75000000  1
  N  N4  1  0.99708300  0.94227900  0.25000000  1
  N  N5  1  0.50291700  0.44227900  0.25000000  1
  N  N6  1  0.00291700  0.05772100  0.75000000  1
  N  N7  1  0.49708300  0.55772100  0.75000000  1
  O  O0  1  0.33830100  0.97751700  0.60338300  1
  O  O1  1  0.16169900  0.47751700  0.89661700  1
  O  O2  1  0.66169900  0.02248300  0.10338300  1
  O  O3  1  0.83830100  0.52248300  0.39661700  1
  O  O4  1  0.66169900  0.02248300  0.39661700  1
  O  O5  1  0.83830100  0.52248300  0.10338300  1
  O  O6  1  0.33830100  0.97751700  0.89661700  1
  O  O7  1  0.16169900  0.47751700  0.60338300  1
  O  O8  1  0.20559600  0.90927600  0.44933400  1
  O  O9  1  0.29440400  0.40927600  0.05066600  1
  O  O10  1  0.79440400  0.09072400  0.94933400  1
  O  O11  1  0.70559600  0.59072400  0.55066600  1
  O  O12  1  0.79440400  0.09072400  0.55066600  1
  O  O13  1  0.70559600  0.59072400  0.94933400  1
  O  O14  1  0.20559600  0.90927600  0.05066600  1
  O  O15  1  0.29440400  0.40927600  0.44933400  1
  O  O16  1  0.31384000  0.19986700  0.53012000  1
  O  O17  1  0.18616000  0.69986700  0.96988000  1
  O  O18  1  0.68616000  0.80013300  0.03012000  1
  O  O19  1  0.81384000  0.30013300  0.46988000  1
  O  O20  1  0.68616000  0.80013300  0.46988000  1
  O  O21  1  0.81384000  0.30013300  0.03012000  1
  O  O22  1  0.31384000  0.19986700  0.96988000  1
  O  O23  1  0.18616000  0.69986700  0.53012000  1
  O  O24  1  0.18360800  0.13500200  0.37444000  1
  O  O25  1  0.31639200  0.63500200  0.12556000  1
  O  O26  1  0.81639200  0.86499800  0.87444000  1
  O  O27  1  0.68360800  0.36499800  0.62556000  1
  O  O28  1  0.81639200  0.86499800  0.62556000  1
  O  O29  1  0.68360800  0.36499800  0.87444000  1
  O  O30  1  0.18360800  0.13500200  0.12556000  1
  O  O31  1  0.31639200  0.63500200  0.37444000  1
  O  O32  1  0.84977300  0.71127100  0.25000000  1
  O  O33  1  0.65022700  0.21127100  0.25000000  1
  O  O34  1  0.15022700  0.28872900  0.75000000  1
  O  O35  1  0.34977300  0.78872900  0.75000000  1
loop_
_geom_bond_atom_site_label_1
_geom_bond_atom_site_label_2
_geom_bond_distance
_geom_bond_site_symmetry_2
H0 O16 1.041644 1_555
H0 O15 1.541552 1_555
H1 O17 1.041644 1_554
H1 O14 1.541552 1_555
H2 O18 1.041644 1_556
H2 O13 1.541552 1_555
H3 O19 1.041644 1_555
H3 O12 1.541552 1_555
H4 O20 1.041644 1_555
H4 O11 1.541552 1_555
H5 O21 1.041644 1_556
H5 O10 1.541552 1_555
H6 O22 1.041644 1_554
H6 O9 1.541552 1_555
H7 O23 1.041644 1_555
H7 O8 1.541552 1_555
H8 O32 0.991536 1_555
H9 O33 0.991536 1_555
H10 O34 0.991536 1_555
H11 O35 0.991536 1_555
H12 O34 0.991536 1_555
H13 O35 0.991536 1_555
H14 O32 0.991536 1_555
H15 O33 0.991536 1_555
H16 N0 1.030858 1_555
H17 N1 1.030858 1_555
H18 N2 1.030858 1_555
H19 N3 1.030858 1_555
H20 N2 1.030858 1_555
H21 N3 1.030858 1_555
H22 N0 1.030858 1_555
H23 N1 1.030858 1_555
H24 N0 1.046576 1_555
H25 N1 1.046576 1_655
H26 N2 1.046576 1_555
H27 N3 1.046576 1_455
H28 N0 1.031221 1_555
H29 N1 1.031229 1_555
H30 N2 1.031221 1_555
H31 N3 1.031221 1_555
H32 N4 1.045692 1_555
H33 N5 1.045692 1_555
H34 N6 1.045692 1_555
H35 N7 1.045692 1_555
H36 N4 1.024754 1_555
H37 N5 1.024754 1_555
H38 N6 1.024754 1_555
H39 N7 1.024754 1_555
H40 N4 1.042455 1_455
H41 N5 1.042455 1_555
H42 N6 1.042455 1_655
H43 N7 1.042455 1_555
H44 N6 1.042455 1_655
H45 N7 1.042455 1_555
H46 N4 1.042455 1_455
H47 N5 1.042455 1_555
C0 O0 1.260312 1_555
C0 O8 1.277571 1_555
C1 O1 1.260312 1_555
C1 O9 1.277571 1_556
C2 O2 1.260312 1_555
C2 O10 1.277571 1_554
C3 O3 1.260312 1_555
C3 O11 1.277571 1_555
C4 O4 1.260312 1_555
C4 O12 1.277571 1_555
C5 O5 1.260312 1_555
C5 O13 1.277571 1_554
C6 O6 1.260312 1_555
C6 O14 1.277571 1_556
C7 O7 1.260312 1_555
C7 O15 1.277571 1_555
C8 O24 1.232193 1_555
C8 O16 1.321908 1_555
C9 O25 1.232193 1_555
C9 O17 1.321908 1_554
C10 O26 1.232193 1_555
C10 O18 1.321908 1_556
C11 O27 1.232193 1_555
C11 O19 1.321908 1_555
C12 O28 1.232193 1_555
C12 O20 1.321908 1_555
C13 O29 1.232193 1_555
C13 O21 1.321908 1_556
C14 O30 1.232193 1_555
C14 O22 1.321908 1_554
C15 O31 1.232193 1_555
C15 O23 1.321908 1_555
