# generated using pymatgen
data_NbVO5
_symmetry_space_group_name_H-M   'P 1'
_cell_length_a   5.57737100
_cell_length_b   14.04660400
_cell_length_c   14.07553825
_cell_angle_alpha   59.61453769
_cell_angle_beta   90.00000000
_cell_angle_gamma   90.00000000
_symmetry_Int_Tables_number   1
_chemical_formula_structural   NbVO5
_chemical_formula_sum   'Nb8 V8 O40'
_cell_volume   951.25401468
_cell_formula_units_Z   8
loop_
 _symmetry_equiv_pos_site_id
 _symmetry_equiv_pos_as_xyz
  1  'x, y, z'
loop_
 _atom_site_type_symbol
 _atom_site_label
 _atom_site_symmetry_multiplicity
 _atom_site_fract_x
 _atom_site_fract_y
 _atom_site_fract_z
 _atom_site_occupancy
  Nb  Nb0  1  0.74188000  0.94094300  0.85730200  1
  Nb  Nb1  1  0.75812000  0.94094300  0.35730200  1
  Nb  Nb2  1  0.24681400  0.55926300  0.79893400  1
  Nb  Nb3  1  0.74681400  0.44073700  0.70106600  1
  Nb  Nb4  1  0.25318600  0.55926300  0.29893400  1
  Nb  Nb5  1  0.75318600  0.44073700  0.20106600  1
  Nb  Nb6  1  0.24188000  0.05905700  0.64269800  1
  Nb  Nb7  1  0.25812000  0.05905700  0.14269800  1
  V  V0  1  0.26646100  0.84603100  0.56239100  1
  V  V1  1  0.75970900  0.65416100  0.90744300  1
  V  V2  1  0.23353900  0.84603100  0.06239100  1
  V  V3  1  0.74029100  0.65416100  0.40744300  1
  V  V4  1  0.25970900  0.34583900  0.59255700  1
  V  V5  1  0.76646100  0.15396900  0.93760900  1
  V  V6  1  0.24029100  0.34583900  0.09255700  1
  V  V7  1  0.73353900  0.15396900  0.43760900  1
  O  O0  1  0.03260900  0.99145900  0.76735400  1
  O  O1  1  0.45545600  0.88439200  0.96456600  1
  O  O2  1  0.24160400  0.92518400  0.62568700  1
  O  O3  1  0.74571100  0.79526000  0.86775200  1
  O  O4  1  0.46739100  0.99145900  0.26735400  1
  O  O5  1  0.04454400  0.88439200  0.46456600  1
  O  O6  1  0.54186700  0.86704000  0.50114600  1
  O  O7  1  0.03714900  0.62439000  0.87439400  1
  O  O8  1  0.54032900  0.62550900  0.84088400  1
  O  O9  1  0.23041200  0.70508800  0.66298400  1
  O  O10  1  0.25839600  0.92518400  0.12568700  1
  O  O11  1  0.75428900  0.79526000  0.36775200  1
  O  O12  1  0.28374500  0.42608900  0.95023500  1
  O  O13  1  0.97448100  0.50144500  0.76224700  1
  O  O14  1  0.47448100  0.49855500  0.73775300  1
  O  O15  1  0.95813300  0.86704000  0.00114600  1
  O  O16  1  0.78374500  0.57391100  0.54976500  1
  O  O17  1  0.46285100  0.62439000  0.37439400  1
  O  O18  1  0.95967100  0.62550900  0.34088400  1
  O  O19  1  0.26958800  0.70508800  0.16298400  1
  O  O20  1  0.73041200  0.29491200  0.83701600  1
  O  O21  1  0.04032900  0.37449100  0.65911600  1
  O  O22  1  0.53714900  0.37561000  0.62560600  1
  O  O23  1  0.21625500  0.42608900  0.45023500  1
  O  O24  1  0.04186700  0.13296000  0.99885400  1
  O  O25  1  0.52551900  0.50144500  0.26224700  1
  O  O26  1  0.02551900  0.49855500  0.23775300  1
  O  O27  1  0.71625500  0.57391100  0.04976500  1
  O  O28  1  0.24571100  0.20474000  0.63224800  1
  O  O29  1  0.74160400  0.07481600  0.87431300  1
  O  O30  1  0.76958800  0.29491200  0.33701600  1
  O  O31  1  0.45967100  0.37449100  0.15911600  1
  O  O32  1  0.96285100  0.37561000  0.12560600  1
  O  O33  1  0.45813300  0.13296000  0.49885400  1
  O  O34  1  0.95545600  0.11560800  0.53543400  1
  O  O35  1  0.53260900  0.00854100  0.73264600  1
  O  O36  1  0.25428900  0.20474000  0.13224800  1
  O  O37  1  0.75839600  0.07481600  0.37431300  1
  O  O38  1  0.54454400  0.11560800  0.03543400  1
  O  O39  1  0.96739100  0.00854100  0.23264600  1
loop_
_geom_bond_atom_site_label_1
_geom_bond_atom_site_label_2
_geom_bond_distance
_geom_bond_site_symmetry_2
Nb0 O35 1.912360 1_565
Nb0 O0 1.956241 1_655
Nb0 O3 1.976145 1_555
Nb0 O29 2.012203 1_565
Nb0 O1 2.061361 1_555
Nb0 O15 2.122606 1_556
Nb1 O39 1.912360 1_565
Nb1 O4 1.956241 1_555
Nb1 O11 1.976145 1_555
Nb1 O37 2.012203 1_565
Nb1 O5 2.061361 1_655
Nb1 O6 2.122606 1_555
Nb2 O13 1.912476 1_455
Nb2 O14 1.955502 1_555
Nb2 O9 1.974994 1_555
Nb2 O12 2.011710 1_555
Nb2 O7 2.077362 1_555
Nb2 O8 2.109571 1_555
Nb3 O14 1.912476 1_555
Nb3 O13 1.955502 1_555
Nb3 O20 1.974994 1_555
Nb3 O16 2.011710 1_555
Nb3 O22 2.077362 1_555
Nb3 O21 2.109571 1_655
Nb4 O25 1.912476 1_555
Nb4 O26 1.955502 1_555
Nb4 O19 1.974994 1_555
Nb4 O23 2.011710 1_555
Nb4 O17 2.077362 1_555
Nb4 O18 2.109571 1_455
Nb5 O26 1.912476 1_655
Nb5 O25 1.955502 1_555
Nb5 O30 1.974994 1_555
Nb5 O27 2.011710 1_555
Nb5 O32 2.077362 1_555
Nb5 O31 2.109571 1_555
Nb6 O0 1.912360 1_545
Nb6 O35 1.956241 1_555
Nb6 O28 1.976145 1_555
Nb6 O2 2.012203 1_545
Nb6 O34 2.061361 1_455
Nb6 O33 2.122606 1_555
Nb7 O4 1.912360 1_545
Nb7 O39 1.956241 1_455
Nb7 O36 1.976145 1_555
Nb7 O10 2.012203 1_545
Nb7 O38 2.061361 1_555
Nb7 O24 2.122606 1_554
O1 V2 1.722692 1_556
O2 V0 1.746772 1_555
O3 V1 1.768117 1_555
O5 V0 1.722692 1_555
O6 V0 1.712395 1_555
O7 V1 1.726982 1_455
O8 V1 1.708278 1_555
O9 V0 1.768879 1_555
O10 V2 1.746772 1_555
O11 V3 1.768117 1_555
O12 V6 1.748725 1_556
O15 V2 1.712395 1_655
O16 V3 1.748725 1_555
O17 V3 1.726982 1_555
O18 V3 1.708278 1_555
O19 V2 1.768879 1_555
O20 V5 1.768879 1_555
O21 V4 1.708278 1_555
O22 V4 1.726982 1_555
O23 V4 1.748725 1_555
O24 V5 1.712395 1_455
O27 V1 1.748725 1_554
O28 V4 1.768117 1_555
O29 V5 1.746772 1_555
O30 V7 1.768879 1_555
O31 V6 1.708278 1_555
O32 V6 1.726982 1_655
O33 V7 1.712395 1_555
O34 V7 1.722692 1_555
O36 V6 1.768117 1_555
O37 V7 1.746772 1_555
O38 V5 1.722692 1_554
