# generated using pymatgen
data_V6O7F5
_symmetry_space_group_name_H-M   'P 1'
_cell_length_a   4.69654030
_cell_length_b   4.69654030
_cell_length_c   9.28552348
_cell_angle_alpha   89.92944889
_cell_angle_beta   89.92944889
_cell_angle_gamma   87.46825625
_symmetry_Int_Tables_number   1
_chemical_formula_structural   V6O7F5
_chemical_formula_sum   'V6 O7 F5'
_cell_volume   204.61513160
_cell_formula_units_Z   1
loop_
 _symmetry_equiv_pos_site_id
 _symmetry_equiv_pos_as_xyz
  1  'x, y, z'
loop_
 _atom_site_type_symbol
 _atom_site_label
 _atom_site_symmetry_multiplicity
 _atom_site_fract_x
 _atom_site_fract_y
 _atom_site_fract_z
 _atom_site_occupancy
  V  V0  1  0.01268000  0.00446100  0.67362400  1
  V  V1  1  0.97523300  0.02476700  0.00000000  1
  V  V2  1  0.99553900  0.98732000  0.32637600  1
  V  V3  1  0.47733700  0.46775900  0.82552700  1
  V  V4  1  0.50640000  0.49360000  0.50000000  1
  V  V5  1  0.53224100  0.52266300  0.17447300  1
  O  O0  1  0.81429100  0.81365400  0.16602800  1
  O  O1  1  0.68221900  0.31778100  0.00000000  1
  O  O2  1  0.69421300  0.29243000  0.65577400  1
  O  O3  1  0.70757000  0.30578700  0.34422600  1
  O  O4  1  0.30434400  0.68391800  0.65829400  1
  O  O5  1  0.31608200  0.69565600  0.34170600  1
  O  O6  1  0.18634600  0.18570900  0.83397200  1
  F  F0  1  0.78830100  0.79666000  0.83359200  1
  F  F1  1  0.80795100  0.79757700  0.50297000  1
  F  F2  1  0.29349300  0.70650700  0.00000000  1
  F  F3  1  0.20242300  0.19204900  0.49703000  1
  F  F4  1  0.20334000  0.21169900  0.16640800  1
loop_
_geom_bond_atom_site_label_1
_geom_bond_atom_site_label_2
_geom_bond_distance
_geom_bond_site_symmetry_2
O0 V2 1.916814 1_555
O0 V5 1.946284 1_555
O0 V1 1.997673 1_565
O1 V1 1.902703 1_555
O1 V5 1.996956 1_555
O1 V3 1.996956 1_554
O2 V4 1.920690 1_555
O2 V0 1.978651 1_655
O2 V3 2.031065 1_555
O3 V4 1.920690 1_555
O3 V2 1.978651 1_545
O3 V5 2.031065 1_555
O4 V4 1.945450 1_555
O4 V0 1.995212 1_565
O4 V3 2.007093 1_555
O5 V4 1.945450 1_555
O5 V2 1.995212 1_455
O5 V5 2.007093 1_555
O6 V0 1.916814 1_555
O6 V3 1.946284 1_555
O6 V1 1.997673 1_456
F0 V0 2.086333 1_665
F0 V1 2.096804 1_566
F0 V3 2.173588 1_555
F1 V4 2.055113 1_555
F1 V2 2.078786 1_555
F1 V0 2.114160 1_665
F2 V1 2.066640 1_465
F2 V3 2.131417 1_554
F2 V5 2.131417 1_555
F3 V4 2.055113 1_555
F3 V0 2.078786 1_555
F3 V2 2.114160 1_445
F4 V2 2.086333 1_445
F4 V1 2.096804 1_455
F4 V5 2.173588 1_555
