# generated using pymatgen
data_Li5MnO5
_symmetry_space_group_name_H-M   'P 1'
_cell_length_a   5.06461112
_cell_length_b   5.06461112
_cell_length_c   5.65859564
_cell_angle_alpha   73.74269249
_cell_angle_beta   73.74269249
_cell_angle_gamma   48.06784804
_symmetry_Int_Tables_number   1
_chemical_formula_structural   Li5MnO5
_chemical_formula_sum   'Li5 Mn1 O5'
_cell_volume   102.78055849
_cell_formula_units_Z   1
loop_
 _symmetry_equiv_pos_site_id
 _symmetry_equiv_pos_as_xyz
  1  'x, y, z'
loop_
 _atom_site_type_symbol
 _atom_site_label
 _atom_site_symmetry_multiplicity
 _atom_site_fract_x
 _atom_site_fract_y
 _atom_site_fract_z
 _atom_site_occupancy
  Li  Li0  1  0.67909700  0.69503700  0.13984800  1
  Li  Li1  1  0.68961300  0.71289300  0.66385000  1
  Li  Li2  1  0.28710700  0.31038700  0.33615000  1
  Li  Li3  1  0.30496300  0.32090300  0.86015200  1
  Li  Li4  1  0.00733800  0.99266200  0.50000000  1
  Mn  Mn0  1  0.93361000  0.06639000  0.00000000  1
  O  O0  1  0.15229100  0.12627800  0.16115900  1
  O  O1  1  0.51648200  0.48351800  0.00000000  1
  O  O2  1  0.14051400  0.17203800  0.68617200  1
  O  O3  1  0.82796200  0.85948600  0.31382800  1
  O  O4  1  0.87372200  0.84770900  0.83884100  1
loop_
_geom_bond_atom_site_label_1
_geom_bond_atom_site_label_2
_geom_bond_distance
_geom_bond_site_symmetry_2
Li0 O4 1.952392 1_554
Li0 O3 1.986258 1_555
Li0 O0 2.020518 1_565
Li0 O1 2.114433 1_555
Li0 O0 2.190089 1_655
Li1 O3 2.014938 1_555
Li1 O4 2.015580 1_555
Li1 O2 2.083684 1_655
Li1 O2 2.117083 1_565
Li1 O1 2.219647 1_556
Li2 O2 2.014938 1_555
Li2 O0 2.015580 1_555
Li2 O3 2.083684 1_545
Li2 O3 2.117083 1_455
Li2 O1 2.219647 1_555
Li3 O0 1.952392 1_556
Li3 O2 1.986258 1_555
Li3 O4 2.020518 1_455
Li3 O1 2.114433 1_556
Li3 O4 2.190089 1_545
Li4 O4 1.955134 1_455
Li4 O0 1.955134 1_565
Li4 O2 2.035358 1_565
Li4 O3 2.035358 1_455
Mn0 O1 1.720822 1_555
Mn0 O0 1.821973 1_655
Mn0 O4 1.821973 1_544
Mn0 O2 1.927010 1_654
Mn0 O3 1.927010 1_545
Mn0 O1 2.404582 1_645
