# generated using pymatgen
data_Gd3As5O12
_symmetry_space_group_name_H-M   'P 1'
_cell_length_a   9.19202922
_cell_length_b   9.19202291
_cell_length_c   9.19203464
_cell_angle_alpha   109.47097919
_cell_angle_beta   109.47107948
_cell_angle_gamma   109.47101342
_symmetry_Int_Tables_number   1
_chemical_formula_structural   Gd3As5O12
_chemical_formula_sum   'Gd6 As10 O24'
_cell_volume   597.88191535
_cell_formula_units_Z   2
loop_
 _symmetry_equiv_pos_site_id
 _symmetry_equiv_pos_as_xyz
  1  'x, y, z'
loop_
 _atom_site_type_symbol
 _atom_site_label
 _atom_site_symmetry_multiplicity
 _atom_site_fract_x
 _atom_site_fract_y
 _atom_site_fract_z
 _atom_site_occupancy
  Gd  Gd0  1  0.74999729  0.49999743  0.24999708  1
  Gd  Gd1  1  0.49999766  0.74999751  0.24999809  1
  Gd  Gd2  1  0.74999772  0.24999765  0.49999802  1
  Gd  Gd3  1  0.24999743  0.74999748  0.49999759  1
  Gd  Gd4  1  0.24999703  0.49999789  0.74999799  1
  Gd  Gd5  1  0.49999780  0.24999767  0.74999780  1
  As  As0  1  0.71312457  0.71312578  -0.00000205  1
  As  As1  1  0.00000092  0.00000161  0.50042581  1
  As  As2  1  0.00000141  0.28687364  0.28687403  1
  As  As3  1  0.28687306  0.00000017  0.28687338  1
  As  As4  1  0.49957667  0.49957658  0.49957649  1
  As  As5  1  0.71312566  0.00000100  0.71312487  1
  As  As6  1  0.00000065  0.71312445  0.71312464  1
  As  As7  1  0.00000125  0.50042548  0.00000130  1
  As  As8  1  0.50042605  0.00000177  0.00000176  1
  As  As9  1  0.28687223  0.28687242  -0.00000138  1
  O  O0  1  0.70154403  0.70154440  0.18323100  1
  O  O1  1  0.29845560  0.48168680  0.00000019  1
  O  O2  1  0.48168650  0.29845510  -0.00000021  1
  O  O3  1  0.71363617  0.18871085  0.18871081  1
  O  O4  1  0.18871119  0.71363656  0.18871132  1
  O  O5  1  0.00000185  0.81129131  0.52492736  1
  O  O6  1  0.81129172  0.00000184  0.52492732  1
  O  O7  1  0.47507529  0.47507509  0.28636469  1
  O  O8  1  0.51831356  0.81676881  0.51831385  1
  O  O9  1  0.81676839  0.51831324  0.51831308  1
  O  O10  1  -0.00000004  0.48168665  0.29845565  1
  O  O11  1  0.48168691  0.00000009  0.29845567  1
  O  O12  1  0.28636435  0.47507496  0.47507487  1
  O  O13  1  0.47507485  0.28636449  0.47507510  1
  O  O14  1  0.00000172  0.52492664  0.81129145  1
  O  O15  1  0.52492748  0.00000180  0.81129139  1
  O  O16  1  0.70154450  0.18323079  0.70154454  1
  O  O17  1  0.18323080  0.70154431  0.70154411  1
  O  O18  1  -0.00000018  0.29845526  0.48168682  1
  O  O19  1  0.29845571  0.00000000  0.48168703  1
  O  O20  1  0.51831287  0.51831323  0.81676835  1
  O  O21  1  0.52492720  0.81129127  0.00000188  1
  O  O22  1  0.81129105  0.52492676  0.00000178  1
  O  O23  1  0.18871106  0.18871119  0.71363656  1
loop_
_geom_bond_atom_site_label_1
_geom_bond_atom_site_label_2
_geom_bond_distance
_geom_bond_site_symmetry_2
Gd0 O2 2.265627 1_555
Gd0 O0 2.265627 1_555
Gd0 O10 2.265639 1_655
Gd0 O9 2.265646 1_555
Gd0 O22 2.603594 1_555
Gd0 O3 2.603597 1_555
Gd0 O7 2.603597 1_555
Gd0 O5 2.603673 1_655
Gd1 O0 2.265628 1_555
Gd1 O1 2.265629 1_555
Gd1 O11 2.265638 1_565
Gd1 O8 2.265644 1_555
Gd1 O7 2.603594 1_555
Gd1 O4 2.603596 1_555
Gd1 O21 2.603602 1_555
Gd1 O6 2.603670 1_565
Gd2 O11 2.265628 1_555
Gd2 O16 2.265629 1_555
Gd2 O18 2.265638 1_655
Gd2 O9 2.265643 1_555
Gd2 O6 2.603596 1_555
Gd2 O13 2.603600 1_555
Gd2 O3 2.603604 1_555
Gd2 O14 2.603666 1_655
Gd3 O10 2.265627 1_555
Gd3 O17 2.265628 1_555
Gd3 O19 2.265636 1_565
Gd3 O8 2.265644 1_555
Gd3 O12 2.603596 1_555
Gd3 O5 2.603596 1_555
Gd3 O4 2.603597 1_555
Gd3 O15 2.603671 1_565
Gd4 O17 2.265625 1_555
Gd4 O18 2.265629 1_555
Gd4 O1 2.265637 1_556
Gd4 O20 2.265645 1_555
Gd4 O14 2.603590 1_555
Gd4 O23 2.603597 1_555
Gd4 O12 2.603606 1_555
Gd4 O21 2.603669 1_556
Gd5 O19 2.265628 1_555
Gd5 O16 2.265630 1_555
Gd5 O2 2.265639 1_556
Gd5 O20 2.265643 1_555
Gd5 O15 2.603596 1_555
Gd5 O23 2.603599 1_555
Gd5 O13 2.603599 1_555
Gd5 O22 2.603665 1_556
As0 O20 1.758114 1_554
As0 O0 1.758119 1_555
As0 O21 2.201700 1_555
As0 O22 2.201719 1_555
As1 O6 1.822108 1_455
As1 O5 1.822119 1_545
As1 O23 1.822129 1_555
As2 O10 1.758112 1_555
As2 O18 1.758113 1_555
As2 O12 2.201724 1_555
As2 O3 2.201732 1_455
As3 O19 1.758113 1_555
As3 O11 1.758115 1_555
As3 O4 2.201720 1_545
As3 O13 2.201734 1_555
As4 O13 1.822121 1_555
As4 O7 1.822121 1_555
As4 O12 1.822124 1_555
As5 O16 1.758086 1_555
As5 O8 1.758118 1_545
As5 O6 2.201703 1_555
As5 O15 2.201711 1_555
As6 O17 1.758088 1_555
As6 O9 1.758117 1_455
As6 O5 2.201705 1_555
As6 O14 2.201708 1_555
As7 O14 1.822114 1_554
As7 O22 1.822117 1_455
As7 O4 1.822131 1_555
As8 O21 1.822117 1_545
As8 O15 1.822119 1_554
As8 O3 1.822122 1_555
As9 O1 1.758110 1_555
As9 O2 1.758113 1_555
As9 O23 2.201711 1_554
As9 O7 2.201749 1_555
