# generated using pymatgen
data_Zn3Co9O16
_symmetry_space_group_name_H-M   'P 1'
_cell_length_a   10.07930963
_cell_length_b   10.07930963
_cell_length_c   10.07930920
_cell_angle_alpha   33.33155151
_cell_angle_beta   33.33155151
_cell_angle_gamma   33.33154625
_symmetry_Int_Tables_number   1
_chemical_formula_structural   Zn3Co9O16
_chemical_formula_sum   'Zn3 Co9 O16'
_cell_volume   275.28529067
_cell_formula_units_Z   1
loop_
 _symmetry_equiv_pos_site_id
 _symmetry_equiv_pos_as_xyz
  1  'x, y, z'
loop_
 _atom_site_type_symbol
 _atom_site_label
 _atom_site_symmetry_multiplicity
 _atom_site_fract_x
 _atom_site_fract_y
 _atom_site_fract_z
 _atom_site_occupancy
  Zn  Zn0  1  0.31248000  0.31248000  0.31248000  1
  Zn  Zn1  1  0.62410200  0.62410200  0.62410200  1
  Zn  Zn2  1  0.50066500  0.50066500  0.50066500  1
  Co  Co0  1  0.56189000  0.06097100  0.06097100  1
  Co  Co1  1  0.00055900  0.00055900  0.00055900  1
  Co  Co2  1  0.06097100  0.06097100  0.56189000  1
  Co  Co3  1  0.06097100  0.56189000  0.06097100  1
  Co  Co4  1  0.12462400  0.12462400  0.12462400  1
  Co  Co5  1  0.56448700  0.06205600  0.56448700  1
  Co  Co6  1  0.56448700  0.56448700  0.06205600  1
  Co  Co7  1  0.06205600  0.56448700  0.56448700  1
  Co  Co8  1  0.81251300  0.81251300  0.81251300  1
  O  O0  1  0.95921700  0.41737700  0.41737700  1
  O  O1  1  0.19331000  0.19331000  0.19331000  1
  O  O2  1  0.70887700  0.14988300  0.70887700  1
  O  O3  1  0.70887700  0.70887700  0.14988300  1
  O  O4  1  0.41737700  0.41737700  0.95921700  1
  O  O5  1  0.41737700  0.95921700  0.41737700  1
  O  O6  1  0.14988300  0.70887700  0.70887700  1
  O  O7  1  0.67183300  0.20452300  0.20452300  1
  O  O8  1  0.43117100  0.43117100  0.43117100  1
  O  O9  1  0.93059300  0.93059300  0.93059300  1
  O  O10  1  0.20452300  0.67183300  0.20452300  1
  O  O11  1  0.20452300  0.20452300  0.67183300  1
  O  O12  1  0.91674300  0.91674300  0.47410900  1
  O  O13  1  0.91674300  0.47410900  0.91674300  1
  O  O14  1  0.47410900  0.91674300  0.91674300  1
  O  O15  1  0.69503200  0.69503200  0.69503200  1
loop_
_geom_bond_atom_site_label_1
_geom_bond_atom_site_label_2
_geom_bond_distance
_geom_bond_site_symmetry_2
Co0 O4 1.916890 1_554
Co0 O5 1.916890 1_545
Co0 O3 1.926367 1_545
Co0 O2 1.926367 1_554
Co0 O1 1.942157 1_555
Co0 O9 1.956785 1_544
Co1 O7 1.930996 1_455
Co1 O10 1.930996 1_545
Co1 O11 1.930996 1_554
Co1 O9 1.996256 1_444
Co2 O0 1.916890 1_455
Co2 O5 1.916890 1_545
Co2 O2 1.926367 1_455
Co2 O6 1.926367 1_545
Co2 O1 1.942157 1_555
Co2 O9 1.956785 1_445
Co3 O4 1.916890 1_554
Co3 O0 1.916890 1_455
Co3 O3 1.926367 1_455
Co3 O6 1.926367 1_554
Co3 O1 1.942157 1_555
Co3 O9 1.956785 1_454
Co4 O1 1.959735 1_555
Co4 O14 1.964266 1_544
Co4 O13 1.964266 1_454
Co4 O12 1.964266 1_445
Co5 O12 1.927776 1_545
Co5 O14 1.927776 1_545
Co5 O11 1.930547 1_555
Co5 O7 1.930547 1_555
Co5 O8 1.939687 1_555
Co5 O15 1.942492 1_545
Co6 O13 1.927776 1_554
Co6 O14 1.927776 1_554
Co6 O10 1.930547 1_555
Co6 O7 1.930547 1_555
Co6 O8 1.939687 1_555
Co6 O15 1.942492 1_554
Co7 O12 1.927776 1_455
Co7 O13 1.927776 1_455
Co7 O11 1.930547 1_555
Co7 O10 1.930547 1_555
Co7 O8 1.939687 1_555
Co7 O15 1.942492 1_455
Co8 O3 1.922941 1_556
Co8 O2 1.922941 1_565
Co8 O6 1.922941 1_655
Co8 O12 1.926164 1_555
Co8 O13 1.926164 1_555
Co8 O14 1.926164 1_555
O0 Zn1 1.955998 1_555
O0 Zn0 2.049489 1_655
O2 Zn2 1.967489 1_555
O3 Zn2 1.967489 1_555
O4 Zn1 1.955999 1_555
O4 Zn0 2.049489 1_556
O5 Zn1 1.955998 1_555
O5 Zn0 2.049489 1_565
O6 Zn2 1.967489 1_555
O7 Zn0 2.072189 1_555
O8 Zn2 1.982789 1_555
O10 Zn0 2.072189 1_555
O11 Zn0 2.072189 1_555
O15 Zn1 2.023760 1_555
