# generated using pymatgen
data_CuC2(SN2)2
_symmetry_space_group_name_H-M   'P 1'
_cell_length_a   6.17438900
_cell_length_b   8.60103600
_cell_length_c   13.83939600
_cell_angle_alpha   90.00000000
_cell_angle_beta   90.00000000
_cell_angle_gamma   90.00000000
_symmetry_Int_Tables_number   1
_chemical_formula_structural   CuC2(SN2)2
_chemical_formula_sum   'Cu4 C8 S8 N16'
_cell_volume   734.95693010
_cell_formula_units_Z   4
loop_
 _symmetry_equiv_pos_site_id
 _symmetry_equiv_pos_as_xyz
  1  'x, y, z'
loop_
 _atom_site_type_symbol
 _atom_site_label
 _atom_site_symmetry_multiplicity
 _atom_site_fract_x
 _atom_site_fract_y
 _atom_site_fract_z
 _atom_site_occupancy
  Cu  Cu0  1  0.25123000  0.11096800  0.67787900  1
  Cu  Cu1  1  0.74877000  0.61096800  0.32212100  1
  Cu  Cu2  1  0.75123000  0.61096800  0.82212100  1
  Cu  Cu3  1  0.24877000  0.11096800  0.17787900  1
  C  C0  1  0.24250300  0.42315300  0.77649700  1
  C  C1  1  0.75749700  0.92315300  0.22350300  1
  C  C2  1  0.74250300  0.92315300  0.72350300  1
  C  C3  1  0.25749700  0.42315300  0.27649700  1
  C  C4  1  0.74813800  0.28968300  0.90909800  1
  C  C5  1  0.25186200  0.78968300  0.09090200  1
  C  C6  1  0.24813800  0.78968300  0.59090200  1
  C  C7  1  0.75186200  0.28968300  0.40909800  1
  S  S0  1  0.73929400  0.09115300  0.67103400  1
  S  S1  1  0.26070600  0.59115300  0.32896600  1
  S  S2  1  0.23929400  0.59115300  0.82896600  1
  S  S3  1  0.76070600  0.09115300  0.17103400  1
  S  S4  1  0.74684800  0.11471700  0.95009400  1
  S  S5  1  0.25315200  0.61471700  0.04990600  1
  S  S6  1  0.24684800  0.61471700  0.54990600  1
  S  S7  1  0.75315200  0.11471700  0.45009400  1
  N  N0  1  0.24665700  0.30385600  0.73427300  1
  N  N1  1  0.75334300  0.80385600  0.26572700  1
  N  N2  1  0.74665700  0.80385600  0.76572700  1
  N  N3  1  0.25334300  0.30385600  0.23427300  1
  N  N4  1  0.75249300  0.41623700  0.87541600  1
  N  N5  1  0.24750700  0.91623700  0.12458400  1
  N  N6  1  0.25249300  0.91623700  0.62458400  1
  N  N7  1  0.74750700  0.41623700  0.37541600  1
  N  N8  1  0.25242800  0.19812100  0.55144700  1
  N  N9  1  0.74757200  0.69812100  0.44855300  1
  N  N10  1  0.75242800  0.69812100  0.94855300  1
  N  N11  1  0.24757200  0.19812100  0.05144700  1
  N  N12  1  0.24082900  0.02281100  0.80393300  1
  N  N13  1  0.75917100  0.52281100  0.19606700  1
  N  N14  1  0.74082900  0.52281100  0.69606700  1
  N  N15  1  0.25917100  0.02281100  0.30393300  1
loop_
_geom_bond_atom_site_label_1
_geom_bond_atom_site_label_2
_geom_bond_distance
_geom_bond_site_symmetry_2
Cu0 N6 1.830115 1_545
Cu0 N0 1.833662 1_555
Cu0 N12 1.903253 1_555
Cu0 N8 1.903566 1_555
Cu1 N7 1.830115 1_555
Cu1 N1 1.833662 1_555
Cu1 N13 1.903253 1_555
Cu1 N9 1.903566 1_555
Cu2 N4 1.830115 1_555
Cu2 N2 1.833662 1_555
Cu2 N14 1.903253 1_555
Cu2 N10 1.903566 1_555
Cu3 N5 1.830115 1_545
Cu3 N3 1.833662 1_555
Cu3 N15 1.903253 1_555
Cu3 N11 1.903566 1_555
C0 N0 1.181086 1_555
C0 S2 1.617288 1_555
C1 N1 1.181086 1_555
C1 S3 1.617288 1_565
C2 N2 1.181086 1_555
C2 S0 1.617288 1_565
C3 N3 1.181086 1_555
C3 S1 1.617288 1_555
C4 N4 1.184412 1_555
C4 S4 1.608307 1_555
C5 N5 1.184412 1_555
C5 S5 1.608307 1_555
C6 N6 1.184412 1_555
C6 S6 1.608307 1_555
C7 N7 1.184412 1_555
C7 S7 1.608307 1_555
