# generated using pymatgen
data_Li2V3FeO8
_symmetry_space_group_name_H-M   'P 1'
_cell_length_a   8.40319900
_cell_length_b   8.41882292
_cell_length_c   8.45123260
_cell_angle_alpha   90.24167655
_cell_angle_beta   90.00100007
_cell_angle_gamma   90.00174847
_symmetry_Int_Tables_number   1
_chemical_formula_structural   Li2V3FeO8
_chemical_formula_sum   'Li8 V12 Fe4 O32'
_cell_volume   597.87750608
_cell_formula_units_Z   4
loop_
 _symmetry_equiv_pos_site_id
 _symmetry_equiv_pos_as_xyz
  1  'x, y, z'
loop_
 _atom_site_type_symbol
 _atom_site_label
 _atom_site_symmetry_multiplicity
 _atom_site_fract_x
 _atom_site_fract_y
 _atom_site_fract_z
 _atom_site_occupancy
  Li  Li0  1  0.12412000  0.87543200  0.37380300  1
  Li  Li1  1  0.25219900  0.74914200  0.74984900  1
  Li  Li2  1  0.24935000  0.25027800  0.24937100  1
  Li  Li3  1  0.37459800  0.12794900  0.87438600  1
  Li  Li4  1  0.62504800  0.62450900  0.62580700  1
  Li  Li5  1  0.75225700  0.75098300  0.24958900  1
  Li  Li6  1  0.74923800  0.24965900  0.75077200  1
  Li  Li7  1  0.87486900  0.37186100  0.12596100  1
  V  V0  1  0.11400600  0.62081700  0.12369300  1
  V  V1  1  0.11362500  0.37451900  0.88177400  1
  V  V2  1  0.12451200  0.11440000  0.61969100  1
  V  V3  1  0.37615900  0.87588100  0.12787800  1
  V  V4  1  0.37200600  0.62197500  0.37501300  1
  V  V5  1  0.38079200  0.38480700  0.62543800  1
  V  V6  1  0.61378900  0.87888300  0.87638300  1
  V  V7  1  0.61341900  0.12544700  0.11819400  1
  V  V8  1  0.62441000  0.38584900  0.38030200  1
  V  V9  1  0.87679200  0.62410400  0.87197600  1
  V  V10  1  0.87200000  0.87820600  0.62501100  1
  V  V11  1  0.88047600  0.11531100  0.37484100  1
  Fe  Fe0  1  0.99953200  0.49650500  0.49957300  1
  Fe  Fe1  1  0.50061100  0.49792200  0.99740400  1
  Fe  Fe2  1  0.49930200  0.00342400  0.50028300  1
  Fe  Fe3  1  0.00033400  0.00231000  0.00243400  1
  O  O0  1  0.10482300  0.13482400  0.39370200  1
  O  O1  1  0.11683000  0.90212400  0.63043600  1
  O  O2  1  0.11852500  0.61289700  0.88837700  1
  O  O3  1  0.13373600  0.39303000  0.10405700  1
  O  O4  1  0.12235800  0.13990000  0.86650500  1
  O  O5  1  0.13295100  0.36286500  0.63457500  1
  O  O6  1  0.12946300  0.62109800  0.36063400  1
  O  O7  1  0.13863900  0.86577600  0.12133900  1
  O  O8  1  0.35968200  0.14029000  0.62008800  1
  O  O9  1  0.36254700  0.37826700  0.85782800  1
  O  O10  1  0.36308000  0.62928800  0.13011600  1
  O  O11  1  0.37894000  0.86040800  0.36652800  1
  O  O12  1  0.36979900  0.59982500  0.61195800  1
  O  O13  1  0.38755400  0.38319800  0.38675900  1
  O  O14  1  0.39882300  0.11462900  0.12896400  1
  O  O15  1  0.40045000  0.87126300  0.88706700  1
  O  O16  1  0.60511200  0.36537500  0.60636600  1
  O  O17  1  0.61712400  0.59807900  0.36972000  1
  O  O18  1  0.61768200  0.88675300  0.11175200  1
  O  O19  1  0.63368800  0.10676200  0.89607500  1
  O  O20  1  0.62209500  0.36004800  0.13345900  1
  O  O21  1  0.63270900  0.13723400  0.36547700  1
  O  O22  1  0.62975500  0.87908400  0.63930600  1
  O  O23  1  0.63879200  0.63412500  0.87809400  1
  O  O24  1  0.85957900  0.35978500  0.38007100  1
  O  O25  1  0.86216600  0.12156700  0.14230200  1
  O  O26  1  0.86286500  0.87056100  0.87020300  1
  O  O27  1  0.87982300  0.63980700  0.63364400  1
  O  O28  1  0.86969100  0.90027300  0.38796300  1
  O  O29  1  0.88754600  0.11695300  0.61345100  1
  O  O30  1  0.89904600  0.38528800  0.87114200  1
  O  O31  1  0.90068300  0.62853000  0.11269700  1
loop_
_geom_bond_atom_site_label_1
_geom_bond_atom_site_label_2
_geom_bond_distance
_geom_bond_site_symmetry_2
Li0 O7 2.138323 1_555
Li0 O6 2.144086 1_555
Li0 O11 2.145906 1_555
Li0 O28 2.151511 1_455
Li0 O1 2.180394 1_555
Li0 O0 2.195535 1_565
Li1 O12 1.975500 1_555
Li1 O15 1.985856 1_555
Li1 O2 1.989811 1_555
Li1 O1 1.995548 1_555
Li2 O14 1.976779 1_555
Li2 O3 1.977085 1_555
Li2 O0 1.979286 1_555
Li2 O13 1.984449 1_555
Li3 O9 2.115041 1_555
Li3 O4 2.123070 1_555
Li3 O8 2.155724 1_555
Li3 O14 2.164481 1_556
Li3 O15 2.174984 1_545
Li3 O19 2.192221 1_555
Li4 O23 2.136453 1_555
Li4 O27 2.145796 1_555
Li4 O22 2.146139 1_555
Li4 O12 2.158072 1_555
Li4 O17 2.175743 1_555
Li4 O16 2.193492 1_555
Li5 O28 1.977001 1_555
Li5 O31 1.986685 1_555
Li5 O18 1.988363 1_555
Li5 O17 1.997063 1_555
Li6 O19 1.977493 1_555
Li6 O30 1.978245 1_555
Li6 O16 1.978714 1_555
Li6 O29 1.983683 1_555
Li7 O25 2.114975 1_555
Li7 O20 2.127392 1_555
Li7 O24 2.154213 1_555
Li7 O30 2.166525 1_554
Li7 O31 2.175066 1_555
Li7 O3 2.190497 1_655
Fe0 O6 1.918718 1_655
Fe0 O24 1.928211 1_555
Fe0 O27 1.933860 1_555
Fe0 O5 1.958415 1_655
Fe1 O23 1.920824 1_555
Fe1 O20 1.929471 1_556
Fe1 O9 1.934442 1_555
Fe1 O10 1.950990 1_556
Fe2 O22 1.920498 1_545
Fe2 O8 1.928638 1_555
Fe2 O11 1.933613 1_545
Fe2 O21 1.958199 1_555
Fe3 O7 1.921344 1_545
Fe3 O4 1.929781 1_554
Fe3 O25 1.934796 1_455
Fe3 O26 1.950118 1_444
O0 V11 1.899012 1_455
O0 V2 1.925451 1_555
O1 V2 1.790964 1_565
O1 V10 2.067668 1_455
O2 V0 1.989910 1_556
O2 V1 2.007824 1_555
O2 V9 2.038266 1_455
O3 V1 1.891923 1_554
O3 V0 1.931303 1_555
O4 V1 1.980246 1_555
O4 V2 2.096078 1_555
O5 V5 2.092283 1_555
O5 V2 2.096229 1_555
O5 V1 2.097325 1_555
O6 V0 2.006641 1_555
O6 V4 2.041766 1_555
O7 V3 1.998491 1_555
O7 V0 2.072802 1_555
O8 V2 1.988159 1_555
O8 V5 2.066474 1_555
O9 V5 1.970960 1_555
O9 V1 2.101760 1_555
O10 V4 2.072213 1_555
O10 V3 2.079092 1_555
O10 V0 2.094925 1_555
O11 V4 2.009751 1_555
O11 V3 2.021772 1_555
O12 V5 1.816612 1_555
O12 V4 2.012010 1_555
O13 V8 1.991224 1_555
O13 V4 2.017328 1_555
O13 V5 2.017921 1_555
O14 V7 1.807902 1_555
O14 V3 2.018956 1_545
O15 V6 1.796162 1_555
O15 V3 2.045571 1_556
O16 V5 1.898893 1_555
O16 V8 1.925845 1_555
O17 V8 1.790389 1_555
O17 V4 2.070048 1_555
O18 V6 1.990250 1_554
O18 V7 2.010351 1_565
O18 V3 2.036220 1_555
O19 V7 1.890788 1_556
O19 V6 1.932222 1_545
O20 V7 1.980070 1_555
O20 V8 2.096584 1_555
O21 V11 2.091731 1_555
O21 V8 2.097427 1_555
O21 V7 2.098051 1_555
O22 V6 2.008090 1_555
O22 V10 2.039229 1_555
O23 V9 2.002402 1_555
O23 V6 2.071376 1_555
O24 V8 1.988324 1_555
O24 V11 2.065953 1_555
O25 V11 1.972177 1_555
O25 V7 2.100441 1_555
O26 V10 2.074867 1_555
O26 V9 2.078296 1_555
O26 V6 2.094854 1_555
O27 V10 2.009750 1_555
O27 V9 2.019250 1_555
O28 V11 1.816487 1_565
O28 V10 2.012817 1_555
O29 V2 1.992089 1_655
O29 V10 2.016984 1_545
O29 V11 2.017412 1_555
O30 V1 1.807683 1_655
O30 V9 2.019216 1_555
O31 V0 1.796191 1_655
O31 V9 2.044451 1_554
