# generated using pymatgen
data_Li2CoNiO4
_symmetry_space_group_name_H-M   'P 1'
_cell_length_a   4.09686336
_cell_length_b   4.08509184
_cell_length_c   8.38342672
_cell_angle_alpha   89.99998080
_cell_angle_beta   89.99947727
_cell_angle_gamma   89.99530749
_symmetry_Int_Tables_number   1
_chemical_formula_structural   Li2CoNiO4
_chemical_formula_sum   'Li4 Co2 Ni2 O8'
_cell_volume   140.30555770
_cell_formula_units_Z   2
loop_
 _symmetry_equiv_pos_site_id
 _symmetry_equiv_pos_as_xyz
  1  'x, y, z'
loop_
 _atom_site_type_symbol
 _atom_site_label
 _atom_site_symmetry_multiplicity
 _atom_site_fract_x
 _atom_site_fract_y
 _atom_site_fract_z
 _atom_site_occupancy
  Li  Li0  1  0.00000000  0.50000000  0.24920600  1
  Li  Li1  1  0.49999900  0.99999900  0.75000700  1
  Li  Li2  1  0.49999700  0.50000000  0.99865800  1
  Li  Li3  1  0.99999700  0.99999900  0.49901500  1
  Co  Co0  1  0.99999000  0.50000000  0.74961600  1
  Co  Co1  1  0.49999900  0.99999900  0.25050500  1
  Ni  Ni0  1  0.49999900  0.50000300  0.50077400  1
  Ni  Ni1  1  0.00000700  0.00000500  0.99929500  1
  O  O0  1  0.50000000  0.99999600  0.46732100  1
  O  O1  1  0.00001800  0.49999900  0.97330500  1
  O  O2  1  0.50000400  0.00000000  0.03319600  1
  O  O3  1  0.99998400  0.50000100  0.52907500  1
  O  O4  1  0.99999900  0.00000100  0.24104100  1
  O  O5  1  0.50000400  0.50000100  0.73698800  1
  O  O6  1  0.50000000  0.49999900  0.26322000  1
  O  O7  1  0.00000200  0.99999800  0.75877700  1
loop_
_geom_bond_atom_site_label_1
_geom_bond_atom_site_label_2
_geom_bond_distance
_geom_bond_site_symmetry_2
Li0 O4 2.043689 1_455
Li0 O4 2.043697 1_465
Li0 O6 2.051797 1_455
Li0 O6 2.051799 1_555
Li0 O1 2.312996 1_554
Li0 O3 2.346261 1_455
Li1 O5 2.045452 1_555
Li1 O5 2.045468 1_565
Li1 O7 2.049738 1_555
Li1 O7 2.049764 1_655
Li1 O0 2.369877 1_555
Li1 O2 2.374094 1_566
Li2 O1 2.059345 1_555
Li2 O1 2.059513 1_655
Li2 O2 2.062966 1_556
Li2 O2 2.062967 1_566
Li2 O5 2.193691 1_555
Li2 O6 2.217936 1_556
Li3 O3 2.058025 1_555
Li3 O3 2.058041 1_565
Li3 O0 2.065582 1_555
Li3 O0 2.065602 1_655
Li3 O4 2.162706 1_565
Li3 O7 2.177696 1_655
Co0 O3 1.848889 1_555
Co0 O1 1.875280 1_655
Co0 O7 2.043981 1_655
Co0 O7 2.043997 1_645
Co0 O5 2.051109 1_555
Co0 O5 2.051222 1_655
Co1 O0 1.817661 1_555
Co1 O2 1.821794 1_565
Co1 O6 2.045325 1_555
Co1 O6 2.045326 1_565
Co1 O4 2.049967 1_565
Co1 O4 2.049968 1_465
Ni0 O5 1.980283 1_555
Ni0 O6 1.991517 1_555
Ni0 O0 2.061681 1_555
Ni0 O0 2.061738 1_545
Ni0 O3 2.062067 1_555
Ni0 O3 2.062185 1_455
Ni1 O7 2.016365 1_545
Ni1 O4 2.026660 1_456
Ni1 O1 2.054110 1_555
Ni1 O1 2.054159 1_545
Ni1 O2 2.068044 1_556
Ni1 O2 2.068063 1_456
