# generated using pymatgen
data_NaNi2O3
_symmetry_space_group_name_H-M   'P 1'
_cell_length_a   5.33809756
_cell_length_b   5.26630637
_cell_length_c   9.00599635
_cell_angle_alpha   89.99738407
_cell_angle_beta   89.99886074
_cell_angle_gamma   69.92472131
_symmetry_Int_Tables_number   1
_chemical_formula_structural   NaNi2O3
_chemical_formula_sum   'Na4 Ni8 O12'
_cell_volume   237.79466282
_cell_formula_units_Z   4
loop_
 _symmetry_equiv_pos_site_id
 _symmetry_equiv_pos_as_xyz
  1  'x, y, z'
loop_
 _atom_site_type_symbol
 _atom_site_label
 _atom_site_symmetry_multiplicity
 _atom_site_fract_x
 _atom_site_fract_y
 _atom_site_fract_z
 _atom_site_occupancy
  Na  Na0  1  0.50000200  0.50000500  0.33037900  1
  Na  Na1  1  0.49999400  0.00000900  0.83012800  1
  Na  Na2  1  0.49999800  0.50000200  0.66962000  1
  Na  Na3  1  0.50000100  0.99999700  0.16987100  1
  Ni  Ni0  1  0.49999900  0.99999400  0.50000000  1
  Ni  Ni1  1  0.99998300  0.99999200  0.00000100  1
  Ni  Ni2  1  0.00000900  0.50001100  0.49999900  1
  Ni  Ni3  1  0.50000300  0.50000700  0.99999700  1
  Ni  Ni4  1  0.99997000  0.49996400  0.83531800  1
  Ni  Ni5  1  0.99999400  0.00002300  0.33641200  1
  Ni  Ni6  1  0.00002200  0.50004300  0.16468200  1
  Ni  Ni7  1  0.99999400  0.99997600  0.66358800  1
  O  O0  1  0.24323200  0.28735400  0.00000800  1
  O  O1  1  0.23402600  0.78306000  0.50000700  1
  O  O2  1  0.75676500  0.71265800  0.99999100  1
  O  O3  1  0.76597200  0.21694000  0.49999200  1
  O  O4  1  0.20982500  0.76591000  0.15133600  1
  O  O5  1  0.20883400  0.26031800  0.65107100  1
  O  O6  1  0.20982100  0.76588500  0.84868500  1
  O  O7  1  0.20884600  0.26032400  0.34894000  1
  O  O8  1  0.79017600  0.23408800  0.84866800  1
  O  O9  1  0.79119000  0.73966200  0.34893800  1
  O  O10  1  0.79017300  0.23411900  0.15131600  1
  O  O11  1  0.79117100  0.73965900  0.65105400  1
loop_
_geom_bond_atom_site_label_1
_geom_bond_atom_site_label_2
_geom_bond_distance
_geom_bond_site_symmetry_2
Na0 O3 2.262351 1_555
Na0 O1 2.262485 1_555
Na0 O7 2.320243 1_555
Na0 O9 2.320303 1_555
Na0 O4 2.339045 1_555
Na0 O10 2.339163 1_555
Na1 O2 2.254972 1_545
Na1 O0 2.255100 1_556
Na1 O8 2.293012 1_555
Na1 O6 2.293152 1_545
Na1 O5 2.330785 1_555
Na1 O11 2.331054 1_545
Na2 O1 2.262339 1_555
Na2 O3 2.262497 1_555
Na2 O11 2.320226 1_555
Na2 O5 2.320297 1_555
Na2 O8 2.339096 1_555
Na2 O6 2.339184 1_555
Na3 O0 2.254983 1_565
Na3 O2 2.255090 1_554
Na3 O4 2.293014 1_555
Na3 O10 2.293138 1_565
Na3 O7 2.330925 1_565
Na3 O9 2.330968 1_555
Ni0 O1 2.105828 1_555
Ni0 O3 2.105876 1_565
Ni0 O7 2.164037 1_565
Ni0 O11 2.164064 1_555
Ni0 O5 2.164159 1_565
Ni0 O9 2.164194 1_555
Ni1 O8 1.919302 1_564
Ni1 O10 1.919313 1_565
Ni1 O6 1.919327 1_654
Ni1 O4 1.919350 1_655
Ni1 O2 2.307401 1_554
Ni1 O0 2.307656 1_665
Ni2 O9 1.928813 1_455
Ni2 O11 1.928854 1_455
Ni2 O7 1.928971 1_555
Ni2 O5 1.928995 1_555
Ni2 O1 2.249626 1_555
Ni2 O3 2.249808 1_455
Ni3 O2 2.046092 1_555
Ni3 O0 2.046141 1_556
Ni3 O6 2.174378 1_555
Ni3 O10 2.174407 1_556
Ni3 O8 2.174579 1_555
Ni3 O4 2.174614 1_556
Ni4 O2 2.035016 1_555
Ni4 O0 2.035081 1_656
Ni4 O8 2.074999 1_555
Ni4 O6 2.075457 1_655
Ni4 O5 2.150197 1_655
Ni4 O11 2.150256 1_555
Ni5 O3 2.014015 1_555
Ni5 O1 2.014183 1_645
Ni5 O7 2.045492 1_655
Ni5 O9 2.045554 1_545
Ni5 O4 2.145914 1_645
Ni5 O10 2.145949 1_555
Ni6 O0 2.035026 1_555
Ni6 O2 2.035085 1_454
Ni6 O4 2.074993 1_555
Ni6 O10 2.075461 1_455
Ni6 O9 2.150147 1_455
Ni6 O7 2.150308 1_555
Ni7 O1 2.014043 1_655
Ni7 O3 2.014169 1_565
Ni7 O11 2.045447 1_555
Ni7 O5 2.045613 1_665
Ni7 O8 2.145918 1_565
Ni7 O6 2.145956 1_655
