# generated using pymatgen
data_Nb2Pb2O7
_symmetry_space_group_name_H-M   'P 1'
_cell_length_a   7.68445749
_cell_length_b   7.68445749
_cell_length_c   7.68445749
_cell_angle_alpha   60.00000000
_cell_angle_beta   60.00000000
_cell_angle_gamma   60.00000000
_symmetry_Int_Tables_number   1
_chemical_formula_structural   Nb2Pb2O7
_chemical_formula_sum   'Nb4 Pb4 O14'
_cell_volume   320.86669375
_cell_formula_units_Z   2
loop_
 _symmetry_equiv_pos_site_id
 _symmetry_equiv_pos_as_xyz
  1  'x, y, z'
loop_
 _atom_site_type_symbol
 _atom_site_label
 _atom_site_symmetry_multiplicity
 _atom_site_fract_x
 _atom_site_fract_y
 _atom_site_fract_z
 _atom_site_occupancy
  Nb  Nb0  1  0.12500000  0.62500000  0.12500000  1
  Nb  Nb1  1  0.12500000  0.12500000  0.62500000  1
  Nb  Nb2  1  0.62500000  0.12500000  0.12500000  1
  Nb  Nb3  1  0.12500000  0.12500000  0.12500000  1
  Pb  Pb0  1  0.62500000  0.62500000  0.62500000  1
  Pb  Pb1  1  0.12500000  0.62500000  0.62500000  1
  Pb  Pb2  1  0.62500000  0.12500000  0.62500000  1
  Pb  Pb3  1  0.62500000  0.62500000  0.12500000  1
  O  O0  1  0.75000000  0.75000000  0.75000000  1
  O  O1  1  0.18612500  0.81387500  0.81387500  1
  O  O2  1  0.18612500  0.81387500  0.18612500  1
  O  O3  1  0.81387500  0.81387500  0.18612500  1
  O  O4  1  0.81387500  0.18612500  0.81387500  1
  O  O5  1  0.18612500  0.18612500  0.81387500  1
  O  O6  1  0.43612500  0.06387500  0.06387500  1
  O  O7  1  0.81387500  0.18612500  0.18612500  1
  O  O8  1  0.06387500  0.43612500  0.06387500  1
  O  O9  1  0.06387500  0.06387500  0.43612500  1
  O  O10  1  0.43612500  0.43612500  0.06387500  1
  O  O11  1  0.43612500  0.06387500  0.43612500  1
  O  O12  1  0.06387500  0.43612500  0.43612500  1
  O  O13  1  0.50000000  0.50000000  0.50000000  1
loop_
_geom_bond_atom_site_label_1
_geom_bond_atom_site_label_2
_geom_bond_distance
_geom_bond_site_symmetry_2
Nb0 O10 2.032717 1_555
Nb0 O3 2.032717 1_455
Nb0 O12 2.032717 1_555
Nb0 O1 2.032717 1_554
Nb0 O8 2.032717 1_555
Nb0 O2 2.032717 1_555
Nb1 O11 2.032717 1_555
Nb1 O12 2.032717 1_555
Nb1 O4 2.032717 1_455
Nb1 O5 2.032717 1_555
Nb1 O9 2.032717 1_555
Nb1 O1 2.032717 1_545
Nb2 O4 2.032717 1_554
Nb2 O10 2.032717 1_555
Nb2 O11 2.032717 1_555
Nb2 O3 2.032717 1_545
Nb2 O7 2.032717 1_555
Nb2 O6 2.032717 1_555
Nb3 O2 2.032717 1_545
Nb3 O7 2.032717 1_455
Nb3 O5 2.032717 1_554
Nb3 O8 2.032717 1_555
Nb3 O9 2.032717 1_555
Nb3 O6 2.032717 1_555
O0 Pb2 2.352875 1_565
O0 Pb3 2.352875 1_556
O0 Pb0 2.352875 1_555
O0 Pb1 2.352875 1_655
O13 Pb2 2.352875 1_555
O13 Pb3 2.352875 1_555
O13 Pb1 2.352875 1_555
O13 Pb0 2.352875 1_555
