# generated using pymatgen
data_Li3Cu4NiO8
_symmetry_space_group_name_H-M   'P 1'
_cell_length_a   6.17974229
_cell_length_b   6.17974229
_cell_length_c   5.59176842
_cell_angle_alpha   64.72407506
_cell_angle_beta   64.72407506
_cell_angle_gamma   53.91705497
_symmetry_Int_Tables_number   1
_chemical_formula_structural   Li3Cu4NiO8
_chemical_formula_sum   'Li3 Cu4 Ni1 O8'
_cell_volume   151.49014388
_cell_formula_units_Z   1
loop_
 _symmetry_equiv_pos_site_id
 _symmetry_equiv_pos_as_xyz
  1  'x, y, z'
loop_
 _atom_site_type_symbol
 _atom_site_label
 _atom_site_symmetry_multiplicity
 _atom_site_fract_x
 _atom_site_fract_y
 _atom_site_fract_z
 _atom_site_occupancy
  Li  Li0  1  0.00000000  0.50000000  0.00000000  1
  Li  Li1  1  0.00000000  0.00000000  0.50000000  1
  Li  Li2  1  0.50000000  0.00000000  0.00000000  1
  Cu  Cu0  1  0.50000000  0.50000000  0.50000000  1
  Cu  Cu1  1  0.00000000  0.00000000  0.00000000  1
  Cu  Cu2  1  0.00000000  0.50000000  0.50000000  1
  Cu  Cu3  1  0.50000000  0.00000000  0.50000000  1
  Ni  Ni0  1  0.50000000  0.50000000  0.00000000  1
  O  O0  1  0.28081200  0.28081200  0.25577400  1
  O  O1  1  0.23067700  0.70411000  0.76988000  1
  O  O2  1  0.70411000  0.23067700  0.76988000  1
  O  O3  1  0.79900100  0.79900100  0.24011800  1
  O  O4  1  0.20099900  0.20100000  0.75988200  1
  O  O5  1  0.29589000  0.76932300  0.23012000  1
  O  O6  1  0.76932300  0.29589000  0.23012000  1
  O  O7  1  0.71918800  0.71918800  0.74422600  1
loop_
_geom_bond_atom_site_label_1
_geom_bond_atom_site_label_2
_geom_bond_distance
_geom_bond_site_symmetry_2
Li0 O1 2.108180 1_554
Li0 O6 2.108180 1_455
Li0 O0 2.141978 1_555
Li0 O7 2.141978 1_454
Li0 O4 2.179627 1_554
Li0 O3 2.179631 1_455
Li1 O2 2.015768 1_455
Li1 O1 2.015768 1_545
Li1 O6 2.015768 1_455
Li1 O5 2.015768 1_545
Li2 O5 2.108180 1_545
Li2 O2 2.108180 1_554
Li2 O0 2.141978 1_555
Li2 O7 2.141978 1_544
Li2 O4 2.179630 1_554
Li2 O3 2.179631 1_545
Cu0 O6 1.909525 1_555
Cu0 O5 1.909525 1_555
Cu0 O2 1.909525 1_555
Cu0 O1 1.909525 1_555
Cu1 O3 1.964047 1_445
Cu1 O4 1.964051 1_554
Cu1 O1 2.098548 1_544
Cu1 O5 2.098548 1_545
Cu1 O2 2.098548 1_454
Cu1 O6 2.098548 1_455
Cu2 O7 1.870374 1_455
Cu2 O0 1.870374 1_555
Cu2 O4 1.901001 1_555
Cu2 O3 1.901002 1_455
Cu3 O7 1.870374 1_545
Cu3 O0 1.870374 1_555
Cu3 O3 1.901002 1_545
Cu3 O4 1.901005 1_555
Ni0 O2 1.996714 1_554
Ni0 O5 1.996714 1_555
Ni0 O6 1.996714 1_555
Ni0 O1 1.996714 1_554
Ni0 O7 2.137168 1_554
Ni0 O0 2.137168 1_555
