# generated using pymatgen
data_Li4Mn3V3(WO8)2
_symmetry_space_group_name_H-M   'P 1'
_cell_length_a   6.09161356
_cell_length_b   6.09161356
_cell_length_c   9.84581671
_cell_angle_alpha   88.89121540
_cell_angle_beta   88.89121540
_cell_angle_gamma   60.14326630
_symmetry_Int_Tables_number   1
_chemical_formula_structural   Li4Mn3V3(WO8)2
_chemical_formula_sum   'Li4 Mn3 V3 W2 O16'
_cell_volume   316.78428477
_cell_formula_units_Z   1
loop_
 _symmetry_equiv_pos_site_id
 _symmetry_equiv_pos_as_xyz
  1  'x, y, z'
loop_
 _atom_site_type_symbol
 _atom_site_label
 _atom_site_symmetry_multiplicity
 _atom_site_fract_x
 _atom_site_fract_y
 _atom_site_fract_z
 _atom_site_occupancy
  Li  Li0  1  0.34022500  0.34022500  0.90950000  1
  Li  Li1  1  0.99323800  0.99323800  0.98713200  1
  Li  Li2  1  0.99426600  0.99426600  0.48774000  1
  Li  Li3  1  0.67153500  0.67153500  0.40511600  1
  Mn  Mn0  1  0.16847400  0.16847400  0.21090400  1
  Mn  Mn1  1  0.33812900  0.82947600  0.70859400  1
  Mn  Mn2  1  0.82947600  0.33812900  0.70859400  1
  V  V0  1  0.16376100  0.65705800  0.21605200  1
  V  V1  1  0.65705800  0.16376100  0.21605200  1
  V  V2  1  0.82542000  0.82542000  0.72367600  1
  W  W0  1  0.33400000  0.33400000  0.48653100  1
  W  W1  1  0.66310400  0.66310400  0.98897500  1
  O  O0  1  0.16849400  0.64480400  0.58884700  1
  O  O1  1  0.47967200  0.47967200  0.35040800  1
  O  O2  1  0.34422700  0.34422700  0.11009200  1
  O  O3  1  0.99234500  0.99234500  0.30152400  1
  O  O4  1  0.98553200  0.98553200  0.79798200  1
  O  O5  1  0.64480400  0.16849400  0.58884700  1
  O  O6  1  0.04461400  0.48949000  0.35173000  1
  O  O7  1  0.48949000  0.04461400  0.35173000  1
  O  O8  1  0.82140800  0.82140800  0.09427500  1
  O  O9  1  0.17131700  0.17131700  0.57705700  1
  O  O10  1  0.53897300  0.96062900  0.85446700  1
  O  O11  1  0.96062900  0.53897300  0.85446700  1
  O  O12  1  0.68846500  0.68846500  0.61032600  1
  O  O13  1  0.34447500  0.81910100  0.08489200  1
  O  O14  1  0.52659700  0.52659700  0.85742100  1
  O  O15  1  0.81910100  0.34447500  0.08489200  1
loop_
_geom_bond_atom_site_label_1
_geom_bond_atom_site_label_2
_geom_bond_distance
_geom_bond_site_symmetry_2
Li0 O2 1.976386 1_556
Li0 O14 2.019663 1_555
Li0 O10 2.083755 1_545
Li0 O11 2.083755 1_455
Li1 O4 1.865922 1_555
Li1 O8 2.075933 1_556
Li1 O15 2.099995 1_566
Li1 O13 2.099995 1_656
Li2 O3 1.834013 1_555
Li2 O9 2.081195 1_665
Li2 O5 2.087693 1_565
Li2 O0 2.087693 1_655
Li3 O12 2.032301 1_555
Li3 O6 2.034207 1_655
Li3 O7 2.034207 1_565
Li3 O1 2.104973 1_555
Mn0 O3 2.042154 1_445
Mn0 O2 2.082466 1_555
Mn0 O6 2.216121 1_555
Mn0 O7 2.216121 1_555
Mn0 O15 2.235408 1_455
Mn0 O13 2.235408 1_545
Mn1 O4 2.053754 1_455
Mn1 O12 2.086966 1_555
Mn1 O14 2.172737 1_555
Mn1 O9 2.210382 1_565
Mn1 O0 2.231434 1_555
Mn1 O10 2.298605 1_555
Mn2 O4 2.053754 1_545
Mn2 O12 2.086966 1_555
Mn2 O14 2.172737 1_555
Mn2 O9 2.210382 1_655
Mn2 O5 2.231434 1_555
Mn2 O11 2.298605 1_555
O0 W0 1.936447 1_555
O0 V2 2.236095 1_455
O1 W0 2.015713 1_555
O1 V1 2.143280 1_555
O1 V0 2.143280 1_555
O2 V1 1.968530 1_555
O2 V0 1.968530 1_555
O3 V0 1.969554 1_655
O3 V1 1.969554 1_565
O4 V2 1.854783 1_555
O5 W0 1.936447 1_555
O5 V2 2.236095 1_545
O6 V0 2.000153 1_555
O6 W0 2.036089 1_555
O7 V1 2.000153 1_555
O7 W0 2.036089 1_555
O8 W1 1.984443 1_554
O8 V0 2.181882 1_655
O8 V1 2.181882 1_565
O9 W0 1.915215 1_555
O10 V2 1.975994 1_555
O10 W1 2.047391 1_555
O11 V2 1.975994 1_555
O11 W1 2.047391 1_555
O12 V2 1.844617 1_555
O13 W1 1.920822 1_554
O13 V0 2.198058 1_555
O14 W1 1.957671 1_555
O15 W1 1.920822 1_554
O15 V1 2.198058 1_555
