# generated using pymatgen
data_Li2NiP2O7
_symmetry_space_group_name_H-M   'P 1'
_cell_length_a   7.15536282
_cell_length_b   9.98842729
_cell_length_c   8.77360533
_cell_angle_alpha   105.77037660
_cell_angle_beta   114.70379870
_cell_angle_gamma   71.07286511
_symmetry_Int_Tables_number   1
_chemical_formula_structural   Li2NiP2O7
_chemical_formula_sum   'Li8 Ni4 P8 O28'
_cell_volume   532.05475716
_cell_formula_units_Z   4
loop_
 _symmetry_equiv_pos_site_id
 _symmetry_equiv_pos_as_xyz
  1  'x, y, z'
loop_
 _atom_site_type_symbol
 _atom_site_label
 _atom_site_symmetry_multiplicity
 _atom_site_fract_x
 _atom_site_fract_y
 _atom_site_fract_z
 _atom_site_occupancy
  Li  Li0  1  0.20658300  0.11273300  0.00823700  1
  Li  Li1  1  0.70641000  0.61268900  0.00816500  1
  Li  Li2  1  0.79366500  0.88727900  0.99179500  1
  Li  Li3  1  0.29349000  0.38722400  0.99175700  1
  Li  Li4  1  0.47805700  0.16226500  0.75514600  1
  Li  Li5  1  0.97787000  0.66218100  0.75511800  1
  Li  Li6  1  0.52218900  0.83780800  0.24490100  1
  Li  Li7  1  0.02203900  0.33776600  0.24492800  1
  Ni  Ni0  1  0.65230200  0.50546900  0.33282300  1
  Ni  Ni1  1  0.84765000  0.99453600  0.66712700  1
  Ni  Ni2  1  0.15223500  0.00536300  0.33292100  1
  Ni  Ni3  1  0.34752300  0.49458000  0.66708300  1
  P  P0  1  0.44369500  0.20530500  0.39651700  1
  P  P1  1  0.94374800  0.70522400  0.39654600  1
  P  P2  1  0.55629300  0.79477300  0.60345400  1
  P  P3  1  0.05622100  0.29470900  0.60348200  1
  P  P4  1  0.65233500  0.18538800  0.14298500  1
  P  P5  1  0.15227800  0.68534700  0.14296300  1
  P  P6  1  0.34777000  0.81462700  0.85705600  1
  P  P7  1  0.84765800  0.31460200  0.85703000  1
  O  O0  1  0.84356800  0.86421700  0.44256800  1
  O  O1  1  0.34345300  0.36425500  0.44249000  1
  O  O2  1  0.15645000  0.13580600  0.55743100  1
  O  O3  1  0.65645000  0.63581100  0.55743300  1
  O  O4  1  0.56738700  0.12698500  0.54749000  1
  O  O5  1  0.06705600  0.62674800  0.54738000  1
  O  O6  1  0.43301700  0.87323600  0.45261000  1
  O  O7  1  0.93250300  0.37315000  0.45248400  1
  O  O8  1  0.26951800  0.13078900  0.25705700  1
  O  O9  1  0.76950000  0.63080700  0.25699900  1
  O  O10  1  0.73053100  0.86921100  0.74298400  1
  O  O11  1  0.23041700  0.36918300  0.74290200  1
  O  O12  1  0.14906800  0.93774900  0.83895300  1
  O  O13  1  0.64897600  0.43769600  0.83890400  1
  O  O14  1  0.85095100  0.06222300  0.16111100  1
  O  O15  1  0.35093200  0.56227600  0.16101600  1
  O  O16  1  0.45720300  0.15586100  0.98782900  1
  O  O17  1  0.95713700  0.65583700  0.98782400  1
  O  O18  1  0.54288100  0.84417800  0.01220600  1
  O  O19  1  0.04278400  0.34415000  0.01216900  1
  O  O20  1  0.60898600  0.19891500  0.31474700  1
  O  O21  1  0.10907700  0.69891200  0.31489500  1
  O  O22  1  0.39104100  0.80112400  0.68521600  1
  O  O23  1  0.89101300  0.30104600  0.68522500  1
  O  O24  1  0.81885300  0.16787700  0.85355400  1
  O  O25  1  0.31890700  0.66793100  0.85356600  1
  O  O26  1  0.18106900  0.83208700  0.14644400  1
  O  O27  1  0.68125700  0.33207500  0.14647700  1
loop_
_geom_bond_atom_site_label_1
_geom_bond_atom_site_label_2
_geom_bond_distance
_geom_bond_site_symmetry_2
Li0 O12 1.993694 1_544
Li0 O8 2.004492 1_555
Li0 O16 2.060324 1_554
Li0 O19 2.225039 1_555
Li0 O24 2.471853 1_454
Li1 O13 1.993572 1_554
Li1 O9 2.004306 1_555
Li1 O17 2.060875 1_554
Li1 O18 2.225237 1_555
Li1 O25 2.470425 1_554
Li2 O14 1.993223 1_566
Li2 O10 2.004113 1_555
Li2 O18 2.061342 1_556
Li2 O17 2.224781 1_555
Li2 O26 2.469901 1_656
Li3 O15 1.994012 1_556
Li3 O11 2.004611 1_555
Li3 O19 2.060664 1_556
Li3 O16 2.224454 1_555
Li3 O27 2.472117 1_556
Li4 O4 2.080939 1_555
Li4 O16 2.127380 1_555
Li4 O24 2.235514 1_555
Li4 O11 2.238019 1_555
Li4 O2 2.276678 1_555
Li5 O5 2.080735 1_655
Li5 O17 2.126977 1_555
Li5 O25 2.237482 1_655
Li5 O10 2.237794 1_555
Li5 O3 2.275410 1_555
Li6 O6 2.080438 1_555
Li6 O18 2.126822 1_555
Li6 O9 2.237513 1_555
Li6 O26 2.237954 1_555
Li6 O0 2.275239 1_555
Li7 O7 2.080836 1_455
Li7 O19 2.127608 1_555
Li7 O27 2.235608 1_455
Li7 O8 2.237908 1_555
Li7 O1 2.275327 1_555
Ni0 O7 2.035820 1_555
Ni0 O3 2.039824 1_555
Ni0 O15 2.049003 1_555
Ni0 O27 2.055893 1_555
Ni0 O9 2.076827 1_555
Ni1 O4 2.036620 1_565
Ni1 O0 2.039471 1_555
Ni1 O12 2.049263 1_655
Ni1 O24 2.055831 1_565
Ni1 O10 2.076495 1_555
Ni2 O6 2.037317 1_545
Ni2 O2 2.039431 1_555
Ni2 O14 2.048682 1_455
Ni2 O26 2.055755 1_545
Ni2 O8 2.078224 1_555
Ni3 O5 2.036280 1_555
Ni3 O1 2.039744 1_555
Ni3 O13 2.049542 1_555
Ni3 O25 2.055983 1_555
Ni3 O11 2.076800 1_555
O0 P1 1.534202 1_555
O1 P0 1.533884 1_555
O2 P3 1.533602 1_555
O3 P2 1.533909 1_555
O4 P0 1.511292 1_555
O5 P1 1.511094 1_455
O6 P2 1.511077 1_555
O7 P3 1.512155 1_655
O8 P0 1.560925 1_555
O9 P1 1.560971 1_555
O10 P2 1.560988 1_555
O11 P3 1.560679 1_555
O12 P6 1.530427 1_555
O13 P7 1.530176 1_555
O14 P4 1.530257 1_555
O15 P5 1.529971 1_555
O16 P4 1.532897 1_556
O17 P5 1.532826 1_656
O18 P6 1.532842 1_554
O19 P7 1.532855 1_454
O20 P0 1.597794 1_555
O20 P4 1.624275 1_555
O21 P1 1.597513 1_455
O21 P5 1.625073 1_555
O22 P2 1.597611 1_555
O22 P6 1.624697 1_555
O23 P3 1.597244 1_655
O23 P7 1.624603 1_555
O24 P7 1.535469 1_555
O25 P6 1.535326 1_555
O26 P5 1.535561 1_555
O27 P4 1.535415 1_555
