# generated using pymatgen
data_NaLi2FePCO7
_symmetry_space_group_name_H-M   'P 1'
_cell_length_a   5.11583429
_cell_length_b   17.22920127
_cell_length_c   6.60260991
_cell_angle_alpha   90.05154520
_cell_angle_beta   90.11583350
_cell_angle_gamma   84.31930257
_symmetry_Int_Tables_number   1
_chemical_formula_structural   NaLi2FePCO7
_chemical_formula_sum   'Na4 Li8 Fe4 P4 C4 O28'
_cell_volume   579.10614321
_cell_formula_units_Z   4
loop_
 _symmetry_equiv_pos_site_id
 _symmetry_equiv_pos_as_xyz
  1  'x, y, z'
loop_
 _atom_site_type_symbol
 _atom_site_label
 _atom_site_symmetry_multiplicity
 _atom_site_fract_x
 _atom_site_fract_y
 _atom_site_fract_z
 _atom_site_occupancy
  Na  Na0  1  0.26764600  0.13177500  0.00895700  1
  Na  Na1  1  0.26958300  0.63152700  0.00951000  1
  Na  Na2  1  0.73161200  0.36792300  0.51122800  1
  Na  Na3  1  0.72764500  0.86819900  0.51044900  1
  Li  Li0  1  0.78744800  0.05136600  0.26245600  1
  Li  Li1  1  0.79117700  0.55149900  0.26318000  1
  Li  Li2  1  0.21200300  0.44844900  0.76301600  1
  Li  Li3  1  0.21074400  0.94855700  0.76373000  1
  Li  Li4  1  0.27052000  0.13881500  0.48100200  1
  Li  Li5  1  0.27306500  0.63846000  0.48066000  1
  Li  Li6  1  0.72645100  0.36172000  0.98388000  1
  Li  Li7  1  0.72958600  0.86182300  0.98361800  1
  Fe  Fe0  1  0.78941300  0.66805100  0.74066800  1
  Fe  Fe1  1  0.21164400  0.83208800  0.24212100  1
  Fe  Fe2  1  0.78767300  0.16819300  0.74077400  1
  Fe  Fe3  1  0.21155800  0.33196300  0.24157800  1
  P  P0  1  0.72628900  0.20483800  0.24653500  1
  P  P1  1  0.72658000  0.70490800  0.24635400  1
  P  P2  1  0.27288800  0.29509900  0.74714300  1
  P  P3  1  0.27333600  0.79495500  0.74680400  1
  C  C0  1  0.68210100  0.02102200  0.75435100  1
  C  C1  1  0.68328500  0.52087100  0.75458900  1
  C  C2  1  0.31973200  0.47892300  0.25458600  1
  C  C3  1  0.31657500  0.97932600  0.25400700  1
  O  O0  1  0.39313900  0.04819400  0.27708300  1
  O  O1  1  0.39783400  0.54762100  0.27762900  1
  O  O2  1  0.60536500  0.45223300  0.77833000  1
  O  O3  1  0.60444700  0.95231700  0.77810000  1
  O  O4  1  0.92861800  0.03296300  0.75633100  1
  O  O5  1  0.92995800  0.53274400  0.75587400  1
  O  O6  1  0.07317300  0.46710500  0.25618900  1
  O  O7  1  0.07031400  0.96699400  0.25568300  1
  O  O8  1  0.50846000  0.08133600  0.72778900  1
  O  O9  1  0.50989000  0.58128600  0.72858100  1
  O  O10  1  0.49295100  0.41844700  0.22908200  1
  O  O11  1  0.49110300  0.91918300  0.22833700  1
  O  O12  1  0.79302000  0.15142200  0.05870100  1
  O  O13  1  0.79535700  0.65168200  0.05849800  1
  O  O14  1  0.20525100  0.34854200  0.55949400  1
  O  O15  1  0.20333100  0.84841900  0.55937700  1
  O  O16  1  0.84792500  0.15460700  0.42728500  1
  O  O17  1  0.84811300  0.65462800  0.42711500  1
  O  O18  1  0.15232100  0.34528700  0.92811700  1
  O  O19  1  0.15365800  0.84499200  0.92838600  1
  O  O20  1  0.42196800  0.21829300  0.27313100  1
  O  O21  1  0.42193400  0.71797700  0.27156000  1
  O  O22  1  0.57729000  0.28167100  0.77368400  1
  O  O23  1  0.57780100  0.78176800  0.77214500  1
  O  O24  1  0.15901800  0.21586300  0.73037500  1
  O  O25  1  0.16022500  0.71557800  0.73016100  1
  O  O26  1  0.84008600  0.28408100  0.23046300  1
  O  O27  1  0.83889500  0.78441600  0.23130700  1
loop_
_geom_bond_atom_site_label_1
_geom_bond_atom_site_label_2
_geom_bond_distance
_geom_bond_site_symmetry_2
Na0 O0 2.331717 1_555
Na0 O8 2.348130 1_554
Na0 O24 2.373249 1_554
Na0 O12 2.440999 1_455
Na0 O20 2.471918 1_555
Na0 O12 2.760919 1_555
Na1 O1 2.338030 1_555
Na1 O9 2.344530 1_554
Na1 O25 2.377447 1_554
Na1 O13 2.438682 1_455
Na1 O21 2.457508 1_555
Na1 O13 2.764285 1_555
Na2 O2 2.334868 1_555
Na2 O10 2.345673 1_555
Na2 O26 2.381549 1_555
Na2 O14 2.433344 1_655
Na2 O22 2.465155 1_555
Na2 O14 2.765098 1_555
Na3 O3 2.332317 1_555
Na3 O11 2.342846 1_555
Na3 O27 2.375153 1_555
Na3 O15 2.444466 1_655
Na3 O23 2.454934 1_555
Na3 O15 2.756796 1_555
Li0 O7 1.947542 1_645
Li0 O0 2.025860 1_555
Li0 O16 2.132654 1_555
Li0 O12 2.190096 1_555
Li1 O6 1.944856 1_655
Li1 O1 2.022432 1_555
Li1 O17 2.123977 1_555
Li1 O13 2.194945 1_555
Li2 O5 1.943821 1_455
Li2 O2 2.022193 1_555
Li2 O18 2.133764 1_555
Li2 O14 2.185700 1_555
Li3 O4 1.945427 1_465
Li3 O3 2.023591 1_555
Li3 O19 2.135186 1_555
Li3 O15 2.192523 1_555
Li4 O0 2.109448 1_555
Li4 O20 2.139354 1_555
Li4 O24 2.156047 1_555
Li4 O16 2.180452 1_455
Li4 O8 2.207659 1_555
Li5 O1 2.110890 1_555
Li5 O21 2.139449 1_555
Li5 O25 2.158816 1_555
Li5 O17 2.192253 1_455
Li5 O9 2.208248 1_555
Li6 O2 2.113464 1_555
Li6 O22 2.147362 1_555
Li6 O26 2.150374 1_556
Li6 O10 2.185657 1_556
Li6 O18 2.200751 1_655
Li7 O3 2.117730 1_555
Li7 O27 2.149060 1_556
Li7 O23 2.158506 1_555
Li7 O19 2.191391 1_655
Li7 O11 2.200529 1_556
Fe0 O17 2.101804 1_555
Fe0 O13 2.117382 1_556
Fe0 O25 2.140594 1_655
Fe0 O23 2.152697 1_555
Fe0 O9 2.169901 1_555
Fe0 O5 2.372760 1_555
Fe1 O19 2.100881 1_554
Fe1 O15 2.113232 1_555
Fe1 O27 2.150693 1_455
Fe1 O21 2.154434 1_555
Fe1 O11 2.174727 1_555
Fe1 O7 2.366526 1_555
Fe2 O16 2.102733 1_555
Fe2 O12 2.118952 1_556
Fe2 O24 2.144249 1_655
Fe2 O22 2.147500 1_555
Fe2 O8 2.170159 1_555
Fe2 O4 2.372018 1_555
Fe3 O18 2.100614 1_554
Fe3 O14 2.118046 1_555
Fe3 O26 2.146423 1_455
Fe3 O20 2.149436 1_555
Fe3 O10 2.173646 1_555
Fe3 O6 2.367581 1_555
C0 O3 1.295111 1_545
C0 O4 1.297792 1_555
C0 O8 1.310220 1_555
C1 O2 1.294556 1_555
C1 O5 1.298254 1_555
C1 O9 1.310249 1_555
C2 O1 1.294907 1_555
C2 O6 1.297494 1_555
C2 O10 1.310266 1_555
C3 O0 1.294586 1_565
C3 O7 1.298265 1_555
C3 O11 1.310267 1_555
O12 P0 1.561751 1_555
O13 P1 1.561745 1_555
O14 P2 1.562007 1_555
O15 P3 1.563054 1_555
O16 P0 1.566111 1_555
O17 P1 1.566421 1_555
O18 P2 1.565717 1_555
O19 P3 1.565912 1_555
O20 P0 1.561397 1_555
O21 P1 1.561693 1_555
O22 P2 1.561079 1_555
O23 P3 1.560342 1_555
O24 P2 1.540199 1_555
O25 P3 1.540583 1_555
O26 P0 1.540152 1_555
O27 P1 1.540399 1_555
