# generated using pymatgen
data_Li2MnFe(BO3)2
_symmetry_space_group_name_H-M   'P 1'
_cell_length_a   3.16563100
_cell_length_b   8.25522900
_cell_length_c   14.29695623
_cell_angle_alpha   89.97627530
_cell_angle_beta   90.00000000
_cell_angle_gamma   90.00000000
_symmetry_Int_Tables_number   1
_chemical_formula_structural   Li2MnFe(BO3)2
_chemical_formula_sum   'Li6 Mn3 Fe3 B6 O18'
_cell_volume   373.62245132
_cell_formula_units_Z   3
loop_
 _symmetry_equiv_pos_site_id
 _symmetry_equiv_pos_as_xyz
  1  'x, y, z'
loop_
 _atom_site_type_symbol
 _atom_site_label
 _atom_site_symmetry_multiplicity
 _atom_site_fract_x
 _atom_site_fract_y
 _atom_site_fract_z
 _atom_site_occupancy
  Li  Li0  1  0.50000000  0.70718400  0.01017400  1
  Li  Li1  1  0.50000000  0.66068800  0.64080200  1
  Li  Li2  1  0.50000000  0.63450500  0.34925100  1
  Li  Li3  1  0.50000000  0.20678600  0.50692500  1
  Li  Li4  1  0.50000000  0.15807400  0.14368000  1
  Li  Li5  1  0.50000000  0.13289100  0.84930700  1
  Mn  Mn0  1  0.00000000  0.80864600  0.82017800  1
  Mn  Mn1  1  0.00000000  0.36565400  0.99479900  1
  Mn  Mn2  1  0.00000000  0.32570600  0.68563400  1
  Fe  Fe0  1  0.00000000  0.86356200  0.49510300  1
  Fe  Fe1  1  0.00000000  0.82433700  0.18386500  1
  Fe  Fe2  1  0.00000000  0.31225300  0.32044500  1
  B  B0  1  0.50000000  0.99972200  0.33320500  1
  B  B1  1  0.00000000  0.00050500  0.00123000  1
  B  B2  1  0.50000000  0.99889600  0.66546500  1
  B  B3  1  0.50000000  0.50014200  0.83332200  1
  B  B4  1  0.00000000  0.49984700  0.49885900  1
  B  B5  1  0.50000000  0.50079100  0.16782400  1
  O  O0  1  0.50000000  0.98818300  0.56850300  1
  O  O1  1  0.50000000  0.98078800  0.23643400  1
  O  O2  1  0.50000000  0.86367400  0.39112100  1
  O  O3  1  0.50000000  0.85922500  0.71947900  1
  O  O4  1  0.00000000  0.84666900  0.04162700  1
  O  O5  1  0.50000000  0.65217300  0.87542200  1
  O  O6  1  0.50000000  0.65245400  0.21002500  1
  O  O7  1  0.00000000  0.63871800  0.55453200  1
  O  O8  1  0.00000000  0.51461100  0.40194700  1
  O  O9  1  0.50000000  0.48919600  0.07095000  1
  O  O10  1  0.50000000  0.48713100  0.73625800  1
  O  O11  1  0.50000000  0.36128700  0.88831900  1
  O  O12  1  0.50000000  0.36098000  0.22209000  1
  O  O13  1  0.00000000  0.34695000  0.53957700  1
  O  O14  1  0.50000000  0.15434500  0.37219100  1
  O  O15  1  0.50000000  0.14923600  0.70898900  1
  O  O16  1  0.00000000  0.13672700  0.05828300  1
  O  O17  1  0.00000000  0.01746500  0.90419000  1
loop_
_geom_bond_atom_site_label_1
_geom_bond_atom_site_label_2
_geom_bond_distance
_geom_bond_site_symmetry_2
Li0 O5 1.979527 1_554
Li0 O9 1.998014 1_555
Li0 O4 2.008446 1_655
Li0 O4 2.008446 1_555
Li1 O10 1.978295 1_555
Li1 O3 1.988219 1_555
Li1 O7 2.014859 1_555
Li1 O7 2.014859 1_655
Li2 O2 1.984526 1_555
Li2 O6 1.995954 1_555
Li2 O8 2.012933 1_555
Li2 O8 2.012933 1_655
Li3 O14 1.974508 1_555
Li3 O0 2.007584 1_545
Li3 O13 2.015571 1_655
Li3 O13 2.015571 1_555
Li4 O1 1.974556 1_545
Li4 O16 2.006783 1_555
Li4 O16 2.006783 1_655
Li4 O12 2.015935 1_555
Li5 O11 1.966449 1_555
Li5 O17 2.007071 1_555
Li5 O17 2.007071 1_655
Li5 O15 2.010597 1_555
Mn0 O17 2.101440 1_565
Mn0 O3 2.179874 1_455
Mn0 O3 2.179874 1_555
Mn0 O5 2.190164 1_455
Mn0 O5 2.190164 1_555
Mn1 O16 2.096159 1_556
Mn1 O9 2.175243 1_556
Mn1 O9 2.175243 1_456
Mn1 O11 2.196399 1_555
Mn1 O11 2.196399 1_455
Mn2 O13 2.095450 1_555
Mn2 O15 2.176847 1_555
Mn2 O15 2.176847 1_455
Mn2 O10 2.192206 1_555
Mn2 O10 2.192206 1_455
Fe0 O7 2.041043 1_555
Fe0 O0 2.160049 1_555
Fe0 O0 2.160049 1_455
Fe0 O2 2.171488 1_555
Fe0 O2 2.171488 1_455
Fe1 O4 2.041834 1_555
Fe1 O6 2.158268 1_555
Fe1 O6 2.158268 1_455
Fe1 O1 2.176936 1_555
Fe1 O1 2.176936 1_455
Fe2 O8 2.037151 1_555
Fe2 O12 2.154989 1_555
Fe2 O12 2.154989 1_455
Fe2 O14 2.179704 1_455
Fe2 O14 2.179704 1_555
B0 O1 1.392396 1_555
B0 O14 1.393048 1_565
B0 O2 1.395070 1_555
B1 O16 1.389496 1_555
B1 O17 1.394366 1_554
B1 O4 1.394897 1_545
B2 O3 1.387464 1_555
B2 O15 1.388580 1_565
B2 O0 1.389116 1_555
B3 O11 1.389771 1_555
B3 O10 1.391915 1_555
B3 O5 1.392144 1_555
B4 O13 1.389759 1_555
B4 O8 1.390847 1_555
B4 O7 1.395908 1_555
B5 O9 1.388347 1_555
B5 O6 1.390032 1_555
B5 O12 1.390430 1_555
