# generated using pymatgen
data_Li2Cr3FeO8
_symmetry_space_group_name_H-M   'P 1'
_cell_length_a   5.17209004
_cell_length_b   7.67448196
_cell_length_c   7.60514767
_cell_angle_alpha   81.69231832
_cell_angle_beta   70.57891614
_cell_angle_gamma   84.84790902
_symmetry_Int_Tables_number   1
_chemical_formula_structural   Li2Cr3FeO8
_chemical_formula_sum   'Li4 Cr6 Fe2 O16'
_cell_volume   281.42595127
_cell_formula_units_Z   2
loop_
 _symmetry_equiv_pos_site_id
 _symmetry_equiv_pos_as_xyz
  1  'x, y, z'
loop_
 _atom_site_type_symbol
 _atom_site_label
 _atom_site_symmetry_multiplicity
 _atom_site_fract_x
 _atom_site_fract_y
 _atom_site_fract_z
 _atom_site_occupancy
  Li  Li0  1  0.00147400  0.00172400  0.99480900  1
  Li  Li1  1  0.99618200  0.50547000  0.50014600  1
  Li  Li2  1  0.00398200  0.24374900  0.25012300  1
  Li  Li3  1  0.99754700  0.74806300  0.75614000  1
  Cr  Cr0  1  0.48468600  0.81462800  0.07679100  1
  Cr  Cr1  1  0.51513900  0.43558500  0.18679900  1
  Cr  Cr2  1  0.48470400  0.31439900  0.56302300  1
  Cr  Cr3  1  0.51659900  0.18610800  0.93510300  1
  Cr  Cr4  1  0.48385200  0.56396000  0.81449100  1
  Cr  Cr5  1  0.51526700  0.93573700  0.67251000  1
  Fe  Fe0  1  0.48806700  0.06053500  0.31399600  1
  Fe  Fe1  1  0.51159000  0.68933600  0.43681000  1
  O  O0  1  0.27928800  0.03509000  0.15184300  1
  O  O1  1  0.30643500  0.39540100  0.02820300  1
  O  O2  1  0.30235000  0.64279800  0.28732300  1
  O  O3  1  0.28263300  0.27676500  0.39578800  1
  O  O4  1  0.29512700  0.89558200  0.51892900  1
  O  O5  1  0.27819900  0.53680300  0.64384500  1
  O  O6  1  0.31233100  0.14478100  0.77303300  1
  O  O7  1  0.72110700  0.21309300  0.10629300  1
  O  O8  1  0.28778400  0.78583100  0.89415000  1
  O  O9  1  0.71713400  0.47369000  0.35417900  1
  O  O10  1  0.69900100  0.10746500  0.46242900  1
  O  O11  1  0.70439100  0.85430300  0.23133900  1
  O  O12  1  0.69344700  0.35440500  0.72173600  1
  O  O13  1  0.72145900  0.71522700  0.59814500  1
  O  O14  1  0.71240200  0.96441800  0.85531500  1
  O  O15  1  0.68782400  0.60505900  0.97670800  1
loop_
_geom_bond_atom_site_label_1
_geom_bond_atom_site_label_2
_geom_bond_distance
_geom_bond_site_symmetry_2
Li0 O7 2.147168 1_456
Li0 O6 2.147935 1_555
Li0 O14 2.159215 1_445
Li0 O8 2.167045 1_545
Li0 O11 2.182387 1_446
Li0 O0 2.202748 1_556
Li1 O2 2.083353 1_655
Li1 O13 2.097008 1_555
Li1 O5 2.139794 1_655
Li1 O9 2.140499 1_555
Li1 O12 2.154617 1_555
Li1 O3 2.249255 1_655
Li2 O10 2.074525 1_455
Li2 O0 2.092627 1_555
Li2 O3 2.139383 1_555
Li2 O7 2.143091 1_455
Li2 O1 2.157241 1_555
Li2 O9 2.256989 1_455
Li3 O15 2.140375 1_555
Li3 O5 2.148971 1_655
Li3 O8 2.157053 1_655
Li3 O14 2.164080 1_555
Li3 O4 2.186630 1_655
Li3 O13 2.199885 1_555
Cr0 O15 1.946382 1_554
Cr0 O2 1.949617 1_555
Cr0 O11 1.954276 1_555
Cr0 O0 1.967232 1_565
Cr0 O14 1.977388 1_554
Cr0 O8 2.021178 1_554
Cr1 O15 1.923879 1_554
Cr1 O1 1.936020 1_555
Cr1 O2 1.949888 1_555
Cr1 O9 1.960674 1_555
Cr1 O3 1.972376 1_555
Cr1 O7 1.991724 1_555
Cr2 O6 1.923782 1_555
Cr2 O12 1.936509 1_555
Cr2 O10 1.951132 1_555
Cr2 O3 1.958990 1_555
Cr2 O9 1.973668 1_555
Cr2 O5 1.992746 1_555
Cr3 O12 1.938411 1_555
Cr3 O1 1.940630 1_556
Cr3 O6 1.942967 1_555
Cr3 O14 1.966883 1_545
Cr3 O7 1.972243 1_556
Cr3 O0 1.981099 1_556
Cr4 O12 1.940448 1_555
Cr4 O1 1.941871 1_556
Cr4 O15 1.942196 1_555
Cr4 O8 1.968284 1_555
Cr4 O5 1.973580 1_555
Cr4 O13 1.981081 1_555
Cr5 O6 1.943782 1_565
Cr5 O10 1.949199 1_565
Cr5 O4 1.951153 1_555
Cr5 O13 1.967839 1_555
Cr5 O8 1.978116 1_555
Cr5 O14 2.022933 1_555
Fe0 O10 1.897710 1_555
Fe0 O4 1.910470 1_545
Fe0 O11 1.911477 1_545
Fe0 O0 1.928199 1_555
Fe0 O7 1.942057 1_555
Fe0 O3 1.952375 1_555
Fe1 O2 1.896353 1_555
Fe1 O4 1.910820 1_555
Fe1 O11 1.912549 1_555
Fe1 O13 1.928227 1_555
Fe1 O5 1.940054 1_555
Fe1 O9 1.950458 1_555
