# generated using pymatgen
data_LiCuCO3
_symmetry_space_group_name_H-M   'P 1'
_cell_length_a   9.18608074
_cell_length_b   9.18608074
_cell_length_c   9.18608074
_cell_angle_alpha   145.78722410
_cell_angle_beta   144.42721523
_cell_angle_gamma   50.18339021
_symmetry_Int_Tables_number   1
_chemical_formula_structural   LiCuCO3
_chemical_formula_sum   'Li4 Cu4 C4 O12'
_cell_volume   252.30934468
_cell_formula_units_Z   4
loop_
 _symmetry_equiv_pos_site_id
 _symmetry_equiv_pos_as_xyz
  1  'x, y, z'
loop_
 _atom_site_type_symbol
 _atom_site_label
 _atom_site_symmetry_multiplicity
 _atom_site_fract_x
 _atom_site_fract_y
 _atom_site_fract_z
 _atom_site_occupancy
  Li  Li0  1  0.75000000  0.00292987  0.25292987  1
  Li  Li1  1  0.75000000  0.50292987  0.75292987  1
  Li  Li2  1  0.25000000  0.49707013  0.24707013  1
  Li  Li3  1  0.25000000  0.99707013  0.74707013  1
  Cu  Cu0  1  0.86592788  0.25000000  0.11592788  1
  Cu  Cu1  1  0.63407212  0.75000000  0.38407212  1
  Cu  Cu2  1  0.36592788  0.25000000  0.61592788  1
  Cu  Cu3  1  0.13407212  0.75000000  0.88407212  1
  C  C0  1  0.89243922  0.14243922  0.75000000  1
  C  C1  1  0.60756078  0.35756078  0.25000000  1
  C  C2  1  0.39243922  0.64243922  0.75000000  1
  C  C3  1  0.10756078  0.85756078  0.25000000  1
  O  O0  1  0.97920141  0.27725119  0.04100681  1
  O  O1  1  0.97114633  0.22114633  0.75000000  1
  O  O2  1  0.73624438  0.93819360  0.45899319  1
  O  O3  1  0.76375562  0.22274881  0.20195022  1
  O  O4  1  0.47920141  0.43819360  0.70195022  1
  O  O5  1  0.52885367  0.27885367  0.25000000  1
  O  O6  1  0.47114633  0.72114633  0.75000000  1
  O  O7  1  0.52079859  0.56180640  0.29804978  1
  O  O8  1  0.23624438  0.77725119  0.79804978  1
  O  O9  1  0.26375562  0.06180640  0.54100681  1
  O  O10  1  0.02885367  0.77885367  0.25000000  1
  O  O11  1  0.02079859  0.72274881  0.95899319  1
loop_
_geom_bond_atom_site_label_1
_geom_bond_atom_site_label_2
_geom_bond_distance
_geom_bond_site_symmetry_2
Li0 O5 1.995425 1_555
Li0 O1 1.995425 1_555
Li0 O10 2.016751 1_645
Li0 O6 2.016751 1_544
Li0 O3 2.509934 1_555
Li0 O2 2.509942 1_545
Li1 O6 1.995425 1_555
Li1 O10 1.995425 1_656
Li1 O1 2.016751 1_555
Li1 O5 2.016751 1_555
Li1 O11 2.509934 1_655
Li1 O4 2.509941 1_555
Li2 O1 1.995425 1_454
Li2 O5 1.995425 1_555
Li2 O6 2.016751 1_555
Li2 O10 2.016751 1_555
Li2 O0 2.509934 1_455
Li2 O7 2.509941 1_555
Li3 O10 1.995425 1_555
Li3 O6 1.995425 1_555
Li3 O5 2.016751 1_566
Li3 O1 2.016751 1_465
Li3 O8 2.509934 1_555
Li3 O9 2.509942 1_565
Cu0 O3 1.844601 1_555
Cu0 O0 1.844601 1_555
Cu1 O2 1.844593 1_555
Cu1 O7 1.844593 1_555
Cu2 O9 1.844593 1_555
Cu2 O4 1.844593 1_555
Cu3 O8 1.844601 1_555
Cu3 O11 1.844601 1_555
C0 O0 1.279753 1_556
C0 O2 1.279757 1_545
C0 O1 1.309559 1_555
C1 O3 1.279753 1_555
C1 O7 1.279760 1_555
C1 O5 1.309559 1_555
C2 O8 1.279753 1_555
C2 O4 1.279760 1_555
C2 O6 1.309559 1_555
C3 O11 1.279753 1_554
C3 O9 1.279757 1_565
C3 O10 1.309559 1_555
