# generated using pymatgen
data_Li5VCr3O8
_symmetry_space_group_name_H-M   'P 1'
_cell_length_a   5.99921697
_cell_length_b   5.99921697
_cell_length_c   9.92874900
_cell_angle_alpha   90.00000000
_cell_angle_beta   90.00000000
_cell_angle_gamma   119.99998863
_symmetry_Int_Tables_number   1
_chemical_formula_structural   Li5VCr3O8
_chemical_formula_sum   'Li10 V2 Cr6 O16'
_cell_volume   309.46700457
_cell_formula_units_Z   2
loop_
 _symmetry_equiv_pos_site_id
 _symmetry_equiv_pos_as_xyz
  1  'x, y, z'
loop_
 _atom_site_type_symbol
 _atom_site_label
 _atom_site_symmetry_multiplicity
 _atom_site_fract_x
 _atom_site_fract_y
 _atom_site_fract_z
 _atom_site_occupancy
  Li  Li0  1  0.19532700  0.80467300  0.04729500  1
  Li  Li1  1  0.60934600  0.80467300  0.04729500  1
  Li  Li2  1  0.33333300  0.66666700  0.26139400  1
  Li  Li3  1  0.19532700  0.39065400  0.04729500  1
  Li  Li4  1  0.80467300  0.60934600  0.54729500  1
  Li  Li5  1  0.00000000  0.00000000  0.47110000  1
  Li  Li6  1  0.66666700  0.33333300  0.76139400  1
  Li  Li7  1  0.39065400  0.19532700  0.54729500  1
  Li  Li8  1  0.00000000  0.00000000  0.97110000  1
  Li  Li9  1  0.80467300  0.19532700  0.54729500  1
  V  V0  1  0.33333300  0.66666700  0.51146500  1
  V  V1  1  0.66666700  0.33333300  0.01146500  1
  Cr  Cr0  1  0.16815500  0.83184500  0.77283800  1
  Cr  Cr1  1  0.66369000  0.83184500  0.77283800  1
  Cr  Cr2  1  0.16815500  0.33631000  0.77283800  1
  Cr  Cr3  1  0.83184500  0.66369000  0.27283800  1
  Cr  Cr4  1  0.33631000  0.16815500  0.27283800  1
  Cr  Cr5  1  0.83184500  0.16815500  0.27283800  1
  O  O0  1  0.15978900  0.84021100  0.38825800  1
  O  O1  1  0.49209300  0.98418500  0.65570900  1
  O  O2  1  0.33333300  0.66666700  0.88783900  1
  O  O3  1  0.68042300  0.84021100  0.38825800  1
  O  O4  1  0.01581500  0.50790700  0.65570900  1
  O  O5  1  0.49209300  0.50790700  0.65570900  1
  O  O6  1  0.15978900  0.31957700  0.38825800  1
  O  O7  1  0.84021100  0.68042300  0.88825800  1
  O  O8  1  0.50790700  0.49209300  0.15570900  1
  O  O9  1  0.66666700  0.33333300  0.38783900  1
  O  O10  1  0.98418500  0.49209300  0.15570900  1
  O  O11  1  0.00000000  0.00000000  0.16097700  1
  O  O12  1  0.31957700  0.15978900  0.88825800  1
  O  O13  1  0.00000000  0.00000000  0.66097700  1
  O  O14  1  0.50790700  0.01581500  0.15570900  1
  O  O15  1  0.84021100  0.15978900  0.88825800  1
loop_
_geom_bond_atom_site_label_1
_geom_bond_atom_site_label_2
_geom_bond_distance
_geom_bond_site_symmetry_2
Li0 O14 1.975940 1_565
Li0 O10 1.975940 1_455
Li0 O2 2.136097 1_554
Li0 O11 2.322373 1_565
Li0 O7 2.449418 1_454
Li0 O12 2.449418 1_564
Li1 O8 1.975939 1_555
Li1 O14 1.975943 1_565
Li1 O2 2.136101 1_554
Li1 O11 2.322374 1_665
Li1 O7 2.449414 1_554
Li1 O15 2.449417 1_564
Li2 O8 2.095622 1_555
Li2 O14 2.095622 1_565
Li2 O10 2.095622 1_455
Li2 O0 2.199645 1_555
Li2 O6 2.199654 1_555
Li2 O3 2.199654 1_555
Li3 O8 1.975939 1_555
Li3 O10 1.975943 1_455
Li3 O2 2.136101 1_554
Li3 O11 2.322374 1_555
Li3 O12 2.449414 1_554
Li3 O15 2.449417 1_454
Li4 O5 1.975939 1_555
Li4 O4 1.975943 1_655
Li4 O9 2.136101 1_555
Li4 O13 2.322374 1_665
Li4 O3 2.449414 1_555
Li4 O0 2.449417 1_655
Li5 O3 1.852920 1_445
Li5 O6 1.852920 1_555
Li5 O0 1.852924 1_545
Li5 O13 1.885241 1_555
Li6 O5 2.095622 1_555
Li6 O4 2.095622 1_655
Li6 O1 2.095622 1_545
Li6 O15 2.199645 1_555
Li6 O12 2.199654 1_555
Li6 O7 2.199654 1_555
Li7 O5 1.975939 1_555
Li7 O1 1.975943 1_545
Li7 O9 2.136101 1_555
Li7 O13 2.322374 1_555
Li7 O6 2.449414 1_555
Li7 O0 2.449417 1_545
Li8 O12 1.852920 1_555
Li8 O7 1.852920 1_445
Li8 O15 1.852924 1_455
Li8 O11 1.885241 1_556
Li9 O4 1.975940 1_655
Li9 O1 1.975940 1_545
Li9 O9 2.136097 1_555
Li9 O13 2.322373 1_655
Li9 O3 2.449418 1_545
Li9 O6 2.449418 1_655
Cr0 O4 2.046535 1_555
Cr0 O1 2.046535 1_555
Cr0 O7 2.054738 1_455
Cr0 O12 2.054738 1_565
Cr0 O2 2.061461 1_555
Cr0 O13 2.070397 1_565
Cr1 O1 2.046530 1_555
Cr1 O5 2.046535 1_555
Cr1 O7 2.054734 1_555
Cr1 O15 2.054738 1_565
Cr1 O2 2.061466 1_555
Cr1 O13 2.070397 1_665
Cr2 O4 2.046530 1_555
Cr2 O5 2.046535 1_555
Cr2 O12 2.054734 1_555
Cr2 O15 2.054738 1_455
Cr2 O2 2.061466 1_555
Cr2 O13 2.070397 1_555
Cr3 O10 2.046530 1_555
Cr3 O8 2.046535 1_555
Cr3 O3 2.054734 1_555
Cr3 O0 2.054738 1_655
Cr3 O9 2.061466 1_555
Cr3 O11 2.070397 1_665
Cr4 O14 2.046530 1_555
Cr4 O8 2.046535 1_555
Cr4 O6 2.054734 1_555
Cr4 O0 2.054738 1_545
Cr4 O9 2.061466 1_555
Cr4 O11 2.070397 1_555
Cr5 O14 2.046535 1_555
Cr5 O10 2.046535 1_555
Cr5 O6 2.054738 1_655
Cr5 O3 2.054738 1_545
Cr5 O9 2.061461 1_555
Cr5 O11 2.070397 1_655
O0 V0 2.179056 1_555
O1 V0 2.184595 1_555
O3 V0 2.179065 1_555
O4 V0 2.184595 1_555
O5 V0 2.184603 1_555
O6 V0 2.179065 1_555
O7 V1 2.179065 1_556
O8 V1 2.184603 1_555
O10 V1 2.184595 1_555
O12 V1 2.179065 1_556
O14 V1 2.184595 1_555
O15 V1 2.179056 1_556
