# generated using pymatgen
data_Li3V2NiO6
_symmetry_space_group_name_H-M   'P 1'
_cell_length_a   6.55657433
_cell_length_b   6.55657433
_cell_length_c   5.94068895
_cell_angle_alpha   76.34226119
_cell_angle_beta   76.34226119
_cell_angle_gamma   26.30503681
_symmetry_Int_Tables_number   1
_chemical_formula_structural   Li3V2NiO6
_chemical_formula_sum   'Li3 V2 Ni1 O6'
_cell_volume   109.79512076
_cell_formula_units_Z   1
loop_
 _symmetry_equiv_pos_site_id
 _symmetry_equiv_pos_as_xyz
  1  'x, y, z'
loop_
 _atom_site_type_symbol
 _atom_site_label
 _atom_site_symmetry_multiplicity
 _atom_site_fract_x
 _atom_site_fract_y
 _atom_site_fract_z
 _atom_site_occupancy
  Li  Li0  1  0.00000000  0.00000000  0.00000000  1
  Li  Li1  1  0.66241500  0.66241500  0.66005100  1
  Li  Li2  1  0.33758500  0.33758500  0.33994900  1
  V  V0  1  0.66492500  0.66492500  0.16838400  1
  V  V1  1  0.33507500  0.33507500  0.83161600  1
  Ni  Ni0  1  0.00000000  0.00000000  0.50000000  1
  O  O0  1  0.16834000  0.16834000  0.39468700  1
  O  O1  1  0.82774900  0.82774900  0.07051300  1
  O  O2  1  0.83166000  0.83166000  0.60531300  1
  O  O3  1  0.48957700  0.48957700  0.75088000  1
  O  O4  1  0.51042300  0.51042300  0.24912000  1
  O  O5  1  0.17225100  0.17225100  0.92948700  1
loop_
_geom_bond_atom_site_label_1
_geom_bond_atom_site_label_2
_geom_bond_distance
_geom_bond_site_symmetry_2
Li0 O3 2.128207 1_454
Li0 O3 2.128207 1_544
Li0 O4 2.128207 1_545
Li0 O4 2.128207 1_455
Li0 O5 2.136925 1_554
Li0 O1 2.136925 1_445
Li1 O2 2.106029 1_555
Li1 O3 2.141135 1_555
Li1 O0 2.158438 1_655
Li1 O0 2.158438 1_565
Li1 O5 2.213842 1_565
Li1 O5 2.213842 1_655
Li2 O0 2.106029 1_555
Li2 O4 2.141135 1_555
Li2 O2 2.158438 1_455
Li2 O2 2.158438 1_545
Li2 O1 2.213842 1_545
Li2 O1 2.213842 1_455
Ni0 O2 2.088021 1_445
Ni0 O0 2.088021 1_555
Ni0 O4 2.090120 1_545
Ni0 O3 2.090120 1_455
Ni0 O4 2.090120 1_455
Ni0 O3 2.090120 1_545
O0 V0 2.015819 1_545
O0 V0 2.015819 1_455
O1 V0 2.018556 1_555
O1 V1 2.045562 1_564
O1 V1 2.045562 1_654
O2 V1 2.015819 1_565
O2 V1 2.015819 1_655
O3 V1 1.913983 1_555
O4 V0 1.913983 1_555
O5 V1 2.018556 1_555
O5 V0 2.045562 1_546
O5 V0 2.045562 1_456
