# generated using pymatgen
data_Na2FePCO7
_symmetry_space_group_name_H-M   'P 1'
_cell_length_a   5.29173120
_cell_length_b   13.05456629
_cell_length_c   8.96642442
_cell_angle_alpha   90.08537080
_cell_angle_beta   88.26542507
_cell_angle_gamma   89.96607925
_symmetry_Int_Tables_number   1
_chemical_formula_structural   Na2FePCO7
_chemical_formula_sum   'Na8 Fe4 P4 C4 O28'
_cell_volume   619.12721604
_cell_formula_units_Z   4
loop_
 _symmetry_equiv_pos_site_id
 _symmetry_equiv_pos_as_xyz
  1  'x, y, z'
loop_
 _atom_site_type_symbol
 _atom_site_label
 _atom_site_symmetry_multiplicity
 _atom_site_fract_x
 _atom_site_fract_y
 _atom_site_fract_z
 _atom_site_occupancy
  Na  Na0  1  0.76567400  0.11818400  0.08158000  1
  Na  Na1  1  0.76569100  0.61820700  0.08156500  1
  Na  Na2  1  0.23460900  0.36813000  0.91964200  1
  Na  Na3  1  0.23456500  0.86812700  0.91967600  1
  Na  Na4  1  0.25225400  0.23898700  0.26862800  1
  Na  Na5  1  0.25226300  0.73899700  0.26864100  1
  Na  Na6  1  0.74807100  0.48949200  0.73160100  1
  Na  Na7  1  0.74804800  0.98946900  0.73162500  1
  Fe  Fe0  1  0.78208000  0.88090900  0.34510100  1
  Fe  Fe1  1  0.21808900  0.63130800  0.65459100  1
  Fe  Fe2  1  0.78209300  0.38104800  0.34513800  1
  Fe  Fe3  1  0.21818800  0.13132900  0.65462500  1
  P  P0  1  0.72208800  0.12689700  0.42514500  1
  P  P1  1  0.72207600  0.62689200  0.42517200  1
  P  P2  1  0.27856700  0.37715600  0.57428900  1
  P  P3  1  0.27829500  0.87704200  0.57420500  1
  C  C0  1  0.72049700  0.37440700  0.06837600  1
  C  C1  1  0.72043400  0.87441500  0.06841100  1
  C  C2  1  0.27880000  0.12460700  0.93204600  1
  C  C3  1  0.27881400  0.62460400  0.93203900  1
  O  O0  1  0.31342400  0.13273700  0.07093500  1
  O  O1  1  0.31342300  0.63271700  0.07092200  1
  O  O2  1  0.68798500  0.38420400  0.92964800  1
  O  O3  1  0.68777400  0.88429000  0.92968800  1
  O  O4  1  0.94666400  0.37257100  0.12589500  1
  O  O5  1  0.94660900  0.87254600  0.12586900  1
  O  O6  1  0.05204300  0.12437000  0.87556100  1
  O  O7  1  0.05204500  0.62437800  0.87556400  1
  O  O8  1  0.53139200  0.36803900  0.16615500  1
  O  O9  1  0.53137000  0.86801100  0.16623900  1
  O  O10  1  0.46626000  0.11799300  0.83301500  1
  O  O11  1  0.46624900  0.61800700  0.83299600  1
  O  O12  1  0.77286600  0.03279800  0.32250200  1
  O  O13  1  0.77289700  0.53282100  0.32248200  1
  O  O14  1  0.22768500  0.28339600  0.67714500  1
  O  O15  1  0.22746400  0.78338600  0.67719300  1
  O  O16  1  0.78923800  0.22105600  0.32573200  1
  O  O17  1  0.78931900  0.72101100  0.32573800  1
  O  O18  1  0.21050300  0.47134700  0.67389500  1
  O  O19  1  0.21071000  0.97132400  0.67381000  1
  O  O20  1  0.12085700  0.37141700  0.43258000  1
  O  O21  1  0.12038500  0.87141100  0.43253700  1
  O  O22  1  0.88027500  0.12185000  0.56657300  1
  O  O23  1  0.88026800  0.62186800  0.56654200  1
  O  O24  1  0.43654400  0.13265900  0.47209200  1
  O  O25  1  0.43650500  0.63266400  0.47206300  1
  O  O26  1  0.56426400  0.38324500  0.52748800  1
  O  O27  1  0.56378400  0.88274700  0.52704300  1
loop_
_geom_bond_atom_site_label_1
_geom_bond_atom_site_label_2
_geom_bond_distance
_geom_bond_site_symmetry_2
Na0 O6 2.355078 1_654
Na0 O0 2.405387 1_555
Na0 O12 2.433631 1_555
Na0 O16 2.572837 1_555
Na0 O10 2.773343 1_554
Na0 O0 2.903572 1_655
Na1 O7 2.354898 1_654
Na1 O1 2.405436 1_555
Na1 O13 2.433594 1_555
Na1 O17 2.572561 1_555
Na1 O11 2.773461 1_554
Na1 O1 2.903440 1_655
Na2 O4 2.360973 1_456
Na2 O2 2.412788 1_555
Na2 O14 2.439337 1_555
Na2 O18 2.590917 1_555
Na2 O8 2.749949 1_556
Na2 O2 2.898734 1_455
Na3 O5 2.360592 1_456
Na3 O3 2.412013 1_555
Na3 O15 2.439306 1_555
Na3 O19 2.591592 1_555
Na3 O9 2.750387 1_556
Na3 O3 2.899698 1_455
Na4 O0 2.264552 1_555
Na4 O20 2.358491 1_555
Na4 O8 2.406198 1_555
Na4 O16 2.499062 1_455
Na4 O24 2.513891 1_555
Na4 O4 2.724451 1_455
Na4 O16 2.911899 1_555
Na5 O1 2.264966 1_555
Na5 O21 2.358733 1_555
Na5 O9 2.405519 1_555
Na5 O17 2.498748 1_455
Na5 O25 2.513546 1_555
Na5 O5 2.724535 1_455
Na5 O17 2.912317 1_555
Na6 O2 2.262145 1_555
Na6 O23 2.369068 1_555
Na6 O11 2.403273 1_555
Na6 O18 2.496850 1_655
Na6 O26 2.514190 1_555
Na6 O7 2.734347 1_655
Na6 O18 2.916417 1_555
Na7 O3 2.261508 1_555
Na7 O22 2.369121 1_565
Na7 O10 2.403230 1_565
Na7 O19 2.498208 1_655
Na7 O27 2.521704 1_555
Na7 O6 2.734422 1_665
Na7 O19 2.915426 1_555
Fe0 O27 1.970307 1_555
Fe0 O21 1.979871 1_655
Fe0 O12 1.994190 1_565
Fe0 O17 2.094581 1_555
Fe0 O9 2.118666 1_555
Fe0 O5 2.128300 1_555
Fe1 O25 1.974922 1_555
Fe1 O23 1.979799 1_455
Fe1 O15 1.996127 1_555
Fe1 O18 2.095947 1_555
Fe1 O11 2.107430 1_555
Fe1 O7 2.145032 1_555
Fe2 O26 1.971944 1_555
Fe2 O20 1.982229 1_655
Fe2 O13 1.992734 1_555
Fe2 O16 2.095827 1_555
Fe2 O8 2.119592 1_555
Fe2 O4 2.128549 1_555
Fe3 O24 1.974777 1_555
Fe3 O22 1.980288 1_455
Fe3 O14 1.995929 1_555
Fe3 O19 2.096421 1_545
Fe3 O10 2.107062 1_555
Fe3 O6 2.144950 1_555
C0 O2 1.267530 1_554
C0 O8 1.313070 1_555
C0 O4 1.317687 1_555
C1 O3 1.267720 1_554
C1 O9 1.313223 1_555
C1 O5 1.317505 1_555
C2 O0 1.268520 1_556
C2 O10 1.313888 1_555
C2 O6 1.316495 1_555
C3 O1 1.268435 1_556
C3 O11 1.313847 1_555
C3 O7 1.316517 1_555
O12 P0 1.552262 1_555
O13 P1 1.552256 1_555
O14 P2 1.552395 1_555
O15 P3 1.551981 1_555
O16 P0 1.554469 1_555
O17 P1 1.554267 1_555
O18 P2 1.554372 1_555
O19 P3 1.554766 1_555
O20 P2 1.542910 1_555
O21 P3 1.543134 1_555
O22 P0 1.541941 1_555
O23 P1 1.541507 1_555
O24 P0 1.557982 1_555
O25 P1 1.558004 1_555
O26 P2 1.558809 1_555
O27 P3 1.558278 1_555
