# generated using pymatgen
data_Fe4O3F5
_symmetry_space_group_name_H-M   'P 1'
_cell_length_a   5.69816381
_cell_length_b   10.17024793
_cell_length_c   5.70276117
_cell_angle_alpha   76.54180398
_cell_angle_beta   62.90477063
_cell_angle_gamma   94.14093399
_symmetry_Int_Tables_number   1
_chemical_formula_structural   Fe4O3F5
_chemical_formula_sum   'Fe8 O6 F10'
_cell_volume   280.00810800
_cell_formula_units_Z   2
loop_
 _symmetry_equiv_pos_site_id
 _symmetry_equiv_pos_as_xyz
  1  'x, y, z'
loop_
 _atom_site_type_symbol
 _atom_site_label
 _atom_site_symmetry_multiplicity
 _atom_site_fract_x
 _atom_site_fract_y
 _atom_site_fract_z
 _atom_site_occupancy
  Fe  Fe0  1  0.64491500  0.24488600  0.85673100  1
  Fe  Fe1  1  0.88281100  0.74728700  0.62202500  1
  Fe  Fe2  1  0.23639800  0.50458400  0.75244400  1
  Fe  Fe3  1  0.75953000  0.50041700  0.23783600  1
  Fe  Fe4  1  0.50173300  0.01696000  0.46222100  1
  Fe  Fe5  1  0.37326900  0.74157700  0.14524700  1
  Fe  Fe6  1  0.10640300  0.24446400  0.40962600  1
  Fe  Fe7  1  0.99616200  0.99325600  0.02200600  1
  O  O0  1  0.91760300  0.14376000  0.79852900  1
  O  O1  1  0.82296900  0.34911000  0.47904900  1
  O  O2  1  0.68698900  0.65593400  0.00130600  1
  O  O3  1  0.15486800  0.65085200  0.54093200  1
  O  O4  1  0.42565500  0.16188300  0.24700800  1
  O  O5  1  0.06411800  0.84437600  0.24861800  1
  F  F0  1  0.84757700  0.39522900  0.95110400  1
  F  F1  1  0.58629700  0.85231800  0.70717700  1
  F  F2  1  0.32817600  0.34995800  0.96868500  1
  F  F3  1  0.90033900  0.10169700  0.31000300  1
  F  F4  1  0.63619300  0.59580000  0.54488700  1
  F  F5  1  0.39954900  0.09434100  0.79486700  1
  F  F6  1  0.11242500  0.90520400  0.70513700  1
  F  F7  1  0.35023800  0.40331400  0.45180700  1
  F  F8  1  0.59367400  0.89503800  0.20083200  1
  F  F9  1  0.15934500  0.60168300  0.05357200  1
loop_
_geom_bond_atom_site_label_1
_geom_bond_atom_site_label_2
_geom_bond_distance
_geom_bond_site_symmetry_2
Fe0 O0 1.871410 1_555
Fe0 O1 1.892962 1_555
Fe0 O4 1.914995 1_556
Fe1 O3 1.832104 1_655
Fe1 O5 1.856553 1_655
Fe1 O2 1.871621 1_556
Fe2 O3 1.912776 1_555
Fe3 O1 1.984664 1_555
Fe3 O2 2.025139 1_555
Fe4 O4 1.897770 1_555
Fe5 O3 1.949059 1_555
Fe5 O2 1.961899 1_555
Fe5 O5 2.037316 1_555
Fe6 O0 1.932656 1_455
Fe6 O1 1.939001 1_455
Fe6 O4 1.980181 1_555
Fe7 O5 1.934521 1_655
Fe7 O0 1.969296 1_564
F0 Fe2 2.049460 1_655
F0 Fe3 2.052890 1_556
F0 Fe0 2.157617 1_555
F1 Fe1 1.996557 1_555
F1 Fe4 2.151347 1_565
F1 Fe5 2.171049 1_556
F2 Fe2 2.017622 1_555
F2 Fe0 2.086478 1_555
F2 Fe6 2.173682 1_556
F3 Fe4 2.056250 1_555
F3 Fe7 2.079677 1_545
F3 Fe6 2.134278 1_655
F4 Fe2 2.044189 1_555
F4 Fe3 2.066202 1_555
F4 Fe1 2.260054 1_555
F5 Fe4 2.076509 1_555
F5 Fe7 2.084423 1_446
F5 Fe0 2.194324 1_555
F6 Fe4 2.058036 1_565
F6 Fe7 2.062662 1_456
F6 Fe1 2.265318 1_455
F7 Fe2 2.079967 1_555
F7 Fe3 2.101790 1_555
F7 Fe6 2.181624 1_555
F8 Fe4 2.068043 1_565
F8 Fe7 2.088563 1_555
F8 Fe5 2.103218 1_555
F9 Fe2 2.069324 1_554
F9 Fe3 2.081291 1_455
F9 Fe5 2.111809 1_555
