# generated using pymatgen
data_Hg2W2O7
_symmetry_space_group_name_H-M   'P 1'
_cell_length_a   3.85226163
_cell_length_b   6.15175627
_cell_length_c   14.53699775
_cell_angle_alpha   75.19835941
_cell_angle_beta   90.00000000
_cell_angle_gamma   90.00000000
_symmetry_Int_Tables_number   1
_chemical_formula_structural   Hg2W2O7
_chemical_formula_sum   'Hg4 W4 O14'
_cell_volume   333.06843819
_cell_formula_units_Z   2
loop_
 _symmetry_equiv_pos_site_id
 _symmetry_equiv_pos_as_xyz
  1  'x, y, z'
loop_
 _atom_site_type_symbol
 _atom_site_label
 _atom_site_symmetry_multiplicity
 _atom_site_fract_x
 _atom_site_fract_y
 _atom_site_fract_z
 _atom_site_occupancy
  Hg  Hg0  1  0.66825229  0.35267090  0.06225787  1
  Hg  Hg1  1  0.33174771  0.35267090  0.56225787  1
  Hg  Hg2  1  0.66825229  0.64732910  0.43774213  1
  Hg  Hg3  1  0.33174771  0.64732910  0.93774213  1
  W  W0  1  0.97668340  0.81086466  0.68584010  1
  W  W1  1  0.97668340  0.18913534  0.81415990  1
  W  W2  1  0.02331660  0.81086466  0.18584010  1
  W  W3  1  0.02331660  0.18913534  0.31415990  1
  O  O0  1  0.01252589  0.79534936  0.56844351  1
  O  O1  1  0.49153218  0.18978356  0.30011405  1
  O  O2  1  0.02242461  0.50000000  0.75000000  1
  O  O3  1  0.98275133  0.13331861  0.16803089  1
  O  O4  1  0.01252589  0.20465064  0.93155649  1
  O  O5  1  0.98275133  0.86668139  0.33196911  1
  O  O6  1  0.50846782  0.18978356  0.80011405  1
  O  O7  1  0.49153218  0.81021644  0.19988595  1
  O  O8  1  0.01724867  0.13331861  0.66803089  1
  O  O9  1  0.98747411  0.79534936  0.06844351  1
  O  O10  1  0.01724867  0.86668139  0.83196911  1
  O  O11  1  0.97757539  0.50000000  0.25000000  1
  O  O12  1  0.50846782  0.81021644  0.69988595  1
  O  O13  1  0.98747411  0.20465064  0.43155649  1
loop_
_geom_bond_atom_site_label_1
_geom_bond_atom_site_label_2
_geom_bond_distance
_geom_bond_site_symmetry_2
Hg0 O3 2.143089 1_555
Hg1 O8 2.143089 1_555
Hg2 O5 2.143089 1_555
Hg3 O10 2.143089 1_555
O0 W0 1.738926 1_455
O1 W3 1.815099 1_555
O1 W3 2.058626 1_655
O2 W1 1.909646 1_455
O2 W0 1.909646 1_455
O3 W2 1.940089 1_645
O3 W3 2.242224 1_655
O4 W1 1.738926 1_455
O5 W3 1.940089 1_665
O5 W2 2.242224 1_655
O6 W1 1.815099 1_555
O6 W1 2.058626 1_455
O7 W2 1.815099 1_555
O7 W2 2.058626 1_655
O8 W0 1.940089 1_445
O8 W1 2.242224 1_455
O9 W2 1.738926 1_655
O10 W1 1.940089 1_465
O10 W0 2.242224 1_455
O11 W2 1.909646 1_655
O11 W3 1.909646 1_655
O12 W0 1.815099 1_555
O12 W0 2.058626 1_455
O13 W3 1.738926 1_655
