# generated using pymatgen
data_LiMn3Al2(HO2)6
_symmetry_space_group_name_H-M   'P 1'
_cell_length_a   5.99564400
_cell_length_b   7.85043147
_cell_length_c   10.52153695
_cell_angle_alpha   105.51094530
_cell_angle_beta   106.13106026
_cell_angle_gamma   101.19591195
_symmetry_Int_Tables_number   1
_chemical_formula_structural   LiMn3Al2(HO2)6
_chemical_formula_sum   'Li2 Mn6 Al4 H12 O24'
_cell_volume   438.70392890
_cell_formula_units_Z   2
loop_
 _symmetry_equiv_pos_site_id
 _symmetry_equiv_pos_as_xyz
  1  'x, y, z'
loop_
 _atom_site_type_symbol
 _atom_site_label
 _atom_site_symmetry_multiplicity
 _atom_site_fract_x
 _atom_site_fract_y
 _atom_site_fract_z
 _atom_site_occupancy
  Li  Li0  1  0.07952300  0.84408500  0.49862800  1
  Li  Li1  1  0.92047700  0.15591500  0.50137200  1
  Mn  Mn0  1  0.82639000  0.83210200  0.99633400  1
  Mn  Mn1  1  0.32873100  0.83140800  0.99877400  1
  Mn  Mn2  1  0.17361000  0.16789800  0.00366600  1
  Mn  Mn3  1  0.00000000  0.50000000  0.00000000  1
  Mn  Mn4  1  0.67126900  0.16859200  0.00122600  1
  Mn  Mn5  1  0.50000000  0.50000000  0.00000000  1
  Al  Al0  1  0.58746400  0.83839300  0.49716100  1
  Al  Al1  1  0.41253600  0.16160700  0.50283900  1
  Al  Al2  1  0.75687500  0.50130700  0.50117100  1
  Al  Al3  1  0.24312500  0.49869300  0.49882900  1
  H  H0  1  0.25005800  0.86059800  0.29123300  1
  H  H1  1  0.74994200  0.13940200  0.70876700  1
  H  H2  1  0.70980800  0.84338000  0.29030400  1
  H  H3  1  0.59142600  0.48737400  0.70802000  1
  H  H4  1  0.29019200  0.15662000  0.70969600  1
  H  H5  1  0.56380500  0.19440500  0.30141300  1
  H  H6  1  0.10375600  0.49292700  0.70934800  1
  H  H7  1  0.40857400  0.51262600  0.29198000  1
  H  H8  1  0.08507100  0.19426200  0.29671100  1
  H  H9  1  0.91492900  0.80573800  0.70328900  1
  H  H10  1  0.89624400  0.50707300  0.29065200  1
  H  H11  1  0.43619500  0.80559500  0.69858700  1
  O  O0  1  0.04932100  0.89898000  0.89721100  1
  O  O1  1  0.31863800  0.90704700  0.39456600  1
  O  O2  1  0.68136200  0.09295300  0.60543400  1
  O  O3  1  0.89201600  0.23158800  0.89871800  1
  O  O4  1  0.55017700  0.90230400  0.89624700  1
  O  O5  1  0.77402500  0.88268900  0.39275000  1
  O  O6  1  0.95067900  0.10102000  0.10278900  1
  O  O7  1  0.53634800  0.43701900  0.60334800  1
  O  O8  1  0.38951700  0.23256900  0.90076000  1
  O  O9  1  0.22597500  0.11731100  0.60725000  1
  O  O10  1  0.44982300  0.09769600  0.10375300  1
  O  O11  1  0.61716400  0.24589800  0.40423300  1
  O  O12  1  0.04217600  0.46092900  0.60636600  1
  O  O13  1  0.21633700  0.56072000  0.89781000  1
  O  O14  1  0.31117800  0.42670000  0.11029200  1
  O  O15  1  0.15667700  0.24259500  0.39966000  1
  O  O16  1  0.46365200  0.56298100  0.39665200  1
  O  O17  1  0.84332300  0.75740500  0.60034000  1
  O  O18  1  0.68882200  0.57330000  0.88970800  1
  O  O19  1  0.10798400  0.76841200  0.10128200  1
  O  O20  1  0.78366300  0.43928000  0.10219000  1
  O  O21  1  0.95782400  0.53907100  0.39363400  1
  O  O22  1  0.38283600  0.75410200  0.59576700  1
  O  O23  1  0.61048300  0.76743100  0.09924000  1
loop_
_geom_bond_atom_site_label_1
_geom_bond_atom_site_label_2
_geom_bond_distance
_geom_bond_site_symmetry_2
Li0 O5 1.987488 1_455
Li0 O9 2.019360 1_565
Li0 O1 2.094027 1_555
Li0 O17 2.114533 1_455
Li0 O22 2.168630 1_555
Li0 O21 2.223783 1_455
Li1 O9 1.987488 1_655
Li1 O5 2.019360 1_545
Li1 O2 2.094027 1_555
Li1 O15 2.114533 1_655
Li1 O11 2.168630 1_555
Li1 O12 2.223783 1_655
Mn0 O18 1.919044 1_555
Mn0 O4 1.962403 1_555
Mn0 O19 1.976597 1_656
Mn0 O23 1.980759 1_556
Mn0 O6 1.981740 1_566
Mn0 O0 1.986160 1_655
Mn1 O23 1.960735 1_556
Mn1 O10 1.961443 1_566
Mn1 O0 1.970603 1_555
Mn1 O13 1.984202 1_555
Mn1 O19 1.995956 1_556
Mn1 O4 2.016503 1_555
Mn2 O14 1.919044 1_555
Mn2 O10 1.962403 1_555
Mn2 O3 1.976597 1_454
Mn2 O8 1.980759 1_554
Mn2 O0 1.981740 1_544
Mn2 O6 1.986160 1_455
Mn3 O13 1.968413 1_554
Mn3 O20 1.968413 1_455
Mn3 O19 1.969954 1_555
Mn3 O3 1.969954 1_454
Mn3 O18 2.174773 1_454
Mn3 O14 2.174773 1_555
Mn4 O8 1.960735 1_554
Mn4 O4 1.961443 1_544
Mn4 O6 1.970603 1_555
Mn4 O20 1.984202 1_555
Mn4 O3 1.995956 1_554
Mn4 O10 2.016503 1_555
Mn5 O14 1.947717 1_555
Mn5 O18 1.947717 1_554
Mn5 O23 1.959564 1_555
Mn5 O8 1.959564 1_554
Mn5 O20 1.961789 1_555
Mn5 O13 1.961789 1_554
Al0 O5 1.820718 1_555
Al0 O2 1.896696 1_565
Al0 O1 1.932687 1_555
Al0 O17 1.938699 1_555
Al0 O22 1.943887 1_555
Al0 O16 2.015365 1_555
Al1 O9 1.820718 1_555
Al1 O1 1.896696 1_545
Al1 O2 1.932687 1_555
Al1 O15 1.938699 1_555
Al1 O11 1.943887 1_555
Al1 O7 2.015365 1_555
Al2 O11 1.881888 1_555
Al2 O17 1.890035 1_555
Al2 O12 1.896763 1_655
Al2 O21 1.902067 1_555
Al2 O7 1.994892 1_555
Al2 O16 2.018800 1_555
Al3 O22 1.881888 1_555
Al3 O15 1.890035 1_555
Al3 O21 1.896763 1_455
Al3 O12 1.902067 1_555
Al3 O16 1.994892 1_555
Al3 O7 2.018800 1_555
H0 O1 0.982555 1_555
H1 O2 0.982555 1_555
H2 O5 0.975020 1_555
H3 O7 0.996280 1_555
H3 O18 1.728419 1_555
H4 O9 0.975020 1_555
H5 O11 0.979627 1_555
H6 O12 0.984665 1_555
H7 O16 0.996280 1_555
H7 O14 1.728419 1_555
H8 O15 0.979840 1_555
H9 O17 0.979840 1_555
H10 O21 0.984665 1_555
H11 O22 0.979627 1_555
