# generated using pymatgen
data_LiCu2(SO4)3
_symmetry_space_group_name_H-M   'P 1'
_cell_length_a   8.65714800
_cell_length_b   8.38102000
_cell_length_c   14.61201251
_cell_angle_alpha   56.49279647
_cell_angle_beta   90.00000000
_cell_angle_gamma   90.00000000
_symmetry_Int_Tables_number   1
_chemical_formula_structural   LiCu2(SO4)3
_chemical_formula_sum   'Li4 Cu8 S12 O48'
_cell_volume   883.99986608
_cell_formula_units_Z   4
loop_
 _symmetry_equiv_pos_site_id
 _symmetry_equiv_pos_as_xyz
  1  'x, y, z'
loop_
 _atom_site_type_symbol
 _atom_site_label
 _atom_site_symmetry_multiplicity
 _atom_site_fract_x
 _atom_site_fract_y
 _atom_site_fract_z
 _atom_site_occupancy
  Li  Li0  1  0.71757500  0.63105000  0.18100800  1
  Li  Li1  1  0.21757500  0.36895000  0.31899200  1
  Li  Li2  1  0.78242500  0.63105000  0.68100800  1
  Li  Li3  1  0.28242500  0.36895000  0.81899200  1
  Cu  Cu0  1  0.96549200  0.13396400  0.61477300  1
  Cu  Cu1  1  0.53944800  0.35375700  0.39488500  1
  Cu  Cu2  1  0.46549200  0.86603600  0.88522700  1
  Cu  Cu3  1  0.03944800  0.64624300  0.10511500  1
  Cu  Cu4  1  0.96055200  0.35375700  0.89488500  1
  Cu  Cu5  1  0.53450800  0.13396400  0.11477300  1
  Cu  Cu6  1  0.46055200  0.64624300  0.60511500  1
  Cu  Cu7  1  0.03450800  0.86603600  0.38522700  1
  S  S0  1  0.24832000  0.47277500  0.49430100  1
  S  S1  1  0.11609100  0.05200900  0.84641500  1
  S  S2  1  0.38768600  0.75063600  0.14156100  1
  S  S3  1  0.88768600  0.24936400  0.35843900  1
  S  S4  1  0.61609100  0.94799100  0.65358500  1
  S  S5  1  0.74832000  0.52722500  0.00569900  1
  S  S6  1  0.25168000  0.47277500  0.99430100  1
  S  S7  1  0.38390900  0.05200900  0.34641500  1
  S  S8  1  0.11231400  0.75063600  0.64156100  1
  S  S9  1  0.61231400  0.24936400  0.85843900  1
  S  S10  1  0.88390900  0.94799100  0.15358500  1
  S  S11  1  0.75168000  0.52722500  0.50569900  1
  O  O0  1  0.62937600  0.51459100  0.43894500  1
  O  O1  1  0.63058000  0.05506900  0.88123500  1
  O  O2  1  0.91944700  0.75081600  0.17802000  1
  O  O3  1  0.80864500  0.33732700  0.59669500  1
  O  O4  1  0.12661700  0.34828200  0.57152900  1
  O  O5  1  0.28563500  0.06292000  0.82423100  1
  O  O6  1  0.08155600  0.90552900  0.96078900  1
  O  O7  1  0.50745100  0.63969300  0.22578000  1
  O  O8  1  0.31671700  0.38195600  0.43884900  1
  O  O9  1  0.23748600  0.64447900  0.18473300  1
  O  O10  1  0.43510200  0.75400300  0.04301600  1
  O  O11  1  0.02184900  0.01769100  0.77442500  1
  O  O12  1  0.52184900  0.98230900  0.72557500  1
  O  O13  1  0.93510200  0.24599700  0.45698400  1
  O  O14  1  0.73748600  0.35552100  0.31526700  1
  O  O15  1  0.81671700  0.61804400  0.06115100  1
  O  O16  1  0.58155600  0.09447100  0.53921100  1
  O  O17  1  0.00745100  0.36030700  0.27422000  1
  O  O18  1  0.78563500  0.93708000  0.67576900  1
  O  O19  1  0.62661700  0.65171800  0.92847100  1
  O  O20  1  0.30864500  0.66267300  0.90330500  1
  O  O21  1  0.13058000  0.94493100  0.61876500  1
  O  O22  1  0.41944700  0.24918400  0.32198000  1
  O  O23  1  0.12937600  0.48540900  0.06105500  1
  O  O24  1  0.87062400  0.51459100  0.93894500  1
  O  O25  1  0.58055300  0.75081600  0.67802000  1
  O  O26  1  0.86942000  0.05506900  0.38123500  1
  O  O27  1  0.69135500  0.33732700  0.09669500  1
  O  O28  1  0.37338300  0.34828200  0.07152900  1
  O  O29  1  0.21436500  0.06292000  0.32423100  1
  O  O30  1  0.99254900  0.63969300  0.72578000  1
  O  O31  1  0.41844400  0.90552900  0.46078900  1
  O  O32  1  0.18328300  0.38195600  0.93884900  1
  O  O33  1  0.26251400  0.64447900  0.68473300  1
  O  O34  1  0.06489800  0.75400300  0.54301600  1
  O  O35  1  0.47815100  0.01769100  0.27442500  1
  O  O36  1  0.97815100  0.98230900  0.22557500  1
  O  O37  1  0.56489800  0.24599700  0.95698400  1
  O  O38  1  0.76251400  0.35552100  0.81526700  1
  O  O39  1  0.68328300  0.61804400  0.56115100  1
  O  O40  1  0.49254900  0.36030700  0.77422000  1
  O  O41  1  0.91844400  0.09447100  0.03921100  1
  O  O42  1  0.71436500  0.93708000  0.17576900  1
  O  O43  1  0.87338300  0.65171800  0.42847100  1
  O  O44  1  0.19135500  0.66267300  0.40330500  1
  O  O45  1  0.08055300  0.24918400  0.82198000  1
  O  O46  1  0.36942000  0.94493100  0.11876500  1
  O  O47  1  0.37062400  0.48540900  0.56105500  1
loop_
_geom_bond_atom_site_label_1
_geom_bond_atom_site_label_2
_geom_bond_distance
_geom_bond_site_symmetry_2
Li0 O7 1.947971 1_555
Li0 O2 2.003818 1_555
Li0 O15 2.006625 1_555
Li0 O14 2.051608 1_555
Li0 O42 2.523544 1_555
Li1 O17 1.947971 1_555
Li1 O22 2.003818 1_555
Li1 O8 2.006625 1_555
Li1 O9 2.051608 1_555
Li1 O29 2.523544 1_555
Li2 O30 1.947971 1_555
Li2 O25 2.003818 1_555
Li2 O39 2.006625 1_555
Li2 O38 2.051608 1_555
Li2 O18 2.523544 1_555
Li3 O40 1.947971 1_555
Li3 O45 2.003818 1_555
Li3 O32 2.006625 1_555
Li3 O33 2.051608 1_555
Li3 O5 2.523544 1_555
Cu0 O13 1.968888 1_555
Cu0 O11 2.029743 1_655
Cu0 O18 2.077934 1_545
Cu0 O4 2.078027 1_655
Cu0 O3 2.078794 1_555
Cu0 O21 2.110434 1_645
Cu1 O0 1.948256 1_555
Cu1 O22 2.003257 1_555
Cu1 O16 2.059808 1_555
Cu1 O14 2.067365 1_555
Cu1 O8 2.086666 1_555
Cu1 O7 2.321090 1_555
Cu2 O10 1.968888 1_556
Cu2 O12 2.029743 1_555
Cu2 O5 2.077934 1_565
Cu2 O19 2.078027 1_555
Cu2 O20 2.078794 1_555
Cu2 O1 2.110434 1_565
Cu3 O23 1.948256 1_555
Cu3 O2 2.003257 1_455
Cu3 O6 2.059808 1_554
Cu3 O9 2.067365 1_555
Cu3 O15 2.086666 1_455
Cu3 O17 2.321090 1_555
Cu4 O24 1.948256 1_555
Cu4 O45 2.003257 1_655
Cu4 O41 2.059808 1_556
Cu4 O38 2.067365 1_555
Cu4 O32 2.086666 1_655
Cu4 O30 2.321090 1_555
Cu5 O37 1.968888 1_554
Cu5 O35 2.029743 1_555
Cu5 O42 2.077934 1_545
Cu5 O28 2.078027 1_555
Cu5 O27 2.078794 1_555
Cu5 O46 2.110434 1_545
Cu6 O47 1.948256 1_555
Cu6 O25 2.003257 1_555
Cu6 O31 2.059808 1_555
Cu6 O33 2.067365 1_555
Cu6 O39 2.086666 1_555
Cu6 O40 2.321090 1_555
Cu7 O34 1.968888 1_555
Cu7 O36 2.029743 1_455
Cu7 O29 2.077934 1_565
Cu7 O43 2.078027 1_455
Cu7 O44 2.078794 1_555
Cu7 O26 2.110434 1_465
O0 S11 1.482476 1_555
O1 S9 1.479442 1_555
O2 S10 1.517084 1_555
O3 S11 1.485834 1_555
O4 S0 1.473829 1_555
O5 S1 1.495009 1_555
O6 S1 1.457497 1_565
O7 S2 1.480075 1_555
O8 S0 1.505798 1_555
O9 S2 1.503542 1_555
O10 S2 1.482519 1_555
O11 S1 1.479507 1_555
O12 S4 1.479507 1_555
O13 S3 1.482519 1_555
O14 S3 1.503542 1_555
O15 S5 1.505798 1_555
O16 S4 1.457497 1_545
O17 S3 1.480075 1_455
O18 S4 1.495009 1_555
O19 S5 1.473829 1_556
O20 S6 1.485834 1_555
O21 S8 1.479442 1_555
O22 S7 1.517084 1_555
O23 S6 1.482476 1_554
O24 S5 1.482476 1_556
O25 S4 1.517084 1_555
O26 S3 1.479442 1_555
O27 S5 1.485834 1_555
O28 S6 1.473829 1_554
O29 S7 1.495009 1_555
O30 S8 1.480075 1_655
O31 S7 1.457497 1_565
O32 S6 1.505798 1_555
O33 S8 1.503542 1_555
O34 S8 1.482519 1_555
O35 S7 1.479507 1_555
O36 S10 1.479507 1_555
O37 S9 1.482519 1_555
O38 S9 1.503542 1_555
O39 S11 1.505798 1_555
O40 S9 1.480075 1_555
O41 S10 1.457497 1_545
O42 S10 1.495009 1_555
O43 S11 1.473829 1_555
O44 S0 1.485834 1_555
O45 S1 1.517084 1_555
O46 S2 1.479442 1_555
O47 S0 1.482476 1_555
