# generated using pymatgen
data_Zr5N5O2
_symmetry_space_group_name_H-M   'P 1'
_cell_length_a   5.51274903
_cell_length_b   5.51274903
_cell_length_c   18.53610024
_cell_angle_alpha   74.81869713
_cell_angle_beta   74.81869713
_cell_angle_gamma   32.86980852
_symmetry_Int_Tables_number   1
_chemical_formula_structural   Zr5N5O2
_chemical_formula_sum   'Zr10 N10 O4'
_cell_volume   294.11541744
_cell_formula_units_Z   2
loop_
 _symmetry_equiv_pos_site_id
 _symmetry_equiv_pos_as_xyz
  1  'x, y, z'
loop_
 _atom_site_type_symbol
 _atom_site_label
 _atom_site_symmetry_multiplicity
 _atom_site_fract_x
 _atom_site_fract_y
 _atom_site_fract_z
 _atom_site_occupancy
  Zr  Zr0  1  0.70030900  0.70030900  0.84584000  1
  Zr  Zr1  1  0.88951300  0.88951300  0.45903200  1
  Zr  Zr2  1  0.29593000  0.29593000  0.65433400  1
  Zr  Zr3  1  0.98929600  0.98929600  0.24640700  1
  Zr  Zr4  1  0.10906100  0.10906100  0.03917400  1
  Zr  Zr5  1  0.88607400  0.88607400  0.95987400  1
  Zr  Zr6  1  0.99884600  0.99884600  0.74871800  1
  Zr  Zr7  1  0.69844100  0.69844100  0.34915200  1
  Zr  Zr8  1  0.11418500  0.11418500  0.53718000  1
  Zr  Zr9  1  0.30742200  0.30742200  0.14800700  1
  N  N0  1  0.50393900  0.50393900  0.99486000  1
  N  N1  1  0.65482900  0.65482900  0.72137300  1
  N  N2  1  0.73816900  0.73816900  0.57179200  1
  N  N3  1  0.95354600  0.95354600  0.14195100  1
  N  N4  1  0.26654600  0.26654600  0.92288900  1
  N  N5  1  0.34126700  0.34126700  0.77485400  1
  N  N6  1  0.50696000  0.50696000  0.49455300  1
  N  N7  1  0.73774700  0.73774700  0.07251100  1
  N  N8  1  0.26553700  0.26553700  0.42495600  1
  N  N9  1  0.33881500  0.33881500  0.27690900  1
  O  O0  1  0.04612500  0.04612500  0.35322600  1
  O  O1  1  0.95479100  0.95479100  0.64143000  1
  O  O2  1  0.65460900  0.65460900  0.22485800  1
  O  O3  1  0.04549100  0.04549100  0.85419100  1
loop_
_geom_bond_atom_site_label_1
_geom_bond_atom_site_label_2
_geom_bond_distance
_geom_bond_site_symmetry_2
N0 Zr4 2.200409 1_656
N0 Zr4 2.200409 1_566
N0 Zr5 2.201858 1_455
N0 Zr5 2.201858 1_545
N1 Zr6 2.225746 1_455
N1 Zr6 2.225746 1_545
N1 Zr2 2.278335 1_565
N1 Zr2 2.278335 1_655
N1 Zr0 2.481954 1_555
N2 Zr8 2.241134 1_565
N2 Zr8 2.241134 1_655
N2 Zr1 2.259085 1_555
N2 Zr2 2.378448 1_655
N2 Zr2 2.378448 1_565
N3 Zr3 2.071603 1_555
N3 Zr4 2.150148 1_665
N3 Zr9 2.176782 1_565
N3 Zr9 2.176782 1_655
N4 Zr5 2.230148 1_545
N4 Zr5 2.230148 1_455
N4 Zr4 2.336541 1_556
N4 Zr0 2.347188 1_545
N4 Zr0 2.347188 1_455
N5 Zr6 2.236832 1_545
N5 Zr6 2.236832 1_455
N5 Zr0 2.305419 1_545
N5 Zr0 2.305419 1_455
N5 Zr2 2.409429 1_555
N6 Zr8 2.198172 1_565
N6 Zr8 2.198172 1_655
N6 Zr1 2.203474 1_455
N6 Zr1 2.203474 1_545
N6 Zr7 2.895530 1_555
N7 Zr5 2.243034 1_554
N7 Zr4 2.263986 1_565
N7 Zr4 2.263986 1_655
N7 Zr9 2.344552 1_565
N7 Zr9 2.344552 1_655
N8 Zr1 2.236664 1_455
N8 Zr1 2.236664 1_545
N8 Zr8 2.251864 1_555
N8 Zr7 2.335564 1_545
N8 Zr7 2.335564 1_455
N9 Zr3 2.189379 1_455
N9 Zr3 2.189379 1_545
N9 Zr7 2.311708 1_545
N9 Zr7 2.311708 1_455
N9 Zr9 2.500461 1_555
O0 Zr1 2.194462 1_445
O0 Zr3 2.220667 1_445
O0 Zr7 2.228551 1_455
O0 Zr7 2.228551 1_545
O1 Zr6 2.162846 1_555
O1 Zr8 2.190140 1_665
O1 Zr2 2.256703 1_565
O1 Zr2 2.256703 1_655
O2 Zr3 2.295008 1_545
O2 Zr3 2.295008 1_455
O2 Zr9 2.411706 1_655
O2 Zr9 2.411706 1_565
O2 Zr7 2.471048 1_555
O3 Zr6 2.142936 1_445
O3 Zr5 2.208209 1_445
O3 Zr0 2.235770 1_455
O3 Zr0 2.235770 1_545
