# generated using pymatgen
data_Li2V(CO3)2
_symmetry_space_group_name_H-M   'P 1'
_cell_length_a   7.92449608
_cell_length_b   7.92449608
_cell_length_c   9.04340563
_cell_angle_alpha   73.72587081
_cell_angle_beta   73.72587081
_cell_angle_gamma   106.78239550
_symmetry_Int_Tables_number   1
_chemical_formula_structural   Li2V(CO3)2
_chemical_formula_sum   'Li8 V4 C8 O24'
_cell_volume   479.94471377
_cell_formula_units_Z   4
loop_
 _symmetry_equiv_pos_site_id
 _symmetry_equiv_pos_as_xyz
  1  'x, y, z'
loop_
 _atom_site_type_symbol
 _atom_site_label
 _atom_site_symmetry_multiplicity
 _atom_site_fract_x
 _atom_site_fract_y
 _atom_site_fract_z
 _atom_site_occupancy
  Li  Li0  1  0.13601000  0.00066800  0.06589400  1
  Li  Li1  1  0.45983600  0.97324900  0.36669300  1
  Li  Li2  1  0.40891000  0.58357300  0.51788100  1
  Li  Li3  1  0.58357300  0.40891000  0.01788100  1
  Li  Li4  1  0.47669900  0.94618400  0.85428300  1
  Li  Li5  1  0.94618400  0.47669900  0.35428300  1
  Li  Li6  1  0.00066800  0.13601000  0.56589400  1
  Li  Li7  1  0.97324900  0.45983600  0.86669300  1
  V  V0  1  0.75191800  0.00865600  0.99688500  1
  V  V1  1  0.00865600  0.75191800  0.49688500  1
  V  V2  1  0.25105600  0.50583900  0.00041100  1
  V  V3  1  0.50583900  0.25105600  0.50041100  1
  C  C0  1  0.28696500  0.18397100  0.25957100  1
  C  C1  1  0.32149800  0.72286300  0.22817700  1
  C  C2  1  0.18397100  0.28696500  0.75957100  1
  C  C3  1  0.72286300  0.32149800  0.72817700  1
  C  C4  1  0.21528400  0.81728100  0.73274300  1
  C  C5  1  0.81728100  0.21528400  0.23274300  1
  C  C6  1  0.78559800  0.69074200  0.26186300  1
  C  C7  1  0.69074200  0.78559800  0.76186300  1
  O  O0  1  0.13065900  0.06788900  0.38727800  1
  O  O1  1  0.28927900  0.23729600  0.10826900  1
  O  O2  1  0.06788900  0.13065900  0.88727800  1
  O  O3  1  0.05804900  0.72522000  0.72272700  1
  O  O4  1  0.22721700  0.56377200  0.22318100  1
  O  O5  1  0.29355000  0.73320300  0.37632400  1
  O  O6  1  0.43576300  0.87473200  0.09490700  1
  O  O7  1  0.36128200  0.94581200  0.59932900  1
  O  O8  1  0.23066200  0.77620900  0.87688500  1
  O  O9  1  0.23729600  0.28927900  0.60826900  1
  O  O10  1  0.24792700  0.44973600  0.77463300  1
  O  O11  1  0.56377200  0.22721700  0.72318100  1
  O  O12  1  0.44973600  0.24792700  0.27463300  1
  O  O13  1  0.72522000  0.05804900  0.22272700  1
  O  O14  1  0.77620900  0.23066200  0.37688500  1
  O  O15  1  0.76528800  0.74889500  0.12424800  1
  O  O16  1  0.64388500  0.55852800  0.39742600  1
  O  O17  1  0.55852800  0.64388500  0.89742600  1
  O  O18  1  0.74889500  0.76528800  0.62424800  1
  O  O19  1  0.75991200  0.95556400  0.76863600  1
  O  O20  1  0.95556400  0.75991200  0.26863600  1
  O  O21  1  0.94581200  0.36128200  0.09932900  1
  O  O22  1  0.87473200  0.43576300  0.59490700  1
  O  O23  1  0.73320300  0.29355000  0.87632400  1
loop_
_geom_bond_atom_site_label_1
_geom_bond_atom_site_label_2
_geom_bond_distance
_geom_bond_site_symmetry_2
Li0 O2 1.959332 1_554
Li0 O20 2.010215 1_445
Li0 O1 2.118175 1_555
Li1 O13 1.930895 1_565
Li1 O5 1.938511 1_555
Li1 O7 1.951403 1_555
Li1 O12 2.135362 1_565
Li2 O16 1.972567 1_555
Li2 O5 2.076442 1_555
Li2 O10 2.078914 1_555
Li2 O9 2.105587 1_555
Li3 O17 1.972567 1_554
Li3 O23 2.076442 1_554
Li3 O12 2.078914 1_555
Li3 O1 2.105587 1_555
Li4 O8 1.939915 1_555
Li4 O6 1.992185 1_556
Li4 O11 2.003933 1_565
Li4 O19 2.130619 1_555
Li5 O14 1.939915 1_555
Li5 O22 1.992185 1_555
Li5 O4 2.003933 1_655
Li5 O20 2.130619 1_555
Li6 O0 1.959332 1_555
Li6 O19 2.010215 1_445
Li6 O9 2.118175 1_555
Li7 O3 1.930895 1_655
Li7 O23 1.938511 1_555
Li7 O21 1.951403 1_556
Li7 O10 2.135362 1_655
C0 O0 1.288051 1_555
C0 O12 1.303401 1_555
C0 O1 1.307100 1_555
C1 O4 1.287073 1_555
C1 O6 1.291107 1_555
C1 O5 1.325296 1_555
C2 O2 1.288051 1_555
C2 O10 1.303401 1_555
C2 O9 1.307100 1_555
C3 O11 1.287073 1_555
C3 O22 1.291107 1_555
C3 O23 1.325296 1_555
C4 O3 1.291637 1_555
C4 O7 1.296173 1_555
C4 O8 1.301589 1_555
C5 O13 1.291637 1_555
C5 O21 1.296173 1_555
C5 O14 1.301589 1_555
C6 O15 1.273079 1_555
C6 O16 1.300327 1_555
C6 O20 1.325536 1_555
C7 O18 1.273079 1_555
C7 O17 1.300327 1_555
C7 O19 1.325536 1_555
O0 V1 2.204702 1_545
O1 V2 2.224023 1_555
O2 V0 2.204702 1_455
O3 V1 2.150110 1_555
O4 V2 2.158751 1_555
O5 V1 2.282994 1_555
O6 V0 2.209419 1_564
O7 V3 2.139237 1_565
O8 V2 2.196413 1_556
O9 V3 2.224023 1_555
O10 V2 2.213144 1_556
O11 V3 2.158751 1_555
O12 V3 2.213144 1_555
O13 V0 2.150110 1_554
O14 V3 2.196413 1_555
O15 V0 2.107293 1_564
O16 V3 2.149146 1_555
O17 V2 2.149146 1_556
O18 V1 2.107293 1_655
O19 V0 2.206937 1_565
O20 V1 2.206937 1_655
O21 V2 2.139237 1_655
O22 V1 2.209419 1_655
O23 V0 2.282994 1_555
