# generated using pymatgen
data_NiH8(CO5)2
_symmetry_space_group_name_H-M   'P 1'
_cell_length_a   5.97600300
_cell_length_b   6.28013400
_cell_length_c   11.93461789
_cell_angle_alpha   66.30714142
_cell_angle_beta   90.00000000
_cell_angle_gamma   90.00000000
_symmetry_Int_Tables_number   1
_chemical_formula_structural   NiH8(CO5)2
_chemical_formula_sum   'Ni2 H16 C4 O20'
_cell_volume   410.15448669
_cell_formula_units_Z   2
loop_
 _symmetry_equiv_pos_site_id
 _symmetry_equiv_pos_as_xyz
  1  'x, y, z'
loop_
 _atom_site_type_symbol
 _atom_site_label
 _atom_site_symmetry_multiplicity
 _atom_site_fract_x
 _atom_site_fract_y
 _atom_site_fract_z
 _atom_site_occupancy
  Ni  Ni0  1  0.00000000  0.00000000  0.00000000  1
  Ni  Ni1  1  0.50000000  0.00000000  0.50000000  1
  H  H0  1  0.68930800  0.78624000  0.98443600  1
  H  H1  1  0.68330100  0.28287300  0.92944800  1
  H  H2  1  0.91307900  0.42072300  0.88249700  1
  H  H3  1  0.85473600  0.82865800  0.86022500  1
  H  H4  1  0.41307900  0.57927700  0.61750300  1
  H  H5  1  0.18330100  0.71712700  0.57055200  1
  H  H6  1  0.35473600  0.17134200  0.63977500  1
  H  H7  1  0.18930800  0.21376000  0.51556400  1
  H  H8  1  0.81069200  0.78624000  0.48443600  1
  H  H9  1  0.64526400  0.82865800  0.36022500  1
  H  H10  1  0.81669900  0.28287300  0.42944800  1
  H  H11  1  0.58692100  0.42072300  0.38249700  1
  H  H12  1  0.14526400  0.17134200  0.13977500  1
  H  H13  1  0.08692100  0.57927700  0.11750300  1
  H  H14  1  0.31669900  0.71712700  0.07055200  1
  H  H15  1  0.31069200  0.21376000  0.01556400  1
  C  C0  1  0.34533800  0.25363800  0.82379100  1
  C  C1  1  0.84533800  0.74636200  0.67620900  1
  C  C2  1  0.15466200  0.25363800  0.32379100  1
  C  C3  1  0.65466200  0.74636200  0.17620900  1
  O  O0  1  0.84778900  0.28606300  0.95447700  1
  O  O1  1  0.43185400  0.32327100  0.90190000  1
  O  O2  1  0.78702000  0.90526800  0.91386200  1
  O  O3  1  0.16781000  0.11899000  0.84956900  1
  O  O4  1  0.92537400  0.68868800  0.78357200  1
  O  O5  1  0.42537400  0.31131200  0.71642800  1
  O  O6  1  0.66781000  0.88101000  0.65043100  1
  O  O7  1  0.93185400  0.67672900  0.59810000  1
  O  O8  1  0.34778900  0.71393700  0.54552300  1
  O  O9  1  0.28702000  0.09473200  0.58613800  1
  O  O10  1  0.71298000  0.90526800  0.41386200  1
  O  O11  1  0.65221100  0.28606300  0.45447700  1
  O  O12  1  0.06814600  0.32327100  0.40190000  1
  O  O13  1  0.33219000  0.11899000  0.34956900  1
  O  O14  1  0.57462600  0.68868800  0.28357200  1
  O  O15  1  0.07462600  0.31131200  0.21642800  1
  O  O16  1  0.83219000  0.88101000  0.15043100  1
  O  O17  1  0.21298000  0.09473200  0.08613800  1
  O  O18  1  0.56814600  0.67672900  0.09810000  1
  O  O19  1  0.15221100  0.71393700  0.04552300  1
loop_
_geom_bond_atom_site_label_1
_geom_bond_atom_site_label_2
_geom_bond_distance
_geom_bond_site_symmetry_2
Ni0 O17 1.876763 1_555
Ni0 O2 1.876763 1_444
Ni0 O19 1.888284 1_545
Ni0 O0 1.888284 1_454
Ni0 O3 1.925907 1_554
Ni0 O16 1.925907 1_445
Ni1 O10 1.876763 1_545
Ni1 O9 1.876763 1_555
Ni1 O8 1.888284 1_545
Ni1 O11 1.888284 1_555
Ni1 O13 1.925907 1_555
Ni1 O6 1.925907 1_545
H0 O2 1.050321 1_555
H0 O18 1.444877 1_556
H1 O0 1.029898 1_555
H1 O1 1.537327 1_555
H2 O0 1.010710 1_555
H2 O4 1.623127 1_555
H3 O2 1.025928 1_555
H3 O4 1.560151 1_555
H4 O8 1.010710 1_555
H4 O5 1.623127 1_555
H5 O8 1.029898 1_555
H5 O7 1.537327 1_455
H6 O9 1.025928 1_555
H6 O5 1.560151 1_555
H7 O9 1.050321 1_555
H7 O12 1.444877 1_555
H8 O10 1.050321 1_555
H8 O7 1.444877 1_555
H9 O10 1.025928 1_555
H9 O14 1.560151 1_555
H10 O11 1.029898 1_555
H10 O12 1.537327 1_655
H11 O11 1.010710 1_555
H11 O14 1.623127 1_555
H12 O17 1.025928 1_555
H12 O15 1.560151 1_555
H13 O19 1.010710 1_555
H13 O15 1.623127 1_555
H14 O19 1.029898 1_555
H14 O18 1.537327 1_555
H15 O17 1.050321 1_555
H15 O1 1.444877 1_554
C0 O5 1.276243 1_555
C0 O1 1.286531 1_555
C0 O3 1.313831 1_555
C1 O4 1.276243 1_555
C1 O7 1.286531 1_555
C1 O6 1.313831 1_555
C2 O15 1.276243 1_555
C2 O12 1.286531 1_555
C2 O13 1.313831 1_555
C3 O14 1.276243 1_555
C3 O18 1.286531 1_555
C3 O16 1.313831 1_555
