# generated using pymatgen
data_MnAlO3
_symmetry_space_group_name_H-M   'P 1'
_cell_length_a   4.85643582
_cell_length_b   5.24445539
_cell_length_c   4.97202443
_cell_angle_alpha   63.53980408
_cell_angle_beta   117.70240265
_cell_angle_gamma   91.07212880
_symmetry_Int_Tables_number   1
_chemical_formula_structural   MnAlO3
_chemical_formula_sum   'Mn2 Al2 O6'
_cell_volume   97.49613700
_cell_formula_units_Z   2
loop_
 _symmetry_equiv_pos_site_id
 _symmetry_equiv_pos_as_xyz
  1  'x, y, z'
loop_
 _atom_site_type_symbol
 _atom_site_label
 _atom_site_symmetry_multiplicity
 _atom_site_fract_x
 _atom_site_fract_y
 _atom_site_fract_z
 _atom_site_occupancy
  Mn  Mn0  1  0.64490600  0.05843800  0.28530100  1
  Mn  Mn1  1  0.35511900  0.94155400  0.71473100  1
  Al  Al0  1  0.14859300  0.54518400  0.29963300  1
  Al  Al1  1  0.85140700  0.45481200  0.70036300  1
  O  O0  1  0.78499900  0.73946200  0.23406500  1
  O  O1  1  0.21498300  0.26054700  0.76591700  1
  O  O2  1  0.08207100  0.71915900  0.84955800  1
  O  O3  1  0.91793300  0.28083400  0.15043500  1
  O  O4  1  0.44715200  0.74464300  0.49673700  1
  O  O5  1  0.55283800  0.25536700  0.50326000  1
loop_
_geom_bond_atom_site_label_1
_geom_bond_atom_site_label_2
_geom_bond_distance
_geom_bond_site_symmetry_2
Mn0 O3 1.907863 1_555
Mn0 O5 1.976400 1_555
Mn0 O0 1.977302 1_545
Mn0 O4 2.018310 1_545
Mn0 O1 2.186791 1_554
Mn0 O2 2.387297 1_645
Mn1 O2 1.907869 1_555
Mn1 O4 1.976398 1_555
Mn1 O1 1.977305 1_565
Mn1 O5 2.018311 1_565
Mn1 O0 2.186577 1_556
Mn1 O3 2.387418 1_465
Al0 O2 1.861149 1_554
Al0 O0 1.870415 1_455
Al0 O4 1.921616 1_555
Al0 O3 1.952666 1_455
Al0 O1 1.986481 1_555
Al0 O5 2.020314 1_555
Al1 O3 1.861128 1_556
Al1 O1 1.870341 1_655
Al1 O5 1.921583 1_555
Al1 O2 1.952653 1_655
Al1 O0 1.986517 1_555
Al1 O4 2.020393 1_555
