# generated using pymatgen
data_LiMnOF2
_symmetry_space_group_name_H-M   'P 1'
_cell_length_a   5.23830755
_cell_length_b   9.94158949
_cell_length_c   5.15041193
_cell_angle_alpha   106.96092003
_cell_angle_beta   61.86371255
_cell_angle_gamma   91.28253129
_symmetry_Int_Tables_number   1
_chemical_formula_structural   LiMnOF2
_chemical_formula_sum   'Li4 Mn4 O4 F8'
_cell_volume   224.11553099
_cell_formula_units_Z   4
loop_
 _symmetry_equiv_pos_site_id
 _symmetry_equiv_pos_as_xyz
  1  'x, y, z'
loop_
 _atom_site_type_symbol
 _atom_site_label
 _atom_site_symmetry_multiplicity
 _atom_site_fract_x
 _atom_site_fract_y
 _atom_site_fract_z
 _atom_site_occupancy
  Li  Li0  1  0.47907100  0.70653200  0.10217300  1
  Li  Li1  1  0.08463400  0.79440800  0.85617700  1
  Li  Li2  1  0.91536200  0.20559400  0.14382700  1
  Li  Li3  1  0.52092900  0.29346900  0.89782900  1
  Mn  Mn0  1  0.33746200  0.01613100  0.31639300  1
  Mn  Mn1  1  0.15922500  0.48582400  0.64510700  1
  Mn  Mn2  1  0.66254700  0.98386500  0.68361000  1
  Mn  Mn3  1  0.84077800  0.51417800  0.35488300  1
  O  O0  1  0.13773800  0.38292400  0.28787300  1
  O  O1  1  0.59892600  0.11494600  0.06148100  1
  O  O2  1  0.40106700  0.88505100  0.93852100  1
  O  O3  1  0.86226200  0.61707700  0.71212600  1
  F  F0  1  0.15247600  0.61685100  0.02434800  1
  F  F1  1  0.09973400  0.88369900  0.53641900  1
  F  F2  1  0.49312000  0.62361500  0.42347700  1
  F  F3  1  0.30016200  0.12774400  0.72140800  1
  F  F4  1  0.69983900  0.87225400  0.27859000  1
  F  F5  1  0.50688500  0.37638700  0.57652100  1
  F  F6  1  0.90025800  0.11630100  0.46358500  1
  F  F7  1  0.84752500  0.38315000  0.97565300  1
loop_
_geom_bond_atom_site_label_1
_geom_bond_atom_site_label_2
_geom_bond_distance
_geom_bond_site_symmetry_2
Li0 O3 2.022413 1_554
Li0 O2 2.292867 1_554
Li1 O2 2.027963 1_555
Li1 O3 2.230554 1_455
Li2 O1 2.028000 1_555
Li2 O0 2.230552 1_655
Li3 O0 2.022407 1_556
Li3 O1 2.292888 1_556
Mn0 O2 1.877509 1_544
Mn0 O1 1.887057 1_555
Mn1 O0 1.880540 1_555
Mn1 O3 1.887675 1_455
Mn2 O1 1.877484 1_566
Mn2 O2 1.887080 1_555
Mn3 O3 1.880568 1_555
Mn3 O0 1.887688 1_655
F0 Mn1 1.991408 1_554
F0 Li0 2.062132 1_555
F0 Mn3 2.218925 1_455
F0 Li1 2.280978 1_554
F1 Mn0 2.008601 1_565
F1 Li1 2.057531 1_555
F1 Mn2 2.198913 1_455
F1 Li0 2.391595 1_555
F2 Mn3 1.970455 1_555
F2 Li0 2.082527 1_555
F2 Mn1 2.271725 1_555
F2 Li1 2.426033 1_555
F3 Mn0 1.973736 1_555
F3 Li2 2.084892 1_456
F3 Li3 2.215807 1_555
F3 Mn2 2.301724 1_545
F4 Mn2 1.973769 1_555
F4 Li1 2.084861 1_654
F4 Li0 2.215783 1_555
F4 Mn0 2.301666 1_565
F5 Mn1 1.970481 1_555
F5 Li3 2.082541 1_555
F5 Mn3 2.271732 1_555
F5 Li2 2.426002 1_555
F6 Mn2 2.008600 1_545
F6 Li2 2.057537 1_555
F6 Mn0 2.199006 1_655
F6 Li3 2.391580 1_555
F7 Mn3 1.991372 1_556
F7 Li3 2.062134 1_555
F7 Mn1 2.218967 1_655
F7 Li2 2.280970 1_556
