# generated using pymatgen
data_CrH10C2(NO4)2
_symmetry_space_group_name_H-M   'P 1'
_cell_length_a   19.62317400
_cell_length_b   6.83347300
_cell_length_c   8.22659424
_cell_angle_alpha   73.10536453
_cell_angle_beta   90.00000000
_cell_angle_gamma   90.00000000
_symmetry_Int_Tables_number   1
_chemical_formula_structural   CrH10C2(NO4)2
_chemical_formula_sum   'Cr4 H40 C8 N8 O32'
_cell_volume   1055.52980128
_cell_formula_units_Z   4
loop_
 _symmetry_equiv_pos_site_id
 _symmetry_equiv_pos_as_xyz
  1  'x, y, z'
loop_
 _atom_site_type_symbol
 _atom_site_label
 _atom_site_symmetry_multiplicity
 _atom_site_fract_x
 _atom_site_fract_y
 _atom_site_fract_z
 _atom_site_occupancy
  Cr  Cr0  1  0.51552700  0.16068900  0.56570300  1
  Cr  Cr1  1  0.01552700  0.83931100  0.93429700  1
  Cr  Cr2  1  0.48447300  0.83931100  0.43429700  1
  Cr  Cr3  1  0.98447300  0.16068900  0.06570300  1
  H  H0  1  0.58476700  0.57198100  0.58149600  1
  H  H1  1  0.08476700  0.42801900  0.91850400  1
  H  H2  1  0.41523300  0.42801900  0.41850400  1
  H  H3  1  0.91523300  0.57198100  0.08149500  1
  H  H4  1  0.56704200  0.32701500  0.85200200  1
  H  H5  1  0.06704200  0.67298500  0.64799800  1
  H  H6  1  0.43295800  0.67298500  0.14799800  1
  H  H7  1  0.93295800  0.32701500  0.35200200  1
  H  H8  1  0.77434300  0.20722000  0.67701200  1
  H  H9  1  0.27434300  0.79278000  0.82298800  1
  H  H10  1  0.22565700  0.79278000  0.32298800  1
  H  H11  1  0.72565700  0.20722000  0.17701200  1
  H  H12  1  0.65761300  0.38684900  0.34974800  1
  H  H13  1  0.15761300  0.61315100  0.15025200  1
  H  H14  1  0.34238700  0.61315100  0.65025200  1
  H  H15  1  0.84238700  0.38684900  0.84974800  1
  H  H16  1  0.72407100  0.46569800  0.52464400  1
  H  H17  1  0.22407100  0.53430200  0.97535600  1
  H  H18  1  0.27592900  0.53430200  0.47535600  1
  H  H19  1  0.77592900  0.46569800  0.02464400  1
  H  H20  1  0.77944200  0.55485500  0.37064100  1
  H  H21  1  0.27944200  0.44514500  0.12935900  1
  H  H22  1  0.22055800  0.44514500  0.62935900  1
  H  H23  1  0.72055800  0.55485500  0.87064100  1
  H  H24  1  0.86011100  0.80784500  0.56929800  1
  H  H25  1  0.36011100  0.19215500  0.93070200  1
  H  H26  1  0.13988900  0.19215500  0.43070200  1
  H  H27  1  0.63988900  0.80784500  0.06929800  1
  H  H28  1  0.88407700  0.71810300  0.58417600  1
  H  H29  1  0.38407700  0.28189700  0.91582400  1
  H  H30  1  0.11592300  0.28189700  0.41582400  1
  H  H31  1  0.61592300  0.71810300  0.08417600  1
  H  H32  1  0.88733200  0.22064300  0.24448700  1
  H  H33  1  0.38733200  0.77935700  0.25551300  1
  H  H34  1  0.11266800  0.77935700  0.75551300  1
  H  H35  1  0.61266800  0.22064300  0.74448700  1
  H  H36  1  0.93433200  0.97827800  0.64715900  1
  H  H37  1  0.43433200  0.02172200  0.85284100  1
  H  H38  1  0.06566800  0.02172200  0.35284100  1
  H  H39  1  0.56566800  0.97827800  0.14715900  1
  C  C0  1  0.44430400  0.75043800  0.80656400  1
  C  C1  1  0.94430400  0.24956200  0.69343600  1
  C  C2  1  0.55569600  0.24956200  0.19343600  1
  C  C3  1  0.05569600  0.75043800  0.30656400  1
  C  C4  1  0.62938000  0.82778500  0.59977900  1
  C  C5  1  0.12938000  0.17221500  0.90022100  1
  C  C6  1  0.37062000  0.17221500  0.40022100  1
  C  C7  1  0.87062000  0.82778500  0.09977900  1
  N  N0  1  0.75028800  0.43016000  0.42955600  1
  N  N1  1  0.25028800  0.56984000  0.07044400  1
  N  N2  1  0.24971200  0.56984000  0.57044400  1
  N  N3  1  0.74971200  0.43016000  0.92955600  1
  N  N4  1  0.79353100  0.39501800  0.80462300  1
  N  N5  1  0.29353100  0.60498200  0.69537700  1
  N  N6  1  0.20646900  0.60498200  0.19537700  1
  N  N7  1  0.70646900  0.39501800  0.30462300  1
  O  O0  1  0.46176900  0.96302700  0.77898700  1
  O  O1  1  0.96176900  0.03697300  0.72101300  1
  O  O2  1  0.53823100  0.03697300  0.22101300  1
  O  O3  1  0.03823100  0.96302700  0.27898700  1
  O  O4  1  0.45069600  0.69175800  0.67456900  1
  O  O5  1  0.95069600  0.30824200  0.82543100  1
  O  O6  1  0.54930400  0.30824200  0.32543100  1
  O  O7  1  0.04930400  0.69175800  0.17456900  1
  O  O8  1  0.42720300  0.65167000  0.95142300  1
  O  O9  1  0.92720300  0.34833000  0.54857700  1
  O  O10  1  0.57279700  0.34833000  0.04857700  1
  O  O11  1  0.07279700  0.65167000  0.45142300  1
  O  O12  1  0.60463900  0.99335400  0.61809700  1
  O  O13  1  0.10463900  0.00664600  0.88190300  1
  O  O14  1  0.39536100  0.00664600  0.38190300  1
  O  O15  1  0.89536100  0.99335400  0.11809700  1
  O  O16  1  0.58033400  0.71978900  0.51879000  1
  O  O17  1  0.08033400  0.28021100  0.98121000  1
  O  O18  1  0.41966600  0.28021100  0.48121000  1
  O  O19  1  0.91966600  0.71978900  0.01879000  1
  O  O20  1  0.68401300  0.74443200  0.63862100  1
  O  O21  1  0.18401300  0.25556800  0.86137900  1
  O  O22  1  0.31598700  0.25556800  0.36137900  1
  O  O23  1  0.81598700  0.74443200  0.13862100  1
  O  O24  1  0.57397700  0.31477300  0.73427500  1
  O  O25  1  0.07397700  0.68522700  0.76572500  1
  O  O26  1  0.42602300  0.68522700  0.26572500  1
  O  O27  1  0.92602300  0.31477300  0.23427500  1
  O  O28  1  0.78372900  0.18194000  0.79902200  1
  O  O29  1  0.28372900  0.81806000  0.70097800  1
  O  O30  1  0.21627100  0.81806000  0.20097800  1
  O  O31  1  0.71627100  0.18194000  0.29902200  1
loop_
_geom_bond_atom_site_label_1
_geom_bond_atom_site_label_2
_geom_bond_distance
_geom_bond_site_symmetry_2
Cr0 O6 2.050517 1_555
Cr0 O12 2.065108 1_545
Cr0 O18 2.087771 1_555
Cr0 O0 2.153694 1_545
Cr0 O24 2.279482 1_555
Cr1 O7 2.050517 1_556
Cr1 O13 2.065108 1_565
Cr1 O19 2.087771 1_456
Cr1 O1 2.153694 1_465
Cr1 O25 2.279482 1_555
Cr2 O4 2.050517 1_555
Cr2 O14 2.065108 1_565
Cr2 O16 2.087771 1_555
Cr2 O2 2.153694 1_565
Cr2 O26 2.279482 1_555
Cr3 O5 2.050517 1_554
Cr3 O15 2.065108 1_545
Cr3 O17 2.087771 1_654
Cr3 O3 2.153694 1_645
Cr3 O27 2.279482 1_555
H0 O16 0.995500 1_555
H1 O17 0.995500 1_555
H2 O18 0.995500 1_555
H3 O19 0.995498 1_555
H4 O24 1.005279 1_555
H4 O10 1.669139 1_556
H5 O25 1.005279 1_555
H5 O11 1.669139 1_555
H6 O26 1.005279 1_555
H6 O8 1.669139 1_554
H7 O27 1.005279 1_555
H7 O9 1.669139 1_555
H8 O28 0.985115 1_555
H9 O29 0.985115 1_555
H10 O30 0.985115 1_555
H11 O31 0.985115 1_555
H12 N7 1.023721 1_555
H13 N6 1.023721 1_555
H14 N5 1.023721 1_555
H15 N4 1.023721 1_555
H16 N0 1.022729 1_555
H17 N1 1.022729 1_556
H18 N2 1.022729 1_555
H19 N3 1.022729 1_554
H20 N0 1.023832 1_555
H21 N1 1.023832 1_555
H22 N2 1.023832 1_555
H23 N3 1.023832 1_555
H24 H28 0.754057 1_555
H25 H29 0.754057 1_555
H26 H30 0.754057 1_555
H27 H31 0.754057 1_555
H32 O27 0.982775 1_555
H33 O26 0.982775 1_555
H34 O25 0.982775 1_555
H35 O24 0.982775 1_555
H36 O1 0.980574 1_565
H37 O0 0.980574 1_545
H38 O3 0.980574 1_545
H39 O2 0.980574 1_565
C0 O8 1.233205 1_555
C0 O4 1.268351 1_555
C0 O0 1.444911 1_555
C1 O9 1.233205 1_555
C1 O5 1.268351 1_555
C1 O1 1.444911 1_555
C2 O10 1.233205 1_555
C2 O6 1.268351 1_555
C2 O2 1.444911 1_555
C3 O11 1.233205 1_555
C3 O7 1.268351 1_555
C3 O3 1.444911 1_555
C4 O20 1.212473 1_555
C4 O12 1.279690 1_555
C4 O16 1.483444 1_555
C5 O21 1.212473 1_555
C5 O13 1.279690 1_555
C5 O17 1.483444 1_555
C6 O22 1.212473 1_555
C6 O14 1.279690 1_555
C6 O18 1.483444 1_555
C7 O23 1.212473 1_555
C7 O15 1.279690 1_555
C7 O19 1.483444 1_555
N4 O28 1.482644 1_555
N5 O29 1.482644 1_555
N6 O30 1.482644 1_555
N7 O31 1.482644 1_555
