# generated using pymatgen
data_V6O7F5
_symmetry_space_group_name_H-M   'P 1'
_cell_length_a   4.66284100
_cell_length_b   5.61553780
_cell_length_c   7.80082137
_cell_angle_alpha   86.21893366
_cell_angle_beta   88.68690689
_cell_angle_gamma   88.47852161
_symmetry_Int_Tables_number   1
_chemical_formula_structural   V6O7F5
_chemical_formula_sum   'V6 O7 F5'
_cell_volume   203.69717878
_cell_formula_units_Z   1
loop_
 _symmetry_equiv_pos_site_id
 _symmetry_equiv_pos_as_xyz
  1  'x, y, z'
loop_
 _atom_site_type_symbol
 _atom_site_label
 _atom_site_symmetry_multiplicity
 _atom_site_fract_x
 _atom_site_fract_y
 _atom_site_fract_z
 _atom_site_occupancy
  V  V0  1  0.51567700  0.83401800  0.65140200  1
  V  V1  1  0.51266400  0.48471000  0.00493500  1
  V  V2  1  0.49248200  0.16713500  0.34163600  1
  V  V3  1  0.02017700  0.34071200  0.68414200  1
  V  V4  1  0.98318200  0.65851600  0.31515700  1
  V  V5  1  0.98367400  0.01080600  0.00483300  1
  O  O0  1  0.79384700  0.70219700  0.08815100  1
  O  O1  1  0.69583500  0.20643500  0.10731600  1
  O  O2  1  0.68946300  0.53566000  0.76855900  1
  O  O3  1  0.70556800  0.86707700  0.42791600  1
  O  O4  1  0.29685700  0.12825400  0.57123000  1
  O  O5  1  0.30688600  0.46303900  0.23204300  1
  O  O6  1  0.20581000  0.29994800  0.90850900  1
  F  F0  1  0.80354300  0.36559600  0.44288100  1
  F  F1  1  0.79997900  0.03860000  0.76948600  1
  F  F2  1  0.29709300  0.80138300  0.89465300  1
  F  F3  1  0.20028100  0.96091100  0.22967300  1
  F  F4  1  0.19697900  0.63500500  0.55747800  1
loop_
_geom_bond_atom_site_label_1
_geom_bond_atom_site_label_2
_geom_bond_distance
_geom_bond_site_symmetry_2
O0 V1 1.964843 1_555
O0 V4 1.994564 1_555
O0 V5 2.028728 1_565
O1 V1 1.898694 1_555
O1 V5 1.906745 1_555
O1 V2 2.041431 1_555
O2 V3 1.992226 1_655
O2 V1 2.008685 1_556
O2 V0 2.014669 1_555
O3 V0 1.937293 1_555
O3 V4 1.955560 1_555
O3 V2 2.017813 1_565
O4 V3 1.966825 1_555
O4 V0 1.991406 1_545
O4 V2 1.992889 1_555
O5 V4 1.965856 1_455
O5 V1 1.993488 1_555
O5 V2 2.002775 1_555
O6 V3 1.967501 1_555
O6 V1 1.980052 1_556
O6 V5 2.041213 1_456
F0 V4 2.053974 1_555
F0 V2 2.055232 1_555
F0 V3 2.151021 1_655
F1 V5 2.038561 1_556
F1 V0 2.049908 1_545
F1 V3 2.070708 1_655
F2 V5 2.059610 1_466
F2 V0 2.132730 1_555
F2 V1 2.157713 1_556
F3 V5 2.043589 1_465
F3 V2 2.057190 1_565
F3 V4 2.064948 1_455
F4 V3 2.051031 1_555
F4 V0 2.059168 1_555
F4 V4 2.151964 1_455
