# generated using pymatgen
data_Ti3Fe2Sb(PO4)6
_symmetry_space_group_name_H-M   'P 1'
_cell_length_a   8.65679944
_cell_length_b   8.65679944
_cell_length_c   8.65679922
_cell_angle_alpha   61.21341990
_cell_angle_beta   61.21341990
_cell_angle_gamma   61.21341934
_symmetry_Int_Tables_number   1
_chemical_formula_structural   Ti3Fe2Sb(PO4)6
_chemical_formula_sum   'Ti3 Fe2 Sb1 P6 O24'
_cell_volume   471.24974162
_cell_formula_units_Z   1
loop_
 _symmetry_equiv_pos_site_id
 _symmetry_equiv_pos_as_xyz
  1  'x, y, z'
loop_
 _atom_site_type_symbol
 _atom_site_label
 _atom_site_symmetry_multiplicity
 _atom_site_fract_x
 _atom_site_fract_y
 _atom_site_fract_z
 _atom_site_occupancy
  Ti  Ti0  1  0.85536900  0.85536900  0.85536900  1
  Ti  Ti1  1  0.64620500  0.64620500  0.64620500  1
  Ti  Ti2  1  0.35399000  0.35399000  0.35399000  1
  Fe  Fe0  1  0.00000500  0.00000500  0.00000500  1
  Fe  Fe1  1  0.50111200  0.50111200  0.50111200  1
  Sb  Sb0  1  0.14630100  0.14630100  0.14630100  1
  P  P0  1  0.94715000  0.25072500  0.55675100  1
  P  P1  1  0.55675100  0.94715000  0.25072500  1
  P  P2  1  0.73906200  0.46455300  0.04383800  1
  P  P3  1  0.46455300  0.04383800  0.73906200  1
  P  P4  1  0.04383800  0.73906200  0.46455300  1
  P  P5  1  0.25072500  0.55675100  0.94715000  1
  O  O0  1  0.88965600  0.66104900  0.52401100  1
  O  O1  1  0.66104900  0.52401100  0.88965600  1
  O  O2  1  0.93762700  0.09237500  0.74861300  1
  O  O3  1  0.52401100  0.88965600  0.66104900  1
  O  O4  1  0.96467900  0.18660900  0.41159400  1
  O  O5  1  0.75631000  0.41256400  0.57679600  1
  O  O6  1  0.74861300  0.93762700  0.09237500  1
  O  O7  1  0.57679600  0.75631000  0.41256400  1
  O  O8  1  0.81324900  0.61681500  0.00116700  1
  O  O9  1  0.41256400  0.57679600  0.75631000  1
  O  O10  1  0.88964300  0.27088700  0.04546500  1
  O  O11  1  0.61681500  0.00116700  0.81324900  1
  O  O12  1  0.41159400  0.96467900  0.18660900  1
  O  O13  1  0.09237500  0.74861300  0.93762700  1
  O  O14  1  0.58284500  0.45037700  0.23828500  1
  O  O15  1  0.18660900  0.41159400  0.96467900  1
  O  O16  1  0.45037700  0.23828500  0.58284500  1
  O  O17  1  0.27088700  0.04546500  0.88964300  1
  O  O18  1  0.23828500  0.58284500  0.45037700  1
  O  O19  1  0.00116700  0.81324900  0.61681500  1
  O  O20  1  0.49796200  0.11642100  0.30993900  1
  O  O21  1  0.04546500  0.88964300  0.27088700  1
  O  O22  1  0.30993900  0.49796200  0.11642100  1
  O  O23  1  0.11642100  0.30993900  0.49796200  1
loop_
_geom_bond_atom_site_label_1
_geom_bond_atom_site_label_2
_geom_bond_distance
_geom_bond_site_symmetry_2
Fe0 O2 2.169568 1_454
Fe0 O13 2.169568 1_544
Fe0 O6 2.169568 1_445
Fe0 O21 2.221604 1_545
Fe0 O10 2.221604 1_455
Fe0 O17 2.221604 1_554
Fe1 O14 2.232249 1_555
Fe1 O18 2.232249 1_555
Fe1 O16 2.232249 1_555
Fe1 O9 2.275253 1_555
Fe1 O5 2.275253 1_555
Fe1 O7 2.275253 1_555
O0 P4 1.540845 1_655
O0 Ti1 1.886769 1_555
O1 P2 1.540845 1_556
O1 Ti1 1.886769 1_555
O2 P0 1.558438 1_555
O2 Ti0 2.125516 1_545
O3 P3 1.540845 1_565
O3 Ti1 1.886769 1_555
O4 P0 1.522198 1_555
O4 Sb0 2.152653 1_655
O5 P0 1.565615 1_555
O5 Ti1 2.030406 1_555
O6 P1 1.558438 1_555
O6 Ti0 2.125516 1_554
O7 P1 1.565615 1_555
O7 Ti1 2.030406 1_555
O8 P2 1.550535 1_555
O8 Ti0 1.939677 1_554
O9 P5 1.565615 1_555
O9 Ti1 2.030406 1_555
O10 P2 1.549302 1_555
O10 Sb0 2.348420 1_655
O11 P3 1.550535 1_555
O11 Ti0 1.939677 1_545
O12 P1 1.522198 1_555
O12 Sb0 2.152653 1_565
O13 P5 1.558438 1_555
O13 Ti0 2.125516 1_455
O14 P2 1.563923 1_555
O14 Ti2 2.121427 1_555
O15 P5 1.522198 1_555
O15 Sb0 2.152653 1_556
O16 P3 1.563923 1_555
O16 Ti2 2.121427 1_555
O17 P3 1.549302 1_555
O17 Sb0 2.348420 1_556
O18 P4 1.563923 1_555
O18 Ti2 2.121427 1_555
O19 P4 1.550535 1_555
O19 Ti0 1.939677 1_455
O20 P1 1.556581 1_545
O20 Ti2 1.938375 1_555
O21 P4 1.549302 1_555
O21 Sb0 2.348420 1_565
O22 P5 1.556581 1_554
O22 Ti2 1.938375 1_555
O23 P0 1.556581 1_455
O23 Ti2 1.938375 1_555
