# generated using pymatgen
data_La6Mn3O14
_symmetry_space_group_name_H-M   'P 1'
_cell_length_a   5.57201500
_cell_length_b   5.59630200
_cell_length_c   21.09742532
_cell_angle_alpha   74.71991624
_cell_angle_beta   90.00000000
_cell_angle_gamma   90.00000000
_symmetry_Int_Tables_number   1
_chemical_formula_structural   La6Mn3O14
_chemical_formula_sum   'La12 Mn6 O28'
_cell_volume   634.61777779
_cell_formula_units_Z   2
loop_
 _symmetry_equiv_pos_site_id
 _symmetry_equiv_pos_as_xyz
  1  'x, y, z'
loop_
 _atom_site_type_symbol
 _atom_site_label
 _atom_site_symmetry_multiplicity
 _atom_site_fract_x
 _atom_site_fract_y
 _atom_site_fract_z
 _atom_site_occupancy
  La  La0  1  0.02753900  0.57111700  0.67670400  1
  La  La1  1  0.01303000  0.91861700  0.31677000  1
  La  La2  1  0.97910800  0.73361600  0.50852900  1
  La  La3  1  0.02089200  0.73361600  0.00852900  1
  La  La4  1  0.98697000  0.91861700  0.81677000  1
  La  La5  1  0.97246100  0.57111700  0.17670400  1
  La  La6  1  0.51202200  0.44324100  0.81909700  1
  La  La7  1  0.50414200  0.10457200  0.17740300  1
  La  La8  1  0.50756000  0.21756900  0.00999000  1
  La  La9  1  0.49244000  0.21756900  0.50999000  1
  La  La10  1  0.49585800  0.10457200  0.67740300  1
  La  La11  1  0.48797800  0.44324100  0.31909700  1
  Mn  Mn0  1  0.00155800  0.34544500  0.90343100  1
  Mn  Mn1  1  0.00507500  0.14763800  0.09804000  1
  Mn  Mn2  1  0.99492500  0.14763800  0.59804000  1
  Mn  Mn3  1  0.99844200  0.34544500  0.40343100  1
  Mn  Mn4  1  0.50371000  0.85216300  0.40222900  1
  Mn  Mn5  1  0.49629000  0.85216300  0.90222900  1
  O  O0  1  0.24823700  0.11450300  0.88157200  1
  O  O1  1  0.24835700  0.60714500  0.90022900  1
  O  O2  1  0.23575300  0.39824400  0.58575300  1
  O  O3  1  0.24150800  0.91490100  0.59753400  1
  O  O4  1  0.25221300  0.59036000  0.41812700  1
  O  O5  1  0.25327200  0.09887900  0.39984000  1
  O  O6  1  0.24183200  0.90105300  0.11101100  1
  O  O7  1  0.23970000  0.39361500  0.09723900  1
  O  O8  1  0.04604100  0.19941500  0.00355700  1
  O  O9  1  0.02778600  0.07986200  0.70017200  1
  O  O10  1  0.04587800  0.51111400  0.29286200  1
  O  O11  1  0.95412200  0.51111400  0.79286200  1
  O  O12  1  0.97221400  0.07986200  0.20017200  1
  O  O13  1  0.95395900  0.19941500  0.50355700  1
  O  O14  1  0.74672800  0.09887900  0.89984000  1
  O  O15  1  0.74778700  0.59036000  0.91812700  1
  O  O16  1  0.75816800  0.90105300  0.61101100  1
  O  O17  1  0.76030000  0.39361500  0.59723900  1
  O  O18  1  0.75164300  0.60714500  0.40022900  1
  O  O19  1  0.75176300  0.11450300  0.38157200  1
  O  O20  1  0.75849200  0.91490100  0.09753400  1
  O  O21  1  0.76424700  0.39824400  0.08575300  1
  O  O22  1  0.55597300  0.81567600  0.49170800  1
  O  O23  1  0.54207200  0.91095400  0.79911700  1
  O  O24  1  0.56541600  0.46594100  0.21428700  1
  O  O25  1  0.43458400  0.46594100  0.71428700  1
  O  O26  1  0.45792800  0.91095400  0.29911700  1
  O  O27  1  0.44402700  0.81567600  0.99170800  1
loop_
_geom_bond_atom_site_label_1
_geom_bond_atom_site_label_2
_geom_bond_distance
_geom_bond_site_symmetry_2
La0 O11 2.419087 1_455
La0 O25 2.423480 1_555
La0 O3 2.493791 1_555
La0 O16 2.496827 1_455
La0 O17 2.625357 1_455
La0 O2 2.634829 1_555
La0 O9 2.661928 1_555
La0 O9 3.015634 1_565
La1 O12 2.397335 1_465
La1 O19 2.445424 1_465
La1 O10 2.468791 1_555
La1 O26 2.508844 1_555
La1 O18 2.577254 1_455
La1 O5 2.610164 1_565
La1 O4 2.766403 1_555
La1 O26 3.117024 1_455
La1 O10 3.225038 1_565
La2 O22 2.410343 1_555
La2 O2 2.571034 1_655
La2 O13 2.584893 1_565
La2 O17 2.594735 1_555
La2 O4 2.720655 1_655
La2 O3 2.774372 1_655
La2 O16 2.852388 1_555
La2 O18 2.860112 1_555
La2 O13 3.022141 1_555
La2 O5 3.049540 1_665
La2 O19 3.211416 1_565
La2 O22 3.253100 1_655
La3 O27 2.410343 1_554
La3 O21 2.571034 1_455
La3 O8 2.584893 1_565
La3 O7 2.594735 1_555
La3 O15 2.720655 1_454
La3 O20 2.774372 1_455
La3 O6 2.852388 1_555
La3 O1 2.860112 1_554
La3 O8 3.022141 1_555
La3 O14 3.049540 1_464
La3 O0 3.211416 1_564
La3 O27 3.253100 1_454
La4 O9 2.397335 1_665
La4 O0 2.445424 1_665
La4 O11 2.468791 1_555
La4 O23 2.508844 1_555
La4 O1 2.577254 1_655
La4 O14 2.610164 1_565
La4 O15 2.766403 1_555
La4 O23 3.117024 1_655
La4 O11 3.225038 1_565
La5 O10 2.419087 1_655
La5 O24 2.423480 1_555
La5 O20 2.493791 1_555
La5 O6 2.496827 1_655
La5 O7 2.625357 1_655
La5 O21 2.634829 1_555
La5 O12 2.661928 1_555
La5 O12 3.015634 1_565
La6 O25 2.223457 1_555
La6 O0 2.450329 1_555
La6 O11 2.531422 1_555
La6 O23 2.544660 1_555
La6 O14 2.568214 1_555
La6 O1 2.599445 1_555
La6 O15 2.770444 1_555
La6 O23 3.121062 1_545
La6 O11 3.162812 1_455
La7 O24 2.375157 1_555
La7 O7 2.491199 1_555
La7 O6 2.497258 1_545
La7 O26 2.523433 1_545
La7 O21 2.620173 1_555
La7 O20 2.630078 1_545
La7 O12 2.648975 1_555
La7 O12 2.999938 1_455
La8 O27 2.406208 1_544
La8 O21 2.544551 1_555
La8 O20 2.566381 1_545
La8 O8 2.578583 1_555
La8 O7 2.746340 1_555
La8 O15 2.787320 1_554
La8 O6 2.807566 1_545
La8 O14 2.903645 1_554
La8 O8 3.006419 1_655
La8 O1 3.088772 1_554
La8 O0 3.253379 1_554
La8 O27 3.285922 1_554
La9 O22 2.406208 1_545
La9 O2 2.544551 1_555
La9 O3 2.566381 1_545
La9 O13 2.578583 1_555
La9 O17 2.746340 1_555
La9 O4 2.787320 1_555
La9 O16 2.807566 1_545
La9 O5 2.903645 1_555
La9 O13 3.006419 1_455
La9 O18 3.088772 1_555
La9 O19 3.253379 1_555
La9 O22 3.285922 1_555
La10 O25 2.375157 1_555
La10 O17 2.491199 1_555
La10 O16 2.497258 1_545
La10 O23 2.523433 1_545
La10 O2 2.620173 1_555
La10 O3 2.630078 1_545
La10 O9 2.648975 1_555
La10 O9 2.999938 1_655
La11 O24 2.223457 1_555
La11 O19 2.450329 1_555
La11 O10 2.531422 1_555
La11 O26 2.544660 1_555
La11 O5 2.568214 1_555
La11 O18 2.599445 1_555
La11 O4 2.770444 1_555
La11 O26 3.121062 1_545
La11 O10 3.162812 1_655
Mn0 O14 1.995247 1_455
Mn0 O1 1.997102 1_555
Mn0 O0 2.021491 1_555
Mn0 O15 2.048939 1_455
Mn0 O8 2.069211 1_556
Mn0 O11 2.287159 1_455
Mn1 O6 1.876292 1_545
Mn1 O20 1.895162 1_445
Mn1 O7 1.895275 1_555
Mn1 O21 1.908711 1_455
Mn1 O8 1.950658 1_555
Mn1 O12 2.095102 1_455
Mn2 O16 1.876292 1_545
Mn2 O3 1.895162 1_645
Mn2 O17 1.895275 1_555
Mn2 O2 1.908711 1_655
Mn2 O13 1.950658 1_555
Mn2 O9 2.095102 1_655
Mn3 O5 1.995247 1_655
Mn3 O18 1.997102 1_555
Mn3 O19 2.021491 1_555
Mn3 O4 2.048939 1_655
Mn3 O13 2.069211 1_555
Mn3 O10 2.287159 1_655
Mn4 O22 1.867358 1_555
Mn4 O5 1.954342 1_565
Mn4 O18 1.954726 1_555
Mn4 O19 1.979511 1_565
Mn4 O4 1.990943 1_555
Mn4 O26 2.128012 1_555
Mn5 O27 1.867358 1_555
Mn5 O14 1.954342 1_565
Mn5 O1 1.954726 1_555
Mn5 O0 1.979511 1_565
Mn5 O15 1.990943 1_555
Mn5 O23 2.128012 1_555
