# generated using pymatgen
data_Li4Nb3Fe2Ni3O16
_symmetry_space_group_name_H-M   'P 1'
_cell_length_a   6.05226000
_cell_length_b   6.06092942
_cell_length_c   9.74961476
_cell_angle_alpha   91.25290054
_cell_angle_beta   90.36790298
_cell_angle_gamma   119.83920260
_symmetry_Int_Tables_number   1
_chemical_formula_structural   Li4Nb3Fe2Ni3O16
_chemical_formula_sum   'Li4 Nb3 Fe2 Ni3 O16'
_cell_volume   310.08875628
_cell_formula_units_Z   1
loop_
 _symmetry_equiv_pos_site_id
 _symmetry_equiv_pos_as_xyz
  1  'x, y, z'
loop_
 _atom_site_type_symbol
 _atom_site_label
 _atom_site_symmetry_multiplicity
 _atom_site_fract_x
 _atom_site_fract_y
 _atom_site_fract_z
 _atom_site_occupancy
  Li  Li0  1  0.65888600  0.32934200  0.88378900  1
  Li  Li1  1  0.97522200  0.94674500  0.98559600  1
  Li  Li2  1  0.99527200  0.98898500  0.50353000  1
  Li  Li3  1  0.32962400  0.66390100  0.40395800  1
  Nb  Nb0  1  0.33846500  0.17077600  0.21539000  1
  Nb  Nb1  1  0.83552400  0.17114200  0.21321200  1
  Nb  Nb2  1  0.17685400  0.34681800  0.71724700  1
  Fe  Fe0  1  0.68567900  0.35722000  0.50641500  1
  Fe  Fe1  1  0.34562500  0.69909700  0.97435400  1
  Ni  Ni0  1  0.82794400  0.65716300  0.21275700  1
  Ni  Ni1  1  0.16820700  0.82904600  0.71222200  1
  Ni  Ni2  1  0.66259400  0.83756500  0.71291500  1
  O  O0  1  0.34475800  0.20202900  0.59515700  1
  O  O1  1  0.51587400  0.02755800  0.33099900  1
  O  O2  1  0.65366000  0.31129900  0.09914900  1
  O  O3  1  0.00344900  0.00546300  0.31612800  1
  O  O4  1  0.01962800  0.00143200  0.80414600  1
  O  O5  1  0.84898100  0.18392900  0.59843000  1
  O  O6  1  0.51109000  0.46863400  0.34108700  1
  O  O7  1  0.95760500  0.46669100  0.34007200  1
  O  O8  1  0.15759100  0.31600100  0.10423900  1
  O  O9  1  0.85541100  0.68282800  0.60077900  1
  O  O10  1  0.03222800  0.49974100  0.84895500  1
  O  O11  1  0.47653200  0.51782600  0.84735200  1
  O  O12  1  0.31738200  0.66718100  0.60611400  1
  O  O13  1  0.17223000  0.84344900  0.10100900  1
  O  O14  1  0.46285600  0.96169300  0.83518600  1
  O  O15  1  0.67052500  0.84644400  0.09765400  1
loop_
_geom_bond_atom_site_label_1
_geom_bond_atom_site_label_2
_geom_bond_distance
_geom_bond_site_symmetry_2
Li0 O14 1.978183 1_545
Li0 O11 1.979061 1_555
Li0 O10 1.997627 1_655
Li0 O2 2.104532 1_556
Li1 O4 1.804105 1_665
Li1 O13 1.958630 1_656
Li1 O15 1.975652 1_556
Li1 O8 2.230976 1_666
Li2 O3 1.831647 1_665
Li2 O9 1.892854 1_555
Li2 O5 2.009919 1_565
Li2 O0 2.036344 1_665
Li3 O12 1.972848 1_555
Li3 O7 2.038981 1_455
Li3 O1 2.059393 1_565
Li3 O6 2.062287 1_555
Nb0 O6 1.965285 1_555
Nb0 O13 2.023430 1_545
Nb0 O2 2.025342 1_555
Nb0 O3 2.031415 1_555
Nb0 O1 2.032624 1_555
Nb0 O8 2.032932 1_555
Nb1 O7 1.964365 1_555
Nb1 O8 2.015806 1_655
Nb1 O15 2.018014 1_545
Nb1 O3 2.023519 1_655
Nb1 O2 2.031229 1_555
Nb1 O1 2.053202 1_555
Nb2 O11 2.003781 1_555
Nb2 O10 2.010941 1_555
Nb2 O0 2.019143 1_555
Nb2 O4 2.027577 1_555
Nb2 O12 2.031742 1_555
Nb2 O5 2.055543 1_455
Fe0 O9 1.920255 1_555
Fe0 O5 1.986859 1_555
Fe0 O0 2.004460 1_555
Fe0 O7 2.184864 1_555
Fe0 O6 2.215057 1_555
Fe0 O1 2.399562 1_555
Fe1 O14 1.964834 1_555
Fe1 O10 2.043850 1_555
Fe1 O11 2.046292 1_555
Fe1 O13 2.067529 1_556
Fe1 O15 2.069893 1_556
Fe1 O8 2.409883 1_556
Ni0 O3 2.064508 1_665
Ni0 O2 2.101626 1_555
Ni0 O7 2.107365 1_555
Ni0 O6 2.112187 1_555
Ni0 O13 2.131992 1_655
Ni0 O15 2.147891 1_555
Ni1 O4 1.899438 1_565
Ni1 O12 1.922720 1_555
Ni1 O14 1.940980 1_555
Ni1 O9 1.952371 1_455
Ni1 O10 2.221235 1_555
Ni1 O0 2.297723 1_565
Ni2 O4 2.061040 1_665
Ni2 O12 2.072158 1_555
Ni2 O14 2.081533 1_555
Ni2 O9 2.120694 1_555
Ni2 O5 2.165049 1_565
Ni2 O11 2.167934 1_555
