# generated using pymatgen
data_Li6Mg(Ni6O13)2
_symmetry_space_group_name_H-M   'P 1'
_cell_length_a   7.48631700
_cell_length_b   7.68266745
_cell_length_c   8.12835623
_cell_angle_alpha   78.06770482
_cell_angle_beta   75.35769388
_cell_angle_gamma   86.61706459
_symmetry_Int_Tables_number   1
_chemical_formula_structural   Li6Mg(Ni6O13)2
_chemical_formula_sum   'Li6 Mg1 Ni12 O26'
_cell_volume   442.53366392
_cell_formula_units_Z   1
loop_
 _symmetry_equiv_pos_site_id
 _symmetry_equiv_pos_as_xyz
  1  'x, y, z'
loop_
 _atom_site_type_symbol
 _atom_site_label
 _atom_site_symmetry_multiplicity
 _atom_site_fract_x
 _atom_site_fract_y
 _atom_site_fract_z
 _atom_site_occupancy
  Li  Li0  1  0.97614600  0.99247600  0.49411500  1
  Li  Li1  1  0.39597600  0.93344000  0.43725900  1
  Li  Li2  1  0.53111600  0.68568100  0.17748700  1
  Li  Li3  1  0.43562500  0.31570800  0.81202100  1
  Li  Li4  1  0.94577200  0.61211800  0.10964900  1
  Li  Li5  1  0.85430300  0.24973900  0.74663000  1
  Mg  Mg0  1  0.00468200  0.00119500  0.00168000  1
  Ni  Ni0  1  0.07666300  0.38480000  0.38171000  1
  Ni  Ni1  1  0.23410700  0.15224600  0.15534100  1
  Ni  Ni2  1  0.15294300  0.77271400  0.76825600  1
  Ni  Ni3  1  0.30319400  0.54405300  0.53774000  1
  Ni  Ni4  1  0.46185100  0.30707100  0.30938500  1
  Ni  Ni5  1  0.61774400  0.06907500  0.08031600  1
  Ni  Ni6  1  0.38716700  0.92150200  0.92137000  1
  Ni  Ni7  1  0.53705100  0.69379100  0.68998100  1
  Ni  Ni8  1  0.69179200  0.46115400  0.46162400  1
  Ni  Ni9  1  0.84672400  0.23155400  0.23216500  1
  Ni  Ni10  1  0.77097500  0.84380300  0.84321500  1
  Ni  Ni11  1  0.92151700  0.61309000  0.61490100  1
  O  O0  1  0.00302200  0.03719700  0.23975200  1
  O  O1  1  0.05683300  0.36920900  0.16186000  1
  O  O2  1  0.07931300  0.41204500  0.60666200  1
  O  O3  1  0.15256200  0.75108900  0.54167700  1
  O  O4  1  0.23987200  0.17970000  0.38122500  1
  O  O5  1  0.30741900  0.51125100  0.31088900  1
  O  O6  1  0.17224100  0.78629100  0.98794400  1
  O  O7  1  0.40573200  0.92784300  0.14888900  1
  O  O8  1  0.24923300  0.12900200  0.92793000  1
  O  O9  1  0.46354800  0.27228700  0.08486200  1
  O  O10  1  0.30342100  0.56564300  0.76123500  1
  O  O11  1  0.36726800  0.90857100  0.69808800  1
  O  O12  1  0.45795600  0.34163400  0.53599600  1
  O  O13  1  0.51409600  0.68186600  0.46675400  1
  O  O14  1  0.61700200  0.10156600  0.30562500  1
  O  O15  1  0.68246700  0.43715900  0.23743700  1
  O  O16  1  0.54520200  0.71883400  0.91276300  1
  O  O17  1  0.76312200  0.85868400  0.07196600  1
  O  O18  1  0.61492500  0.05170500  0.85259400  1
  O  O19  1  0.82820600  0.21028900  0.01033000  1
  O  O20  1  0.69795300  0.46879200  0.68542000  1
  O  O21  1  0.77273000  0.81638100  0.61873400  1
  O  O22  1  0.86834800  0.24516200  0.45633200  1
  O  O23  1  0.92203300  0.58058000  0.37423500  1
  O  O24  1  0.92903700  0.64870800  0.85486200  1
  O  O25  1  0.99025700  0.97130600  0.75824400  1
loop_
_geom_bond_atom_site_label_1
_geom_bond_atom_site_label_2
_geom_bond_distance
_geom_bond_site_symmetry_2
Li0 O0 1.984289 1_665
Li0 O21 2.017915 1_555
Li0 O22 2.051368 1_565
Li0 O25 2.148298 1_555
Li0 O3 2.237296 1_655
Li0 O4 2.383778 1_665
Li1 O11 2.045617 1_555
Li1 O13 2.070957 1_555
Li1 O14 2.082502 1_565
Li1 O4 2.191900 1_565
Li1 O3 2.243070 1_555
Li1 O7 2.335841 1_555
Li2 O7 2.030217 1_555
Li2 O16 2.089960 1_554
Li2 O5 2.126511 1_555
Li2 O17 2.137017 1_555
Li2 O15 2.192225 1_555
Li2 O13 2.316468 1_555
Li3 O8 1.976107 1_555
Li3 O10 2.119316 1_555
Li3 O12 2.175086 1_555
Li3 O9 2.234640 1_556
Li3 O20 2.247076 1_555
Li3 O18 2.377017 1_555
Li4 O1 2.005451 1_655
Li4 O24 2.066407 1_554
Li4 O23 2.076525 1_555
Li4 O6 2.125099 1_654
Li4 O17 2.284290 1_555
Li4 O15 2.339112 1_555
Li5 O20 2.040951 1_555
Li5 O19 2.061804 1_556
Li5 O2 2.092638 1_655
Li5 O18 2.295131 1_555
Li5 O25 2.308404 1_545
Li5 O22 2.342789 1_555
Mg0 O0 2.007527 1_555
Mg0 O6 2.018143 1_544
Mg0 O19 2.019947 1_455
Mg0 O8 2.022167 1_554
Mg0 O17 2.061092 1_445
Mg0 O25 2.068484 1_444
Ni0 O23 1.843471 1_455
Ni0 O22 1.844183 1_455
Ni0 O1 1.858644 1_555
Ni0 O2 1.888034 1_555
Ni0 O5 1.929638 1_555
Ni0 O4 1.936153 1_555
Ni1 O8 1.868119 1_554
Ni1 O0 1.890613 1_555
Ni1 O9 1.897389 1_555
Ni1 O4 1.902304 1_555
Ni1 O1 2.069392 1_555
Ni1 O7 2.089901 1_545
Ni2 O6 1.851948 1_555
Ni2 O11 1.864928 1_555
Ni2 O24 1.878168 1_455
Ni2 O3 1.883815 1_555
Ni2 O10 1.896491 1_555
Ni2 O25 1.896635 1_455
Ni3 O13 1.852262 1_555
Ni3 O10 1.858472 1_555
Ni3 O12 1.883909 1_555
Ni3 O3 1.895725 1_555
Ni3 O5 1.904283 1_555
Ni3 O2 1.908528 1_555
Ni4 O4 1.877544 1_555
Ni4 O15 1.879745 1_555
Ni4 O5 1.893194 1_555
Ni4 O9 1.895194 1_555
Ni4 O14 1.904813 1_555
Ni4 O12 1.907463 1_555
Ni5 O19 1.864531 1_555
Ni5 O7 1.874314 1_545
Ni5 O9 1.887032 1_555
Ni5 O18 1.888571 1_554
Ni5 O14 1.897384 1_555
Ni5 O17 1.897931 1_545
Ni6 O8 1.850272 1_565
Ni6 O6 1.866925 1_555
Ni6 O11 1.881216 1_555
Ni6 O7 1.899949 1_556
Ni6 O16 1.901252 1_555
Ni6 O18 1.925757 1_565
Ni7 O16 1.876497 1_555
Ni7 O13 1.886389 1_555
Ni7 O21 1.946635 1_555
Ni7 O10 1.954256 1_555
Ni7 O11 2.024297 1_555
Ni7 O20 2.049040 1_555
Ni8 O20 1.844329 1_555
Ni8 O15 1.887929 1_555
Ni8 O23 1.901455 1_555
Ni8 O12 1.923081 1_555
Ni8 O22 2.060193 1_555
Ni8 O13 2.093236 1_555
Ni9 O0 1.842477 1_655
Ni9 O1 1.846920 1_655
Ni9 O19 1.883650 1_555
Ni9 O22 1.893968 1_555
Ni9 O14 1.936082 1_555
Ni9 O15 1.944526 1_555
Ni10 O24 1.855899 1_555
Ni10 O25 1.862328 1_555
Ni10 O17 1.872332 1_556
Ni10 O21 1.876288 1_555
Ni10 O16 1.892664 1_555
Ni10 O18 1.925327 1_565
Ni11 O21 1.864995 1_555
Ni11 O2 1.890262 1_655
Ni11 O20 1.957014 1_555
Ni11 O3 1.976125 1_655
Ni11 O23 2.021706 1_555
Ni11 O24 2.039728 1_555
