# generated using pymatgen
data_Sn
_symmetry_space_group_name_H-M   'P 1'
_cell_length_a   6.56326872
_cell_length_b   6.56326650
_cell_length_c   6.56326506
_cell_angle_alpha   109.47123530
_cell_angle_beta   109.47122841
_cell_angle_gamma   109.47121050
_symmetry_Int_Tables_number   1
_chemical_formula_structural   Sn
_chemical_formula_sum   Sn8
_cell_volume   217.63974678
_cell_formula_units_Z   8
loop_
 _symmetry_equiv_pos_site_id
 _symmetry_equiv_pos_as_xyz
  1  'x, y, z'
loop_
 _atom_site_type_symbol
 _atom_site_label
 _atom_site_symmetry_multiplicity
 _atom_site_fract_x
 _atom_site_fract_y
 _atom_site_fract_z
 _atom_site_occupancy
  Sn  Sn0_0  1  0.00000000  0.00000000  0.00000000  1
  Sn  Sn0_1  1  0.00000000  0.00000000  0.50000000  1
  Sn  Sn0_2  1  0.00000000  0.50000000  0.00000000  1
  Sn  Sn0_3  1  0.00000000  0.50000000  0.50000000  1
  Sn  Sn0_4  1  0.50000000  0.00000000  0.00000000  1
  Sn  Sn0_5  1  0.50000000  0.00000000  0.50000000  1
  Sn  Sn0_6  1  0.50000000  0.50000000  0.00000000  1
  Sn  Sn0_7  1  0.50000000  0.50000000  0.50000000  1
loop_
_geom_bond_atom_site_label_1
_geom_bond_atom_site_label_2
_geom_bond_distance
_geom_bond_site_symmetry_2
Sn0_0 Sn0_1 3.281633 1_554
Sn0_0 Sn0_1 3.281633 1_555
Sn0_0 Sn0_7 3.281633 1_444
Sn0_0 Sn0_7 3.281633 1_555
Sn0_0 Sn0_2 3.281633 1_555
Sn0_0 Sn0_2 3.281633 1_545
Sn0_0 Sn0_4 3.281634 1_555
Sn0_0 Sn0_4 3.281634 1_455
Sn0_1 Sn0_6 3.281633 1_556
Sn0_1 Sn0_6 3.281633 1_445
Sn0_1 Sn0_3 3.281633 1_555
Sn0_1 Sn0_3 3.281633 1_545
Sn0_1 Sn0_5 3.281634 1_455
Sn0_1 Sn0_5 3.281634 1_555
Sn0_2 Sn0_3 3.281633 1_555
Sn0_2 Sn0_3 3.281633 1_554
Sn0_2 Sn0_5 3.281633 1_565
Sn0_2 Sn0_5 3.281633 1_454
Sn0_2 Sn0_6 3.281634 1_555
Sn0_2 Sn0_6 3.281634 1_455
Sn0_3 Sn0_4 3.281633 1_566
Sn0_3 Sn0_4 3.281633 1_455
Sn0_3 Sn0_7 3.281634 1_555
Sn0_3 Sn0_7 3.281634 1_455
Sn0_4 Sn0_5 3.281633 1_555
Sn0_4 Sn0_5 3.281633 1_554
Sn0_4 Sn0_6 3.281633 1_555
Sn0_4 Sn0_6 3.281633 1_545
Sn0_5 Sn0_7 3.281633 1_555
Sn0_5 Sn0_7 3.281633 1_545
Sn0_6 Sn0_7 3.281633 1_554
Sn0_6 Sn0_7 3.281633 1_555
