# generated using pymatgen
data_Li8Mn(O2F)2
_symmetry_space_group_name_H-M   'P 1'
_cell_length_a   5.68516989
_cell_length_b   5.68516989
_cell_length_c   10.88214000
_cell_angle_alpha   90.00000000
_cell_angle_beta   90.00000000
_cell_angle_gamma   119.47845378
_symmetry_Int_Tables_number   1
_chemical_formula_structural   Li8Mn(O2F)2
_chemical_formula_sum   'Li16 Mn2 O8 F4'
_cell_volume   306.18953189
_cell_formula_units_Z   2
loop_
 _symmetry_equiv_pos_site_id
 _symmetry_equiv_pos_as_xyz
  1  'x, y, z'
loop_
 _atom_site_type_symbol
 _atom_site_label
 _atom_site_symmetry_multiplicity
 _atom_site_fract_x
 _atom_site_fract_y
 _atom_site_fract_z
 _atom_site_occupancy
  Li  Li0  1  0.68677400  0.68677400  0.27393400  1
  Li  Li1  1  0.59213100  0.59213100  0.62756800  1
  Li  Li2  1  0.40786900  0.40786900  0.12756800  1
  Li  Li3  1  0.31322600  0.31322600  0.77393400  1
  Li  Li4  1  0.33157700  0.65484800  0.90276100  1
  Li  Li5  1  0.34515200  0.66842300  0.40276100  1
  Li  Li6  1  0.00218600  0.30634700  0.26347900  1
  Li  Li7  1  0.00755700  0.38497100  0.63880700  1
  Li  Li8  1  0.99244300  0.61502900  0.13880700  1
  Li  Li9  1  0.69365300  0.99781400  0.76347900  1
  Li  Li10  1  0.99781400  0.69365300  0.76347900  1
  Li  Li11  1  0.61502900  0.99244300  0.13880700  1
  Li  Li12  1  0.66842300  0.34515200  0.40276100  1
  Li  Li13  1  0.65484800  0.33157700  0.90276100  1
  Li  Li14  1  0.38497100  0.00755700  0.63880700  1
  Li  Li15  1  0.30634700  0.00218600  0.26347900  1
  Mn  Mn0  1  0.97415400  0.97415400  0.50025400  1
  Mn  Mn1  1  0.02584600  0.02584600  0.00025400  1
  O  O0  1  0.65028200  0.65028200  0.45097700  1
  O  O1  1  0.34971800  0.34971800  0.95097700  1
  O  O2  1  0.33428700  0.67359700  0.71850400  1
  O  O3  1  0.01567800  0.01567800  0.68489500  1
  O  O4  1  0.32640300  0.66571300  0.21850400  1
  O  O5  1  0.98432200  0.98432200  0.18489500  1
  O  O6  1  0.66571300  0.32640300  0.21850400  1
  O  O7  1  0.67359700  0.33428700  0.71850400  1
  F  F0  1  0.00398000  0.35188300  0.45049600  1
  F  F1  1  0.64811700  0.99602000  0.95049600  1
  F  F2  1  0.99602000  0.64811700  0.95049600  1
  F  F3  1  0.35188300  0.00398000  0.45049600  1
loop_
_geom_bond_atom_site_label_1
_geom_bond_atom_site_label_2
_geom_bond_distance
_geom_bond_site_symmetry_2
Li0 O0 1.937920 1_555
Li0 O5 1.961024 1_555
Li0 O4 2.081877 1_555
Li0 O6 2.081877 1_555
Li1 O0 1.950361 1_555
Li1 O2 2.002695 1_555
Li1 O7 2.002695 1_555
Li1 O3 2.505791 1_665
Li2 O1 1.950361 1_554
Li2 O4 2.002695 1_555
Li2 O6 2.002695 1_555
Li2 O5 2.505791 1_445
Li3 O1 1.937920 1_555
Li3 O3 1.961024 1_555
Li3 O7 2.081877 1_555
Li3 O2 2.081877 1_555
Li4 O1 1.863132 1_555
Li4 O2 2.007598 1_555
Li5 O0 1.863132 1_555
Li5 O4 2.007598 1_555
Li6 O5 1.977456 1_445
Li6 O4 2.026035 1_555
Li6 O6 2.031357 1_455
Li7 O2 1.973638 1_555
Li7 O7 1.975225 1_455
Li7 O3 2.181042 1_555
Li8 O6 1.973638 1_555
Li8 O4 1.975225 1_655
Li8 O5 2.181042 1_555
Li9 O3 1.977456 1_665
Li9 O2 2.026035 1_555
Li9 O7 2.031357 1_565
Li10 O3 1.977456 1_665
Li10 O7 2.026035 1_555
Li10 O2 2.031357 1_655
Li11 O4 1.973638 1_555
Li11 O6 1.975225 1_565
Li11 O5 2.181042 1_555
Li12 O0 1.863132 1_555
Li12 O6 2.007598 1_555
Li13 O1 1.863132 1_555
Li13 O7 2.007598 1_555
Li14 O7 1.973638 1_555
Li14 O2 1.975225 1_545
Li14 O3 2.181042 1_555
Li15 O5 1.977456 1_445
Li15 O6 2.026035 1_555
Li15 O4 2.031357 1_545
Mn0 O0 1.931686 1_555
Mn0 O3 2.023327 1_665
Mn1 O1 1.931686 1_554
Mn1 O5 2.023327 1_445
F0 Li5 1.958350 1_555
F0 Li12 1.959277 1_455
F0 Li6 2.050936 1_555
F0 Li7 2.057028 1_555
F0 Mn0 2.138954 1_445
F1 Li4 1.958350 1_555
F1 Li13 1.959277 1_565
F1 Li9 2.050936 1_555
F1 Li11 2.057028 1_556
F1 Mn1 2.138954 1_666
F2 Li13 1.958350 1_555
F2 Li4 1.959277 1_655
F2 Li10 2.050936 1_555
F2 Li8 2.057028 1_556
F2 Mn1 2.138954 1_666
F3 Li12 1.958350 1_555
F3 Li5 1.959277 1_545
F3 Li15 2.050936 1_555
F3 Li14 2.057028 1_555
F3 Mn0 2.138954 1_445
