# generated using pymatgen
data_FePO4
_symmetry_space_group_name_H-M   'P 1'
_cell_length_a   10.37544664
_cell_length_b   10.37544664
_cell_length_c   17.86506661
_cell_angle_alpha   71.57870992
_cell_angle_beta   71.57870992
_cell_angle_gamma   58.82227872
_symmetry_Int_Tables_number   1
_chemical_formula_structural   FePO4
_chemical_formula_sum   'Fe16 P16 O64'
_cell_volume   1533.32379173
_cell_formula_units_Z   16
loop_
 _symmetry_equiv_pos_site_id
 _symmetry_equiv_pos_as_xyz
  1  'x, y, z'
loop_
 _atom_site_type_symbol
 _atom_site_label
 _atom_site_symmetry_multiplicity
 _atom_site_fract_x
 _atom_site_fract_y
 _atom_site_fract_z
 _atom_site_occupancy
  Fe  Fe0  1  0.37174500  0.93650400  0.68874300  1
  Fe  Fe1  1  0.87118100  0.50018100  0.68731200  1
  Fe  Fe2  1  0.99913600  0.87093100  0.18586900  1
  Fe  Fe3  1  0.37414700  0.43674600  0.69008500  1
  Fe  Fe4  1  0.18886400  0.25280300  0.93820100  1
  Fe  Fe5  1  0.12143500  0.75379800  0.93881200  1
  Fe  Fe6  1  0.61952200  0.75849300  0.93953200  1
  Fe  Fe7  1  0.87093100  0.99913600  0.68586900  1
  Fe  Fe8  1  0.75379800  0.12143500  0.43881200  1
  Fe  Fe9  1  0.25578700  0.68788900  0.43840000  1
  Fe  Fe10  1  0.43674600  0.37414700  0.19008500  1
  Fe  Fe11  1  0.25280300  0.18886400  0.43820100  1
  Fe  Fe12  1  0.68788900  0.25578700  0.93840000  1
  Fe  Fe13  1  0.50018100  0.87118100  0.18731200  1
  Fe  Fe14  1  0.75849300  0.61952200  0.43953200  1
  Fe  Fe15  1  0.93650400  0.37174500  0.18874300  1
  P  P0  1  0.68344300  0.06669800  0.12527300  1
  P  P1  1  0.12420900  0.56282900  0.12608500  1
  P  P2  1  0.87318100  0.44360400  0.87509700  1
  P  P3  1  0.18420700  0.06357400  0.12512900  1
  P  P4  1  0.94294400  0.81047300  0.37643300  1
  P  P5  1  0.94099900  0.30868100  0.37717800  1
  P  P6  1  0.44360400  0.87318100  0.37509700  1
  P  P7  1  0.56282900  0.12420900  0.62608500  1
  P  P8  1  0.06357400  0.18420700  0.62512900  1
  P  P9  1  0.43891100  0.37170000  0.37537900  1
  P  P10  1  0.56452300  0.62337200  0.62608100  1
  P  P11  1  0.06669800  0.68344300  0.62527300  1
  P  P12  1  0.81047300  0.94294400  0.87643300  1
  P  P13  1  0.62337200  0.56452300  0.12608100  1
  P  P14  1  0.37170000  0.43891100  0.87537900  1
  P  P15  1  0.30868100  0.94099900  0.87717800  1
  O  O0  1  0.16089000  0.13626000  0.54403300  1
  O  O1  1  0.82879800  0.91216600  0.43961900  1
  O  O2  1  0.40270600  0.90975500  0.29203100  1
  O  O3  1  0.92896700  0.66049200  0.40045400  1
  O  O4  1  0.65934300  0.15740100  0.54380600  1
  O  O5  1  0.16253900  0.08047400  0.69081700  1
  O  O6  1  0.91691600  0.16491000  0.64690900  1
  O  O7  1  0.10822900  0.27165100  0.37074900  1
  O  O8  1  0.51942500  0.50427300  0.62407100  1
  O  O9  1  0.63452000  0.16413700  0.04423600  1
  O  O10  1  0.56407500  0.66219900  0.19138000  1
  O  O11  1  0.66224300  0.06121700  0.69091500  1
  O  O12  1  0.08047400  0.16253900  0.19081700  1
  O  O13  1  0.61326700  0.74889900  0.37213900  1
  O  O14  1  0.77042200  0.41493800  0.14571200  1
  O  O15  1  0.01425400  0.85542600  0.61869400  1
  O  O16  1  0.65757700  0.66070800  0.04394100  1
  O  O17  1  0.10916600  0.77318200  0.37296400  1
  O  O18  1  0.01154000  0.35564900  0.61995400  1
  O  O19  1  0.92667800  0.15867700  0.40223700  1
  O  O20  1  0.90975500  0.40270600  0.79203100  1
  O  O21  1  0.42219000  0.01759200  0.39558300  1
  O  O22  1  0.33479100  0.81529500  0.43981400  1
  O  O23  1  0.51472900  0.00737000  0.62380900  1
  O  O24  1  0.16413700  0.63452000  0.54423600  1
  O  O25  1  0.13626000  0.16089000  0.04403300  1
  O  O26  1  0.91979200  0.66413500  0.64791800  1
  O  O27  1  0.81529500  0.33479100  0.93981400  1
  O  O28  1  0.66070800  0.65757700  0.54394100  1
  O  O29  1  0.85542600  0.01425400  0.11869400  1
  O  O30  1  0.01759200  0.42219000  0.89558300  1
  O  O31  1  0.16491000  0.91691600  0.14690900  1
  O  O32  1  0.89089900  0.39915100  0.29522300  1
  O  O33  1  0.51718200  0.41996600  0.89383800  1
  O  O34  1  0.90262200  0.89989700  0.29246500  1
  O  O35  1  0.66219900  0.56407500  0.69138000  1
  O  O36  1  0.15867700  0.92667800  0.90223700  1
  O  O37  1  0.00737000  0.51472900  0.12380900  1
  O  O38  1  0.41555300  0.27208400  0.64641100  1
  O  O39  1  0.33455700  0.31198000  0.44302300  1
  O  O40  1  0.89989700  0.90262200  0.79246500  1
  O  O41  1  0.91216600  0.82879800  0.93961900  1
  O  O42  1  0.31198000  0.33455700  0.94302300  1
  O  O43  1  0.38879300  0.40755300  0.29525300  1
  O  O44  1  0.77318200  0.10916600  0.87296400  1
  O  O45  1  0.27165100  0.10822900  0.87074900  1
  O  O46  1  0.06121700  0.66224300  0.19091500  1
  O  O47  1  0.74889900  0.61326700  0.87213900  1
  O  O48  1  0.60993600  0.25020400  0.37015400  1
  O  O49  1  0.41996600  0.51718200  0.39383800  1
  O  O50  1  0.27208400  0.41555300  0.14641100  1
  O  O51  1  0.39915100  0.89089900  0.79522300  1
  O  O52  1  0.66413500  0.91979200  0.14791800  1
  O  O53  1  0.50427300  0.51942500  0.12407100  1
  O  O54  1  0.40755300  0.38879300  0.79525300  1
  O  O55  1  0.66049200  0.92896700  0.90045400  1
  O  O56  1  0.40994900  0.83233500  0.94153100  1
  O  O57  1  0.58158000  0.16534500  0.19106400  1
  O  O58  1  0.41493800  0.77042200  0.64571200  1
  O  O59  1  0.83233500  0.40994900  0.44153100  1
  O  O60  1  0.25020400  0.60993600  0.87015400  1
  O  O61  1  0.15740100  0.65934300  0.04380600  1
  O  O62  1  0.35564900  0.01154000  0.11995400  1
  O  O63  1  0.16534500  0.58158000  0.69106400  1
loop_
_geom_bond_atom_site_label_1
_geom_bond_atom_site_label_2
_geom_bond_distance
_geom_bond_site_symmetry_2
Fe0 O51 1.886019 1_555
Fe0 O5 1.889777 1_565
Fe0 O58 1.892369 1_555
Fe0 O23 1.894688 1_565
Fe1 O20 1.881829 1_555
Fe1 O26 1.884350 1_555
Fe1 O35 1.894406 1_555
Fe1 O18 1.894574 1_655
Fe2 O31 1.885101 1_655
Fe2 O34 1.887990 1_555
Fe2 O46 1.892236 1_655
Fe2 O29 1.892633 1_565
Fe3 O54 1.881467 1_555
Fe3 O63 1.890440 1_555
Fe3 O38 1.892825 1_555
Fe3 O8 1.897761 1_555
Fe4 O25 1.878628 1_556
Fe4 O45 1.895825 1_555
Fe4 O42 1.896371 1_555
Fe4 O30 1.897899 1_555
Fe5 O61 1.876160 1_556
Fe5 O41 1.886276 1_455
Fe5 O60 1.890516 1_555
Fe5 O36 1.900254 1_555
Fe6 O16 1.875939 1_556
Fe6 O47 1.884882 1_555
Fe6 O56 1.886709 1_555
Fe6 O55 1.899222 1_555
Fe7 O6 1.885101 1_565
Fe7 O40 1.887990 1_555
Fe7 O11 1.892236 1_565
Fe7 O15 1.892633 1_655
Fe8 O4 1.876160 1_555
Fe8 O1 1.886276 1_545
Fe8 O48 1.890516 1_555
Fe8 O19 1.900254 1_555
Fe9 O24 1.879634 1_555
Fe9 O17 1.881544 1_555
Fe9 O22 1.891044 1_555
Fe9 O49 1.892809 1_555
Fe10 O43 1.881467 1_555
Fe10 O57 1.890440 1_555
Fe10 O50 1.892825 1_555
Fe10 O53 1.897761 1_555
Fe11 O0 1.878628 1_555
Fe11 O7 1.895825 1_555
Fe11 O39 1.896371 1_555
Fe11 O21 1.897899 1_555
Fe12 O9 1.879634 1_556
Fe12 O44 1.881544 1_555
Fe12 O27 1.891044 1_555
Fe12 O33 1.892809 1_555
Fe13 O2 1.881829 1_555
Fe13 O52 1.884350 1_555
Fe13 O10 1.894406 1_555
Fe13 O62 1.894574 1_565
Fe14 O28 1.875939 1_555
Fe14 O13 1.884882 1_555
Fe14 O59 1.886709 1_555
Fe14 O3 1.899222 1_555
Fe15 O32 1.886019 1_555
Fe15 O12 1.889777 1_655
Fe15 O14 1.892369 1_555
Fe15 O37 1.894688 1_655
O0 P8 1.541707 1_555
O1 P4 1.550522 1_555
O2 P6 1.549713 1_555
O3 P4 1.548862 1_555
O4 P7 1.545599 1_555
O5 P8 1.552071 1_555
O6 P8 1.548835 1_655
O7 P5 1.543714 1_455
O8 P10 1.544191 1_555
O9 P0 1.543939 1_555
O10 P13 1.553855 1_555
O11 P7 1.552773 1_555
O12 P3 1.552071 1_555
O13 P6 1.548660 1_555
O14 P13 1.549832 1_555
O15 P11 1.548076 1_555
O16 P13 1.545082 1_555
O17 P4 1.544213 1_455
O18 P8 1.548354 1_555
O19 P5 1.549773 1_555
O20 P2 1.549713 1_555
O21 P6 1.542334 1_545
O22 P6 1.552513 1_555
O23 P7 1.546174 1_555
O24 P11 1.543939 1_555
O25 P3 1.541707 1_555
O26 P11 1.549919 1_655
O27 P2 1.552513 1_555
O28 P10 1.545082 1_555
O29 P0 1.548076 1_555
O30 P2 1.542334 1_455
O31 P3 1.548835 1_565
O32 P5 1.549903 1_555
O33 P14 1.546681 1_555
O34 P4 1.549598 1_555
O35 P10 1.553855 1_555
O36 P15 1.549773 1_555
O37 P1 1.546174 1_555
O38 P7 1.547516 1_555
O39 P9 1.552755 1_555
O40 P12 1.549598 1_555
O41 P12 1.550522 1_555
O42 P14 1.552755 1_555
O43 P9 1.546435 1_555
O44 P12 1.544213 1_545
O45 P15 1.543714 1_545
O46 P1 1.552773 1_555
O47 P2 1.548660 1_555
O48 P9 1.549244 1_555
O49 P9 1.546681 1_555
O50 P1 1.547516 1_555
O51 P15 1.549903 1_555
O52 P0 1.549919 1_565
O53 P13 1.544191 1_555
O54 P14 1.546435 1_555
O55 P12 1.548862 1_555
O56 P15 1.553883 1_555
O57 P0 1.549592 1_555
O58 P10 1.549832 1_555
O59 P5 1.553883 1_555
O60 P14 1.549244 1_555
O61 P1 1.545599 1_555
O62 P3 1.548354 1_555
O63 P11 1.549592 1_555
