# generated using pymatgen
data_Mn3CoO8
_symmetry_space_group_name_H-M   'P 1'
_cell_length_a   5.72246273
_cell_length_b   5.72246273
_cell_length_c   5.72246293
_cell_angle_alpha   61.25249657
_cell_angle_beta   61.25249657
_cell_angle_gamma   61.25250311
_symmetry_Int_Tables_number   1
_chemical_formula_structural   Mn3CoO8
_chemical_formula_sum   'Mn3 Co1 O8'
_cell_volume   136.23736485
_cell_formula_units_Z   1
loop_
 _symmetry_equiv_pos_site_id
 _symmetry_equiv_pos_as_xyz
  1  'x, y, z'
loop_
 _atom_site_type_symbol
 _atom_site_label
 _atom_site_symmetry_multiplicity
 _atom_site_fract_x
 _atom_site_fract_y
 _atom_site_fract_z
 _atom_site_occupancy
  Mn  Mn0  1  0.50000000  0.50000000  0.00000000  1
  Mn  Mn1  1  0.50000000  0.00000000  0.50000000  1
  Mn  Mn2  1  0.00000000  0.50000000  0.50000000  1
  Co  Co0  1  0.50000000  0.50000000  0.50000000  1
  O  O0  1  0.26323600  0.26323600  0.26323600  1
  O  O1  1  0.70521800  0.26743200  0.26743200  1
  O  O2  1  0.26743200  0.26743200  0.70521800  1
  O  O3  1  0.26743200  0.70521800  0.26743200  1
  O  O4  1  0.73256800  0.29478200  0.73256800  1
  O  O5  1  0.73256800  0.73256800  0.29478200  1
  O  O6  1  0.29478200  0.73256800  0.73256800  1
  O  O7  1  0.73676400  0.73676400  0.73676400  1
loop_
_geom_bond_atom_site_label_1
_geom_bond_atom_site_label_2
_geom_bond_distance
_geom_bond_site_symmetry_2
Mn0 O3 1.938706 1_555
Mn0 O4 1.938706 1_554
Mn0 O1 1.938706 1_555
Mn0 O6 1.938706 1_554
Mn0 O7 1.944193 1_554
Mn0 O0 1.944193 1_555
Mn1 O1 1.938706 1_555
Mn1 O6 1.938706 1_545
Mn1 O2 1.938706 1_555
Mn1 O5 1.938706 1_545
Mn1 O7 1.944193 1_545
Mn1 O0 1.944193 1_555
Mn2 O3 1.938706 1_555
Mn2 O4 1.938706 1_455
Mn2 O2 1.938706 1_555
Mn2 O5 1.938706 1_455
Mn2 O7 1.944193 1_455
Mn2 O0 1.944193 1_555
Co0 O2 1.902233 1_555
Co0 O5 1.902233 1_555
Co0 O4 1.902233 1_555
Co0 O1 1.902233 1_555
Co0 O3 1.902233 1_555
Co0 O6 1.902233 1_555
