# generated using pymatgen
data_Na2V13O22
_symmetry_space_group_name_H-M   'P 1'
_cell_length_a   7.75725544
_cell_length_b   7.75725544
_cell_length_c   14.07305400
_cell_angle_alpha   90.00000000
_cell_angle_beta   90.00000000
_cell_angle_gamma   96.69904060
_symmetry_Int_Tables_number   1
_chemical_formula_structural   Na2V13O22
_chemical_formula_sum   'Na4 V26 O44'
_cell_volume   841.06443819
_cell_formula_units_Z   2
loop_
 _symmetry_equiv_pos_site_id
 _symmetry_equiv_pos_as_xyz
  1  'x, y, z'
loop_
 _atom_site_type_symbol
 _atom_site_label
 _atom_site_symmetry_multiplicity
 _atom_site_fract_x
 _atom_site_fract_y
 _atom_site_fract_z
 _atom_site_occupancy
  Na  Na0  1  0.66168600  0.66168600  0.90654300  1
  Na  Na1  1  0.16168600  0.16168600  0.59345700  1
  Na  Na2  1  0.83831400  0.83831400  0.40654300  1
  Na  Na3  1  0.33831400  0.33831400  0.09345700  1
  V  V0  1  0.06737100  0.81144200  0.18219100  1
  V  V1  1  0.18855800  0.93262900  0.81780900  1
  V  V2  1  0.22889700  0.77110300  0.50000000  1
  V  V3  1  0.06214000  0.55264600  0.65185400  1
  V  V4  1  0.44735400  0.93786000  0.34814600  1
  V  V5  1  0.05264600  0.56214000  0.84814600  1
  V  V6  1  0.43786000  0.94735400  0.15185400  1
  V  V7  1  0.27110300  0.72889700  0.00000000  1
  V  V8  1  0.31144200  0.56737100  0.31780900  1
  V  V9  1  0.43262900  0.68855800  0.68219100  1
  V  V10  1  0.00000000  0.00000000  0.00000000  1
  V  V11  1  0.33092900  0.33092900  0.84031100  1
  V  V12  1  0.83092900  0.83092900  0.65968900  1
  V  V13  1  0.50000000  0.50000000  0.50000000  1
  V  V14  1  0.66907100  0.66907100  0.15968900  1
  V  V15  1  0.16907100  0.16907100  0.34031100  1
  V  V16  1  0.68855800  0.43262900  0.68219100  1
  V  V17  1  0.56737100  0.31144200  0.31780900  1
  V  V18  1  0.72889700  0.27110300  0.00000000  1
  V  V19  1  0.94735400  0.43786000  0.15185400  1
  V  V20  1  0.56214000  0.05264600  0.84814600  1
  V  V21  1  0.93786000  0.44735400  0.34814600  1
  V  V22  1  0.55264600  0.06214000  0.65185400  1
  V  V23  1  0.77110300  0.22889700  0.50000000  1
  V  V24  1  0.93262900  0.18855800  0.81780900  1
  V  V25  1  0.81144200  0.06737100  0.18219100  1
  O  O0  1  0.02081200  0.76801300  0.57494900  1
  O  O1  1  0.23198700  0.97918800  0.42505100  1
  O  O2  1  0.05281800  0.78493100  0.92180900  1
  O  O3  1  0.21506900  0.94718200  0.07819100  1
  O  O4  1  0.12012100  0.61037100  0.09348000  1
  O  O5  1  0.38962900  0.87987900  0.90652000  1
  O  O6  1  0.20956500  0.70956500  0.75000000  1
  O  O7  1  0.29043500  0.79043500  0.25000000  1
  O  O8  1  0.11037100  0.62012100  0.40652000  1
  O  O9  1  0.37987900  0.88962900  0.59348000  1
  O  O10  1  0.11427200  0.36991000  0.75843200  1
  O  O11  1  0.63009000  0.88572800  0.24156800  1
  O  O12  1  0.61427200  0.86991000  0.74156800  1
  O  O13  1  0.13009000  0.38572800  0.25843200  1
  O  O14  1  0.28493100  0.55281800  0.57819100  1
  O  O15  1  0.44718200  0.71506900  0.42180900  1
  O  O16  1  0.26801300  0.52081200  0.92505100  1
  O  O17  1  0.47918800  0.73198700  0.07494900  1
  O  O18  1  0.14020400  0.14020400  0.90045900  1
  O  O19  1  0.49577700  0.49577700  0.75868100  1
  O  O20  1  0.99577700  0.99577700  0.74131900  1
  O  O21  1  0.64020400  0.64020400  0.59954100  1
  O  O22  1  0.35979600  0.35979600  0.40045900  1
  O  O23  1  0.50422300  0.50422300  0.24131900  1
  O  O24  1  0.85979600  0.85979600  0.09954100  1
  O  O25  1  0.00422300  0.00422300  0.25868100  1
  O  O26  1  0.52081200  0.26801300  0.92505100  1
  O  O27  1  0.73198700  0.47918800  0.07494900  1
  O  O28  1  0.55281800  0.28493100  0.57819100  1
  O  O29  1  0.71506900  0.44718200  0.42180900  1
  O  O30  1  0.86991000  0.61427200  0.74156800  1
  O  O31  1  0.88572800  0.63009000  0.24156800  1
  O  O32  1  0.36991000  0.11427200  0.75843200  1
  O  O33  1  0.38572800  0.13009000  0.25843200  1
  O  O34  1  0.88962900  0.37987900  0.59348000  1
  O  O35  1  0.62012100  0.11037100  0.40652000  1
  O  O36  1  0.70956500  0.20956500  0.75000000  1
  O  O37  1  0.79043500  0.29043500  0.25000000  1
  O  O38  1  0.87987900  0.38962900  0.90652000  1
  O  O39  1  0.61037100  0.12012100  0.09348000  1
  O  O40  1  0.78493100  0.05281800  0.92180900  1
  O  O41  1  0.94718200  0.21506900  0.07819100  1
  O  O42  1  0.76801300  0.02081200  0.57494900  1
  O  O43  1  0.97918800  0.23198700  0.42505100  1
loop_
_geom_bond_atom_site_label_1
_geom_bond_atom_site_label_2
_geom_bond_distance
_geom_bond_site_symmetry_2
Na0 O19 2.693753 1_555
Na0 O17 2.845789 1_556
Na0 O27 2.845789 1_556
Na0 O38 2.855182 1_555
Na0 O5 2.855182 1_555
Na0 O30 2.876318 1_555
Na0 O12 2.876318 1_555
Na1 O20 2.693753 1_445
Na1 O43 2.845789 1_455
Na1 O1 2.845789 1_545
Na1 O34 2.855182 1_455
Na1 O9 2.855182 1_545
Na1 O10 2.876318 1_555
Na1 O32 2.876318 1_555
Na2 O25 2.693753 1_665
Na2 O0 2.845789 1_655
Na2 O42 2.845789 1_565
Na2 O35 2.855182 1_565
Na2 O8 2.855182 1_655
Na2 O31 2.876318 1_555
Na2 O11 2.876318 1_555
Na3 O23 2.693753 1_555
Na3 O26 2.845789 1_554
Na3 O16 2.845789 1_554
Na3 O4 2.855182 1_555
Na3 O39 2.855182 1_555
Na3 O13 2.876318 1_555
Na3 O33 2.876318 1_555
O0 V2 1.926035 1_555
O0 V12 1.999435 1_455
O0 V3 2.046993 1_555
O1 V2 1.926035 1_555
O1 V15 1.999435 1_565
O1 V4 2.046993 1_555
O2 V5 2.015185 1_555
O2 V1 2.069322 1_555
O2 V10 2.078841 1_566
O2 V7 2.106834 1_556
O3 V6 2.015185 1_555
O3 V0 2.069322 1_555
O3 V10 2.078841 1_565
O3 V7 2.106834 1_555
O4 V7 1.922633 1_555
O4 V19 1.960452 1_455
O4 V0 2.075521 1_555
O5 V7 1.922633 1_556
O5 V20 1.960452 1_565
O5 V1 2.075521 1_555
O6 V1 1.999288 1_555
O6 V9 1.999288 1_555
O6 V5 2.091063 1_555
O6 V3 2.091063 1_555
O7 V0 1.999288 1_555
O7 V8 1.999288 1_555
O7 V6 2.091063 1_555
O7 V4 2.091063 1_555
O8 V2 1.922633 1_555
O8 V21 1.960452 1_455
O8 V8 2.075521 1_555
O9 V2 1.922633 1_555
O9 V22 1.960452 1_565
O9 V9 2.075521 1_555
O10 V24 2.049457 1_455
O10 V5 2.052434 1_555
O10 V11 2.088637 1_555
O10 V3 2.134551 1_555
O11 V25 2.049457 1_565
O11 V6 2.052434 1_555
O11 V14 2.088637 1_555
O11 V4 2.134551 1_555
O12 V9 2.049457 1_555
O12 V22 2.052434 1_565
O12 V12 2.088637 1_555
O12 V20 2.134551 1_565
O13 V8 2.049457 1_555
O13 V21 2.052434 1_455
O13 V15 2.088637 1_555
O13 V19 2.134551 1_455
O14 V3 2.015185 1_555
O14 V9 2.069322 1_555
O14 V13 2.078841 1_555
O14 V2 2.106834 1_555
O15 V4 2.015185 1_555
O15 V8 2.069322 1_555
O15 V13 2.078841 1_555
O15 V2 2.106834 1_555
O16 V7 1.926035 1_556
O16 V11 1.999435 1_555
O16 V5 2.046993 1_555
O17 V7 1.926035 1_555
O17 V14 1.999435 1_555
O17 V6 2.046993 1_555
O18 V10 2.012992 1_556
O18 V1 2.056036 1_545
O18 V24 2.056036 1_455
O18 V11 2.140950 1_555
O19 V9 1.950893 1_555
O19 V16 1.950893 1_555
O19 V11 2.051507 1_555
O20 V1 1.950893 1_655
O20 V24 1.950893 1_565
O20 V12 2.051507 1_555
O21 V13 2.012992 1_555
O21 V9 2.056036 1_555
O21 V16 2.056036 1_555
O21 V12 2.140950 1_555
O22 V13 2.012992 1_555
O22 V17 2.056036 1_555
O22 V8 2.056036 1_555
O22 V15 2.140950 1_555
O23 V8 1.950893 1_555
O23 V17 1.950893 1_555
O23 V14 2.051507 1_555
O24 V10 2.012992 1_665
O24 V0 2.056036 1_655
O24 V25 2.056036 1_565
O24 V14 2.140950 1_555
O25 V0 1.950893 1_545
O25 V25 1.950893 1_455
O25 V15 2.051507 1_555
O26 V18 1.926035 1_556
O26 V11 1.999435 1_555
O26 V20 2.046993 1_555
O27 V18 1.926035 1_555
O27 V14 1.999435 1_555
O27 V19 2.046993 1_555
O28 V22 2.015185 1_555
O28 V16 2.069322 1_555
O28 V13 2.078841 1_555
O28 V23 2.106834 1_555
O29 V21 2.015185 1_555
O29 V17 2.069322 1_555
O29 V13 2.078841 1_555
O29 V23 2.106834 1_555
O30 V16 2.049457 1_555
O30 V3 2.052434 1_655
O30 V12 2.088637 1_555
O30 V5 2.134551 1_655
O31 V0 2.049457 1_655
O31 V19 2.052434 1_555
O31 V14 2.088637 1_555
O31 V21 2.134551 1_555
O32 V1 2.049457 1_545
O32 V20 2.052434 1_555
O32 V11 2.088637 1_555
O32 V22 2.134551 1_555
O33 V17 2.049457 1_555
O33 V4 2.052434 1_545
O33 V15 2.088637 1_555
O33 V6 2.134551 1_545
O34 V23 1.922633 1_555
O34 V3 1.960452 1_655
O34 V16 2.075521 1_555
O35 V23 1.922633 1_555
O35 V4 1.960452 1_545
O35 V17 2.075521 1_555
O36 V24 1.999288 1_555
O36 V16 1.999288 1_555
O36 V20 2.091063 1_555
O36 V22 2.091063 1_555
O37 V25 1.999288 1_555
O37 V17 1.999288 1_555
O37 V19 2.091063 1_555
O37 V21 2.091063 1_555
O38 V18 1.922633 1_556
O38 V5 1.960452 1_655
O38 V24 2.075521 1_555
O39 V18 1.922633 1_555
O39 V6 1.960452 1_545
O39 V25 2.075521 1_555
O40 V20 2.015185 1_555
O40 V24 2.069322 1_555
O40 V10 2.078841 1_656
O40 V18 2.106834 1_556
O41 V19 2.015185 1_555
O41 V25 2.069322 1_555
O41 V10 2.078841 1_655
O41 V18 2.106834 1_555
O42 V23 1.926035 1_555
O42 V12 1.999435 1_545
O42 V22 2.046993 1_555
O43 V23 1.926035 1_555
O43 V15 1.999435 1_655
O43 V21 2.046993 1_555
