# generated using pymatgen
data_Li5Fe11O16
_symmetry_space_group_name_H-M   'P 1'
_cell_length_a   5.97928320
_cell_length_b   5.97928320
_cell_length_c   10.36150309
_cell_angle_alpha   73.89693642
_cell_angle_beta   73.89693642
_cell_angle_gamma   60.37743400
_symmetry_Int_Tables_number   1
_chemical_formula_structural   Li5Fe11O16
_chemical_formula_sum   'Li5 Fe11 O16'
_cell_volume   304.99643241
_cell_formula_units_Z   1
loop_
 _symmetry_equiv_pos_site_id
 _symmetry_equiv_pos_as_xyz
  1  'x, y, z'
loop_
 _atom_site_type_symbol
 _atom_site_label
 _atom_site_symmetry_multiplicity
 _atom_site_fract_x
 _atom_site_fract_y
 _atom_site_fract_z
 _atom_site_occupancy
  Li  Li0  1  0.50000000  0.00000000  0.00000000  1
  Li  Li1  1  0.00000000  0.50000000  0.00000000  1
  Li  Li2  1  0.50000000  0.00000000  0.50000000  1
  Li  Li3  1  0.00000000  0.00000000  0.00000000  1
  Li  Li4  1  0.00000000  0.50000000  0.50000000  1
  Fe  Fe0  1  0.50000000  0.50000000  0.00000000  1
  Fe  Fe1  1  0.25377400  0.25377400  0.25012300  1
  Fe  Fe2  1  0.24490400  0.75295900  0.75171100  1
  Fe  Fe3  1  0.75509600  0.24704100  0.24828900  1
  Fe  Fe4  1  0.24704100  0.75509600  0.24828900  1
  Fe  Fe5  1  0.00000000  0.00000000  0.50000000  1
  Fe  Fe6  1  0.24612500  0.24612500  0.75355200  1
  Fe  Fe7  1  0.50000000  0.50000000  0.50000000  1
  Fe  Fe8  1  0.75387500  0.75387500  0.24644800  1
  Fe  Fe9  1  0.74622600  0.74622600  0.74987700  1
  Fe  Fe10  1  0.75295900  0.24490400  0.75171100  1
  O  O0  1  0.62305000  0.12935700  0.12452800  1
  O  O1  1  0.37679100  0.87484600  0.37668600  1
  O  O2  1  0.37691900  0.37691900  0.87272400  1
  O  O3  1  0.87772200  0.87772200  0.37340400  1
  O  O4  1  0.12407400  0.12407400  0.13482800  1
  O  O5  1  0.62012500  0.62012500  0.63035700  1
  O  O6  1  0.62308100  0.62308100  0.12727600  1
  O  O7  1  0.37987500  0.37987500  0.36964300  1
  O  O8  1  0.12515400  0.62320900  0.62331400  1
  O  O9  1  0.62320900  0.12515400  0.62331400  1
  O  O10  1  0.12935700  0.62305000  0.12452800  1
  O  O11  1  0.37695000  0.87064300  0.87547200  1
  O  O12  1  0.87064300  0.37695000  0.87547200  1
  O  O13  1  0.87484600  0.37679100  0.37668600  1
  O  O14  1  0.12227800  0.12227800  0.62659600  1
  O  O15  1  0.87592600  0.87592600  0.86517200  1
loop_
_geom_bond_atom_site_label_1
_geom_bond_atom_site_label_2
_geom_bond_distance
_geom_bond_site_symmetry_2
Li0 O11 2.108852 1_544
Li0 O0 2.108852 1_555
Li0 O6 2.147086 1_545
Li0 O2 2.147086 1_554
Li0 O15 2.176920 1_544
Li0 O4 2.176920 1_555
Li1 O10 2.108852 1_555
Li1 O12 2.108852 1_454
Li1 O2 2.147086 1_554
Li1 O6 2.147086 1_455
Li1 O4 2.176920 1_555
Li1 O15 2.176920 1_454
Li2 O1 2.081554 1_545
Li2 O9 2.081554 1_555
Li2 O3 2.147612 1_545
Li2 O14 2.147612 1_555
Li2 O5 2.173232 1_545
Li2 O7 2.173232 1_555
Li3 O12 2.135443 1_454
Li3 O11 2.135443 1_544
Li3 O10 2.135443 1_545
Li3 O0 2.135443 1_455
Li3 O15 2.178616 1_444
Li3 O4 2.178616 1_555
Li4 O13 2.081554 1_455
Li4 O8 2.081554 1_555
Li4 O3 2.147612 1_455
Li4 O14 2.147612 1_555
Li4 O5 2.173232 1_455
Li4 O7 2.173232 1_555
Fe0 O2 2.105835 1_554
Fe0 O6 2.105835 1_555
Fe0 O11 2.108574 1_554
Fe0 O12 2.108574 1_554
Fe0 O10 2.108574 1_555
Fe0 O0 2.108574 1_555
Fe1 O4 2.062132 1_555
Fe1 O7 2.066067 1_555
Fe1 O10 2.107486 1_555
Fe1 O0 2.107486 1_555
Fe1 O13 2.152578 1_455
Fe1 O1 2.152578 1_545
Fe2 O15 2.056021 1_455
Fe2 O11 2.091500 1_555
Fe2 O14 2.105525 1_565
Fe2 O5 2.114934 1_555
Fe2 O2 2.116927 1_555
Fe2 O8 2.129466 1_555
Fe3 O4 2.056021 1_655
Fe3 O0 2.091500 1_555
Fe3 O3 2.105525 1_545
Fe3 O7 2.114934 1_555
Fe3 O6 2.116927 1_555
Fe3 O13 2.129466 1_555
Fe4 O4 2.056021 1_565
Fe4 O10 2.091500 1_555
Fe4 O3 2.105525 1_455
Fe4 O7 2.114934 1_555
Fe4 O6 2.116927 1_555
Fe4 O1 2.129466 1_555
Fe5 O3 2.093374 1_445
Fe5 O14 2.093374 1_555
Fe5 O13 2.129595 1_455
Fe5 O1 2.129595 1_545
Fe5 O8 2.129595 1_545
Fe5 O9 2.129595 1_455
Fe6 O2 2.103321 1_555
Fe6 O14 2.109501 1_555
Fe6 O11 2.118255 1_545
Fe6 O12 2.118255 1_455
Fe6 O8 2.160853 1_555
Fe6 O9 2.160853 1_555
Fe7 O5 2.107730 1_555
Fe7 O7 2.107730 1_555
Fe7 O13 2.121323 1_555
Fe7 O8 2.121323 1_555
Fe7 O9 2.121323 1_555
Fe7 O1 2.121323 1_555
Fe8 O6 2.103321 1_555
Fe8 O3 2.109501 1_555
Fe8 O0 2.118255 1_565
Fe8 O10 2.118255 1_655
Fe8 O1 2.160853 1_555
Fe8 O13 2.160853 1_555
Fe9 O15 2.062132 1_555
Fe9 O5 2.066067 1_555
Fe9 O11 2.107486 1_555
Fe9 O12 2.107486 1_555
Fe9 O8 2.152578 1_655
Fe9 O9 2.152578 1_565
Fe10 O15 2.056021 1_545
Fe10 O12 2.091500 1_555
Fe10 O14 2.105525 1_655
Fe10 O5 2.114934 1_555
Fe10 O2 2.116927 1_555
Fe10 O9 2.129466 1_555
