# generated using pymatgen
data_LiMn2(BO3)2
_symmetry_space_group_name_H-M   'P 1'
_cell_length_a   9.09193100
_cell_length_b   9.15621554
_cell_length_c   10.36828807
_cell_angle_alpha   91.56518632
_cell_angle_beta   89.99748564
_cell_angle_gamma   119.32083844
_symmetry_Int_Tables_number   1
_chemical_formula_structural   LiMn2(BO3)2
_chemical_formula_sum   'Li6 Mn12 B12 O36'
_cell_volume   752.19184292
_cell_formula_units_Z   6
loop_
 _symmetry_equiv_pos_site_id
 _symmetry_equiv_pos_as_xyz
  1  'x, y, z'
loop_
 _atom_site_type_symbol
 _atom_site_label
 _atom_site_symmetry_multiplicity
 _atom_site_fract_x
 _atom_site_fract_y
 _atom_site_fract_z
 _atom_site_occupancy
  Li  Li0  1  0.09897300  0.04565700  0.67045800  1
  Li  Li1  1  0.76934500  0.36791900  0.67541500  1
  Li  Li2  1  0.76288600  0.39636300  0.16306400  1
  Li  Li3  1  0.43304800  0.70337600  0.66920800  1
  Li  Li4  1  0.41953100  0.71647600  0.16998100  1
  Li  Li5  1  0.90246500  0.97606400  0.34841100  1
  Mn  Mn0  1  0.42386500  0.05329900  0.13735300  1
  Mn  Mn1  1  0.44836200  0.37388600  0.61955100  1
  Mn  Mn2  1  0.77267100  0.04433800  0.62704200  1
  Mn  Mn3  1  0.89532400  0.30781600  0.39141100  1
  Mn  Mn4  1  0.25080800  0.31632100  0.87273200  1
  Mn  Mn5  1  0.90056800  0.61169500  0.88497300  1
  Mn  Mn6  1  0.08814900  0.34628900  0.12311000  1
  Mn  Mn7  1  0.78580100  0.73713900  0.13137800  1
  Mn  Mn8  1  0.09938400  0.71828900  0.63087500  1
  Mn  Mn9  1  0.55139900  0.60756300  0.37879100  1
  Mn  Mn10  1  0.23597700  0.93458700  0.38333400  1
  Mn  Mn11  1  0.55468600  0.94812600  0.88298900  1
  B  B0  1  0.44985700  0.04616500  0.62159800  1
  B  B1  1  0.76249400  0.05585000  0.13201500  1
  B  B2  1  0.44992500  0.39960300  0.12861500  1
  B  B3  1  0.88701700  0.25942100  0.87393700  1
  B  B4  1  0.77666400  0.71445700  0.62066100  1
  B  B5  1  0.11225800  0.39369900  0.63628900  1
  B  B6  1  0.21525000  0.26908300  0.36969000  1
  B  B7  1  0.88951900  0.63528500  0.36785700  1
  B  B8  1  0.10527000  0.70079600  0.14285500  1
  B  B9  1  0.22407800  0.95281400  0.87625100  1
  B  B10  1  0.56492400  0.60958400  0.87752500  1
  B  B11  1  0.56733600  0.95815600  0.36597400  1
  O  O0  1  0.18574600  0.07088600  0.84394200  1
  O  O1  1  0.14292700  0.10121100  0.38075100  1
  O  O2  1  0.36231700  0.98530800  0.95730500  1
  O  O3  1  0.48033700  0.04748900  0.32918800  1
  O  O4  1  0.37238200  0.37793100  0.42519000  1
  O  O5  1  0.54414400  0.21508300  0.62179000  1
  O  O6  1  0.73016000  0.05002800  0.41505100  1
  O  O7  1  0.52288900  0.30251600  0.13663300  1
  O  O8  1  0.80311200  0.09486000  0.83299800  1
  O  O9  1  0.48978200  0.44197500  0.82824000  1
  O  O10  1  0.84252900  0.23111600  0.15207900  1
  O  O11  1  0.83081500  0.36848000  0.85382400  1
  O  O12  1  0.94567400  0.30250700  0.59121300  1
  O  O13  1  0.81108300  0.46863300  0.34607700  1
  O  O14  1  0.71369500  0.66541500  0.95141200  1
  O  O15  1  0.04791000  0.32028400  0.93654600  1
  O  O16  1  0.18778700  0.30084100  0.68620100  1
  O  O17  1  0.83544400  0.61230800  0.67117400  1
  O  O18  1  0.12684900  0.33967800  0.30755300  1
  O  O19  1  0.81501600  0.73154800  0.32355200  1
  O  O20  1  0.93815500  0.63751800  0.09592700  1
  O  O21  1  0.29610400  0.34427900  0.06276600  1
  O  O22  1  0.20127300  0.56171300  0.63155800  1
  O  O23  1  0.04142300  0.72206200  0.43456300  1
  O  O24  1  0.18144400  0.60729000  0.13542400  1
  O  O25  1  0.13742200  0.78954300  0.82592900  1
  O  O26  1  0.18730200  0.86812300  0.19581600  1
  O  O27  1  0.52221700  0.56244100  0.18500000  1
  O  O28  1  0.49480800  0.70451200  0.85069900  1
  O  O29  1  0.60738700  0.63110900  0.56953900  1
  O  O30  1  0.28138400  0.96449300  0.57164600  1
  O  O31  1  0.48669500  0.78885400  0.35187900  1
  O  O32  1  0.51036200  0.94521300  0.66954900  1
  O  O33  1  0.59397400  0.96834300  0.09442900  1
  O  O34  1  0.87180300  0.88354600  0.61743600  1
  O  O35  1  0.85206400  0.97463900  0.15364100  1
loop_
_geom_bond_atom_site_label_1
_geom_bond_atom_site_label_2
_geom_bond_distance
_geom_bond_site_symmetry_2
Li0 O0 1.926175 1_555
Li0 O34 1.929847 1_445
Li0 O16 2.066237 1_555
Li0 O30 2.348997 1_545
Li1 O5 1.900288 1_555
Li1 O11 1.931548 1_555
Li1 O17 2.014598 1_555
Li1 O12 2.145406 1_555
Li2 O7 1.930175 1_555
Li2 O13 1.969265 1_555
Li2 O10 1.972359 1_555
Li2 O20 2.130067 1_555
Li3 O22 1.889671 1_555
Li3 O28 1.962065 1_555
Li3 O32 1.967849 1_555
Li3 O29 2.237844 1_555
Li4 O24 1.916933 1_555
Li4 O31 1.975966 1_555
Li4 O27 2.046138 1_555
Li4 O33 2.227946 1_555
Li5 O1 1.931505 1_665
Li5 O19 1.983961 1_555
Li5 O35 2.069069 1_555
Li5 O6 2.098489 1_565
Mn0 O2 1.944483 1_544
Mn0 O7 2.001613 1_555
Mn0 O3 2.062812 1_555
Mn0 O26 2.086293 1_545
Mn0 O33 2.086746 1_545
Mn1 O5 2.028576 1_555
Mn1 O4 2.137483 1_555
Mn1 O29 2.153562 1_555
Mn1 O9 2.215566 1_555
Mn1 O16 2.238498 1_555
Mn2 O34 2.069144 1_545
Mn2 O12 2.146217 1_555
Mn2 O32 2.146513 1_545
Mn2 O8 2.161311 1_555
Mn2 O6 2.238144 1_555
Mn3 O13 2.029319 1_555
Mn3 O6 2.108673 1_555
Mn3 O12 2.128579 1_555
Mn3 O18 2.164343 1_655
Mn3 O10 2.540869 1_555
Mn4 O9 1.959057 1_555
Mn4 O15 1.976429 1_555
Mn4 O21 1.996644 1_556
Mn4 O16 1.998591 1_555
Mn4 O0 2.037301 1_555
Mn5 O11 2.010781 1_555
Mn5 O25 2.069723 1_655
Mn5 O14 2.098349 1_555
Mn5 O20 2.202124 1_556
Mn5 O17 2.295334 1_555
Mn6 O18 1.952389 1_555
Mn6 O15 1.954951 1_554
Mn6 O10 1.974861 1_455
Mn6 O21 1.999984 1_555
Mn6 O24 2.108285 1_555
Mn7 O35 1.958214 1_555
Mn7 O14 1.963237 1_554
Mn7 O19 2.015497 1_555
Mn7 O20 2.026079 1_555
Mn7 O27 2.214716 1_555
Mn8 O22 2.053002 1_555
Mn8 O25 2.083808 1_555
Mn8 O23 2.107984 1_555
Mn8 O17 2.148554 1_455
Mn8 O30 2.149242 1_555
Mn9 O4 2.001212 1_555
Mn9 O29 2.021467 1_555
Mn9 O27 2.031166 1_555
Mn9 O31 2.039866 1_555
Mn9 O19 2.175295 1_555
Mn10 O23 1.970497 1_555
Mn10 O30 1.979322 1_555
Mn10 O26 2.004479 1_555
Mn10 O3 2.025340 1_565
Mn10 O1 2.076146 1_565
Mn11 O28 2.038101 1_555
Mn11 O8 2.059415 1_565
Mn11 O2 2.082635 1_555
Mn11 O33 2.209310 1_556
Mn11 O32 2.246518 1_555
B0 O5 1.352142 1_555
B0 O32 1.388285 1_545
B0 O30 1.425046 1_545
B1 O35 1.366962 1_545
B1 O33 1.386381 1_545
B1 O10 1.409313 1_555
B2 O7 1.348639 1_555
B2 O21 1.402131 1_555
B2 O27 1.410471 1_555
B3 O11 1.346424 1_555
B3 O8 1.368125 1_555
B3 O15 1.433085 1_655
B4 O34 1.355552 1_555
B4 O17 1.396789 1_555
B4 O29 1.435158 1_555
B5 O22 1.344889 1_555
B5 O12 1.396317 1_455
B5 O16 1.434627 1_555
B6 O1 1.351983 1_555
B6 O4 1.392715 1_555
B6 O18 1.417914 1_555
B7 O13 1.342895 1_555
B7 O23 1.382900 1_655
B7 O19 1.433046 1_555
B8 O24 1.340047 1_555
B8 O20 1.415445 1_455
B8 O26 1.428289 1_555
B9 O0 1.338374 1_565
B9 O25 1.389854 1_555
B9 O2 1.412327 1_555
B10 O28 1.339826 1_555
B10 O14 1.406862 1_555
B10 O9 1.418939 1_555
B11 O31 1.355146 1_555
B11 O6 1.383877 1_565
B11 O3 1.445999 1_565
