# generated using pymatgen
data_LiFe4(BO3)4
_symmetry_space_group_name_H-M   'P 1'
_cell_length_a   5.31194300
_cell_length_b   9.04522182
_cell_length_c   11.42008526
_cell_angle_alpha   113.20985303
_cell_angle_beta   103.31579859
_cell_angle_gamma   89.83212629
_symmetry_Int_Tables_number   1
_chemical_formula_structural   LiFe4(BO3)4
_chemical_formula_sum   'Li2 Fe8 B8 O24'
_cell_volume   488.37003374
_cell_formula_units_Z   2
loop_
 _symmetry_equiv_pos_site_id
 _symmetry_equiv_pos_as_xyz
  1  'x, y, z'
loop_
 _atom_site_type_symbol
 _atom_site_label
 _atom_site_symmetry_multiplicity
 _atom_site_fract_x
 _atom_site_fract_y
 _atom_site_fract_z
 _atom_site_occupancy
  Li  Li0  1  0.81532800  0.17438900  0.33606500  1
  Li  Li1  1  0.06613700  0.41581100  0.84214100  1
  Fe  Fe0  1  0.59414500  0.60127000  0.87328000  1
  Fe  Fe1  1  0.90791900  0.88853300  0.12108600  1
  Fe  Fe2  1  0.16474800  0.48275500  0.62373600  1
  Fe  Fe3  1  0.34578100  0.02267300  0.37496200  1
  Fe  Fe4  1  0.64782500  0.97609100  0.62226200  1
  Fe  Fe5  1  0.84964700  0.52853200  0.37092100  1
  Fe  Fe6  1  0.09599100  0.09390300  0.87192200  1
  Fe  Fe7  1  0.40043800  0.39635300  0.12102600  1
  B  B0  1  0.36050500  0.35452400  0.36964700  1
  B  B1  1  0.09702000  0.76678800  0.87247100  1
  B  B2  1  0.85022400  0.85956300  0.37391100  1
  B  B3  1  0.60912700  0.26418500  0.87144900  1
  B  B4  1  0.15182700  0.14595400  0.63250900  1
  B  B5  1  0.39514800  0.72857100  0.11996300  1
  B  B6  1  0.64983200  0.63996600  0.61831900  1
  B  B7  1  0.90325600  0.23364900  0.12644300  1
  O  O0  1  0.89303000  0.77837200  0.93043500  1
  O  O1  1  0.53199900  0.53891300  0.66004100  1
  O  O2  1  0.83028400  0.10629300  0.14860700  1
  O  O3  1  0.48306300  0.22617700  0.37331900  1
  O  O4  1  0.12592300  0.38873700  0.41253800  1
  O  O5  1  0.18536500  0.61222200  0.81858700  1
  O  O6  1  0.72573400  0.39576400  0.87072800  1
  O  O7  1  0.93897100  0.96315700  0.32423700  1
  O  O8  1  0.27631100  0.86823300  0.16930300  1
  O  O9  1  0.36056400  0.09383500  0.58058600  1
  O  O10  1  0.06657100  0.29319900  0.64443400  1
  O  O11  1  0.61685300  0.73328800  0.07763700  1
  O  O12  1  0.37444500  0.27300500  0.91452500  1
  O  O13  1  0.64998500  0.90599300  0.43548000  1
  O  O14  1  0.71274900  0.11479800  0.83038100  1
  O  O15  1  0.02860000  0.04885600  0.67710000  1
  O  O16  1  0.28769900  0.58348800  0.10755300  1
  O  O17  1  0.78043500  0.37680200  0.16786500  1
  O  O18  1  0.86565300  0.58702500  0.56451000  1
  O  O19  1  0.55792600  0.78138200  0.62766900  1
  O  O20  1  0.95491600  0.71747100  0.36119100  1
  O  O21  1  0.20916500  0.89719000  0.86588300  1
  O  O22  1  0.46019500  0.45972100  0.32270400  1
  O  O23  1  0.11017300  0.23041100  0.06825400  1
loop_
_geom_bond_atom_site_label_1
_geom_bond_atom_site_label_2
_geom_bond_distance
_geom_bond_site_symmetry_2
Li0 O3 1.923415 1_555
Li0 O7 1.982486 1_545
Li0 O2 2.001848 1_555
Li0 O4 2.294388 1_655
Li1 O6 1.931205 1_455
Li1 O5 2.022730 1_555
Li1 O10 2.087221 1_555
Li1 O12 2.289010 1_555
Fe0 O6 1.975810 1_555
Fe0 O0 2.055792 1_555
Fe0 O5 2.130200 1_555
Fe0 O11 2.135788 1_556
Fe0 O1 2.214838 1_555
Fe1 O2 1.927568 1_565
Fe1 O11 1.928394 1_555
Fe1 O8 1.935853 1_655
Fe1 O0 1.987639 1_554
Fe1 O7 2.110758 1_555
Fe2 O10 1.910257 1_555
Fe2 O1 1.924278 1_555
Fe2 O18 1.967289 1_455
Fe2 O5 2.041938 1_555
Fe2 O4 2.176742 1_555
Fe3 O3 1.990439 1_555
Fe3 O13 2.062324 1_545
Fe3 O7 2.116478 1_445
Fe3 O8 2.149772 1_545
Fe3 O9 2.158406 1_555
Fe4 O19 1.854147 1_555
Fe4 O9 1.935116 1_565
Fe4 O13 1.974167 1_555
Fe4 O15 2.003984 1_665
Fe4 O14 2.148610 1_565
Fe5 O20 1.851917 1_555
Fe5 O4 2.029789 1_655
Fe5 O18 2.041208 1_555
Fe5 O22 2.045237 1_555
Fe5 O17 2.120816 1_555
Fe6 O21 1.856941 1_545
Fe6 O14 2.007148 1_455
Fe6 O12 2.027387 1_555
Fe6 O15 2.040518 1_555
Fe6 O23 2.073174 1_556
Fe7 O16 1.845092 1_555
Fe7 O23 1.966227 1_555
Fe7 O17 1.991718 1_555
Fe7 O22 2.087511 1_555
Fe7 O12 2.145300 1_554
B0 O3 1.339666 1_555
B0 O22 1.417397 1_555
B0 O4 1.431027 1_555
B1 O21 1.358857 1_555
B1 O0 1.377819 1_455
B1 O5 1.415840 1_555
B2 O20 1.366789 1_555
B2 O13 1.382484 1_555
B2 O7 1.402434 1_555
B3 O6 1.347076 1_555
B3 O14 1.401369 1_555
B3 O12 1.432964 1_555
B4 O10 1.370918 1_555
B4 O9 1.372133 1_555
B4 O15 1.403062 1_555
B5 O16 1.374243 1_555
B5 O11 1.378830 1_555
B5 O8 1.382013 1_555
B6 O19 1.341132 1_555
B6 O1 1.392223 1_555
B6 O18 1.417949 1_555
B7 O2 1.348693 1_555
B7 O23 1.404086 1_655
B7 O17 1.407296 1_555
