# generated using pymatgen
data_Na5LiMn2P2(CO7)2
_symmetry_space_group_name_H-M   'P 1'
_cell_length_a   8.98830607
_cell_length_b   6.85551402
_cell_length_c   5.19472802
_cell_angle_alpha   89.99517054
_cell_angle_beta   88.51879325
_cell_angle_gamma   90.00742676
_symmetry_Int_Tables_number   1
_chemical_formula_structural   Na5LiMn2P2(CO7)2
_chemical_formula_sum   'Na5 Li1 Mn2 P2 C2 O14'
_cell_volume   319.98936503
_cell_formula_units_Z   1
loop_
 _symmetry_equiv_pos_site_id
 _symmetry_equiv_pos_as_xyz
  1  'x, y, z'
loop_
 _atom_site_type_symbol
 _atom_site_label
 _atom_site_symmetry_multiplicity
 _atom_site_fract_x
 _atom_site_fract_y
 _atom_site_fract_z
 _atom_site_occupancy
  Na  Na0  1  0.25373900  0.00397800  0.25337200  1
  Na  Na1  1  0.25373700  0.49598600  0.25339600  1
  Na  Na2  1  0.74145700  0.50245000  0.74072500  1
  Na  Na3  1  0.74144900  0.99755400  0.74077900  1
  Na  Na4  1  0.91326400  0.74999900  0.23375600  1
  Li  Li0  1  0.10716700  0.24998900  0.76596200  1
  Mn  Mn0  1  0.35655400  0.74973500  0.77675100  1
  Mn  Mn1  1  0.63303400  0.25031600  0.21906500  1
  P  P0  1  0.40638600  0.24996100  0.71127600  1
  P  P1  1  0.58550200  0.75006100  0.28257500  1
  C  C0  1  0.05915700  0.74996200  0.72874400  1
  C  C1  1  0.95126700  0.25001200  0.28119800  1
  O  O0  1  0.08224400  0.24997200  0.38155800  1
  O  O1  1  0.11636800  0.74992400  0.95639300  1
  O  O2  1  0.14883800  0.74994900  0.52701100  1
  O  O3  1  0.31150700  0.06974500  0.79612800  1
  O  O4  1  0.31154300  0.43017000  0.79607500  1
  O  O5  1  0.42604100  0.25006100  0.41160600  1
  O  O6  1  0.42787000  0.74993000  0.16793300  1
  O  O7  1  0.56412600  0.25007800  0.82791500  1
  O  O8  1  0.56748200  0.74994900  0.58336100  1
  O  O9  1  0.67759000  0.56742000  0.19691900  1
  O  O10  1  0.67760300  0.93272900  0.19687500  1
  O  O11  1  0.83397100  0.25005200  0.43626100  1
  O  O12  1  0.93571400  0.25002300  0.03295700  1
  O  O13  1  0.91639000  0.74999400  0.70141200  1
loop_
_geom_bond_atom_site_label_1
_geom_bond_atom_site_label_2
_geom_bond_distance
_geom_bond_site_symmetry_2
Na0 O0 2.368813 1_555
Na0 O6 2.375891 1_545
Na0 O2 2.423287 1_545
Na0 O5 2.446540 1_555
Na0 O3 2.459825 1_554
Na0 O1 2.652613 1_544
Na0 O3 2.915156 1_555
Na1 O0 2.368501 1_555
Na1 O6 2.375049 1_555
Na1 O2 2.423231 1_555
Na1 O5 2.445943 1_555
Na1 O4 2.460432 1_554
Na1 O1 2.652196 1_554
Na1 O4 2.914836 1_555
Na2 O13 2.318748 1_555
Na2 O7 2.387654 1_555
Na2 O8 2.461498 1_555
Na2 O9 2.464510 1_556
Na2 O11 2.473821 1_555
Na3 O13 2.319220 1_555
Na3 O7 2.388668 1_565
Na3 O8 2.461866 1_555
Na3 O10 2.463705 1_556
Na3 O11 2.474163 1_565
Na4 O1 2.296229 1_654
Na4 O13 2.430234 1_555
Na4 O9 2.472013 1_555
Na4 O10 2.472722 1_555
Na4 O2 2.640242 1_655
Na4 O13 2.764799 1_554
Li0 O0 2.015147 1_555
Li0 O12 2.046480 1_456
Li0 O4 2.222413 1_555
Li0 O3 2.222660 1_555
Mn0 O8 2.122535 1_555
Mn0 O6 2.146533 1_556
Mn0 O4 2.229555 1_555
Mn0 O3 2.232742 1_565
Mn0 O2 2.300877 1_555
Mn0 O1 2.329677 1_555
Mn1 O5 2.089429 1_555
Mn1 O7 2.139479 1_554
Mn1 O11 2.154134 1_555
Mn1 O9 2.212885 1_555
Mn1 O10 2.216291 1_545
C0 O13 1.294707 1_455
C0 O1 1.301673 1_555
C0 O2 1.305484 1_555
C1 O0 1.299797 1_655
C1 O12 1.300687 1_555
C1 O11 1.310143 1_555
O3 P0 1.558254 1_555
O4 P0 1.558202 1_555
O5 P0 1.562153 1_555
O6 P1 1.551042 1_555
O7 P0 1.556193 1_555
O8 P1 1.566704 1_555
O9 P1 1.559543 1_555
O10 P1 1.559582 1_555
