# generated using pymatgen
data_SrPd3O4
_symmetry_space_group_name_H-M   'P 1'
_cell_length_a   5.84966448
_cell_length_b   5.84966448
_cell_length_c   5.84966448
_cell_angle_alpha   90.00000000
_cell_angle_beta   90.00000000
_cell_angle_gamma   90.00000000
_symmetry_Int_Tables_number   1
_chemical_formula_structural   SrPd3O4
_chemical_formula_sum   'Sr2 Pd6 O8'
_cell_volume   200.16717998
_cell_formula_units_Z   2
loop_
 _symmetry_equiv_pos_site_id
 _symmetry_equiv_pos_as_xyz
  1  'x, y, z'
loop_
 _atom_site_type_symbol
 _atom_site_label
 _atom_site_symmetry_multiplicity
 _atom_site_fract_x
 _atom_site_fract_y
 _atom_site_fract_z
 _atom_site_occupancy
  Sr  Sr0  1  0.50000000  0.50000000  0.50000000  1
  Sr  Sr1  1  0.00000000  0.00000000  -0.00000000  1
  Pd  Pd0  1  0.75000000  0.00000000  0.50000000  1
  Pd  Pd1  1  0.00000000  0.50000000  0.25000000  1
  Pd  Pd2  1  0.00000000  0.50000000  0.75000000  1
  Pd  Pd3  1  0.25000000  0.00000000  0.50000000  1
  Pd  Pd4  1  0.50000000  0.75000000  -0.00000000  1
  Pd  Pd5  1  0.50000000  0.25000000  -0.00000000  1
  O  O0  1  0.75000000  0.25000000  0.25000000  1
  O  O1  1  0.25000000  0.25000000  0.75000000  1
  O  O2  1  0.25000000  0.75000000  0.25000000  1
  O  O3  1  0.75000000  0.75000000  0.75000000  1
  O  O4  1  0.25000000  0.25000000  0.25000000  1
  O  O5  1  0.75000000  0.75000000  0.25000000  1
  O  O6  1  0.75000000  0.25000000  0.75000000  1
  O  O7  1  0.25000000  0.75000000  0.75000000  1
loop_
_geom_bond_atom_site_label_1
_geom_bond_atom_site_label_2
_geom_bond_distance
_geom_bond_site_symmetry_2
O0 Pd0 2.068169 1_555
O0 Pd1 2.068169 1_655
O0 Pd5 2.068169 1_555
O0 Sr1 2.532979 1_655
O0 Sr0 2.532979 1_555
O1 Pd3 2.068169 1_555
O1 Pd5 2.068169 1_556
O1 Pd2 2.068169 1_555
O1 Sr1 2.532979 1_556
O1 Sr0 2.532979 1_555
O2 Pd3 2.068169 1_565
O2 Pd1 2.068169 1_555
O2 Pd4 2.068169 1_555
O2 Sr1 2.532979 1_565
O2 Sr0 2.532979 1_555
O3 Pd0 2.068169 1_565
O3 Pd2 2.068169 1_655
O3 Pd4 2.068169 1_556
O3 Sr1 2.532979 1_666
O3 Sr0 2.532979 1_555
O4 Pd1 2.068169 1_555
O4 Pd3 2.068169 1_555
O4 Pd5 2.068169 1_555
O4 Sr1 2.532979 1_555
O4 Sr0 2.532979 1_555
O5 Pd0 2.068169 1_565
O5 Pd1 2.068169 1_655
O5 Pd4 2.068169 1_555
O5 Sr1 2.532979 1_665
O5 Sr0 2.532979 1_555
O6 Pd0 2.068169 1_555
O6 Pd5 2.068169 1_556
O6 Pd2 2.068169 1_655
O6 Sr1 2.532979 1_656
O6 Sr0 2.532979 1_555
O7 Pd3 2.068169 1_565
O7 Pd2 2.068169 1_555
O7 Pd4 2.068169 1_556
O7 Sr1 2.532979 1_566
O7 Sr0 2.532979 1_555
