# generated using pymatgen
data_Li3MnV(PO4)3
_symmetry_space_group_name_H-M   'P 1'
_cell_length_a   8.95209263
_cell_length_b   8.44602691
_cell_length_c   14.69488519
_cell_angle_alpha   90.43791807
_cell_angle_beta   74.12141838
_cell_angle_gamma   63.21681609
_symmetry_Int_Tables_number   1
_chemical_formula_structural   Li3MnV(PO4)3
_chemical_formula_sum   'Li12 Mn4 V4 P12 O48'
_cell_volume   942.87354528
_cell_formula_units_Z   4
loop_
 _symmetry_equiv_pos_site_id
 _symmetry_equiv_pos_as_xyz
  1  'x, y, z'
loop_
 _atom_site_type_symbol
 _atom_site_label
 _atom_site_symmetry_multiplicity
 _atom_site_fract_x
 _atom_site_fract_y
 _atom_site_fract_z
 _atom_site_occupancy
  Li  Li0  1  0.14794800  0.25535300  0.33190600  1
  Li  Li1  1  0.14952700  0.79602100  0.13267200  1
  Li  Li2  1  0.15120500  0.29517200  0.63237700  1
  Li  Li3  1  0.14952800  0.72477300  0.46032700  1
  Li  Li4  1  0.14995600  0.22540000  0.96101500  1
  Li  Li5  1  0.14862200  0.75747100  0.83297500  1
  Li  Li6  1  0.85039300  0.24265700  0.16778500  1
  Li  Li7  1  0.85330800  0.77369700  0.03833200  1
  Li  Li8  1  0.84949000  0.27511300  0.53913800  1
  Li  Li9  1  0.85061400  0.70302700  0.36782300  1
  Li  Li10  1  0.84949700  0.20436300  0.86847000  1
  Li  Li11  1  0.85121500  0.74348500  0.66808200  1
  Mn  Mn0  1  0.04294200  0.97765900  0.32573500  1
  Mn  Mn1  1  0.56257000  0.22190100  0.07365200  1
  Mn  Mn2  1  0.43765400  0.28113800  0.42409500  1
  Mn  Mn3  1  0.56053200  0.72136100  0.57598600  1
  V  V0  1  0.04574200  0.47857100  0.82588100  1
  V  V1  1  0.43508500  0.78172000  0.92708000  1
  V  V2  1  0.95454700  0.52137800  0.17373200  1
  V  V3  1  0.95244200  0.02471100  0.67534500  1
  P  P0  1  0.25139200  0.08581800  0.12471400  1
  P  P1  1  0.25001000  0.02278900  0.47809400  1
  P  P2  1  0.25210000  0.51918100  0.26830000  1
  P  P3  1  0.24976900  0.02253500  0.77065200  1
  P  P4  1  0.24918000  0.58771700  0.62584200  1
  P  P5  1  0.25053300  0.52106300  0.97849000  1
  P  P6  1  0.74800400  0.48135900  0.02025400  1
  P  P7  1  0.74836800  0.41621500  0.37573600  1
  P  P8  1  0.75396600  0.97179800  0.22947000  1
  P  P9  1  0.74995500  0.47708300  0.73057300  1
  P  P10  1  0.74585800  0.97946800  0.52119900  1
  P  P11  1  0.74915200  0.91617800  0.87580600  1
  O  O0  1  0.09953900  0.25867100  0.10376100  1
  O  O1  1  0.19611700  0.06786100  0.23175000  1
  O  O2  1  0.09772600  0.61499100  0.07710800  1
  O  O3  1  0.09721900  0.11755100  0.57640700  1
  O  O4  1  0.09933200  0.47302100  0.26667800  1
  O  O5  1  0.42627400  0.09159700  0.09676300  1
  O  O6  1  0.26697800  0.18304000  0.43174800  1
  O  O7  1  0.19905100  0.71374400  0.24995400  1
  O  O8  1  0.19320700  0.22048500  0.75444900  1
  O  O9  1  0.26359900  0.49991800  0.37145500  1
  O  O10  1  0.42528500  0.38709800  0.19411500  1
  O  O11  1  0.09882100  0.76212200  0.60527800  1
  O  O12  1  0.26639600  0.92799000  0.06148000  1
  O  O13  1  0.26149100  0.43048300  0.56522800  1
  O  O14  1  0.58384500  0.10001300  0.30377300  1
  O  O15  1  0.19372700  0.57202900  0.73421700  1
  O  O16  1  0.18936000  0.92999000  0.41346000  1
  O  O17  1  0.18895300  0.42703500  0.91609000  1
  O  O18  1  0.74916300  0.99197700  0.12618600  1
  O  O19  1  0.57915400  0.61548200  0.00279500  1
  O  O20  1  0.57783900  0.11490400  0.50522200  1
  O  O21  1  0.09586200  0.97903900  0.76887300  1
  O  O22  1  0.73210000  0.32300700  0.06819800  1
  O  O23  1  0.57441400  0.40741500  0.40235200  1
  O  O24  1  0.42396600  0.59422300  0.59834600  1
  O  O25  1  0.26206400  0.68127700  0.93182900  1
  O  O26  1  0.91088400  0.01563000  0.23223800  1
  O  O27  1  0.41725700  0.88563100  0.49309600  1
  O  O28  1  0.41957000  0.38723900  0.99290300  1
  O  O29  1  0.26369400  0.99919700  0.87327300  1
  O  O30  1  0.80660700  0.57565500  0.08318800  1
  O  O31  1  0.80734900  0.07140700  0.58437900  1
  O  O32  1  0.80449100  0.43096600  0.26736500  1
  O  O33  1  0.42052900  0.89537600  0.69544400  1
  O  O34  1  0.72972600  0.57824600  0.43687500  1
  O  O35  1  0.73302700  0.07498000  0.93908300  1
  O  O36  1  0.89970600  0.24707500  0.39719700  1
  O  O37  1  0.58005000  0.60689400  0.80638400  1
  O  O38  1  0.73917900  0.49512000  0.62820800  1
  O  O39  1  0.80996300  0.77500100  0.24760000  1
  O  O40  1  0.80547900  0.27964600  0.74878900  1
  O  O41  1  0.72831600  0.82064800  0.56989500  1
  O  O42  1  0.57895200  0.90674200  0.90112800  1
  O  O43  1  0.90313900  0.52281200  0.73314200  1
  O  O44  1  0.90157900  0.87925100  0.42475400  1
  O  O45  1  0.90080700  0.38542700  0.92214300  1
  O  O46  1  0.80555000  0.93361900  0.76806100  1
  O  O47  1  0.90156200  0.74230500  0.89580300  1
loop_
_geom_bond_atom_site_label_1
_geom_bond_atom_site_label_2
_geom_bond_distance
_geom_bond_site_symmetry_2
Li0 O1 1.965054 1_555
Li0 O6 1.985871 1_555
Li0 O4 2.005521 1_555
Li0 O36 2.199616 1_455
Li1 O7 1.951532 1_555
Li1 O12 1.975159 1_555
Li1 O2 2.011623 1_555
Li1 O26 2.195908 1_465
Li2 O13 1.937917 1_555
Li2 O8 1.982362 1_555
Li2 O3 2.003163 1_555
Li2 O43 2.264929 1_455
Li3 O9 1.959483 1_555
Li3 O16 2.011605 1_555
Li3 O11 2.043091 1_555
Li3 O44 2.222117 1_455
Li4 O29 1.959609 1_545
Li4 O17 1.970999 1_555
Li4 O0 2.010318 1_556
Li4 O45 2.262722 1_455
Li5 O25 1.946329 1_555
Li5 O15 1.948565 1_555
Li5 O21 2.021445 1_555
Li5 O47 2.213641 1_455
Li6 O32 1.971322 1_555
Li6 O22 1.984710 1_555
Li6 O26 2.059037 1_555
Li6 O0 2.236875 1_655
Li7 O18 1.921121 1_555
Li7 O30 1.975695 1_555
Li7 O47 2.009185 1_554
Li7 O2 2.227032 1_655
Li8 O38 1.934681 1_555
Li8 O36 1.998044 1_555
Li8 O31 2.002407 1_555
Li8 O3 2.237195 1_655
Li9 O34 1.937744 1_555
Li9 O39 1.947283 1_555
Li9 O44 1.981208 1_555
Li9 O4 2.277566 1_655
Li10 O35 1.951960 1_555
Li10 O40 1.955275 1_555
Li10 O45 1.996147 1_555
Li10 O21 2.244191 1_645
Li11 O46 1.986982 1_555
Li11 O41 1.988416 1_555
Li11 O43 2.023243 1_555
Li11 O11 2.233174 1_655
Mn0 O26 1.985435 1_465
Mn0 O16 1.999723 1_555
Mn0 O1 2.071092 1_565
Mn0 O44 2.090061 1_455
Mn0 O7 2.112999 1_555
Mn0 O36 2.126474 1_465
Mn1 O5 1.950497 1_555
Mn1 O10 1.953747 1_555
Mn1 O22 2.035036 1_555
Mn1 O28 2.059686 1_554
Mn1 O35 2.093690 1_554
Mn1 O18 2.227653 1_545
Mn2 O23 1.925206 1_555
Mn2 O14 2.016771 1_555
Mn2 O6 2.020376 1_555
Mn2 O20 2.055162 1_555
Mn2 O9 2.127727 1_555
Mn2 O13 2.181019 1_555
Mn3 O24 1.929864 1_555
Mn3 O33 1.977117 1_555
Mn3 O41 2.007492 1_555
Mn3 O27 2.081026 1_555
Mn3 O34 2.133545 1_555
Mn3 O38 2.176630 1_555
O0 P0 1.587909 1_555
O0 V2 2.074723 1_455
O1 P0 1.545059 1_555
O2 P5 1.587569 1_554
O2 V2 2.053950 1_455
O3 P1 1.585253 1_555
O3 V3 2.076205 1_455
O4 P2 1.587795 1_555
O4 V2 2.052413 1_455
O5 P0 1.529500 1_555
O6 P1 1.568946 1_555
O7 P2 1.540164 1_555
O8 P3 1.554803 1_555
O8 V0 2.051700 1_555
O9 P2 1.552074 1_555
O10 P2 1.527877 1_555
O11 P4 1.586000 1_555
O11 V3 2.074527 1_465
O12 P0 1.552363 1_565
O12 V1 2.087253 1_554
O13 P4 1.537990 1_555
O14 P8 1.506625 1_545
O15 P4 1.558888 1_555
O15 V0 2.043211 1_555
O16 P1 1.570199 1_565
O17 P5 1.560590 1_555
O17 V0 2.006536 1_555
O18 P8 1.538671 1_555
O19 P6 1.518998 1_555
O19 V1 2.012407 1_554
O20 P10 1.507555 1_545
O21 P3 1.584195 1_565
O21 V3 2.052678 1_465
O22 P6 1.560936 1_555
O23 P7 1.534603 1_555
O24 P4 1.531810 1_555
O25 P5 1.553455 1_555
O25 V1 2.061462 1_555
O26 P8 1.616085 1_545
O27 P1 1.501205 1_565
O28 P5 1.499954 1_555
O29 P3 1.553619 1_565
O29 V1 2.121164 1_555
O30 P6 1.547763 1_555
O30 V2 2.039812 1_555
O31 P10 1.556227 1_545
O31 V3 2.031250 1_555
O32 P7 1.557444 1_555
O32 V2 2.051811 1_555
O33 P3 1.513093 1_565
O34 P7 1.549582 1_555
O35 P11 1.554797 1_545
O36 P7 1.572304 1_555
O37 P9 1.519150 1_555
O37 V1 1.995912 1_555
O38 P9 1.537830 1_555
O39 P8 1.553688 1_555
O39 V2 2.034476 1_555
O40 P9 1.559518 1_555
O40 V3 2.041173 1_555
O41 P10 1.574514 1_555
O42 P11 1.505312 1_555
O42 V1 1.970326 1_555
O43 P9 1.592653 1_555
O43 V0 2.038719 1_655
O44 P10 1.582883 1_555
O45 P6 1.584413 1_556
O45 V0 2.058133 1_655
O46 P11 1.554547 1_555
O46 V3 2.030969 1_565
O47 P11 1.588941 1_555
O47 V0 2.081269 1_655
