# generated using pymatgen
data_Li6Ti15Co3O32
_symmetry_space_group_name_H-M   'P 1'
_cell_length_a   8.46971958
_cell_length_b   8.46971958
_cell_length_c   8.46972019
_cell_angle_alpha   89.87351124
_cell_angle_beta   89.87351124
_cell_angle_gamma   89.87351676
_symmetry_Int_Tables_number   1
_chemical_formula_structural   Li6Ti15Co3O32
_chemical_formula_sum   'Li6 Ti15 Co3 O32'
_cell_volume   607.58068043
_cell_formula_units_Z   1
loop_
 _symmetry_equiv_pos_site_id
 _symmetry_equiv_pos_as_xyz
  1  'x, y, z'
loop_
 _atom_site_type_symbol
 _atom_site_label
 _atom_site_symmetry_multiplicity
 _atom_site_fract_x
 _atom_site_fract_y
 _atom_site_fract_z
 _atom_site_occupancy
  Li  Li0  1  0.25119000  0.25119000  0.25119000  1
  Li  Li1  1  0.24826300  0.74898500  0.74898500  1
  Li  Li2  1  0.99879500  0.99879500  0.99879500  1
  Li  Li3  1  0.74898500  0.74898500  0.24826300  1
  Li  Li4  1  0.74898500  0.24826300  0.74898500  1
  Li  Li5  1  0.62461100  0.62461100  0.62461100  1
  Ti  Ti0  1  0.38241800  0.62564800  0.38241800  1
  Ti  Ti1  1  0.38241800  0.38241800  0.62564800  1
  Ti  Ti2  1  0.37408200  0.87716600  0.12233100  1
  Ti  Ti3  1  0.37408200  0.12233100  0.87716600  1
  Ti  Ti4  1  0.12204000  0.62629800  0.12204000  1
  Ti  Ti5  1  0.12233100  0.37408200  0.87716600  1
  Ti  Ti6  1  0.12233100  0.87716600  0.37408200  1
  Ti  Ti7  1  0.12204000  0.12204000  0.62629800  1
  Ti  Ti8  1  0.87716600  0.37408200  0.12233100  1
  Ti  Ti9  1  0.87190400  0.62503900  0.87190400  1
  Ti  Ti10  1  0.87716600  0.12233100  0.37408200  1
  Ti  Ti11  1  0.87190400  0.87190400  0.62503900  1
  Ti  Ti12  1  0.62564800  0.38241800  0.38241800  1
  Ti  Ti13  1  0.62629800  0.12204000  0.12204000  1
  Ti  Ti14  1  0.62503900  0.87190400  0.87190400  1
  Co  Co0  1  0.50110900  0.00031300  0.50110900  1
  Co  Co1  1  0.00031300  0.50110900  0.50110900  1
  Co  Co2  1  0.50110900  0.50110900  0.00031300  1
  O  O0  1  0.38627400  0.88641500  0.88641500  1
  O  O1  1  0.38749100  0.38749100  0.38749100  1
  O  O2  1  0.38641400  0.11340800  0.11340800  1
  O  O3  1  0.36604100  0.36604100  0.86506500  1
  O  O4  1  0.37371700  0.60912400  0.60912400  1
  O  O5  1  0.36604100  0.86506500  0.36604100  1
  O  O6  1  0.36173500  0.13740300  0.63571400  1
  O  O7  1  0.36173500  0.63571400  0.13740300  1
  O  O8  1  0.13785100  0.13785100  0.86264300  1
  O  O9  1  0.13740300  0.63571400  0.36173500  1
  O  O10  1  0.13740300  0.36173500  0.63571400  1
  O  O11  1  0.11340800  0.11340800  0.38641400  1
  O  O12  1  0.13785100  0.86264300  0.13785100  1
  O  O13  1  0.11201700  0.61305600  0.88862500  1
  O  O14  1  0.11201700  0.88862500  0.61305600  1
  O  O15  1  0.11340800  0.38641400  0.11340800  1
  O  O16  1  0.88862500  0.11201700  0.61305600  1
  O  O17  1  0.88862500  0.61305600  0.11201700  1
  O  O18  1  0.88641500  0.88641500  0.38627400  1
  O  O19  1  0.87571300  0.63921000  0.63921000  1
  O  O20  1  0.88641500  0.38627400  0.88641500  1
  O  O21  1  0.86264300  0.13785100  0.13785100  1
  O  O22  1  0.86226100  0.86226100  0.86226100  1
  O  O23  1  0.86506500  0.36604100  0.36604100  1
  O  O24  1  0.63921000  0.87571300  0.63921000  1
  O  O25  1  0.63571400  0.36173500  0.13740300  1
  O  O26  1  0.63921000  0.63921000  0.87571300  1
  O  O27  1  0.61305600  0.88862500  0.11201700  1
  O  O28  1  0.63571400  0.13740300  0.36173500  1
  O  O29  1  0.60912400  0.37371700  0.60912400  1
  O  O30  1  0.61305600  0.11201700  0.88862500  1
  O  O31  1  0.60912400  0.60912400  0.37371700  1
loop_
_geom_bond_atom_site_label_1
_geom_bond_atom_site_label_2
_geom_bond_distance
_geom_bond_site_symmetry_2
Li0 O1 2.003943 1_555
Li0 O11 2.007388 1_555
Li0 O2 2.007388 1_555
Li0 O15 2.007388 1_555
Li1 O4 1.982572 1_555
Li1 O13 2.012391 1_555
Li1 O14 2.012391 1_555
Li1 O0 2.023393 1_555
Li2 O22 2.007369 1_555
Li2 O8 2.024399 1_665
Li2 O12 2.024400 1_656
Li2 O21 2.024400 1_566
Li3 O31 1.982572 1_555
Li3 O17 2.012391 1_555
Li3 O27 2.012391 1_555
Li3 O18 2.023393 1_555
Li4 O29 1.982572 1_555
Li4 O30 2.012391 1_555
Li4 O16 2.012391 1_555
Li4 O20 2.023393 1_555
Li5 O29 2.133678 1_555
Li5 O4 2.133678 1_555
Li5 O31 2.133678 1_555
Li5 O24 2.134500 1_555
Li5 O19 2.134500 1_555
Li5 O26 2.134500 1_555
Co0 O24 1.960904 1_545
Co0 O5 1.986698 1_545
Co0 O28 2.008798 1_555
Co0 O6 2.008798 1_555
Co1 O19 1.960904 1_455
Co1 O23 1.986698 1_455
Co1 O9 2.008798 1_555
Co1 O10 2.008798 1_555
Co2 O26 1.960904 1_554
Co2 O3 1.986698 1_554
Co2 O7 2.008798 1_555
Co2 O25 2.008798 1_555
O0 Ti3 2.001951 1_565
O0 Ti2 2.001951 1_556
O0 Ti14 2.029204 1_555
O1 Ti0 2.017850 1_555
O1 Ti12 2.017850 1_555
O1 Ti1 2.017851 1_555
O2 Ti2 2.005108 1_545
O2 Ti3 2.005108 1_554
O2 Ti13 2.034707 1_555
O3 Ti1 2.036672 1_555
O3 Ti5 2.067452 1_555
O3 Ti3 2.067452 1_555
O4 Ti1 1.926182 1_555
O4 Ti0 1.926182 1_555
O5 Ti0 2.036672 1_555
O5 Ti6 2.067452 1_555
O5 Ti2 2.067452 1_555
O6 Ti7 2.036351 1_555
O6 Ti3 2.051613 1_555
O6 Ti1 2.084515 1_555
O7 Ti4 2.036351 1_555
O7 Ti2 2.051613 1_555
O7 Ti0 2.084515 1_555
O8 Ti3 2.008857 1_555
O8 Ti5 2.008857 1_555
O8 Ti7 2.011323 1_555
O9 Ti4 2.036351 1_555
O9 Ti6 2.051613 1_555
O9 Ti0 2.084515 1_555
O10 Ti7 2.036351 1_555
O10 Ti5 2.051613 1_555
O10 Ti1 2.084515 1_555
O11 Ti6 2.005108 1_545
O11 Ti10 2.005108 1_455
O11 Ti7 2.034708 1_555
O12 Ti2 2.008857 1_555
O12 Ti6 2.008857 1_555
O12 Ti4 2.011323 1_555
O13 Ti4 1.982402 1_556
O13 Ti5 2.028263 1_555
O13 Ti9 2.041213 1_455
O14 Ti7 1.982402 1_565
O14 Ti6 2.028263 1_555
O14 Ti11 2.041213 1_455
O15 Ti8 2.005108 1_455
O15 Ti5 2.005108 1_554
O15 Ti4 2.034707 1_555
O16 Ti7 1.982402 1_655
O16 Ti10 2.028263 1_555
O16 Ti11 2.041213 1_545
O17 Ti4 1.982402 1_655
O17 Ti8 2.028263 1_555
O17 Ti9 2.041213 1_554
O18 Ti10 2.001951 1_565
O18 Ti6 2.001951 1_655
O18 Ti11 2.029204 1_555
O19 Ti11 1.974437 1_555
O19 Ti9 1.974437 1_555
O20 Ti5 2.001951 1_655
O20 Ti8 2.001951 1_556
O20 Ti9 2.029204 1_555
O21 Ti8 2.008857 1_555
O21 Ti10 2.008857 1_555
O21 Ti13 2.011323 1_555
O22 Ti14 2.012168 1_555
O22 Ti9 2.012168 1_555
O22 Ti11 2.012168 1_555
O23 Ti12 2.036672 1_555
O23 Ti10 2.067452 1_555
O23 Ti8 2.067452 1_555
O24 Ti11 1.974437 1_555
O24 Ti14 1.974437 1_555
O25 Ti13 2.036351 1_555
O25 Ti8 2.051613 1_555
O25 Ti12 2.084515 1_555
O26 Ti14 1.974437 1_555
O26 Ti9 1.974437 1_555
O27 Ti13 1.982402 1_565
O27 Ti2 2.028263 1_555
O27 Ti14 2.041213 1_554
O28 Ti13 2.036351 1_555
O28 Ti10 2.051613 1_555
O28 Ti12 2.084515 1_555
O29 Ti1 1.926182 1_555
O29 Ti12 1.926182 1_555
O30 Ti13 1.982402 1_556
O30 Ti3 2.028263 1_555
O30 Ti14 2.041213 1_545
O31 Ti0 1.926182 1_555
O31 Ti12 1.926182 1_555
