# generated using pymatgen
data_Li3SbN3(O3F)3
_symmetry_space_group_name_H-M   'P 1'
_cell_length_a   8.78796491
_cell_length_b   8.78796491
_cell_length_c   7.00017200
_cell_angle_alpha   90.00000000
_cell_angle_beta   90.00000000
_cell_angle_gamma   107.22568125
_symmetry_Int_Tables_number   1
_chemical_formula_structural   Li3SbN3(O3F)3
_chemical_formula_sum   'Li6 Sb2 N6 O18 F6'
_cell_volume   516.36283329
_cell_formula_units_Z   2
loop_
 _symmetry_equiv_pos_site_id
 _symmetry_equiv_pos_as_xyz
  1  'x, y, z'
loop_
 _atom_site_type_symbol
 _atom_site_label
 _atom_site_symmetry_multiplicity
 _atom_site_fract_x
 _atom_site_fract_y
 _atom_site_fract_z
 _atom_site_occupancy
  Li  Li0  1  0.45752500  0.96972600  0.27808000  1
  Li  Li1  1  0.96972600  0.45752500  0.77808000  1
  Li  Li2  1  0.59397000  0.40603000  0.89325400  1
  Li  Li3  1  0.40603000  0.59397000  0.39325400  1
  Li  Li4  1  0.03027400  0.54247500  0.27808000  1
  Li  Li5  1  0.54247500  0.03027400  0.77808000  1
  Sb  Sb0  1  0.86786600  0.13213400  0.14268400  1
  Sb  Sb1  1  0.13213400  0.86786600  0.64268400  1
  N  N0  1  0.22026200  0.31818300  0.24599800  1
  N  N1  1  0.31818300  0.22026200  0.74599800  1
  N  N2  1  0.29542800  0.70457200  0.02511100  1
  N  N3  1  0.70457200  0.29542800  0.52511100  1
  N  N4  1  0.68181700  0.77973800  0.24599800  1
  N  N5  1  0.77973800  0.68181700  0.74599800  1
  O  O0  1  0.16345600  0.20167300  0.13397300  1
  O  O1  1  0.20167300  0.16345600  0.63397300  1
  O  O2  1  0.12742700  0.37391500  0.34413200  1
  O  O3  1  0.37391500  0.12742700  0.84413200  1
  O  O4  1  0.37909400  0.36871900  0.76043500  1
  O  O5  1  0.36871900  0.37909400  0.26043500  1
  O  O6  1  0.19387300  0.59531500  0.93976700  1
  O  O7  1  0.59531500  0.19387300  0.43976700  1
  O  O8  1  0.71487800  0.28512200  0.70940100  1
  O  O9  1  0.28512200  0.71487800  0.20940100  1
  O  O10  1  0.80612700  0.40468500  0.43976700  1
  O  O11  1  0.40468500  0.80612700  0.93976700  1
  O  O12  1  0.62090600  0.63128100  0.26043500  1
  O  O13  1  0.63128100  0.62090600  0.76043500  1
  O  O14  1  0.87257300  0.62608500  0.84413200  1
  O  O15  1  0.62608500  0.87257300  0.34413200  1
  O  O16  1  0.79832700  0.83654400  0.13397300  1
  O  O17  1  0.83654400  0.79832700  0.63397300  1
  F  F0  1  0.09320800  0.63850500  0.54062900  1
  F  F1  1  0.63850500  0.09320800  0.04062900  1
  F  F2  1  0.91689300  0.08310700  0.88320400  1
  F  F3  1  0.08310700  0.91689300  0.38320400  1
  F  F4  1  0.90679200  0.36149500  0.04062900  1
  F  F5  1  0.36149500  0.90679200  0.54062900  1
loop_
_geom_bond_atom_site_label_1
_geom_bond_atom_site_label_2
_geom_bond_distance
_geom_bond_site_symmetry_2
Li0 O15 1.971299 1_555
Li0 O7 2.283576 1_565
Li0 O9 2.352168 1_555
Li1 O14 1.971299 1_555
Li1 O6 2.283576 1_655
Li1 O8 2.352168 1_555
Li2 O13 2.042305 1_555
Li2 O4 2.042305 1_555
Li2 O8 2.140795 1_555
Li3 O12 2.042305 1_555
Li3 O5 2.042305 1_555
Li3 O9 2.140795 1_555
Li4 O2 1.971299 1_555
Li4 O10 2.283576 1_455
Li4 O9 2.352168 1_555
Li5 O3 1.971299 1_555
Li5 O11 2.283576 1_545
Li5 O8 2.352168 1_555
N0 O5 1.259048 1_555
N0 O0 1.268772 1_555
N0 O2 1.270440 1_555
N1 O4 1.259048 1_555
N1 O1 1.268772 1_555
N1 O3 1.270440 1_555
N2 O6 1.252106 1_554
N2 O11 1.252106 1_554
N2 O9 1.298277 1_555
N3 O7 1.252106 1_555
N3 O10 1.252106 1_555
N3 O8 1.298277 1_555
N4 O12 1.259048 1_555
N4 O16 1.268772 1_555
N4 O15 1.270440 1_555
N5 O13 1.259048 1_555
N5 O17 1.268772 1_555
N5 O14 1.270440 1_555
O0 Sb0 2.486902 1_455
O1 Sb1 2.486902 1_545
O16 Sb0 2.486902 1_565
O17 Sb1 2.486902 1_655
F0 Li4 2.029645 1_555
F0 Sb1 2.069233 1_555
F0 Li1 2.334050 1_455
F1 Li5 2.029645 1_554
F1 Sb0 2.069233 1_555
F1 Li0 2.334050 1_545
F2 Sb0 1.944358 1_556
F3 Sb1 1.944358 1_555
F4 Li1 2.029645 1_554
F4 Sb0 2.069233 1_555
F4 Li4 2.334050 1_655
F5 Li0 2.029645 1_555
F5 Sb1 2.069233 1_555
F5 Li5 2.334050 1_565
