# generated using pymatgen
data_Li4Nb2Fe3Cu3O16
_symmetry_space_group_name_H-M   'P 1'
_cell_length_a   5.91860400
_cell_length_b   5.97362065
_cell_length_c   9.78473646
_cell_angle_alpha   92.28326632
_cell_angle_beta   89.51809368
_cell_angle_gamma   119.30764296
_symmetry_Int_Tables_number   1
_chemical_formula_structural   Li4Nb2Fe3Cu3O16
_chemical_formula_sum   'Li4 Nb2 Fe3 Cu3 O16'
_cell_volume   301.40080168
_cell_formula_units_Z   1
loop_
 _symmetry_equiv_pos_site_id
 _symmetry_equiv_pos_as_xyz
  1  'x, y, z'
loop_
 _atom_site_type_symbol
 _atom_site_label
 _atom_site_symmetry_multiplicity
 _atom_site_fract_x
 _atom_site_fract_y
 _atom_site_fract_z
 _atom_site_occupancy
  Li  Li0  1  0.34316700  0.68472200  0.90288200  1
  Li  Li1  1  0.99648900  0.99060000  0.99083500  1
  Li  Li2  1  0.99198500  0.98013800  0.48829100  1
  Li  Li3  1  0.66965300  0.33058900  0.40394200  1
  Nb  Nb0  1  0.33162400  0.64115100  0.49645000  1
  Nb  Nb1  1  0.66266300  0.33623100  0.99383600  1
  Fe  Fe0  1  0.16967100  0.34126800  0.21581800  1
  Fe  Fe1  1  0.83011500  0.17079300  0.71802500  1
  Fe  Fe2  1  0.33877600  0.16516900  0.71516700  1
  Cu  Cu0  1  0.66065900  0.82699700  0.21190900  1
  Cu  Cu1  1  0.17135300  0.83121000  0.21726900  1
  Cu  Cu2  1  0.83045500  0.65684200  0.71497900  1
  O  O0  1  0.66371300  0.83593200  0.58945800  1
  O  O1  1  0.49543600  0.95137000  0.33502900  1
  O  O2  1  0.34963600  0.67156000  0.11452500  1
  O  O3  1  0.98086800  0.99844500  0.29999000  1
  O  O4  1  0.99867600  0.00042800  0.80534800  1
  O  O5  1  0.17057600  0.83488200  0.58812000  1
  O  O6  1  0.44491400  0.46816200  0.35832000  1
  O  O7  1  0.03715700  0.53140800  0.34169800  1
  O  O8  1  0.82213300  0.68073800  0.09688300  1
  O  O9  1  0.15983000  0.33053600  0.59875800  1
  O  O10  1  0.96609500  0.49478200  0.84419400  1
  O  O11  1  0.52205900  0.48948900  0.84316400  1
  O  O12  1  0.66650100  0.32816800  0.60902000  1
  O  O13  1  0.87011500  0.21817300  0.07643100  1
  O  O14  1  0.51951300  0.04318500  0.84455400  1
  O  O15  1  0.33646900  0.16703300  0.09294600  1
loop_
_geom_bond_atom_site_label_1
_geom_bond_atom_site_label_2
_geom_bond_distance
_geom_bond_site_symmetry_2
Li0 O14 1.974764 1_565
Li0 O11 1.991678 1_555
Li0 O10 2.021987 1_455
Li0 O2 2.076875 1_556
Li1 O4 1.817960 1_565
Li1 O8 1.957765 1_556
Li1 O13 2.000788 1_566
Li1 O15 2.007918 1_666
Li2 O3 1.853684 1_555
Li2 O5 1.951187 1_655
Li2 O0 1.973301 1_555
Li2 O9 2.082919 1_665
Li3 O6 1.937344 1_555
Li3 O7 2.005630 1_655
Li3 O12 2.007126 1_555
Li3 O1 2.062220 1_545
Nb0 O0 1.937019 1_555
Nb0 O9 1.939767 1_555
Nb0 O6 1.973826 1_555
Nb0 O5 2.008785 1_555
Nb0 O7 2.146349 1_555
Nb0 O1 2.305929 1_555
Nb1 O13 1.888882 1_556
Nb1 O15 1.955900 1_556
Nb1 O8 2.022805 1_556
Nb1 O14 2.069038 1_555
Nb1 O11 2.139682 1_555
Nb1 O10 2.160379 1_555
Fe0 O6 1.979313 1_555
Fe0 O3 1.999860 1_445
Fe0 O2 2.022466 1_555
Fe0 O7 2.041251 1_555
Fe0 O13 2.056367 1_455
Fe0 O15 2.095133 1_555
Fe1 O4 1.959249 1_555
Fe1 O12 1.986865 1_555
Fe1 O14 2.039197 1_555
Fe1 O10 2.054005 1_555
Fe1 O9 2.075572 1_655
Fe1 O0 2.108433 1_545
Fe2 O4 1.974568 1_455
Fe2 O12 1.996712 1_555
Fe2 O14 2.034076 1_555
Fe2 O11 2.066572 1_555
Fe2 O5 2.081260 1_545
Fe2 O9 2.128178 1_555
Cu0 O3 1.854823 1_555
Cu0 O2 1.855914 1_555
Cu0 O1 1.892006 1_555
Cu0 O8 1.914279 1_555
Cu0 O6 2.410786 1_555
Cu0 O13 2.477421 1_565
Cu1 O2 1.981050 1_555
Cu1 O3 1.986710 1_455
Cu1 O7 2.021239 1_555
Cu1 O1 2.036043 1_555
Cu1 O8 2.146000 1_455
Cu1 O15 2.171255 1_565
Cu2 O4 1.963505 1_565
Cu2 O12 1.964920 1_555
Cu2 O10 2.013870 1_555
Cu2 O11 2.044304 1_555
Cu2 O5 2.165966 1_655
Cu2 O0 2.187596 1_555
