# generated using pymatgen
data_SmHoO3
_symmetry_space_group_name_H-M   'P 1'
_cell_length_a   5.76511600
_cell_length_b   6.02410500
_cell_length_c   8.44694400
_cell_angle_alpha   90.00000000
_cell_angle_beta   90.00000000
_cell_angle_gamma   90.00000000
_symmetry_Int_Tables_number   1
_chemical_formula_structural   SmHoO3
_chemical_formula_sum   'Sm4 Ho4 O12'
_cell_volume   293.35952797
_cell_formula_units_Z   4
loop_
 _symmetry_equiv_pos_site_id
 _symmetry_equiv_pos_as_xyz
  1  'x, y, z'
loop_
 _atom_site_type_symbol
 _atom_site_label
 _atom_site_symmetry_multiplicity
 _atom_site_fract_x
 _atom_site_fract_y
 _atom_site_fract_z
 _atom_site_occupancy
  Sm  Sm0  1  0.98502500  0.05219200  0.25000000  1
  Sm  Sm1  1  0.48502500  0.44780800  0.75000000  1
  Sm  Sm2  1  0.51497500  0.55219200  0.25000000  1
  Sm  Sm3  1  0.01497500  0.94780800  0.75000000  1
  Ho  Ho0  1  0.50000000  0.00000000  0.00000000  1
  Ho  Ho1  1  0.50000000  0.00000000  0.50000000  1
  Ho  Ho2  1  0.00000000  0.50000000  0.00000000  1
  Ho  Ho3  1  0.00000000  0.50000000  0.50000000  1
  O  O0  1  0.63942900  0.07154900  0.75000000  1
  O  O1  1  0.18341500  0.18665400  0.57298200  1
  O  O2  1  0.18341500  0.18665400  0.92701800  1
  O  O3  1  0.68341500  0.31334600  0.42701800  1
  O  O4  1  0.68341500  0.31334600  0.07298200  1
  O  O5  1  0.13942900  0.42845100  0.25000000  1
  O  O6  1  0.86057100  0.57154900  0.75000000  1
  O  O7  1  0.31658500  0.68665400  0.57298200  1
  O  O8  1  0.31658500  0.68665400  0.92701800  1
  O  O9  1  0.81658500  0.81334600  0.07298200  1
  O  O10  1  0.81658500  0.81334600  0.42701800  1
  O  O11  1  0.36057100  0.92845100  0.25000000  1
loop_
_geom_bond_atom_site_label_1
_geom_bond_atom_site_label_2
_geom_bond_distance
_geom_bond_site_symmetry_2
Ho0 O9 2.230592 1_545
Ho0 O2 2.230592 1_554
Ho0 O4 2.249733 1_555
Ho0 O8 2.249733 1_544
Ho0 O0 2.300291 1_554
Ho0 O11 2.300291 1_545
Ho1 O1 2.230592 1_555
Ho1 O10 2.230592 1_545
Ho1 O7 2.249733 1_545
Ho1 O3 2.249733 1_555
Ho1 O0 2.300291 1_555
Ho1 O11 2.300291 1_545
Ho2 O4 2.230592 1_455
Ho2 O8 2.230592 1_554
Ho2 O9 2.249733 1_455
Ho2 O2 2.249733 1_554
Ho2 O6 2.300291 1_454
Ho2 O5 2.300291 1_555
Ho3 O7 2.230592 1_555
Ho3 O3 2.230592 1_455
Ho3 O1 2.249733 1_555
Ho3 O10 2.249733 1_455
Ho3 O6 2.300291 1_455
Ho3 O5 2.300291 1_555
O0 Sm3 2.289798 1_645
O0 Sm1 2.435151 1_555
O1 Sm3 2.291078 1_545
O1 Sm1 2.781062 1_555
O1 Sm0 3.067149 1_455
O2 Sm3 2.291078 1_545
O2 Sm1 2.781062 1_555
O2 Sm0 3.067149 1_456
O3 Sm2 2.291078 1_555
O3 Sm0 2.781062 1_555
O3 Sm1 3.067149 1_555
O4 Sm2 2.291078 1_555
O4 Sm0 2.781062 1_555
O4 Sm1 3.067149 1_554
O5 Sm2 2.289798 1_555
O5 Sm0 2.435151 1_455
O6 Sm1 2.289798 1_555
O6 Sm3 2.435151 1_655
O7 Sm1 2.291078 1_555
O7 Sm3 2.781062 1_555
O7 Sm2 3.067149 1_555
O8 Sm1 2.291078 1_555
O8 Sm3 2.781062 1_555
O8 Sm2 3.067149 1_556
O9 Sm0 2.291078 1_565
O9 Sm2 2.781062 1_555
O9 Sm3 3.067149 1_654
O10 Sm0 2.291078 1_565
O10 Sm2 2.781062 1_555
O10 Sm3 3.067149 1_655
O11 Sm0 2.289798 1_465
O11 Sm2 2.435151 1_555
