# generated using pymatgen
data_LiFeSiO4
_symmetry_space_group_name_H-M   'P 1'
_cell_length_a   5.80308300
_cell_length_b   7.51740500
_cell_length_c   15.93063600
_cell_angle_alpha   90.00000000
_cell_angle_beta   90.00000000
_cell_angle_gamma   90.00000000
_symmetry_Int_Tables_number   1
_chemical_formula_structural   LiFeSiO4
_chemical_formula_sum   'Li8 Fe8 Si8 O32'
_cell_volume   694.96005874
_cell_formula_units_Z   8
loop_
 _symmetry_equiv_pos_site_id
 _symmetry_equiv_pos_as_xyz
  1  'x, y, z'
loop_
 _atom_site_type_symbol
 _atom_site_label
 _atom_site_symmetry_multiplicity
 _atom_site_fract_x
 _atom_site_fract_y
 _atom_site_fract_z
 _atom_site_occupancy
  Li  Li0  1  0.09069600  0.25224800  0.26756600  1
  Li  Li1  1  0.59069600  0.25224800  0.23243400  1
  Li  Li2  1  0.59069600  0.24775200  0.73243400  1
  Li  Li3  1  0.09069600  0.24775200  0.76756600  1
  Li  Li4  1  0.40930400  0.75224800  0.26756600  1
  Li  Li5  1  0.90930400  0.75224800  0.23243400  1
  Li  Li6  1  0.40930400  0.74775200  0.76756600  1
  Li  Li7  1  0.90930400  0.74775200  0.73243400  1
  Fe  Fe0  1  0.40834800  0.18110100  0.53405800  1
  Fe  Fe1  1  0.90834800  0.18110100  0.96594200  1
  Fe  Fe2  1  0.40834800  0.31889900  0.03405800  1
  Fe  Fe3  1  0.90834800  0.31889900  0.46594200  1
  Fe  Fe4  1  0.09165200  0.68110100  0.53405800  1
  Fe  Fe5  1  0.59165200  0.68110100  0.96594200  1
  Fe  Fe6  1  0.09165200  0.81889900  0.03405800  1
  Fe  Fe7  1  0.59165200  0.81889900  0.46594200  1
  Si  Si0  1  0.90419000  0.04245100  0.61556400  1
  Si  Si1  1  0.40419000  0.04245100  0.88443600  1
  Si  Si2  1  0.90419000  0.45754900  0.11556400  1
  Si  Si3  1  0.40419000  0.45754900  0.38443600  1
  Si  Si4  1  0.59581000  0.54245100  0.61556400  1
  Si  Si5  1  0.09581000  0.54245100  0.88443600  1
  Si  Si6  1  0.59581000  0.95754900  0.11556400  1
  Si  Si7  1  0.09581000  0.95754900  0.38443600  1
  O  O0  1  0.84156000  0.98223300  0.05940700  1
  O  O1  1  0.34156000  0.98223300  0.44059300  1
  O  O2  1  0.36517300  0.12925600  0.79479100  1
  O  O3  1  0.86517300  0.12925600  0.70520900  1
  O  O4  1  0.47135100  0.15393400  0.12319000  1
  O  O5  1  0.97135100  0.15393400  0.37681000  1
  O  O6  1  0.06808400  0.17198700  0.55254100  1
  O  O7  1  0.56808400  0.17198700  0.94745900  1
  O  O8  1  0.06808400  0.32801300  0.05254100  1
  O  O9  1  0.56808400  0.32801300  0.44745900  1
  O  O10  1  0.47135100  0.34606600  0.62319000  1
  O  O11  1  0.97135100  0.34606600  0.87681000  1
  O  O12  1  0.86517300  0.37074400  0.20520900  1
  O  O13  1  0.36517300  0.37074400  0.29479100  1
  O  O14  1  0.84156000  0.51776700  0.55940700  1
  O  O15  1  0.34156000  0.51776700  0.94059300  1
  O  O16  1  0.15844000  0.48223300  0.44059300  1
  O  O17  1  0.65844000  0.48223300  0.05940700  1
  O  O18  1  0.63482700  0.62925600  0.70520900  1
  O  O19  1  0.13482700  0.62925600  0.79479100  1
  O  O20  1  0.02864900  0.65393400  0.12319000  1
  O  O21  1  0.52864900  0.65393400  0.37681000  1
  O  O22  1  0.43191600  0.67198700  0.55254100  1
  O  O23  1  0.93191600  0.67198700  0.94745900  1
  O  O24  1  0.43191600  0.82801300  0.05254100  1
  O  O25  1  0.93191600  0.82801300  0.44745900  1
  O  O26  1  0.02864900  0.84606600  0.62319000  1
  O  O27  1  0.52864900  0.84606600  0.87681000  1
  O  O28  1  0.63482700  0.87074400  0.20520900  1
  O  O29  1  0.13482700  0.87074400  0.29479100  1
  O  O30  1  0.65844000  0.01776700  0.55940700  1
  O  O31  1  0.15844000  0.01776700  0.94059300  1
loop_
_geom_bond_atom_site_label_1
_geom_bond_atom_site_label_2
_geom_bond_distance
_geom_bond_site_symmetry_2
Li0 O12 1.868979 1_455
Li0 O13 1.875807 1_555
Li0 O5 2.013605 1_455
Li1 O13 1.868979 1_555
Li1 O12 1.875807 1_555
Li1 O4 2.013605 1_555
Li2 O2 1.868979 1_555
Li2 O3 1.875807 1_555
Li2 O10 2.013605 1_555
Li3 O3 1.868979 1_455
Li3 O2 1.875807 1_555
Li3 O11 2.013605 1_455
Li4 O28 1.868979 1_555
Li4 O29 1.875807 1_555
Li4 O21 2.013605 1_555
Li5 O29 1.868979 1_655
Li5 O28 1.875807 1_555
Li5 O20 2.013605 1_655
Li6 O18 1.868979 1_555
Li6 O19 1.875807 1_555
Li6 O27 2.013605 1_555
Li7 O19 1.868979 1_655
Li7 O18 1.875807 1_555
Li7 O26 2.013605 1_655
Fe0 O10 1.920349 1_555
Fe0 O30 1.943443 1_555
Fe0 O9 1.995541 1_555
Fe0 O6 1.997588 1_555
Fe0 O1 2.145262 1_545
Fe1 O11 1.920349 1_555
Fe1 O31 1.943443 1_655
Fe1 O8 1.995541 1_656
Fe1 O7 1.997588 1_555
Fe1 O0 2.145262 1_546
Fe2 O4 1.920349 1_555
Fe2 O17 1.943443 1_555
Fe2 O7 1.995541 1_554
Fe2 O8 1.997588 1_555
Fe2 O15 2.145262 1_554
Fe3 O5 1.920349 1_555
Fe3 O16 1.943443 1_655
Fe3 O6 1.995541 1_655
Fe3 O9 1.997588 1_555
Fe3 O14 2.145262 1_555
Fe4 O26 1.920349 1_555
Fe4 O14 1.943443 1_455
Fe4 O25 1.995541 1_455
Fe4 O22 1.997588 1_555
Fe4 O16 2.145262 1_555
Fe5 O27 1.920349 1_555
Fe5 O15 1.943443 1_555
Fe5 O24 1.995541 1_556
Fe5 O23 1.997588 1_555
Fe5 O17 2.145262 1_556
Fe6 O20 1.920349 1_555
Fe6 O0 1.943443 1_455
Fe6 O23 1.995541 1_454
Fe6 O24 1.997588 1_555
Fe6 O31 2.145262 1_564
Fe7 O21 1.920349 1_555
Fe7 O1 1.943443 1_555
Fe7 O22 1.995541 1_555
Fe7 O25 1.997588 1_555
Fe7 O30 2.145262 1_565
O0 Si6 1.693681 1_555
O1 Si7 1.693681 1_555
O2 Si1 1.586367 1_555
O3 Si0 1.586367 1_555
O4 Si6 1.647992 1_545
O5 Si7 1.647992 1_645
O6 Si0 1.691396 1_455
O7 Si1 1.691396 1_555
O8 Si2 1.691396 1_455
O9 Si3 1.691396 1_555
O10 Si4 1.647992 1_555
O11 Si5 1.647992 1_655
O12 Si2 1.586367 1_555
O13 Si3 1.586367 1_555
O14 Si4 1.693681 1_555
O15 Si5 1.693681 1_555
O16 Si3 1.693681 1_555
O17 Si2 1.693681 1_555
O18 Si4 1.586367 1_555
O19 Si5 1.586367 1_555
O20 Si2 1.647992 1_455
O21 Si3 1.647992 1_555
O22 Si4 1.691396 1_555
O23 Si5 1.691396 1_655
O24 Si6 1.691396 1_555
O25 Si7 1.691396 1_655
O26 Si0 1.647992 1_465
O27 Si1 1.647992 1_565
O28 Si6 1.586367 1_555
O29 Si7 1.586367 1_555
O30 Si0 1.693681 1_555
O31 Si1 1.693681 1_555
