# generated using pymatgen
data_Tm2TiO5
_symmetry_space_group_name_H-M   'P 1'
_cell_length_a   3.59102200
_cell_length_b   7.40388500
_cell_length_c   15.35163300
_cell_angle_alpha   90.00000000
_cell_angle_beta   90.00000000
_cell_angle_gamma   90.00000000
_symmetry_Int_Tables_number   1
_chemical_formula_structural   Tm2TiO5
_chemical_formula_sum   'Tm8 Ti4 O20'
_cell_volume   408.16175609
_cell_formula_units_Z   4
loop_
 _symmetry_equiv_pos_site_id
 _symmetry_equiv_pos_as_xyz
  1  'x, y, z'
loop_
 _atom_site_type_symbol
 _atom_site_label
 _atom_site_symmetry_multiplicity
 _atom_site_fract_x
 _atom_site_fract_y
 _atom_site_fract_z
 _atom_site_occupancy
  Tm  Tm0  1  0.25000000  0.10103200  0.08440600  1
  Tm  Tm1  1  0.25000000  0.16006100  0.73757200  1
  Tm  Tm2  1  0.75000000  0.33993900  0.23757200  1
  Tm  Tm3  1  0.75000000  0.39896800  0.58440600  1
  Tm  Tm4  1  0.25000000  0.60103200  0.41559400  1
  Tm  Tm5  1  0.25000000  0.66006100  0.76242800  1
  Tm  Tm6  1  0.75000000  0.83993900  0.26242800  1
  Tm  Tm7  1  0.75000000  0.89896800  0.91559400  1
  Ti  Ti0  1  0.25000000  0.11554700  0.42322900  1
  Ti  Ti1  1  0.75000000  0.38445300  0.92322900  1
  Ti  Ti2  1  0.25000000  0.61554700  0.07677100  1
  Ti  Ti3  1  0.75000000  0.88445300  0.57677100  1
  O  O0  1  0.75000000  0.07193200  0.17459600  1
  O  O1  1  0.75000000  0.07485500  0.45347700  1
  O  O2  1  0.75000000  0.12019300  0.64886600  1
  O  O3  1  0.75000000  0.15510000  0.99565300  1
  O  O4  1  0.25000000  0.25138700  0.32211200  1
  O  O5  1  0.75000000  0.24861300  0.82211200  1
  O  O6  1  0.25000000  0.34490000  0.49565300  1
  O  O7  1  0.25000000  0.37980700  0.14886600  1
  O  O8  1  0.25000000  0.42514500  0.95347700  1
  O  O9  1  0.25000000  0.42806800  0.67459600  1
  O  O10  1  0.75000000  0.57193200  0.32540400  1
  O  O11  1  0.75000000  0.57485500  0.04652300  1
  O  O12  1  0.75000000  0.62019300  0.85113400  1
  O  O13  1  0.75000000  0.65510000  0.50434700  1
  O  O14  1  0.25000000  0.75138700  0.17788800  1
  O  O15  1  0.75000000  0.74861300  0.67788800  1
  O  O16  1  0.25000000  0.84490000  0.00434700  1
  O  O17  1  0.25000000  0.87980700  0.35113400  1
  O  O18  1  0.25000000  0.92514500  0.54652300  1
  O  O19  1  0.25000000  0.92806800  0.82540400  1
loop_
_geom_bond_atom_site_label_1
_geom_bond_atom_site_label_2
_geom_bond_distance
_geom_bond_site_symmetry_2
O0 Tm6 2.183668 1_545
O0 Tm2 2.207281 1_555
O0 Tm0 2.277564 1_655
O0 Tm0 2.277564 1_555
O1 Ti0 1.878897 1_555
O1 Ti0 1.878897 1_655
O1 Ti3 2.360053 1_545
O2 Ti3 2.066723 1_545
O2 Tm1 2.272760 1_655
O2 Tm1 2.272760 1_555
O2 Tm3 2.288976 1_555
O3 Ti1 2.029708 1_555
O3 Tm7 2.259813 1_545
O3 Tm0 2.289220 1_556
O3 Tm0 2.289220 1_656
O4 Ti0 1.849646 1_555
O4 Tm2 2.310425 1_455
O4 Tm2 2.310425 1_555
O5 Ti1 1.849646 1_555
O5 Tm1 2.310425 1_655
O5 Tm1 2.310425 1_555
O6 Ti0 2.029708 1_555
O6 Tm4 2.259813 1_555
O6 Tm3 2.289220 1_455
O6 Tm3 2.289220 1_555
O7 Ti2 2.066723 1_555
O7 Tm2 2.272760 1_555
O7 Tm2 2.272760 1_455
O7 Tm0 2.288976 1_555
O8 Ti1 1.878897 1_555
O8 Ti1 1.878897 1_455
O8 Ti2 2.360053 1_556
O9 Tm5 2.183668 1_555
O9 Tm1 2.207281 1_555
O9 Tm3 2.277564 1_455
O9 Tm3 2.277564 1_555
O10 Tm2 2.183668 1_555
O10 Tm6 2.207281 1_555
O10 Tm4 2.277564 1_655
O10 Tm4 2.277564 1_555
O11 Ti2 1.878897 1_555
O11 Ti2 1.878897 1_655
O11 Ti1 2.360053 1_554
O12 Ti1 2.066723 1_555
O12 Tm5 2.272760 1_655
O12 Tm5 2.272760 1_555
O12 Tm7 2.288976 1_555
O13 Ti3 2.029708 1_555
O13 Tm3 2.259813 1_555
O13 Tm4 2.289220 1_655
O13 Tm4 2.289220 1_555
O14 Ti2 1.849646 1_555
O14 Tm6 2.310425 1_555
O14 Tm6 2.310425 1_455
O15 Ti3 1.849646 1_555
O15 Tm5 2.310425 1_555
O15 Tm5 2.310425 1_655
O16 Ti2 2.029708 1_555
O16 Tm0 2.259813 1_565
O16 Tm7 2.289220 1_454
O16 Tm7 2.289220 1_554
O17 Ti0 2.066723 1_565
O17 Tm6 2.272760 1_555
O17 Tm6 2.272760 1_455
O17 Tm4 2.288976 1_555
O18 Ti3 1.878897 1_555
O18 Ti3 1.878897 1_455
O18 Ti0 2.360053 1_565
O19 Tm1 2.183668 1_565
O19 Tm5 2.207281 1_555
O19 Tm7 2.277564 1_555
O19 Tm7 2.277564 1_455
