# generated using pymatgen
data_Mn4CoO8
_symmetry_space_group_name_H-M   'P 1'
_cell_length_a   5.89975896
_cell_length_b   5.89975896
_cell_length_c   6.00950044
_cell_angle_alpha   62.25230975
_cell_angle_beta   62.25230975
_cell_angle_gamma   59.10624638
_symmetry_Int_Tables_number   1
_chemical_formula_structural   Mn4CoO8
_chemical_formula_sum   'Mn4 Co1 O8'
_cell_volume   151.62385742
_cell_formula_units_Z   1
loop_
 _symmetry_equiv_pos_site_id
 _symmetry_equiv_pos_as_xyz
  1  'x, y, z'
loop_
 _atom_site_type_symbol
 _atom_site_label
 _atom_site_symmetry_multiplicity
 _atom_site_fract_x
 _atom_site_fract_y
 _atom_site_fract_z
 _atom_site_occupancy
  Mn  Mn0  1  0.50000000  0.50000000  0.50000000  1
  Mn  Mn1  1  0.00000000  0.00000000  0.00000000  1
  Mn  Mn2  1  0.00000000  0.50000000  0.00000000  1
  Mn  Mn3  1  0.50000000  0.00000000  0.00000000  1
  Co  Co0  1  0.50000000  0.50000000  0.00000000  1
  O  O0  1  0.72635800  0.72635800  0.80824600  1
  O  O1  1  0.71417600  0.23569600  0.80003200  1
  O  O2  1  0.23569600  0.71417600  0.80003200  1
  O  O3  1  0.25110700  0.25110700  0.78610800  1
  O  O4  1  0.74889300  0.74889300  0.21389200  1
  O  O5  1  0.76430400  0.28582400  0.19996800  1
  O  O6  1  0.28582400  0.76430400  0.19996800  1
  O  O7  1  0.27364200  0.27364200  0.19175400  1
loop_
_geom_bond_atom_site_label_1
_geom_bond_atom_site_label_2
_geom_bond_distance
_geom_bond_site_symmetry_2
Mn0 O2 2.181571 1_555
Mn0 O1 2.181571 1_555
Mn0 O5 2.181571 1_555
Mn0 O6 2.181571 1_555
Mn0 O3 2.186558 1_555
Mn0 O4 2.186558 1_555
Mn1 O1 2.035756 1_454
Mn1 O2 2.035756 1_544
Mn1 O6 2.035756 1_545
Mn1 O5 2.035756 1_455
Mn1 O4 2.179261 1_445
Mn1 O3 2.179261 1_554
Mn2 O3 1.937433 1_554
Mn2 O4 1.937433 1_455
Mn2 O7 1.950144 1_555
Mn2 O0 1.950144 1_454
Mn2 O5 1.951613 1_455
Mn2 O2 1.951613 1_554
Mn3 O3 1.937433 1_554
Mn3 O4 1.937433 1_545
Mn3 O7 1.950144 1_555
Mn3 O0 1.950144 1_544
Mn3 O1 1.951613 1_554
Mn3 O6 1.951613 1_545
Co0 O5 1.944184 1_555
Co0 O6 1.944184 1_555
Co0 O1 1.944184 1_554
Co0 O2 1.944184 1_554
Co0 O0 1.964758 1_554
Co0 O7 1.964758 1_555
