# generated using pymatgen
data_Sr12Mn6O23
_symmetry_space_group_name_H-M   'P 1'
_cell_length_a   8.67701600
_cell_length_b   8.79766281
_cell_length_c   8.80423345
_cell_angle_alpha   102.70779212
_cell_angle_beta   84.35063287
_cell_angle_gamma   119.51414749
_symmetry_Int_Tables_number   1
_chemical_formula_structural   Sr12Mn6O23
_chemical_formula_sum   'Sr12 Mn6 O23'
_cell_volume   570.51224999
_cell_formula_units_Z   1
loop_
 _symmetry_equiv_pos_site_id
 _symmetry_equiv_pos_as_xyz
  1  'x, y, z'
loop_
 _atom_site_type_symbol
 _atom_site_label
 _atom_site_symmetry_multiplicity
 _atom_site_fract_x
 _atom_site_fract_y
 _atom_site_fract_z
 _atom_site_occupancy
  Sr  Sr0  1  0.09431700  0.41663700  0.63148100  1
  Sr  Sr1  1  0.57646600  0.24208400  0.03618200  1
  Sr  Sr2  1  0.42353400  0.75791600  0.96381800  1
  Sr  Sr3  1  0.90568300  0.58336300  0.36851900  1
  Sr  Sr4  1  0.42971200  0.24828900  0.45976000  1
  Sr  Sr5  1  0.90125600  0.08011500  0.86892800  1
  Sr  Sr6  1  0.75976700  0.08429600  0.30049200  1
  Sr  Sr7  1  0.24023300  0.91570400  0.69950800  1
  Sr  Sr8  1  0.77340200  0.58616700  0.78941600  1
  Sr  Sr9  1  0.22659800  0.41383300  0.21058400  1
  Sr  Sr10  1  0.09874400  0.91988500  0.13107200  1
  Sr  Sr11  1  0.57028800  0.75171100  0.54024000  1
  Mn  Mn0  1  0.00000000  0.50000000  0.00000000  1
  Mn  Mn1  1  0.32874100  0.32873200  0.82865200  1
  Mn  Mn2  1  0.66804400  0.16851700  0.66731200  1
  Mn  Mn3  1  0.33195600  0.83148300  0.33268800  1
  Mn  Mn4  1  0.00000000  0.00000000  0.50000000  1
  Mn  Mn5  1  0.67125900  0.67126800  0.17134800  1
  O  O0  1  0.18306600  0.42916700  0.92913800  1
  O  O1  1  0.84263600  0.33083600  0.83036500  1
  O  O2  1  0.77136800  0.35043800  0.53438300  1
  O  O3  1  0.24341900  0.16707200  0.97420800  1
  O  O4  1  0.44853700  0.52561700  0.71797300  1
  O  O5  1  0.83170900  0.08123200  0.58335800  1
  O  O6  1  0.51057200  0.26433400  0.76343900  1
  O  O7  1  0.56176100  0.98458900  0.79745500  1
  O  O8  1  0.55146300  0.47438300  0.28202700  1
  O  O9  1  0.81693400  0.57083300  0.07086200  1
  O  O10  1  0.75658100  0.83292800  0.02579200  1
  O  O11  1  0.50000000  0.00000000  0.50000000  1
  O  O12  1  0.16657300  0.16649200  0.66640900  1
  O  O13  1  0.10573900  0.68541900  0.86903000  1
  O  O14  1  0.89426100  0.31458100  0.13097000  1
  O  O15  1  0.16829100  0.91876800  0.41664200  1
  O  O16  1  0.48942800  0.73566600  0.23656100  1
  O  O17  1  0.43823900  0.01541100  0.20254500  1
  O  O18  1  0.10306700  0.18296800  0.37035300  1
  O  O19  1  0.22863200  0.64956200  0.46561700  1
  O  O20  1  0.89693300  0.81703200  0.62964700  1
  O  O21  1  0.15736400  0.66916400  0.16963500  1
  O  O22  1  0.83342700  0.83350800  0.33359100  1
loop_
_geom_bond_atom_site_label_1
_geom_bond_atom_site_label_2
_geom_bond_distance
_geom_bond_site_symmetry_2
Mn0 O21 1.931655 1_555
Mn0 O1 1.931655 1_454
Mn0 O0 1.977356 1_554
Mn0 O9 1.977356 1_455
Mn0 O13 1.994250 1_554
Mn0 O14 1.994250 1_455
Mn1 O12 1.891442 1_555
Mn1 O0 1.922899 1_555
Mn1 O6 1.923326 1_555
Mn1 O3 1.946985 1_555
Mn1 O4 1.949227 1_555
Mn2 O5 1.941869 1_555
Mn2 O1 1.946754 1_555
Mn2 O11 1.956047 1_555
Mn2 O6 1.971593 1_555
Mn2 O7 1.979672 1_545
Mn2 O2 1.984628 1_555
Mn3 O15 1.941869 1_555
Mn3 O21 1.946754 1_555
Mn3 O11 1.956047 1_565
Mn3 O16 1.971593 1_555
Mn3 O17 1.979672 1_565
Mn3 O19 1.984628 1_555
Mn4 O12 1.941111 1_555
Mn4 O22 1.941111 1_445
Mn4 O5 1.941180 1_455
Mn4 O15 1.941180 1_545
Mn4 O20 1.970484 1_445
Mn4 O18 1.970484 1_555
Mn5 O22 1.891442 1_555
Mn5 O9 1.922899 1_555
Mn5 O16 1.923326 1_555
Mn5 O10 1.946985 1_555
Mn5 O8 1.949227 1_555
O0 Sr2 2.569602 1_555
O0 Sr9 2.585053 1_556
O0 Sr0 2.767584 1_555
O0 Sr5 2.798385 1_455
O1 Sr0 2.570892 1_655
O1 Sr5 2.590035 1_555
O1 Sr1 2.692406 1_556
O1 Sr8 2.695430 1_555
O2 Sr3 2.513638 1_555
O2 Sr8 2.695542 1_555
O2 Sr6 2.723997 1_555
O2 Sr4 2.743466 1_555
O2 Sr0 2.750840 1_655
O3 Sr10 2.550034 1_546
O3 Sr9 2.707381 1_556
O3 Sr1 2.712467 1_556
O3 Sr5 2.872467 1_455
O3 Sr7 2.887970 1_545
O4 Sr11 2.548467 1_555
O4 Sr2 2.703133 1_555
O4 Sr8 2.710636 1_555
O4 Sr0 2.860436 1_555
O4 Sr4 2.896177 1_555
O5 Sr11 2.626787 1_545
O5 Sr6 2.635295 1_555
O5 Sr5 2.645943 1_555
O5 Sr0 2.663476 1_655
O6 Sr1 2.592070 1_556
O6 Sr8 2.593402 1_555
O6 Sr7 2.763737 1_545
O6 Sr4 2.786820 1_555
O7 Sr2 2.478565 1_555
O7 Sr1 2.690525 1_566
O7 Sr11 2.721476 1_555
O7 Sr7 2.733561 1_555
O7 Sr5 2.733694 1_565
O8 Sr4 2.548467 1_555
O8 Sr1 2.703133 1_555
O8 Sr9 2.710636 1_555
O8 Sr3 2.860436 1_555
O8 Sr11 2.896177 1_555
O9 Sr1 2.569602 1_555
O9 Sr8 2.585053 1_554
O9 Sr3 2.767584 1_555
O9 Sr10 2.798385 1_655
O10 Sr5 2.550034 1_564
O10 Sr8 2.707381 1_554
O10 Sr2 2.712467 1_554
O10 Sr10 2.872467 1_655
O10 Sr6 2.887970 1_565
O11 Sr6 2.619637 1_555
O11 Sr7 2.619637 1_545
O11 Sr4 2.639043 1_555
O11 Sr11 2.639043 1_545
O12 Sr0 2.650630 1_555
O12 Sr7 2.659017 1_545
O12 Sr5 2.668494 1_455
O12 Sr4 2.679658 1_555
O13 Sr7 2.520308 1_555
O13 Sr2 2.682005 1_555
O13 Sr8 2.686486 1_455
O13 Sr10 2.753780 1_556
O13 Sr0 2.758550 1_555
O14 Sr6 2.520308 1_555
O14 Sr1 2.682005 1_555
O14 Sr9 2.686486 1_655
O14 Sr5 2.753780 1_554
O14 Sr3 2.758550 1_555
O15 Sr4 2.626787 1_565
O15 Sr7 2.635295 1_555
O15 Sr10 2.645943 1_555
O15 Sr3 2.663476 1_455
O16 Sr2 2.592070 1_554
O16 Sr9 2.593402 1_555
O16 Sr6 2.763737 1_565
O16 Sr11 2.786820 1_555
O17 Sr1 2.478565 1_555
O17 Sr2 2.690525 1_544
O17 Sr4 2.721476 1_555
O17 Sr6 2.733561 1_555
O17 Sr10 2.733694 1_545
O18 Sr9 2.463316 1_555
O18 Sr0 2.749084 1_555
O18 Sr10 2.753419 1_545
O18 Sr6 2.753774 1_455
O18 Sr4 2.760175 1_555
O19 Sr0 2.513638 1_555
O19 Sr9 2.695542 1_555
O19 Sr7 2.723997 1_555
O19 Sr11 2.743466 1_555
O19 Sr3 2.750840 1_455
O20 Sr8 2.463316 1_555
O20 Sr3 2.749084 1_555
O20 Sr5 2.753419 1_565
O20 Sr7 2.753774 1_655
O20 Sr11 2.760175 1_555
O21 Sr3 2.570892 1_455
O21 Sr10 2.590035 1_555
O21 Sr2 2.692406 1_554
O21 Sr9 2.695430 1_555
O22 Sr3 2.650630 1_555
O22 Sr6 2.659017 1_565
O22 Sr10 2.668494 1_655
O22 Sr11 2.679658 1_555
