# generated using pymatgen
data_Li32Ti3Cr13O48
_symmetry_space_group_name_H-M   'P 1'
_cell_length_a   5.04713600
_cell_length_b   8.72597605
_cell_length_c   19.50216444
_cell_angle_alpha   98.06852228
_cell_angle_beta   94.92061795
_cell_angle_gamma   89.66399017
_symmetry_Int_Tables_number   1
_chemical_formula_structural   Li32Ti3Cr13O48
_chemical_formula_sum   'Li32 Ti3 Cr13 O48'
_cell_volume   847.24544262
_cell_formula_units_Z   1
loop_
 _symmetry_equiv_pos_site_id
 _symmetry_equiv_pos_as_xyz
  1  'x, y, z'
loop_
 _atom_site_type_symbol
 _atom_site_label
 _atom_site_symmetry_multiplicity
 _atom_site_fract_x
 _atom_site_fract_y
 _atom_site_fract_z
 _atom_site_occupancy
  Li  Li0  1  0.99221200  0.17095900  0.24948000  1
  Li  Li1  1  0.87557300  0.37543800  0.37501300  1
  Li  Li2  1  0.74924700  0.25166900  0.00028800  1
  Li  Li3  1  0.74126900  0.92110400  0.00079300  1
  Li  Li4  1  0.99108200  0.16924300  0.74996800  1
  Li  Li5  1  0.76185600  0.58016700  0.50018300  1
  Li  Li6  1  0.87318600  0.37495100  0.87594600  1
  Li  Li7  1  0.74158700  0.25281100  0.49998800  1
  Li  Li8  1  0.74318400  0.91954400  0.49937000  1
  Li  Li9  1  0.62560500  0.12446200  0.12496500  1
  Li  Li10  1  0.75731100  0.57858300  0.00004300  1
  Li  Li11  1  0.50925800  0.33013600  0.24985900  1
  Li  Li12  1  0.62544200  0.12576600  0.62503700  1
  Li  Li13  1  0.50274400  0.99806100  0.24965100  1
  Li  Li14  1  0.49258400  0.67022800  0.24985800  1
  Li  Li15  1  0.51562800  0.33399000  0.75083700  1
  Li  Li16  1  0.37558100  0.87490300  0.37450900  1
  Li  Li17  1  0.50020000  0.00011800  0.75019700  1
  Li  Li18  1  0.25503500  0.74932800  0.99973700  1
  Li  Li19  1  0.48501800  0.66615900  0.74928200  1
  Li  Li20  1  0.24369400  0.42071400  0.99968400  1
  Li  Li21  1  0.37419700  0.87458700  0.87498400  1
  Li  Li22  1  0.25740800  0.07891700  0.49980700  1
  Li  Li23  1  0.25018600  0.74892900  0.49998900  1
  Li  Li24  1  0.12485800  0.62524200  0.12498100  1
  Li  Li25  1  0.24378000  0.42045800  0.50062500  1
  Li  Li26  1  0.00790300  0.83016900  0.25027400  1
  Li  Li27  1  0.25547600  0.07823900  0.00008200  1
  Li  Li28  1  0.12533100  0.62475800  0.62464200  1
  Li  Li29  1  0.99397600  0.50116700  0.25032300  1
  Li  Li30  1  0.00877200  0.83044000  0.75024000  1
  Li  Li31  1  0.99918300  0.50047300  0.74990800  1
  Ti  Ti0  1  0.87048500  0.71152000  0.87361900  1
  Ti  Ti1  1  0.37812300  0.53835000  0.37539100  1
  Ti  Ti2  1  0.12823100  0.28809100  0.62511000  1
  Cr  Cr0  1  0.87617300  0.71175200  0.37505000  1
  Cr  Cr1  1  0.87393100  0.04680400  0.37457600  1
  Cr  Cr2  1  0.87853000  0.04746700  0.87581200  1
  Cr  Cr3  1  0.63237000  0.78943900  0.12467800  1
  Cr  Cr4  1  0.61861900  0.45979400  0.12511500  1
  Cr  Cr5  1  0.62720000  0.79775100  0.62542300  1
  Cr  Cr6  1  0.62280800  0.46173800  0.62463800  1
  Cr  Cr7  1  0.37192500  0.20206400  0.37415900  1
  Cr  Cr8  1  0.37131900  0.53871000  0.87509400  1
  Cr  Cr9  1  0.37792800  0.20344800  0.87596000  1
  Cr  Cr10  1  0.11900200  0.95991300  0.12534000  1
  Cr  Cr11  1  0.13101400  0.28973200  0.12468400  1
  Cr  Cr12  1  0.12402400  0.95307200  0.62474900  1
  O  O0  1  0.96567600  0.10169000  0.06862400  1
  O  O1  1  0.92105700  0.78435600  0.06886200  1
  O  O2  1  0.92597700  0.42749700  0.06847300  1
  O  O3  1  0.96429800  0.10355900  0.56878900  1
  O  O4  1  0.82901500  0.96636100  0.18143400  1
  O  O5  1  0.82356400  0.32289900  0.18172100  1
  O  O6  1  0.93599000  0.78814800  0.56896500  1
  O  O7  1  0.92254300  0.42915300  0.56777600  1
  O  O8  1  0.78434500  0.64836700  0.18140200  1
  O  O9  1  0.71377300  0.85938500  0.31919500  1
  O  O10  1  0.81540200  0.96097100  0.68127400  1
  O  O11  1  0.82162500  0.32343100  0.68305000  1
  O  O12  1  0.68046700  0.53594800  0.31834700  1
  O  O13  1  0.68303800  0.17387300  0.31702800  1
  O  O14  1  0.78364700  0.64514100  0.68036200  1
  O  O15  1  0.71262000  0.86044000  0.81847700  1
  O  O16  1  0.46588900  0.60146400  0.06882100  1
  O  O17  1  0.57706300  0.71701000  0.43114900  1
  O  O18  1  0.56452600  0.07538000  0.43206400  1
  O  O19  1  0.67496000  0.53307000  0.81912400  1
  O  O20  1  0.68549300  0.17465700  0.81786100  1
  O  O21  1  0.42807000  0.92591400  0.06814800  1
  O  O22  1  0.41812200  0.28343000  0.06877800  1
  O  O23  1  0.53621100  0.38991300  0.43133500  1
  O  O24  1  0.46574800  0.60758900  0.56933800  1
  O  O25  1  0.56771900  0.71271900  0.93126800  1
  O  O26  1  0.56662900  0.07502500  0.93299600  1
  O  O27  1  0.32361500  0.82432300  0.18160700  1
  O  O28  1  0.33072100  0.46665900  0.18123900  1
  O  O29  1  0.43268700  0.92363500  0.56714100  1
  O  O30  1  0.42892100  0.28477100  0.56833600  1
  O  O31  1  0.53745000  0.38854300  0.93134600  1
  O  O32  1  0.28408200  0.14782600  0.18119000  1
  O  O33  1  0.21438700  0.35423400  0.31870200  1
  O  O34  1  0.31540000  0.82488300  0.68196800  1
  O  O35  1  0.32787500  0.46648000  0.68117200  1
  O  O36  1  0.17166300  0.67978100  0.31759900  1
  O  O37  1  0.18580100  0.03832300  0.31849300  1
  O  O38  1  0.28667000  0.13985100  0.68164700  1
  O  O39  1  0.21713800  0.35905600  0.82014800  1
  O  O40  1  0.07352000  0.57259200  0.43327800  1
  O  O41  1  0.06377200  0.20998200  0.43099200  1
  O  O42  1  0.17399100  0.67854300  0.81620000  1
  O  O43  1  0.18537400  0.04034700  0.81888400  1
  O  O44  1  0.03514800  0.89327000  0.43010400  1
  O  O45  1  0.07979400  0.57070800  0.93263200  1
  O  O46  1  0.06393300  0.21168400  0.93136800  1
  O  O47  1  0.03453900  0.89576800  0.93135500  1
loop_
_geom_bond_atom_site_label_1
_geom_bond_atom_site_label_2
_geom_bond_distance
_geom_bond_site_symmetry_2
Li0 O32 2.059636 1_655
Li0 O37 2.074623 1_655
Li0 O13 2.124563 1_555
Li0 O5 2.124659 1_555
Li0 O4 2.188953 1_545
Li0 O33 2.189238 1_655
Li1 O12 2.093868 1_555
Li1 O33 2.103782 1_655
Li1 O41 2.104047 1_655
Li1 O23 2.106515 1_555
Li1 O40 2.127345 1_655
Li1 O13 2.142391 1_555
Li2 O2 2.039049 1_555
Li2 O26 2.046697 1_554
Li2 O31 2.136858 1_554
Li2 O46 2.163092 1_654
Li2 O0 2.214754 1_555
Li2 O22 2.219804 1_555
Li3 O1 2.057869 1_555
Li3 O47 2.080771 1_654
Li3 O21 2.136815 1_555
Li3 O26 2.147962 1_564
Li3 O0 2.166703 1_565
Li3 O25 2.243873 1_554
Li4 O43 2.053860 1_655
Li4 O38 2.075419 1_655
Li4 O20 2.113322 1_555
Li4 O11 2.129029 1_555
Li4 O10 2.239524 1_545
Li4 O39 2.244155 1_655
Li5 O17 2.081128 1_555
Li5 O24 2.088226 1_555
Li5 O7 2.103223 1_555
Li5 O40 2.123178 1_655
Li5 O23 2.233838 1_555
Li5 O6 2.235731 1_555
Li6 O31 2.080496 1_555
Li6 O19 2.086973 1_555
Li6 O46 2.088637 1_655
Li6 O39 2.120343 1_655
Li6 O20 2.124812 1_555
Li6 O45 2.126123 1_655
Li7 O18 2.046431 1_555
Li7 O7 2.046443 1_555
Li7 O23 2.120218 1_555
Li7 O30 2.143857 1_555
Li7 O41 2.195801 1_655
Li7 O3 2.230390 1_555
Li8 O44 2.073488 1_655
Li8 O6 2.073853 1_555
Li8 O29 2.131995 1_555
Li8 O18 2.160734 1_565
Li8 O17 2.182298 1_555
Li8 O3 2.192755 1_565
Li9 O4 2.094266 1_545
Li9 O22 2.105780 1_555
Li9 O0 2.109739 1_555
Li9 O32 2.114817 1_555
Li9 O5 2.124676 1_555
Li9 O21 2.124913 1_545
Li10 O16 2.064514 1_555
Li10 O25 2.071716 1_554
Li10 O2 2.128286 1_555
Li10 O45 2.173153 1_654
Li10 O1 2.204316 1_555
Li10 O31 2.217896 1_554
Li11 O28 2.061581 1_555
Li11 O33 2.078825 1_555
Li11 O5 2.150160 1_555
Li11 O13 2.152852 1_555
Li11 O32 2.185834 1_555
Li11 O12 2.214234 1_555
Li12 O30 2.087595 1_555
Li12 O3 2.103358 1_555
Li12 O10 2.106194 1_545
Li12 O38 2.107309 1_555
Li12 O11 2.124971 1_555
Li12 O29 2.145908 1_545
Li13 O27 2.030320 1_555
Li13 O13 2.038029 1_565
Li13 O9 2.153122 1_555
Li13 O37 2.171231 1_565
Li13 O4 2.196666 1_555
Li13 O32 2.220025 1_565
Li14 O8 2.061460 1_555
Li14 O12 2.065242 1_555
Li14 O27 2.145044 1_555
Li14 O36 2.170338 1_555
Li14 O28 2.185357 1_555
Li14 O9 2.221554 1_555
Li15 O35 2.070653 1_555
Li15 O39 2.099300 1_555
Li15 O11 2.110864 1_555
Li15 O19 2.149703 1_555
Li15 O20 2.163451 1_555
Li15 O38 2.267096 1_555
Li16 O9 2.089903 1_555
Li16 O17 2.090594 1_555
Li16 O37 2.094307 1_565
Li16 O44 2.102630 1_555
Li16 O36 2.117579 1_555
Li16 O18 2.124686 1_565
Li17 O20 2.043612 1_555
Li17 O34 2.052141 1_545
Li17 O15 2.145578 1_545
Li17 O38 2.151839 1_555
Li17 O43 2.160795 1_555
Li17 O10 2.164683 1_545
Li18 O21 2.038586 1_556
Li18 O45 2.041887 1_555
Li18 O25 2.147440 1_555
Li18 O16 2.199635 1_556
Li18 O47 2.203840 1_555
Li18 O1 2.240589 1_456
Li19 O19 2.080850 1_555
Li19 O14 2.094522 1_555
Li19 O42 2.118714 1_555
Li19 O35 2.148286 1_555
Li19 O34 2.162920 1_555
Li19 O15 2.264806 1_555
Li20 O22 2.064716 1_556
Li20 O31 2.069360 1_555
Li20 O45 2.095120 1_555
Li20 O2 2.172618 1_456
Li20 O16 2.174309 1_556
Li20 O46 2.248337 1_555
Li21 O25 2.094996 1_555
Li21 O15 2.104615 1_555
Li21 O47 2.108109 1_555
Li21 O43 2.108683 1_565
Li21 O42 2.129025 1_555
Li21 O26 2.135012 1_565
Li22 O41 2.063232 1_555
Li22 O3 2.073903 1_455
Li22 O18 2.118575 1_555
Li22 O29 2.151540 1_545
Li22 O44 2.207269 1_545
Li22 O30 2.215393 1_555
Li23 O40 2.027422 1_555
Li23 O29 2.033875 1_555
Li23 O6 2.161415 1_455
Li23 O24 2.175774 1_555
Li23 O44 2.198617 1_555
Li23 O17 2.207122 1_555
Li24 O1 2.097678 1_455
Li24 O28 2.100464 1_555
Li24 O16 2.112027 1_555
Li24 O8 2.112606 1_455
Li24 O2 2.120425 1_455
Li24 O27 2.129673 1_555
Li25 O30 2.057427 1_555
Li25 O23 2.076509 1_555
Li25 O40 2.123262 1_555
Li25 O7 2.164347 1_455
Li25 O24 2.206092 1_555
Li25 O41 2.269467 1_555
Li26 O4 2.063303 1_455
Li26 O9 2.077758 1_455
Li26 O36 2.100935 1_555
Li26 O27 2.163546 1_555
Li26 O8 2.180989 1_455
Li26 O37 2.238563 1_565
Li27 O0 2.055037 1_455
Li27 O46 2.070963 1_554
Li27 O26 2.126125 1_554
Li27 O21 2.137985 1_545
Li27 O47 2.177266 1_544
Li27 O22 2.197678 1_555
Li28 O6 2.089390 1_455
Li28 O35 2.094156 1_555
Li28 O24 2.099334 1_555
Li28 O14 2.109522 1_455
Li28 O7 2.117822 1_455
Li28 O34 2.123036 1_555
Li29 O5 2.045373 1_555
Li29 O36 2.048260 1_655
Li29 O12 2.144112 1_555
Li29 O8 2.191039 1_555
Li29 O33 2.206459 1_655
Li29 O28 2.251095 1_655
Li30 O10 2.061712 1_455
Li30 O15 2.076660 1_455
Li30 O42 2.094885 1_555
Li30 O34 2.122415 1_555
Li30 O14 2.213585 1_455
Li30 O43 2.251146 1_565
Li31 O42 2.029959 1_655
Li31 O11 2.034733 1_555
Li31 O39 2.193032 1_655
Li31 O14 2.197253 1_555
Li31 O19 2.201484 1_555
Li31 O35 2.213857 1_655
Cr0 O44 1.922266 1_655
Cr0 O9 1.935543 1_555
Cr0 O17 1.935596 1_555
Cr0 O36 1.936855 1_655
Cr0 O12 1.976372 1_555
Cr0 O40 1.983688 1_655
Cr1 O41 1.884519 1_655
Cr1 O13 1.889068 1_555
Cr1 O9 1.965807 1_545
Cr1 O44 1.967993 1_645
Cr1 O37 1.987620 1_655
Cr1 O18 1.993755 1_555
Cr2 O46 1.873195 1_655
Cr2 O20 1.899691 1_555
Cr2 O47 1.946674 1_645
Cr2 O43 1.977204 1_655
Cr2 O15 1.989476 1_545
Cr2 O26 2.000275 1_555
Cr3 O8 1.884963 1_555
Cr3 O1 1.888814 1_555
Cr3 O21 1.963660 1_555
Cr3 O16 1.985120 1_555
Cr3 O4 1.985798 1_555
Cr3 O27 1.987472 1_555
Cr4 O16 1.884762 1_555
Cr4 O28 1.888492 1_555
Cr4 O5 1.968593 1_555
Cr4 O2 1.976758 1_555
Cr4 O22 1.988063 1_555
Cr4 O8 1.990934 1_555
Cr5 O10 1.876183 1_555
Cr5 O29 1.899669 1_555
Cr5 O14 1.946239 1_555
Cr5 O6 1.978693 1_555
Cr5 O24 1.991802 1_555
Cr5 O34 1.992155 1_555
Cr6 O24 1.907361 1_555
Cr6 O35 1.923837 1_555
Cr6 O14 1.943412 1_555
Cr6 O7 1.947662 1_555
Cr6 O30 1.976169 1_555
Cr6 O11 1.984126 1_555
Cr7 O37 1.872924 1_555
Cr7 O18 1.895181 1_555
Cr7 O33 1.951482 1_555
Cr7 O41 1.981198 1_555
Cr7 O23 1.990476 1_555
Cr7 O13 1.996544 1_555
Cr8 O39 1.900277 1_555
Cr8 O45 1.921586 1_555
Cr8 O19 1.952816 1_555
Cr8 O25 1.962827 1_555
Cr8 O31 1.963775 1_555
Cr8 O42 1.995707 1_555
Cr9 O26 1.885674 1_555
Cr9 O43 1.896041 1_555
Cr9 O31 1.949344 1_555
Cr9 O39 1.984299 1_555
Cr9 O46 1.988709 1_555
Cr9 O20 1.993462 1_555
Cr10 O0 1.891787 1_465
Cr10 O4 1.896963 1_455
Cr10 O27 1.956066 1_555
Cr10 O1 1.978269 1_455
Cr10 O32 1.981975 1_565
Cr10 O21 1.991365 1_555
Cr11 O22 1.882773 1_555
Cr11 O32 1.889527 1_555
Cr11 O2 1.969391 1_455
Cr11 O5 1.982283 1_455
Cr11 O0 1.984944 1_455
Cr11 O28 1.991354 1_555
Cr12 O6 1.885388 1_455
Cr12 O34 1.892672 1_555
Cr12 O3 1.950439 1_465
Cr12 O38 1.978194 1_565
Cr12 O10 1.979451 1_455
Cr12 O29 1.992406 1_555
O3 Ti2 1.961396 1_655
O7 Ti2 2.003824 1_655
O11 Ti2 1.990767 1_655
O12 Ti1 1.962384 1_555
O15 Ti0 1.926933 1_555
O17 Ti1 1.994045 1_555
O19 Ti0 1.975248 1_555
O23 Ti1 1.933883 1_555
O25 Ti0 1.972421 1_555
O30 Ti2 1.951587 1_555
O33 Ti1 1.961267 1_555
O35 Ti2 1.996348 1_555
O36 Ti1 2.013225 1_555
O38 Ti2 1.940463 1_555
O40 Ti1 1.981141 1_555
O42 Ti0 1.970256 1_455
O45 Ti0 2.030629 1_455
O47 Ti0 1.971232 1_455
