# generated using pymatgen
data_FeOF
_symmetry_space_group_name_H-M   'P 1'
_cell_length_a   4.79209208
_cell_length_b   4.79209208
_cell_length_c   3.07439900
_cell_angle_alpha   90.00000000
_cell_angle_beta   90.00000000
_cell_angle_gamma   96.48593670
_symmetry_Int_Tables_number   1
_chemical_formula_structural   FeOF
_chemical_formula_sum   'Fe2 O2 F2'
_cell_volume   70.14907560
_cell_formula_units_Z   2
loop_
 _symmetry_equiv_pos_site_id
 _symmetry_equiv_pos_as_xyz
  1  'x, y, z'
loop_
 _atom_site_type_symbol
 _atom_site_label
 _atom_site_symmetry_multiplicity
 _atom_site_fract_x
 _atom_site_fract_y
 _atom_site_fract_z
 _atom_site_occupancy
  Fe  Fe0  1  0.00000000  0.00000000  0.00000000  1
  Fe  Fe1  1  0.50000000  0.50000000  0.50000000  1
  O  O0  1  0.30018000  0.30018000  0.00000000  1
  O  O1  1  0.69982000  0.69982000  0.00000000  1
  F  F0  1  0.19156600  0.80843400  0.50000000  1
  F  F1  1  0.80843400  0.19156600  0.50000000  1
loop_
_geom_bond_atom_site_label_1
_geom_bond_atom_site_label_2
_geom_bond_distance
_geom_bond_site_symmetry_2
Fe0 O1 1.915992 1_445
Fe0 O0 1.915992 1_555
Fe1 O0 1.997414 1_555
Fe1 O0 1.997414 1_556
Fe1 O1 1.997414 1_555
Fe1 O1 1.997414 1_556
F0 Fe0 2.058841 1_566
F0 Fe0 2.058841 1_565
F0 Fe1 2.205170 1_555
F1 Fe0 2.058841 1_656
F1 Fe0 2.058841 1_655
F1 Fe1 2.205170 1_555
