# generated using pymatgen
data_Na2VBPO7
_symmetry_space_group_name_H-M   'P 1'
_cell_length_a   6.39208518
_cell_length_b   11.03276946
_cell_length_c   10.48902989
_cell_angle_alpha   118.11077272
_cell_angle_beta   89.99947442
_cell_angle_gamma   89.97911229
_symmetry_Int_Tables_number   1
_chemical_formula_structural   Na2VBPO7
_chemical_formula_sum   'Na8 V4 B4 P4 O28'
_cell_volume   652.45388414
_cell_formula_units_Z   4
loop_
 _symmetry_equiv_pos_site_id
 _symmetry_equiv_pos_as_xyz
  1  'x, y, z'
loop_
 _atom_site_type_symbol
 _atom_site_label
 _atom_site_symmetry_multiplicity
 _atom_site_fract_x
 _atom_site_fract_y
 _atom_site_fract_z
 _atom_site_occupancy
  Na  Na0  1  0.99579100  0.22377100  0.21074700  1
  Na  Na1  1  0.99628400  0.72407900  0.21108800  1
  Na  Na2  1  0.50341700  0.22403400  0.21159500  1
  Na  Na3  1  0.50401200  0.72401800  0.21115000  1
  Na  Na4  1  0.49598600  0.77604100  0.78900200  1
  Na  Na5  1  0.49650600  0.27587500  0.78866900  1
  Na  Na6  1  0.00362700  0.77609800  0.78865100  1
  Na  Na7  1  0.00420800  0.27614700  0.78915000  1
  V  V0  1  0.74959300  0.05821000  0.33809300  1
  V  V1  1  0.24952200  0.94177000  0.66188400  1
  V  V2  1  0.75045700  0.55810900  0.33797900  1
  V  V3  1  0.24995300  0.44190300  0.66206500  1
  B  B0  1  0.75007200  0.40433400  0.08248000  1
  B  B1  1  0.74997000  0.90430600  0.08252800  1
  B  B2  1  0.25017100  0.59570900  0.91757400  1
  B  B3  1  0.25007400  0.09567500  0.91743700  1
  P  P0  1  0.25041800  0.58577300  0.44271400  1
  P  P1  1  0.24970400  0.08588400  0.44274800  1
  P  P2  1  0.74999900  0.41421900  0.55729800  1
  P  P3  1  0.74957500  0.91411000  0.55722000  1
  O  O0  1  0.25014600  0.18072700  0.05558800  1
  O  O1  1  0.25022700  0.68076200  0.05563600  1
  O  O2  1  0.75007800  0.81921200  0.94436700  1
  O  O3  1  0.75012300  0.31928200  0.94441100  1
  O  O4  1  0.75024400  0.55171500  0.15366500  1
  O  O5  1  0.74942300  0.05168300  0.15372700  1
  O  O6  1  0.25029200  0.44832400  0.84638500  1
  O  O7  1  0.24950700  0.94827000  0.84622200  1
  O  O8  1  0.74990900  0.37022000  0.19987100  1
  O  O9  1  0.75026000  0.87037000  0.20007600  1
  O  O10  1  0.25002300  0.62981400  0.80018000  1
  O  O11  1  0.25041400  0.12959200  0.79988300  1
  O  O12  1  0.75006300  0.27328100  0.42097300  1
  O  O13  1  0.75075700  0.77316300  0.42097100  1
  O  O14  1  0.24996700  0.72670800  0.57902300  1
  O  O15  1  0.25046100  0.22682000  0.57906300  1
  O  O16  1  0.25078900  0.46473200  0.47882300  1
  O  O17  1  0.24949600  0.96474100  0.47871800  1
  O  O18  1  0.74992200  0.53526800  0.52121600  1
  O  O19  1  0.74884000  0.03520600  0.52116400  1
  O  O20  1  0.05507300  0.57352600  0.34790000  1
  O  O21  1  0.05448000  0.07419600  0.34813800  1
  O  O22  1  0.44550200  0.57392600  0.34789500  1
  O  O23  1  0.44483400  0.07357700  0.34768000  1
  O  O24  1  0.55498000  0.42619600  0.65221400  1
  O  O25  1  0.55453700  0.92565600  0.65188300  1
  O  O26  1  0.94542200  0.42626600  0.65201100  1
  O  O27  1  0.94489300  0.92670200  0.65224700  1
loop_
_geom_bond_atom_site_label_1
_geom_bond_atom_site_label_2
_geom_bond_distance
_geom_bond_site_symmetry_2
Na0 O0 2.188300 1_655
Na0 O8 2.294713 1_555
Na0 O5 2.318308 1_555
Na0 O12 2.547959 1_555
Na0 O21 2.679805 1_655
Na1 O1 2.187916 1_655
Na1 O9 2.294612 1_555
Na1 O4 2.318471 1_555
Na1 O13 2.545330 1_555
Na1 O20 2.684258 1_655
Na2 O0 2.188775 1_555
Na2 O8 2.299484 1_555
Na2 O5 2.316689 1_555
Na2 O12 2.545627 1_555
Na2 O23 2.677020 1_555
Na3 O1 2.187955 1_555
Na3 O9 2.297136 1_555
Na3 O4 2.317804 1_555
Na3 O13 2.549779 1_555
Na3 O22 2.679166 1_555
Na4 O2 2.188531 1_555
Na4 O10 2.295301 1_555
Na4 O7 2.318659 1_555
Na4 O14 2.547775 1_555
Na4 O25 2.677869 1_555
Na5 O3 2.188476 1_555
Na5 O11 2.296460 1_555
Na5 O6 2.318544 1_555
Na5 O15 2.545484 1_555
Na5 O24 2.678820 1_555
Na6 O2 2.188130 1_455
Na6 O10 2.298259 1_555
Na6 O7 2.316103 1_555
Na6 O14 2.545841 1_555
Na6 O27 2.681164 1_455
Na7 O3 2.187571 1_455
Na7 O11 2.296410 1_555
Na7 O6 2.317473 1_555
Na7 O15 2.549307 1_555
Na7 O26 2.682923 1_455
B0 O3 1.302776 1_554
B0 O4 1.434346 1_555
B0 O8 1.447245 1_555
B1 O2 1.303612 1_554
B1 O5 1.434306 1_565
B1 O9 1.447552 1_555
B2 O1 1.302721 1_556
B2 O6 1.434383 1_555
B2 O10 1.447210 1_555
B3 O0 1.303440 1_556
B3 O7 1.434582 1_545
B3 O11 1.447476 1_555
O4 V2 1.901056 1_555
O5 V0 1.900952 1_555
O6 V3 1.900988 1_555
O7 V1 1.900790 1_555
O8 V2 1.888328 1_555
O9 V0 1.887690 1_565
O10 V3 1.888521 1_555
O11 V1 1.887505 1_545
O12 P2 1.538580 1_555
O12 V0 2.107653 1_555
O13 P3 1.538292 1_555
O13 V2 2.107338 1_555
O14 P0 1.538487 1_555
O14 V1 2.107581 1_555
O15 P1 1.538529 1_555
O15 V3 2.107623 1_555
O16 P0 1.550298 1_555
O16 V3 2.052769 1_555
O17 P1 1.550450 1_565
O17 V1 2.052853 1_555
O18 P2 1.550199 1_555
O18 V2 2.052787 1_555
O19 P3 1.550534 1_545
O19 V0 2.052074 1_555
O20 P0 1.562041 1_555
O20 V2 1.953112 1_455
O21 P1 1.561472 1_555
O21 V0 1.955254 1_455
O22 P0 1.561596 1_555
O22 V2 1.955423 1_555
O23 P1 1.562298 1_555
O23 V0 1.953824 1_555
O24 P2 1.561562 1_555
O24 V3 1.955797 1_555
O25 P3 1.561106 1_555
O25 V1 1.956026 1_555
O26 P2 1.562280 1_555
O26 V3 1.952740 1_655
O27 P3 1.562427 1_555
O27 V1 1.952922 1_655
