# generated using pymatgen
data_Li2Mn3NiO8
_symmetry_space_group_name_H-M   'P 1'
_cell_length_a   5.79735414
_cell_length_b   5.79735414
_cell_length_c   9.58291200
_cell_angle_alpha   90.00000000
_cell_angle_beta   90.00000000
_cell_angle_gamma   120.00000159
_symmetry_Int_Tables_number   1
_chemical_formula_structural   Li2Mn3NiO8
_chemical_formula_sum   'Li4 Mn6 Ni2 O16'
_cell_volume   278.92522117
_cell_formula_units_Z   2
loop_
 _symmetry_equiv_pos_site_id
 _symmetry_equiv_pos_as_xyz
  1  'x, y, z'
loop_
 _atom_site_type_symbol
 _atom_site_label
 _atom_site_symmetry_multiplicity
 _atom_site_fract_x
 _atom_site_fract_y
 _atom_site_fract_z
 _atom_site_occupancy
  Li  Li0  1  0.33333300  0.66666700  0.88585200  1
  Li  Li1  1  0.00000000  0.00000000  0.99888400  1
  Li  Li2  1  0.00000000  0.00000000  0.49888400  1
  Li  Li3  1  0.66666700  0.33333300  0.38585200  1
  Mn  Mn0  1  0.16868500  0.83131500  0.21520800  1
  Mn  Mn1  1  0.16868500  0.33736900  0.21520800  1
  Mn  Mn2  1  0.66263100  0.83131500  0.21520800  1
  Mn  Mn3  1  0.33736900  0.16868500  0.71520800  1
  Mn  Mn4  1  0.83131500  0.66263100  0.71520800  1
  Mn  Mn5  1  0.83131500  0.16868500  0.71520800  1
  Ni  Ni0  1  0.33333300  0.66666700  0.48925400  1
  Ni  Ni1  1  0.66666700  0.33333300  0.98925400  1
  O  O0  1  0.15848900  0.84151100  0.60706400  1
  O  O1  1  0.03509800  0.51754900  0.33072800  1
  O  O2  1  0.33333300  0.66666700  0.10884800  1
  O  O3  1  0.00000000  0.00000000  0.31209100  1
  O  O4  1  0.00000000  0.00000000  0.81209100  1
  O  O5  1  0.15848900  0.31697800  0.60706400  1
  O  O6  1  0.48245100  0.96490200  0.33072800  1
  O  O7  1  0.48245100  0.51754900  0.33072800  1
  O  O8  1  0.31697800  0.15848900  0.10706400  1
  O  O9  1  0.68302200  0.84151100  0.60706400  1
  O  O10  1  0.51754900  0.48245100  0.83072800  1
  O  O11  1  0.51754900  0.03509800  0.83072800  1
  O  O12  1  0.66666700  0.33333300  0.60884800  1
  O  O13  1  0.84151100  0.68302200  0.10706400  1
  O  O14  1  0.96490200  0.48245100  0.83072800  1
  O  O15  1  0.84151100  0.15848900  0.10706400  1
loop_
_geom_bond_atom_site_label_1
_geom_bond_atom_site_label_2
_geom_bond_distance
_geom_bond_site_symmetry_2
Li0 O11 1.923715 1_565
Li0 O14 1.923715 1_455
Li0 O10 1.923719 1_555
Li0 O2 2.136951 1_556
Li1 O4 1.790021 1_555
Li1 O13 1.899310 1_446
Li1 O8 1.899310 1_556
Li1 O15 1.899310 1_456
Li2 O3 1.790021 1_555
Li2 O9 1.899310 1_445
Li2 O5 1.899310 1_555
Li2 O0 1.899310 1_545
Li3 O1 1.923715 1_655
Li3 O6 1.923715 1_545
Li3 O7 1.923719 1_555
Li3 O12 2.136951 1_555
Mn0 O6 1.930112 1_555
Mn0 O1 1.930112 1_555
Mn0 O3 1.931577 1_565
Mn0 O2 1.942212 1_555
Mn0 O13 1.944242 1_455
Mn0 O8 1.944242 1_565
Mn1 O7 1.930113 1_555
Mn1 O1 1.930117 1_555
Mn1 O3 1.931572 1_555
Mn1 O2 1.942221 1_555
Mn1 O8 1.944238 1_555
Mn1 O15 1.944242 1_455
Mn2 O7 1.930113 1_555
Mn2 O6 1.930117 1_555
Mn2 O3 1.931572 1_665
Mn2 O2 1.942221 1_555
Mn2 O13 1.944238 1_555
Mn2 O15 1.944242 1_565
Mn3 O10 1.930113 1_555
Mn3 O11 1.930117 1_555
Mn3 O4 1.931572 1_555
Mn3 O12 1.942221 1_555
Mn3 O5 1.944238 1_555
Mn3 O0 1.944242 1_545
Mn4 O10 1.930113 1_555
Mn4 O14 1.930117 1_555
Mn4 O4 1.931572 1_665
Mn4 O12 1.942221 1_555
Mn4 O9 1.944238 1_555
Mn4 O0 1.944242 1_655
Mn5 O14 1.930112 1_555
Mn5 O11 1.930112 1_555
Mn5 O4 1.931577 1_655
Mn5 O12 1.942212 1_555
Mn5 O9 1.944242 1_545
Mn5 O5 1.944242 1_655
Ni0 O0 2.087321 1_555
Ni0 O9 2.087325 1_555
Ni0 O5 2.087325 1_555
Ni0 O6 2.133026 1_555
Ni0 O1 2.133026 1_555
Ni0 O7 2.133030 1_555
Ni1 O15 2.087321 1_556
Ni1 O13 2.087325 1_556
Ni1 O8 2.087325 1_556
Ni1 O14 2.133026 1_555
Ni1 O11 2.133026 1_555
Ni1 O10 2.133030 1_555
