# generated using pymatgen
data_Sb2H10(CF2)3
_symmetry_space_group_name_H-M   'P 1'
_cell_length_a   11.68612900
_cell_length_b   7.45442600
_cell_length_c   27.36941844
_cell_angle_alpha   75.76792733
_cell_angle_beta   90.00000000
_cell_angle_gamma   90.00000000
_symmetry_Int_Tables_number   1
_chemical_formula_structural   Sb2H10(CF2)3
_chemical_formula_sum   'Sb16 H80 C24 F48'
_cell_volume   2311.06519590
_cell_formula_units_Z   8
loop_
 _symmetry_equiv_pos_site_id
 _symmetry_equiv_pos_as_xyz
  1  'x, y, z'
loop_
 _atom_site_type_symbol
 _atom_site_label
 _atom_site_symmetry_multiplicity
 _atom_site_fract_x
 _atom_site_fract_y
 _atom_site_fract_z
 _atom_site_occupancy
  Sb  Sb0  1  0.65517800  0.17765200  0.57606600  1
  Sb  Sb1  1  0.84482200  0.17765200  0.07606600  1
  Sb  Sb2  1  0.34482200  0.82234800  0.42393400  1
  Sb  Sb3  1  0.15517800  0.82234800  0.92393400  1
  Sb  Sb4  1  0.36601400  0.51207300  0.16988000  1
  Sb  Sb5  1  0.13398600  0.51207300  0.66988000  1
  Sb  Sb6  1  0.63398600  0.48792700  0.83012000  1
  Sb  Sb7  1  0.86601400  0.48792700  0.33012000  1
  Sb  Sb8  1  0.86417100  0.01315900  0.73385400  1
  Sb  Sb9  1  0.63582900  0.01315900  0.23385400  1
  Sb  Sb10  1  0.13582900  0.98684100  0.26614600  1
  Sb  Sb11  1  0.36417100  0.98684100  0.76614600  1
  Sb  Sb12  1  0.23752800  0.21891600  0.53711100  1
  Sb  Sb13  1  0.26247200  0.21891600  0.03711100  1
  Sb  Sb14  1  0.76247200  0.78108400  0.46288900  1
  Sb  Sb15  1  0.73752800  0.78108400  0.96288900  1
  H  H0  1  0.59016300  0.27139400  0.52057000  1
  H  H1  1  0.90983700  0.27139400  0.02057000  1
  H  H2  1  0.40983700  0.72860600  0.47943000  1
  H  H3  1  0.09016300  0.72860600  0.97943000  1
  H  H4  1  0.36497900  0.29066700  0.16503600  1
  H  H5  1  0.13502100  0.29066700  0.66503600  1
  H  H6  1  0.63502100  0.70933300  0.83496400  1
  H  H7  1  0.86497900  0.70933300  0.33496400  1
  H  H8  1  0.52336000  0.89419300  0.57101100  1
  H  H9  1  0.97664000  0.89419300  0.07101100  1
  H  H10  1  0.47664000  0.10580700  0.42898900  1
  H  H11  1  0.02336000  0.10580700  0.92898900  1
  H  H12  1  0.54917600  0.89041500  0.63644200  1
  H  H13  1  0.95082400  0.89041500  0.13644200  1
  H  H14  1  0.45082400  0.10958500  0.36355800  1
  H  H15  1  0.04917600  0.10958500  0.86355800  1
  H  H16  1  0.65742000  0.80778300  0.59983600  1
  H  H17  1  0.84258000  0.80778300  0.09983600  1
  H  H18  1  0.34258000  0.19221700  0.40016400  1
  H  H19  1  0.15742000  0.19221700  0.90016400  1
  H  H20  1  0.55292100  0.45407000  0.60465600  1
  H  H21  1  0.94707900  0.45407000  0.10465600  1
  H  H22  1  0.44707900  0.54593000  0.39534400  1
  H  H23  1  0.05292100  0.54593000  0.89534400  1
  H  H24  1  0.68564400  0.39675100  0.63882600  1
  H  H25  1  0.81435600  0.39675100  0.13882600  1
  H  H26  1  0.31435600  0.60324900  0.36117400  1
  H  H27  1  0.18564400  0.60324900  0.86117400  1
  H  H28  1  0.56107400  0.25284300  0.65730300  1
  H  H29  1  0.93892600  0.25284300  0.15730300  1
  H  H30  1  0.43892600  0.74715700  0.34269700  1
  H  H31  1  0.06107400  0.74715700  0.84269700  1
  H  H32  1  0.87377400  0.16548900  0.60292200  1
  H  H33  1  0.62622600  0.16548900  0.10292200  1
  H  H34  1  0.12622600  0.83451100  0.39707800  1
  H  H35  1  0.37377400  0.83451100  0.89707800  1
  H  H36  1  0.86034000  0.30508800  0.53895700  1
  H  H37  1  0.63966000  0.30508800  0.03895700  1
  H  H38  1  0.13966000  0.69491200  0.46104300  1
  H  H39  1  0.36034000  0.69491200  0.96104300  1
  H  H40  1  0.85720700  0.05660700  0.55128800  1
  H  H41  1  0.64279300  0.05660700  0.05128800  1
  H  H42  1  0.14279300  0.94339300  0.44871200  1
  H  H43  1  0.35720700  0.94339300  0.94871200  1
  H  H44  1  0.42513800  0.65727800  0.24530000  1
  H  H45  1  0.07486200  0.65727800  0.74530000  1
  H  H46  1  0.57486200  0.34272200  0.75470000  1
  H  H47  1  0.92513800  0.34272200  0.25470000  1
  H  H48  1  0.31687000  0.48308600  0.26695800  1
  H  H49  1  0.18313000  0.48308600  0.76695800  1
  H  H50  1  0.68313000  0.51691400  0.73304200  1
  H  H51  1  0.81687000  0.51691400  0.23304200  1
  H  H52  1  0.46326000  0.41393600  0.26069700  1
  H  H53  1  0.03674000  0.41393600  0.76069700  1
  H  H54  1  0.53674000  0.58606400  0.73930300  1
  H  H55  1  0.96326000  0.58606400  0.23930300  1
  H  H56  1  0.20787600  0.77692100  0.14978300  1
  H  H57  1  0.29212400  0.77692100  0.64978300  1
  H  H58  1  0.79212400  0.22307900  0.85021700  1
  H  H59  1  0.70787600  0.22307900  0.35021700  1
  H  H60  1  0.19757400  0.63454200  0.10513900  1
  H  H61  1  0.30242600  0.63454200  0.60513900  1
  H  H62  1  0.80242600  0.36545800  0.89486100  1
  H  H63  1  0.69757400  0.36545800  0.39486100  1
  H  H64  1  0.14005400  0.55145900  0.16799200  1
  H  H65  1  0.35994600  0.55145900  0.66799200  1
  H  H66  1  0.85994600  0.44854100  0.83200800  1
  H  H67  1  0.64005400  0.44854100  0.33200800  1
  H  H68  1  0.57930300  0.57771600  0.13923700  1
  H  H69  1  0.92069700  0.57771600  0.63923700  1
  H  H70  1  0.42069700  0.42228400  0.86076300  1
  H  H71  1  0.07930300  0.42228400  0.36076300  1
  H  H72  1  0.48573700  0.63038300  0.08516100  1
  H  H73  1  0.01426300  0.63038300  0.58516100  1
  H  H74  1  0.51426300  0.36961700  0.91483900  1
  H  H75  1  0.98573700  0.36961700  0.41483900  1
  H  H76  1  0.50009000  0.79310500  0.12415200  1
  H  H77  1  0.99991000  0.79310500  0.62415200  1
  H  H78  1  0.49991000  0.20689500  0.87584800  1
  H  H79  1  0.00009000  0.20689500  0.37584800  1
  C  C0  1  0.58732700  0.90594800  0.59910200  1
  C  C1  1  0.91267300  0.90594800  0.09910200  1
  C  C2  1  0.41267300  0.09405200  0.40089800  1
  C  C3  1  0.08732700  0.09405200  0.90089800  1
  C  C4  1  0.60743500  0.34274900  0.62585900  1
  C  C5  1  0.89256500  0.34274900  0.12585900  1
  C  C6  1  0.39256500  0.65725100  0.37414100  1
  C  C7  1  0.10743500  0.65725100  0.87414100  1
  C  C8  1  0.83536900  0.17664400  0.56583300  1
  C  C9  1  0.66463100  0.17664400  0.06583300  1
  C  C10  1  0.16463100  0.82335600  0.43416700  1
  C  C11  1  0.33536900  0.82335600  0.93416700  1
  C  C12  1  0.39686900  0.51684200  0.24601000  1
  C  C13  1  0.10313100  0.51684200  0.74601000  1
  C  C14  1  0.60313100  0.48315800  0.75399000  1
  C  C15  1  0.89686900  0.48315800  0.25399000  1
  C  C16  1  0.20622200  0.63578700  0.14492600  1
  C  C17  1  0.29377800  0.63578700  0.64492600  1
  C  C18  1  0.79377800  0.36421300  0.85507400  1
  C  C19  1  0.70622200  0.36421300  0.35507400  1
  C  C20  1  0.50041900  0.64731800  0.12318700  1
  C  C21  1  0.99958100  0.64731800  0.62318700  1
  C  C22  1  0.49958100  0.35268200  0.87681300  1
  C  C23  1  0.00041900  0.35268200  0.37681300  1
  F  F0  1  0.84435600  0.75598500  0.76803900  1
  F  F1  1  0.65564400  0.75598500  0.26803900  1
  F  F2  1  0.15564400  0.24401500  0.23196100  1
  F  F3  1  0.34435600  0.24401500  0.73196100  1
  F  F4  1  0.75839600  0.98374600  0.68214400  1
  F  F5  1  0.74160400  0.98374600  0.18214400  1
  F  F6  1  0.24160400  0.01625400  0.31785600  1
  F  F7  1  0.25839600  0.01625400  0.81785600  1
  F  F8  1  0.97082000  0.04451300  0.78454000  1
  F  F9  1  0.52918000  0.04451300  0.28454000  1
  F  F10  1  0.02918000  0.95548700  0.21546000  1
  F  F11  1  0.47082000  0.95548700  0.71546000  1
  F  F12  1  0.88419600  0.27003300  0.69851200  1
  F  F13  1  0.61580400  0.27003300  0.19851200  1
  F  F14  1  0.11580400  0.72996700  0.30148800  1
  F  F15  1  0.38419600  0.72996700  0.80148800  1
  F  F16  1  0.74119500  0.08163800  0.77157100  1
  F  F17  1  0.75880500  0.08163800  0.27157100  1
  F  F18  1  0.25880500  0.91836200  0.22842900  1
  F  F19  1  0.24119500  0.91836200  0.72842900  1
  F  F20  1  0.98616800  0.94722100  0.69502300  1
  F  F21  1  0.51383200  0.94722100  0.19502300  1
  F  F22  1  0.01383200  0.05277900  0.30497700  1
  F  F23  1  0.48616800  0.05277900  0.80497700  1
  F  F24  1  0.30849900  0.00845700  0.51994600  1
  F  F25  1  0.19150100  0.00845700  0.01994600  1
  F  F26  1  0.69150100  0.99154300  0.48005400  1
  F  F27  1  0.80849900  0.99154300  0.98005400  1
  F  F28  1  0.17115700  0.43323000  0.55378800  1
  F  F29  1  0.32884300  0.43323000  0.05378800  1
  F  F30  1  0.82884300  0.56677000  0.44621200  1
  F  F31  1  0.67115700  0.56677000  0.94621200  1
  F  F32  1  0.16714700  0.06049800  0.59510400  1
  F  F33  1  0.33285300  0.06049800  0.09510400  1
  F  F34  1  0.83285300  0.93950200  0.40489600  1
  F  F35  1  0.66714700  0.93950200  0.90489600  1
  F  F36  1  0.10756500  0.19458700  0.49660600  1
  F  F37  1  0.39243500  0.19458700  0.99660600  1
  F  F38  1  0.89243500  0.80541300  0.50339400  1
  F  F39  1  0.60756500  0.80541300  0.00339400  1
  F  F40  1  0.30785700  0.38001700  0.47873800  1
  F  F41  1  0.19214300  0.38001700  0.97873800  1
  F  F42  1  0.69214300  0.61998300  0.52126200  1
  F  F43  1  0.80785700  0.61998300  0.02126200  1
  F  F44  1  0.37070500  0.24395200  0.57639300  1
  F  F45  1  0.12929500  0.24395200  0.07639300  1
  F  F46  1  0.62929500  0.75604800  0.42360700  1
  F  F47  1  0.87070500  0.75604800  0.92360700  1
loop_
_geom_bond_atom_site_label_1
_geom_bond_atom_site_label_2
_geom_bond_distance
_geom_bond_site_symmetry_2
H0 Sb0 1.688407 1_555
H1 Sb1 1.688407 1_555
H2 Sb2 1.688407 1_555
H3 Sb3 1.688407 1_555
H4 Sb4 1.687991 1_555
H5 Sb5 1.687991 1_555
H6 Sb6 1.687991 1_555
H7 Sb7 1.687991 1_555
C0 H8 1.091195 1_555
C0 H12 1.094726 1_555
C0 H16 1.095264 1_555
C0 Sb0 2.121454 1_565
C1 H9 1.091195 1_555
C1 H13 1.094726 1_555
C1 H17 1.095264 1_555
C1 Sb1 2.121454 1_565
C2 H10 1.091195 1_555
C2 H14 1.094726 1_555
C2 H18 1.095264 1_555
C2 Sb2 2.121454 1_545
C3 H11 1.091195 1_555
C3 H15 1.094726 1_555
C3 H19 1.095264 1_555
C3 Sb3 2.121454 1_545
C4 H24 1.092508 1_555
C4 H20 1.092907 1_555
C4 H28 1.095322 1_555
C4 Sb0 2.123167 1_555
C5 H25 1.092508 1_555
C5 H21 1.092907 1_555
C5 H29 1.095322 1_555
C5 Sb1 2.123167 1_555
C6 H26 1.092508 1_555
C6 H22 1.092907 1_555
C6 H30 1.095322 1_555
C6 Sb2 2.123167 1_555
C7 H27 1.092508 1_555
C7 H23 1.092907 1_555
C7 H31 1.095322 1_555
C7 Sb3 2.123167 1_555
C8 H36 1.093933 1_555
C8 H32 1.094200 1_555
C8 H40 1.095185 1_555
C8 Sb0 2.124536 1_555
C9 H37 1.093933 1_555
C9 H33 1.094200 1_555
C9 H41 1.095185 1_555
C9 Sb1 2.124536 1_555
C10 H38 1.093933 1_555
C10 H34 1.094200 1_555
C10 H42 1.095185 1_555
C10 Sb2 2.124536 1_555
C11 H39 1.093933 1_555
C11 H35 1.094200 1_555
C11 H43 1.095185 1_555
C11 Sb3 2.124536 1_555
C12 H48 1.093203 1_555
C12 H44 1.093364 1_555
C12 H52 1.095611 1_555
C12 Sb4 2.123495 1_555
C13 H49 1.093203 1_555
C13 H45 1.093364 1_555
C13 H53 1.095611 1_555
C13 Sb5 2.123495 1_555
C14 H50 1.093203 1_555
C14 H46 1.093364 1_555
C14 H54 1.095611 1_555
C14 Sb6 2.123495 1_555
C15 H51 1.093203 1_555
C15 H47 1.093364 1_555
C15 H55 1.095611 1_555
C15 Sb7 2.123495 1_555
C16 H56 1.092552 1_555
C16 H64 1.093839 1_555
C16 H60 1.095935 1_555
C16 Sb4 2.119962 1_555
C17 H57 1.092552 1_555
C17 H65 1.093839 1_555
C17 H61 1.095935 1_555
C17 Sb5 2.119962 1_555
C18 H58 1.092552 1_555
C18 H66 1.093839 1_555
C18 H62 1.095935 1_555
C18 Sb6 2.119962 1_555
C19 H59 1.092552 1_555
C19 H67 1.093839 1_555
C19 H63 1.095935 1_555
C19 Sb7 2.119962 1_555
C20 H72 1.092308 1_555
C20 H76 1.093558 1_555
C20 H68 1.095401 1_555
C20 Sb4 2.117334 1_555
C21 H73 1.092308 1_655
C21 H77 1.093558 1_555
C21 H69 1.095401 1_555
C21 Sb5 2.117334 1_655
C22 H74 1.092308 1_555
C22 H78 1.093558 1_555
C22 H70 1.095401 1_555
C22 Sb6 2.117334 1_555
C23 H75 1.092308 1_455
C23 H79 1.093558 1_555
C23 H71 1.095401 1_555
C23 Sb7 2.117334 1_455
F0 Sb8 1.929321 1_565
F1 Sb9 1.929321 1_565
F2 Sb10 1.929321 1_545
F3 Sb11 1.929321 1_545
F4 Sb8 1.931733 1_565
F5 Sb9 1.931733 1_565
F6 Sb10 1.931733 1_545
F7 Sb11 1.931733 1_545
F8 Sb8 1.921407 1_555
F9 Sb9 1.921407 1_555
F10 Sb10 1.921407 1_555
F11 Sb11 1.921407 1_555
F12 Sb8 1.935542 1_555
F13 Sb9 1.935542 1_555
F14 Sb10 1.935542 1_555
F15 Sb11 1.935542 1_555
F16 Sb8 1.910656 1_555
F17 Sb9 1.910656 1_555
F18 Sb10 1.910656 1_555
F19 Sb11 1.910656 1_555
F20 Sb8 1.913246 1_565
F21 Sb9 1.913246 1_565
F22 Sb10 1.913246 1_545
F23 Sb11 1.913246 1_545
F24 Sb12 1.931908 1_555
F25 Sb13 1.931908 1_555
F26 Sb14 1.931908 1_555
F27 Sb15 1.931908 1_555
F28 Sb12 1.928927 1_555
F29 Sb13 1.928927 1_555
F30 Sb14 1.928927 1_555
F31 Sb15 1.928927 1_555
F32 Sb12 1.915388 1_555
F33 Sb13 1.915388 1_555
F34 Sb14 1.915388 1_555
F35 Sb15 1.915388 1_555
F36 Sb12 1.915042 1_555
F37 Sb13 1.915042 1_556
F38 Sb14 1.915042 1_555
F39 Sb15 1.915042 1_554
F40 Sb12 1.930473 1_555
F41 Sb13 1.930473 1_556
F42 Sb14 1.930473 1_555
F43 Sb15 1.930473 1_554
F44 Sb12 1.926533 1_555
F45 Sb13 1.926533 1_555
F46 Sb14 1.926533 1_555
F47 Sb15 1.926533 1_555
