# generated using pymatgen
data_Li4Mn3Co3(SbO8)2
_symmetry_space_group_name_H-M   'P 1'
_cell_length_a   5.88204517
_cell_length_b   9.74550952
_cell_length_c   5.96095681
_cell_angle_alpha   91.67220092
_cell_angle_beta   119.54978409
_cell_angle_gamma   90.00611671
_symmetry_Int_Tables_number   1
_chemical_formula_structural   Li4Mn3Co3(SbO8)2
_chemical_formula_sum   'Li4 Mn3 Co3 Sb2 O16'
_cell_volume   297.08900340
_cell_formula_units_Z   1
loop_
 _symmetry_equiv_pos_site_id
 _symmetry_equiv_pos_as_xyz
  1  'x, y, z'
loop_
 _atom_site_type_symbol
 _atom_site_label
 _atom_site_symmetry_multiplicity
 _atom_site_fract_x
 _atom_site_fract_y
 _atom_site_fract_z
 _atom_site_occupancy
  Li  Li0  1  0.65923200  0.90275900  0.31838300  1
  Li  Li1  1  0.00477400  0.98939900  0.00949000  1
  Li  Li2  1  0.01030000  0.48886000  0.02057300  1
  Li  Li3  1  0.33337100  0.40430900  0.66682600  1
  Mn  Mn0  1  0.82985700  0.20803500  0.65976400  1
  Mn  Mn1  1  0.66399500  0.71319200  0.83390500  1
  Mn  Mn2  1  0.16994700  0.71318300  0.83391100  1
  Co  Co0  1  0.82997000  0.21801600  0.17110900  1
  Co  Co1  1  0.34095900  0.21803500  0.17098200  1
  Co  Co2  1  0.17231200  0.71549300  0.34458300  1
  Sb  Sb0  1  0.67035700  0.48855100  0.34076400  1
  Sb  Sb1  1  0.32586000  0.98534800  0.65161600  1
  O  O0  1  0.51766500  0.34833500  0.03510400  1
  O  O1  1  0.66454000  0.11285300  0.32888200  1
  O  O2  1  0.99733500  0.29850400  0.99481800  1
  O  O3  1  0.00614000  0.80035000  0.01223800  1
  O  O4  1  0.16597900  0.09690500  0.33191500  1
  O  O5  1  0.84347900  0.59151700  0.68702600  1
  O  O6  1  0.33085600  0.61769600  0.66168200  1
  O  O7  1  0.47639700  0.84605800  0.95267900  1
  O  O8  1  0.84707700  0.59494800  0.18449200  1
  O  O9  1  0.33742500  0.59496000  0.18442300  1
  O  O10  1  0.96562200  0.34850600  0.47853000  1
  O  O11  1  0.51251000  0.34851300  0.47820700  1
  O  O12  1  0.46609100  0.84341200  0.49255800  1
  O  O13  1  0.02655100  0.84341100  0.49265400  1
  O  O14  1  0.66757200  0.08832500  0.83133200  1
  O  O15  1  0.16412600  0.08836600  0.83155200  1
loop_
_geom_bond_atom_site_label_1
_geom_bond_atom_site_label_2
_geom_bond_distance
_geom_bond_site_symmetry_2
Li0 O7 1.957352 1_554
Li0 O12 1.975208 1_555
Li0 O13 1.975675 1_655
Li0 O1 2.046367 1_565
Li1 O3 1.842913 1_555
Li1 O4 1.943043 1_565
Li1 O14 1.993442 1_464
Li1 O15 1.993484 1_564
Li2 O2 1.855436 1_454
Li2 O8 1.952433 1_455
Li2 O9 1.952548 1_555
Li2 O5 2.027030 1_454
Li3 O11 1.950164 1_555
Li3 O10 1.950376 1_455
Li3 O0 2.003672 1_556
Li3 O6 2.080632 1_555
Mn0 O2 1.921753 1_555
Mn0 O1 1.922891 1_555
Mn0 O14 2.085784 1_555
Mn0 O15 2.087785 1_655
Mn0 O10 2.148470 1_555
Mn0 O11 2.150414 1_555
Mn1 O6 1.928588 1_555
Mn1 O3 1.933514 1_656
Mn1 O7 2.028035 1_555
Mn1 O5 2.034362 1_555
Mn1 O8 2.185405 1_556
Mn1 O12 2.218228 1_555
Mn2 O6 1.928381 1_555
Mn2 O3 1.933311 1_556
Mn2 O7 2.028429 1_555
Mn2 O5 2.034835 1_455
Mn2 O9 2.184937 1_556
Mn2 O13 2.217816 1_555
Co0 O2 1.938319 1_554
Co0 O1 1.959698 1_555
Co0 O10 2.008366 1_555
Co0 O0 2.058249 1_555
Co0 O4 2.101430 1_655
Co0 O14 2.134048 1_554
Co1 O2 1.938524 1_454
Co1 O1 1.961879 1_555
Co1 O11 2.007497 1_555
Co1 O0 2.058884 1_555
Co1 O4 2.100683 1_555
Co1 O15 2.132444 1_554
Co2 O6 1.928102 1_555
Co2 O3 1.936443 1_555
Co2 O12 1.936524 1_555
Co2 O13 1.936665 1_555
Co2 O9 2.020859 1_555
Co2 O8 2.020866 1_455
O0 Sb0 2.057671 1_555
O4 Sb1 2.012843 1_545
O5 Sb0 2.027294 1_555
O7 Sb1 2.102958 1_555
O8 Sb0 2.008642 1_555
O9 Sb0 2.008885 1_555
O10 Sb0 2.052453 1_555
O11 Sb0 2.052095 1_555
O12 Sb1 2.046408 1_555
O13 Sb1 2.046532 1_555
O14 Sb1 2.001924 1_545
O15 Sb1 2.001808 1_545
