# generated using pymatgen
data_Ni(IO3)2
_symmetry_space_group_name_H-M   'P 1'
_cell_length_a   10.87177200
_cell_length_b   6.66021500
_cell_length_c   8.60571129
_cell_angle_alpha   62.43739931
_cell_angle_beta   90.00000000
_cell_angle_gamma   90.00000000
_symmetry_Int_Tables_number   1
_chemical_formula_structural   Ni(IO3)2
_chemical_formula_sum   'Ni4 I8 O24'
_cell_volume   552.40415917
_cell_formula_units_Z   4
loop_
 _symmetry_equiv_pos_site_id
 _symmetry_equiv_pos_as_xyz
  1  'x, y, z'
loop_
 _atom_site_type_symbol
 _atom_site_label
 _atom_site_symmetry_multiplicity
 _atom_site_fract_x
 _atom_site_fract_y
 _atom_site_fract_z
 _atom_site_occupancy
  Ni  Ni0  1  0.90547200  0.10929800  0.08574900  1
  Ni  Ni1  1  0.40547200  0.89070200  0.41425100  1
  Ni  Ni2  1  0.59452800  0.10929800  0.58574900  1
  Ni  Ni3  1  0.09452800  0.89070200  0.91425100  1
  I  I0  1  0.20642000  0.36113800  0.92690100  1
  I  I1  1  0.70642000  0.63886200  0.57309900  1
  I  I2  1  0.08308200  0.76889900  0.47678000  1
  I  I3  1  0.58308200  0.23110100  0.02322000  1
  I  I4  1  0.41691800  0.76889900  0.97678000  1
  I  I5  1  0.91691800  0.23110100  0.52322000  1
  I  I6  1  0.29358000  0.36113800  0.42690100  1
  I  I7  1  0.79358000  0.63886200  0.07309900  1
  O  O0  1  0.07794400  0.14831500  0.98164100  1
  O  O1  1  0.89916700  0.39856100  0.64197600  1
  O  O2  1  0.60926300  0.40622900  0.59472500  1
  O  O3  1  0.21733900  0.44178700  0.69391000  1
  O  O4  1  0.71733900  0.55821300  0.80609000  1
  O  O5  1  0.71838700  0.04401700  0.11289200  1
  O  O6  1  0.45896800  0.03519100  0.15689400  1
  O  O7  1  0.10926300  0.59377100  0.90527500  1
  O  O8  1  0.95896800  0.96480900  0.34310600  1
  O  O9  1  0.21838700  0.95598300  0.38710800  1
  O  O10  1  0.39916700  0.60143900  0.85802400  1
  O  O11  1  0.57794400  0.85168500  0.51835900  1
  O  O12  1  0.42205600  0.14831500  0.48164100  1
  O  O13  1  0.60083300  0.39856100  0.14197600  1
  O  O14  1  0.78161300  0.04401700  0.61289200  1
  O  O15  1  0.04103200  0.03519100  0.65689400  1
  O  O16  1  0.89073700  0.40622900  0.09472500  1
  O  O17  1  0.54103200  0.96480900  0.84310600  1
  O  O18  1  0.28161300  0.95598300  0.88710800  1
  O  O19  1  0.28266100  0.44178700  0.19391000  1
  O  O20  1  0.78266100  0.55821300  0.30609000  1
  O  O21  1  0.39073700  0.59377100  0.40527500  1
  O  O22  1  0.10083300  0.60143900  0.35802400  1
  O  O23  1  0.92205600  0.85168500  0.01835900  1
loop_
_geom_bond_atom_site_label_1
_geom_bond_atom_site_label_2
_geom_bond_distance
_geom_bond_site_symmetry_2
Ni0 O16 2.020890 1_555
Ni0 O0 2.042220 1_654
Ni0 O8 2.048662 1_545
Ni0 O23 2.057547 1_545
Ni0 O5 2.070398 1_555
Ni1 O21 2.020890 1_555
Ni1 O11 2.042220 1_555
Ni1 O6 2.048662 1_565
Ni1 O12 2.057547 1_565
Ni1 O9 2.070398 1_555
Ni2 O2 2.020890 1_555
Ni2 O12 2.042220 1_555
Ni2 O17 2.048662 1_545
Ni2 O11 2.057547 1_545
Ni2 O14 2.070398 1_555
Ni3 O7 2.020890 1_555
Ni3 O23 2.042220 1_456
Ni3 O15 2.048662 1_565
Ni3 O0 2.057547 1_565
Ni3 O18 2.070398 1_555
I0 O7 1.812204 1_555
I0 O3 1.823777 1_555
I0 O0 1.887876 1_555
I0 O10 2.534958 1_555
I1 O2 1.812204 1_555
I1 O4 1.823777 1_555
I1 O11 1.887876 1_555
I1 O1 2.534958 1_555
I2 O22 1.838604 1_555
I2 O9 1.849887 1_555
I2 O8 1.859431 1_455
I3 O13 1.838604 1_555
I3 O5 1.849887 1_555
I3 O6 1.859431 1_555
I4 O10 1.838604 1_555
I4 O18 1.849887 1_555
I4 O17 1.859431 1_555
I5 O1 1.838604 1_555
I5 O14 1.849887 1_555
I5 O15 1.859431 1_655
I6 O21 1.812204 1_555
I6 O19 1.823777 1_555
I6 O12 1.887876 1_555
I6 O22 2.534958 1_555
I7 O16 1.812204 1_555
I7 O20 1.823777 1_555
I7 O23 1.887876 1_555
I7 O13 2.534958 1_555
