# generated using pymatgen
data_NaLi5Fe2P2(CO7)2
_symmetry_space_group_name_H-M   'P 1'
_cell_length_a   5.01866700
_cell_length_b   8.62378904
_cell_length_c   13.09003787
_cell_angle_alpha   90.49617333
_cell_angle_beta   90.00088854
_cell_angle_gamma   92.54065765
_symmetry_Int_Tables_number   1
_chemical_formula_structural   NaLi5Fe2P2(CO7)2
_chemical_formula_sum   'Na2 Li10 Fe4 P4 C4 O28'
_cell_volume   565.95770099
_cell_formula_units_Z   2
loop_
 _symmetry_equiv_pos_site_id
 _symmetry_equiv_pos_as_xyz
  1  'x, y, z'
loop_
 _atom_site_type_symbol
 _atom_site_label
 _atom_site_symmetry_multiplicity
 _atom_site_fract_x
 _atom_site_fract_y
 _atom_site_fract_z
 _atom_site_occupancy
  Na  Na0  1  0.75437600  0.91377000  0.37741100  1
  Na  Na1  1  0.24761800  0.74574700  0.99913200  1
  Li  Li0  1  0.75169000  0.91572200  0.86839200  1
  Li  Li1  1  0.23982100  0.72990300  0.75539800  1
  Li  Li2  1  0.23750300  0.73375800  0.49795500  1
  Li  Li3  1  0.22653800  0.72800300  0.26118300  1
  Li  Li4  1  0.76189500  0.26892000  0.74116200  1
  Li  Li5  1  0.77102100  0.26965200  0.51043200  1
  Li  Li6  1  0.77076200  0.26549000  0.24404500  1
  Li  Li7  1  0.75670800  0.26580100  0.00445100  1
  Li  Li8  1  0.25126700  0.09216000  0.12960500  1
  Li  Li9  1  0.24939400  0.08517400  0.62523700  1
  Fe  Fe0  1  0.78746800  0.65154300  0.62620200  1
  Fe  Fe1  1  0.77414500  0.64731900  0.12604500  1
  Fe  Fe2  1  0.21197500  0.34684500  0.87427100  1
  Fe  Fe3  1  0.22390100  0.34988800  0.37538700  1
  P  P0  1  0.70833000  0.58254400  0.37582100  1
  P  P1  1  0.70193700  0.59010500  0.87189600  1
  P  P2  1  0.29436200  0.40915100  0.62639300  1
  P  P3  1  0.29035200  0.40792400  0.12586300  1
  C  C0  1  0.72019800  0.95745600  0.62331600  1
  C  C1  1  0.73257300  0.95792300  0.12759500  1
  C  C2  1  0.26987900  0.04935700  0.37530500  1
  C  C3  1  0.28350900  0.04575700  0.86974100  1
  O  O0  1  0.33904200  0.90138700  0.85937600  1
  O  O1  1  0.28054200  0.89908700  0.37651100  1
  O  O2  1  0.97733600  0.91558400  0.12656300  1
  O  O3  1  0.96344500  0.91201500  0.62270300  1
  O  O4  1  0.53959700  0.85219900  0.13258400  1
  O  O5  1  0.52181800  0.85520900  0.62119700  1
  O  O6  1  0.77774600  0.69035300  0.96767700  1
  O  O7  1  0.81693600  0.68925100  0.78113600  1
  O  O8  1  0.81027100  0.67562800  0.47125600  1
  O  O9  1  0.81462300  0.67807100  0.28375600  1
  O  O10  1  0.39273500  0.57254700  0.86218500  1
  O  O11  1  0.39501000  0.57553900  0.37503700  1
  O  O12  1  0.19110400  0.57555200  0.62617300  1
  O  O13  1  0.18163300  0.57243100  0.13346300  1
  O  O14  1  0.81421000  0.42584700  0.87507600  1
  O  O15  1  0.80637200  0.41489100  0.37459300  1
  O  O16  1  0.60614000  0.42135800  0.62675400  1
  O  O17  1  0.60229200  0.42198100  0.12350100  1
  O  O18  1  0.19071500  0.31064300  0.71900400  1
  O  O19  1  0.19065500  0.31080300  0.53333500  1
  O  O20  1  0.19574000  0.30316800  0.21611500  1
  O  O21  1  0.18588900  0.31594700  0.02997800  1
  O  O22  1  0.47880800  0.15057800  0.87630800  1
  O  O23  1  0.48489700  0.13875400  0.37544900  1
  O  O24  1  0.03805600  0.08798200  0.87387900  1
  O  O25  1  0.04140100  0.11495300  0.37412900  1
  O  O26  1  0.67452400  0.10355600  0.12438200  1
  O  O27  1  0.67124000  0.10477400  0.62564500  1
loop_
_geom_bond_atom_site_label_1
_geom_bond_atom_site_label_2
_geom_bond_distance
_geom_bond_site_symmetry_2
Na0 O25 2.206048 1_665
Na0 O1 2.375796 1_555
Na0 O9 2.395255 1_555
Na0 O23 2.414051 1_565
Na0 O8 2.429018 1_555
Na0 O1 2.649308 1_655
Na1 O0 2.312302 1_555
Na1 O13 2.331788 1_556
Na1 O6 2.419755 1_455
Na1 O4 2.427861 1_556
Na1 O10 2.454597 1_555
Na1 O2 2.627072 1_456
Na1 O6 2.754178 1_555
Li0 O24 2.021463 1_665
Li0 O0 2.072452 1_555
Li0 O7 2.290030 1_555
Li0 O6 2.355796 1_555
Li0 O22 2.496116 1_565
Li1 O0 2.046288 1_555
Li1 O10 2.123564 1_555
Li1 O12 2.150603 1_555
Li1 O7 2.162580 1_455
Li1 O5 2.480726 1_555
Li2 O1 2.149089 1_555
Li2 O12 2.178094 1_555
Li2 O8 2.207354 1_455
Li2 O11 2.265632 1_555
Li2 O5 2.360867 1_555
Li3 O1 2.110743 1_555
Li3 O9 2.114146 1_455
Li3 O13 2.140136 1_555
Li3 O11 2.190259 1_555
Li3 O4 2.516236 1_555
Li4 O27 2.098363 1_555
Li4 O16 2.169601 1_555
Li4 O18 2.185937 1_655
Li4 O14 2.213722 1_555
Li4 O22 2.468274 1_555
Li5 O27 2.126270 1_555
Li5 O19 2.140782 1_655
Li5 O16 2.185482 1_555
Li5 O15 2.186530 1_555
Li5 O23 2.505988 1_555
Li5 O25 2.631323 1_655
Li6 O26 2.130570 1_555
Li6 O15 2.133923 1_555
Li6 O20 2.174585 1_655
Li6 O17 2.272440 1_555
Li6 O23 2.470848 1_555
Li6 O25 2.573760 1_655
Li7 O26 2.139924 1_555
Li7 O21 2.202934 1_655
Li7 O14 2.204869 1_554
Li7 O17 2.213446 1_555
Li7 O22 2.365241 1_554
Li8 O2 2.005918 1_445
Li8 O26 2.123231 1_555
Li8 O20 2.163464 1_555
Li8 O21 2.373307 1_555
Li8 O4 2.577712 1_545
Li9 O3 2.024751 1_445
Li9 O27 2.116362 1_555
Li9 O18 2.320214 1_555
Li9 O19 2.326272 1_555
Li9 O5 2.458369 1_545
Fe0 O8 2.043337 1_555
Fe0 O7 2.055500 1_555
Fe0 O16 2.146807 1_555
Fe0 O12 2.156540 1_655
Fe0 O5 2.253036 1_555
Fe0 O3 2.377742 1_555
Fe1 O9 2.087882 1_555
Fe1 O17 2.090824 1_555
Fe1 O6 2.109098 1_554
Fe1 O4 2.167126 1_555
Fe1 O13 2.174143 1_655
Fe1 O2 2.486485 1_555
Fe2 O18 2.055665 1_555
Fe2 O21 2.061253 1_556
Fe2 O10 2.117849 1_555
Fe2 O14 2.137696 1_455
Fe2 O22 2.204661 1_555
Fe2 O24 2.360604 1_555
Fe3 O11 2.091947 1_555
Fe3 O19 2.103161 1_555
Fe3 O20 2.123537 1_555
Fe3 O25 2.186060 1_555
Fe3 O15 2.193047 1_455
Fe3 O23 2.289629 1_555
C0 O3 1.298569 1_555
C0 O5 1.300475 1_555
C0 O27 1.304730 1_565
C1 O2 1.296959 1_555
C1 O4 1.302399 1_555
C1 O26 1.302804 1_565
C2 O23 1.298090 1_555
C2 O1 1.299601 1_545
C2 O25 1.301043 1_555
C3 O0 1.293827 1_545
C3 O24 1.300925 1_555
C3 O22 1.305871 1_555
O6 P1 1.554397 1_555
O7 P1 1.565080 1_555
O8 P0 1.553368 1_555
O9 P0 1.547199 1_555
O10 P1 1.557544 1_555
O11 P0 1.570960 1_555
O12 P2 1.547192 1_555
O13 P3 1.544805 1_555
O14 P1 1.548402 1_555
O15 P0 1.547701 1_555
O16 P2 1.563589 1_555
O17 P3 1.565169 1_555
O18 P2 1.562227 1_555
O19 P2 1.554676 1_555
O20 P3 1.554916 1_555
O21 P3 1.557320 1_555
