# generated using pymatgen
data_Li3Fe3O8
_symmetry_space_group_name_H-M   'P 1'
_cell_length_a   5.87904966
_cell_length_b   5.87904966
_cell_length_c   5.87904966
_cell_angle_alpha   121.91092340
_cell_angle_beta   118.71145500
_cell_angle_gamma   89.48438635
_symmetry_Int_Tables_number   1
_chemical_formula_structural   Li3Fe3O8
_chemical_formula_sum   'Li3 Fe3 O8'
_cell_volume   142.86028577
_cell_formula_units_Z   1
loop_
 _symmetry_equiv_pos_site_id
 _symmetry_equiv_pos_as_xyz
  1  'x, y, z'
loop_
 _atom_site_type_symbol
 _atom_site_label
 _atom_site_symmetry_multiplicity
 _atom_site_fract_x
 _atom_site_fract_y
 _atom_site_fract_z
 _atom_site_occupancy
  Li  Li0  1  0.25109300  0.00133700  0.75024400  1
  Li  Li1  1  0.25109300  0.50085000  0.24975600  1
  Li  Li2  1  0.64320700  0.14320700  0.50000000  1
  Fe  Fe0  1  0.73708500  0.49412500  0.24296000  1
  Fe  Fe1  1  0.85645400  0.85645400  0.00000000  1
  Fe  Fe2  1  0.25116500  0.49412500  0.75704000  1
  O  O0  1  0.00021600  0.26701300  0.26679700  1
  O  O1  1  0.00021600  0.73342000  0.73320300  1
  O  O2  1  0.52348500  0.28116200  0.24232300  1
  O  O3  1  0.47120300  0.72552200  0.74568100  1
  O  O4  1  0.03883900  0.28116200  0.75767700  1
  O  O5  1  0.97984100  0.72552200  0.25431900  1
  O  O6  1  0.49805300  0.27237200  0.77431900  1
  O  O7  1  0.49805300  0.72373400  0.22568100  1
loop_
_geom_bond_atom_site_label_1
_geom_bond_atom_site_label_2
_geom_bond_distance
_geom_bond_site_symmetry_2
Li0 O4 2.050575 1_555
Li0 O2 2.050575 1_556
Li0 O3 2.062574 1_545
Li0 O5 2.062574 1_445
Li0 O6 2.067074 1_555
Li0 O1 2.097467 1_545
Li1 O4 2.050574 1_554
Li1 O2 2.050579 1_555
Li1 O5 2.062571 1_455
Li1 O3 2.062575 1_555
Li1 O7 2.067070 1_555
Li1 O0 2.097475 1_555
Li2 O2 1.926733 1_555
Li2 O4 1.926733 1_655
Li2 O7 1.980333 1_545
Li2 O6 1.980333 1_555
Fe0 O2 1.778577 1_555
Fe0 O5 1.933724 1_555
Fe0 O6 1.944476 1_554
Fe0 O7 1.944476 1_555
Fe0 O1 2.036625 1_655
Fe0 O0 2.036625 1_655
Fe1 O5 1.875855 1_555
Fe1 O3 1.875855 1_554
Fe1 O0 1.939339 1_665
Fe1 O1 1.939339 1_654
Fe2 O4 1.778577 1_555
Fe2 O3 1.933724 1_555
Fe2 O7 1.944476 1_556
Fe2 O6 1.944476 1_555
Fe2 O0 2.036625 1_555
Fe2 O1 2.036629 1_555
