# generated using pymatgen
data_Rb3SbO3
_symmetry_space_group_name_H-M   'P 1'
_cell_length_a   6.92132200
_cell_length_b   9.23477900
_cell_length_c   11.23100169
_cell_angle_alpha   85.00982363
_cell_angle_beta   90.00000000
_cell_angle_gamma   90.00000000
_symmetry_Int_Tables_number   1
_chemical_formula_structural   Rb3SbO3
_chemical_formula_sum   'Rb12 Sb4 O12'
_cell_volume   715.12965499
_cell_formula_units_Z   4
loop_
 _symmetry_equiv_pos_site_id
 _symmetry_equiv_pos_as_xyz
  1  'x, y, z'
loop_
 _atom_site_type_symbol
 _atom_site_label
 _atom_site_symmetry_multiplicity
 _atom_site_fract_x
 _atom_site_fract_y
 _atom_site_fract_z
 _atom_site_occupancy
  Rb  Rb0  1  0.30522500  0.34119400  0.06580400  1
  Rb  Rb1  1  0.64261100  0.92176600  0.18586300  1
  Rb  Rb2  1  0.77508000  0.41807500  0.18779800  1
  Rb  Rb3  1  0.27508000  0.58192500  0.31220200  1
  Rb  Rb4  1  0.14261100  0.07823400  0.31413700  1
  Rb  Rb5  1  0.80522500  0.65880600  0.43419600  1
  Rb  Rb6  1  0.19477500  0.34119400  0.56580400  1
  Rb  Rb7  1  0.85738900  0.92176600  0.68586300  1
  Rb  Rb8  1  0.72492000  0.41807500  0.68779800  1
  Rb  Rb9  1  0.22492000  0.58192500  0.81220200  1
  Rb  Rb10  1  0.35738900  0.07823400  0.81413700  1
  Rb  Rb11  1  0.69477500  0.65880600  0.93419600  1
  Sb  Sb0  1  0.14899600  0.81382200  0.06081300  1
  Sb  Sb1  1  0.64899600  0.18617800  0.43918700  1
  Sb  Sb2  1  0.35100400  0.81382200  0.56081300  1
  Sb  Sb3  1  0.85100400  0.18617800  0.93918700  1
  O  O0  1  0.34530700  0.65780400  0.05717400  1
  O  O1  1  0.95693700  0.18214700  0.10273200  1
  O  O2  1  0.94281300  0.71144900  0.15909900  1
  O  O3  1  0.44281300  0.28855100  0.34090100  1
  O  O4  1  0.45693700  0.81785300  0.39726800  1
  O  O5  1  0.84530700  0.34219600  0.44282600  1
  O  O6  1  0.15469300  0.65780400  0.55717400  1
  O  O7  1  0.54306300  0.18214700  0.60273200  1
  O  O8  1  0.55718700  0.71144900  0.65909900  1
  O  O9  1  0.05718700  0.28855100  0.84090100  1
  O  O10  1  0.04306300  0.81785300  0.89726800  1
  O  O11  1  0.65469300  0.34219600  0.94282600  1
loop_
_geom_bond_atom_site_label_1
_geom_bond_atom_site_label_2
_geom_bond_distance
_geom_bond_site_symmetry_2
O0 Sb0 1.983418 1_555
O0 Rb11 2.784956 1_554
O0 Rb3 2.929482 1_555
O0 Rb0 2.930153 1_555
O0 Rb9 3.015003 1_554
O1 Sb3 1.975046 1_554
O1 Rb2 2.757914 1_555
O1 Rb4 2.795218 1_655
O1 Rb0 2.834494 1_655
O1 Rb1 3.316032 1_545
O2 Sb0 1.991783 1_655
O2 Rb1 2.877744 1_555
O2 Rb2 2.939344 1_555
O2 Rb3 3.052594 1_655
O2 Rb11 3.126867 1_554
O2 Rb5 3.229181 1_555
O3 Sb1 1.991783 1_555
O3 Rb4 2.877744 1_555
O3 Rb3 2.939344 1_555
O3 Rb2 3.052594 1_555
O3 Rb6 3.126867 1_555
O3 Rb0 3.229181 1_555
O4 Sb2 1.975046 1_555
O4 Rb3 2.757914 1_555
O4 Rb1 2.795218 1_555
O4 Rb5 2.834494 1_555
O4 Rb4 3.316032 1_565
O5 Sb1 1.983418 1_555
O5 Rb6 2.784956 1_655
O5 Rb2 2.929482 1_555
O5 Rb5 2.930153 1_555
O5 Rb8 3.015003 1_555
O6 Sb2 1.983418 1_555
O6 Rb5 2.784956 1_455
O6 Rb9 2.929482 1_555
O6 Rb6 2.930153 1_555
O6 Rb3 3.015003 1_555
O7 Sb1 1.975046 1_555
O7 Rb8 2.757914 1_555
O7 Rb10 2.795218 1_555
O7 Rb6 2.834494 1_555
O7 Rb7 3.316032 1_545
O8 Sb2 1.991783 1_555
O8 Rb7 2.877744 1_555
O8 Rb8 2.939344 1_555
O8 Rb9 3.052594 1_555
O8 Rb5 3.126867 1_555
O8 Rb11 3.229181 1_555
O9 Sb3 1.991783 1_455
O9 Rb10 2.877744 1_555
O9 Rb9 2.939344 1_555
O9 Rb8 3.052594 1_455
O9 Rb0 3.126867 1_556
O9 Rb6 3.229181 1_555
O10 Sb0 1.975046 1_556
O10 Rb9 2.757914 1_555
O10 Rb7 2.795218 1_455
O10 Rb11 2.834494 1_455
O10 Rb10 3.316032 1_565
O11 Sb3 1.983418 1_555
O11 Rb0 2.784956 1_556
O11 Rb8 2.929482 1_555
O11 Rb11 2.930153 1_555
O11 Rb2 3.015003 1_556
