# generated using pymatgen
data_Ti17(NO4)6
_symmetry_space_group_name_H-M   'P 1'
_cell_length_a   9.67277200
_cell_length_b   10.74096200
_cell_length_c   12.62022386
_cell_angle_alpha   58.13189893
_cell_angle_beta   90.00000000
_cell_angle_gamma   90.00000000
_symmetry_Int_Tables_number   1
_chemical_formula_structural   Ti17(NO4)6
_chemical_formula_sum   'Ti34 N12 O48'
_cell_volume   1113.53739017
_cell_formula_units_Z   2
loop_
 _symmetry_equiv_pos_site_id
 _symmetry_equiv_pos_as_xyz
  1  'x, y, z'
loop_
 _atom_site_type_symbol
 _atom_site_label
 _atom_site_symmetry_multiplicity
 _atom_site_fract_x
 _atom_site_fract_y
 _atom_site_fract_z
 _atom_site_occupancy
  Ti  Ti0  1  0.85611000  0.72281700  0.85467700  1
  Ti  Ti1  1  0.85914400  0.95283200  0.97012600  1
  Ti  Ti2  1  0.19646800  0.83463100  0.91711400  1
  Ti  Ti3  1  0.35982600  0.55020600  0.02442900  1
  Ti  Ti4  1  0.30203000  0.33429100  0.91559600  1
  Ti  Ti5  1  0.64017400  0.44979400  0.97557100  1
  Ti  Ti6  1  0.63741900  0.20416300  0.85307800  1
  Ti  Ti7  1  0.36258100  0.79583700  0.14692200  1
  Ti  Ti8  1  0.69797000  0.66570900  0.08440400  1
  Ti  Ti9  1  0.14389000  0.27718300  0.14532300  1
  Ti  Ti10  1  0.14085600  0.04716800  0.02987400  1
  Ti  Ti11  1  0.19756800  0.50000000  0.25000000  1
  Ti  Ti12  1  0.80353200  0.16536900  0.08288600  1
  Ti  Ti13  1  0.86424600  0.37928800  0.18994000  1
  Ti  Ti14  1  0.86424600  0.62071200  0.31006000  1
  Ti  Ti15  1  0.63689400  0.11985000  0.30977200  1
  Ti  Ti16  1  0.63689400  0.88015000  0.19022800  1
  Ti  Ti17  1  0.69797000  0.33429100  0.41559600  1
  Ti  Ti18  1  0.35982600  0.44979400  0.47557100  1
  Ti  Ti19  1  0.36258100  0.20416300  0.35307800  1
  Ti  Ti20  1  0.14389000  0.72281700  0.35467700  1
  Ti  Ti21  1  0.14085600  0.95283200  0.47012600  1
  Ti  Ti22  1  0.80353200  0.83463100  0.41711400  1
  Ti  Ti23  1  0.85914400  0.04716800  0.52987400  1
  Ti  Ti24  1  0.85611000  0.27718300  0.64532300  1
  Ti  Ti25  1  0.19646800  0.16536900  0.58288600  1
  Ti  Ti26  1  0.30203000  0.66570900  0.58440400  1
  Ti  Ti27  1  0.36310600  0.11985000  0.80977200  1
  Ti  Ti28  1  0.63741900  0.79583700  0.64692200  1
  Ti  Ti29  1  0.64017400  0.55020600  0.52442900  1
  Ti  Ti30  1  0.36310600  0.88015000  0.69022800  1
  Ti  Ti31  1  0.80243200  0.50000000  0.75000000  1
  Ti  Ti32  1  0.13575400  0.62071200  0.81006000  1
  Ti  Ti33  1  0.13575400  0.37928800  0.68994000  1
  N  N0  1  0.77905600  0.82163700  0.92821200  1
  N  N1  1  0.26911700  0.66657100  0.08397600  1
  N  N2  1  0.73088300  0.33342900  0.91602400  1
  N  N3  1  0.22094400  0.17836300  0.07178800  1
  N  N4  1  0.77274200  0.50000000  0.25000000  1
  N  N5  1  0.73285800  0.00000000  0.25000000  1
  N  N6  1  0.26911700  0.33342900  0.41602400  1
  N  N7  1  0.22094400  0.82163700  0.42821200  1
  N  N8  1  0.77905600  0.17836300  0.57178800  1
  N  N9  1  0.26714200  0.00000000  0.75000000  1
  N  N10  1  0.73088300  0.66657100  0.58397600  1
  N  N11  1  0.22725800  0.50000000  0.75000000  1
  O  O0  1  0.04776200  0.92316900  0.95639400  1
  O  O1  1  0.31058100  0.95807300  0.97914800  1
  O  O2  1  0.04819200  0.74535700  0.87217100  1
  O  O3  1  0.31124000  0.71039100  0.85570800  1
  O  O4  1  0.19010800  0.45964800  0.97753100  1
  O  O5  1  0.45114000  0.24834100  0.87420400  1
  O  O6  1  0.54886000  0.75165900  0.12579600  1
  O  O7  1  0.18699800  0.21227900  0.85348000  1
  O  O8  1  0.45254300  0.42158400  0.96040400  1
  O  O9  1  0.54745700  0.57841600  0.03959600  1
  O  O10  1  0.81300200  0.78772100  0.14652000  1
  O  O11  1  0.80989200  0.54035200  0.02246900  1
  O  O12  1  0.31088300  0.62461100  0.31238700  1
  O  O13  1  0.95180800  0.25464300  0.12782900  1
  O  O14  1  0.04774000  0.58313000  0.29617100  1
  O  O15  1  0.04774000  0.41687000  0.20382900  1
  O  O16  1  0.31088300  0.37538900  0.18761300  1
  O  O17  1  0.68876000  0.28960900  0.14429200  1
  O  O18  1  0.68941900  0.04192700  0.02085200  1
  O  O19  1  0.95223800  0.07683100  0.04360600  1
  O  O20  1  0.80989200  0.45964800  0.47753100  1
  O  O21  1  0.17662100  0.13316300  0.31662000  1
  O  O22  1  0.45674300  0.90600200  0.20289600  1
  O  O23  1  0.17662100  0.86683700  0.18338000  1
  O  O24  1  0.45674300  0.09399800  0.29710400  1
  O  O25  1  0.54745700  0.42158400  0.46040400  1
  O  O26  1  0.54886000  0.24834100  0.37420400  1
  O  O27  1  0.81300200  0.21227900  0.35348000  1
  O  O28  1  0.04819200  0.25464300  0.62782900  1
  O  O29  1  0.68941900  0.95807300  0.47914800  1
  O  O30  1  0.68876000  0.71039100  0.35570800  1
  O  O31  1  0.95223800  0.92316900  0.45639400  1
  O  O32  1  0.95180800  0.74535700  0.37217100  1
  O  O33  1  0.04776200  0.07683100  0.54360600  1
  O  O34  1  0.31124000  0.28960900  0.64429200  1
  O  O35  1  0.31058100  0.04192700  0.52085200  1
  O  O36  1  0.18699800  0.78772100  0.64652000  1
  O  O37  1  0.45254300  0.57841600  0.53959600  1
  O  O38  1  0.54325700  0.09399800  0.79710400  1
  O  O39  1  0.82337900  0.86683700  0.68338000  1
  O  O40  1  0.82337900  0.13316300  0.81662000  1
  O  O41  1  0.19010800  0.54035200  0.52246900  1
  O  O42  1  0.45114000  0.75165900  0.62579600  1
  O  O43  1  0.54325700  0.90600200  0.70289600  1
  O  O44  1  0.68911700  0.37538900  0.68761300  1
  O  O45  1  0.95226000  0.58313000  0.79617100  1
  O  O46  1  0.68911700  0.62461100  0.81238700  1
  O  O47  1  0.95226000  0.41687000  0.70382900  1
loop_
_geom_bond_atom_site_label_1
_geom_bond_atom_site_label_2
_geom_bond_distance
_geom_bond_site_symmetry_2
N0 Ti0 1.893010 1_555
N0 Ti1 1.911214 1_555
N0 Ti8 1.954408 1_556
N1 Ti3 1.971948 1_555
N1 Ti11 2.027736 1_555
N1 Ti2 2.042774 1_554
N1 Ti7 2.130916 1_555
N2 Ti5 1.971948 1_555
N2 Ti31 2.027736 1_555
N2 Ti12 2.042774 1_556
N2 Ti6 2.130916 1_555
N3 Ti9 1.893010 1_555
N3 Ti10 1.911214 1_555
N3 Ti4 1.954408 1_554
N4 Ti13 2.019088 1_555
N4 Ti14 2.019088 1_555
N4 Ti17 2.032443 1_555
N4 Ti8 2.032443 1_555
N5 Ti15 2.028096 1_555
N5 Ti16 2.028096 1_545
N5 Ti22 2.028457 1_545
N5 Ti12 2.028457 1_555
N6 Ti18 1.971948 1_555
N6 Ti11 2.027736 1_555
N6 Ti25 2.042774 1_555
N6 Ti19 2.130916 1_555
N7 Ti20 1.893010 1_555
N7 Ti21 1.911214 1_555
N7 Ti26 1.954408 1_555
N8 Ti24 1.893010 1_555
N8 Ti23 1.911214 1_555
N8 Ti17 1.954408 1_555
N9 Ti30 2.028096 1_545
N9 Ti27 2.028096 1_555
N9 Ti2 2.028457 1_545
N9 Ti25 2.028457 1_555
N10 Ti29 1.971948 1_555
N10 Ti31 2.027736 1_555
N10 Ti22 2.042774 1_555
N10 Ti28 2.130916 1_555
N11 Ti33 2.019088 1_555
N11 Ti32 2.019088 1_555
N11 Ti4 2.032443 1_555
N11 Ti26 2.032443 1_555
O0 Ti1 1.875766 1_455
O0 Ti2 1.927925 1_555
O0 Ti10 2.179185 1_566
O1 Ti7 1.968936 1_556
O1 Ti27 1.981069 1_565
O1 Ti10 2.160489 1_566
O1 Ti2 2.164555 1_555
O2 Ti0 1.901534 1_455
O2 Ti2 1.967869 1_555
O2 Ti32 2.057259 1_555
O3 Ti3 1.961270 1_556
O3 Ti30 1.979109 1_555
O3 Ti2 2.169282 1_555
O3 Ti32 2.174153 1_555
O4 Ti32 1.968596 1_555
O4 Ti9 2.035372 1_556
O4 Ti3 2.144597 1_556
O4 Ti4 2.169609 1_555
O5 Ti6 1.917405 1_555
O5 Ti4 1.927335 1_555
O5 Ti27 2.115666 1_555
O6 Ti7 1.917405 1_555
O6 Ti8 1.927335 1_555
O6 Ti16 2.115666 1_555
O7 Ti33 1.952915 1_555
O7 Ti10 2.032546 1_556
O7 Ti4 2.157514 1_555
O7 Ti27 2.184004 1_555
O8 Ti5 1.866439 1_555
O8 Ti4 1.969348 1_555
O8 Ti3 2.131786 1_556
O9 Ti3 1.866439 1_555
O9 Ti8 1.969348 1_555
O9 Ti5 2.131786 1_554
O10 Ti14 1.952915 1_555
O10 Ti1 2.032546 1_554
O10 Ti8 2.157514 1_555
O10 Ti16 2.184004 1_555
O11 Ti13 1.968596 1_555
O11 Ti0 2.035372 1_554
O11 Ti5 2.144597 1_554
O11 Ti8 2.169609 1_555
O12 Ti18 1.976824 1_555
O12 Ti7 1.984385 1_555
O12 Ti20 2.145020 1_555
O12 Ti11 2.173809 1_555
O13 Ti9 1.901534 1_655
O13 Ti12 1.967869 1_555
O13 Ti13 2.057259 1_555
O14 Ti14 1.848956 1_455
O14 Ti11 1.945893 1_555
O14 Ti20 2.197962 1_555
O15 Ti13 1.848956 1_455
O15 Ti11 1.945893 1_555
O15 Ti9 2.197962 1_555
O16 Ti3 1.976824 1_555
O16 Ti19 1.984385 1_555
O16 Ti9 2.145020 1_555
O16 Ti11 2.173809 1_555
O17 Ti5 1.961270 1_554
O17 Ti15 1.979109 1_555
O17 Ti12 2.169282 1_555
O17 Ti13 2.174153 1_555
O18 Ti6 1.968936 1_554
O18 Ti16 1.981069 1_545
O18 Ti1 2.160489 1_544
O18 Ti12 2.164555 1_555
O19 Ti10 1.875766 1_655
O19 Ti12 1.927925 1_555
O19 Ti1 2.179185 1_544
O20 Ti14 1.968596 1_555
O20 Ti24 2.035372 1_555
O20 Ti29 2.144597 1_555
O20 Ti17 2.169609 1_555
O21 Ti9 1.906676 1_555
O21 Ti21 1.913682 1_545
O21 Ti19 2.097445 1_555
O22 Ti16 1.784952 1_555
O22 Ti7 1.900355 1_555
O23 Ti20 1.906676 1_555
O23 Ti10 1.913682 1_565
O23 Ti7 2.097445 1_555
O24 Ti15 1.784952 1_555
O24 Ti19 1.900355 1_555
O25 Ti18 1.866439 1_555
O25 Ti17 1.969348 1_555
O25 Ti29 2.131786 1_555
O26 Ti19 1.917405 1_555
O26 Ti17 1.927335 1_555
O26 Ti15 2.115666 1_555
O27 Ti13 1.952915 1_555
O27 Ti23 2.032546 1_555
O27 Ti17 2.157514 1_555
O27 Ti15 2.184004 1_555
O28 Ti24 1.901534 1_455
O28 Ti25 1.967869 1_555
O28 Ti33 2.057259 1_555
O29 Ti28 1.968936 1_555
O29 Ti15 1.981069 1_565
O29 Ti23 2.160489 1_565
O29 Ti22 2.164555 1_555
O30 Ti29 1.961270 1_555
O30 Ti16 1.979109 1_555
O30 Ti22 2.169282 1_555
O30 Ti14 2.174153 1_555
O31 Ti21 1.875766 1_655
O31 Ti22 1.927925 1_555
O31 Ti23 2.179185 1_565
O32 Ti20 1.901534 1_655
O32 Ti22 1.967869 1_555
O32 Ti14 2.057259 1_555
O33 Ti23 1.875766 1_455
O33 Ti25 1.927925 1_555
O33 Ti21 2.179185 1_545
O34 Ti18 1.961270 1_555
O34 Ti27 1.979109 1_555
O34 Ti25 2.169282 1_555
O34 Ti33 2.174153 1_555
O35 Ti19 1.968936 1_555
O35 Ti30 1.981069 1_545
O35 Ti21 2.160489 1_545
O35 Ti25 2.164555 1_555
O36 Ti32 1.952915 1_555
O36 Ti21 2.032546 1_555
O36 Ti26 2.157514 1_555
O36 Ti30 2.184004 1_555
O37 Ti29 1.866439 1_555
O37 Ti26 1.969348 1_555
O37 Ti18 2.131786 1_555
O38 Ti27 1.784952 1_555
O38 Ti6 1.900355 1_555
O39 Ti0 1.906676 1_555
O39 Ti23 1.913682 1_565
O39 Ti28 2.097445 1_555
O40 Ti24 1.906676 1_555
O40 Ti1 1.913682 1_545
O40 Ti6 2.097445 1_555
O41 Ti33 1.968596 1_555
O41 Ti20 2.035372 1_555
O41 Ti18 2.144597 1_555
O41 Ti26 2.169609 1_555
O42 Ti28 1.917405 1_555
O42 Ti26 1.927335 1_555
O42 Ti30 2.115666 1_555
O43 Ti30 1.784952 1_555
O43 Ti28 1.900355 1_555
O44 Ti29 1.976824 1_555
O44 Ti6 1.984385 1_555
O44 Ti24 2.145020 1_555
O44 Ti31 2.173809 1_555
O45 Ti32 1.848956 1_655
O45 Ti31 1.945893 1_555
O45 Ti0 2.197962 1_555
O46 Ti5 1.976824 1_555
O46 Ti28 1.984385 1_555
O46 Ti0 2.145020 1_555
O46 Ti31 2.173809 1_555
O47 Ti33 1.848956 1_655
O47 Ti31 1.945893 1_555
O47 Ti24 2.197962 1_555
