# generated using pymatgen
data_Nd2V2O7
_symmetry_space_group_name_H-M   'P 1'
_cell_length_a   7.31281772
_cell_length_b   7.31281772
_cell_length_c   7.31281772
_cell_angle_alpha   60.00000000
_cell_angle_beta   60.00000000
_cell_angle_gamma   60.00000000
_symmetry_Int_Tables_number   1
_chemical_formula_structural   Nd2V2O7
_chemical_formula_sum   'Nd4 V4 O14'
_cell_volume   276.52808570
_cell_formula_units_Z   2
loop_
 _symmetry_equiv_pos_site_id
 _symmetry_equiv_pos_as_xyz
  1  'x, y, z'
loop_
 _atom_site_type_symbol
 _atom_site_label
 _atom_site_symmetry_multiplicity
 _atom_site_fract_x
 _atom_site_fract_y
 _atom_site_fract_z
 _atom_site_occupancy
  Nd  Nd0  1  0.62500000  0.62500000  0.12500000  1
  Nd  Nd1  1  0.62500000  0.62500000  0.62500000  1
  Nd  Nd2  1  0.62500000  0.12500000  0.62500000  1
  Nd  Nd3  1  0.12500000  0.62500000  0.62500000  1
  V  V0  1  0.12500000  0.12500000  0.12500000  1
  V  V1  1  0.62500000  0.12500000  0.12500000  1
  V  V2  1  0.12500000  0.62500000  0.12500000  1
  V  V3  1  0.12500000  0.12500000  0.62500000  1
  O  O0  1  0.04820000  0.45180000  0.45180000  1
  O  O1  1  0.79820000  0.79820000  0.20180000  1
  O  O2  1  0.79820000  0.20180000  0.20180000  1
  O  O3  1  0.45180000  0.04820000  0.45180000  1
  O  O4  1  0.04820000  0.45180000  0.04820000  1
  O  O5  1  0.75000000  0.75000000  0.75000000  1
  O  O6  1  0.04820000  0.04820000  0.45180000  1
  O  O7  1  0.20180000  0.79820000  0.20180000  1
  O  O8  1  0.20180000  0.20180000  0.79820000  1
  O  O9  1  0.50000000  0.50000000  0.50000000  1
  O  O10  1  0.79820000  0.20180000  0.79820000  1
  O  O11  1  0.45180000  0.04820000  0.04820000  1
  O  O12  1  0.45180000  0.45180000  0.04820000  1
  O  O13  1  0.20180000  0.79820000  0.79820000  1
loop_
_geom_bond_atom_site_label_1
_geom_bond_atom_site_label_2
_geom_bond_distance
_geom_bond_site_symmetry_2
Nd0 O9 2.239084 1_555
Nd0 O5 2.239084 1_554
Nd0 O1 2.559449 1_555
Nd0 O4 2.559449 1_655
Nd0 O2 2.559449 1_555
Nd0 O11 2.559449 1_565
Nd0 O12 2.559449 1_555
Nd0 O7 2.559449 1_555
Nd1 O9 2.239084 1_555
Nd1 O5 2.239084 1_555
Nd1 O1 2.559449 1_555
Nd1 O12 2.559449 1_556
Nd1 O10 2.559449 1_555
Nd1 O3 2.559449 1_565
Nd1 O13 2.559449 1_555
Nd1 O0 2.559449 1_655
Nd2 O9 2.239084 1_555
Nd2 O5 2.239084 1_545
Nd2 O2 2.559449 1_555
Nd2 O11 2.559449 1_556
Nd2 O6 2.559449 1_655
Nd2 O8 2.559449 1_555
Nd2 O10 2.559449 1_555
Nd2 O3 2.559449 1_555
Nd3 O5 2.239084 1_455
Nd3 O9 2.239084 1_555
Nd3 O7 2.559449 1_555
Nd3 O4 2.559449 1_556
Nd3 O8 2.559449 1_555
Nd3 O0 2.559449 1_555
Nd3 O13 2.559449 1_555
Nd3 O6 2.559449 1_565
O0 V3 1.993283 1_555
O0 V2 1.993283 1_555
O1 V1 1.993283 1_565
O1 V2 1.993283 1_655
O2 V0 1.993283 1_655
O2 V1 1.993283 1_555
O3 V1 1.993283 1_555
O3 V3 1.993283 1_555
O4 V0 1.993283 1_555
O4 V2 1.993283 1_555
O6 V0 1.993283 1_555
O6 V3 1.993283 1_555
O7 V0 1.993283 1_565
O7 V2 1.993283 1_555
O8 V0 1.993283 1_556
O8 V3 1.993283 1_555
O10 V1 1.993283 1_556
O10 V3 1.993283 1_655
O11 V0 1.993283 1_555
O11 V1 1.993283 1_555
O12 V1 1.993283 1_555
O12 V2 1.993283 1_555
O13 V3 1.993283 1_565
O13 V2 1.993283 1_556
