# generated using pymatgen
data_Li4Mn3Fe3(NiO8)2
_symmetry_space_group_name_H-M   'P 1'
_cell_length_a   5.86128279
_cell_length_b   5.86128279
_cell_length_c   9.60446887
_cell_angle_alpha   89.80920294
_cell_angle_beta   89.80920294
_cell_angle_gamma   59.81690128
_symmetry_Int_Tables_number   1
_chemical_formula_structural   Li4Mn3Fe3(NiO8)2
_chemical_formula_sum   'Li4 Mn3 Fe3 Ni2 O16'
_cell_volume   285.22125494
_cell_formula_units_Z   1
loop_
 _symmetry_equiv_pos_site_id
 _symmetry_equiv_pos_as_xyz
  1  'x, y, z'
loop_
 _atom_site_type_symbol
 _atom_site_label
 _atom_site_symmetry_multiplicity
 _atom_site_fract_x
 _atom_site_fract_y
 _atom_site_fract_z
 _atom_site_occupancy
  Li  Li0  1  0.66751800  0.66751800  0.10792100  1
  Li  Li1  1  0.99914300  0.99914300  0.00155000  1
  Li  Li2  1  0.00012200  0.00012200  0.50212200  1
  Li  Li3  1  0.33293200  0.33293200  0.60859600  1
  Mn  Mn0  1  0.83013900  0.83013900  0.78631200  1
  Mn  Mn1  1  0.16878800  0.66244900  0.28514800  1
  Mn  Mn2  1  0.66244900  0.16878800  0.28514800  1
  Fe  Fe0  1  0.33775500  0.83069200  0.78563700  1
  Fe  Fe1  1  0.83069200  0.33775500  0.78563700  1
  Fe  Fe2  1  0.16858000  0.16858000  0.28519600  1
  Ni  Ni0  1  0.66734800  0.66734800  0.51065600  1
  Ni  Ni1  1  0.33281500  0.33281500  0.01258700  1
  O  O0  1  0.31977900  0.83852600  0.39285800  1
  O  O1  1  0.51813400  0.51813400  0.66677500  1
  O  O2  1  0.67298700  0.67298700  0.89877500  1
  O  O3  1  0.99336600  0.99336600  0.68644700  1
  O  O4  1  0.99292700  0.99292700  0.18619500  1
  O  O5  1  0.83852600  0.31977900  0.39285800  1
  O  O6  1  0.52160100  0.96332100  0.66757900  1
  O  O7  1  0.96332100  0.52160100  0.66757900  1
  O  O8  1  0.16087300  0.16087300  0.89473000  1
  O  O9  1  0.84172800  0.84172800  0.39389600  1
  O  O10  1  0.03698300  0.48481800  0.16798000  1
  O  O11  1  0.48481800  0.03698300  0.16798000  1
  O  O12  1  0.34117100  0.34117100  0.39442800  1
  O  O13  1  0.15772000  0.67879100  0.89510600  1
  O  O14  1  0.48147600  0.48147600  0.16743400  1
  O  O15  1  0.67879100  0.15772000  0.89510600  1
loop_
_geom_bond_atom_site_label_1
_geom_bond_atom_site_label_2
_geom_bond_distance
_geom_bond_site_symmetry_2
Li0 O11 1.959957 1_565
Li0 O10 1.959957 1_655
Li0 O14 1.972866 1_555
Li0 O2 2.009291 1_554
Li1 O4 1.774299 1_555
Li1 O15 1.919977 1_564
Li1 O13 1.919977 1_654
Li1 O8 1.934008 1_664
Li2 O3 1.771411 1_445
Li2 O9 1.919328 1_445
Li2 O5 1.928183 1_455
Li2 O0 1.928183 1_545
Li3 O7 1.955540 1_455
Li3 O6 1.955540 1_545
Li3 O1 1.965171 1_555
Li3 O12 2.058352 1_555
Mn0 O3 1.912785 1_555
Mn0 O2 1.924448 1_555
Mn0 O7 1.941269 1_555
Mn0 O6 1.941269 1_555
Mn0 O13 1.964650 1_655
Mn0 O15 1.964650 1_565
Mn1 O4 1.924679 1_455
Mn1 O12 1.936306 1_555
Mn1 O10 1.941538 1_555
Mn1 O14 1.949801 1_555
Mn1 O9 1.959186 1_455
Mn1 O0 1.962173 1_555
Mn2 O4 1.924679 1_545
Mn2 O12 1.936306 1_555
Mn2 O11 1.941538 1_555
Mn2 O14 1.949801 1_555
Mn2 O9 1.959186 1_545
Mn2 O5 1.962173 1_555
Fe0 O1 1.958454 1_555
Fe0 O6 1.969638 1_555
Fe0 O8 1.976560 1_565
Fe0 O13 1.985631 1_555
Fe0 O3 1.990665 1_455
Fe0 O2 2.019213 1_555
Fe1 O1 1.958454 1_555
Fe1 O7 1.969638 1_555
Fe1 O8 1.976560 1_655
Fe1 O15 1.985631 1_555
Fe1 O3 1.990665 1_545
Fe1 O2 2.019213 1_555
Fe2 O11 1.962735 1_555
Fe2 O10 1.962735 1_555
Fe2 O5 1.966198 1_455
Fe2 O0 1.966198 1_545
Fe2 O4 2.025575 1_445
Fe2 O12 2.047064 1_555
Ni0 O9 2.093345 1_555
Ni0 O5 2.095089 1_555
Ni0 O0 2.095089 1_555
Ni0 O6 2.128251 1_555
Ni0 O7 2.128251 1_555
Ni0 O1 2.128328 1_555
Ni1 O13 2.082894 1_554
Ni1 O15 2.082894 1_554
Ni1 O8 2.085454 1_554
Ni1 O11 2.113305 1_555
Ni1 O10 2.113305 1_555
Ni1 O14 2.123915 1_555
