# generated using pymatgen
data_Na5Mn2P2(CO7)2
_symmetry_space_group_name_H-M   'P 1'
_cell_length_a   6.84520800
_cell_length_b   5.20313000
_cell_length_c   9.01717391
_cell_angle_alpha   89.68427088
_cell_angle_beta   90.00000000
_cell_angle_gamma   90.00000000
_symmetry_Int_Tables_number   1
_chemical_formula_structural   Na5Mn2P2(CO7)2
_chemical_formula_sum   'Na5 Mn2 P2 C2 O14'
_cell_volume   321.15536234
_cell_formula_units_Z   1
loop_
 _symmetry_equiv_pos_site_id
 _symmetry_equiv_pos_as_xyz
  1  'x, y, z'
loop_
 _atom_site_type_symbol
 _atom_site_label
 _atom_site_symmetry_multiplicity
 _atom_site_fract_x
 _atom_site_fract_y
 _atom_site_fract_z
 _atom_site_occupancy
  Na  Na0  1  0.24383000  0.75712000  0.74984700  1
  Na  Na1  1  0.75617000  0.75712000  0.74984700  1
  Na  Na2  1  0.74327100  0.24711000  0.25378600  1
  Na  Na3  1  0.25672900  0.24711000  0.25378600  1
  Na  Na4  1  0.50000000  0.76167400  0.07864600  1
  Mn  Mn0  1  0.50000000  0.22295000  0.63825400  1
  Mn  Mn1  1  0.00000000  0.78144600  0.35373100  1
  P  P0  1  0.00000000  0.29239200  0.57854800  1
  P  P1  1  0.50000000  0.70154000  0.41279000  1
  C  C0  1  0.50000000  0.26803200  0.93655200  1
  C  C1  1  0.00000000  0.72703300  0.07696900  1
  O  O0  1  0.00000000  0.72293700  0.93846900  1
  O  O1  1  0.50000000  0.04339700  0.87338600  1
  O  O2  1  0.50000000  0.47378200  0.85369800  1
  O  O3  1  0.18542700  0.22740900  0.66631400  1
  O  O4  1  0.81457300  0.22740900  0.66631400  1
  O  O5  1  0.00000000  0.59445300  0.54361100  1
  O  O6  1  0.50000000  0.81937000  0.56999500  1
  O  O7  1  0.00000000  0.15574700  0.42411800  1
  O  O8  1  0.50000000  0.40265000  0.42538700  1
  O  O9  1  0.68246200  0.78679600  0.32038900  1
  O  O10  1  0.31753800  0.78679600  0.32038900  1
  O  O11  1  0.00000000  0.52542200  0.16487300  1
  O  O12  1  0.00000000  0.94535500  0.15295300  1
  O  O13  1  0.50000000  0.28638100  0.07977000  1
loop_
_geom_bond_atom_site_label_1
_geom_bond_atom_site_label_2
_geom_bond_distance
_geom_bond_site_symmetry_2
Na0 O0 2.388919 1_555
Na0 O6 2.409171 1_555
Na0 O2 2.471841 1_555
Na0 O1 2.559850 1_565
Na0 O3 2.587384 1_565
Na0 O5 2.641561 1_555
Na0 O3 2.889023 1_555
Na1 O0 2.388919 1_655
Na1 O6 2.409171 1_555
Na1 O2 2.471841 1_555
Na1 O1 2.559850 1_565
Na1 O4 2.587384 1_565
Na1 O5 2.641561 1_655
Na1 O4 2.889023 1_555
Na2 O13 2.296393 1_555
Na2 O7 2.380187 1_655
Na2 O11 2.411493 1_655
Na2 O8 2.415801 1_555
Na2 O9 2.500895 1_545
Na2 O12 2.529007 1_645
Na2 O9 2.904775 1_555
Na3 O13 2.296393 1_555
Na3 O7 2.380187 1_555
Na3 O11 2.411493 1_555
Na3 O8 2.415801 1_555
Na3 O10 2.500895 1_545
Na3 O12 2.529007 1_545
Na3 O10 2.904775 1_555
Na4 O1 2.354674 1_564
Na4 O13 2.472976 1_555
Na4 O10 2.516327 1_555
Na4 O9 2.516327 1_555
Na4 O2 2.528180 1_554
Na4 O13 2.730193 1_565
Mn0 O8 2.130439 1_555
Mn0 O4 2.168271 1_555
Mn0 O3 2.168271 1_555
Mn0 O6 2.191479 1_545
Mn0 O1 2.312213 1_555
Mn0 O2 2.346343 1_555
Mn1 O5 1.964646 1_555
Mn1 O12 1.997010 1_555
Mn1 O7 2.051672 1_565
Mn1 O11 2.167868 1_555
Mn1 O10 2.194463 1_555
Mn1 O9 2.194463 1_455
C0 O13 1.295470 1_556
C0 O2 1.302084 1_555
C0 O1 1.303020 1_555
C1 O0 1.249178 1_554
C1 O11 1.311313 1_555
C1 O12 1.329821 1_555
O3 P0 1.532572 1_555
O4 P0 1.532572 1_655
O5 P0 1.601222 1_555
O6 P1 1.547541 1_555
O7 P0 1.567011 1_555
O8 P1 1.558682 1_555
O9 P1 1.564256 1_555
O10 P1 1.564256 1_555
