# generated using pymatgen
data_LiNbNiO4
_symmetry_space_group_name_H-M   'P 1'
_cell_length_a   6.05114300
_cell_length_b   8.64503955
_cell_length_c   6.19525498
_cell_angle_alpha   89.99906373
_cell_angle_beta   89.99994360
_cell_angle_gamma   89.99997145
_symmetry_Int_Tables_number   1
_chemical_formula_structural   LiNbNiO4
_chemical_formula_sum   'Li4 Nb4 Ni4 O16'
_cell_volume   324.08847429
_cell_formula_units_Z   4
loop_
 _symmetry_equiv_pos_site_id
 _symmetry_equiv_pos_as_xyz
  1  'x, y, z'
loop_
 _atom_site_type_symbol
 _atom_site_label
 _atom_site_symmetry_multiplicity
 _atom_site_fract_x
 _atom_site_fract_y
 _atom_site_fract_z
 _atom_site_occupancy
  Li  Li0  1  0.25000200  0.11113300  0.00000700  1
  Li  Li1  1  0.75000200  0.61111600  0.50000600  1
  Li  Li2  1  0.75000200  0.88886700  0.00001000  1
  Li  Li3  1  0.25000200  0.38888800  0.50000900  1
  Nb  Nb0  1  0.75000200  0.25000300  0.24998400  1
  Nb  Nb1  1  0.25000200  0.74998700  0.75004700  1
  Nb  Nb2  1  0.75000800  0.24999000  0.75003700  1
  Nb  Nb3  1  0.25000600  0.74997100  0.24997500  1
  Ni  Ni0  1  0.00005400  0.00000700  0.49995900  1
  Ni  Ni1  1  0.49994000  0.00002300  0.49998900  1
  Ni  Ni2  1  0.50013100  0.49994300  0.99994600  1
  Ni  Ni3  1  0.99982700  0.50000700  0.99992300  1
  O  O0  1  0.52690400  0.24865000  0.00000900  1
  O  O1  1  0.02689500  0.74871200  0.50001000  1
  O  O2  1  0.97309800  0.24865100  0.00000800  1
  O  O3  1  0.47310800  0.74871200  0.50001000  1
  O  O4  1  0.02689600  0.75135500  0.00000800  1
  O  O5  1  0.52689700  0.25129500  0.50000900  1
  O  O6  1  0.47310500  0.75135300  0.00000700  1
  O  O7  1  0.97310800  0.25129500  0.50000900  1
  O  O8  1  0.75000200  0.47847600  0.22875900  1
  O  O9  1  0.25000100  0.97854400  0.72873000  1
  O  O10  1  0.75000100  0.47848100  0.77123400  1
  O  O11  1  0.25000300  0.97854600  0.27126900  1
  O  O12  1  0.25000100  0.52152700  0.77126100  1
  O  O13  1  0.75000200  0.02146600  0.27128600  1
  O  O14  1  0.25000000  0.52153200  0.22876000  1
  O  O15  1  0.75000200  0.02147100  0.72874000  1
loop_
_geom_bond_atom_site_label_1
_geom_bond_atom_site_label_2
_geom_bond_distance
_geom_bond_site_symmetry_2
Li0 O11 2.034198 1_545
Li0 O9 2.034316 1_544
Li0 O0 2.054480 1_555
Li0 O2 2.054494 1_455
Li1 O10 2.034258 1_555
Li1 O8 2.034411 1_555
Li1 O1 2.054831 1_655
Li1 O3 2.054835 1_555
Li2 O15 2.034322 1_564
Li2 O13 2.034359 1_565
Li2 O4 2.054415 1_655
Li2 O6 2.054441 1_555
Li3 O14 2.034409 1_555
Li3 O12 2.034431 1_555
Li3 O7 2.054821 1_455
Li3 O5 2.054825 1_555
Nb0 O8 1.979528 1_555
Nb0 O13 1.980112 1_555
Nb0 O2 2.054497 1_555
Nb0 O0 2.054502 1_555
Nb0 O5 2.054759 1_555
Nb0 O7 2.054765 1_555
Nb1 O12 1.979412 1_555
Nb1 O9 1.980291 1_555
Nb1 O6 2.054453 1_556
Nb1 O4 2.054468 1_556
Nb1 O3 2.054818 1_555
Nb1 O1 2.054824 1_555
Nb2 O10 1.979676 1_555
Nb2 O15 1.979959 1_555
Nb2 O2 2.054451 1_556
Nb2 O0 2.054509 1_556
Nb2 O7 2.054753 1_555
Nb2 O5 2.054799 1_555
Nb3 O14 1.979235 1_555
Nb3 O11 1.980441 1_555
Nb3 O6 2.054473 1_555
Nb3 O4 2.054514 1_555
Nb3 O3 2.054794 1_555
Nb3 O1 2.054828 1_555
Ni0 O11 2.080701 1_545
Ni0 O9 2.081033 1_545
Ni0 O13 2.081078 1_455
Ni0 O15 2.081540 1_455
Ni0 O7 2.178505 1_455
Ni0 O1 2.178518 1_545
Ni1 O11 2.080789 1_545
Ni1 O9 2.080882 1_545
Ni1 O13 2.081235 1_555
Ni1 O15 2.081447 1_555
Ni1 O5 2.178372 1_555
Ni1 O3 2.178652 1_545
Ni2 O10 2.080447 1_555
Ni2 O8 2.080879 1_556
Ni2 O12 2.081569 1_555
Ni2 O14 2.082123 1_556
Ni2 O0 2.178470 1_556
Ni2 O6 2.179593 1_556
Ni3 O10 2.080208 1_555
Ni3 O8 2.080821 1_556
Ni3 O12 2.081614 1_655
Ni3 O14 2.082358 1_656
Ni3 O2 2.178994 1_556
Ni3 O4 2.179079 1_656
