# generated using pymatgen
data_LiFe2(PO4)2
_symmetry_space_group_name_H-M   'P 1'
_cell_length_a   5.18869900
_cell_length_b   10.34140700
_cell_length_c   13.73841800
_cell_angle_alpha   90.00000000
_cell_angle_beta   90.00000000
_cell_angle_gamma   90.00000000
_symmetry_Int_Tables_number   1
_chemical_formula_structural   LiFe2(PO4)2
_chemical_formula_sum   'Li4 Fe8 P8 O32'
_cell_volume   737.18219005
_cell_formula_units_Z   4
loop_
 _symmetry_equiv_pos_site_id
 _symmetry_equiv_pos_as_xyz
  1  'x, y, z'
loop_
 _atom_site_type_symbol
 _atom_site_label
 _atom_site_symmetry_multiplicity
 _atom_site_fract_x
 _atom_site_fract_y
 _atom_site_fract_z
 _atom_site_occupancy
  Li  Li0  1  0.54183300  0.21284900  0.99824300  1
  Li  Li1  1  0.54183300  0.28715100  0.49824300  1
  Li  Li2  1  0.45816700  0.71284900  0.99824300  1
  Li  Li3  1  0.45816700  0.78715100  0.49824300  1
  Fe  Fe0  1  0.91876200  0.03437500  0.49790400  1
  Fe  Fe1  1  0.54568000  0.21501900  0.25079500  1
  Fe  Fe2  1  0.54568000  0.28498100  0.75079500  1
  Fe  Fe3  1  0.91876200  0.46562500  0.99790400  1
  Fe  Fe4  1  0.08123800  0.53437500  0.49790400  1
  Fe  Fe5  1  0.45432000  0.71501900  0.25079500  1
  Fe  Fe6  1  0.45432000  0.78498100  0.75079500  1
  Fe  Fe7  1  0.08123800  0.96562500  0.99790400  1
  P  P0  1  0.43573600  0.03628900  0.62390900  1
  P  P1  1  0.04647400  0.21756500  0.87206500  1
  P  P2  1  0.04647400  0.28243500  0.37206500  1
  P  P3  1  0.43573600  0.46371100  0.12390900  1
  P  P4  1  0.56426400  0.53628900  0.62390900  1
  P  P5  1  0.95352600  0.71756500  0.87206500  1
  P  P6  1  0.95352600  0.78243500  0.37206500  1
  P  P7  1  0.56426400  0.96371100  0.12390900  1
  O  O0  1  0.14591200  0.01015700  0.60204500  1
  O  O1  1  0.48622700  0.02756800  0.21885700  1
  O  O2  1  0.41567500  0.02738100  0.03469600  1
  O  O3  1  0.99865400  0.07063300  0.89147500  1
  O  O4  1  0.49632900  0.18299400  0.62239500  1
  O  O5  1  0.92569500  0.24158300  0.27652700  1
  O  O6  1  0.90668300  0.21239100  0.46066500  1
  O  O7  1  0.33902800  0.24758700  0.87643400  1
  O  O8  1  0.33902800  0.25241300  0.37643400  1
  O  O9  1  0.90668300  0.28760900  0.96066500  1
  O  O10  1  0.92569500  0.25841700  0.77652700  1
  O  O11  1  0.49632900  0.31700600  0.12239500  1
  O  O12  1  0.99865400  0.42936700  0.39147500  1
  O  O13  1  0.41567500  0.47261900  0.53469600  1
  O  O14  1  0.48622700  0.47243200  0.71885700  1
  O  O15  1  0.14591200  0.48984300  0.10204500  1
  O  O16  1  0.85408800  0.51015700  0.60204500  1
  O  O17  1  0.51377300  0.52756800  0.21885700  1
  O  O18  1  0.58432500  0.52738100  0.03469600  1
  O  O19  1  0.00134600  0.57063300  0.89147500  1
  O  O20  1  0.50367100  0.68299400  0.62239500  1
  O  O21  1  0.07430500  0.74158300  0.27652700  1
  O  O22  1  0.09331700  0.71239100  0.46066500  1
  O  O23  1  0.66097200  0.74758700  0.87643400  1
  O  O24  1  0.66097200  0.75241300  0.37643400  1
  O  O25  1  0.09331700  0.78760900  0.96066500  1
  O  O26  1  0.07430500  0.75841700  0.77652700  1
  O  O27  1  0.50367100  0.81700600  0.12239500  1
  O  O28  1  0.00134600  0.92936700  0.39147500  1
  O  O29  1  0.58432500  0.97261900  0.53469600  1
  O  O30  1  0.51377300  0.97243200  0.71885700  1
  O  O31  1  0.85408800  0.98984300  0.10204500  1
loop_
_geom_bond_atom_site_label_1
_geom_bond_atom_site_label_2
_geom_bond_distance
_geom_bond_site_symmetry_2
Li0 O7 2.009192 1_555
Li0 O11 2.031060 1_556
Li0 O2 2.087589 1_556
Li0 O9 2.109043 1_555
Li1 O8 2.009192 1_555
Li1 O4 2.031060 1_555
Li1 O13 2.087589 1_555
Li1 O6 2.109043 1_555
Li2 O23 2.009192 1_555
Li2 O27 2.031060 1_556
Li2 O18 2.087589 1_556
Li2 O25 2.109043 1_555
Li3 O24 2.009192 1_555
Li3 O20 2.031060 1_555
Li3 O29 2.087589 1_555
Li3 O22 2.109043 1_555
Fe0 O0 1.870521 1_655
Fe0 O28 1.871040 1_645
Fe0 O6 1.911730 1_555
Fe0 O29 1.916925 1_545
Fe1 O1 2.011342 1_555
Fe1 O5 2.021972 1_555
Fe1 O8 2.068485 1_555
Fe1 O11 2.071155 1_555
Fe2 O14 2.011342 1_555
Fe2 O10 2.021972 1_555
Fe2 O7 2.068485 1_555
Fe2 O4 2.071155 1_555
Fe3 O15 1.870521 1_656
Fe3 O19 1.871040 1_655
Fe3 O9 1.911730 1_555
Fe3 O18 1.916925 1_556
Fe4 O16 1.870521 1_455
Fe4 O12 1.871040 1_455
Fe4 O22 1.911730 1_555
Fe4 O13 1.916925 1_555
Fe5 O17 2.011342 1_555
Fe5 O21 2.021972 1_555
Fe5 O24 2.068485 1_555
Fe5 O27 2.071155 1_555
Fe6 O30 2.011342 1_555
Fe6 O26 2.021972 1_555
Fe6 O23 2.068485 1_555
Fe6 O20 2.071155 1_555
Fe7 O31 1.870521 1_456
Fe7 O3 1.871040 1_465
Fe7 O25 1.911730 1_555
Fe7 O2 1.916925 1_566
O0 P0 1.557145 1_555
O1 P7 1.517101 1_545
O2 P7 1.590648 1_545
O3 P1 1.562532 1_655
O4 P0 1.549510 1_555
O5 P2 1.514588 1_655
O6 P2 1.591361 1_655
O7 P1 1.550562 1_555
O8 P2 1.550562 1_555
O9 P1 1.591361 1_655
O10 P1 1.514588 1_655
O11 P3 1.549510 1_555
O12 P2 1.562532 1_655
O13 P4 1.590648 1_555
O14 P4 1.517101 1_555
O15 P3 1.557145 1_555
O16 P4 1.557145 1_555
O17 P3 1.517101 1_555
O18 P3 1.590648 1_555
O19 P5 1.562532 1_455
O20 P4 1.549510 1_555
O21 P6 1.514588 1_455
O22 P6 1.591361 1_455
O23 P5 1.550562 1_555
O24 P6 1.550562 1_555
O25 P5 1.591361 1_455
O26 P5 1.514588 1_455
O27 P7 1.549510 1_555
O28 P6 1.562532 1_455
O29 P0 1.590648 1_565
O30 P0 1.517101 1_565
O31 P7 1.557145 1_555
