# generated using pymatgen
data_DyFeH8C6(N3O2)2
_symmetry_space_group_name_H-M   'P 1'
_cell_length_a   7.41468095
_cell_length_b   7.41468095
_cell_length_c   13.60830900
_cell_angle_alpha   90.00000000
_cell_angle_beta   90.00000000
_cell_angle_gamma   119.79791193
_symmetry_Int_Tables_number   1
_chemical_formula_structural   DyFeH8C6(N3O2)2
_chemical_formula_sum   'Dy2 Fe2 H16 C12 N12 O8'
_cell_volume   649.23289977
_cell_formula_units_Z   2
loop_
 _symmetry_equiv_pos_site_id
 _symmetry_equiv_pos_as_xyz
  1  'x, y, z'
loop_
 _atom_site_type_symbol
 _atom_site_label
 _atom_site_symmetry_multiplicity
 _atom_site_fract_x
 _atom_site_fract_y
 _atom_site_fract_z
 _atom_site_occupancy
  Dy  Dy0  1  0.82202000  0.17798000  0.25000000  1
  Dy  Dy1  1  0.17798000  0.82202000  0.75000000  1
  Fe  Fe0  1  0.50000000  0.50000000  0.00000000  1
  Fe  Fe1  1  0.50000000  0.50000000  0.50000000  1
  H  H0  1  0.36959200  0.98581700  0.19134200  1
  H  H1  1  0.98581700  0.36959200  0.80865800  1
  H  H2  1  0.36959200  0.98581700  0.30865800  1
  H  H3  1  0.98581700  0.36959200  0.69134200  1
  H  H4  1  0.63040800  0.01418300  0.80865800  1
  H  H5  1  0.01418300  0.63040800  0.19134200  1
  H  H6  1  0.63040800  0.01418300  0.69134200  1
  H  H7  1  0.01418300  0.63040800  0.30865800  1
  H  H8  1  0.18695300  0.81304700  0.03684900  1
  H  H9  1  0.81304700  0.18695300  0.96315100  1
  H  H10  1  0.18695300  0.81304700  0.46315100  1
  H  H11  1  0.81304700  0.18695300  0.53684900  1
  H  H12  1  0.07981200  0.92018800  0.09312000  1
  H  H13  1  0.92018800  0.07981200  0.90688000  1
  H  H14  1  0.07981200  0.92018800  0.40688000  1
  H  H15  1  0.92018800  0.07981200  0.59312000  1
  C  C0  1  0.35917900  0.26477700  0.91130300  1
  C  C1  1  0.26477700  0.35917900  0.08869700  1
  C  C2  1  0.35917900  0.26477700  0.58869700  1
  C  C3  1  0.26477700  0.35917900  0.41130300  1
  C  C4  1  0.64082100  0.73522300  0.08869700  1
  C  C5  1  0.73522300  0.64082100  0.91130300  1
  C  C6  1  0.64082100  0.73522300  0.41130300  1
  C  C7  1  0.73522300  0.64082100  0.58869700  1
  C  C8  1  0.63709000  0.36291000  0.05827000  1
  C  C9  1  0.36291000  0.63709000  0.94173000  1
  C  C10  1  0.63709000  0.36291000  0.44173000  1
  C  C11  1  0.36291000  0.63709000  0.55827000  1
  N  N0  1  0.72542400  0.87907400  0.14088000  1
  N  N1  1  0.87907400  0.72542400  0.85912000  1
  N  N2  1  0.72542400  0.87907400  0.35912000  1
  N  N3  1  0.87907400  0.72542400  0.64088000  1
  N  N4  1  0.27457600  0.12092600  0.85912000  1
  N  N5  1  0.12092600  0.27457600  0.14088000  1
  N  N6  1  0.27457600  0.12092600  0.64088000  1
  N  N7  1  0.12092600  0.27457600  0.35912000  1
  N  N8  1  0.71896000  0.28104000  0.09642100  1
  N  N9  1  0.28104000  0.71896000  0.90357900  1
  N  N10  1  0.71896000  0.28104000  0.40357900  1
  N  N11  1  0.28104000  0.71896000  0.59642100  1
  O  O0  1  0.45932300  0.04429600  0.25000000  1
  O  O1  1  0.04429600  0.45932300  0.75000000  1
  O  O2  1  0.54067700  0.95570400  0.75000000  1
  O  O3  1  0.95570400  0.54067700  0.25000000  1
  O  O4  1  0.15549500  0.84450500  0.10276400  1
  O  O5  1  0.84450500  0.15549500  0.89723600  1
  O  O6  1  0.15549500  0.84450500  0.39723600  1
  O  O7  1  0.84450500  0.15549500  0.60276400  1
loop_
_geom_bond_atom_site_label_1
_geom_bond_atom_site_label_2
_geom_bond_distance
_geom_bond_site_symmetry_2
Dy0 O3 2.359107 1_555
Dy0 O0 2.359107 1_555
Dy0 N0 2.460145 1_545
Dy0 N2 2.460145 1_545
Dy0 N7 2.460145 1_655
Dy0 N5 2.460145 1_655
Dy0 N8 2.473081 1_555
Dy0 N10 2.473081 1_555
Dy1 O1 2.359107 1_555
Dy1 O2 2.359107 1_555
Dy1 N3 2.460145 1_455
Dy1 N1 2.460145 1_455
Dy1 N6 2.460145 1_565
Dy1 N4 2.460145 1_565
Dy1 N11 2.473081 1_555
Dy1 N9 2.473081 1_555
H0 O0 0.990519 1_565
H1 O1 0.990519 1_655
H2 O0 0.990519 1_565
H3 O1 0.990519 1_655
H4 O2 0.990519 1_545
H5 O3 0.990519 1_455
H6 O2 0.990519 1_545
H7 O3 0.990519 1_455
H8 O4 0.983605 1_555
H9 O5 0.983605 1_555
H10 O6 0.983605 1_555
H11 O7 0.983605 1_555
H12 O4 0.979805 1_555
H13 O5 0.979805 1_555
H14 O6 0.979805 1_555
H15 O7 0.979805 1_555
C0 N4 1.170659 1_555
C0 Fe0 1.943981 1_556
C1 N5 1.170659 1_555
C1 Fe0 1.943981 1_555
C2 N6 1.170659 1_555
C2 Fe1 1.943981 1_555
C3 N7 1.170659 1_555
C3 Fe1 1.943981 1_555
C4 N0 1.170659 1_555
C4 Fe0 1.943981 1_555
C5 N1 1.170659 1_555
C5 Fe0 1.943981 1_556
C6 N2 1.170659 1_555
C6 Fe1 1.943981 1_555
C7 N3 1.170659 1_555
C7 Fe1 1.943981 1_555
C8 N8 1.171656 1_555
C8 Fe0 1.929287 1_555
C9 N9 1.171656 1_555
C9 Fe0 1.929287 1_556
C10 N10 1.171656 1_555
C10 Fe1 1.929287 1_555
C11 N11 1.171656 1_555
C11 Fe1 1.929287 1_555
