# generated using pymatgen
data_Li6V3P8O29
_symmetry_space_group_name_H-M   'P 1'
_cell_length_a   9.81864000
_cell_length_b   9.82898035
_cell_length_c   13.89698012
_cell_angle_alpha   89.95152074
_cell_angle_beta   90.10219423
_cell_angle_gamma   119.90409386
_symmetry_Int_Tables_number   1
_chemical_formula_structural   Li6V3P8O29
_chemical_formula_sum   'Li12 V6 P16 O58'
_cell_volume   1162.59667815
_cell_formula_units_Z   2
loop_
 _symmetry_equiv_pos_site_id
 _symmetry_equiv_pos_as_xyz
  1  'x, y, z'
loop_
 _atom_site_type_symbol
 _atom_site_label
 _atom_site_symmetry_multiplicity
 _atom_site_fract_x
 _atom_site_fract_y
 _atom_site_fract_z
 _atom_site_occupancy
  Li  Li0  1  0.77645200  0.68444800  0.94010400  1
  Li  Li1  1  0.90615100  0.67655900  0.43871700  1
  Li  Li2  1  0.32166400  0.22820400  0.44011100  1
  Li  Li3  1  0.66708000  0.33555500  0.11721800  1
  Li  Li4  1  0.31297900  0.08562900  0.93879900  1
  Li  Li5  1  0.90786400  0.22726000  0.93794500  1
  Li  Li6  1  0.22732700  0.90461900  0.56049900  1
  Li  Li7  1  0.77163100  0.09343100  0.44000600  1
  Li  Li8  1  0.67787200  0.90457600  0.05936800  1
  Li  Li9  1  0.67893100  0.77289000  0.56019000  1
  Li  Li10  1  0.09462600  0.32346200  0.56127700  1
  Li  Li11  1  0.22785400  0.32051800  0.05958100  1
  V  V0  1  0.43029200  0.99771500  0.75040300  1
  V  V1  1  0.56414700  0.99959700  0.24968800  1
  V  V2  1  0.00390200  0.57038100  0.24683600  1
  V  V3  1  0.00004000  0.43462900  0.75077300  1
  V  V4  1  0.56583300  0.56681700  0.74935400  1
  V  V5  1  0.43377900  0.43558100  0.25038200  1
  P  P0  1  0.77140400  0.68135100  0.15817600  1
  P  P1  1  0.91308100  0.68157900  0.65653100  1
  P  P2  1  0.31955900  0.23134000  0.65841900  1
  P  P3  1  0.66467800  0.33265200  0.87379900  1
  P  P4  1  0.66812900  0.33471500  0.37312400  1
  P  P5  1  0.31711600  0.08925700  0.15568300  1
  P  P6  1  0.23092600  0.91322400  0.34133900  1
  P  P7  1  0.91074100  0.22925500  0.15760100  1
  P  P8  1  0.08527200  0.76835800  0.84272500  1
  P  P9  1  0.76765900  0.08836300  0.65902300  1
  P  P10  1  0.68055400  0.91170000  0.84293000  1
  P  P11  1  0.33336800  0.66608000  0.62642500  1
  P  P12  1  0.33441600  0.66697500  0.12634100  1
  P  P13  1  0.68112800  0.76944800  0.34270600  1
  P  P14  1  0.08669500  0.31888200  0.34328900  1
  P  P15  1  0.23169200  0.31960500  0.84172300  1
  O  O0  1  0.75987200  0.75671900  0.43247500  1
  O  O1  1  0.74901700  0.66604600  0.65749000  1
  O  O2  1  0.99314100  0.76220700  0.92826700  1
  O  O3  1  0.91648100  0.66121800  0.15983900  1
  O  O4  1  0.62499200  0.51495300  0.17321300  1
  O  O5  1  0.67028400  0.48604100  0.83397700  1
  O  O6  1  0.48011400  0.37770500  0.67599500  1
  O  O7  1  0.24122400  0.24015600  0.93215900  1
  O  O8  1  0.33310800  0.25422600  0.15821600  1
  O  O9  1  0.81492200  0.48555000  0.33196700  1
  O  O10  1  0.90108200  0.52133300  0.67502900  1
  O  O11  1  0.51504100  0.33081400  0.33101800  1
  O  O12  1  0.66581500  0.33517200  0.98247000  1
  O  O13  1  0.66435000  0.33184100  0.48036500  1
  O  O14  1  0.51115500  0.18670600  0.83568100  1
  O  O15  1  0.88681200  0.37230500  0.17371300  1
  O  O16  1  0.81202800  0.32635900  0.83554400  1
  O  O17  1  0.33364500  0.08145400  0.65850600  1
  O  O18  1  0.21047600  0.00100400  0.24880400  1
  O  O19  1  0.24272700  0.00318300  0.43175100  1
  O  O20  1  0.24571900  0.00349600  0.06520100  1
  O  O21  1  0.48549000  0.11328800  0.17483200  1
  O  O22  1  0.67031400  0.18473900  0.33152300  1
  O  O23  1  0.25319500  0.91520400  0.84032600  1
  O  O24  1  0.61794400  0.09829400  0.67649400  1
  O  O25  1  0.91587500  0.25351700  0.65932900  1
  O  O26  1  0.00589200  0.79326800  0.74598400  1
  O  O27  1  0.00099600  0.75778400  0.56527200  1
  O  O28  1  0.99636300  0.23892800  0.43319700  1
  O  O29  1  0.08306700  0.74934000  0.34123400  1
  O  O30  1  0.38075300  0.90249000  0.32597200  1
  O  O31  1  0.74751000  0.08012100  0.15617200  1
  O  O32  1  0.32597500  0.81239900  0.66676300  1
  O  O33  1  0.52098000  0.89979700  0.82484700  1
  O  O34  1  0.76003500  0.00262500  0.93304600  1
  O  O35  1  0.75778200  0.99976000  0.56848400  1
  O  O36  1  0.79115500  0.00123200  0.75068200  1
  O  O37  1  0.66798800  0.91897500  0.34216500  1
  O  O38  1  0.18936800  0.66721100  0.17175700  1
  O  O39  1  0.09800600  0.61955400  0.82494200  1
  O  O40  1  0.48686900  0.81808100  0.16710200  1
  O  O41  1  0.33700600  0.66179100  0.01958000  1
  O  O42  1  0.33777200  0.66755300  0.51899200  1
  O  O43  1  0.48855900  0.67267700  0.66830500  1
  O  O44  1  0.09373100  0.47653200  0.32583900  1
  O  O45  1  0.18795900  0.51252400  0.66674500  1
  O  O46  1  0.66708600  0.74930700  0.84232500  1
  O  O47  1  0.78955400  0.78925700  0.24985100  1
  O  O48  1  0.75518100  0.75793900  0.06872200  1
  O  O49  1  0.52086900  0.62139700  0.32608500  1
  O  O50  1  0.33408300  0.51542400  0.16913300  1
  O  O51  1  0.37982800  0.47909100  0.82581500  1
  O  O52  1  0.08205800  0.33478000  0.84092500  1
  O  O53  1  0.00310100  0.24462700  0.06801900  1
  O  O54  1  0.99882400  0.21018300  0.25005500  1
  O  O55  1  0.25024600  0.33401800  0.34321500  1
  O  O56  1  0.24072800  0.24234300  0.56779400  1
  O  O57  1  0.20857400  0.20856600  0.74998200  1
loop_
_geom_bond_atom_site_label_1
_geom_bond_atom_site_label_2
_geom_bond_distance
_geom_bond_site_symmetry_2
Li0 O2 1.875499 1_555
Li0 O48 1.978419 1_556
Li0 O46 2.020355 1_555
Li0 O5 2.244385 1_555
Li1 O0 1.954205 1_555
Li1 O27 1.962896 1_655
Li1 O29 2.032771 1_655
Li1 O9 2.202502 1_555
Li2 O19 1.948543 1_555
Li2 O56 1.978616 1_555
Li2 O55 2.026843 1_555
Li2 O11 2.240308 1_555
Li3 O12 1.872604 1_554
Li3 O4 2.148387 1_555
Li3 O15 2.149171 1_555
Li3 O21 2.170488 1_555
Li4 O20 1.908836 1_556
Li4 O7 1.969334 1_555
Li4 O23 2.010933 1_545
Li4 O14 2.215129 1_555
Li5 O34 1.947004 1_555
Li5 O53 2.001606 1_656
Li5 O52 2.015826 1_655
Li5 O16 2.183137 1_555
Li6 O27 1.956579 1_555
Li6 O19 2.003657 1_565
Li6 O17 2.038524 1_565
Li6 O32 2.192854 1_555
Li7 O28 1.943480 1_555
Li7 O35 1.981734 1_545
Li7 O37 2.020826 1_545
Li7 O22 2.224958 1_555
Li8 O48 1.939228 1_555
Li8 O34 1.971881 1_564
Li8 O31 2.019582 1_565
Li8 O40 2.213482 1_555
Li9 O35 1.965670 1_555
Li9 O0 1.984546 1_555
Li9 O1 2.029688 1_555
Li9 O43 2.212065 1_555
Li10 O56 1.960010 1_555
Li10 O28 1.996601 1_455
Li10 O25 2.052701 1_455
Li10 O45 2.177861 1_555
Li11 O53 1.949216 1_555
Li11 O7 1.970632 1_554
Li11 O8 2.009064 1_555
Li11 O50 2.254475 1_555
O0 P13 1.504153 1_555
O1 P1 1.540547 1_555
O1 V4 2.018170 1_555
O2 P8 1.477947 1_655
O3 P0 1.532878 1_555
O3 V2 1.937580 1_655
O4 P0 1.562479 1_555
O4 V5 1.956747 1_555
O5 P3 1.580592 1_555
O5 V4 1.967517 1_555
O6 P2 1.533733 1_555
O6 V4 1.908662 1_555
O7 P15 1.506279 1_555
O8 P5 1.549611 1_555
O8 V5 2.009353 1_555
O9 P4 1.572691 1_555
O9 V2 2.000338 1_655
O10 P1 1.541155 1_555
O10 V3 1.897050 1_655
O11 P4 1.594571 1_555
O11 V5 1.940835 1_555
O12 P3 1.510353 1_555
O13 P4 1.490747 1_555
O14 P3 1.566199 1_555
O14 V0 2.003817 1_545
O15 P7 1.553185 1_555
O15 V2 1.977913 1_655
O16 P3 1.572147 1_555
O16 V3 1.993725 1_655
O17 P2 1.546831 1_555
O17 V0 1.995388 1_545
O18 P6 1.615037 1_545
O18 P5 1.618885 1_555
O19 P6 1.507689 1_545
O20 P5 1.480725 1_555
O21 P5 1.571264 1_555
O21 V1 1.945004 1_545
O22 P4 1.593962 1_555
O22 V1 1.949189 1_545
O23 P8 1.558873 1_555
O23 V0 1.960329 1_555
O24 P9 1.540700 1_555
O24 V0 1.901547 1_545
O25 P9 1.548366 1_555
O25 V3 2.000004 1_655
O26 P1 1.606770 1_455
O26 P8 1.631205 1_555
O27 P1 1.507369 1_455
O28 P14 1.507537 1_655
O29 P6 1.539679 1_555
O29 V2 2.013986 1_555
O30 P6 1.541681 1_555
O30 V1 1.889099 1_555
O31 P7 1.541162 1_555
O31 V1 2.035315 1_545
O32 P11 1.579063 1_555
O32 V0 1.963920 1_555
O33 P10 1.532178 1_555
O33 V0 1.907607 1_555
O34 P10 1.509657 1_545
O35 P9 1.506039 1_565
O36 P9 1.613471 1_555
O36 P10 1.627062 1_545
O37 P13 1.538102 1_555
O37 V1 2.029361 1_555
O38 P12 1.559848 1_555
O38 V2 1.894081 1_555
O39 P8 1.548851 1_555
O39 V3 1.883543 1_555
O40 P12 1.596574 1_555
O40 V1 1.930431 1_555
O41 P12 1.485271 1_555
O42 P11 1.493546 1_555
O43 P11 1.600992 1_555
O43 V4 1.925892 1_555
O44 P14 1.535362 1_555
O44 V2 1.907949 1_555
O45 P11 1.575801 1_555
O45 V3 1.987919 1_555
O46 P10 1.534547 1_555
O46 V4 2.023928 1_555
O47 P0 1.610202 1_555
O47 P13 1.623026 1_555
O48 P0 1.501573 1_555
O49 P13 1.537221 1_555
O49 V5 1.901708 1_555
O50 P12 1.601933 1_555
O50 V5 1.899871 1_555
O51 P15 1.532606 1_555
O51 V4 1.908710 1_555
O52 P15 1.548989 1_555
O52 V3 1.990895 1_555
O53 P7 1.504034 1_455
O54 P7 1.609717 1_555
O54 P14 1.625996 1_655
O55 P14 1.537100 1_555
O55 V5 2.029942 1_555
O56 P2 1.508865 1_555
O57 P2 1.618014 1_555
O57 P15 1.619387 1_555
