# generated using pymatgen
data_Na10(WO3)13
_symmetry_space_group_name_H-M   'P 1'
_cell_length_a   6.85810400
_cell_length_b   8.83482768
_cell_length_c   14.24040074
_cell_angle_alpha   75.81696353
_cell_angle_beta   80.78243727
_cell_angle_gamma   75.00971939
_symmetry_Int_Tables_number   1
_chemical_formula_structural   Na10(WO3)13
_chemical_formula_sum   'Na10 W13 O39'
_cell_volume   803.73146072
_cell_formula_units_Z   1
loop_
 _symmetry_equiv_pos_site_id
 _symmetry_equiv_pos_as_xyz
  1  'x, y, z'
loop_
 _atom_site_type_symbol
 _atom_site_label
 _atom_site_symmetry_multiplicity
 _atom_site_fract_x
 _atom_site_fract_y
 _atom_site_fract_z
 _atom_site_occupancy
  Na  Na0  1  0.69348300  0.15395900  0.76966400  1
  Na  Na1  1  0.84650500  0.07737200  0.38493600  1
  Na  Na2  1  0.22988500  0.38299800  0.92272300  1
  Na  Na3  1  0.53877000  0.22982800  0.15340100  1
  Na  Na4  1  0.38358300  0.30750300  0.53858100  1
  Na  Na5  1  0.30651700  0.84604100  0.23033600  1
  Na  Na6  1  0.46123000  0.77017200  0.84659900  1
  Na  Na7  1  0.77011500  0.61700200  0.07727700  1
  Na  Na8  1  0.61641700  0.69249700  0.46141900  1
  Na  Na9  1  0.15349500  0.92262800  0.61506400  1
  W  W0  1  0.88769000  0.31152900  0.53892800  1
  W  W1  1  0.57757300  0.45980900  0.30806900  1
  W  W2  1  0.73031700  0.38411100  0.92229000  1
  W  W3  1  0.65605400  0.92284300  0.61549600  1
  W  W4  1  0.50000000  0.00000000  0.00000000  1
  W  W5  1  0.80995000  0.84572000  0.22913800  1
  W  W6  1  0.34394600  0.07715700  0.38450400  1
  W  W7  1  0.19005000  0.15428000  0.77086200  1
  W  W8  1  0.03876600  0.23049400  0.15338600  1
  W  W9  1  0.26968300  0.61588900  0.07771000  1
  W  W10  1  0.96123400  0.76950600  0.84661400  1
  W  W11  1  0.42242700  0.54019100  0.69193100  1
  W  W12  1  0.11231000  0.68847100  0.46107200  1
  O  O0  1  0.72524300  0.38653900  0.42314200  1
  O  O1  1  0.64634600  0.42359200  0.61481400  1
  O  O2  1  0.88608800  0.31105200  0.04097500  1
  O  O3  1  0.79957500  0.34816200  0.23188500  1
  O  O4  1  0.50000000  0.50000000  0.00000000  1
  O  O5  1  0.57070300  0.46163800  0.80721100  1
  O  O6  1  0.00000000  0.50000000  0.50000000  1
  O  O7  1  0.46749800  0.27213000  0.34527100  1
  O  O8  1  0.31147500  0.34378200  0.73103300  1
  O  O9  1  0.15851900  0.42725400  0.11102200  1
  O  O10  1  0.61350900  0.20097500  0.96004100  1
  O  O11  1  0.77054600  0.11763000  0.57645100  1
  O  O12  1  0.91900900  0.03488100  0.19556100  1
  O  O13  1  0.81413500  0.84573900  0.73446800  1
  O  O14  1  0.64912200  0.92047200  0.11729100  1
  O  O15  1  0.50000000  0.00000000  0.50000000  1
  O  O16  1  0.88342500  0.81012600  0.53902000  1
  O  O17  1  0.27616300  0.11536400  0.07567900  1
  O  O18  1  0.95779100  0.27195200  0.84709100  1
  O  O19  1  0.42841400  0.03527800  0.69034900  1
  O  O20  1  0.11657500  0.18987400  0.46098000  1
  O  O21  1  0.57158600  0.96472200  0.30965100  1
  O  O22  1  0.72383700  0.88463600  0.92432100  1
  O  O23  1  0.18586500  0.15426100  0.26553200  1
  O  O24  1  0.35087800  0.07952800  0.88270900  1
  O  O25  1  0.03819500  0.22938100  0.65144000  1
  O  O26  1  0.22945400  0.88237000  0.42354900  1
  O  O27  1  0.38649100  0.79902500  0.03995900  1
  O  O28  1  0.84148100  0.57274600  0.88897800  1
  O  O29  1  0.08099100  0.96511900  0.80443900  1
  O  O30  1  0.53250200  0.72787000  0.65472900  1
  O  O31  1  0.68852500  0.65621800  0.26896700  1
  O  O32  1  0.35365400  0.57640800  0.38518600  1
  O  O33  1  0.20042500  0.65183800  0.76811500  1
  O  O34  1  0.04220900  0.72804800  0.15290900  1
  O  O35  1  0.96180500  0.77061900  0.34856000  1
  O  O36  1  0.27475700  0.61346100  0.57685800  1
  O  O37  1  0.11391200  0.68894800  0.95902500  1
  O  O38  1  0.42929700  0.53836200  0.19278900  1
loop_
_geom_bond_atom_site_label_1
_geom_bond_atom_site_label_2
_geom_bond_distance
_geom_bond_site_symmetry_2
Na0 O24 2.759235 1_555
Na0 O8 2.777681 1_555
Na0 O13 2.778730 1_545
Na0 O5 2.787104 1_555
Na0 O18 2.787321 1_555
Na0 O10 2.789398 1_555
Na0 O29 2.795437 1_645
Na0 O11 2.798544 1_555
Na0 O25 2.803087 1_655
Na0 O22 2.806794 1_545
Na0 O1 2.810269 1_555
Na0 O19 2.811398 1_555
Na1 O12 2.762375 1_555
Na1 O35 2.772441 1_545
Na1 O20 2.777309 1_655
Na1 O7 2.777831 1_555
Na1 O23 2.784481 1_655
Na1 O11 2.785698 1_555
Na1 O16 2.789863 1_545
Na1 O26 2.797443 1_645
Na1 O21 2.799259 1_545
Na1 O15 2.800581 1_555
Na1 O3 2.801529 1_555
Na1 O0 2.802956 1_555
Na2 O9 2.752625 1_556
Na2 O10 2.762385 1_555
Na2 O37 2.765323 1_555
Na2 O24 2.765475 1_555
Na2 O5 2.774902 1_555
Na2 O18 2.777294 1_455
Na2 O17 2.783052 1_556
Na2 O8 2.785402 1_555
Na2 O2 2.788852 1_456
Na2 O28 2.800337 1_455
Na2 O33 2.803793 1_555
Na2 O4 2.812884 1_556
Na3 O17 2.760517 1_555
Na3 O3 2.778788 1_555
Na3 O10 2.780973 1_554
Na3 O12 2.792576 1_555
Na3 O14 2.793039 1_545
Na3 O21 2.796642 1_545
Na3 O7 2.796807 1_555
Na3 O9 2.800442 1_555
Na3 O4 2.800481 1_555
Na3 O2 2.802017 1_555
Na3 O38 2.804310 1_555
Na3 O23 2.815755 1_555
Na4 O1 2.757948 1_555
Na4 O36 2.776486 1_555
Na4 O0 2.780315 1_555
Na4 O25 2.784358 1_555
Na4 O8 2.787904 1_555
Na4 O15 2.790839 1_555
Na4 O6 2.793787 1_555
Na4 O32 2.793947 1_555
Na4 O7 2.797827 1_555
Na4 O19 2.798743 1_555
Na4 O20 2.801761 1_555
Na4 O11 2.803547 1_555
Na5 O14 2.759235 1_555
Na5 O31 2.777681 1_555
Na5 O23 2.778730 1_565
Na5 O38 2.787104 1_555
Na5 O34 2.787321 1_555
Na5 O27 2.789398 1_555
Na5 O12 2.795437 1_465
Na5 O26 2.798544 1_555
Na5 O35 2.803087 1_455
Na5 O17 2.806794 1_565
Na5 O32 2.810269 1_555
Na5 O21 2.811398 1_555
Na6 O22 2.760517 1_555
Na6 O33 2.778788 1_555
Na6 O27 2.780973 1_556
Na6 O29 2.792576 1_555
Na6 O24 2.793039 1_565
Na6 O19 2.796642 1_565
Na6 O30 2.796807 1_555
Na6 O28 2.800442 1_555
Na6 O4 2.800481 1_556
Na6 O37 2.802017 1_555
Na6 O5 2.804310 1_555
Na6 O13 2.815755 1_555
Na7 O28 2.752625 1_554
Na7 O27 2.762385 1_555
Na7 O2 2.765323 1_555
Na7 O14 2.765475 1_555
Na7 O38 2.774902 1_555
Na7 O34 2.777294 1_655
Na7 O22 2.783052 1_554
Na7 O31 2.785402 1_555
Na7 O37 2.788852 1_654
Na7 O9 2.800337 1_655
Na7 O3 2.803793 1_555
Na7 O4 2.812884 1_555
Na8 O32 2.757948 1_555
Na8 O0 2.776486 1_555
Na8 O36 2.780315 1_555
Na8 O35 2.784358 1_555
Na8 O31 2.787904 1_555
Na8 O15 2.790839 1_565
Na8 O6 2.793787 1_655
Na8 O1 2.793947 1_555
Na8 O30 2.797827 1_555
Na8 O21 2.798743 1_555
Na8 O16 2.801761 1_555
Na8 O26 2.803547 1_555
Na9 O29 2.762375 1_555
Na9 O25 2.772441 1_565
Na9 O16 2.777309 1_455
Na9 O30 2.777831 1_555
Na9 O13 2.784481 1_455
Na9 O26 2.785698 1_555
Na9 O20 2.789863 1_565
Na9 O11 2.797443 1_465
Na9 O19 2.799259 1_565
Na9 O15 2.800581 1_565
Na9 O33 2.801529 1_555
Na9 O36 2.802956 1_555
O0 W1 1.950044 1_555
O0 W0 2.017453 1_555
O1 W11 1.954778 1_555
O1 W0 1.997780 1_555
O2 W8 1.938705 1_655
O2 W2 2.025222 1_554
O3 W1 1.919981 1_555
O3 W8 2.030038 1_655
O4 W2 1.981533 1_554
O4 W9 1.981533 1_555
O5 W11 1.955019 1_555
O5 W2 1.997438 1_555
O6 W12 1.935843 1_555
O6 W0 1.935843 1_455
O7 W1 1.920629 1_555
O7 W6 2.032015 1_555
O8 W7 1.980592 1_555
O8 W11 1.993471 1_555
O9 W9 1.933300 1_555
O9 W8 2.031300 1_555
O10 W2 1.911772 1_555
O10 W4 2.039725 1_556
O11 W3 1.994360 1_545
O11 W0 1.997848 1_555
O12 W5 1.929099 1_545
O12 W8 2.022264 1_655
O13 W10 1.912936 1_555
O13 W3 2.037295 1_555
O14 W5 1.964706 1_555
O14 W4 1.982375 1_565
O15 W3 1.988027 1_545
O15 W6 1.988027 1_555
O16 W3 1.947652 1_555
O16 W12 2.001247 1_655
O17 W4 1.937949 1_555
O17 W8 2.006869 1_555
O18 W2 1.935840 1_555
O18 W7 1.984641 1_655
O19 W3 1.934875 1_545
O19 W7 2.047778 1_555
O20 W6 1.947652 1_555
O20 W0 2.001247 1_455
O21 W6 1.934875 1_565
O21 W5 2.047778 1_555
O22 W4 1.937949 1_566
O22 W10 2.006869 1_555
O23 W8 1.912936 1_555
O23 W6 2.037295 1_555
O24 W7 1.964706 1_555
O24 W4 1.982375 1_556
O25 W0 1.931755 1_455
O25 W7 2.018396 1_555
O26 W6 1.994360 1_565
O26 W12 1.997848 1_555
O27 W9 1.911772 1_555
O27 W4 2.039725 1_565
O28 W2 1.933300 1_555
O28 W10 2.031300 1_555
O29 W7 1.929099 1_565
O29 W10 2.022264 1_455
O30 W11 1.920629 1_555
O30 W3 2.032015 1_555
O31 W5 1.980592 1_555
O31 W1 1.993471 1_555
O32 W1 1.954778 1_555
O32 W12 1.997780 1_555
O33 W11 1.919981 1_555
O33 W10 2.030038 1_455
O34 W9 1.935840 1_555
O34 W5 1.984641 1_455
O35 W12 1.931755 1_655
O35 W5 2.018396 1_555
O36 W11 1.950044 1_555
O36 W12 2.017453 1_555
O37 W10 1.938705 1_455
O37 W9 2.025222 1_556
O38 W1 1.955019 1_555
O38 W9 1.997438 1_555
