# generated using pymatgen
data_Li3MnF5
_symmetry_space_group_name_H-M   'P 1'
_cell_length_a   6.61451700
_cell_length_b   7.97965100
_cell_length_c   8.25880800
_cell_angle_alpha   90.00000000
_cell_angle_beta   90.00000000
_cell_angle_gamma   90.00000000
_symmetry_Int_Tables_number   1
_chemical_formula_structural   Li3MnF5
_chemical_formula_sum   'Li12 Mn4 F20'
_cell_volume   435.91258163
_cell_formula_units_Z   4
loop_
 _symmetry_equiv_pos_site_id
 _symmetry_equiv_pos_as_xyz
  1  'x, y, z'
loop_
 _atom_site_type_symbol
 _atom_site_label
 _atom_site_symmetry_multiplicity
 _atom_site_fract_x
 _atom_site_fract_y
 _atom_site_fract_z
 _atom_site_occupancy
  Li  Li0  1  0.98531800  0.57840500  0.27011200  1
  Li  Li1  1  0.98531800  0.92159500  0.27011200  1
  Li  Li2  1  0.21044500  0.75000000  0.03130000  1
  Li  Li3  1  0.28955500  0.25000000  0.53130000  1
  Li  Li4  1  0.51468200  0.07840500  0.77011200  1
  Li  Li5  1  0.51468200  0.42159500  0.77011200  1
  Li  Li6  1  0.48531800  0.92159500  0.22988800  1
  Li  Li7  1  0.48531800  0.57840500  0.22988800  1
  Li  Li8  1  0.71044500  0.75000000  0.46870000  1
  Li  Li9  1  0.78955500  0.25000000  0.96870000  1
  Li  Li10  1  0.01468200  0.07840500  0.72988800  1
  Li  Li11  1  0.01468200  0.42159500  0.72988800  1
  Mn  Mn0  1  0.27077800  0.75000000  0.60289700  1
  Mn  Mn1  1  0.22922200  0.25000000  0.10289700  1
  Mn  Mn2  1  0.77077800  0.75000000  0.89710300  1
  Mn  Mn3  1  0.72922200  0.25000000  0.39710300  1
  F  F0  1  0.99162200  0.25000000  0.55164600  1
  F  F1  1  0.08849400  0.75000000  0.81780400  1
  F  F2  1  0.07013200  0.25000000  0.88111400  1
  F  F3  1  0.22503400  0.98518200  0.15211200  1
  F  F4  1  0.22503400  0.51481800  0.15211200  1
  F  F5  1  0.27496600  0.48518200  0.65211200  1
  F  F6  1  0.27496600  0.01481800  0.65211200  1
  F  F7  1  0.42986800  0.75000000  0.38111400  1
  F  F8  1  0.41150600  0.25000000  0.31780400  1
  F  F9  1  0.50837800  0.75000000  0.05164600  1
  F  F10  1  0.49162200  0.25000000  0.94835400  1
  F  F11  1  0.58849400  0.75000000  0.68219600  1
  F  F12  1  0.57013200  0.25000000  0.61888600  1
  F  F13  1  0.72503400  0.98518200  0.34788800  1
  F  F14  1  0.72503400  0.51481800  0.34788800  1
  F  F15  1  0.77496600  0.01481800  0.84788800  1
  F  F16  1  0.77496600  0.48518200  0.84788800  1
  F  F17  1  0.92986800  0.75000000  0.11888600  1
  F  F18  1  0.91150600  0.25000000  0.18219600  1
  F  F19  1  0.00837800  0.75000000  0.44835400  1
loop_
_geom_bond_atom_site_label_1
_geom_bond_atom_site_label_2
_geom_bond_distance
_geom_bond_site_symmetry_2
F0 Li3 1.977834 1_655
F0 Li11 2.016219 1_655
F0 Li10 2.016219 1_655
F0 Mn3 2.154420 1_555
F1 Li2 1.938977 1_556
F1 Mn0 2.145681 1_555
F1 Mn2 2.201221 1_455
F2 Li10 1.889256 1_555
F2 Li11 1.889256 1_555
F2 Li9 1.991868 1_455
F2 Mn1 2.112423 1_556
F3 Li6 1.906343 1_555
F3 Li1 1.929075 1_455
F3 Li2 2.127612 1_555
F3 Mn1 2.152069 1_565
F4 Li7 1.906343 1_555
F4 Li0 1.929075 1_455
F4 Li2 2.127612 1_555
F4 Mn1 2.152069 1_555
F5 Li11 1.906343 1_555
F5 Li5 1.929075 1_555
F5 Li3 2.127612 1_555
F5 Mn0 2.152069 1_555
F6 Li10 1.906343 1_555
F6 Li4 1.929075 1_555
F6 Li3 2.127612 1_555
F6 Mn0 2.152069 1_545
F7 Li6 1.889256 1_555
F7 Li7 1.889256 1_555
F7 Li8 1.991868 1_555
F7 Mn0 2.112423 1_555
F8 Li3 1.938977 1_555
F8 Mn1 2.145681 1_555
F8 Mn3 2.201221 1_555
F9 Li2 1.977834 1_555
F9 Li6 2.016219 1_555
F9 Li7 2.016219 1_555
F9 Mn2 2.154420 1_554
F10 Li9 1.977834 1_555
F10 Li4 2.016219 1_555
F10 Li5 2.016219 1_555
F10 Mn1 2.154420 1_556
F11 Li8 1.938977 1_555
F11 Mn2 2.145681 1_555
F11 Mn0 2.201221 1_555
F12 Li4 1.889256 1_555
F12 Li5 1.889256 1_555
F12 Li3 1.991868 1_555
F12 Mn3 2.112423 1_555
F13 Li1 1.906343 1_555
F13 Li6 1.929075 1_555
F13 Li8 2.127612 1_555
F13 Mn3 2.152069 1_565
F14 Li0 1.906343 1_555
F14 Li7 1.929075 1_555
F14 Li8 2.127612 1_555
F14 Mn3 2.152069 1_555
F15 Li4 1.906343 1_555
F15 Li10 1.929075 1_655
F15 Li9 2.127612 1_555
F15 Mn2 2.152069 1_545
F16 Li5 1.906343 1_555
F16 Li11 1.929075 1_655
F16 Li9 2.127612 1_555
F16 Mn2 2.152069 1_555
F17 Li1 1.889256 1_555
F17 Li0 1.889256 1_555
F17 Li2 1.991868 1_655
F17 Mn2 2.112423 1_554
F18 Li9 1.938977 1_554
F18 Mn3 2.145681 1_555
F18 Mn1 2.201221 1_655
F19 Li8 1.977834 1_455
F19 Li1 2.016219 1_455
F19 Li0 2.016219 1_455
F19 Mn0 2.154420 1_555
