# generated using pymatgen
data_MnFeBO4
_symmetry_space_group_name_H-M   'P 1'
_cell_length_a   3.22477500
_cell_length_b   9.50826200
_cell_length_c   9.53667812
_cell_angle_alpha   89.41792885
_cell_angle_beta   90.00000000
_cell_angle_gamma   90.00000000
_symmetry_Int_Tables_number   1
_chemical_formula_structural   MnFeBO4
_chemical_formula_sum   'Mn4 Fe4 B4 O16'
_cell_volume   292.39858845
_cell_formula_units_Z   4
loop_
 _symmetry_equiv_pos_site_id
 _symmetry_equiv_pos_as_xyz
  1  'x, y, z'
loop_
 _atom_site_type_symbol
 _atom_site_label
 _atom_site_symmetry_multiplicity
 _atom_site_fract_x
 _atom_site_fract_y
 _atom_site_fract_z
 _atom_site_occupancy
  Mn  Mn0  1  0.00000000  0.89805900  0.18611200  1
  Mn  Mn1  1  0.50000000  0.59786500  0.69411100  1
  Mn  Mn2  1  0.00000000  0.39772500  0.30915500  1
  Mn  Mn3  1  0.50000000  0.10547100  0.81231900  1
  Fe  Fe0  1  0.00000000  0.88245000  0.56809300  1
  Fe  Fe1  1  0.50000000  0.61288600  0.06403700  1
  Fe  Fe2  1  0.00000000  0.37847600  0.93602200  1
  Fe  Fe3  1  0.50000000  0.11651900  0.43006200  1
  B  B0  1  0.00000000  0.83260000  0.87423000  1
  B  B1  1  0.50000000  0.66401600  0.37258600  1
  B  B2  1  0.00000000  0.33425700  0.62379900  1
  B  B3  1  0.50000000  0.17114900  0.12532800  1
  O  O0  1  0.00000000  0.99535000  0.38845800  1
  O  O1  1  0.00000000  0.97475700  0.87527500  1
  O  O2  1  0.00000000  0.75489500  0.00058100  1
  O  O3  1  0.00000000  0.76018600  0.74580500  1
  O  O4  1  0.50000000  0.73797400  0.24613600  1
  O  O5  1  0.50000000  0.73850200  0.50152100  1
  O  O6  1  0.50000000  0.52133000  0.37403900  1
  O  O7  1  0.50000000  0.51075000  0.88827700  1
  O  O8  1  0.00000000  0.49487100  0.12161600  1
  O  O9  1  0.00000000  0.47692900  0.62489000  1
  O  O10  1  0.00000000  0.26440400  0.49187100  1
  O  O11  1  0.00000000  0.25577900  0.74695200  1
  O  O12  1  0.50000000  0.24738800  0.25249500  1
  O  O13  1  0.50000000  0.24103500  0.99735900  1
  O  O14  1  0.50000000  0.02942700  0.13574700  1
  O  O15  1  0.50000000  0.00495000  0.61312500  1
loop_
_geom_bond_atom_site_label_1
_geom_bond_atom_site_label_2
_geom_bond_distance
_geom_bond_site_symmetry_2
Mn0 O14 2.092489 1_565
Mn0 O14 2.092489 1_465
Mn0 O0 2.148440 1_555
Mn0 O2 2.243326 1_555
Mn0 O4 2.286186 1_555
Mn0 O4 2.286186 1_455
Mn1 O7 2.020823 1_555
Mn1 O9 2.091231 1_555
Mn1 O9 2.091231 1_655
Mn1 O5 2.260883 1_555
Mn1 O3 2.289180 1_655
Mn1 O3 2.289180 1_555
Mn2 O8 2.004586 1_555
Mn2 O6 2.092537 1_555
Mn2 O6 2.092537 1_455
Mn2 O10 2.144383 1_555
Mn2 O12 2.225033 1_555
Mn2 O12 2.225033 1_455
Mn3 O1 2.118917 1_545
Mn3 O1 2.118917 1_645
Mn3 O15 2.135198 1_555
Mn3 O13 2.195844 1_555
Mn3 O11 2.238933 1_655
Mn3 O11 2.238933 1_555
Fe0 O0 2.012408 1_555
Fe0 O15 2.037415 1_465
Fe0 O15 2.037415 1_565
Fe0 O3 2.045411 1_555
Fe0 O5 2.212203 1_555
Fe0 O5 2.212203 1_455
Fe1 O7 1.945691 1_554
Fe1 O8 2.036651 1_555
Fe1 O8 2.036651 1_655
Fe1 O4 2.114808 1_555
Fe1 O2 2.184630 1_555
Fe1 O2 2.184630 1_655
Fe2 O7 2.092195 1_555
Fe2 O7 2.092195 1_455
Fe2 O8 2.096983 1_556
Fe2 O13 2.152724 1_455
Fe2 O13 2.152724 1_555
Fe2 O11 2.157532 1_555
Fe3 O0 2.023327 1_545
Fe3 O0 2.023327 1_645
Fe3 O15 2.033615 1_555
Fe3 O12 2.091211 1_555
Fe3 O10 2.222901 1_655
Fe3 O10 2.222901 1_555
B0 O1 1.351804 1_555
B0 O2 1.407034 1_556
B0 O3 1.411105 1_555
B1 O6 1.356626 1_555
B1 O4 1.389785 1_555
B1 O5 1.425213 1_555
B2 O9 1.356708 1_555
B2 O11 1.385054 1_555
B2 O10 1.428659 1_555
B3 O14 1.350181 1_555
B3 O13 1.383637 1_554
B3 O12 1.419192 1_555
