# generated using pymatgen
data_Cu2(SO4)3
_symmetry_space_group_name_H-M   'P 1'
_cell_length_a   8.68503398
_cell_length_b   8.68506463
_cell_length_c   8.68504795
_cell_angle_alpha   54.91269418
_cell_angle_beta   54.91274962
_cell_angle_gamma   54.91280678
_symmetry_Int_Tables_number   1
_chemical_formula_structural   Cu2(SO4)3
_chemical_formula_sum   'Cu4 S6 O24'
_cell_volume   408.38510435
_cell_formula_units_Z   2
loop_
 _symmetry_equiv_pos_site_id
 _symmetry_equiv_pos_as_xyz
  1  'x, y, z'
loop_
 _atom_site_type_symbol
 _atom_site_label
 _atom_site_symmetry_multiplicity
 _atom_site_fract_x
 _atom_site_fract_y
 _atom_site_fract_z
 _atom_site_occupancy
  Cu  Cu0  1  0.14455431  0.14455340  0.14455339  1
  Cu  Cu1  1  0.34519887  0.34520063  0.34520162  1
  Cu  Cu2  1  0.65480113  0.65479937  0.65479838  1
  Cu  Cu3  1  0.85544569  0.85544660  0.85544661  1
  S  S0  1  0.74911821  0.04173732  0.45761181  1
  S  S1  1  0.95826255  0.54239087  0.25088097  1
  S  S2  1  0.54239046  0.25087988  0.95826310  1
  S  S3  1  0.45760954  0.74912012  0.04173690  1
  S  S4  1  0.04173745  0.45760913  0.74911903  1
  S  S5  1  0.25088179  0.95826268  0.54238819  1
  O  O0  1  0.52961272  0.20168488  0.15857792  1
  O  O1  1  0.20168792  0.15857382  0.52961055  1
  O  O2  1  0.79718267  0.02273591  0.60573201  1
  O  O3  1  0.87396550  0.13853334  0.25208051  1
  O  O4  1  0.15857869  0.52961086  0.20168403  1
  O  O5  1  0.74792221  0.12603348  0.86146743  1
  O  O6  1  0.97726275  0.39426989  0.20281869  1
  O  O7  1  0.53507470  0.16886803  0.49277281  1
  O  O8  1  0.83113310  0.50723143  0.46492496  1
  O  O9  1  0.39426943  0.20281559  0.97726447  1
  O  O10  1  0.86146786  0.74792116  0.12603320  1
  O  O11  1  0.50723058  0.46492217  0.83113291  1
  O  O12  1  0.49276942  0.53507783  0.16886709  1
  O  O13  1  0.13853214  0.25207884  0.87396680  1
  O  O14  1  0.60573057  0.79718441  0.02273553  1
  O  O15  1  0.16886690  0.49276857  0.53507504  1
  O  O16  1  0.46492530  0.83113197  0.50722719  1
  O  O17  1  0.02273725  0.60573011  0.79718131  1
  O  O18  1  0.25207779  0.87396652  0.13853257  1
  O  O19  1  0.84142131  0.47038914  0.79831597  1
  O  O20  1  0.12603450  0.86146666  0.74791949  1
  O  O21  1  0.20281733  0.97726409  0.39426799  1
  O  O22  1  0.79831208  0.84142618  0.47038945  1
  O  O23  1  0.47038728  0.79831512  0.84142208  1
loop_
_geom_bond_atom_site_label_1
_geom_bond_atom_site_label_2
_geom_bond_distance
_geom_bond_site_symmetry_2
Cu0 O9 1.965826 1_554
Cu0 O21 1.965828 1_545
Cu0 O6 1.965856 1_455
Cu0 O13 1.989901 1_554
Cu0 O3 1.989905 1_455
Cu0 O18 1.989909 1_545
Cu1 O4 1.946524 1_555
Cu1 O1 1.946529 1_555
Cu1 O0 1.946540 1_555
Cu1 O15 1.994304 1_555
Cu1 O7 1.994333 1_555
Cu1 O12 1.994338 1_555
Cu2 O19 1.946524 1_555
Cu2 O22 1.946529 1_555
Cu2 O23 1.946540 1_555
Cu2 O8 1.994304 1_555
Cu2 O16 1.994333 1_555
Cu2 O11 1.994338 1_555
Cu3 O14 1.965826 1_556
Cu3 O2 1.965828 1_565
Cu3 O17 1.965856 1_655
Cu3 O10 1.989901 1_556
Cu3 O20 1.989905 1_655
Cu3 O5 1.989909 1_565
O0 S2 1.483093 1_554
O1 S5 1.483070 1_545
O2 S0 1.466459 1_555
O3 S0 1.471874 1_555
O4 S1 1.483087 1_455
O5 S2 1.471874 1_555
O6 S1 1.466461 1_555
O7 S0 1.464049 1_555
O8 S1 1.464052 1_555
O9 S2 1.466464 1_555
O10 S1 1.471870 1_555
O11 S2 1.464044 1_555
O12 S3 1.464044 1_555
O13 S4 1.471870 1_555
O14 S3 1.466464 1_555
O15 S4 1.464052 1_555
O16 S5 1.464049 1_555
O17 S4 1.466461 1_555
O18 S3 1.471874 1_555
O19 S4 1.483087 1_655
O20 S5 1.471874 1_555
O21 S5 1.466459 1_555
O22 S0 1.483070 1_565
O23 S3 1.483093 1_556
