# generated using pymatgen
data_Ti2N2O
_symmetry_space_group_name_H-M   'P 1'
_cell_length_a   8.21873200
_cell_length_b   8.21931605
_cell_length_c   8.22031113
_cell_angle_alpha   109.41727541
_cell_angle_beta   109.51829237
_cell_angle_gamma   109.37301720
_symmetry_Int_Tables_number   1
_chemical_formula_structural   Ti2N2O
_chemical_formula_sum   'Ti16 N16 O8'
_cell_volume   428.02410410
_cell_formula_units_Z   8
loop_
 _symmetry_equiv_pos_site_id
 _symmetry_equiv_pos_as_xyz
  1  'x, y, z'
loop_
 _atom_site_type_symbol
 _atom_site_label
 _atom_site_symmetry_multiplicity
 _atom_site_fract_x
 _atom_site_fract_y
 _atom_site_fract_z
 _atom_site_occupancy
  Ti  Ti0  1  0.79344400  0.04427900  0.75246300  1
  Ti  Ti1  1  0.00203800  0.01009600  0.51208500  1
  Ti  Ti2  1  0.23794700  0.28212500  0.03520500  1
  Ti  Ti3  1  0.76256200  0.21734300  0.46454500  1
  Ti  Ti4  1  0.46936300  0.76182100  0.21506900  1
  Ti  Ti5  1  0.95703600  0.74327600  0.70912100  1
  Ti  Ti6  1  0.00612700  0.51730600  0.01464200  1
  Ti  Ti7  1  0.48881400  0.98476300  0.97901000  1
  Ti  Ti8  1  0.29063900  0.54067200  0.74290200  1
  Ti  Ti9  1  0.49269800  0.48969400  0.50166300  1
  Ti  Ti10  1  0.69810400  0.44896800  0.24230100  1
  Ti  Ti11  1  0.53511600  0.24564100  0.79554100  1
  Ti  Ti12  1  0.05325500  0.25839100  0.29031200  1
  Ti  Ti13  1  0.25474700  0.79825300  0.54149800  1
  Ti  Ti14  1  0.74107700  0.69562800  0.95782600  1
  Ti  Ti15  1  0.20762400  0.95954600  0.25309500  1
  N  N0  1  0.72414700  0.95022900  0.45867500  1
  N  N1  1  0.55160200  0.77555000  0.01311600  1
  N  N2  1  0.73722800  0.46146500  0.50910200  1
  N  N3  1  0.98759900  0.26315100  0.03916200  1
  N  N4  1  0.77720500  0.51081800  0.05435800  1
  N  N5  1  0.54138300  0.98897000  0.76479600  1
  N  N6  1  0.27788700  0.22571100  0.26612500  1
  N  N7  1  0.03795600  0.27573100  0.55108600  1
  N  N8  1  0.22451000  0.76673900  0.77330900  1
  N  N9  1  0.00562200  0.73282000  0.95844100  1
  N  N10  1  0.45302700  0.22577300  0.99161100  1
  N  N11  1  0.26541800  0.53860200  0.48774100  1
  N  N12  1  0.23801600  0.72591000  0.27333200  1
  N  N13  1  0.05069100  0.03982200  0.77426600  1
  N  N14  1  0.49304400  0.45168300  0.72373400  1
  N  N15  1  0.27258400  0.04896400  0.53838700  1
  O  O0  1  0.50911400  0.54922700  0.27042600  1
  O  O1  1  0.95317800  0.96186700  0.22522300  1
  O  O2  1  0.76711400  0.27371200  0.72436100  1
  O  O3  1  0.77307000  0.23486600  0.22780000  1
  O  O4  1  0.22695900  0.48861900  0.95198100  1
  O  O5  1  0.72440200  0.77614000  0.73226800  1
  O  O6  1  0.46093600  0.01100500  0.23557900  1
  O  O7  1  0.95671300  0.72482700  0.44784200  1
loop_
_geom_bond_atom_site_label_1
_geom_bond_atom_site_label_2
_geom_bond_distance
_geom_bond_site_symmetry_2
N0 Ti4 1.943658 1_555
N0 Ti1 2.022835 1_665
N0 Ti0 2.074091 1_565
N0 Ti3 2.093255 1_565
N1 Ti14 2.004046 1_554
N1 Ti4 2.012288 1_555
N1 Ti7 2.028415 1_554
N1 Ti8 2.116453 1_554
N2 Ti5 2.009744 1_555
N2 Ti3 2.010745 1_555
N2 Ti10 2.069077 1_555
N2 Ti9 2.081646 1_555
N3 Ti12 1.969337 1_655
N3 Ti2 2.023382 1_655
N3 Ti0 2.024967 1_554
N3 Ti6 2.125343 1_655
N4 Ti14 1.992102 1_554
N4 Ti6 2.001186 1_655
N4 Ti10 2.010482 1_555
N4 Ti11 2.108766 1_554
N5 Ti7 1.956426 1_555
N5 Ti0 2.013640 1_565
N5 Ti13 2.030691 1_555
N5 Ti11 2.059969 1_565
N6 Ti9 1.988668 1_555
N6 Ti12 2.014663 1_555
N6 Ti15 2.023779 1_545
N6 Ti2 2.048386 1_555
N7 Ti3 1.958509 1_455
N7 Ti1 2.000161 1_555
N7 Ti8 2.017362 1_555
N7 Ti12 2.149463 1_555
N8 Ti7 1.933258 1_555
N8 Ti5 2.006021 1_455
N8 Ti8 2.064563 1_555
N8 Ti13 2.088519 1_555
N9 Ti6 1.974575 1_556
N9 Ti5 1.990039 1_455
N9 Ti15 2.086875 1_556
N9 Ti14 2.090791 1_455
N10 Ti11 1.976898 1_555
N10 Ti10 1.982552 1_556
N10 Ti7 2.071671 1_545
N10 Ti2 2.079369 1_556
N11 Ti12 1.984510 1_555
N11 Ti9 2.012425 1_555
N11 Ti8 2.031300 1_555
N11 Ti13 2.068962 1_555
N12 Ti6 1.947759 1_555
N12 Ti13 2.025728 1_555
N12 Ti4 2.064441 1_555
N12 Ti15 2.068959 1_555
N13 Ti2 1.963723 1_556
N13 Ti1 1.968177 1_555
N13 Ti0 2.075099 1_455
N13 Ti5 2.105282 1_445
N14 Ti9 1.950991 1_555
N14 Ti14 1.995114 1_555
N14 Ti8 2.057386 1_555
N14 Ti11 2.062227 1_555
N15 Ti15 2.020426 1_545
N15 Ti11 2.025689 1_555
N15 Ti13 2.026239 1_545
N15 Ti1 2.062648 1_555
O0 Ti10 2.026723 1_555
O0 Ti4 2.043334 1_555
O0 Ti2 2.139483 1_555
O0 Ti9 2.148681 1_555
O1 Ti15 2.033539 1_655
O1 Ti14 2.090371 1_554
O1 Ti12 2.100429 1_665
O1 Ti1 2.125823 1_665
O2 Ti3 2.013639 1_555
O2 Ti0 2.045323 1_555
O2 Ti11 2.138837 1_555
O2 Ti6 2.154848 1_656
O3 Ti3 2.026326 1_555
O3 Ti10 2.029665 1_555
O3 Ti12 2.109976 1_655
O3 Ti7 2.166151 1_544
O4 Ti2 2.046762 1_556
O4 Ti8 2.086216 1_555
O4 Ti6 2.107807 1_556
O4 Ti4 2.147705 1_556
O5 Ti0 2.017650 1_565
O5 Ti5 2.077572 1_555
O5 Ti9 2.099731 1_555
O5 Ti14 2.144944 1_555
O6 Ti4 2.024931 1_545
O6 Ti15 2.047085 1_545
O6 Ti3 2.129498 1_555
O6 Ti7 2.144866 1_544
O7 Ti10 2.090264 1_555
O7 Ti1 2.093115 1_665
O7 Ti13 2.099290 1_655
O7 Ti5 2.101285 1_555
