# generated using pymatgen
data_Li2MnFe(PO4)2
_symmetry_space_group_name_H-M   'P 1'
_cell_length_a   4.77755404
_cell_length_b   10.50909881
_cell_length_c   6.13224800
_cell_angle_alpha   90.00295562
_cell_angle_beta   89.99731353
_cell_angle_gamma   89.83090463
_symmetry_Int_Tables_number   1
_chemical_formula_structural   Li2MnFe(PO4)2
_chemical_formula_sum   'Li4 Mn2 Fe2 P4 O16'
_cell_volume   307.88526291
_cell_formula_units_Z   2
loop_
 _symmetry_equiv_pos_site_id
 _symmetry_equiv_pos_as_xyz
  1  'x, y, z'
loop_
 _atom_site_type_symbol
 _atom_site_label
 _atom_site_symmetry_multiplicity
 _atom_site_fract_x
 _atom_site_fract_y
 _atom_site_fract_z
 _atom_site_occupancy
  Li  Li0  1  0.00001100  0.00000100  0.99999600  1
  Li  Li1  1  0.00001000  0.00000000  0.50000300  1
  Li  Li2  1  0.50001400  0.49999400  0.50001000  1
  Li  Li3  1  0.50001000  0.49999500  0.99999000  1
  Mn  Mn0  1  0.47563100  0.21907300  0.75000000  1
  Mn  Mn1  1  0.52430500  0.78093100  0.25001100  1
  Fe  Fe0  1  0.02847600  0.71832500  0.74999000  1
  Fe  Fe1  1  0.97159500  0.28170100  0.25000100  1
  P  P0  1  0.08374300  0.59163100  0.25001000  1
  P  P1  1  0.91623700  0.40837300  0.74999500  1
  P  P2  1  0.40873200  0.09442300  0.25000200  1
  P  P3  1  0.59128900  0.90557200  0.74999200  1
  O  O0  1  0.20890600  0.45488300  0.25001100  1
  O  O1  1  0.79107100  0.54511900  0.74999300  1
  O  O2  1  0.23787700  0.40528700  0.75000000  1
  O  O3  1  0.76211000  0.59471500  0.25000600  1
  O  O4  1  0.26941900  0.90149500  0.75000700  1
  O  O5  1  0.73059700  0.09851800  0.24999200  1
  O  O6  1  0.28969500  0.95660200  0.24999000  1
  O  O7  1  0.71033500  0.04339200  0.75001600  1
  O  O8  1  0.21482900  0.66218600  0.04778600  1
  O  O9  1  0.21479400  0.66217500  0.45226700  1
  O  O10  1  0.78518800  0.33782700  0.54773900  1
  O  O11  1  0.78516400  0.33782300  0.95223200  1
  O  O12  1  0.27290600  0.16343200  0.04851700  1
  O  O13  1  0.27292600  0.16342700  0.45151600  1
  O  O14  1  0.72704800  0.83656200  0.54846700  1
  O  O15  1  0.72708500  0.83653600  0.95146100  1
loop_
_geom_bond_atom_site_label_1
_geom_bond_atom_site_label_2
_geom_bond_distance
_geom_bond_site_symmetry_2
Li0 O7 2.114162 1_455
Li0 O6 2.114268 1_546
Li0 O12 2.179771 1_556
Li0 O15 2.180153 1_445
Li0 O4 2.251704 1_545
Li0 O5 2.251803 1_456
Li1 O7 2.114180 1_455
Li1 O6 2.114225 1_545
Li1 O13 2.179777 1_555
Li1 O14 2.179981 1_445
Li1 O4 2.251920 1_545
Li1 O5 2.252022 1_455
Li2 O1 2.124257 1_555
Li2 O0 2.124454 1_555
Li2 O10 2.198334 1_555
Li2 O9 2.198595 1_555
Li2 O2 2.217309 1_555
Li2 O3 2.217324 1_555
Li3 O1 2.124270 1_555
Li3 O0 2.124483 1_556
Li3 O11 2.198299 1_555
Li3 O8 2.198564 1_556
Li3 O2 2.217313 1_555
Li3 O3 2.217391 1_556
Mn0 O13 2.152562 1_555
Mn0 O12 2.152737 1_556
Mn0 O7 2.157256 1_555
Mn0 O2 2.259807 1_555
Mn0 O11 2.300678 1_555
Mn0 O10 2.300865 1_555
Mn1 O14 2.152455 1_555
Mn1 O15 2.152925 1_554
Mn1 O6 2.156934 1_555
Mn1 O3 2.259947 1_555
Mn1 O8 2.300451 1_555
Mn1 O9 2.300718 1_555
Fe0 O9 2.114336 1_555
Fe0 O8 2.114885 1_556
Fe0 O1 2.147533 1_455
Fe0 O4 2.245794 1_555
Fe0 O15 2.265422 1_455
Fe0 O14 2.266001 1_455
Fe1 O10 2.114524 1_555
Fe1 O11 2.114849 1_554
Fe1 O0 2.147081 1_655
Fe1 O5 2.246047 1_555
Fe1 O12 2.265556 1_655
Fe1 O13 2.265893 1_655
O0 P0 1.554912 1_555
O1 P1 1.554898 1_555
O2 P1 1.536899 1_455
O3 P0 1.536865 1_655
O4 P3 1.538474 1_555
O5 P2 1.538456 1_555
O6 P2 1.557587 1_565
O7 P3 1.557593 1_545
O8 P0 1.575618 1_555
O9 P0 1.575642 1_555
O10 P1 1.575643 1_555
O11 P1 1.575631 1_555
O12 P2 1.571950 1_555
O13 P2 1.571920 1_555
O14 P3 1.571910 1_555
O15 P3 1.571945 1_555
