# generated using pymatgen
data_Na5GdO4
_symmetry_space_group_name_H-M   'P 1'
_cell_length_a   5.59570700
_cell_length_b   7.59843300
_cell_length_c   7.91711600
_cell_angle_alpha   90.00000000
_cell_angle_beta   90.00000000
_cell_angle_gamma   90.00000000
_symmetry_Int_Tables_number   1
_chemical_formula_structural   Na5GdO4
_chemical_formula_sum   'Na10 Gd2 O8'
_cell_volume   336.62472578
_cell_formula_units_Z   2
loop_
 _symmetry_equiv_pos_site_id
 _symmetry_equiv_pos_as_xyz
  1  'x, y, z'
loop_
 _atom_site_type_symbol
 _atom_site_label
 _atom_site_symmetry_multiplicity
 _atom_site_fract_x
 _atom_site_fract_y
 _atom_site_fract_z
 _atom_site_occupancy
  Na  Na0  1  0.25523100  0.76114500  0.80752300  1
  Na  Na1  1  0.25523100  0.23885500  0.80752300  1
  Na  Na2  1  0.79533200  0.50000000  0.00000000  1
  Na  Na3  1  0.25523100  0.23885500  0.19247700  1
  Na  Na4  1  0.25523100  0.76114500  0.19247700  1
  Na  Na5  1  0.74476900  0.26114500  0.30752300  1
  Na  Na6  1  0.74476900  0.73885500  0.30752300  1
  Na  Na7  1  0.20466800  0.00000000  0.50000000  1
  Na  Na8  1  0.74476900  0.26114500  0.69247700  1
  Na  Na9  1  0.74476900  0.73885500  0.69247700  1
  Gd  Gd0  1  0.77942800  0.00000000  0.00000000  1
  Gd  Gd1  1  0.22057200  0.50000000  0.50000000  1
  O  O0  1  0.98839800  0.00000000  0.76527800  1
  O  O1  1  0.56875200  0.23918200  0.00000000  1
  O  O2  1  0.56875200  0.76081800  0.00000000  1
  O  O3  1  0.98839800  0.00000000  0.23472200  1
  O  O4  1  0.01160200  0.50000000  0.26527800  1
  O  O5  1  0.43124800  0.26081800  0.50000000  1
  O  O6  1  0.43124800  0.73918200  0.50000000  1
  O  O7  1  0.01160200  0.50000000  0.73472200  1
loop_
_geom_bond_atom_site_label_1
_geom_bond_atom_site_label_2
_geom_bond_distance
_geom_bond_site_symmetry_2
Na0 O2 2.323787 1_556
Na0 O0 2.373861 1_465
Na0 O7 2.475510 1_555
Na0 O6 2.631672 1_555
Na1 O1 2.323787 1_556
Na1 O0 2.373861 1_455
Na1 O7 2.475510 1_555
Na1 O5 2.631672 1_555
Na2 O2 2.352673 1_555
Na2 O1 2.352673 1_555
Na2 O7 2.423951 1_654
Na2 O4 2.423951 1_655
Na3 O1 2.323787 1_555
Na3 O3 2.373861 1_455
Na3 O4 2.475510 1_555
Na3 O5 2.631672 1_555
Na4 O2 2.323787 1_555
Na4 O3 2.373861 1_465
Na4 O4 2.475510 1_555
Na4 O6 2.631672 1_555
Na5 O5 2.323787 1_555
Na5 O4 2.373861 1_655
Na5 O3 2.475510 1_555
Na5 O1 2.631672 1_555
Na6 O6 2.323787 1_555
Na6 O4 2.373861 1_655
Na6 O3 2.475510 1_565
Na6 O2 2.631672 1_555
Na7 O5 2.352673 1_555
Na7 O6 2.352673 1_545
Na7 O3 2.423951 1_455
Na7 O0 2.423951 1_455
Na8 O5 2.323787 1_555
Na8 O7 2.373861 1_655
Na8 O0 2.475510 1_555
Na8 O1 2.631672 1_556
Na9 O6 2.323787 1_555
Na9 O7 2.373861 1_655
Na9 O0 2.475510 1_565
Na9 O2 2.631672 1_556
Gd0 O1 2.166272 1_555
Gd0 O2 2.166272 1_545
Gd0 O0 2.195610 1_554
Gd0 O3 2.195610 1_555
Gd1 O6 2.166272 1_555
Gd1 O5 2.166272 1_555
Gd1 O4 2.195610 1_555
Gd1 O7 2.195610 1_555
