# generated using pymatgen
data_LiMn(PO3)3
_symmetry_space_group_name_H-M   'P 1'
_cell_length_a   6.19127002
_cell_length_b   9.99037143
_cell_length_c   11.71988359
_cell_angle_alpha   90.00565197
_cell_angle_beta   100.14520368
_cell_angle_gamma   89.99070682
_symmetry_Int_Tables_number   1
_chemical_formula_structural   LiMn(PO3)3
_chemical_formula_sum   'Li4 Mn4 P12 O36'
_cell_volume   713.57663740
_cell_formula_units_Z   4
loop_
 _symmetry_equiv_pos_site_id
 _symmetry_equiv_pos_as_xyz
  1  'x, y, z'
loop_
 _atom_site_type_symbol
 _atom_site_label
 _atom_site_symmetry_multiplicity
 _atom_site_fract_x
 _atom_site_fract_y
 _atom_site_fract_z
 _atom_site_occupancy
  Li  Li0  1  0.75360300  0.50001500  0.24998300  1
  Li  Li1  1  0.50286700  0.00000100  0.50000400  1
  Li  Li2  1  0.25295200  0.50002200  0.75000700  1
  Li  Li3  1  0.00355200  0.00001000  0.00000800  1
  Mn  Mn0  1  0.99773500  0.99999400  0.49995700  1
  Mn  Mn1  1  0.74789400  0.49998000  0.75001700  1
  Mn  Mn2  1  0.24852300  0.49997800  0.25002000  1
  Mn  Mn3  1  0.49838600  0.99998900  0.99999800  1
  P  P0  1  0.39439600  0.28160400  0.59630800  1
  P  P1  1  0.14434700  0.78156600  0.84635600  1
  P  P2  1  0.89441700  0.28158500  0.09633400  1
  P  P3  1  0.64430600  0.78154300  0.34630400  1
  P  P4  1  0.16658000  0.26289400  0.91301800  1
  P  P5  1  0.91644700  0.76292600  0.16300000  1
  P  P6  1  0.66654600  0.26292600  0.41299600  1
  P  P7  1  0.41644600  0.76294100  0.66302300  1
  P  P8  1  0.27570300  0.95549400  0.24063500  1
  P  P9  1  0.02574300  0.45552000  0.49062900  1
  P  P10  1  0.77568900  0.95550000  0.74068000  1
  P  P11  1  0.52573300  0.45550600  0.99067800  1
  O  O0  1  0.26831800  0.39821900  0.51651300  1
  O  O1  1  0.01823200  0.89819000  0.76659600  1
  O  O2  1  0.76831100  0.39822100  0.01655200  1
  O  O3  1  0.51827500  0.89816900  0.26652800  1
  O  O4  1  0.10969700  0.28432300  0.04041700  1
  O  O5  1  0.85965400  0.78439900  0.29042300  1
  O  O6  1  0.60970800  0.28434800  0.54040000  1
  O  O7  1  0.35966100  0.78442900  0.79043300  1
  O  O8  1  0.16039800  0.81742500  0.19301300  1
  O  O9  1  0.91048900  0.31739900  0.44299900  1
  O  O10  1  0.66043200  0.81741500  0.69303800  1
  O  O11  1  0.41054400  0.31738400  0.94304100  1
  O  O12  1  0.52657900  0.34994000  0.32403100  1
  O  O13  1  0.27653400  0.84993300  0.57401800  1
  O  O14  1  0.02658400  0.34990100  0.82405300  1
  O  O15  1  0.77654800  0.84992000  0.07398400  1
  O  O16  1  0.52729600  0.64900600  0.32557300  1
  O  O17  1  0.27721900  0.14910800  0.57558500  1
  O  O18  1  0.02730500  0.64903400  0.82562700  1
  O  O19  1  0.77726100  0.14907800  0.07562400  1
  O  O20  1  0.45200100  0.50097400  0.10042500  1
  O  O21  1  0.20195700  0.00102000  0.35035700  1
  O  O22  1  0.95198200  0.50100200  0.60036100  1
  O  O23  1  0.70195900  0.00102900  0.85040100  1
  O  O24  1  0.02306300  0.54574600  0.38719800  1
  O  O25  1  0.77301900  0.04572500  0.63723300  1
  O  O26  1  0.52294400  0.54572400  0.88722200  1
  O  O27  1  0.27307300  0.04575400  0.13723700  1
  O  O28  1  0.96600700  0.33994200  0.21571900  1
  O  O29  1  0.71569000  0.83993000  0.46568800  1
  O  O30  1  0.46591400  0.33998000  0.71570600  1
  O  O31  1  0.21585600  0.83989000  0.96573900  1
  O  O32  1  0.94292200  0.61437600  0.14707900  1
  O  O33  1  0.69290600  0.11434700  0.39705600  1
  O  O34  1  0.44284000  0.61436900  0.64711900  1
  O  O35  1  0.19299100  0.11434300  0.89705400  1
loop_
_geom_bond_atom_site_label_1
_geom_bond_atom_site_label_2
_geom_bond_distance
_geom_bond_site_symmetry_2
Li0 O32 2.152300 1_555
Li0 O24 2.152451 1_655
Li0 O28 2.152498 1_555
Li0 O16 2.323767 1_555
Li0 O20 2.325118 1_555
Li0 O12 2.325366 1_555
Li1 O29 2.154334 1_545
Li1 O25 2.155295 1_555
Li1 O33 2.155430 1_555
Li1 O17 2.321727 1_555
Li1 O13 2.322265 1_545
Li1 O21 2.322891 1_555
Li2 O34 2.154371 1_555
Li2 O26 2.154510 1_555
Li2 O30 2.154622 1_555
Li2 O18 2.321337 1_555
Li2 O14 2.322931 1_555
Li2 O22 2.323131 1_455
Li3 O31 2.152466 1_544
Li3 O27 2.152822 1_555
Li3 O35 2.153015 1_554
Li3 O19 2.324342 1_455
Li3 O15 2.324975 1_445
Li3 O23 2.325435 1_454
Mn0 O13 2.334950 1_655
Mn0 O21 2.335340 1_665
Mn0 O17 2.336505 1_665
Mn0 O33 2.349282 1_565
Mn0 O25 2.349682 1_565
Mn0 O29 2.349767 1_555
Mn1 O14 2.334540 1_655
Mn1 O22 2.335337 1_555
Mn1 O18 2.335766 1_655
Mn1 O30 2.349065 1_555
Mn1 O26 2.350084 1_555
Mn1 O34 2.350437 1_555
Mn2 O12 2.331564 1_555
Mn2 O20 2.332189 1_555
Mn2 O16 2.332774 1_555
Mn2 O28 2.351672 1_455
Mn2 O24 2.352134 1_555
Mn2 O32 2.353084 1_455
Mn3 O15 2.332133 1_556
Mn3 O23 2.332606 1_565
Mn3 O19 2.333801 1_566
Mn3 O35 2.351973 1_565
Mn3 O27 2.352042 1_566
Mn3 O31 2.352143 1_555
O0 P9 1.585728 1_555
O0 P0 1.607460 1_555
O1 P10 1.585589 1_455
O1 P1 1.607410 1_555
O2 P11 1.585685 1_554
O2 P2 1.607603 1_555
O3 P8 1.585800 1_555
O3 P3 1.607318 1_555
O4 P2 1.585704 1_455
O4 P4 1.607598 1_554
O5 P3 1.585872 1_555
O5 P5 1.607715 1_555
O6 P0 1.585826 1_555
O6 P6 1.607539 1_555
O7 P1 1.585957 1_555
O7 P7 1.607569 1_555
O8 P5 1.585701 1_455
O8 P8 1.607350 1_555
O9 P6 1.585560 1_555
O9 P9 1.607700 1_655
O10 P7 1.585814 1_555
O10 P10 1.607436 1_555
O11 P4 1.585750 1_555
O11 P11 1.607576 1_555
O12 P6 1.508444 1_555
O13 P7 1.508440 1_555
O14 P4 1.508485 1_555
O15 P5 1.508491 1_555
O16 P3 1.508413 1_555
O17 P0 1.508514 1_555
O18 P1 1.508457 1_555
O19 P2 1.508540 1_555
O20 P11 1.508560 1_554
O21 P8 1.508509 1_545
O22 P9 1.508525 1_655
O23 P10 1.508462 1_545
O24 P9 1.508421 1_555
O25 P10 1.508573 1_545
O26 P11 1.508520 1_555
O27 P8 1.508354 1_545
O28 P2 1.508477 1_555
O29 P3 1.508416 1_555
O30 P0 1.508625 1_555
O31 P1 1.508263 1_555
O32 P5 1.508240 1_555
O33 P6 1.508464 1_555
O34 P7 1.508363 1_555
O35 P4 1.508270 1_555
