# generated using pymatgen
data_FeOF
_symmetry_space_group_name_H-M   'P 1'
_cell_length_a   6.25934900
_cell_length_b   9.45679051
_cell_length_c   9.46212181
_cell_angle_alpha   90.38815914
_cell_angle_beta   90.21974053
_cell_angle_gamma   90.01875165
_symmetry_Int_Tables_number   1
_chemical_formula_structural   FeOF
_chemical_formula_sum   'Fe16 O16 F16'
_cell_volume   560.07770162
_cell_formula_units_Z   16
loop_
 _symmetry_equiv_pos_site_id
 _symmetry_equiv_pos_as_xyz
  1  'x, y, z'
loop_
 _atom_site_type_symbol
 _atom_site_label
 _atom_site_symmetry_multiplicity
 _atom_site_fract_x
 _atom_site_fract_y
 _atom_site_fract_z
 _atom_site_occupancy
  Fe  Fe0  1  0.48038000  0.74160300  0.74151000  1
  Fe  Fe1  1  0.01714900  0.75837200  0.75850200  1
  Fe  Fe2  1  0.48109200  0.25066200  0.74919900  1
  Fe  Fe3  1  0.01825200  0.24968700  0.75038000  1
  Fe  Fe4  1  0.23021500  0.00812800  0.98995800  1
  Fe  Fe5  1  0.76978500  0.99187200  0.01004200  1
  Fe  Fe6  1  0.27466200  0.50888500  0.98968600  1
  Fe  Fe7  1  0.72533800  0.49111500  0.01031400  1
  Fe  Fe8  1  0.51962000  0.25839700  0.25849000  1
  Fe  Fe9  1  0.98285100  0.24162800  0.24149800  1
  Fe  Fe10  1  0.51890800  0.74933800  0.25080100  1
  Fe  Fe11  1  0.98174800  0.75031300  0.24962000  1
  Fe  Fe12  1  0.27461100  0.99111900  0.51043300  1
  Fe  Fe13  1  0.72538900  0.00888100  0.48956700  1
  Fe  Fe14  1  0.26821000  0.49189700  0.50960100  1
  Fe  Fe15  1  0.73179000  0.50810300  0.49039900  1
  O  O0  1  0.24661700  0.15286300  0.84644800  1
  O  O1  1  0.24814800  0.65306600  0.84656000  1
  O  O2  1  0.99598000  0.90256900  0.90303400  1
  O  O3  1  0.50303300  0.40054600  0.89956300  1
  O  O4  1  0.00402000  0.09743100  0.09696600  1
  O  O5  1  0.49696700  0.59945400  0.10043700  1
  O  O6  1  0.75185200  0.34693400  0.15344000  1
  O  O7  1  0.75338300  0.84713700  0.15355200  1
  O  O8  1  0.75256600  0.15262300  0.34611500  1
  O  O9  1  0.75988600  0.65234000  0.34720300  1
  O  O10  1  0.49631800  0.89977800  0.40047000  1
  O  O11  1  0.49636200  0.40281600  0.40304300  1
  O  O12  1  0.50368200  0.10022200  0.59953000  1
  O  O13  1  0.50363800  0.59718400  0.59695700  1
  O  O14  1  0.24743400  0.84737700  0.65388500  1
  O  O15  1  0.24011400  0.34766000  0.65279700  1
  F  F0  1  0.75502000  0.15381900  0.84688600  1
  F  F1  1  0.75324500  0.65328100  0.84720300  1
  F  F2  1  0.50348900  0.90393000  0.90337600  1
  F  F3  1  0.99630200  0.40467500  0.90439600  1
  F  F4  1  0.49651100  0.09607000  0.09662400  1
  F  F5  1  0.00369800  0.59532500  0.09560400  1
  F  F6  1  0.24498000  0.84618100  0.15311400  1
  F  F7  1  0.24675500  0.34671900  0.15279700  1
  F  F8  1  0.24631600  0.15354000  0.34731700  1
  F  F9  1  0.23853600  0.65301500  0.34779100  1
  F  F10  1  0.00396100  0.90484100  0.40416100  1
  F  F11  1  0.00329100  0.40350500  0.40296300  1
  F  F12  1  0.99603900  0.09515900  0.59583900  1
  F  F13  1  0.99670900  0.59649500  0.59703700  1
  F  F14  1  0.75368400  0.84646000  0.65268300  1
  F  F15  1  0.76146400  0.34698500  0.65220900  1
loop_
_geom_bond_atom_site_label_1
_geom_bond_atom_site_label_2
_geom_bond_distance
_geom_bond_site_symmetry_2
Fe0 O13 1.932254 1_555
Fe0 O14 1.953701 1_555
Fe0 O1 1.955412 1_555
Fe1 O2 1.929660 1_455
Fe1 O1 1.944109 1_555
Fe1 O14 1.946159 1_555
Fe2 O0 1.969045 1_555
Fe2 O15 1.987543 1_555
Fe2 O3 2.005804 1_555
Fe2 O12 2.005982 1_555
Fe3 O15 1.913135 1_555
Fe3 O0 1.926161 1_555
Fe4 O4 1.934733 1_556
Fe4 O0 1.937533 1_555
Fe4 O2 1.949685 1_445
Fe5 O2 1.934733 1_554
Fe5 O7 1.937533 1_555
Fe5 O4 1.949685 1_665
Fe6 O5 1.934905 1_556
Fe6 O1 1.934981 1_555
Fe6 O3 1.954144 1_555
Fe7 O3 1.934905 1_554
Fe7 O6 1.934981 1_555
Fe7 O5 1.954144 1_555
Fe8 O11 1.932254 1_555
Fe8 O8 1.953701 1_555
Fe8 O6 1.955412 1_555
Fe9 O4 1.929660 1_655
Fe9 O6 1.944109 1_555
Fe9 O8 1.946159 1_555
Fe10 O7 1.969045 1_555
Fe10 O9 1.987543 1_555
Fe10 O5 2.005804 1_555
Fe10 O10 2.005982 1_555
Fe11 O9 1.913135 1_555
Fe11 O7 1.926161 1_555
Fe12 O14 1.935403 1_555
Fe12 O10 1.937589 1_555
Fe12 O12 1.951698 1_565
Fe13 O8 1.935403 1_555
Fe13 O12 1.937589 1_555
Fe13 O10 1.951698 1_545
Fe14 O15 1.937536 1_555
Fe14 O11 1.940622 1_555
Fe14 O13 1.955688 1_555
Fe15 O9 1.937536 1_555
Fe15 O13 1.940622 1_555
Fe15 O11 1.955688 1_555
F0 Fe3 2.095792 1_655
F0 Fe2 2.152520 1_555
F0 Fe5 2.183664 1_546
F1 Fe1 2.107519 1_655
F1 Fe0 2.148036 1_555
F1 Fe7 2.190507 1_556
F2 Fe5 2.112693 1_556
F2 Fe4 2.137504 1_565
F2 Fe0 2.165529 1_555
F3 Fe3 2.064855 1_655
F3 Fe7 2.133565 1_556
F3 Fe6 2.153042 1_655
F4 Fe4 2.112693 1_554
F4 Fe5 2.137504 1_545
F4 Fe8 2.165529 1_555
F5 Fe11 2.064855 1_455
F5 Fe6 2.133565 1_554
F5 Fe7 2.153042 1_455
F6 Fe11 2.095792 1_455
F6 Fe10 2.152520 1_555
F6 Fe4 2.183664 1_564
F7 Fe9 2.107519 1_455
F7 Fe8 2.148036 1_555
F7 Fe6 2.190507 1_554
F8 Fe9 2.101336 1_455
F8 Fe8 2.153472 1_555
F8 Fe12 2.191567 1_545
F9 Fe11 2.072219 1_455
F9 Fe14 2.174813 1_555
F9 Fe10 2.185052 1_555
F10 Fe11 2.064577 1_455
F10 Fe12 2.126435 1_555
F10 Fe13 2.159321 1_465
F11 Fe14 2.107460 1_555
F11 Fe15 2.133480 1_455
F11 Fe9 2.158863 1_455
F12 Fe3 2.064577 1_655
F12 Fe13 2.126435 1_555
F12 Fe12 2.159321 1_645
F13 Fe15 2.107460 1_555
F13 Fe14 2.133480 1_655
F13 Fe1 2.158863 1_655
F14 Fe1 2.101336 1_655
F14 Fe0 2.153472 1_555
F14 Fe13 2.191567 1_565
F15 Fe3 2.072219 1_655
F15 Fe15 2.174813 1_555
F15 Fe2 2.185052 1_555
