# generated using pymatgen
data_BaLaI5
_symmetry_space_group_name_H-M   'P 1'
_cell_length_a   11.49241400
_cell_length_b   8.90752700
_cell_length_c   14.58514140
_cell_angle_alpha   62.40017369
_cell_angle_beta   90.00000000
_cell_angle_gamma   90.00000000
_symmetry_Int_Tables_number   1
_chemical_formula_structural   BaLaI5
_chemical_formula_sum   'Ba4 La4 I20'
_cell_volume   1323.16267672
_cell_formula_units_Z   4
loop_
 _symmetry_equiv_pos_site_id
 _symmetry_equiv_pos_as_xyz
  1  'x, y, z'
loop_
 _atom_site_type_symbol
 _atom_site_label
 _atom_site_symmetry_multiplicity
 _atom_site_fract_x
 _atom_site_fract_y
 _atom_site_fract_z
 _atom_site_occupancy
  Ba  Ba0  1  0.46890900  0.86751600  0.29634200  1
  Ba  Ba1  1  0.03109100  0.86751600  0.79634200  1
  Ba  Ba2  1  0.96890900  0.13248400  0.20365800  1
  Ba  Ba3  1  0.53109100  0.13248400  0.70365800  1
  La  La0  1  0.65539700  0.50516500  0.13894600  1
  La  La1  1  0.15539700  0.49483500  0.36105400  1
  La  La2  1  0.84460300  0.50516500  0.63894600  1
  La  La3  1  0.34460300  0.49483500  0.86105400  1
  I  I0  1  0.70228300  0.85193800  0.14658800  1
  I  I1  1  0.18805700  0.87819300  0.17542200  1
  I  I2  1  0.17593800  0.54680100  0.01334300  1
  I  I3  1  0.92377100  0.48093800  0.24417000  1
  I  I4  1  0.47949400  0.26073300  0.07539600  1
  I  I5  1  0.97949400  0.73926700  0.42460400  1
  I  I6  1  0.42377100  0.51906200  0.25583000  1
  I  I7  1  0.79771700  0.85193800  0.64658800  1
  I  I8  1  0.67593800  0.45319900  0.48665700  1
  I  I9  1  0.31194300  0.87819300  0.67542200  1
  I  I10  1  0.68805700  0.12180700  0.32457800  1
  I  I11  1  0.32406200  0.54680100  0.51334300  1
  I  I12  1  0.20228300  0.14806200  0.35341200  1
  I  I13  1  0.57622900  0.48093800  0.74417000  1
  I  I14  1  0.02050600  0.26073300  0.57539600  1
  I  I15  1  0.52050600  0.73926700  0.92460400  1
  I  I16  1  0.07622900  0.51906200  0.75583000  1
  I  I17  1  0.82406200  0.45319900  0.98665700  1
  I  I18  1  0.81194300  0.12180700  0.82457800  1
  I  I19  1  0.29771700  0.14806200  0.85341200  1
loop_
_geom_bond_atom_site_label_1
_geom_bond_atom_site_label_2
_geom_bond_distance
_geom_bond_site_symmetry_2
Ba0 I6 3.457101 1_555
Ba0 I4 3.494147 1_565
Ba0 I0 3.502004 1_555
Ba0 I10 3.536621 1_565
Ba0 I11 3.545628 1_555
Ba0 I1 3.658124 1_555
Ba1 I16 3.457101 1_555
Ba1 I14 3.494147 1_565
Ba1 I7 3.502004 1_455
Ba1 I18 3.536621 1_465
Ba1 I2 3.545628 1_556
Ba1 I9 3.658124 1_555
Ba2 I3 3.457101 1_555
Ba2 I5 3.494147 1_545
Ba2 I12 3.502004 1_655
Ba2 I1 3.536621 1_645
Ba2 I17 3.545628 1_554
Ba2 I10 3.658124 1_555
Ba3 I13 3.457101 1_555
Ba3 I15 3.494147 1_545
Ba3 I19 3.502004 1_555
Ba3 I9 3.536621 1_545
Ba3 I8 3.545628 1_555
Ba3 I18 3.658124 1_555
I0 La0 3.187949 1_555
I1 La1 3.250428 1_555
I2 La3 3.139704 1_554
I3 La1 3.194219 1_655
I3 La0 3.407009 1_555
I4 La3 3.237949 1_554
I4 La0 3.399454 1_555
I5 La2 3.237949 1_555
I5 La1 3.399454 1_655
I6 La0 3.194219 1_555
I6 La1 3.407009 1_555
I7 La2 3.187949 1_555
I8 La2 3.139704 1_555
I9 La3 3.250428 1_555
I10 La0 3.250428 1_555
I11 La1 3.139704 1_555
I12 La1 3.187949 1_555
I13 La3 3.194219 1_555
I13 La2 3.407009 1_555
I14 La1 3.237949 1_555
I14 La2 3.399454 1_455
I15 La0 3.237949 1_556
I15 La3 3.399454 1_555
I16 La2 3.194219 1_455
I16 La3 3.407009 1_555
I17 La0 3.139704 1_556
I18 La2 3.250428 1_555
I19 La3 3.187949 1_555
