# generated using pymatgen
data_Fe7O9
_symmetry_space_group_name_H-M   'P 1'
_cell_length_a   8.58476700
_cell_length_b   8.62024223
_cell_length_c   8.77775059
_cell_angle_alpha   89.30478182
_cell_angle_beta   88.95292918
_cell_angle_gamma   89.39269702
_symmetry_Int_Tables_number   1
_chemical_formula_structural   Fe7O9
_chemical_formula_sum   'Fe21 O27'
_cell_volume   649.38660317
_cell_formula_units_Z   3
loop_
 _symmetry_equiv_pos_site_id
 _symmetry_equiv_pos_as_xyz
  1  'x, y, z'
loop_
 _atom_site_type_symbol
 _atom_site_label
 _atom_site_symmetry_multiplicity
 _atom_site_fract_x
 _atom_site_fract_y
 _atom_site_fract_z
 _atom_site_occupancy
  Fe  Fe0  1  0.51257300  0.48992300  0.96891400  1
  Fe  Fe1  1  0.63429000  0.17730100  0.08502600  1
  Fe  Fe2  1  0.32838300  0.91763200  0.12800400  1
  Fe  Fe3  1  0.08778800  0.62946300  0.14377000  1
  Fe  Fe4  1  0.75555700  0.75663600  0.25772300  1
  Fe  Fe5  1  0.26942900  0.26426800  0.26996200  1
  Fe  Fe6  1  0.90485800  0.12975200  0.35699300  1
  Fe  Fe7  1  0.62981500  0.40327300  0.36293800  1
  Fe  Fe8  1  0.35635400  0.62723900  0.41175100  1
  Fe  Fe9  1  0.49100400  0.96543500  0.47108700  1
  Fe  Fe10  1  0.96388900  0.51809000  0.46999600  1
  Fe  Fe11  1  0.87767400  0.87187800  0.60046800  1
  Fe  Fe12  1  0.14462700  0.08511500  0.62981300  1
  Fe  Fe13  1  0.62774700  0.61923300  0.63098100  1
  Fe  Fe14  1  0.40352100  0.33161200  0.64232000  1
  Fe  Fe15  1  0.77385200  0.23817200  0.73772800  1
  Fe  Fe16  1  0.24588100  0.73463300  0.77737700  1
  Fe  Fe17  1  0.59091800  0.88160200  0.84133100  1
  Fe  Fe18  1  0.87406500  0.59397900  0.87567100  1
  Fe  Fe19  1  0.13845900  0.36092400  0.91384500  1
  Fe  Fe20  1  0.00437700  0.03394300  0.00844700  1
  O  O0  1  0.15779600  0.39088800  0.12972500  1
  O  O1  1  0.85842600  0.67031000  0.08138000  1
  O  O2  1  0.11981800  0.86754900  0.11253800  1
  O  O3  1  0.40796400  0.11891800  0.16624000  1
  O  O4  1  0.59431800  0.39414700  0.14921200  1
  O  O5  1  0.85043300  0.12158500  0.14402500  1
  O  O6  1  0.14200300  0.61055700  0.37020200  1
  O  O7  1  0.41001000  0.82229100  0.30855000  1
  O  O8  1  0.62012300  0.62133900  0.40082300  1
  O  O9  1  0.84359000  0.34721800  0.38499200  1
  O  O10  1  0.12738100  0.14551100  0.39502100  1
  O  O11  1  0.39637400  0.39164500  0.40441500  1
  O  O12  1  0.79226500  0.93304000  0.38666800  1
  O  O13  1  0.38411300  0.63024200  0.63145100  1
  O  O14  1  0.90373900  0.11189200  0.60893300  1
  O  O15  1  0.63857300  0.38384000  0.62520600  1
  O  O16  1  0.36785900  0.10820300  0.59886000  1
  O  O17  1  0.11339900  0.86611800  0.66159100  1
  O  O18  1  0.86558300  0.63797800  0.64188700  1
  O  O19  1  0.62177600  0.85759500  0.62968400  1
  O  O20  1  0.35490100  0.38522000  0.85502100  1
  O  O21  1  0.12228200  0.14794900  0.84562000  1
  O  O22  1  0.89539900  0.37243700  0.85990100  1
  O  O23  1  0.64291100  0.65072400  0.86023300  1
  O  O24  1  0.38710500  0.83908800  0.92060100  1
  O  O25  1  0.67189400  0.08295200  0.87097400  1
  O  O26  1  0.10700600  0.59856200  0.88420600  1
loop_
_geom_bond_atom_site_label_1
_geom_bond_atom_site_label_2
_geom_bond_distance
_geom_bond_site_symmetry_2
Fe0 O4 1.917124 1_556
Fe0 O20 1.934811 1_555
Fe0 O23 2.011274 1_555
Fe1 O4 1.983489 1_555
Fe1 O5 1.987985 1_555
Fe1 O25 2.074918 1_554
Fe1 O3 2.120839 1_555
Fe2 O2 1.854006 1_555
Fe2 O3 1.907280 1_565
Fe2 O7 1.916985 1_555
Fe2 O24 2.004002 1_554
Fe3 O6 2.053760 1_555
Fe3 O1 2.078693 1_455
Fe3 O2 2.087701 1_555
Fe3 O0 2.140828 1_555
Fe3 O26 2.299844 1_554
Fe4 O1 1.921895 1_555
Fe4 O12 1.938481 1_555
Fe4 O8 2.056608 1_555
Fe5 O0 1.900893 1_555
Fe5 O10 1.921026 1_555
Fe5 O3 1.941580 1_555
Fe5 O11 1.972303 1_555
Fe6 O5 1.937434 1_555
Fe6 O10 1.951681 1_655
Fe6 O9 1.958766 1_555
Fe6 O12 1.972911 1_545
Fe6 O14 2.214807 1_555
Fe7 O9 1.905484 1_555
Fe7 O4 1.908805 1_555
Fe7 O8 1.913617 1_555
Fe7 O11 2.033585 1_555
Fe7 O15 2.308720 1_555
Fe8 O6 1.889779 1_555
Fe8 O13 1.947974 1_555
Fe8 O7 1.955525 1_555
Fe8 O11 2.057722 1_555
Fe8 O8 2.264732 1_555
Fe9 O16 1.962829 1_565
Fe9 O19 2.016459 1_555
Fe9 O7 2.034386 1_555
Fe9 O12 2.689882 1_555
Fe10 O6 1.923708 1_655
Fe10 O9 1.969763 1_555
Fe10 O18 2.007389 1_555
Fe11 O18 2.047825 1_555
Fe11 O14 2.085765 1_565
Fe11 O12 2.087008 1_555
Fe11 O17 2.102941 1_655
Fe11 O19 2.211638 1_555
Fe12 O17 1.925801 1_545
Fe12 O16 1.942612 1_555
Fe12 O21 1.981909 1_555
Fe12 O14 2.089514 1_455
Fe12 O10 2.126958 1_555
Fe13 O8 2.022380 1_555
Fe13 O15 2.031492 1_555
Fe13 O23 2.040499 1_555
Fe13 O18 2.053923 1_555
Fe13 O19 2.054733 1_555
Fe13 O13 2.092619 1_555
Fe14 O20 1.965186 1_555
Fe14 O16 1.995673 1_555
Fe14 O15 2.074509 1_555
Fe14 O11 2.147144 1_555
Fe14 O13 2.578608 1_555
Fe15 O14 1.914280 1_555
Fe15 O22 1.917037 1_555
Fe15 O25 1.968212 1_555
Fe15 O15 1.970258 1_555
Fe16 O17 1.896865 1_555
Fe16 O26 1.907517 1_555
Fe16 O13 1.951538 1_555
Fe16 O24 1.991847 1_555
Fe17 O19 1.885351 1_555
Fe17 O25 1.899132 1_565
Fe17 O24 1.908606 1_555
Fe17 O23 2.040492 1_555
Fe18 O22 1.922994 1_555
Fe18 O1 1.931190 1_556
Fe18 O26 2.003340 1_655
Fe18 O23 2.045271 1_555
Fe18 O18 2.084766 1_555
Fe19 O0 1.925969 1_556
Fe19 O20 1.932249 1_555
Fe19 O21 1.945138 1_555
Fe19 O26 2.077220 1_555
Fe19 O22 2.149091 1_455
Fe20 O5 1.917490 1_455
Fe20 O2 1.960996 1_545
Fe20 O21 1.991792 1_554
