# generated using pymatgen
data_ScTlO3
_symmetry_space_group_name_H-M   'P 1'
_cell_length_a   5.51815300
_cell_length_b   5.68151600
_cell_length_c   8.17784500
_cell_angle_alpha   90.00000000
_cell_angle_beta   90.00000000
_cell_angle_gamma   90.00000000
_symmetry_Int_Tables_number   1
_chemical_formula_structural   ScTlO3
_chemical_formula_sum   'Sc4 Tl4 O12'
_cell_volume   256.38749947
_cell_formula_units_Z   4
loop_
 _symmetry_equiv_pos_site_id
 _symmetry_equiv_pos_as_xyz
  1  'x, y, z'
loop_
 _atom_site_type_symbol
 _atom_site_label
 _atom_site_symmetry_multiplicity
 _atom_site_fract_x
 _atom_site_fract_y
 _atom_site_fract_z
 _atom_site_occupancy
  Sc  Sc0  1  0.00000000  0.50000000  0.50000000  1
  Sc  Sc1  1  0.00000000  0.50000000  0.00000000  1
  Sc  Sc2  1  0.50000000  0.00000000  0.50000000  1
  Sc  Sc3  1  0.50000000  0.00000000  0.00000000  1
  Tl  Tl0  1  0.01946600  0.94724300  0.75000000  1
  Tl  Tl1  1  0.48053400  0.44724300  0.75000000  1
  Tl  Tl2  1  0.51946600  0.55275700  0.25000000  1
  Tl  Tl3  1  0.98053400  0.05275700  0.25000000  1
  O  O0  1  0.12235500  0.43656400  0.25000000  1
  O  O1  1  0.18896600  0.19206000  0.56589800  1
  O  O2  1  0.18896600  0.19206000  0.93410200  1
  O  O3  1  0.31103400  0.69206000  0.56589800  1
  O  O4  1  0.31103400  0.69206000  0.93410200  1
  O  O5  1  0.37764500  0.93656400  0.25000000  1
  O  O6  1  0.62235500  0.06343600  0.75000000  1
  O  O7  1  0.68896600  0.30794000  0.06589800  1
  O  O8  1  0.68896600  0.30794000  0.43410200  1
  O  O9  1  0.81103400  0.80794000  0.06589800  1
  O  O10  1  0.81103400  0.80794000  0.43410200  1
  O  O11  1  0.87764500  0.56343600  0.75000000  1
loop_
_geom_bond_atom_site_label_1
_geom_bond_atom_site_label_2
_geom_bond_distance
_geom_bond_site_symmetry_2
O0 Sc0 2.183020 1_555
O0 Sc1 2.183020 1_555
O0 Tl2 2.288598 1_555
O0 Tl3 2.316784 1_455
O1 Sc2 2.104024 1_555
O1 Sc0 2.106825 1_555
O1 Tl0 2.253049 1_545
O1 Tl1 2.637672 1_555
O2 Sc3 2.104024 1_556
O2 Sc1 2.106825 1_556
O2 Tl0 2.253049 1_545
O2 Tl1 2.637672 1_555
O3 Sc0 2.104024 1_555
O3 Sc2 2.106825 1_565
O3 Tl1 2.253049 1_555
O3 Tl0 2.637672 1_555
O4 Sc1 2.104024 1_556
O4 Sc3 2.106825 1_566
O4 Tl1 2.253049 1_555
O4 Tl0 2.637672 1_555
O5 Sc2 2.183020 1_565
O5 Sc3 2.183020 1_565
O5 Tl3 2.288598 1_465
O5 Tl2 2.316784 1_555
O6 Sc2 2.183020 1_555
O6 Sc3 2.183020 1_556
O6 Tl0 2.288598 1_645
O6 Tl1 2.316784 1_555
O7 Sc1 2.104024 1_655
O7 Sc3 2.106825 1_555
O7 Tl2 2.253049 1_555
O7 Tl3 2.637672 1_555
O8 Sc0 2.104024 1_655
O8 Sc2 2.106825 1_555
O8 Tl2 2.253049 1_555
O8 Tl3 2.637672 1_555
O9 Sc3 2.104024 1_565
O9 Sc1 2.106825 1_655
O9 Tl3 2.253049 1_565
O9 Tl2 2.637672 1_555
O10 Sc2 2.104024 1_565
O10 Sc0 2.106825 1_655
O10 Tl3 2.253049 1_565
O10 Tl2 2.637672 1_555
O11 Sc0 2.183020 1_655
O11 Sc1 2.183020 1_656
O11 Tl1 2.288598 1_555
O11 Tl0 2.316784 1_655
