# generated using pymatgen
data_MnOF
_symmetry_space_group_name_H-M   'P 1'
_cell_length_a   10.26853800
_cell_length_b   4.61918500
_cell_length_c   7.08885857
_cell_angle_alpha   53.16566864
_cell_angle_beta   90.00000000
_cell_angle_gamma   90.00000000
_symmetry_Int_Tables_number   1
_chemical_formula_structural   MnOF
_chemical_formula_sum   'Mn8 O8 F8'
_cell_volume   269.11774156
_cell_formula_units_Z   8
loop_
 _symmetry_equiv_pos_site_id
 _symmetry_equiv_pos_as_xyz
  1  'x, y, z'
loop_
 _atom_site_type_symbol
 _atom_site_label
 _atom_site_symmetry_multiplicity
 _atom_site_fract_x
 _atom_site_fract_y
 _atom_site_fract_z
 _atom_site_occupancy
  Mn  Mn0  1  0.74888800  0.85306900  0.14950200  1
  Mn  Mn1  1  0.49002000  0.09381300  0.85658100  1
  Mn  Mn2  1  0.24761900  0.84999900  0.14994200  1
  Mn  Mn3  1  0.98702300  0.17870600  0.84142400  1
  Mn  Mn4  1  0.01297700  0.17870600  0.34142400  1
  Mn  Mn5  1  0.50998000  0.09381300  0.35658100  1
  Mn  Mn6  1  0.25111200  0.85306900  0.64950200  1
  Mn  Mn7  1  0.75238100  0.84999900  0.64994200  1
  O  O0  1  0.07883000  0.69348700  0.11251700  1
  O  O1  1  0.32852500  0.85549000  0.89207000  1
  O  O2  1  0.82972000  0.91451200  0.88141400  1
  O  O3  1  0.58304100  0.07943400  0.61789100  1
  O  O4  1  0.17028000  0.91451200  0.38141400  1
  O  O5  1  0.67147500  0.85549000  0.39207000  1
  O  O6  1  0.92117000  0.69348700  0.61251700  1
  O  O7  1  0.41695900  0.07943400  0.11789100  1
  F  F0  1  0.59836700  0.61677500  0.12059400  1
  F  F1  1  0.35311800  0.32460000  0.38590800  1
  F  F2  1  0.85110900  0.37505800  0.38069300  1
  F  F3  1  0.10566300  0.16505700  0.61146500  1
  F  F4  1  0.40163300  0.61677500  0.62059400  1
  F  F5  1  0.14889100  0.37505800  0.88069300  1
  F  F6  1  0.89433700  0.16505700  0.11146500  1
  F  F7  1  0.64688200  0.32460000  0.88590800  1
loop_
_geom_bond_atom_site_label_1
_geom_bond_atom_site_label_2
_geom_bond_distance
_geom_bond_site_symmetry_2
Mn0 O5 1.900490 1_555
Mn0 O2 1.932471 1_554
Mn1 O1 1.921752 1_545
Mn1 O7 1.962418 1_556
Mn1 O3 1.978521 1_555
Mn2 O0 1.956288 1_555
Mn2 O7 1.977315 1_565
Mn2 O1 1.994218 1_554
Mn2 O4 1.999559 1_555
Mn3 O2 1.940090 1_545
Mn3 O6 2.029342 1_555
Mn3 O0 2.107348 1_646
Mn4 O4 1.940090 1_545
Mn4 O0 2.029342 1_555
Mn4 O6 2.107348 1_445
Mn5 O5 1.921752 1_545
Mn5 O3 1.962418 1_555
Mn5 O7 1.978521 1_555
Mn6 O1 1.900490 1_555
Mn6 O4 1.932471 1_555
Mn7 O6 1.956288 1_555
Mn7 O3 1.977315 1_565
Mn7 O5 1.994218 1_555
Mn7 O2 1.999559 1_555
F0 Mn0 1.972433 1_555
F0 Mn5 2.147642 1_555
F0 Mn1 2.156691 1_564
F1 Mn5 2.009951 1_555
F1 Mn6 2.110200 1_545
F1 Mn2 2.234742 1_555
F2 Mn4 1.991375 1_655
F2 Mn0 2.079483 1_555
F2 Mn7 2.236665 1_545
F3 Mn6 1.978467 1_545
F3 Mn3 2.066093 1_455
F3 Mn4 2.104655 1_555
F4 Mn6 1.972433 1_555
F4 Mn1 2.147642 1_555
F4 Mn5 2.156691 1_565
F5 Mn3 1.991375 1_455
F5 Mn6 2.079483 1_555
F5 Mn2 2.236665 1_546
F6 Mn0 1.978467 1_545
F6 Mn4 2.066093 1_655
F6 Mn3 2.104655 1_554
F7 Mn1 2.009951 1_555
F7 Mn0 2.110200 1_546
F7 Mn7 2.234742 1_555
