# generated using pymatgen
data_H8C2SeS2(N2Cl)2
_symmetry_space_group_name_H-M   'P 1'
_cell_length_a   16.75984100
_cell_length_b   8.20348600
_cell_length_c   8.66881644
_cell_angle_alpha   61.21523571
_cell_angle_beta   90.00000000
_cell_angle_gamma   90.00000000
_symmetry_Int_Tables_number   1
_chemical_formula_structural   H8C2SeS2(N2Cl)2
_chemical_formula_sum   'H32 C8 Se4 S8 N16 Cl8'
_cell_volume   1044.59449519
_cell_formula_units_Z   4
loop_
 _symmetry_equiv_pos_site_id
 _symmetry_equiv_pos_as_xyz
  1  'x, y, z'
loop_
 _atom_site_type_symbol
 _atom_site_label
 _atom_site_symmetry_multiplicity
 _atom_site_fract_x
 _atom_site_fract_y
 _atom_site_fract_z
 _atom_site_occupancy
  H  H0  1  0.61411200  0.76959500  0.53335100  1
  H  H1  1  0.11411200  0.23040500  0.96664900  1
  H  H2  1  0.38588800  0.23040500  0.46664900  1
  H  H3  1  0.88588800  0.76959500  0.03335100  1
  H  H4  1  0.51682700  0.73335700  0.48677700  1
  H  H5  1  0.01682700  0.26664300  0.01322300  1
  H  H6  1  0.48317300  0.26664300  0.51322300  1
  H  H7  1  0.98317300  0.73335700  0.98677700  1
  H  H8  1  0.63986700  0.78254000  0.80692300  1
  H  H9  1  0.13986700  0.21746000  0.69307700  1
  H  H10  1  0.36013300  0.21746000  0.19307700  1
  H  H11  1  0.86013300  0.78254000  0.30692300  1
  H  H12  1  0.55834300  0.75286500  0.94509800  1
  H  H13  1  0.05834300  0.24713500  0.55490200  1
  H  H14  1  0.44165700  0.24713500  0.05490200  1
  H  H15  1  0.94165700  0.75286500  0.44509800  1
  H  H16  1  0.10377500  0.96017100  0.48649200  1
  H  H17  1  0.60377500  0.03982900  0.01350800  1
  H  H18  1  0.89622500  0.03982900  0.51350800  1
  H  H19  1  0.39622500  0.96017100  0.98649200  1
  H  H20  1  0.18201100  0.08801500  0.34126700  1
  H  H21  1  0.68201100  0.91198500  0.15873300  1
  H  H22  1  0.81798900  0.91198500  0.65873300  1
  H  H23  1  0.31798900  0.08801500  0.84126700  1
  H  H24  1  0.12636700  0.65347700  0.70176600  1
  H  H25  1  0.62636700  0.34652300  0.79823400  1
  H  H26  1  0.87363300  0.34652300  0.29823400  1
  H  H27  1  0.37363300  0.65347700  0.20176600  1
  H  H28  1  0.22135400  0.54873700  0.72063400  1
  H  H29  1  0.72135400  0.45126300  0.77936600  1
  H  H30  1  0.77864600  0.45126300  0.27936600  1
  H  H31  1  0.27864600  0.54873700  0.22063400  1
  C  C0  1  0.53056000  0.74282900  0.71893300  1
  C  C1  1  0.03056000  0.25717100  0.78106700  1
  C  C2  1  0.46944000  0.25717100  0.28106700  1
  C  C3  1  0.96944000  0.74282900  0.21893300  1
  C  C4  1  0.20932000  0.82037900  0.52807700  1
  C  C5  1  0.70932000  0.17962100  0.97192300  1
  C  C6  1  0.79068000  0.17962100  0.47192300  1
  C  C7  1  0.29068000  0.82037900  0.02807700  1
  Se  Se0  1  0.37245600  0.58962500  0.62775600  1
  Se  Se1  1  0.87245600  0.41037500  0.87224400  1
  Se  Se2  1  0.62754400  0.41037500  0.37224400  1
  Se  Se3  1  0.12754400  0.58962500  0.12775600  1
  S  S0  1  0.43113400  0.69542900  0.79308700  1
  S  S1  1  0.93113400  0.30457100  0.70691300  1
  S  S2  1  0.56886600  0.30457100  0.20691300  1
  S  S3  1  0.06886600  0.69542900  0.29308700  1
  S  S4  1  0.30633900  0.84821500  0.44174700  1
  S  S5  1  0.80633900  0.15178500  0.05825300  1
  S  S6  1  0.69366100  0.15178500  0.55825300  1
  S  S7  1  0.19366100  0.84821500  0.94174700  1
  N  N0  1  0.55452000  0.75419900  0.56868900  1
  N  N1  1  0.05452000  0.24580100  0.93131100  1
  N  N2  1  0.44548000  0.24580100  0.43131100  1
  N  N3  1  0.94548000  0.75419900  0.06868900  1
  N  N4  1  0.57917700  0.76586300  0.82761100  1
  N  N5  1  0.07917700  0.23413700  0.67238900  1
  N  N6  1  0.42082300  0.23413700  0.17238900  1
  N  N7  1  0.92082300  0.76586300  0.32761100  1
  N  N8  1  0.16255800  0.96862400  0.44948200  1
  N  N9  1  0.66255800  0.03137600  0.05051800  1
  N  N10  1  0.83744200  0.03137600  0.55051800  1
  N  N11  1  0.33744200  0.96862400  0.94948200  1
  N  N12  1  0.18431500  0.66106700  0.65872900  1
  N  N13  1  0.68431500  0.33893300  0.84127100  1
  N  N14  1  0.81568500  0.33893300  0.34127100  1
  N  N15  1  0.31568500  0.66106700  0.15872900  1
  Cl  Cl0  1  0.49669600  0.25494200  0.80817200  1
  Cl  Cl1  1  0.99669600  0.74505800  0.69182800  1
  Cl  Cl2  1  0.50330400  0.74505800  0.19182800  1
  Cl  Cl3  1  0.00330400  0.25494200  0.30817200  1
  Cl  Cl4  1  0.26918400  0.29165000  0.55984700  1
  Cl  Cl5  1  0.76918400  0.70835000  0.94015300  1
  Cl  Cl6  1  0.73081600  0.70835000  0.44015300  1
  Cl  Cl7  1  0.23081600  0.29165000  0.05984700  1
loop_
_geom_bond_atom_site_label_1
_geom_bond_atom_site_label_2
_geom_bond_distance
_geom_bond_site_symmetry_2
H0 N0 1.034428 1_555
H1 N1 1.034428 1_555
H2 N2 1.034428 1_555
H3 N3 1.034428 1_555
H4 N0 1.024426 1_555
H5 N1 1.024426 1_554
H6 N2 1.024426 1_555
H7 N3 1.024426 1_556
H8 N4 1.030463 1_555
H9 N5 1.030463 1_555
H10 N6 1.030463 1_555
H11 N7 1.030463 1_555
H12 N4 1.032470 1_555
H13 N5 1.032470 1_555
H14 N6 1.032470 1_555
H15 N7 1.032470 1_555
H16 N8 1.028068 1_555
H17 N9 1.028068 1_555
H18 N10 1.028068 1_555
H19 N11 1.028068 1_555
H20 N8 1.029928 1_545
H21 N9 1.029928 1_565
H22 N10 1.029928 1_565
H23 N11 1.029928 1_545
H24 N12 1.031466 1_555
H25 N13 1.031466 1_555
H26 N14 1.031466 1_555
H27 N15 1.031466 1_555
H28 N12 1.022867 1_555
H29 N13 1.022867 1_555
H30 N14 1.022867 1_555
H31 N15 1.022867 1_555
C0 N0 1.322613 1_555
C0 N4 1.326136 1_555
C0 S0 1.760816 1_555
C1 N1 1.322613 1_555
C1 N5 1.326136 1_555
C1 S1 1.760816 1_455
C2 N2 1.322613 1_555
C2 N6 1.326136 1_555
C2 S2 1.760816 1_555
C3 N3 1.322613 1_555
C3 N7 1.326136 1_555
C3 S3 1.760816 1_655
C4 N12 1.319443 1_555
C4 N8 1.326437 1_555
C4 S4 1.758291 1_555
C5 N13 1.319443 1_555
C5 N9 1.326437 1_556
C5 S5 1.758291 1_556
C6 N14 1.319443 1_555
C6 N10 1.326437 1_555
C6 S6 1.758291 1_555
C7 N15 1.319443 1_555
C7 N11 1.326437 1_554
C7 S7 1.758291 1_554
S0 Se0 2.229941 1_555
S1 Se1 2.229941 1_555
S2 Se2 2.229941 1_555
S3 Se3 2.229941 1_555
S4 Se0 2.243632 1_555
S5 Se1 2.243632 1_554
S6 Se2 2.243632 1_555
S7 Se3 2.243632 1_556
