# generated using pymatgen
data_Li7Mn(PO4)4
_symmetry_space_group_name_H-M   'P 1'
_cell_length_a   4.76276671
_cell_length_b   10.22078818
_cell_length_c   5.95103700
_cell_angle_alpha   90.00000000
_cell_angle_beta   90.00000000
_cell_angle_gamma   90.17600344
_symmetry_Int_Tables_number   1
_chemical_formula_structural   Li7Mn(PO4)4
_chemical_formula_sum   'Li7 Mn1 P4 O16'
_cell_volume   289.69053013
_cell_formula_units_Z   1
loop_
 _symmetry_equiv_pos_site_id
 _symmetry_equiv_pos_as_xyz
  1  'x, y, z'
loop_
 _atom_site_type_symbol
 _atom_site_label
 _atom_site_symmetry_multiplicity
 _atom_site_fract_x
 _atom_site_fract_y
 _atom_site_fract_z
 _atom_site_occupancy
  Li  Li0  1  0.98678600  0.01705000  0.01190500  1
  Li  Li1  1  0.98678600  0.01705000  0.48809500  1
  Li  Li2  1  0.47779800  0.22417300  0.75000000  1
  Li  Li3  1  0.49755100  0.48897800  0.48817700  1
  Li  Li4  1  0.49755100  0.48897800  0.01182300  1
  Li  Li5  1  0.52415200  0.77617300  0.25000000  1
  Li  Li6  1  0.97365400  0.28012100  0.25000000  1
  Mn  Mn0  1  0.00857900  0.72029600  0.75000000  1
  P  P0  1  0.06075800  0.59434300  0.25000000  1
  P  P1  1  0.42767200  0.09348400  0.25000000  1
  P  P2  1  0.58795300  0.89611500  0.75000000  1
  P  P3  1  0.93035200  0.41061800  0.75000000  1
  O  O0  1  0.20399100  0.46018100  0.25000000  1
  O  O1  1  0.19304100  0.66888900  0.03741300  1
  O  O2  1  0.19304100  0.66888900  0.46258700  1
  O  O3  1  0.25038600  0.41526500  0.75000000  1
  O  O4  1  0.26408800  0.88257100  0.75000000  1
  O  O5  1  0.29337400  0.16054400  0.04143300  1
  O  O6  1  0.29337400  0.16054400  0.45856700  1
  O  O7  1  0.30721200  0.95074600  0.25000000  1
  O  O8  1  0.68970900  0.03730100  0.75000000  1
  O  O9  1  0.73562200  0.82098800  0.54964400  1
  O  O10  1  0.73562200  0.82098800  0.95035600  1
  O  O11  1  0.74838200  0.09520600  0.25000000  1
  O  O12  1  0.74210600  0.59606800  0.25000000  1
  O  O13  1  0.79458700  0.34763600  0.54168800  1
  O  O14  1  0.79458700  0.34763600  0.95831200  1
  O  O15  1  0.80128500  0.55917000  0.75000000  1
loop_
_geom_bond_atom_site_label_1
_geom_bond_atom_site_label_2
_geom_bond_distance
_geom_bond_site_symmetry_2
Li0 O11 1.985093 1_555
Li0 O5 2.073862 1_655
Li0 O8 2.115623 1_554
Li0 O7 2.191408 1_645
Li0 O10 2.359250 1_544
Li0 O4 2.464532 1_644
Li1 O11 1.985093 1_555
Li1 O6 2.073862 1_655
Li1 O8 2.115623 1_555
Li1 O7 2.191408 1_645
Li1 O9 2.359250 1_545
Li1 O4 2.464532 1_645
Li2 O5 2.049111 1_556
Li2 O6 2.049111 1_555
Li2 O8 2.162988 1_555
Li2 O3 2.236239 1_555
Li2 O13 2.322479 1_555
Li2 O14 2.322479 1_555
Li3 O0 2.011957 1_555
Li3 O13 2.049957 1_555
Li3 O3 2.091812 1_555
Li3 O12 2.134451 1_555
Li3 O15 2.242485 1_555
Li3 O2 2.350378 1_555
Li4 O0 2.011957 1_555
Li4 O14 2.049957 1_554
Li4 O3 2.091812 1_554
Li4 O12 2.134451 1_555
Li4 O15 2.242485 1_554
Li4 O1 2.350378 1_555
Li5 O7 2.064590 1_555
Li5 O9 2.097895 1_555
Li5 O10 2.097895 1_554
Li5 O12 2.116109 1_555
Li5 O1 2.297651 1_555
Li5 O2 2.297651 1_555
Li6 O13 2.054341 1_555
Li6 O14 2.054341 1_554
Li6 O0 2.139627 1_655
Li6 O11 2.170417 1_555
Li6 O5 2.316131 1_655
Li6 O6 2.316131 1_655
Mn0 O15 1.917504 1_455
Mn0 O1 1.994051 1_556
Mn0 O2 1.994051 1_555
Mn0 O9 2.044283 1_455
Mn0 O10 2.044283 1_455
Mn0 O4 2.054118 1_555
O0 P0 1.533436 1_555
O1 P0 1.604688 1_555
O2 P0 1.604688 1_555
O3 P3 1.524841 1_455
O4 P2 1.548269 1_555
O5 P1 1.556327 1_555
O6 P1 1.556327 1_555
O7 P1 1.566011 1_565
O8 P2 1.520829 1_545
O9 P2 1.584050 1_555
O10 P2 1.584050 1_555
O11 P1 1.527514 1_555
O12 P0 1.517822 1_655
O13 P3 1.538417 1_555
O14 P3 1.538417 1_555
O15 P3 1.639787 1_555
