# generated using pymatgen
data_Li12Mn11Fe(PO4)12
_symmetry_space_group_name_H-M   'P 1'
_cell_length_a   18.52210500
_cell_length_b   4.78797000
_cell_length_c   10.54268444
_cell_angle_alpha   89.97008226
_cell_angle_beta   90.00000000
_cell_angle_gamma   90.00000000
_symmetry_Int_Tables_number   1
_chemical_formula_structural   Li12Mn11Fe(PO4)12
_chemical_formula_sum   'Li12 Mn11 Fe1 P12 O48'
_cell_volume   934.95974088
_cell_formula_units_Z   1
loop_
 _symmetry_equiv_pos_site_id
 _symmetry_equiv_pos_as_xyz
  1  'x, y, z'
loop_
 _atom_site_type_symbol
 _atom_site_label
 _atom_site_symmetry_multiplicity
 _atom_site_fract_x
 _atom_site_fract_y
 _atom_site_fract_z
 _atom_site_occupancy
  Li  Li0  1  0.91666600  0.00001600  0.99999200  1
  Li  Li1  1  0.25004600  0.99997000  0.99999600  1
  Li  Li2  1  0.08333400  0.00001600  0.99999200  1
  Li  Li3  1  0.74995400  0.99997000  0.99999600  1
  Li  Li4  1  0.58307900  0.00008300  0.99947700  1
  Li  Li5  1  0.41692100  0.00008300  0.99947700  1
  Li  Li6  1  0.08331500  0.49993700  0.50000000  1
  Li  Li7  1  0.25012600  0.49988100  0.50010200  1
  Li  Li8  1  0.74987400  0.49988100  0.50010200  1
  Li  Li9  1  0.91668500  0.49993700  0.50000000  1
  Li  Li10  1  0.41705200  0.50018000  0.50028100  1
  Li  Li11  1  0.58294800  0.50018000  0.50028100  1
  Mn  Mn0  1  0.00000000  0.97236400  0.28127200  1
  Mn  Mn1  1  0.66650200  0.97201400  0.28137300  1
  Mn  Mn2  1  0.33349800  0.97201400  0.28137300  1
  Mn  Mn3  1  0.66628100  0.52813100  0.78134400  1
  Mn  Mn4  1  0.33371900  0.52813100  0.78134400  1
  Mn  Mn5  1  0.00000000  0.52803700  0.78130900  1
  Mn  Mn6  1  0.16671500  0.47212000  0.21874100  1
  Mn  Mn7  1  0.83328500  0.47212000  0.21874100  1
  Mn  Mn8  1  0.50000000  0.47275200  0.21867800  1
  Mn  Mn9  1  0.16679900  0.02798600  0.71876100  1
  Mn  Mn10  1  0.83320100  0.02798600  0.71876100  1
  Fe  Fe0  1  0.50000000  0.03088800  0.71863400  1
  P  P0  1  0.16669500  0.90955500  0.40807900  1
  P  P1  1  0.83330500  0.90955500  0.40807900  1
  P  P2  1  0.50000000  0.91069500  0.40895100  1
  P  P3  1  0.16668800  0.59042000  0.90794600  1
  P  P4  1  0.83331200  0.59042000  0.90794600  1
  P  P5  1  0.50000000  0.59146200  0.90607500  1
  P  P6  1  0.00000000  0.40958800  0.09197500  1
  P  P7  1  0.66663500  0.40957500  0.09198200  1
  P  P8  1  0.33336500  0.40957500  0.09198200  1
  P  P9  1  0.00000000  0.09009900  0.59196800  1
  P  P10  1  0.66608700  0.08888200  0.59236400  1
  P  P11  1  0.33391300  0.08888200  0.59236400  1
  O  O0  1  0.16666400  0.78758500  0.54493500  1
  O  O1  1  0.83333600  0.78758500  0.54493500  1
  O  O2  1  0.50000000  0.79072200  0.54626700  1
  O  O3  1  0.23358100  0.77679700  0.33876900  1
  O  O4  1  0.09982300  0.77683400  0.33869400  1
  O  O5  1  0.90017700  0.77683400  0.33869400  1
  O  O6  1  0.76641900  0.77679700  0.33876900  1
  O  O7  1  0.56678000  0.77682800  0.33950400  1
  O  O8  1  0.43322000  0.77682800  0.33950400  1
  O  O9  1  0.00000000  0.76925700  0.59583000  1
  O  O10  1  0.66677300  0.76808400  0.59585600  1
  O  O11  1  0.33322700  0.76808400  0.59585600  1
  O  O12  1  0.00000000  0.73057900  0.09606200  1
  O  O13  1  0.33333700  0.73051400  0.09603700  1
  O  O14  1  0.66666300  0.73051400  0.09603700  1
  O  O15  1  0.23358200  0.72328200  0.83873300  1
  O  O16  1  0.09982900  0.72350200  0.83871600  1
  O  O17  1  0.76641800  0.72328200  0.83873300  1
  O  O18  1  0.56679000  0.72654200  0.83732300  1
  O  O19  1  0.90017100  0.72350200  0.83871600  1
  O  O20  1  0.43321000  0.72654200  0.83732300  1
  O  O21  1  0.16662500  0.71235900  0.04492300  1
  O  O22  1  0.83337500  0.71235900  0.04492300  1
  O  O23  1  0.50000000  0.71091800  0.04364400  1
  O  O24  1  0.00000000  0.28766600  0.95520800  1
  O  O25  1  0.66661700  0.28783100  0.95511700  1
  O  O26  1  0.33338300  0.28783100  0.95511700  1
  O  O27  1  0.06689000  0.27664800  0.16130400  1
  O  O28  1  0.93311000  0.27664800  0.16130400  1
  O  O29  1  0.73353600  0.27657200  0.16126300  1
  O  O30  1  0.40021200  0.27663700  0.16136100  1
  O  O31  1  0.26646400  0.27657200  0.16126300  1
  O  O32  1  0.59978800  0.27663700  0.16136100  1
  O  O33  1  0.16665800  0.26953000  0.90399100  1
  O  O34  1  0.83334200  0.26953000  0.90399100  1
  O  O35  1  0.50000000  0.27005600  0.90227200  1
  O  O36  1  0.16668500  0.23056800  0.40401900  1
  O  O37  1  0.50000000  0.23154700  0.40379700  1
  O  O38  1  0.83331500  0.23056800  0.40401900  1
  O  O39  1  0.06689700  0.22306400  0.66108500  1
  O  O40  1  0.93310300  0.22306400  0.66108500  1
  O  O41  1  0.73274200  0.22329000  0.66167200  1
  O  O42  1  0.26725800  0.22329000  0.66167200  1
  O  O43  1  0.40140000  0.21781700  0.66209900  1
  O  O44  1  0.59860000  0.21781700  0.66209900  1
  O  O45  1  0.00000000  0.21215400  0.45493700  1
  O  O46  1  0.66617600  0.21257800  0.45572300  1
  O  O47  1  0.33382400  0.21257800  0.45572300  1
loop_
_geom_bond_atom_site_label_1
_geom_bond_atom_site_label_2
_geom_bond_distance
_geom_bond_site_symmetry_2
Li0 O22 2.121471 1_546
Li0 O24 2.121684 1_655
Li0 O19 2.177033 1_545
Li0 O28 2.177541 1_556
Li0 O34 2.251684 1_555
Li0 O12 2.251927 1_646
Li1 O26 2.122603 1_565
Li1 O21 2.123071 1_556
Li1 O31 2.177016 1_566
Li1 O15 2.177352 1_555
Li1 O13 2.251296 1_556
Li1 O33 2.252642 1_565
Li2 O21 2.121471 1_546
Li2 O24 2.121684 1_555
Li2 O16 2.177033 1_545
Li2 O27 2.177541 1_556
Li2 O33 2.251684 1_555
Li2 O12 2.251927 1_546
Li3 O25 2.122603 1_565
Li3 O22 2.123071 1_556
Li3 O29 2.177016 1_566
Li3 O17 2.177352 1_555
Li3 O14 2.251296 1_556
Li3 O34 2.252642 1_565
Li4 O23 2.121538 1_546
Li4 O25 2.123751 1_555
Li4 O18 2.175136 1_545
Li4 O32 2.182720 1_556
Li4 O35 2.255573 1_555
Li4 O14 2.257788 1_546
Li5 O23 2.121538 1_546
Li5 O26 2.123751 1_555
Li5 O20 2.175136 1_545
Li5 O30 2.182720 1_556
Li5 O35 2.255573 1_555
Li5 O13 2.257788 1_546
Li6 O0 2.122555 1_555
Li6 O45 2.122819 1_555
Li6 O39 2.175227 1_555
Li6 O4 2.177349 1_555
Li6 O9 2.250833 1_555
Li6 O36 2.252381 1_555
Li7 O0 2.124012 1_555
Li7 O47 2.124892 1_555
Li7 O3 2.177723 1_555
Li7 O42 2.180285 1_555
Li7 O11 2.244692 1_555
Li7 O36 2.253613 1_555
Li8 O1 2.124012 1_555
Li8 O46 2.124892 1_555
Li8 O6 2.177723 1_555
Li8 O41 2.180285 1_555
Li8 O10 2.244692 1_555
Li8 O38 2.253613 1_555
Li9 O1 2.122555 1_555
Li9 O45 2.122819 1_655
Li9 O40 2.175227 1_555
Li9 O5 2.177349 1_555
Li9 O9 2.250833 1_655
Li9 O38 2.252381 1_555
Li10 O47 2.119897 1_555
Li10 O2 2.128700 1_555
Li10 O8 2.171394 1_555
Li10 O43 2.195408 1_555
Li10 O37 2.247405 1_555
Li10 O11 2.252247 1_555
Li11 O46 2.119897 1_555
Li11 O2 2.128700 1_555
Li11 O7 2.171394 1_555
Li11 O44 2.195408 1_555
Li11 O37 2.247405 1_555
Li11 O10 2.252247 1_555
Mn0 O4 2.158912 1_555
Mn0 O5 2.158912 1_455
Mn0 O45 2.161602 1_565
Mn0 O12 2.270512 1_555
Mn0 O28 2.292445 1_465
Mn0 O27 2.292445 1_565
Mn1 O7 2.158704 1_555
Mn1 O6 2.159678 1_555
Mn1 O46 2.169699 1_565
Mn1 O14 2.270961 1_555
Mn1 O32 2.291973 1_565
Mn1 O29 2.295545 1_565
Mn2 O8 2.158704 1_555
Mn2 O3 2.159678 1_555
Mn2 O47 2.169699 1_565
Mn2 O13 2.270961 1_555
Mn2 O30 2.291973 1_565
Mn2 O31 2.295545 1_565
Mn3 O18 2.155738 1_555
Mn3 O25 2.162857 1_555
Mn3 O17 2.163286 1_555
Mn3 O10 2.267559 1_555
Mn3 O41 2.288977 1_555
Mn3 O44 2.315477 1_555
Mn4 O20 2.155738 1_555
Mn4 O26 2.162857 1_555
Mn4 O15 2.163286 1_555
Mn4 O11 2.267559 1_555
Mn4 O42 2.288977 1_555
Mn4 O43 2.315477 1_555
Mn5 O19 2.159102 1_455
Mn5 O16 2.159102 1_555
Mn5 O24 2.164153 1_555
Mn5 O9 2.270536 1_555
Mn5 O39 2.296941 1_555
Mn5 O40 2.296941 1_455
Mn6 O31 2.158216 1_555
Mn6 O27 2.159142 1_555
Mn6 O21 2.163095 1_555
Mn6 O36 2.269520 1_555
Mn6 O4 2.294526 1_555
Mn6 O3 2.294589 1_555
Mn7 O29 2.158216 1_555
Mn7 O28 2.159142 1_555
Mn7 O22 2.163095 1_555
Mn7 O38 2.269520 1_555
Mn7 O5 2.294526 1_555
Mn7 O6 2.294589 1_555
Mn8 O32 2.159537 1_555
Mn8 O30 2.159537 1_555
Mn8 O23 2.168731 1_555
Mn8 O37 2.267232 1_555
Mn8 O7 2.296559 1_555
Mn8 O8 2.296559 1_555
Mn9 O39 2.159980 1_555
Mn9 O0 2.164597 1_545
Mn9 O42 2.167566 1_555
Mn9 O33 2.270106 1_555
Mn9 O15 2.292676 1_545
Mn9 O16 2.293779 1_545
Mn10 O40 2.159980 1_555
Mn10 O1 2.164597 1_545
Mn10 O41 2.167566 1_555
Mn10 O34 2.270106 1_555
Mn10 O17 2.292676 1_545
Mn10 O19 2.293779 1_545
Fe0 O43 2.119206 1_555
Fe0 O44 2.119206 1_555
Fe0 O2 2.150982 1_545
Fe0 O35 2.249862 1_555
Fe0 O18 2.284223 1_545
Fe0 O20 2.284223 1_545
O0 P0 1.556252 1_555
O1 P1 1.556252 1_555
O2 P2 1.557200 1_555
O3 P0 1.572662 1_555
O4 P0 1.572754 1_555
O5 P1 1.572754 1_555
O6 P1 1.572662 1_555
O7 P2 1.573944 1_555
O8 P2 1.573944 1_555
O9 P9 1.536700 1_565
O10 P10 1.536446 1_565
O11 P11 1.536446 1_565
O12 P6 1.537522 1_555
O13 P8 1.537263 1_555
O14 P7 1.537263 1_555
O15 P3 1.572197 1_555
O16 P3 1.572195 1_555
O17 P4 1.572197 1_555
O18 P5 1.572763 1_555
O19 P4 1.572195 1_555
O20 P5 1.572763 1_555
O21 P3 1.557945 1_554
O22 P4 1.557945 1_554
O23 P5 1.559327 1_554
O24 P6 1.555861 1_556
O25 P7 1.556499 1_556
O26 P8 1.556499 1_556
O27 P6 1.572857 1_555
O28 P6 1.572857 1_655
O29 P7 1.572904 1_555
O30 P8 1.572471 1_555
O31 P8 1.572904 1_555
O32 P7 1.572471 1_555
O33 P3 1.536999 1_555
O34 P4 1.536999 1_555
O35 P5 1.539425 1_555
O36 P0 1.537574 1_545
O37 P2 1.537162 1_545
O38 P1 1.537574 1_545
O39 P9 1.572279 1_555
O40 P9 1.572279 1_655
O41 P10 1.572502 1_555
O42 P11 1.572502 1_555
O43 P11 1.576259 1_555
O44 P10 1.576259 1_555
O45 P9 1.558115 1_555
O46 P10 1.557272 1_555
O47 P11 1.557272 1_555
