# generated using pymatgen
data_Li6MnCoP2(CO7)2
_symmetry_space_group_name_H-M   'P 1'
_cell_length_a   8.22000314
_cell_length_b   8.22305544
_cell_length_c   8.54708531
_cell_angle_alpha   93.72264246
_cell_angle_beta   86.35860302
_cell_angle_gamma   75.14356519
_symmetry_Int_Tables_number   1
_chemical_formula_structural   Li6MnCoP2(CO7)2
_chemical_formula_sum   'Li12 Mn2 Co2 P4 C4 O28'
_cell_volume   555.30919553
_cell_formula_units_Z   2
loop_
 _symmetry_equiv_pos_site_id
 _symmetry_equiv_pos_as_xyz
  1  'x, y, z'
loop_
 _atom_site_type_symbol
 _atom_site_label
 _atom_site_symmetry_multiplicity
 _atom_site_fract_x
 _atom_site_fract_y
 _atom_site_fract_z
 _atom_site_occupancy
  Li  Li0  1  0.52115500  0.73048700  0.10218500  1
  Li  Li1  1  0.01960400  0.22891900  0.10246100  1
  Li  Li2  1  0.47927700  0.27084500  0.89476500  1
  Li  Li3  1  0.97939100  0.77046700  0.89543100  1
  Li  Li4  1  0.14153700  0.87512600  0.27154800  1
  Li  Li5  1  0.64198900  0.37807500  0.27063300  1
  Li  Li6  1  0.37130300  0.10883200  0.27081800  1
  Li  Li7  1  0.87607200  0.60805100  0.27139900  1
  Li  Li8  1  0.62760700  0.89287300  0.72700900  1
  Li  Li9  1  0.12614100  0.39301600  0.72922400  1
  Li  Li10  1  0.85701500  0.12239500  0.72700400  1
  Li  Li11  1  0.35727300  0.62410000  0.73017100  1
  Mn  Mn0  1  0.23469100  0.01541600  0.65992600  1
  Mn  Mn1  1  0.73491700  0.51501200  0.65965000  1
  Co  Co0  1  0.27227500  0.47947000  0.33608900  1
  Co  Co1  1  0.76884300  0.98126600  0.33183900  1
  P  P0  1  0.49038500  0.76042200  0.40813100  1
  P  P1  1  0.98987200  0.25942800  0.40862100  1
  P  P2  1  0.50761400  0.24227200  0.58728800  1
  P  P3  1  0.00705400  0.74278000  0.58822200  1
  C  C0  1  0.71594700  0.03409200  0.04098200  1
  C  C1  1  0.21620500  0.53343000  0.04247300  1
  C  C2  1  0.28626100  0.96332000  0.96392500  1
  C  C3  1  0.78668200  0.46378200  0.96392600  1
  O  O0  1  0.84038400  0.90956900  0.06800400  1
  O  O1  1  0.34122700  0.40889300  0.06809700  1
  O  O2  1  0.31976300  0.92920900  0.10662000  1
  O  O3  1  0.82059400  0.43010600  0.10662600  1
  O  O4  1  0.62567100  0.12445100  0.16359700  1
  O  O5  1  0.12524700  0.62285700  0.16536600  1
  O  O6  1  0.45815300  0.29232600  0.42261500  1
  O  O7  1  0.95610100  0.79429800  0.42452500  1
  O  O8  1  0.33311800  0.91660700  0.42279900  1
  O  O9  1  0.83356900  0.41670600  0.42276000  1
  O  O10  1  0.66446900  0.08527000  0.56692900  1
  O  O11  1  0.16350700  0.58513000  0.56707000  1
  O  O12  1  0.53516500  0.71650600  0.57559600  1
  O  O13  1  0.03255300  0.21437100  0.57630400  1
  O  O14  1  0.37917500  0.86988800  0.84437100  1
  O  O15  1  0.88021900  0.37098900  0.84441600  1
  O  O16  1  0.67989200  0.07014000  0.89928300  1
  O  O17  1  0.17988000  0.57044800  0.90095500  1
  O  O18  1  0.16291500  0.08796800  0.93588200  1
  O  O19  1  0.66211200  0.58721800  0.93580400  1
  O  O20  1  0.45221700  0.61120800  0.30782500  1
  O  O21  1  0.95109100  0.11183900  0.30627000  1
  O  O22  1  0.63821200  0.79904600  0.30640900  1
  O  O23  1  0.13972800  0.29730600  0.30974900  1
  O  O24  1  0.54615000  0.38830800  0.69142700  1
  O  O25  1  0.04675100  0.88767100  0.69307900  1
  O  O26  1  0.36143300  0.20399600  0.69120500  1
  O  O27  1  0.86159800  0.70379700  0.69269600  1
loop_
_geom_bond_atom_site_label_1
_geom_bond_atom_site_label_2
_geom_bond_distance
_geom_bond_site_symmetry_2
Li0 O19 1.904182 1_554
Li0 O2 2.002250 1_555
Li0 O22 2.157370 1_555
Li0 O20 2.180541 1_555
Li1 O18 1.905448 1_554
Li1 O3 2.002854 1_455
Li1 O21 2.156325 1_455
Li1 O23 2.192663 1_555
Li2 O1 1.917977 1_556
Li2 O16 2.016298 1_555
Li2 O24 2.150466 1_555
Li2 O26 2.151863 1_555
Li3 O0 1.919954 1_556
Li3 O17 2.013315 1_655
Li3 O25 2.143628 1_655
Li3 O27 2.145373 1_555
Li4 O2 2.117633 1_555
Li4 O21 2.151982 1_465
Li4 O8 2.178151 1_555
Li4 O7 2.203178 1_455
Li4 O5 2.249046 1_555
Li5 O3 2.107616 1_555
Li5 O20 2.129304 1_555
Li5 O9 2.175888 1_555
Li5 O6 2.210004 1_555
Li5 O4 2.261813 1_555
Li6 O2 2.111392 1_545
Li6 O23 2.115640 1_555
Li6 O8 2.180299 1_545
Li6 O6 2.210321 1_555
Li6 O4 2.266676 1_555
Li7 O3 2.118638 1_555
Li7 O22 2.160793 1_555
Li7 O9 2.181795 1_555
Li7 O7 2.203845 1_555
Li7 O5 2.222110 1_655
Li8 O27 2.130372 1_555
Li8 O16 2.144889 1_565
Li8 O12 2.191304 1_555
Li8 O10 2.222857 1_565
Li8 O14 2.274754 1_555
Li9 O26 2.138986 1_555
Li9 O17 2.147816 1_555
Li9 O13 2.217207 1_555
Li9 O11 2.233807 1_555
Li9 O15 2.246474 1_455
Li10 O25 2.137335 1_645
Li10 O16 2.145529 1_555
Li10 O13 2.182466 1_655
Li10 O10 2.222324 1_555
Li10 O15 2.275981 1_555
Li11 O24 2.141780 1_555
Li11 O17 2.143547 1_555
Li11 O12 2.217171 1_555
Li11 O14 2.241170 1_555
Li11 O11 2.251371 1_555
Mn0 O26 2.090822 1_555
Mn0 O25 2.094178 1_545
Mn0 O8 2.159453 1_545
Mn0 O13 2.203846 1_555
Mn0 O14 2.254290 1_545
Mn0 O18 2.393142 1_555
Mn1 O24 2.092657 1_555
Mn1 O27 2.093659 1_555
Mn1 O9 2.157152 1_555
Mn1 O12 2.206079 1_555
Mn1 O15 2.253916 1_555
Mn1 O19 2.395442 1_555
Co0 O20 2.056681 1_555
Co0 O23 2.075065 1_555
Co0 O6 2.082123 1_555
Co0 O11 2.146275 1_555
Co0 O5 2.167204 1_555
Co0 O1 2.323462 1_555
Co1 O22 2.063470 1_555
Co1 O21 2.063630 1_565
Co1 O7 2.111905 1_555
Co1 O4 2.136207 1_565
Co1 O10 2.164843 1_565
Co1 O0 2.293394 1_555
C0 O0 1.292954 1_545
C0 O16 1.299870 1_554
C0 O4 1.310884 1_555
C1 O1 1.292617 1_555
C1 O17 1.300749 1_554
C1 O5 1.311896 1_555
C2 O18 1.290699 1_565
C2 O2 1.299800 1_556
C2 O14 1.309875 1_555
C3 O19 1.290937 1_555
C3 O3 1.299786 1_556
C3 O15 1.309567 1_555
O6 P2 1.542010 1_555
O7 P3 1.540414 1_655
O8 P0 1.563161 1_555
O9 P1 1.563930 1_555
O10 P2 1.564674 1_555
O11 P3 1.565971 1_555
O12 P0 1.542890 1_555
O13 P1 1.542917 1_455
O20 P0 1.560106 1_555
O21 P1 1.560690 1_555
O22 P0 1.559777 1_555
O23 P1 1.557956 1_455
O24 P2 1.557801 1_555
O25 P3 1.557913 1_555
O26 P2 1.557716 1_555
O27 P3 1.558136 1_655
