# generated using pymatgen
data_Li3VOF5
_symmetry_space_group_name_H-M   'P 1'
_cell_length_a   7.30089531
_cell_length_b   7.29908452
_cell_length_c   9.23092750
_cell_angle_alpha   112.21146568
_cell_angle_beta   112.14266991
_cell_angle_gamma   92.07450336
_symmetry_Int_Tables_number   1
_chemical_formula_structural   Li3VOF5
_chemical_formula_sum   'Li12 V4 O4 F20'
_cell_volume   412.56551710
_cell_formula_units_Z   4
loop_
 _symmetry_equiv_pos_site_id
 _symmetry_equiv_pos_as_xyz
  1  'x, y, z'
loop_
 _atom_site_type_symbol
 _atom_site_label
 _atom_site_symmetry_multiplicity
 _atom_site_fract_x
 _atom_site_fract_y
 _atom_site_fract_z
 _atom_site_occupancy
  Li  Li0  1  0.76301700  0.75835900  0.51325600  1
  Li  Li1  1  0.26291500  0.25825600  0.51318500  1
  Li  Li2  1  0.50809100  0.01366000  0.01399100  1
  Li  Li3  1  0.00810700  0.51362300  0.01390900  1
  Li  Li4  1  0.14643800  0.60667500  0.76053800  1
  Li  Li5  1  0.64635400  0.10691900  0.76062500  1
  Li  Li6  1  0.85611300  0.89666100  0.26047700  1
  Li  Li7  1  0.35607900  0.39649400  0.26043100  1
  Li  Li8  1  0.66418200  0.62514200  0.77970000  1
  Li  Li9  1  0.16421300  0.12526600  0.77979900  1
  Li  Li10  1  0.37517100  0.91521800  0.27948300  1
  Li  Li11  1  0.87516200  0.41506700  0.27942300  1
  V  V0  1  0.01257700  0.01345000  0.00283200  1
  V  V1  1  0.76405300  0.26340100  0.50202800  1
  V  V2  1  0.51236900  0.51337300  0.00276800  1
  V  V3  1  0.26413000  0.76324500  0.50194500  1
  O  O0  1  0.85392600  0.50221100  0.54568000  1
  O  O1  1  0.35429700  0.00207800  0.54570100  1
  O  O2  1  0.25130500  0.10315000  0.04655400  1
  O  O3  1  0.75113300  0.60305600  0.04651200  1
  F  F0  1  0.57920900  0.50012200  0.22516300  1
  F  F1  1  0.07930700  0.00036800  0.22533900  1
  F  F2  1  0.75263200  0.32942300  0.72533800  1
  F  F3  1  0.25255000  0.82936100  0.72524000  1
  F  F4  1  0.00107300  0.72082300  0.90683600  1
  F  F5  1  0.50091100  0.22073000  0.90672700  1
  F  F6  1  0.47210100  0.25123100  0.40595000  1
  F  F7  1  0.97223500  0.75142100  0.40580200  1
  F  F8  1  0.21356500  0.41739100  0.93098100  1
  F  F9  1  0.71395700  0.91750300  0.93166800  1
  F  F10  1  0.66823400  0.96378100  0.42895300  1
  F  F11  1  0.16815800  0.46370600  0.42896100  1
  F  F12  1  0.03107400  0.19340300  0.57417600  1
  F  F13  1  0.53117300  0.69335000  0.57416800  1
  F  F14  1  0.44234000  0.78095900  0.07426400  1
  F  F15  1  0.94224900  0.28081700  0.07418500  1
  F  F16  1  0.74363100  0.15236400  0.26134800  1
  F  F17  1  0.24364800  0.65225300  0.26127300  1
  F  F18  1  0.90103900  0.99285200  0.76235200  1
  F  F19  1  0.40127800  0.49283500  0.76243100  1
loop_
_geom_bond_atom_site_label_1
_geom_bond_atom_site_label_2
_geom_bond_distance
_geom_bond_site_symmetry_2
Li0 O0 2.094958 1_555
Li1 O1 2.096496 1_555
Li2 O2 2.096852 1_555
Li3 O3 2.098182 1_455
Li4 O0 2.149798 1_455
Li5 O1 2.147869 1_555
Li6 O3 2.149621 1_555
Li7 O2 2.148116 1_555
Li8 O3 2.371486 1_556
Li9 O2 2.370957 1_556
Li10 O1 2.361262 1_565
Li11 O0 2.362590 1_555
O0 V1 1.678730 1_555
O1 V3 1.679164 1_545
O2 V0 1.678299 1_555
O3 V2 1.678451 1_555
F0 Li7 1.956699 1_555
F0 V2 1.964762 1_555
F0 Li11 2.195769 1_555
F0 Li0 2.400571 1_555
F1 Li6 1.956601 1_445
F1 V0 1.965321 1_555
F1 Li10 2.195498 1_545
F1 Li1 2.398156 1_555
F2 Li5 1.960876 1_555
F2 V1 1.967186 1_555
F2 Li8 2.203209 1_555
F2 Li3 2.397427 1_656
F3 Li4 1.961586 1_555
F3 V3 1.967467 1_555
F3 Li9 2.204037 1_565
F3 Li2 2.398678 1_566
F4 V0 1.963243 1_566
F4 Li4 1.984448 1_555
F4 Li3 2.089093 1_556
F4 Li8 2.234883 1_455
F5 V2 1.963416 1_556
F5 Li5 1.983151 1_555
F5 Li2 2.089401 1_556
F5 Li9 2.233525 1_555
F6 V1 1.959460 1_555
F6 Li7 1.982477 1_555
F6 Li1 2.102829 1_555
F6 Li10 2.228384 1_545
F7 V3 1.959513 1_655
F7 Li6 1.981195 1_555
F7 Li0 2.104608 1_555
F7 Li11 2.230697 1_555
F8 Li3 1.965911 1_556
F8 Li9 1.984800 1_555
F8 V2 2.034120 1_556
F8 Li4 2.394920 1_555
F9 Li2 1.965510 1_566
F9 Li8 1.987470 1_555
F9 V0 2.034021 1_666
F9 Li5 2.400066 1_565
F10 Li0 1.970782 1_555
F10 Li10 1.989285 1_555
F10 V1 2.036012 1_565
F10 Li6 2.370833 1_555
F11 Li1 1.970526 1_555
F11 Li11 1.988960 1_455
F11 V3 2.035831 1_555
F11 Li7 2.371472 1_555
F12 V1 1.963606 1_455
F12 Li9 2.037850 1_555
F12 Li1 2.065904 1_555
F13 V3 1.963472 1_555
F13 Li8 2.037331 1_555
F13 Li0 2.065782 1_555
F14 V2 1.965652 1_555
F14 Li10 2.030017 1_555
F14 Li2 2.069224 1_565
F15 V0 1.965099 1_655
F15 Li11 2.029790 1_555
F15 Li3 2.070181 1_655
F16 V1 1.998805 1_555
F16 Li11 2.032437 1_555
F16 Li6 2.064583 1_545
F16 Li2 2.088557 1_555
F17 V3 1.998585 1_555
F17 Li10 2.033562 1_555
F17 Li7 2.064848 1_555
F17 Li3 2.088576 1_555
F18 V0 1.997399 1_666
F18 Li9 2.041191 1_665
F18 Li5 2.061722 1_565
F18 Li0 2.094059 1_555
F19 V2 1.996377 1_556
F19 Li8 2.039856 1_555
F19 Li4 2.061753 1_555
F19 Li1 2.095237 1_555
