# generated using pymatgen
data_Li2Mn4OF8
_symmetry_space_group_name_H-M   'P 1'
_cell_length_a   5.44894990
_cell_length_b   5.44894990
_cell_length_c   14.68950102
_cell_angle_alpha   89.28651843
_cell_angle_beta   89.28651843
_cell_angle_gamma   59.03524878
_symmetry_Int_Tables_number   1
_chemical_formula_structural   Li2Mn4OF8
_chemical_formula_sum   'Li4 Mn8 O2 F16'
_cell_volume   373.95059365
_cell_formula_units_Z   2
loop_
 _symmetry_equiv_pos_site_id
 _symmetry_equiv_pos_as_xyz
  1  'x, y, z'
loop_
 _atom_site_type_symbol
 _atom_site_label
 _atom_site_symmetry_multiplicity
 _atom_site_fract_x
 _atom_site_fract_y
 _atom_site_fract_z
 _atom_site_occupancy
  Li  Li0  1  0.99935900  0.99159400  0.84420200  1
  Li  Li1  1  0.98613400  0.03383300  0.63398600  1
  Li  Li2  1  0.99159400  0.99935900  0.34420200  1
  Li  Li3  1  0.03383300  0.98613400  0.13398600  1
  Mn  Mn0  1  0.64433000  0.67566500  0.98005800  1
  Mn  Mn1  1  0.68265300  0.65554000  0.68325800  1
  Mn  Mn2  1  0.65554000  0.68265300  0.18325800  1
  Mn  Mn3  1  0.67566500  0.64433000  0.48005800  1
  Mn  Mn4  1  0.32911700  0.32848100  0.81491700  1
  Mn  Mn5  1  0.32848100  0.32911700  0.31491700  1
  Mn  Mn6  1  0.34486800  0.30784800  0.03281000  1
  Mn  Mn7  1  0.30784800  0.34486800  0.53281000  1
  O  O0  1  0.38549100  0.94562100  0.08201000  1
  O  O1  1  0.94562100  0.38549100  0.58201000  1
  F  F0  1  0.30305900  0.69907300  0.25203200  1
  F  F1  1  0.33594300  0.69750700  0.58259200  1
  F  F2  1  0.69750700  0.33594300  0.08259200  1
  F  F3  1  0.69907300  0.30305900  0.75203200  1
  F  F4  1  0.99058000  0.32016300  0.25457600  1
  F  F5  1  0.66735900  0.98860700  0.58385400  1
  F  F6  1  0.02114100  0.33923400  0.91592400  1
  F  F7  1  0.32016300  0.99058000  0.75457600  1
  F  F8  1  0.98860700  0.66735900  0.08385400  1
  F  F9  1  0.33923400  0.02114100  0.41592400  1
  F  F10  1  0.03396600  0.64534500  0.41269600  1
  F  F11  1  0.99844000  0.69916200  0.75400900  1
  F  F12  1  0.31746500  0.63095200  0.91631100  1
  F  F13  1  0.64534500  0.03396600  0.91269600  1
  F  F14  1  0.69916200  0.99844000  0.25400900  1
  F  F15  1  0.63095200  0.31746500  0.41631100  1
loop_
_geom_bond_atom_site_label_1
_geom_bond_atom_site_label_2
_geom_bond_distance
_geom_bond_site_symmetry_2
Li1 O1 1.958532 1_555
Li3 O0 1.958532 1_555
Mn0 O0 2.064767 1_556
Mn1 O1 2.064516 1_555
Mn2 O0 2.064516 1_555
Mn3 O1 2.064767 1_555
Mn6 O0 1.996478 1_545
Mn7 O1 1.996478 1_455
F0 Mn2 2.120052 1_555
F0 Li2 2.128652 1_455
F0 Mn5 2.146090 1_555
F0 Li3 2.289146 1_555
F1 Li1 1.991417 1_465
F1 Mn7 2.142635 1_555
F1 Mn3 2.273473 1_555
F1 Mn1 2.329086 1_555
F2 Li3 1.991417 1_645
F2 Mn6 2.142635 1_555
F2 Mn0 2.273473 1_554
F2 Mn2 2.329086 1_555
F3 Mn1 2.120052 1_555
F3 Li0 2.128652 1_545
F3 Mn4 2.146090 1_555
F3 Li1 2.289146 1_555
F4 Mn5 2.076595 1_655
F4 Mn2 2.148786 1_555
F4 Li2 2.173005 1_545
F4 Li3 2.476833 1_645
F5 Li1 2.024109 1_565
F5 Mn7 2.062843 1_565
F5 Mn1 2.283473 1_555
F5 Mn3 2.414151 1_555
F6 Mn0 2.141383 1_455
F6 Mn4 2.204557 1_555
F6 Li0 2.235289 1_445
F6 Mn6 2.417976 1_556
F7 Mn4 2.076595 1_565
F7 Mn1 2.148786 1_555
F7 Li0 2.173005 1_455
F7 Li1 2.476833 1_465
F8 Li3 2.024109 1_655
F8 Mn6 2.062843 1_655
F8 Mn2 2.283473 1_555
F8 Mn0 2.414151 1_554
F9 Mn3 2.141383 1_545
F9 Mn5 2.204557 1_555
F9 Li2 2.235289 1_445
F9 Mn7 2.417976 1_555
F10 Li2 2.070227 1_455
F10 Mn3 2.180311 1_455
F10 Mn5 2.183175 1_555
F10 Mn7 2.345275 1_555
F11 Li0 2.086956 1_555
F11 Mn4 2.092114 1_655
F11 Mn1 2.137530 1_555
F11 Li1 2.497102 1_565
F12 Li0 2.115888 1_455
F12 Mn0 2.145272 1_555
F12 Mn4 2.211317 1_555
F12 Mn6 2.389839 1_556
F13 Li0 2.070227 1_545
F13 Mn0 2.180311 1_545
F13 Mn4 2.183175 1_555
F13 Mn6 2.345275 1_556
F14 Li2 2.086956 1_555
F14 Mn5 2.092114 1_565
F14 Mn2 2.137530 1_555
F14 Li3 2.497102 1_655
F15 Li2 2.115888 1_545
F15 Mn3 2.145272 1_555
F15 Mn5 2.211317 1_555
F15 Mn7 2.389839 1_555
