# generated using pymatgen
data_Mn12O5F19
_symmetry_space_group_name_H-M   'P 1'
_cell_length_a   4.85594000
_cell_length_b   5.81847264
_cell_length_c   16.05599197
_cell_angle_alpha   89.57078732
_cell_angle_beta   89.66757825
_cell_angle_gamma   86.43320988
_symmetry_Int_Tables_number   1
_chemical_formula_structural   Mn12O5F19
_chemical_formula_sum   'Mn12 O5 F19'
_cell_volume   452.75055824
_cell_formula_units_Z   1
loop_
 _symmetry_equiv_pos_site_id
 _symmetry_equiv_pos_as_xyz
  1  'x, y, z'
loop_
 _atom_site_type_symbol
 _atom_site_label
 _atom_site_symmetry_multiplicity
 _atom_site_fract_x
 _atom_site_fract_y
 _atom_site_fract_z
 _atom_site_occupancy
  Mn  Mn0  1  0.01235800  0.83277600  0.41434700  1
  Mn  Mn1  1  0.97614900  0.16598100  0.23740700  1
  Mn  Mn2  1  0.99723000  0.84271600  0.08092300  1
  Mn  Mn3  1  0.97586500  0.85259200  0.75213000  1
  Mn  Mn4  1  0.98494700  0.17586200  0.58612400  1
  Mn  Mn5  1  0.99461200  0.17055600  0.90845400  1
  Mn  Mn6  1  0.50645500  0.64968000  0.58697200  1
  Mn  Mn7  1  0.47998100  0.66536000  0.92747900  1
  Mn  Mn8  1  0.48952400  0.67144300  0.25685400  1
  Mn  Mn9  1  0.49801800  0.34189100  0.08426500  1
  Mn  Mn10  1  0.47889100  0.34848400  0.41290300  1
  Mn  Mn11  1  0.52489200  0.33743300  0.74874700  1
  O  O0  1  0.77319200  0.11041600  0.12863200  1
  O  O1  1  0.78041200  0.12217100  0.80205100  1
  O  O2  1  0.71107400  0.38806700  0.64625000  1
  O  O3  1  0.27468600  0.61171100  0.03577300  1
  O  O4  1  0.27668300  0.60434700  0.36566000  1
  F  F0  1  0.77928500  0.89102300  0.30549700  1
  F  F1  1  0.77205900  0.88410200  0.63750500  1
  F  F2  1  0.78689100  0.88107700  0.97187000  1
  F  F3  1  0.75822500  0.11142700  0.46839300  1
  F  F4  1  0.74257300  0.60847400  0.14610200  1
  F  F5  1  0.73765300  0.60499700  0.47504900  1
  F  F6  1  0.73409500  0.38283300  0.31116100  1
  F  F7  1  0.72993100  0.62495600  0.81627300  1
  F  F8  1  0.72717800  0.38411300  0.97703000  1
  F  F9  1  0.28873200  0.37698400  0.19403900  1
  F  F10  1  0.29454300  0.37970500  0.85497900  1
  F  F11  1  0.26653700  0.38845500  0.52605200  1
  F  F12  1  0.25668500  0.60878800  0.70227600  1
  F  F13  1  0.22874600  0.10923200  0.35455500  1
  F  F14  1  0.22539200  0.88484700  0.18632100  1
  F  F15  1  0.22954000  0.88310000  0.85780800  1
  F  F16  1  0.23179900  0.89150500  0.52971300  1
  F  F17  1  0.24079100  0.11355600  0.01764000  1
  F  F18  1  0.23437900  0.09933500  0.69276600  1
loop_
_geom_bond_atom_site_label_1
_geom_bond_atom_site_label_2
_geom_bond_distance
_geom_bond_site_symmetry_2
Mn0 O4 1.953653 1_555
Mn1 O0 2.047959 1_555
Mn2 O3 1.981238 1_655
Mn2 O0 1.998459 1_565
Mn3 O1 1.956616 1_565
Mn4 O2 2.005937 1_555
Mn5 O1 2.035697 1_555
Mn6 O2 2.002816 1_555
Mn7 O3 2.031019 1_556
Mn8 O4 2.071623 1_555
Mn9 O0 1.969685 1_555
Mn9 O3 2.006655 1_555
Mn10 O4 1.888302 1_555
Mn11 O2 1.902915 1_555
Mn11 O1 1.908842 1_555
F0 Mn0 2.101569 1_655
F0 Mn8 2.115063 1_555
F0 Mn1 2.195562 1_565
F1 Mn3 2.096116 1_555
F1 Mn6 2.104714 1_555
F1 Mn4 2.195126 1_565
F2 Mn2 2.036034 1_556
F2 Mn7 2.136109 1_555
F2 Mn5 2.250536 1_565
F3 Mn10 2.073404 1_555
F3 Mn0 2.159698 1_645
F3 Mn4 2.238741 1_555
F4 Mn2 2.157607 1_555
F4 Mn8 2.175929 1_555
F4 Mn9 2.251199 1_555
F5 Mn6 2.122408 1_555
F5 Mn0 2.161331 1_655
F5 Mn10 2.252180 1_555
F6 Mn1 2.048803 1_555
F6 Mn10 2.060747 1_555
F6 Mn8 2.175461 1_555
F7 Mn3 2.098392 1_555
F7 Mn7 2.159205 1_555
F7 Mn11 2.283092 1_555
F8 Mn5 2.060563 1_555
F8 Mn9 2.066051 1_556
F8 Mn7 2.121067 1_555
F9 Mn9 2.034655 1_555
F9 Mn1 2.122006 1_455
F9 Mn8 2.269016 1_555
F10 Mn11 2.042270 1_555
F10 Mn5 2.128309 1_455
F10 Mn7 2.270629 1_555
F11 Mn10 2.091086 1_555
F11 Mn4 2.123061 1_455
F11 Mn6 2.209081 1_555
F12 Mn3 2.067909 1_455
F12 Mn11 2.117443 1_555
F12 Mn6 2.226723 1_555
F13 Mn10 2.129356 1_555
F13 Mn0 2.188298 1_545
F13 Mn1 2.262416 1_455
F14 Mn2 2.052600 1_455
F14 Mn8 2.065673 1_555
F14 Mn1 2.139072 1_465
F15 Mn7 2.034265 1_555
F15 Mn3 2.117522 1_455
F15 Mn5 2.128922 1_465
F16 Mn6 2.089293 1_555
F16 Mn4 2.181231 1_465
F16 Mn0 2.181976 1_555
F17 Mn5 2.139777 1_454
F17 Mn9 2.170915 1_555
F17 Mn2 2.260215 1_445
F18 Mn4 2.131349 1_455
F18 Mn3 2.176083 1_445
F18 Mn11 2.234679 1_555
