# generated using pymatgen
data_Ti3Fe(PO4)6
_symmetry_space_group_name_H-M   'P 1'
_cell_length_a   8.89232736
_cell_length_b   8.89232736
_cell_length_c   8.89232772
_cell_angle_alpha   58.38575386
_cell_angle_beta   58.38575386
_cell_angle_gamma   58.38575764
_symmetry_Int_Tables_number   1
_chemical_formula_structural   Ti3Fe(PO4)6
_chemical_formula_sum   'Ti3 Fe1 P6 O24'
_cell_volume   478.82830553
_cell_formula_units_Z   1
loop_
 _symmetry_equiv_pos_site_id
 _symmetry_equiv_pos_as_xyz
  1  'x, y, z'
loop_
 _atom_site_type_symbol
 _atom_site_label
 _atom_site_symmetry_multiplicity
 _atom_site_fract_x
 _atom_site_fract_y
 _atom_site_fract_z
 _atom_site_occupancy
  Ti  Ti0  1  0.86062800  0.86062800  0.86062800  1
  Ti  Ti1  1  0.64062100  0.64062100  0.64062100  1
  Ti  Ti2  1  0.35940600  0.35940600  0.35940600  1
  Fe  Fe0  1  0.14317000  0.14317000  0.14317000  1
  P  P0  1  0.25159000  0.52974400  0.96798400  1
  P  P1  1  0.96798400  0.25159000  0.52974400  1
  P  P2  1  0.52974400  0.96798400  0.25159000  1
  P  P3  1  0.46451800  0.03140400  0.75459000  1
  P  P4  1  0.03140400  0.75459000  0.46451800  1
  P  P5  1  0.75459000  0.46451800  0.03140400  1
  O  O0  1  0.72047600  0.50082400  0.86019100  1
  O  O1  1  0.50082400  0.86019100  0.72047600  1
  O  O2  1  0.07632900  0.70754900  0.93988600  1
  O  O3  1  0.86019100  0.72047600  0.50082400  1
  O  O4  1  0.42421300  0.56597400  0.79002600  1
  O  O5  1  0.23464800  0.35876100  0.98633800  1
  O  O6  1  0.93988600  0.07632900  0.70754900  1
  O  O7  1  0.79002600  0.42421300  0.56597400  1
  O  O8  1  0.56597400  0.79002600  0.42421300  1
  O  O9  1  0.63629900  0.00083000  0.78329000  1
  O  O10  1  0.28699900  0.05113500  0.92720400  1
  O  O11  1  0.00083000  0.78329000  0.63629900  1
  O  O12  1  0.98633800  0.23464800  0.35876100  1
  O  O13  1  0.70754900  0.93988600  0.07632900  1
  O  O14  1  0.35876100  0.98633800  0.23464800  1
  O  O15  1  0.43468900  0.20994000  0.58083000  1
  O  O16  1  0.20994000  0.58083000  0.43468900  1
  O  O17  1  0.05113500  0.92720400  0.28699900  1
  O  O18  1  0.78329000  0.63629900  0.00083000  1
  O  O19  1  0.58083000  0.43468900  0.20994000  1
  O  O20  1  0.13932300  0.28016000  0.50043100  1
  O  O21  1  0.92720400  0.28699900  0.05113500  1
  O  O22  1  0.50043100  0.13932300  0.28016000  1
  O  O23  1  0.28016000  0.50043100  0.13932300  1
loop_
_geom_bond_atom_site_label_1
_geom_bond_atom_site_label_2
_geom_bond_distance
_geom_bond_site_symmetry_2
Fe0 O5 1.981042 1_554
Fe0 O14 1.981042 1_545
Fe0 O12 1.981042 1_455
Fe0 O17 1.992229 1_545
Fe0 O21 1.992229 1_455
Fe0 O10 1.992229 1_554
O0 P5 1.542860 1_556
O0 Ti1 1.960931 1_555
O1 P3 1.542860 1_565
O1 Ti1 1.960931 1_555
O2 P0 1.549798 1_555
O2 Ti0 1.924283 1_455
O3 P4 1.542859 1_655
O3 Ti1 1.960931 1_555
O4 P0 1.549701 1_555
O4 Ti1 1.908702 1_555
O5 P0 1.521601 1_555
O6 P1 1.549798 1_555
O6 Ti0 1.924283 1_545
O7 P1 1.549701 1_555
O7 Ti1 1.908702 1_555
O8 P2 1.549701 1_555
O8 Ti1 1.908702 1_555
O9 P3 1.540446 1_555
O9 Ti0 1.984581 1_545
O10 P3 1.526562 1_555
O11 P4 1.540446 1_555
O11 Ti0 1.984581 1_455
O12 P1 1.521601 1_555
O13 P2 1.549798 1_555
O13 Ti0 1.924283 1_554
O14 P2 1.521601 1_555
O15 P3 1.547477 1_555
O15 Ti2 1.948588 1_555
O16 P4 1.547477 1_555
O16 Ti2 1.948588 1_555
O17 P4 1.526562 1_555
O18 P5 1.540446 1_555
O18 Ti0 1.984581 1_554
O19 P5 1.547477 1_555
O19 Ti2 1.948588 1_555
O20 P1 1.540737 1_455
O20 Ti2 1.961025 1_555
O21 P5 1.526563 1_555
O22 P2 1.540737 1_545
O22 Ti2 1.961025 1_555
O23 P0 1.540737 1_554
O23 Ti2 1.961025 1_555
