# generated using pymatgen
data_Li2Ti3CoO8
_symmetry_space_group_name_H-M   'P 1'
_cell_length_a   8.44457600
_cell_length_b   8.44457600
_cell_length_c   8.44457600
_cell_angle_alpha   90.00000000
_cell_angle_beta   90.00000000
_cell_angle_gamma   90.00000000
_symmetry_Int_Tables_number   1
_chemical_formula_structural   Li2Ti3CoO8
_chemical_formula_sum   'Li8 Ti12 Co4 O32'
_cell_volume   602.19000915
_cell_formula_units_Z   4
loop_
 _symmetry_equiv_pos_site_id
 _symmetry_equiv_pos_as_xyz
  1  'x, y, z'
loop_
 _atom_site_type_symbol
 _atom_site_label
 _atom_site_symmetry_multiplicity
 _atom_site_fract_x
 _atom_site_fract_y
 _atom_site_fract_z
 _atom_site_occupancy
  Li  Li0  1  0.49767800  0.49767800  0.49767800  1
  Li  Li1  1  0.50232200  0.99767800  0.00232200  1
  Li  Li2  1  0.62434500  0.37565500  0.87565500  1
  Li  Li3  1  0.87565500  0.62434500  0.37565500  1
  Li  Li4  1  0.00232200  0.50232200  0.99767800  1
  Li  Li5  1  0.99767800  0.00232200  0.50232200  1
  Li  Li6  1  0.12434500  0.12434500  0.12434500  1
  Li  Li7  1  0.37565500  0.87565500  0.62434500  1
  Ti  Ti0  1  0.63499500  0.62006400  0.12760800  1
  Ti  Ti1  1  0.62006400  0.12760800  0.63499500  1
  Ti  Ti2  1  0.62760800  0.86500500  0.37993600  1
  Ti  Ti3  1  0.87993600  0.87239200  0.13499500  1
  Ti  Ti4  1  0.87239200  0.13499500  0.87993600  1
  Ti  Ti5  1  0.86500500  0.37993600  0.62760800  1
  Ti  Ti6  1  0.12760800  0.63499500  0.62006400  1
  Ti  Ti7  1  0.13499500  0.87993600  0.87239200  1
  Ti  Ti8  1  0.12006400  0.37239200  0.36500500  1
  Ti  Ti9  1  0.37993600  0.62760800  0.86500500  1
  Ti  Ti10  1  0.37239200  0.36500500  0.12006400  1
  Ti  Ti11  1  0.36500500  0.12006400  0.37239200  1
  Co  Co0  1  0.75248600  0.75248600  0.75248600  1
  Co  Co1  1  0.74751400  0.24751400  0.25248600  1
  Co  Co2  1  0.25248600  0.74751400  0.24751400  1
  Co  Co3  1  0.24751400  0.25248600  0.74751400  1
  O  O0  1  0.62797700  0.88957700  0.60752600  1
  O  O1  1  0.63926800  0.86073200  0.13926800  1
  O  O2  1  0.64389000  0.35875100  0.62323600  1
  O  O3  1  0.61042300  0.39247400  0.12797700  1
  O  O4  1  0.60752600  0.62797700  0.88957700  1
  O  O5  1  0.62323600  0.64389000  0.35875100  1
  O  O6  1  0.64124900  0.12323600  0.85611000  1
  O  O7  1  0.61189300  0.11189300  0.38810700  1
  O  O8  1  0.88957700  0.60752600  0.62797700  1
  O  O9  1  0.85611000  0.64124900  0.12323600  1
  O  O10  1  0.88810700  0.88810700  0.88810700  1
  O  O11  1  0.85875100  0.87676400  0.35611000  1
  O  O12  1  0.86073200  0.13926800  0.63926800  1
  O  O13  1  0.87202300  0.11042300  0.10752600  1
  O  O14  1  0.87676400  0.35611000  0.85875100  1
  O  O15  1  0.89247400  0.37202300  0.38957700  1
  O  O16  1  0.13926800  0.63926800  0.86073200  1
  O  O17  1  0.12323600  0.85611000  0.64124900  1
  O  O18  1  0.10752600  0.87202300  0.11042300  1
  O  O19  1  0.11042300  0.10752600  0.87202300  1
  O  O20  1  0.11189300  0.38810700  0.61189300  1
  O  O21  1  0.14124900  0.37676400  0.14389000  1
  O  O22  1  0.12797700  0.61042300  0.39247400  1
  O  O23  1  0.14389000  0.14124900  0.37676400  1
  O  O24  1  0.35875100  0.62323600  0.64389000  1
  O  O25  1  0.38810700  0.61189300  0.11189300  1
  O  O26  1  0.35611000  0.85875100  0.87676400  1
  O  O27  1  0.39247400  0.12797700  0.61042300  1
  O  O28  1  0.37676400  0.14389000  0.14124900  1
  O  O29  1  0.37202300  0.38957700  0.89247400  1
  O  O30  1  0.38957700  0.89247400  0.37202300  1
  O  O31  1  0.36073200  0.36073200  0.36073200  1
loop_
_geom_bond_atom_site_label_1
_geom_bond_atom_site_label_2
_geom_bond_distance
_geom_bond_site_symmetry_2
Li0 O31 2.003032 1_555
Li0 O24 2.006248 1_555
Li0 O5 2.006248 1_555
Li0 O2 2.006248 1_555
Li1 O1 2.003032 1_555
Li1 O6 2.006248 1_564
Li1 O26 2.006248 1_554
Li1 O28 2.006248 1_565
Li2 O4 2.138714 1_555
Li2 O29 2.138714 1_555
Li2 O3 2.138714 1_556
Li2 O2 2.142712 1_555
Li2 O14 2.142712 1_555
Li2 O6 2.142712 1_555
Li3 O8 2.138714 1_555
Li3 O15 2.138714 1_555
Li3 O22 2.138714 1_655
Li3 O11 2.142712 1_555
Li3 O5 2.142712 1_555
Li3 O9 2.142712 1_555
Li4 O16 2.003032 1_555
Li4 O9 2.006248 1_456
Li4 O14 2.006248 1_455
Li4 O21 2.006248 1_556
Li5 O12 2.003032 1_555
Li5 O17 2.006248 1_645
Li5 O11 2.006248 1_545
Li5 O23 2.006248 1_655
Li6 O18 2.138714 1_545
Li6 O19 2.138714 1_554
Li6 O13 2.138714 1_455
Li6 O21 2.142712 1_555
Li6 O28 2.142712 1_555
Li6 O23 2.142712 1_555
Li7 O0 2.138714 1_555
Li7 O30 2.138714 1_555
Li7 O27 2.138714 1_565
Li7 O26 2.142712 1_555
Li7 O24 2.142712 1_555
Li7 O17 2.142712 1_555
Co0 O10 1.983652 1_555
Co0 O8 1.985999 1_555
Co0 O0 1.985999 1_555
Co0 O4 1.985999 1_555
Co1 O7 1.983652 1_555
Co1 O3 1.985999 1_555
Co1 O13 1.985999 1_555
Co1 O15 1.985999 1_555
Co2 O25 1.983652 1_555
Co2 O22 1.985999 1_555
Co2 O18 1.985999 1_555
Co2 O30 1.985999 1_555
Co3 O20 1.983652 1_555
Co3 O27 1.985999 1_555
Co3 O19 1.985999 1_555
Co3 O29 1.985999 1_555
O0 Ti2 1.933073 1_555
O0 Ti1 2.024514 1_565
O1 Ti2 2.035043 1_555
O1 Ti0 2.035043 1_555
O1 Ti3 2.035043 1_555
O2 Ti5 1.876136 1_555
O2 Ti1 1.964758 1_555
O3 Ti0 1.933073 1_555
O3 Ti10 2.024514 1_555
O4 Ti9 1.933073 1_555
O4 Ti0 2.024514 1_556
O5 Ti2 1.876136 1_555
O5 Ti0 1.964758 1_555
O6 Ti1 1.876136 1_555
O6 Ti4 1.964758 1_555
O7 Ti1 2.090223 1_555
O7 Ti11 2.090223 1_555
O7 Ti2 2.090223 1_545
O8 Ti5 1.933073 1_555
O8 Ti6 2.024514 1_655
O9 Ti0 1.876136 1_555
O9 Ti3 1.964758 1_555
O10 Ti4 2.090223 1_565
O10 Ti3 2.090223 1_556
O10 Ti7 2.090223 1_655
O11 Ti3 1.876136 1_555
O11 Ti2 1.964758 1_555
O12 Ti5 2.035043 1_555
O12 Ti4 2.035043 1_555
O12 Ti1 2.035043 1_555
O13 Ti4 1.933073 1_554
O13 Ti3 2.024514 1_545
O14 Ti4 1.876136 1_555
O14 Ti5 1.964758 1_555
O15 Ti8 1.933073 1_655
O15 Ti5 2.024514 1_555
O16 Ti9 2.035043 1_555
O16 Ti7 2.035043 1_555
O16 Ti6 2.035043 1_555
O17 Ti6 1.876136 1_555
O17 Ti7 1.964758 1_555
O18 Ti3 1.933073 1_455
O18 Ti7 2.024514 1_554
O19 Ti7 1.933073 1_545
O19 Ti4 2.024514 1_455
O20 Ti6 2.090223 1_555
O20 Ti8 2.090223 1_555
O20 Ti5 2.090223 1_455
O21 Ti8 1.876136 1_555
O21 Ti10 1.964758 1_555
O22 Ti6 1.933073 1_555
O22 Ti8 2.024514 1_555
O23 Ti11 1.876136 1_555
O23 Ti8 1.964758 1_555
O24 Ti9 1.876136 1_555
O24 Ti6 1.964758 1_555
O25 Ti9 2.090223 1_554
O25 Ti10 2.090223 1_555
O25 Ti0 2.090223 1_555
O26 Ti7 1.876136 1_555
O26 Ti9 1.964758 1_555
O27 Ti1 1.933073 1_555
O27 Ti11 2.024514 1_555
O28 Ti10 1.876136 1_555
O28 Ti11 1.964758 1_555
O29 Ti10 1.933073 1_556
O29 Ti9 2.024514 1_555
O30 Ti11 1.933073 1_565
O30 Ti2 2.024514 1_555
O31 Ti11 2.035043 1_555
O31 Ti10 2.035043 1_555
O31 Ti8 2.035043 1_555
