# generated using pymatgen
data_Li4Co3Cu3(WO8)2
_symmetry_space_group_name_H-M   'P 1'
_cell_length_a   5.90675238
_cell_length_b   5.76977526
_cell_length_c   9.59259711
_cell_angle_alpha   90.03060122
_cell_angle_beta   86.30938750
_cell_angle_gamma   119.32664696
_symmetry_Int_Tables_number   1
_chemical_formula_structural   Li4Co3Cu3(WO8)2
_chemical_formula_sum   'Li4 Co3 Cu3 W2 O16'
_cell_volume   284.25239208
_cell_formula_units_Z   1
loop_
 _symmetry_equiv_pos_site_id
 _symmetry_equiv_pos_as_xyz
  1  'x, y, z'
loop_
 _atom_site_type_symbol
 _atom_site_label
 _atom_site_symmetry_multiplicity
 _atom_site_fract_x
 _atom_site_fract_y
 _atom_site_fract_z
 _atom_site_occupancy
  Li  Li0  1  0.34209300  0.67063400  0.90476500  1
  Li  Li1  1  0.99045800  0.99484300  0.99014600  1
  Li  Li2  1  0.98753500  0.99403100  0.48848900  1
  Li  Li3  1  0.68758500  0.34394400  0.40956100  1
  Co  Co0  1  0.65899000  0.82945800  0.21650100  1
  Co  Co1  1  0.82620700  0.65965100  0.71320800  1
  Co  Co2  1  0.82639100  0.16687700  0.71332700  1
  Cu  Cu0  1  0.16220100  0.82442500  0.21372900  1
  Cu  Cu1  1  0.16212500  0.33754000  0.21373400  1
  Cu  Cu2  1  0.33331900  0.16634100  0.71450900  1
  W  W0  1  0.35349100  0.67701400  0.49244300  1
  W  W1  1  0.66088300  0.32973700  0.98519500  1
  O  O0  1  0.15963600  0.82546500  0.58674500  1
  O  O1  1  0.05881100  0.53049500  0.35708900  1
  O  O2  1  0.34859900  0.67422400  0.12339700  1
  O  O3  1  0.98305500  0.99129400  0.29496200  1
  O  O4  1  0.98312800  0.99187400  0.80116400  1
  O  O5  1  0.15836400  0.33558100  0.58651300  1
  O  O6  1  0.52380200  0.97570900  0.35631100  1
  O  O7  1  0.52410600  0.54886600  0.35687400  1
  O  O8  1  0.32071000  0.15987600  0.07530700  1
  O  O9  1  0.65766800  0.82844200  0.60824600  1
  O  O10  1  0.53312800  0.49528800  0.84374900  1
  O  O11  1  0.53383800  0.03695800  0.84444100  1
  O  O12  1  0.67625300  0.33783900  0.61759900  1
  O  O13  1  0.79560300  0.64617600  0.08501100  1
  O  O14  1  0.95664100  0.47905500  0.82970700  1
  O  O15  1  0.79538100  0.14866500  0.08511800  1
loop_
_geom_bond_atom_site_label_1
_geom_bond_atom_site_label_2
_geom_bond_distance
_geom_bond_site_symmetry_2
Li0 O11 1.912308 1_565
Li0 O10 1.916257 1_555
Li0 O2 2.099978 1_556
Li0 O14 2.160749 1_455
Li1 O4 1.816001 1_555
Li1 O8 1.940133 1_666
Li1 O13 1.949066 1_556
Li1 O15 1.952219 1_566
Li2 O3 1.858266 1_555
Li2 O9 1.979497 1_555
Li2 O5 1.989513 1_665
Li2 O0 1.990102 1_655
Li3 O6 1.939050 1_545
Li3 O1 1.940755 1_655
Li3 O7 1.941057 1_555
Li3 O12 1.992187 1_555
Co0 O3 1.880501 1_555
Co0 O2 1.887483 1_555
Co0 O6 1.915551 1_555
Co0 O7 1.915634 1_555
Co0 O15 2.011905 1_565
Co0 O13 2.015900 1_555
Co1 O12 1.888133 1_555
Co1 O10 1.891638 1_555
Co1 O4 1.898381 1_555
Co1 O14 1.956195 1_555
Co1 O9 2.008253 1_555
Co1 O0 2.028228 1_655
Co2 O12 1.888234 1_555
Co2 O11 1.892673 1_555
Co2 O4 1.898334 1_545
Co2 O14 1.957934 1_555
Co2 O9 2.010772 1_545
Co2 O5 2.024060 1_655
Cu0 O2 1.877541 1_555
Cu0 O3 1.882805 1_455
Cu0 O1 2.005009 1_555
Cu0 O8 2.110302 1_565
Cu0 O13 2.330792 1_455
Cu0 O6 2.396485 1_555
Cu1 O2 1.876365 1_555
Cu1 O3 1.882181 1_445
Cu1 O1 2.014631 1_555
Cu1 O8 2.114359 1_555
Cu1 O15 2.330792 1_455
Cu1 O7 2.401260 1_555
Cu2 O4 1.929454 1_445
Cu2 O12 1.934323 1_555
Cu2 O10 2.126902 1_555
Cu2 O11 2.137933 1_555
Cu2 O0 2.146052 1_545
Cu2 O5 2.163818 1_555
O0 W0 1.920848 1_555
O1 W0 2.068466 1_555
O5 W0 1.915043 1_555
O6 W0 1.955088 1_555
O7 W0 1.952864 1_555
O8 W1 1.895613 1_554
O9 W0 1.985865 1_555
O10 W1 2.040127 1_555
O11 W1 2.031261 1_555
O13 W1 1.885874 1_554
O14 W1 2.051928 1_555
O15 W1 1.885085 1_554
