# generated using pymatgen
data_CaNdMn2O6
_symmetry_space_group_name_H-M   'P 1'
_cell_length_a   30.92931000
_cell_length_b   5.44356100
_cell_length_c   5.50063983
_cell_angle_alpha   89.79320668
_cell_angle_beta   90.00000000
_cell_angle_gamma   90.00000000
_symmetry_Int_Tables_number   1
_chemical_formula_structural   CaNdMn2O6
_chemical_formula_sum   'Ca8 Nd8 Mn16 O48'
_cell_volume   926.11241401
_cell_formula_units_Z   8
loop_
 _symmetry_equiv_pos_site_id
 _symmetry_equiv_pos_as_xyz
  1  'x, y, z'
loop_
 _atom_site_type_symbol
 _atom_site_label
 _atom_site_symmetry_multiplicity
 _atom_site_fract_x
 _atom_site_fract_y
 _atom_site_fract_z
 _atom_site_occupancy
  Ca  Ca0  1  0.00000000  0.98852700  0.03942300  1
  Ca  Ca1  1  0.74977900  0.50959400  0.54147900  1
  Ca  Ca2  1  0.25022100  0.50959400  0.54147900  1
  Ca  Ca3  1  0.50000000  0.50972000  0.54138900  1
  Ca  Ca4  1  0.12427600  0.01037700  0.95968400  1
  Ca  Ca5  1  0.37492200  0.01009200  0.95862800  1
  Ca  Ca6  1  0.62507800  0.01009200  0.95862800  1
  Ca  Ca7  1  0.87572400  0.01037700  0.95968400  1
  Nd  Nd0  1  0.24980300  0.98993800  0.04037600  1
  Nd  Nd1  1  0.50000000  0.98986000  0.04043900  1
  Nd  Nd2  1  0.75019700  0.98993800  0.04037600  1
  Nd  Nd3  1  0.00000000  0.50806700  0.54105600  1
  Nd  Nd4  1  0.37503800  0.49034600  0.45955800  1
  Nd  Nd5  1  0.62496200  0.49034600  0.45955800  1
  Nd  Nd6  1  0.12573600  0.49087900  0.45930200  1
  Nd  Nd7  1  0.87426400  0.49087900  0.45930200  1
  Mn  Mn0  1  0.06253900  0.99997200  0.49999700  1
  Mn  Mn1  1  0.93744700  0.50024100  0.00039400  1
  Mn  Mn2  1  0.06255300  0.50024100  0.00039400  1
  Mn  Mn3  1  0.18747900  0.49894800  0.99800400  1
  Mn  Mn4  1  0.43750400  0.49942200  0.99842200  1
  Mn  Mn5  1  0.56249600  0.49942200  0.99842200  1
  Mn  Mn6  1  0.68739100  0.49996500  0.99835800  1
  Mn  Mn7  1  0.31260900  0.49996500  0.99835800  1
  Mn  Mn8  1  0.81252100  0.49894800  0.99800400  1
  Mn  Mn9  1  0.93746100  0.99997200  0.49999700  1
  Mn  Mn10  1  0.18760800  0.99895700  0.50212100  1
  Mn  Mn11  1  0.43752100  0.99972900  0.50134400  1
  Mn  Mn12  1  0.68755100  0.00003800  0.50152000  1
  Mn  Mn13  1  0.31244900  0.00003800  0.50152000  1
  Mn  Mn14  1  0.56247900  0.99972900  0.50134400  1
  Mn  Mn15  1  0.81239200  0.99895700  0.50212100  1
  O  O0  1  0.12504200  0.92069600  0.52067200  1
  O  O1  1  0.62502300  0.91975800  0.51857900  1
  O  O2  1  0.37497700  0.91975800  0.51857900  1
  O  O3  1  0.87495800  0.92069600  0.52067200  1
  O  O4  1  0.05079300  0.77959900  0.78096500  1
  O  O5  1  0.30190300  0.78476700  0.78502300  1
  O  O6  1  0.19823700  0.78285700  0.78457700  1
  O  O7  1  0.94920700  0.77959900  0.78096500  1
  O  O8  1  0.55187600  0.78441900  0.78481100  1
  O  O9  1  0.80176300  0.78285700  0.78457700  1
  O  O10  1  0.69809700  0.78476700  0.78502300  1
  O  O11  1  0.44812400  0.78441900  0.78481100  1
  O  O12  1  0.94707000  0.71165900  0.28786700  1
  O  O13  1  0.19828000  0.71457000  0.28438000  1
  O  O14  1  0.44840600  0.71611600  0.28410500  1
  O  O15  1  0.69836300  0.71658900  0.28362900  1
  O  O16  1  0.05293000  0.71165900  0.28786700  1
  O  O17  1  0.30163700  0.71658900  0.28362900  1
  O  O18  1  0.55159400  0.71611600  0.28410500  1
  O  O19  1  0.80172000  0.71457000  0.28438000  1
  O  O20  1  0.62500600  0.58136900  0.01925400  1
  O  O21  1  0.12501300  0.58162500  0.01712600  1
  O  O22  1  0.37499400  0.58136900  0.01925400  1
  O  O23  1  0.87498700  0.58162500  0.01712600  1
  O  O24  1  0.00000000  0.41735600  0.98444100  1
  O  O25  1  0.74997700  0.41960000  0.98137200  1
  O  O26  1  0.25002300  0.41960000  0.98137200  1
  O  O27  1  0.50000000  0.41930900  0.98113700  1
  O  O28  1  0.07211500  0.28964700  0.71137000  1
  O  O29  1  0.32304100  0.28490100  0.71493400  1
  O  O30  1  0.57309900  0.28437100  0.71504100  1
  O  O31  1  0.82294800  0.28304100  0.71594800  1
  O  O32  1  0.17705200  0.28304100  0.71594800  1
  O  O33  1  0.67695900  0.28490100  0.71493400  1
  O  O34  1  0.42690100  0.28437100  0.71504100  1
  O  O35  1  0.92788500  0.28964700  0.71137000  1
  O  O36  1  0.17663500  0.21454500  0.21488800  1
  O  O37  1  0.42655200  0.21594900  0.21597800  1
  O  O38  1  0.67659900  0.21660900  0.21607300  1
  O  O39  1  0.92566200  0.22218900  0.22060200  1
  O  O40  1  0.07433800  0.22218900  0.22060200  1
  O  O41  1  0.57344800  0.21594900  0.21597800  1
  O  O42  1  0.82336500  0.21454500  0.21488800  1
  O  O43  1  0.32340100  0.21660900  0.21607300  1
  O  O44  1  0.00000000  0.07735500  0.47748000  1
  O  O45  1  0.25002800  0.08096600  0.48059800  1
  O  O46  1  0.74997200  0.08096600  0.48059800  1
  O  O47  1  0.50000000  0.08113500  0.48067300  1
loop_
_geom_bond_atom_site_label_1
_geom_bond_atom_site_label_2
_geom_bond_distance
_geom_bond_site_symmetry_2
Ca0 O24 2.352784 1_564
Ca0 O7 2.407147 1_454
Ca0 O4 2.407147 1_554
Ca0 O44 2.459342 1_565
Ca0 O16 2.608502 1_555
Ca0 O12 2.608502 1_455
Ca0 O40 2.811877 1_565
Ca0 O39 2.811877 1_465
Ca1 O46 2.358376 1_555
Ca1 O15 2.408057 1_555
Ca1 O19 2.411316 1_555
Ca1 O25 2.467060 1_555
Ca1 O9 2.569103 1_555
Ca1 O10 2.570618 1_555
Ca1 O33 2.733256 1_555
Ca1 O31 2.748609 1_555
Ca2 O45 2.358376 1_555
Ca2 O17 2.408057 1_555
Ca2 O13 2.411316 1_555
Ca2 O26 2.467060 1_555
Ca2 O6 2.569103 1_555
Ca2 O5 2.570618 1_555
Ca2 O29 2.733256 1_555
Ca2 O32 2.748609 1_555
Ca3 O47 2.358005 1_555
Ca3 O14 2.408356 1_555
Ca3 O18 2.408356 1_555
Ca3 O27 2.466715 1_555
Ca3 O11 2.572497 1_555
Ca3 O8 2.572497 1_555
Ca3 O30 2.742338 1_555
Ca3 O34 2.742338 1_555
Ca4 O21 2.354208 1_546
Ca4 O40 2.405588 1_556
Ca4 O36 2.416533 1_556
Ca4 O0 2.465539 1_545
Ca4 O32 2.578885 1_555
Ca4 O28 2.600862 1_555
Ca4 O6 2.775471 1_545
Ca4 O4 2.778315 1_545
Ca5 O22 2.356295 1_546
Ca5 O43 2.412454 1_556
Ca5 O37 2.412697 1_556
Ca5 O2 2.471734 1_545
Ca5 O34 2.568011 1_555
Ca5 O29 2.568094 1_555
Ca5 O5 2.743234 1_545
Ca5 O11 2.749151 1_545
Ca6 O20 2.356295 1_546
Ca6 O38 2.412454 1_556
Ca6 O41 2.412697 1_556
Ca6 O1 2.471734 1_545
Ca6 O30 2.568011 1_555
Ca6 O33 2.568094 1_555
Ca6 O10 2.743234 1_545
Ca6 O8 2.749151 1_545
Ca7 O23 2.354208 1_546
Ca7 O39 2.405588 1_556
Ca7 O42 2.416533 1_556
Ca7 O3 2.465539 1_545
Ca7 O31 2.578885 1_555
Ca7 O35 2.600862 1_555
Ca7 O9 2.775471 1_545
Ca7 O7 2.778315 1_545
Nd0 O26 2.360152 1_564
Nd0 O6 2.409498 1_554
Nd0 O5 2.414183 1_554
Nd0 O45 2.473443 1_565
Nd0 O17 2.561315 1_555
Nd0 O13 2.563852 1_555
Nd0 O36 2.747029 1_565
Nd0 O43 2.765290 1_565
Nd1 O27 2.359214 1_564
Nd1 O11 2.411134 1_554
Nd1 O8 2.411134 1_554
Nd1 O47 2.473773 1_565
Nd1 O14 2.559108 1_555
Nd1 O18 2.559108 1_555
Nd1 O41 2.759749 1_565
Nd1 O37 2.759749 1_565
Nd2 O25 2.360152 1_564
Nd2 O9 2.409498 1_554
Nd2 O10 2.414183 1_554
Nd2 O46 2.473443 1_565
Nd2 O15 2.561315 1_555
Nd2 O19 2.563852 1_555
Nd2 O42 2.747029 1_565
Nd2 O38 2.765290 1_565
Nd3 O44 2.371792 1_555
Nd3 O16 2.415944 1_555
Nd3 O12 2.415944 1_455
Nd3 O24 2.486639 1_555
Nd3 O7 2.531475 1_455
Nd3 O4 2.531475 1_555
Nd3 O28 2.694120 1_555
Nd3 O35 2.694120 1_455
Nd4 O2 2.361129 1_555
Nd4 O34 2.407035 1_555
Nd4 O29 2.408122 1_555
Nd4 O22 2.470366 1_555
Nd4 O43 2.565019 1_555
Nd4 O37 2.565023 1_555
Nd4 O14 2.753662 1_555
Nd4 O17 2.756563 1_555
Nd5 O1 2.361129 1_555
Nd5 O30 2.407035 1_555
Nd5 O33 2.408122 1_555
Nd5 O20 2.470366 1_555
Nd5 O38 2.565019 1_555
Nd5 O41 2.565023 1_555
Nd5 O18 2.753662 1_555
Nd5 O15 2.756563 1_555
Nd6 O0 2.365265 1_555
Nd6 O32 2.404275 1_555
Nd6 O28 2.421146 1_555
Nd6 O21 2.480260 1_555
Nd6 O40 2.530669 1_555
Nd6 O36 2.561868 1_555
Nd6 O16 2.719604 1_555
Nd6 O13 2.726614 1_555
Nd7 O3 2.365265 1_555
Nd7 O31 2.404275 1_555
Nd7 O35 2.421146 1_555
Nd7 O23 2.480260 1_555
Nd7 O39 2.530669 1_555
Nd7 O42 2.561868 1_555
Nd7 O12 2.719604 1_555
Nd7 O19 2.726614 1_555
Mn0 O16 1.981479 1_555
Mn0 O44 1.983400 1_565
Mn0 O0 1.983929 1_555
Mn0 O28 1.984766 1_565
Mn0 O40 1.986184 1_565
Mn0 O4 1.986519 1_555
Mn1 O39 1.969214 1_555
Mn1 O7 1.971911 1_554
Mn1 O12 1.981585 1_555
Mn1 O23 1.984201 1_555
Mn1 O35 1.985530 1_554
Mn1 O24 1.988644 1_654
Mn2 O40 1.969214 1_555
Mn2 O4 1.971911 1_554
Mn2 O16 1.981585 1_555
Mn2 O21 1.984201 1_555
Mn2 O28 1.985530 1_554
Mn2 O24 1.988644 1_554
Mn3 O6 1.965796 1_555
Mn3 O32 1.976265 1_555
Mn3 O36 1.979703 1_556
Mn3 O26 1.984261 1_555
Mn3 O21 1.986630 1_556
Mn3 O13 1.996010 1_556
Mn4 O11 1.970327 1_555
Mn4 O37 1.978551 1_556
Mn4 O34 1.980129 1_555
Mn4 O27 1.983898 1_555
Mn4 O22 1.987584 1_556
Mn4 O14 1.996979 1_556
Mn5 O8 1.970327 1_555
Mn5 O41 1.978551 1_556
Mn5 O30 1.980129 1_555
Mn5 O27 1.983898 1_555
Mn5 O20 1.987584 1_556
Mn5 O18 1.996979 1_556
Mn6 O10 1.969038 1_555
Mn6 O38 1.977741 1_556
Mn6 O33 1.979488 1_555
Mn6 O20 1.983181 1_556
Mn6 O25 1.986832 1_555
Mn6 O15 1.995332 1_556
Mn7 O5 1.969038 1_555
Mn7 O43 1.977741 1_556
Mn7 O29 1.979488 1_555
Mn7 O22 1.983181 1_556
Mn7 O26 1.986832 1_555
Mn7 O17 1.995332 1_556
Mn8 O9 1.965796 1_555
Mn8 O31 1.976265 1_555
Mn8 O42 1.979703 1_556
Mn8 O25 1.984261 1_555
Mn8 O23 1.986630 1_556
Mn8 O19 1.996010 1_556
Mn9 O12 1.981479 1_555
Mn9 O44 1.983400 1_665
Mn9 O3 1.983929 1_555
Mn9 O35 1.984766 1_565
Mn9 O39 1.986184 1_565
Mn9 O7 1.986519 1_555
Mn10 O6 1.972977 1_555
Mn10 O32 1.973469 1_565
Mn10 O0 1.984009 1_555
Mn10 O45 1.984987 1_565
Mn10 O13 1.988316 1_555
Mn10 O36 1.993827 1_565
Mn11 O11 1.974671 1_555
Mn11 O34 1.975757 1_565
Mn11 O14 1.984463 1_555
Mn11 O2 1.985011 1_555
Mn11 O47 1.985757 1_565
Mn11 O37 1.987725 1_565
Mn12 O10 1.974409 1_545
Mn12 O33 1.975629 1_555
Mn12 O46 1.983511 1_555
Mn12 O1 1.984853 1_545
Mn12 O15 1.985557 1_545
Mn12 O38 1.989113 1_555
Mn13 O5 1.974409 1_545
Mn13 O29 1.975629 1_555
Mn13 O45 1.983511 1_555
Mn13 O2 1.984853 1_545
Mn13 O17 1.985557 1_545
Mn13 O43 1.989113 1_555
Mn14 O8 1.974671 1_555
Mn14 O30 1.975757 1_565
Mn14 O18 1.984463 1_555
Mn14 O1 1.985011 1_555
Mn14 O47 1.985757 1_565
Mn14 O41 1.987725 1_565
Mn15 O9 1.972977 1_555
Mn15 O31 1.973469 1_565
Mn15 O3 1.984009 1_555
Mn15 O46 1.984987 1_565
Mn15 O19 1.988316 1_555
Mn15 O42 1.993827 1_565
