# generated using pymatgen
data_Y2Sb2O7
_symmetry_space_group_name_H-M   'P 1'
_cell_length_a   7.55935794
_cell_length_b   7.55935794
_cell_length_c   18.57285300
_cell_angle_alpha   90.00000000
_cell_angle_beta   90.00000000
_cell_angle_gamma   119.99999951
_symmetry_Int_Tables_number   1
_chemical_formula_structural   Y2Sb2O7
_chemical_formula_sum   'Y12 Sb12 O42'
_cell_volume   919.13451648
_cell_formula_units_Z   6
loop_
 _symmetry_equiv_pos_site_id
 _symmetry_equiv_pos_as_xyz
  1  'x, y, z'
loop_
 _atom_site_type_symbol
 _atom_site_label
 _atom_site_symmetry_multiplicity
 _atom_site_fract_x
 _atom_site_fract_y
 _atom_site_fract_z
 _atom_site_occupancy
  Y  Y0  1  0.00000000  0.82146200  0.66666700  1
  Y  Y1  1  0.00000000  0.83460300  0.16666700  1
  Y  Y2  1  0.18110800  0.68099900  0.01133100  1
  Y  Y3  1  0.17853800  0.17853800  0.00000000  1
  Y  Y4  1  0.49989100  0.81889200  0.67799800  1
  Y  Y5  1  0.16539700  0.16539700  0.50000000  1
  Y  Y6  1  0.31900100  0.50010900  0.34466500  1
  Y  Y7  1  0.50010900  0.31900100  0.65533500  1
  Y  Y8  1  0.68099900  0.18110800  0.98866900  1
  Y  Y9  1  0.81889200  0.49989100  0.32200200  1
  Y  Y10  1  0.83460300  0.00000000  0.83333300  1
  Y  Y11  1  0.82146200  0.00000000  0.33333300  1
  Sb  Sb0  1  0.00000000  0.32359500  0.16666700  1
  Sb  Sb1  1  0.00000000  0.29904000  0.66666700  1
  Sb  Sb2  1  0.16398900  0.66545400  0.50067700  1
  Sb  Sb3  1  0.50146400  0.83601100  0.16734400  1
  Sb  Sb4  1  0.33454600  0.49853600  0.83401100  1
  Sb  Sb5  1  0.29904000  0.00000000  0.33333300  1
  Sb  Sb6  1  0.67640500  0.67640500  0.50000000  1
  Sb  Sb7  1  0.32359500  0.00000000  0.83333300  1
  Sb  Sb8  1  0.70096000  0.70096000  0.00000000  1
  Sb  Sb9  1  0.49853600  0.33454600  0.16598900  1
  Sb  Sb10  1  0.66545400  0.16398900  0.49932300  1
  Sb  Sb11  1  0.83601100  0.50146400  0.83265600  1
  O  O0  1  0.01794200  0.85202300  0.28452600  1
  O  O1  1  0.99405500  0.80175800  0.80574400  1
  O  O2  1  0.10603900  0.65648900  0.39380700  1
  O  O3  1  0.05681800  0.44316600  0.80622100  1
  O  O4  1  0.32725000  0.99305800  0.95577700  1
  O  O5  1  0.22635400  0.69476300  0.60624100  1
  O  O6  1  0.00694200  0.33419200  0.28911100  1
  O  O7  1  0.20340400  0.68598400  0.13994300  1
  O  O8  1  0.38634900  0.94318200  0.47288700  1
  O  O9  1  0.46840900  0.77364600  0.27290800  1
  O  O10  1  0.48258000  0.79659600  0.80661000  1
  O  O11  1  0.34351100  0.44955000  0.72714000  1
  O  O12  1  0.14797700  0.16591800  0.61785900  1
  O  O13  1  0.31401600  0.51742000  0.47327600  1
  O  O14  1  0.19824200  0.19229700  0.13907800  1
  O  O15  1  0.16591800  0.14797700  0.38214100  1
  O  O16  1  0.30523700  0.53159100  0.93957500  1
  O  O17  1  0.19229700  0.19824200  0.86092200  1
  O  O18  1  0.55045000  0.89396100  0.06047400  1
  O  O19  1  0.55683400  0.61365100  0.13955400  1
  O  O20  1  0.80770300  0.00594500  0.47241100  1
  O  O21  1  0.66580800  0.67275000  0.62244400  1
  O  O22  1  0.44955000  0.34351100  0.27286000  1
  O  O23  1  0.61365100  0.55683400  0.86044600  1
  O  O24  1  0.33419200  0.00694200  0.71088900  1
  O  O25  1  0.83408200  0.98205800  0.95119300  1
  O  O26  1  0.53159100  0.30523700  0.06042500  1
  O  O27  1  0.67275000  0.66580800  0.37755600  1
  O  O28  1  0.51742000  0.31401600  0.52672400  1
  O  O29  1  0.44316600  0.05681800  0.19377900  1
  O  O30  1  0.69476300  0.22635400  0.39375900  1
  O  O31  1  0.68598400  0.20340400  0.86005700  1
  O  O32  1  0.89396100  0.55045000  0.93952600  1
  O  O33  1  0.98205800  0.83408200  0.04880700  1
  O  O34  1  0.79659600  0.48258000  0.19339000  1
  O  O35  1  0.00594500  0.80770300  0.52758900  1
  O  O36  1  0.77364600  0.46840900  0.72709200  1
  O  O37  1  0.65648900  0.10603900  0.60619300  1
  O  O38  1  0.94318200  0.38634900  0.52711300  1
  O  O39  1  0.80175800  0.99405500  0.19425600  1
  O  O40  1  0.99305800  0.32725000  0.04422300  1
  O  O41  1  0.85202300  0.01794200  0.71547400  1
loop_
_geom_bond_atom_site_label_1
_geom_bond_atom_site_label_2
_geom_bond_distance
_geom_bond_site_symmetry_2
O0 Sb5 2.052153 1_565
O0 Y1 2.193057 1_555
O0 Y9 2.414312 1_455
O0 Y11 2.437302 1_465
O1 Sb11 2.029328 1_555
O1 Sb7 2.231772 1_665
O1 Y10 2.401565 1_565
O1 Y0 2.586444 1_655
O2 Sb2 2.026464 1_555
O2 Y9 2.306952 1_455
O2 Sb5 2.518837 1_565
O2 Y6 2.593293 1_555
O3 Sb11 1.989208 1_455
O3 Sb4 1.992616 1_555
O4 Sb7 2.275226 1_565
O4 Y2 2.289919 1_556
O4 Y3 2.341043 1_566
O4 Y8 2.396561 1_565
O5 Sb2 2.002733 1_555
O5 Y4 2.234287 1_555
O5 Y0 2.596821 1_555
O6 Sb0 2.275226 1_555
O6 Y6 2.289919 1_555
O6 Y11 2.341036 1_455
O6 Y9 2.396556 1_455
O7 Sb3 2.016566 1_555
O7 Y1 2.366473 1_555
O7 Y2 2.393601 1_555
O7 Sb0 2.429587 1_555
O8 Sb10 1.989213 1_565
O8 Sb2 1.992621 1_555
O9 Sb3 2.002733 1_555
O9 Y6 2.234287 1_555
O9 Y11 2.596813 1_565
O10 Sb4 2.016566 1_555
O10 Y10 2.366469 1_565
O10 Y4 2.393601 1_555
O10 Sb7 2.429583 1_565
O11 Sb4 2.026484 1_555
O11 Y7 2.306952 1_555
O11 Sb1 2.518829 1_555
O11 Y4 2.593293 1_555
O12 Sb1 2.052167 1_555
O12 Y5 2.193057 1_555
O12 Y7 2.414312 1_555
O12 Y0 2.437303 1_545
O13 Sb2 2.016572 1_555
O13 Y5 2.366473 1_555
O13 Y6 2.393582 1_555
O13 Sb6 2.429587 1_555
O14 Sb9 2.029324 1_555
O14 Sb0 2.231772 1_555
O14 Y1 2.401565 1_545
O14 Y3 2.586463 1_555
O15 Sb5 2.052167 1_555
O15 Y5 2.193057 1_555
O15 Y6 2.414312 1_555
O15 Y11 2.437303 1_455
O16 Sb4 2.002732 1_555
O16 Y2 2.234276 1_556
O16 Y3 2.596813 1_556
O17 Sb4 2.029324 1_555
O17 Sb7 2.231772 1_555
O17 Y10 2.401565 1_455
O17 Y3 2.586463 1_556
O18 Sb3 2.026465 1_555
O18 Y8 2.306952 1_564
O18 Sb8 2.518837 1_555
O18 Y2 2.593300 1_555
O19 Sb9 1.989208 1_555
O19 Sb3 1.992630 1_555
O20 Sb10 2.029322 1_555
O20 Sb6 2.231772 1_545
O20 Y5 2.401565 1_655
O20 Y11 2.586463 1_555
O21 Sb6 2.275226 1_555
O21 Y4 2.289919 1_555
O21 Y0 2.341043 1_655
O21 Y7 2.396556 1_555
O22 Sb9 2.026484 1_555
O22 Y6 2.306952 1_555
O22 Sb5 2.518829 1_555
O22 Y9 2.593293 1_555
O23 Sb4 1.989208 1_555
O23 Sb11 1.992630 1_555
O24 Sb7 2.275226 1_555
O24 Y7 2.289919 1_555
O24 Y0 2.341036 1_545
O24 Y4 2.396556 1_545
O25 Sb8 2.052153 1_556
O25 Y10 2.193076 1_565
O25 Y8 2.414318 1_565
O25 Y3 2.437297 1_666
O26 Sb9 2.002732 1_555
O26 Y8 2.234276 1_554
O26 Y3 2.596813 1_555
O27 Sb6 2.275226 1_555
O27 Y9 2.289919 1_555
O27 Y11 2.341043 1_565
O27 Y6 2.396556 1_555
O28 Sb10 2.016572 1_555
O28 Y5 2.366473 1_555
O28 Y7 2.393582 1_555
O28 Sb6 2.429587 1_555
O29 Sb3 1.989208 1_545
O29 Sb9 1.992616 1_555
O30 Sb10 2.002733 1_555
O30 Y9 2.234287 1_555
O30 Y11 2.596821 1_555
O31 Sb11 2.016566 1_555
O31 Y10 2.366473 1_555
O31 Y8 2.393601 1_555
O31 Sb7 2.429587 1_555
O32 Sb11 2.026465 1_555
O32 Y2 2.306952 1_656
O32 Sb8 2.518837 1_556
O32 Y8 2.593300 1_555
O33 Sb8 2.052153 1_555
O33 Y1 2.193076 1_655
O33 Y2 2.414318 1_655
O33 Y3 2.437297 1_665
O34 Sb9 2.016566 1_555
O34 Y1 2.366469 1_655
O34 Y9 2.393601 1_555
O34 Sb0 2.429583 1_655
O35 Sb2 2.029322 1_555
O35 Sb6 2.231772 1_455
O35 Y5 2.401565 1_565
O35 Y0 2.586463 1_555
O36 Sb11 2.002733 1_555
O36 Y7 2.234287 1_555
O36 Y0 2.596813 1_655
O37 Sb10 2.026464 1_555
O37 Y4 2.306952 1_545
O37 Sb1 2.518837 1_655
O37 Y7 2.593293 1_555
O38 Sb2 1.989213 1_655
O38 Sb10 1.992621 1_555
O39 Sb3 2.029328 1_555
O39 Sb0 2.231772 1_665
O39 Y1 2.401565 1_655
O39 Y11 2.586444 1_565
O40 Sb0 2.275226 1_655
O40 Y8 2.289919 1_554
O40 Y3 2.341043 1_655
O40 Y2 2.396561 1_655
O41 Sb1 2.052153 1_655
O41 Y10 2.193057 1_555
O41 Y4 2.414312 1_545
O41 Y0 2.437302 1_645
