# generated using pymatgen
data_LiCo2OF5
_symmetry_space_group_name_H-M   'P 1'
_cell_length_a   4.56096400
_cell_length_b   4.99134100
_cell_length_c   16.90329880
_cell_angle_alpha   89.72634467
_cell_angle_beta   90.00000000
_cell_angle_gamma   90.00000000
_symmetry_Int_Tables_number   1
_chemical_formula_structural   LiCo2OF5
_chemical_formula_sum   'Li4 Co8 O4 F20'
_cell_volume   384.80472886
_cell_formula_units_Z   4
loop_
 _symmetry_equiv_pos_site_id
 _symmetry_equiv_pos_as_xyz
  1  'x, y, z'
loop_
 _atom_site_type_symbol
 _atom_site_label
 _atom_site_symmetry_multiplicity
 _atom_site_fract_x
 _atom_site_fract_y
 _atom_site_fract_z
 _atom_site_occupancy
  Li  Li0  1  0.23348400  0.74404600  0.61544000  1
  Li  Li1  1  0.24644200  0.25401300  0.38409600  1
  Li  Li2  1  0.76651600  0.74404600  0.11544000  1
  Li  Li3  1  0.75355800  0.25401300  0.88409600  1
  Co  Co0  1  0.27218100  0.22178000  0.71750800  1
  Co  Co1  1  0.27708000  0.76778200  0.94001800  1
  Co  Co2  1  0.26261800  0.75787400  0.28786800  1
  Co  Co3  1  0.25101400  0.25730100  0.04938200  1
  Co  Co4  1  0.73738200  0.75787400  0.78786800  1
  Co  Co5  1  0.72292000  0.76778200  0.44001800  1
  Co  Co6  1  0.72781900  0.22178000  0.21750900  1
  Co  Co7  1  0.74898600  0.25730100  0.54938200  1
  O  O0  1  0.50550400  0.92677500  0.21661700  1
  O  O1  1  0.47907800  0.89494600  0.36961900  1
  O  O2  1  0.52092200  0.89494600  0.86961900  1
  O  O3  1  0.49449600  0.92677500  0.71661700  1
  F  F0  1  0.47644000  0.92750600  0.03997400  1
  F  F1  1  0.47834700  0.41385900  0.96171800  1
  F  F2  1  0.51643800  0.43568700  0.79272000  1
  F  F3  1  0.48886800  0.40760600  0.62334300  1
  F  F4  1  0.51113200  0.40760600  0.12334300  1
  F  F5  1  0.48356200  0.43568700  0.29272000  1
  F  F6  1  0.52356000  0.92750600  0.53997400  1
  F  F7  1  0.52165300  0.41385900  0.46171800  1
  F  F8  1  0.97196500  0.57659900  0.53326900  1
  F  F9  1  0.97799300  0.08523000  0.46530300  1
  F  F10  1  0.00776900  0.57618200  0.71191200  1
  F  F11  1  0.02528300  0.06835300  0.29530900  1
  F  F12  1  0.98019700  0.59132800  0.86897500  1
  F  F13  1  0.99199400  0.09313000  0.12693000  1
  F  F14  1  0.00800600  0.09313000  0.62693000  1
  F  F15  1  0.01980300  0.59132800  0.36897500  1
  F  F16  1  0.99223100  0.57618200  0.21191200  1
  F  F17  1  0.97471700  0.06835300  0.79530900  1
  F  F18  1  0.02200700  0.08523000  0.96530300  1
  F  F19  1  0.02803500  0.57659900  0.03326900  1
loop_
_geom_bond_atom_site_label_1
_geom_bond_atom_site_label_2
_geom_bond_distance
_geom_bond_site_symmetry_2
Li0 O3 2.277902 1_555
Li1 O1 2.098085 1_545
Li2 O0 2.277902 1_555
Li3 O2 2.098085 1_545
Co0 O3 1.787944 1_545
Co0 F2 2.002572 1_555
Co0 F17 2.036420 1_455
Co0 F14 2.053695 1_555
Co0 F3 2.087208 1_555
Co0 F10 2.142633 1_555
Co1 O2 1.746019 1_555
Co1 F18 2.013257 1_565
Co1 F12 2.015289 1_455
Co1 F1 2.022801 1_555
Co1 F0 2.080849 1_556
Co1 F19 2.161259 1_556
Co2 O1 1.833401 1_555
Co2 O0 1.838139 1_555
Co2 F11 1.895001 1_565
Co2 F5 1.899235 1_555
Co2 F15 1.945821 1_555
Co2 F16 2.000707 1_455
Co3 F4 1.882093 1_555
Co3 F19 1.909000 1_555
Co3 F13 1.942965 1_455
Co3 F0 1.947976 1_545
Co3 F18 1.964719 1_554
Co3 F1 1.967337 1_554
Co4 O2 1.833401 1_555
Co4 O3 1.838139 1_555
Co4 F17 1.895001 1_565
Co4 F2 1.899235 1_555
Co4 F12 1.945821 1_555
Co4 F10 2.000707 1_655
Co5 O1 1.746019 1_555
Co5 F9 2.013257 1_565
Co5 F15 2.015289 1_655
Co5 F7 2.022801 1_555
Co5 F6 2.080849 1_555
Co5 F8 2.161259 1_555
Co6 O0 1.787945 1_545
Co6 F5 2.002562 1_555
Co6 F11 2.036409 1_655
Co6 F13 2.053707 1_555
Co6 F4 2.087221 1_555
Co6 F16 2.142633 1_555
Co7 F3 1.882093 1_555
Co7 F8 1.909000 1_555
Co7 F14 1.942965 1_655
Co7 F6 1.947976 1_545
Co7 F9 1.964719 1_555
Co7 F7 1.967337 1_555
F0 Li2 2.050606 1_555
F1 Li3 1.985869 1_555
F2 Li3 2.089064 1_555
F3 Li0 2.047550 1_555
F4 Li2 2.047550 1_555
F5 Li1 2.089064 1_555
F6 Li0 2.050606 1_555
F7 Li1 1.985869 1_555
F8 Li0 2.015331 1_655
F9 Li1 2.020400 1_655
F10 Li0 2.099514 1_555
F11 Li1 2.035165 1_555
F12 Li3 1.991087 1_555
F13 Li2 2.033348 1_545
F14 Li0 2.033348 1_545
F15 Li1 1.991087 1_555
F16 Li2 2.099514 1_555
F17 Li3 2.035165 1_555
F18 Li3 2.020400 1_455
F19 Li2 2.015331 1_455
