# generated using pymatgen
data_Tb4Nb4O11
_symmetry_space_group_name_H-M   'P 1'
_cell_length_a   5.82975700
_cell_length_b   10.97634600
_cell_length_c   16.28714200
_cell_angle_alpha   90.00000000
_cell_angle_beta   90.00000000
_cell_angle_gamma   90.00000000
_symmetry_Int_Tables_number   1
_chemical_formula_structural   Tb4Nb4O11
_chemical_formula_sum   'Tb16 Nb16 O44'
_cell_volume   1042.20493174
_cell_formula_units_Z   4
loop_
 _symmetry_equiv_pos_site_id
 _symmetry_equiv_pos_as_xyz
  1  'x, y, z'
loop_
 _atom_site_type_symbol
 _atom_site_label
 _atom_site_symmetry_multiplicity
 _atom_site_fract_x
 _atom_site_fract_y
 _atom_site_fract_z
 _atom_site_occupancy
  Tb  Tb0  1  0.50000000  0.07631100  0.09872200  1
  Tb  Tb1  1  0.00000000  0.09717800  0.23594900  1
  Tb  Tb2  1  0.00000000  0.11259600  0.92167900  1
  Tb  Tb3  1  0.50000000  0.18596800  0.77806300  1
  Tb  Tb4  1  0.50000000  0.31403200  0.27806300  1
  Tb  Tb5  1  0.00000000  0.38740400  0.42167900  1
  Tb  Tb6  1  0.00000000  0.40282200  0.73594900  1
  Tb  Tb7  1  0.50000000  0.42368900  0.59872200  1
  Tb  Tb8  1  0.50000000  0.57631100  0.40127800  1
  Tb  Tb9  1  0.00000000  0.59717800  0.26405100  1
  Tb  Tb10  1  0.00000000  0.61259600  0.57832100  1
  Tb  Tb11  1  0.50000000  0.68596800  0.72193700  1
  Tb  Tb12  1  0.50000000  0.81403200  0.22193700  1
  Tb  Tb13  1  0.00000000  0.88740400  0.07832100  1
  Tb  Tb14  1  0.00000000  0.90282200  0.76405100  1
  Tb  Tb15  1  0.50000000  0.92368900  0.90127800  1
  Nb  Nb0  1  0.00000000  0.08999400  0.43519400  1
  Nb  Nb1  1  0.50000000  0.09348100  0.43147400  1
  Nb  Nb2  1  0.25069000  0.13929400  0.58863700  1
  Nb  Nb3  1  0.74931000  0.13929400  0.58863700  1
  Nb  Nb4  1  0.25069000  0.36070600  0.08863700  1
  Nb  Nb5  1  0.74931000  0.36070600  0.08863700  1
  Nb  Nb6  1  0.50000000  0.40651900  0.93147400  1
  Nb  Nb7  1  0.00000000  0.41000600  0.93519400  1
  Nb  Nb8  1  0.00000000  0.58999400  0.06480600  1
  Nb  Nb9  1  0.50000000  0.59348100  0.06852600  1
  Nb  Nb10  1  0.25069000  0.63929400  0.91136300  1
  Nb  Nb11  1  0.74931000  0.63929400  0.91136300  1
  Nb  Nb12  1  0.25069000  0.86070600  0.41136300  1
  Nb  Nb13  1  0.74931000  0.86070600  0.41136300  1
  Nb  Nb14  1  0.50000000  0.90651900  0.56852600  1
  Nb  Nb15  1  0.00000000  0.91000600  0.56480600  1
  O  O0  1  0.24693800  0.00000000  0.00000000  1
  O  O1  1  0.75306200  0.00000000  0.00000000  1
  O  O2  1  0.50000000  0.05091200  0.66166600  1
  O  O3  1  0.24858200  0.03859100  0.82804600  1
  O  O4  1  0.75141800  0.03859100  0.82804600  1
  O  O5  1  0.00000000  0.04657400  0.65930300  1
  O  O6  1  0.24367000  0.19194000  0.35934400  1
  O  O7  1  0.75633000  0.19194000  0.35934400  1
  O  O8  1  0.26401200  0.22198700  0.17601200  1
  O  O9  1  0.73598800  0.22198700  0.17601200  1
  O  O10  1  0.00000000  0.23939000  0.52228200  1
  O  O11  1  0.50000000  0.24017300  0.52108800  1
  O  O12  1  0.50000000  0.25982700  0.02108800  1
  O  O13  1  0.00000000  0.26061000  0.02228200  1
  O  O14  1  0.26401200  0.27801300  0.67601200  1
  O  O15  1  0.73598800  0.27801300  0.67601200  1
  O  O16  1  0.24367000  0.30806000  0.85934400  1
  O  O17  1  0.75633000  0.30806000  0.85934400  1
  O  O18  1  0.00000000  0.45342600  0.15930300  1
  O  O19  1  0.24858200  0.46140900  0.32804600  1
  O  O20  1  0.75141800  0.46140900  0.32804600  1
  O  O21  1  0.50000000  0.44908800  0.16166600  1
  O  O22  1  0.24693800  0.50000000  0.50000000  1
  O  O23  1  0.75306200  0.50000000  0.50000000  1
  O  O24  1  0.50000000  0.55091200  0.83833400  1
  O  O25  1  0.24858200  0.53859100  0.67195400  1
  O  O26  1  0.75141800  0.53859100  0.67195400  1
  O  O27  1  0.00000000  0.54657400  0.84069700  1
  O  O28  1  0.24367000  0.69194000  0.14065600  1
  O  O29  1  0.75633000  0.69194000  0.14065600  1
  O  O30  1  0.26401200  0.72198700  0.32398800  1
  O  O31  1  0.73598800  0.72198700  0.32398800  1
  O  O32  1  0.00000000  0.73939000  0.97771800  1
  O  O33  1  0.50000000  0.74017300  0.97891200  1
  O  O34  1  0.50000000  0.75982700  0.47891200  1
  O  O35  1  0.00000000  0.76061000  0.47771800  1
  O  O36  1  0.26401200  0.77801300  0.82398800  1
  O  O37  1  0.73598800  0.77801300  0.82398800  1
  O  O38  1  0.24367000  0.80806000  0.64065600  1
  O  O39  1  0.75633000  0.80806000  0.64065600  1
  O  O40  1  0.00000000  0.95342600  0.34069700  1
  O  O41  1  0.24858200  0.96140900  0.17195400  1
  O  O42  1  0.75141800  0.96140900  0.17195400  1
  O  O43  1  0.50000000  0.94908800  0.33833400  1
loop_
_geom_bond_atom_site_label_1
_geom_bond_atom_site_label_2
_geom_bond_distance
_geom_bond_site_symmetry_2
Nb0 O40 2.148451 1_545
Nb0 O10 2.168160 1_555
Nb0 O7 2.190031 1_455
Nb0 O6 2.190031 1_555
Nb1 O11 2.173215 1_555
Nb1 O6 2.186584 1_555
Nb1 O7 2.186584 1_555
Nb1 O43 2.193895 1_545
Nb2 O14 2.085572 1_555
Nb2 O2 2.113833 1_555
Nb2 O5 2.120452 1_555
Nb2 O10 2.123905 1_555
Nb2 O11 2.132813 1_555
Nb3 O15 2.085572 1_555
Nb3 O2 2.113833 1_555
Nb3 O5 2.120452 1_655
Nb3 O10 2.123905 1_655
Nb3 O11 2.132813 1_555
Nb4 O8 2.085572 1_555
Nb4 O21 2.113833 1_555
Nb4 O18 2.120452 1_555
Nb4 O13 2.123905 1_555
Nb4 O12 2.132813 1_555
Nb5 O9 2.085572 1_555
Nb5 O21 2.113833 1_555
Nb5 O18 2.120452 1_655
Nb5 O13 2.123905 1_655
Nb5 O12 2.132813 1_555
Nb6 O12 2.173215 1_556
Nb6 O16 2.186584 1_555
Nb6 O17 2.186584 1_555
Nb6 O24 2.193895 1_555
Nb7 O27 2.148451 1_555
Nb7 O13 2.168160 1_556
Nb7 O16 2.190031 1_555
Nb7 O17 2.190031 1_455
Nb8 O18 2.148451 1_555
Nb8 O32 2.168160 1_554
Nb8 O29 2.190031 1_455
Nb8 O28 2.190031 1_555
Nb9 O33 2.173215 1_554
Nb9 O28 2.186584 1_555
Nb9 O29 2.186584 1_555
Nb9 O21 2.193895 1_555
Nb10 O36 2.085572 1_555
Nb10 O24 2.113833 1_555
Nb10 O27 2.120452 1_555
Nb10 O32 2.123905 1_555
Nb10 O33 2.132813 1_555
Nb11 O37 2.085572 1_555
Nb11 O24 2.113833 1_555
Nb11 O27 2.120452 1_655
Nb11 O32 2.123905 1_655
Nb11 O33 2.132813 1_555
Nb12 O30 2.085572 1_555
Nb12 O43 2.113833 1_555
Nb12 O40 2.120452 1_555
Nb12 O35 2.123905 1_555
Nb12 O34 2.132813 1_555
Nb13 O31 2.085572 1_555
Nb13 O43 2.113833 1_555
Nb13 O40 2.120452 1_655
Nb13 O35 2.123905 1_655
Nb13 O34 2.132813 1_555
Nb14 O34 2.173215 1_555
Nb14 O38 2.186584 1_555
Nb14 O39 2.186584 1_555
Nb14 O2 2.193895 1_565
Nb15 O5 2.148451 1_565
Nb15 O35 2.168160 1_555
Nb15 O38 2.190031 1_555
Nb15 O39 2.190031 1_455
O0 Tb13 2.286278 1_545
O0 Tb2 2.286278 1_554
O0 Tb0 2.337396 1_555
O0 Tb15 2.337396 1_544
O1 Tb13 2.286278 1_645
O1 Tb2 2.286278 1_654
O1 Tb0 2.337396 1_555
O1 Tb15 2.337396 1_544
O2 Tb3 2.406561 1_555
O3 Tb2 2.255129 1_555
O3 Tb15 2.271906 1_545
O3 Tb14 2.325364 1_545
O3 Tb3 2.329774 1_555
O4 Tb2 2.255129 1_655
O4 Tb15 2.271906 1_545
O4 Tb14 2.325364 1_645
O4 Tb3 2.329774 1_555
O5 Tb14 2.323848 1_545
O6 Tb4 2.404481 1_555
O6 Tb1 2.671876 1_555
O6 Tb5 2.766182 1_555
O7 Tb4 2.404481 1_555
O7 Tb1 2.671876 1_655
O7 Tb5 2.766182 1_655
O8 Tb1 2.280051 1_555
O8 Tb4 2.382452 1_555
O8 Tb0 2.456446 1_555
O9 Tb1 2.280051 1_655
O9 Tb4 2.382452 1_555
O9 Tb0 2.456446 1_555
O10 Tb5 2.307443 1_555
O11 Tb7 2.378307 1_555
O12 Tb0 2.378307 1_555
O13 Tb2 2.307443 1_554
O14 Tb6 2.280051 1_555
O14 Tb3 2.382452 1_555
O14 Tb7 2.456446 1_555
O15 Tb6 2.280051 1_655
O15 Tb3 2.382452 1_555
O15 Tb7 2.456446 1_555
O16 Tb3 2.404481 1_555
O16 Tb6 2.671876 1_555
O16 Tb2 2.766182 1_555
O17 Tb3 2.404481 1_555
O17 Tb6 2.671876 1_655
O17 Tb2 2.766182 1_655
O18 Tb9 2.323848 1_555
O19 Tb5 2.255129 1_555
O19 Tb8 2.271906 1_555
O19 Tb9 2.325364 1_555
O19 Tb4 2.329774 1_555
O20 Tb5 2.255129 1_655
O20 Tb8 2.271906 1_555
O20 Tb9 2.325364 1_655
O20 Tb4 2.329774 1_555
O21 Tb4 2.406561 1_555
O22 Tb10 2.286278 1_555
O22 Tb5 2.286278 1_555
O22 Tb7 2.337396 1_555
O22 Tb8 2.337396 1_555
O23 Tb10 2.286278 1_655
O23 Tb5 2.286278 1_655
O23 Tb7 2.337396 1_555
O23 Tb8 2.337396 1_555
O24 Tb11 2.406561 1_555
O25 Tb10 2.255129 1_555
O25 Tb7 2.271906 1_555
O25 Tb6 2.325364 1_555
O25 Tb11 2.329774 1_555
O26 Tb10 2.255129 1_655
O26 Tb7 2.271906 1_555
O26 Tb6 2.325364 1_655
O26 Tb11 2.329774 1_555
O27 Tb6 2.323848 1_555
O28 Tb12 2.404481 1_555
O28 Tb9 2.671876 1_555
O28 Tb13 2.766182 1_555
O29 Tb12 2.404481 1_555
O29 Tb9 2.671876 1_655
O29 Tb13 2.766182 1_655
O30 Tb9 2.280051 1_555
O30 Tb12 2.382452 1_555
O30 Tb8 2.456446 1_555
O31 Tb9 2.280051 1_655
O31 Tb12 2.382452 1_555
O31 Tb8 2.456446 1_555
O32 Tb13 2.307443 1_556
O33 Tb15 2.378307 1_555
O34 Tb8 2.378307 1_555
O35 Tb10 2.307443 1_555
O36 Tb14 2.280051 1_555
O36 Tb11 2.382452 1_555
O36 Tb15 2.456446 1_555
O37 Tb14 2.280051 1_655
O37 Tb11 2.382452 1_555
O37 Tb15 2.456446 1_555
O38 Tb11 2.404481 1_555
O38 Tb14 2.671876 1_555
O38 Tb10 2.766182 1_555
O39 Tb11 2.404481 1_555
O39 Tb14 2.671876 1_655
O39 Tb10 2.766182 1_655
O40 Tb1 2.323848 1_565
O41 Tb13 2.255129 1_555
O41 Tb0 2.271906 1_565
O41 Tb1 2.325364 1_565
O41 Tb12 2.329774 1_555
O42 Tb13 2.255129 1_655
O42 Tb0 2.271906 1_565
O42 Tb1 2.325364 1_665
O42 Tb12 2.329774 1_555
O43 Tb12 2.406561 1_555
