# generated using pymatgen
data_CrCo5O12
_symmetry_space_group_name_H-M   'P 1'
_cell_length_a   4.92381421
_cell_length_b   4.92381421
_cell_length_c   9.79612993
_cell_angle_alpha   89.95723697
_cell_angle_beta   89.95723697
_cell_angle_gamma   120.05065246
_symmetry_Int_Tables_number   1
_chemical_formula_structural   CrCo5O12
_chemical_formula_sum   'Cr1 Co5 O12'
_cell_volume   205.57301478
_cell_formula_units_Z   1
loop_
 _symmetry_equiv_pos_site_id
 _symmetry_equiv_pos_as_xyz
  1  'x, y, z'
loop_
 _atom_site_type_symbol
 _atom_site_label
 _atom_site_symmetry_multiplicity
 _atom_site_fract_x
 _atom_site_fract_y
 _atom_site_fract_z
 _atom_site_occupancy
  Cr  Cr0  1  0.00000000  0.00000000  0.00000000  1
  Co  Co0  1  0.83337900  0.16662100  0.50000000  1
  Co  Co1  1  0.33339900  0.66660100  0.00000000  1
  Co  Co2  1  0.66660100  0.33339900  0.00000000  1
  Co  Co3  1  0.16662100  0.83337900  0.50000000  1
  Co  Co4  1  0.50000000  0.50000000  0.50000000  1
  O  O0  1  0.99962400  0.34018000  0.90157800  1
  O  O1  1  0.65982000  0.00037600  0.09842200  1
  O  O2  1  0.83312400  0.49987500  0.59684300  1
  O  O3  1  0.49987500  0.83312400  0.59684300  1
  O  O4  1  0.50012500  0.16687600  0.40315700  1
  O  O5  1  0.83354800  0.83354800  0.40315400  1
  O  O6  1  0.16687600  0.50012500  0.40315700  1
  O  O7  1  0.34018000  0.99962400  0.90157800  1
  O  O8  1  0.65991900  0.65991900  0.90169600  1
  O  O9  1  0.00037600  0.65982000  0.09842200  1
  O  O10  1  0.34008100  0.34008100  0.09830400  1
  O  O11  1  0.16645200  0.16645200  0.59684600  1
loop_
_geom_bond_atom_site_label_1
_geom_bond_atom_site_label_2
_geom_bond_distance
_geom_bond_site_symmetry_2
Cr0 O10 1.931793 1_555
Cr0 O8 1.931793 1_444
Cr0 O1 1.932838 1_455
Cr0 O9 1.932838 1_545
Cr0 O7 1.932838 1_544
Cr0 O0 1.932838 1_454
Co0 O6 1.894123 1_655
Co0 O3 1.894123 1_545
Co0 O11 1.895605 1_655
Co0 O5 1.895605 1_545
Co0 O2 1.896545 1_555
Co0 O4 1.896545 1_555
Co1 O7 1.887386 1_554
Co1 O9 1.887386 1_555
Co1 O10 1.887839 1_555
Co1 O8 1.887839 1_554
Co1 O1 1.890224 1_565
Co1 O0 1.890224 1_454
Co2 O0 1.887386 1_554
Co2 O1 1.887386 1_555
Co2 O10 1.887839 1_555
Co2 O8 1.887839 1_554
Co2 O7 1.890224 1_544
Co2 O9 1.890224 1_655
Co3 O4 1.894123 1_565
Co3 O2 1.894123 1_455
Co3 O11 1.895605 1_565
Co3 O5 1.895605 1_455
Co3 O3 1.896545 1_555
Co3 O6 1.896545 1_555
Co4 O11 1.894340 1_555
Co4 O5 1.894340 1_555
Co4 O4 1.895713 1_555
Co4 O6 1.895713 1_555
Co4 O2 1.895713 1_555
Co4 O3 1.895713 1_555
