# generated using pymatgen
data_Ba3(ClO)2
_symmetry_space_group_name_H-M   'P 1'
_cell_length_a   6.42754900
_cell_length_b   10.72777100
_cell_length_c   13.20991700
_cell_angle_alpha   90.00000000
_cell_angle_beta   90.00000000
_cell_angle_gamma   90.00000000
_symmetry_Int_Tables_number   1
_chemical_formula_structural   Ba3(ClO)2
_chemical_formula_sum   'Ba12 Cl8 O8'
_cell_volume   910.86702329
_cell_formula_units_Z   4
loop_
 _symmetry_equiv_pos_site_id
 _symmetry_equiv_pos_as_xyz
  1  'x, y, z'
loop_
 _atom_site_type_symbol
 _atom_site_label
 _atom_site_symmetry_multiplicity
 _atom_site_fract_x
 _atom_site_fract_y
 _atom_site_fract_z
 _atom_site_occupancy
  Ba  Ba0  1  0.75000000  0.07574000  0.06745000  1
  Ba  Ba1  1  0.75000000  0.11624900  0.78286000  1
  Ba  Ba2  1  0.25000000  0.21282800  0.45365500  1
  Ba  Ba3  1  0.25000000  0.28717200  0.95365500  1
  Ba  Ba4  1  0.75000000  0.38375100  0.28286000  1
  Ba  Ba5  1  0.75000000  0.42426000  0.56745000  1
  Ba  Ba6  1  0.25000000  0.57574000  0.43255000  1
  Ba  Ba7  1  0.25000000  0.61624900  0.71714000  1
  Ba  Ba8  1  0.75000000  0.71282800  0.04634500  1
  Ba  Ba9  1  0.75000000  0.78717200  0.54634500  1
  Ba  Ba10  1  0.25000000  0.88375100  0.21714000  1
  Ba  Ba11  1  0.25000000  0.92426000  0.93255000  1
  Cl  Cl0  1  0.75000000  0.10416700  0.53516900  1
  Cl  Cl1  1  0.25000000  0.18376100  0.20233800  1
  Cl  Cl2  1  0.25000000  0.31623900  0.70233800  1
  Cl  Cl3  1  0.75000000  0.39583300  0.03516900  1
  Cl  Cl4  1  0.25000000  0.60416700  0.96483100  1
  Cl  Cl5  1  0.75000000  0.68376100  0.29766200  1
  Cl  Cl6  1  0.75000000  0.81623900  0.79766200  1
  Cl  Cl7  1  0.25000000  0.89583300  0.46483100  1
  O  O0  1  0.00218400  0.11575200  0.91787200  1
  O  O1  1  0.49781600  0.11575200  0.91787200  1
  O  O2  1  0.00218400  0.38424800  0.41787200  1
  O  O3  1  0.49781600  0.38424800  0.41787200  1
  O  O4  1  0.99781600  0.61575200  0.58212800  1
  O  O5  1  0.50218400  0.61575200  0.58212800  1
  O  O6  1  0.99781600  0.88424800  0.08212800  1
  O  O7  1  0.50218400  0.88424800  0.08212800  1
loop_
_geom_bond_atom_site_label_1
_geom_bond_atom_site_label_2
_geom_bond_distance
_geom_bond_site_symmetry_2
Ba0 O0 2.591501 1_654
Ba0 O1 2.591501 1_554
Ba0 O7 2.606692 1_545
Ba0 O6 2.606692 1_545
Ba0 Cl3 3.460261 1_555
Ba1 O0 2.410039 1_655
Ba1 O1 2.410039 1_555
Ba1 Cl6 3.224373 1_545
Ba1 Cl0 3.274544 1_555
Ba2 O2 2.478378 1_555
Ba2 O3 2.478378 1_555
Ba2 Cl1 3.334489 1_555
Ba2 Cl7 3.403853 1_545
Ba2 Cl2 3.467342 1_555
Ba2 Cl0 3.584224 1_455
Ba2 Cl0 3.584224 1_555
Ba3 O0 2.478378 1_555
Ba3 O1 2.478378 1_555
Ba3 Cl2 3.334489 1_555
Ba3 Cl4 3.403853 1_555
Ba3 Cl1 3.467342 1_556
Ba3 Cl3 3.584224 1_456
Ba3 Cl3 3.584224 1_556
Ba4 O2 2.410039 1_655
Ba4 O3 2.410039 1_555
Ba4 Cl5 3.224373 1_555
Ba4 Cl3 3.274544 1_555
Ba5 O3 2.591501 1_555
Ba5 O2 2.591501 1_655
Ba5 O4 2.606692 1_555
Ba5 O5 2.606692 1_555
Ba5 Cl0 3.460261 1_555
Ba6 O5 2.591501 1_555
Ba6 O4 2.591501 1_455
Ba6 O3 2.606692 1_555
Ba6 O2 2.606692 1_555
Ba6 Cl7 3.460261 1_555
Ba7 O5 2.410039 1_555
Ba7 O4 2.410039 1_455
Ba7 Cl2 3.224373 1_555
Ba7 Cl4 3.274544 1_555
Ba8 O6 2.478378 1_555
Ba8 O7 2.478378 1_555
Ba8 Cl5 3.334489 1_555
Ba8 Cl3 3.403853 1_555
Ba8 Cl6 3.467342 1_554
Ba8 Cl4 3.584224 1_554
Ba8 Cl4 3.584224 1_654
Ba9 O4 2.478378 1_555
Ba9 O5 2.478378 1_555
Ba9 Cl6 3.334489 1_555
Ba9 Cl0 3.403853 1_565
Ba9 Cl5 3.467342 1_555
Ba9 Cl7 3.584224 1_655
Ba9 Cl7 3.584224 1_555
Ba10 O6 2.410039 1_455
Ba10 O7 2.410039 1_555
Ba10 Cl1 3.224373 1_565
Ba10 Cl7 3.274544 1_555
Ba11 O6 2.591501 1_456
Ba11 O7 2.591501 1_556
Ba11 O1 2.606692 1_565
Ba11 O0 2.606692 1_565
Ba11 Cl4 3.460261 1_555
