# generated using pymatgen
data_LiV(PO4)2
_symmetry_space_group_name_H-M   'P 1'
_cell_length_a   16.90443700
_cell_length_b   4.87252700
_cell_length_c   8.05922178
_cell_angle_alpha   59.30384133
_cell_angle_beta   90.00000000
_cell_angle_gamma   90.00000000
_symmetry_Int_Tables_number   1
_chemical_formula_structural   LiV(PO4)2
_chemical_formula_sum   'Li4 V4 P8 O32'
_cell_volume   570.80688499
_cell_formula_units_Z   4
loop_
 _symmetry_equiv_pos_site_id
 _symmetry_equiv_pos_as_xyz
  1  'x, y, z'
loop_
 _atom_site_type_symbol
 _atom_site_label
 _atom_site_symmetry_multiplicity
 _atom_site_fract_x
 _atom_site_fract_y
 _atom_site_fract_z
 _atom_site_occupancy
  Li  Li0  1  0.88659500  0.71007100  0.49624800  1
  Li  Li1  1  0.38659500  0.28992900  0.00375200  1
  Li  Li2  1  0.61340500  0.71007100  0.99624800  1
  Li  Li3  1  0.11340500  0.28992900  0.50375200  1
  V  V0  1  0.86991600  0.19284000  0.00832600  1
  V  V1  1  0.36991600  0.80716000  0.49167400  1
  V  V2  1  0.63008400  0.19284000  0.50832600  1
  V  V3  1  0.13008400  0.80716000  0.99167400  1
  P  P0  1  0.71180600  0.89052300  0.26429800  1
  P  P1  1  0.53634000  0.51175200  0.72530400  1
  P  P2  1  0.03634000  0.48824800  0.77469600  1
  P  P3  1  0.21180600  0.10947700  0.23570200  1
  P  P4  1  0.78819400  0.89052300  0.76429800  1
  P  P5  1  0.96366000  0.51175200  0.22530400  1
  P  P6  1  0.46366000  0.48824800  0.27469600  1
  P  P7  1  0.28819400  0.10947700  0.73570200  1
  O  O0  1  0.18902400  0.86674800  0.16934100  1
  O  O1  1  0.69425300  0.54812200  0.44473400  1
  O  O2  1  0.66984200  0.94230500  0.08840500  1
  O  O3  1  0.43479900  0.75203600  0.31728800  1
  O  O4  1  0.07243200  0.16493600  0.93764000  1
  O  O5  1  0.06045200  0.56193500  0.57857200  1
  O  O6  1  0.80390300  0.92286400  0.23327500  1
  O  O7  1  0.44416000  0.54142700  0.69585400  1
  O  O8  1  0.94416000  0.45857300  0.80414600  1
  O  O9  1  0.56045200  0.43806500  0.92142800  1
  O  O10  1  0.57243200  0.83506400  0.56236000  1
  O  O11  1  0.30390300  0.07713600  0.26672500  1
  O  O12  1  0.93479900  0.24796400  0.18271200  1
  O  O13  1  0.16984200  0.05769500  0.41159500  1
  O  O14  1  0.19425300  0.45187800  0.05526600  1
  O  O15  1  0.31097600  0.86674800  0.66934100  1
  O  O16  1  0.68902400  0.13325200  0.33065900  1
  O  O17  1  0.80574700  0.54812200  0.94473400  1
  O  O18  1  0.83015800  0.94230500  0.58840500  1
  O  O19  1  0.06520100  0.75203600  0.81728800  1
  O  O20  1  0.69609700  0.92286400  0.73327500  1
  O  O21  1  0.42756800  0.16493600  0.43764000  1
  O  O22  1  0.43954800  0.56193500  0.07857200  1
  O  O23  1  0.05584000  0.54142700  0.19585400  1
  O  O24  1  0.55584000  0.45857300  0.30414600  1
  O  O25  1  0.19609700  0.07713600  0.76672500  1
  O  O26  1  0.93954800  0.43806500  0.42142800  1
  O  O27  1  0.92756800  0.83506400  0.06236000  1
  O  O28  1  0.56520100  0.24796400  0.68271200  1
  O  O29  1  0.33015800  0.05769500  0.91159500  1
  O  O30  1  0.30574700  0.45187800  0.55526600  1
  O  O31  1  0.81097600  0.13325200  0.83065900  1
loop_
_geom_bond_atom_site_label_1
_geom_bond_atom_site_label_2
_geom_bond_distance
_geom_bond_site_symmetry_2
Li0 O18 1.897447 1_555
Li0 O26 1.933231 1_555
Li0 O6 2.297219 1_555
Li0 O8 2.345522 1_555
Li1 O29 1.897447 1_554
Li1 O22 1.933231 1_555
Li1 O11 2.297219 1_555
Li1 O7 2.345522 1_554
Li2 O2 1.897447 1_556
Li2 O9 1.933231 1_555
Li2 O20 2.297219 1_555
Li2 O24 2.345522 1_556
Li3 O13 1.897447 1_555
Li3 O5 1.933231 1_555
Li3 O25 2.297219 1_555
Li3 O23 2.345522 1_555
O0 P3 1.574461 1_565
O0 V3 1.884589 1_554
O1 P0 1.584022 1_555
O1 V2 1.878907 1_555
O2 P0 1.487007 1_555
O3 P6 1.567907 1_555
O3 V1 1.906759 1_555
O4 P2 1.570454 1_555
O4 V3 1.844822 1_545
O5 P2 1.487939 1_555
O6 P0 1.571907 1_555
O6 V0 1.956407 1_565
O7 P1 1.571734 1_555
O7 V1 1.945281 1_555
O8 P2 1.571734 1_655
O8 V0 1.945281 1_556
O9 P1 1.487939 1_555
O10 P1 1.570454 1_555
O10 V2 1.844822 1_565
O11 P3 1.571907 1_555
O11 V1 1.956407 1_545
O12 P5 1.567907 1_555
O12 V0 1.906759 1_555
O13 P3 1.487007 1_555
O14 P3 1.584022 1_555
O14 V3 1.878907 1_554
O15 P7 1.574461 1_565
O15 V1 1.884589 1_555
O16 P0 1.574461 1_545
O16 V2 1.884589 1_555
O17 P4 1.584022 1_555
O17 V0 1.878907 1_556
O18 P4 1.487007 1_555
O19 P2 1.567907 1_555
O19 V3 1.906759 1_555
O20 P4 1.571907 1_555
O20 V2 1.956407 1_565
O21 P6 1.570454 1_555
O21 V1 1.844822 1_545
O22 P6 1.487939 1_555
O23 P5 1.571734 1_455
O23 V3 1.945281 1_554
O24 P6 1.571734 1_555
O24 V2 1.945281 1_555
O25 P7 1.571907 1_555
O25 V3 1.956407 1_545
O26 P5 1.487939 1_555
O27 P5 1.570454 1_555
O27 V0 1.844822 1_565
O28 P1 1.567907 1_555
O28 V2 1.906759 1_555
O29 P7 1.487007 1_555
O30 P7 1.584022 1_555
O30 V1 1.878907 1_555
O31 P4 1.574461 1_545
O31 V0 1.884589 1_556
