# generated using pymatgen
data_Li2NiSnO4
_symmetry_space_group_name_H-M   'P 1'
_cell_length_a   6.11590360
_cell_length_b   8.10117367
_cell_length_c   8.10111728
_cell_angle_alpha   80.40981533
_cell_angle_beta   111.87260229
_cell_angle_gamma   68.13186109
_symmetry_Int_Tables_number   1
_chemical_formula_structural   Li2NiSnO4
_chemical_formula_sum   'Li8 Ni4 Sn4 O16'
_cell_volume   323.22381849
_cell_formula_units_Z   4
loop_
 _symmetry_equiv_pos_site_id
 _symmetry_equiv_pos_as_xyz
  1  'x, y, z'
loop_
 _atom_site_type_symbol
 _atom_site_label
 _atom_site_symmetry_multiplicity
 _atom_site_fract_x
 _atom_site_fract_y
 _atom_site_fract_z
 _atom_site_occupancy
  Li  Li0  1  0.00000000  0.00000000  0.00000000  1
  Li  Li1  1  0.00001200  0.24998000  0.25001900  1
  Li  Li2  1  0.00000000  0.50000000  0.50000000  1
  Li  Li3  1  0.99998800  0.75001900  0.74998000  1
  Li  Li4  1  0.50000000  0.37495000  0.87495000  1
  Li  Li5  1  0.50000000  0.62505000  0.12505000  1
  Li  Li6  1  0.50000000  0.87497300  0.37497300  1
  Li  Li7  1  0.50000000  0.12502700  0.62502700  1
  Ni  Ni0  1  0.00000100  0.37522500  0.87522400  1
  Ni  Ni1  1  0.99999900  0.62477400  0.12477500  1
  Ni  Ni2  1  0.99999600  0.87518600  0.37517800  1
  Ni  Ni3  1  0.00000300  0.12482000  0.62482400  1
  Sn  Sn0  1  0.50000000  0.50000000  0.50000000  1
  Sn  Sn1  1  0.49997200  0.75001100  0.74998900  1
  Sn  Sn2  1  0.50000000  0.00000000  0.00000000  1
  Sn  Sn3  1  0.50002800  0.24998900  0.25001100  1
  O  O0  1  0.24787300  0.24034300  0.75971100  1
  O  O1  1  0.24781800  0.49034600  0.00966600  1
  O  O2  1  0.24787200  0.74030200  0.25967000  1
  O  O3  1  0.24784500  0.99033000  0.50968300  1
  O  O4  1  0.75212700  0.75965700  0.24028900  1
  O  O5  1  0.75215500  0.00967000  0.49031700  1
  O  O6  1  0.75212800  0.25969800  0.74033000  1
  O  O7  1  0.75218200  0.50965300  0.99033400  1
  O  O8  1  0.73989900  0.62453700  0.62560000  1
  O  O9  1  0.73989900  0.87441600  0.87547800  1
  O  O10  1  0.73986200  0.12456100  0.12556500  1
  O  O11  1  0.73986200  0.37445100  0.37545400  1
  O  O12  1  0.26010100  0.12558400  0.12452200  1
  O  O13  1  0.26010100  0.37546200  0.37440000  1
  O  O14  1  0.26013800  0.62554900  0.62454600  1
  O  O15  1  0.26013800  0.87543900  0.87443500  1
loop_
_geom_bond_atom_site_label_1
_geom_bond_atom_site_label_2
_geom_bond_distance
_geom_bond_site_symmetry_2
Li0 O6 2.218768 1_454
Li0 O2 2.218768 1_545
Li0 O12 2.221508 1_555
Li0 O9 2.221508 1_444
Li0 O10 2.221731 1_455
Li0 O15 2.221731 1_544
Li1 O3 2.218539 1_545
Li1 O7 2.218731 1_454
Li1 O13 2.220493 1_555
Li1 O10 2.220508 1_455
Li1 O12 2.220723 1_555
Li1 O11 2.220749 1_455
Li2 O4 2.218768 1_455
Li2 O0 2.218768 1_555
Li2 O14 2.221494 1_555
Li2 O11 2.221494 1_455
Li2 O8 2.221745 1_455
Li2 O13 2.221747 1_555
Li3 O5 2.218539 1_565
Li3 O1 2.218735 1_656
Li3 O8 2.220491 1_555
Li3 O15 2.220517 1_655
Li3 O9 2.220732 1_555
Li3 O14 2.220740 1_655
Li4 O14 2.140210 1_555
Li4 O10 2.140215 1_556
Li4 O0 2.226574 1_555
Li4 O6 2.226787 1_555
Li4 O7 2.227738 1_555
Li4 O1 2.227944 1_556
Li5 O11 2.140210 1_555
Li5 O15 2.140215 1_554
Li5 O4 2.226574 1_555
Li5 O2 2.226787 1_555
Li5 O1 2.227744 1_555
Li5 O7 2.227946 1_554
Li6 O12 2.140461 1_565
Li6 O8 2.140465 1_555
Li6 O2 2.227129 1_555
Li6 O4 2.227333 1_555
Li6 O5 2.227500 1_565
Li6 O3 2.227709 1_555
Li7 O9 2.140461 1_545
Li7 O13 2.140461 1_555
Li7 O6 2.227129 1_555
Li7 O0 2.227333 1_555
Li7 O3 2.227500 1_545
Li7 O5 2.227709 1_555
Ni0 O1 2.124756 1_556
Ni0 O7 2.124759 1_455
Ni0 O0 2.128740 1_555
Ni0 O6 2.128763 1_455
Ni0 O8 2.132610 1_455
Ni0 O12 2.132622 1_556
Ni1 O1 2.124752 1_655
Ni1 O7 2.124753 1_554
Ni1 O4 2.128749 1_555
Ni1 O2 2.128772 1_655
Ni1 O13 2.132614 1_655
Ni1 O9 2.132622 1_554
Ni2 O5 2.125182 1_565
Ni2 O3 2.125200 1_655
Ni2 O2 2.128730 1_655
Ni2 O4 2.128746 1_555
Ni2 O10 2.132833 1_565
Ni2 O14 2.132906 1_655
Ni3 O3 2.125214 1_545
Ni3 O5 2.125240 1_455
Ni3 O6 2.128697 1_455
Ni3 O0 2.128707 1_555
Ni3 O15 2.132850 1_545
Ni3 O11 2.132889 1_455
O0 Sn2 2.054777 1_556
O1 Sn3 2.055089 1_555
O2 Sn0 2.054777 1_555
O3 Sn1 2.054748 1_555
O4 Sn2 2.054777 1_565
O5 Sn3 2.054748 1_555
O6 Sn0 2.054777 1_555
O7 Sn1 2.055093 1_555
O8 Sn1 2.129262 1_555
O8 Sn0 2.130323 1_555
O9 Sn1 2.129306 1_555
O9 Sn2 2.130283 1_566
O10 Sn3 2.129133 1_555
O10 Sn2 2.130240 1_555
O11 Sn3 2.129177 1_555
O11 Sn0 2.130200 1_555
O12 Sn3 2.129306 1_555
O12 Sn2 2.130283 1_555
O13 Sn3 2.129259 1_555
O13 Sn0 2.130330 1_555
O14 Sn1 2.129177 1_555
O14 Sn0 2.130200 1_555
O15 Sn1 2.129133 1_555
O15 Sn2 2.130240 1_566
