# generated using pymatgen
data_Gd5Y3O12
_symmetry_space_group_name_H-M   'P 1'
_cell_length_a   9.29687706
_cell_length_b   9.29687434
_cell_length_c   9.29687184
_cell_angle_alpha   109.50619403
_cell_angle_beta   109.48184159
_cell_angle_gamma   109.42537479
_symmetry_Int_Tables_number   1
_chemical_formula_structural   Gd5Y3O12
_chemical_formula_sum   'Gd10 Y6 O24'
_cell_volume   618.57188875
_cell_formula_units_Z   2
loop_
 _symmetry_equiv_pos_site_id
 _symmetry_equiv_pos_as_xyz
  1  'x, y, z'
loop_
 _atom_site_type_symbol
 _atom_site_label
 _atom_site_symmetry_multiplicity
 _atom_site_fract_x
 _atom_site_fract_y
 _atom_site_fract_z
 _atom_site_occupancy
  Gd  Gd0  1  0.21674155  0.96674183  0.24999739  1
  Gd  Gd1  1  0.03232437  0.75000033  0.78232508  1
  Gd  Gd2  1  0.53175511  0.75000095  0.28175314  1
  Gd  Gd3  1  0.71839773  0.46839773  0.24999800  1
  Gd  Gd4  1  0.28325726  0.53325774  0.75000016  1
  Gd  Gd5  1  0.46767838  0.25000170  0.71767604  1
  Gd  Gd6  1  0.96824632  0.24999989  0.21824511  1
  Gd  Gd7  1  0.75000008  0.28227266  0.53227196  1
  Gd  Gd8  1  0.25000215  0.21772951  0.96773375  1
  Gd  Gd9  1  0.78160001  0.03159965  0.75000122  1
  Y  Y0  1  0.99938331  0.50054342  0.00085459  1
  Y  Y1  1  0.75000024  0.78300797  0.03300722  1
  Y  Y2  1  0.24999956  0.71699242  0.46699233  1
  Y  Y3  1  0.99968839  0.99852785  0.49914491  1
  Y  Y4  1  0.50031110  0.99945662  0.99884036  1
  Y  Y5  1  0.50061671  0.50147128  0.50115937  1
  O  O0  1  0.49157883  0.76405722  0.03134071  1
  O  O1  1  0.26728263  0.73594488  0.22752232  1
  O  O2  1  0.04151120  0.27381728  0.01066233  1
  O  O3  1  0.23705983  0.96569818  0.51031627  1
  O  O4  1  0.26293826  0.77325821  0.72863951  1
  O  O5  1  0.45849022  0.46914883  0.23230628  1
  O  O6  1  0.00842204  0.03976147  0.27247682  1
  O  O7  1  0.23271557  0.46023790  0.46865804  1
  O  O8  1  0.52836496  0.76868334  0.54147422  1
  O  O9  1  0.77279074  0.73131617  0.25968177  1
  O  O10  1  0.03178150  0.49025338  0.76409446  1
  O  O11  1  0.27384161  0.00974768  0.04153167  1
  O  O12  1  0.22615694  0.26768724  0.73590522  1
  O  O13  1  0.46821689  0.23231097  0.45846857  1
  O  O14  1  0.72720976  0.98689073  0.95852585  1
  O  O15  1  0.97163420  0.51310793  0.24031837  1
  O  O16  1  0.76806047  0.54206825  0.53118814  1
  O  O17  1  0.98911849  0.95792937  0.72599088  1
  O  O18  1  0.54461950  0.53430084  0.77136126  1
  O  O19  1  0.73684332  0.22618374  0.26769342  1
  O  O20  1  0.95538178  0.72674234  0.98968048  1
  O  O21  1  0.76315662  0.03085105  0.48934041  1
  O  O22  1  0.51088127  0.23687288  0.96881382  1
  O  O23  1  0.73194111  0.26312857  0.77400856  1
loop_
_geom_bond_atom_site_label_1
_geom_bond_atom_site_label_2
_geom_bond_distance
_geom_bond_site_symmetry_2
Gd0 O11 2.293548 1_565
Gd0 O13 2.293594 1_565
Gd0 O1 2.303285 1_555
Gd0 O6 2.303292 1_565
Gd0 O20 2.367454 1_454
Gd0 O3 2.367462 1_555
Gd1 O17 2.285772 1_455
Gd1 O16 2.285797 1_455
Gd1 O20 2.317321 1_455
Gd1 O4 2.317332 1_555
Gd1 O10 2.361816 1_555
Gd1 O11 2.361838 1_566
Gd2 O0 2.287366 1_555
Gd2 O1 2.287406 1_555
Gd2 O21 2.302037 1_565
Gd2 O5 2.302050 1_555
Gd2 O9 2.373950 1_555
Gd2 O8 2.373974 1_555
Gd3 O15 2.288890 1_555
Gd3 O9 2.288891 1_555
Gd3 O22 2.303251 1_554
Gd3 O16 2.303285 1_555
Gd3 O5 2.369101 1_555
Gd3 O19 2.369105 1_555
Gd4 O12 2.293591 1_555
Gd4 O10 2.293591 1_555
Gd4 O0 2.303313 1_556
Gd4 O7 2.303317 1_555
Gd4 O4 2.367459 1_555
Gd4 O18 2.367465 1_555
Gd5 O23 2.285778 1_555
Gd5 O22 2.285805 1_555
Gd5 O18 2.317335 1_555
Gd5 O3 2.317379 1_545
Gd5 O13 2.361824 1_555
Gd5 O12 2.361851 1_555
Gd6 O6 2.287380 1_655
Gd6 O7 2.287382 1_655
Gd6 O2 2.302004 1_655
Gd6 O19 2.302037 1_555
Gd6 O15 2.373951 1_555
Gd6 O14 2.373966 1_544
Gd7 O21 2.288574 1_555
Gd7 O19 2.288575 1_555
Gd7 O13 2.308294 1_555
Gd7 O10 2.308295 1_655
Gd7 O16 2.368446 1_555
Gd7 O23 2.368453 1_555
Gd8 O5 2.288548 1_556
Gd8 O2 2.288569 1_556
Gd8 O11 2.308275 1_556
Gd8 O12 2.308328 1_555
Gd8 O22 2.368459 1_555
Gd8 O17 2.368505 1_445
Gd9 O14 2.288869 1_545
Gd9 O8 2.288895 1_545
Gd9 O23 2.303278 1_555
Gd9 O17 2.303278 1_545
Gd9 O21 2.369127 1_555
Gd9 O2 2.369136 1_656
O0 Y4 2.286286 1_554
O0 Y1 2.344173 1_555
O1 Y0 2.286302 1_455
O1 Y2 2.344166 1_555
O2 Y0 2.293114 1_455
O3 Y2 2.262367 1_555
O3 Y3 2.300059 1_455
O4 Y2 2.262384 1_555
O4 Y4 2.300068 1_555
O5 Y5 2.293104 1_555
O6 Y3 2.286303 1_445
O6 Y1 2.344176 1_445
O7 Y5 2.286297 1_555
O7 Y2 2.344166 1_555
O8 Y2 2.272233 1_555
O8 Y5 2.294752 1_555
O9 Y1 2.272235 1_555
O9 Y3 2.294758 1_555
O10 Y0 2.294691 1_456
O11 Y4 2.294702 1_544
O12 Y3 2.294703 1_445
O13 Y5 2.294701 1_555
O14 Y1 2.272219 1_556
O14 Y4 2.294761 1_555
O15 Y2 2.272240 1_655
O15 Y0 2.294758 1_555
O16 Y5 2.290189 1_555
O17 Y3 2.290189 1_555
O18 Y1 2.262381 1_556
O18 Y5 2.300063 1_555
O19 Y4 2.293118 1_544
O20 Y1 2.262382 1_556
O20 Y0 2.300057 1_556
O21 Y3 2.293116 1_545
O22 Y4 2.290185 1_545
O23 Y0 2.290188 1_556
