# generated using pymatgen
data_LiCu2PO4
_symmetry_space_group_name_H-M   'P 1'
_cell_length_a   5.17897700
_cell_length_b   5.53194500
_cell_length_c   6.13902700
_cell_angle_alpha   90.00000000
_cell_angle_beta   90.00000000
_cell_angle_gamma   90.00000000
_symmetry_Int_Tables_number   1
_chemical_formula_structural   LiCu2PO4
_chemical_formula_sum   'Li2 Cu4 P2 O8'
_cell_volume   175.88199348
_cell_formula_units_Z   2
loop_
 _symmetry_equiv_pos_site_id
 _symmetry_equiv_pos_as_xyz
  1  'x, y, z'
loop_
 _atom_site_type_symbol
 _atom_site_label
 _atom_site_symmetry_multiplicity
 _atom_site_fract_x
 _atom_site_fract_y
 _atom_site_fract_z
 _atom_site_occupancy
  Li  Li0  1  0.87630900  0.33839600  0.00000000  1
  Li  Li1  1  0.37630900  0.66160400  0.50000000  1
  Cu  Cu0  1  0.87010200  0.84576700  0.24782100  1
  Cu  Cu1  1  0.37010200  0.15423300  0.25217900  1
  Cu  Cu2  1  0.37010200  0.15423300  0.74782100  1
  Cu  Cu3  1  0.87010200  0.84576700  0.75217900  1
  P  P0  1  0.37499800  0.66198600  0.00000000  1
  P  P1  1  0.87499800  0.33801400  0.50000000  1
  O  O0  1  0.07491800  0.64588700  0.00000000  1
  O  O1  1  0.49716500  0.40428000  0.00000000  1
  O  O2  1  0.46820200  0.79879400  0.20966500  1
  O  O3  1  0.96820200  0.20120600  0.29033500  1
  O  O4  1  0.57491800  0.35411300  0.50000000  1
  O  O5  1  0.99716500  0.59572000  0.50000000  1
  O  O6  1  0.96820200  0.20120600  0.70966500  1
  O  O7  1  0.46820200  0.79879400  0.79033500  1
loop_
_geom_bond_atom_site_label_1
_geom_bond_atom_site_label_2
_geom_bond_distance
_geom_bond_site_symmetry_2
Li0 O0 1.987833 1_655
Li0 O6 1.994824 1_554
Li0 O3 1.994824 1_555
Li0 O1 1.997117 1_555
Li1 O4 1.987833 1_555
Li1 O2 1.994824 1_555
Li1 O7 1.994824 1_555
Li1 O5 1.997117 1_455
Cu0 O3 2.047548 1_565
Cu0 O2 2.110627 1_555
Cu0 O0 2.159256 1_655
Cu0 O5 2.177872 1_555
Cu1 O2 2.047548 1_545
Cu1 O3 2.110627 1_455
Cu1 O4 2.159256 1_555
Cu1 O1 2.177872 1_555
Cu2 O7 2.047548 1_545
Cu2 O6 2.110627 1_455
Cu2 O4 2.159256 1_555
Cu2 O1 2.177872 1_556
Cu3 O6 2.047548 1_565
Cu3 O7 2.110627 1_555
Cu3 O0 2.159256 1_656
Cu3 O5 2.177872 1_555
O0 P0 1.556657 1_555
O1 P0 1.559708 1_555
O2 P0 1.569234 1_555
O3 P1 1.569234 1_555
O4 P1 1.556657 1_555
O5 P1 1.559708 1_555
O6 P1 1.569234 1_555
O7 P0 1.569234 1_556
