# generated using pymatgen
data_Li3Mn4(BO3)4
_symmetry_space_group_name_H-M   'P 1'
_cell_length_a   7.90520200
_cell_length_b   8.29255761
_cell_length_c   9.19324457
_cell_angle_alpha   66.60314644
_cell_angle_beta   65.76537806
_cell_angle_gamma   80.33208723
_symmetry_Int_Tables_number   1
_chemical_formula_structural   Li3Mn4(BO3)4
_chemical_formula_sum   'Li6 Mn8 B8 O24'
_cell_volume   504.35185168
_cell_formula_units_Z   2
loop_
 _symmetry_equiv_pos_site_id
 _symmetry_equiv_pos_as_xyz
  1  'x, y, z'
loop_
 _atom_site_type_symbol
 _atom_site_label
 _atom_site_symmetry_multiplicity
 _atom_site_fract_x
 _atom_site_fract_y
 _atom_site_fract_z
 _atom_site_occupancy
  Li  Li0  1  0.86609700  0.95146200  0.15197300  1
  Li  Li1  1  0.13390300  0.04853800  0.84802700  1
  Li  Li2  1  0.36143200  0.79323100  0.36367600  1
  Li  Li3  1  0.63856800  0.20676900  0.63632400  1
  Li  Li4  1  0.36045700  0.45206200  0.15377800  1
  Li  Li5  1  0.63954300  0.54793800  0.84622200  1
  Mn  Mn0  1  0.82772000  0.92178900  0.49777700  1
  Mn  Mn1  1  0.92675900  0.32407800  0.01650700  1
  Mn  Mn2  1  0.42391600  0.83048900  0.99513900  1
  Mn  Mn3  1  0.17228000  0.07821100  0.50222300  1
  Mn  Mn4  1  0.31643700  0.42324500  0.50854000  1
  Mn  Mn5  1  0.07324100  0.67592200  0.98349300  1
  Mn  Mn6  1  0.57608400  0.16951100  0.00486100  1
  Mn  Mn7  1  0.68356300  0.57675500  0.49146000  1
  B  B0  1  0.83098600  0.94131900  0.82746300  1
  B  B1  1  0.91953500  0.32120300  0.67694300  1
  B  B2  1  0.42581600  0.82642700  0.65941400  1
  B  B3  1  0.16901400  0.05868100  0.17253700  1
  B  B4  1  0.33549400  0.42282200  0.83592600  1
  B  B5  1  0.08046500  0.67879700  0.32305700  1
  B  B6  1  0.57418400  0.17357300  0.34058600  1
  B  B7  1  0.66450600  0.57717800  0.16407400  1
  O  O0  1  0.90237600  0.90031900  0.95265900  1
  O  O1  1  0.82108800  0.34900300  0.83140100  1
  O  O2  1  0.93504000  0.92262300  0.67139100  1
  O  O3  1  0.90561600  0.76437500  0.34470100  1
  O  O4  1  0.84661500  0.36176100  0.55602300  1
  O  O5  1  0.09438400  0.23562500  0.65529900  1
  O  O6  1  0.84495900  0.51026900  0.13086100  1
  O  O7  1  0.31102500  0.84880100  0.81559900  1
  O  O8  1  0.06496000  0.07737700  0.32860900  1
  O  O9  1  0.15504100  0.48973100  0.86913900  1
  O  O10  1  0.36654400  0.87467400  0.52856700  1
  O  O11  1  0.09762400  0.09968100  0.04734100  1
  O  O12  1  0.41396500  0.39390400  0.95356600  1
  O  O13  1  0.15338500  0.63823900  0.44397700  1
  O  O14  1  0.34758900  0.98721700  0.14828700  1
  O  O15  1  0.43683400  0.39309700  0.68320000  1
  O  O16  1  0.17891200  0.65099700  0.16859900  1
  O  O17  1  0.65241100  0.01278300  0.85171300  1
  O  O18  1  0.39946800  0.25699700  0.35206400  1
  O  O19  1  0.63345600  0.12532600  0.47143300  1
  O  O20  1  0.60053200  0.74300300  0.64793600  1
  O  O21  1  0.56316600  0.60690300  0.31680000  1
  O  O22  1  0.68897500  0.15119900  0.18440100  1
  O  O23  1  0.58603500  0.60609600  0.04643400  1
loop_
_geom_bond_atom_site_label_1
_geom_bond_atom_site_label_2
_geom_bond_distance
_geom_bond_site_symmetry_2
Li0 O3 1.937089 1_555
Li0 O0 1.940234 1_554
Li0 O22 2.015776 1_565
Li0 O11 2.038912 1_665
Li1 O5 1.937089 1_555
Li1 O11 1.940234 1_556
Li1 O7 2.015776 1_545
Li1 O0 2.038912 1_445
Li2 O10 1.904784 1_555
Li2 O13 1.965071 1_555
Li2 O14 2.027214 1_555
Li2 O21 2.062373 1_555
Li3 O19 1.904784 1_555
Li3 O4 1.965071 1_555
Li3 O17 2.027214 1_555
Li3 O15 2.062373 1_555
Li4 O12 1.948495 1_554
Li4 O18 1.996685 1_555
Li4 O16 2.005605 1_555
Li4 O23 2.025994 1_555
Li5 O23 1.948495 1_556
Li5 O20 1.996685 1_555
Li5 O1 2.005605 1_555
Li5 O12 2.025994 1_555
Mn0 O19 2.091871 1_565
Mn0 O2 2.095147 1_555
Mn0 O8 2.103629 1_665
Mn0 O3 2.130986 1_555
Mn0 O20 2.136068 1_555
Mn1 O6 2.074362 1_555
Mn1 O9 2.080042 1_654
Mn1 O11 2.102064 1_655
Mn1 O1 2.113308 1_554
Mn1 O22 2.176437 1_555
Mn2 O23 2.079818 1_556
Mn2 O7 2.123322 1_555
Mn2 O14 2.127896 1_556
Mn2 O17 2.159940 1_565
Mn2 O16 2.248843 1_556
Mn3 O10 2.091871 1_545
Mn3 O8 2.095147 1_555
Mn3 O2 2.103629 1_445
Mn3 O5 2.130986 1_555
Mn3 O18 2.136068 1_555
Mn4 O13 2.051358 1_555
Mn4 O15 2.098207 1_555
Mn4 O5 2.151331 1_555
Mn4 O18 2.212854 1_555
Mn4 O21 2.296528 1_555
Mn5 O9 2.074362 1_555
Mn5 O6 2.080042 1_456
Mn5 O0 2.102064 1_455
Mn5 O16 2.113308 1_556
Mn5 O7 2.176437 1_555
Mn6 O12 2.079818 1_554
Mn6 O22 2.123322 1_555
Mn6 O17 2.127896 1_554
Mn6 O14 2.159940 1_545
Mn6 O1 2.248843 1_554
Mn7 O4 2.051358 1_555
Mn7 O21 2.098207 1_555
Mn7 O3 2.151331 1_555
Mn7 O20 2.212854 1_555
Mn7 O15 2.296528 1_555
B0 O0 1.384488 1_555
B0 O2 1.387176 1_555
B0 O17 1.399747 1_565
B1 O4 1.358376 1_555
B1 O1 1.402722 1_555
B1 O5 1.417968 1_655
B2 O10 1.357988 1_555
B2 O7 1.415948 1_555
B2 O20 1.419416 1_555
B3 O11 1.384488 1_555
B3 O8 1.387176 1_555
B3 O14 1.399747 1_545
B4 O12 1.380857 1_555
B4 O9 1.395408 1_555
B4 O15 1.399653 1_555
B5 O13 1.358376 1_555
B5 O16 1.402722 1_555
B5 O3 1.417968 1_455
B6 O19 1.357988 1_555
B6 O22 1.415948 1_555
B6 O18 1.419416 1_555
B7 O23 1.380857 1_555
B7 O6 1.395408 1_555
B7 O21 1.399653 1_555
