# generated using pymatgen
data_Li2FeSiO5
_symmetry_space_group_name_H-M   'P 1'
_cell_length_a   6.43016100
_cell_length_b   6.43021100
_cell_length_c   4.49425100
_cell_angle_alpha   90.00000000
_cell_angle_beta   90.00000000
_cell_angle_gamma   90.00224543
_symmetry_Int_Tables_number   1
_chemical_formula_structural   Li2FeSiO5
_chemical_formula_sum   'Li4 Fe2 Si2 O10'
_cell_volume   185.82510832
_cell_formula_units_Z   2
loop_
 _symmetry_equiv_pos_site_id
 _symmetry_equiv_pos_as_xyz
  1  'x, y, z'
loop_
 _atom_site_type_symbol
 _atom_site_label
 _atom_site_symmetry_multiplicity
 _atom_site_fract_x
 _atom_site_fract_y
 _atom_site_fract_z
 _atom_site_occupancy
  Li  Li0  1  0.00002100  0.00002100  0.99996800  1
  Li  Li1  1  0.00002100  0.49997900  0.99996800  1
  Li  Li2  1  0.49997900  0.49997900  0.99996800  1
  Li  Li3  1  0.49997900  0.00002100  0.99996800  1
  Fe  Fe0  1  0.24999800  0.24999200  0.60685800  1
  Fe  Fe1  1  0.75000100  0.75000600  0.39315100  1
  Si  Si0  1  0.24999800  0.75000200  0.50004600  1
  Si  Si1  1  0.75000300  0.24999800  0.50004300  1
  O  O0  1  0.04683700  0.75001100  0.27822300  1
  O  O1  1  0.25001100  0.25001100  0.21382900  1
  O  O2  1  0.24999400  0.54682300  0.72177000  1
  O  O3  1  0.24998900  0.95317100  0.72180500  1
  O  O4  1  0.45317000  0.75000700  0.27825800  1
  O  O5  1  0.54682200  0.24999300  0.72177000  1
  O  O6  1  0.75001100  0.04683700  0.27822300  1
  O  O7  1  0.75000600  0.45317000  0.27825800  1
  O  O8  1  0.74998900  0.74998900  0.78609100  1
  O  O9  1  0.95317200  0.24998900  0.72180500  1
loop_
_geom_bond_atom_site_label_1
_geom_bond_atom_site_label_2
_geom_bond_distance
_geom_bond_site_symmetry_2
Li0 O3 2.058435 1_545
Li0 O9 2.058443 1_455
Li0 O6 2.058865 1_456
Li0 O0 2.058874 1_546
Li0 O1 2.468116 1_556
Li0 O8 2.468496 1_445
Li1 O2 2.058531 1_555
Li1 O9 2.058535 1_455
Li1 O7 2.058960 1_456
Li1 O0 2.058966 1_556
Li1 O1 2.468106 1_556
Li1 O8 2.468485 1_455
Li2 O2 2.058610 1_555
Li2 O5 2.058623 1_555
Li2 O7 2.059039 1_556
Li2 O4 2.059053 1_556
Li2 O1 2.467931 1_556
Li2 O8 2.468311 1_555
Li3 O3 2.058527 1_545
Li3 O5 2.058535 1_555
Li3 O6 2.058957 1_556
Li3 O4 2.058965 1_546
Li3 O1 2.468106 1_556
Li3 O8 2.468485 1_545
Fe0 O1 1.766371 1_555
Fe0 O5 1.977263 1_555
Fe0 O3 1.977299 1_545
Fe0 O9 1.977316 1_455
Fe0 O2 1.977320 1_555
Fe1 O8 1.765971 1_555
Fe1 O4 1.977284 1_555
Fe1 O7 1.977329 1_555
Fe1 O6 1.977339 1_565
Fe1 O0 1.977356 1_655
O0 Si0 1.643301 1_555
O2 Si0 1.643131 1_555
O3 Si0 1.643175 1_555
O4 Si0 1.643261 1_555
O5 Si1 1.643141 1_555
O6 Si1 1.643301 1_555
O7 Si1 1.643261 1_555
O9 Si1 1.643175 1_555
