# generated using pymatgen
data_Zr3Zn3C
_symmetry_space_group_name_H-M   'P 1'
_cell_length_a   8.61650337
_cell_length_b   8.61644811
_cell_length_c   8.61652520
_cell_angle_alpha   60.00068282
_cell_angle_beta   60.00084016
_cell_angle_gamma   60.00048294
_symmetry_Int_Tables_number   1
_chemical_formula_structural   Zr3Zn3C
_chemical_formula_sum   'Zr12 Zn12 C4'
_cell_volume   452.35884603
_cell_formula_units_Z   4
loop_
 _symmetry_equiv_pos_site_id
 _symmetry_equiv_pos_as_xyz
  1  'x, y, z'
loop_
 _atom_site_type_symbol
 _atom_site_label
 _atom_site_symmetry_multiplicity
 _atom_site_fract_x
 _atom_site_fract_y
 _atom_site_fract_z
 _atom_site_occupancy
  Zr  Zr0  1  0.44100490  0.44100027  0.05900057  1
  Zr  Zr1  1  0.05900181  0.44099021  0.05900695  1
  Zr  Zr2  1  0.44099836  0.05898612  0.05900970  1
  Zr  Zr3  1  0.05901196  0.05899156  0.44100550  1
  Zr  Zr4  1  0.44098428  0.05899521  0.44100858  1
  Zr  Zr5  1  0.05900255  0.44098815  0.44101404  1
  Zr  Zr6  1  0.80899011  0.80901503  0.19099665  1
  Zr  Zr7  1  0.19100332  0.80901370  0.19099868  1
  Zr  Zr8  1  0.80900808  0.19098889  0.19099756  1
  Zr  Zr9  1  0.19100083  0.19098376  0.80899751  1
  Zr  Zr10  1  0.80901568  0.19099032  0.80899702  1
  Zr  Zr11  1  0.19099860  0.80902799  0.80898484  1
  Zn  Zn0  1  0.82976570  0.82977056  0.51069633  1
  Zn  Zn1  1  0.82975979  0.51071589  0.82976274  1
  Zn  Zn2  1  0.51069529  0.82977002  0.82976791  1
  Zn  Zn3  1  0.82976103  0.82976617  0.82976401  1
  Zn  Zn4  1  0.42023688  0.42023614  0.73928875  1
  Zn  Zn5  1  0.42023004  0.73931074  0.42022754  1
  Zn  Zn6  1  0.73928693  0.42023760  0.42023604  1
  Zn  Zn7  1  0.42023655  0.42023612  0.42023435  1
  Zn  Zn8  1  0.62498431  0.62501425  0.12500435  1
  Zn  Zn9  1  0.62499962  0.12498640  0.62500124  1
  Zn  Zn10  1  0.12500491  0.62501351  0.62498516  1
  Zn  Zn11  1  0.62499007  0.62502032  0.62499169  1
  C  C0  1  0.12501433  0.12498792  0.62499350  1
  C  C1  1  0.12500773  0.62499075  0.12500568  1
  C  C2  1  0.62499366  0.12498831  0.12501289  1
  C  C3  1  0.12501268  0.12498411  0.12501020  1
loop_
_geom_bond_atom_site_label_1
_geom_bond_atom_site_label_2
_geom_bond_distance
_geom_bond_site_symmetry_2
Zn0 Zn9 2.614022 1_565
Zn0 Zn11 2.614081 1_555
Zn0 Zn10 2.614125 1_655
Zn0 Zn1 2.749209 1_555
Zn0 Zn3 2.749216 1_555
Zn0 Zn2 2.749315 1_555
Zn0 Zr8 2.944470 1_565
Zn0 Zr6 2.944515 1_555
Zn0 Zr7 2.944578 1_655
Zn0 Zr3 3.113278 1_665
Zn0 Zr5 3.113299 1_655
Zn0 Zr4 3.113327 1_565
Zn1 Zn11 2.614169 1_555
Zn1 Zn8 2.614196 1_556
Zn1 Zn10 2.614217 1_655
Zn1 Zn3 2.749091 1_555
Zn1 Zn2 2.749187 1_555
Zn1 Zr10 2.944612 1_555
Zn1 Zr8 2.944663 1_556
Zn1 Zr9 2.944699 1_655
Zn1 Zr0 3.113244 1_556
Zn1 Zr5 3.113246 1_655
Zn1 Zr1 3.113294 1_656
Zn2 Zn9 2.614030 1_565
Zn2 Zn8 2.614113 1_556
Zn2 Zn3 2.749198 1_555
Zn2 Zr9 2.944421 1_565
Zn2 Zr11 2.944454 1_555
Zn2 Zr7 2.944526 1_556
Zn2 Zr2 3.113186 1_566
Zn2 Zr0 3.113243 1_556
Zn2 Zr4 3.113259 1_565
Zn3 Zn9 2.614063 1_565
Zn3 Zn8 2.614149 1_556
Zn3 Zr10 2.944509 1_565
Zn3 Zr6 2.944575 1_556
Zn3 Zr11 2.944627 1_655
Zn3 Zr2 3.113258 1_566
Zn3 Zr3 3.113292 1_665
Zn3 Zr1 3.113361 1_656
Zn4 Zn9 2.614184 1_555
Zn4 Zn7 2.749142 1_555
Zn4 Zn6 2.749146 1_555
Zn4 Zn5 2.749273 1_555
Zn4 Zr0 2.944624 1_556
Zn4 Zr1 2.944643 1_556
Zn4 Zr2 2.944707 1_556
Zn4 Zr9 3.113366 1_555
Zn4 Zr10 3.113381 1_555
Zn4 Zr11 3.113418 1_555
Zn5 Zn8 2.614056 1_555
Zn5 Zn7 2.749233 1_555
Zn5 Zn6 2.749236 1_555
Zn5 Zr4 2.944382 1_565
Zn5 Zr2 2.944387 1_565
Zn5 Zr3 2.944395 1_565
Zn5 Zr7 3.113154 1_555
Zn5 Zr6 3.113242 1_555
Zn5 Zr11 3.113272 1_555
Zn6 Zn8 2.614141 1_555
Zn6 Zn9 2.614201 1_555
Zn6 Zn7 2.749112 1_555
Zn6 Zr1 2.944604 1_655
Zn6 Zr5 2.944633 1_655
Zn6 Zr3 2.944692 1_655
Zn6 Zr8 3.113309 1_555
Zn6 Zr10 3.113335 1_555
Zn6 Zr6 3.113345 1_555
Zn7 Zn8 2.614110 1_555
Zn7 Zn9 2.614165 1_555
Zn7 Zr5 2.944542 1_555
Zn7 Zr0 2.944546 1_555
Zn7 Zr4 2.944617 1_555
Zn7 Zr7 3.113314 1_555
Zn7 Zr9 3.113352 1_555
Zn7 Zr8 3.113357 1_555
Zn8 Zr2 3.109053 1_565
Zn8 Zr7 3.109144 1_555
Zn8 Zr0 3.109210 1_555
Zn8 Zr6 3.109239 1_555
Zn8 Zr1 3.109409 1_655
Zn8 Zr8 3.109450 1_555
Zn9 Zr4 3.109249 1_555
Zn9 Zr9 3.109278 1_555
Zn9 Zr8 3.109318 1_555
Zn9 Zr10 3.109353 1_555
Zn9 Zr2 3.109357 1_556
Zn9 Zr3 3.109382 1_655
Zn10 Zn5 2.614073 1_555
Zn10 Zn7 2.614116 1_555
Zn10 Zn4 2.614141 1_555
Zn10 Zn3 2.614163 1_455
Zn10 Zr3 3.109105 1_565
Zn10 Zr7 3.109193 1_555
Zn10 Zr5 3.109225 1_555
Zn10 Zr11 3.109304 1_555
Zn10 Zr1 3.109447 1_556
Zn10 Zr9 3.109482 1_555
Zn11 Zn2 2.614082 1_555
Zn11 Zn5 2.614087 1_555
Zn11 Zn4 2.614158 1_555
Zn11 Zn6 2.614165 1_555
Zn11 Zr4 3.109098 1_565
Zn11 Zr11 3.109236 1_555
Zn11 Zr6 3.109263 1_555
Zn11 Zr0 3.109360 1_556
Zn11 Zr5 3.109374 1_655
Zn11 Zr10 3.109487 1_555
C0 Zr11 2.299108 1_545
C0 Zr4 2.299175 1_555
C0 Zr3 2.299250 1_555
C0 Zr9 2.299278 1_555
C0 Zr5 2.299334 1_555
C0 Zr10 2.299388 1_455
C1 Zr0 2.299344 1_555
C1 Zr1 2.299379 1_555
C1 Zr5 2.299448 1_555
C1 Zr7 2.299461 1_555
C1 Zr6 2.299534 1_455
C1 Zr11 2.299591 1_554
C2 Zr6 2.299195 1_545
C2 Zr2 2.299348 1_555
C2 Zr8 2.299378 1_555
C2 Zr4 2.299388 1_555
C2 Zr0 2.299419 1_555
C2 Zr10 2.299536 1_554
C3 Zr7 2.299158 1_545
C3 Zr2 2.299263 1_555
C3 Zr3 2.299360 1_555
C3 Zr1 2.299379 1_555
C3 Zr8 2.299428 1_455
C3 Zr9 2.299511 1_554
