# generated using pymatgen
data_Sm(ClO4)3
_symmetry_space_group_name_H-M   'P 1'
_cell_length_a   9.54973770
_cell_length_b   9.54973770
_cell_length_c   9.54973728
_cell_angle_alpha   51.30833787
_cell_angle_beta   51.30833787
_cell_angle_gamma   51.30833904
_symmetry_Int_Tables_number   1
_chemical_formula_structural   Sm(ClO4)3
_chemical_formula_sum   'Sm2 Cl6 O24'
_cell_volume   489.74751528
_cell_formula_units_Z   2
loop_
 _symmetry_equiv_pos_site_id
 _symmetry_equiv_pos_as_xyz
  1  'x, y, z'
loop_
 _atom_site_type_symbol
 _atom_site_label
 _atom_site_symmetry_multiplicity
 _atom_site_fract_x
 _atom_site_fract_y
 _atom_site_fract_z
 _atom_site_occupancy
  Sm  Sm0  1  0.05912583  0.05912583  0.05912583  1
  Sm  Sm1  1  0.55912583  0.55912583  0.55912583  1
  Cl  Cl0  1  0.84330839  0.46826380  0.18886557  1
  Cl  Cl1  1  0.46826380  0.18886557  0.84330839  1
  Cl  Cl2  1  0.96826380  0.34330839  0.68886557  1
  Cl  Cl3  1  0.18886557  0.84330839  0.46826380  1
  Cl  Cl4  1  0.68886557  0.96826380  0.34330839  1
  Cl  Cl5  1  0.34330839  0.68886557  0.96826380  1
  O  O0  1  0.74709117  0.08092036  0.13349267  1
  O  O1  1  0.08092036  0.13349267  0.74709117  1
  O  O2  1  0.88107188  0.28666498  0.20497875  1
  O  O3  1  0.57026786  0.00109679  0.94910791  1
  O  O4  1  0.88997816  0.42122017  0.33706369  1
  O  O5  1  0.50109679  0.07026786  0.44910791  1
  O  O6  1  0.78666498  0.38107188  0.70497875  1
  O  O7  1  0.13349267  0.74709117  0.08092036  1
  O  O8  1  0.94910791  0.57026786  0.00109679  1
  O  O9  1  0.58092036  0.24709117  0.63349267  1
  O  O10  1  0.28666498  0.20497875  0.88107188  1
  O  O11  1  0.42122017  0.33706369  0.88997816  1
  O  O12  1  0.63349267  0.58092036  0.24709117  1
  O  O13  1  0.44910791  0.50109679  0.07026786  1
  O  O14  1  0.70497875  0.78666498  0.38107188  1
  O  O15  1  0.38107188  0.70497875  0.78666498  1
  O  O16  1  0.07026786  0.44910791  0.50109679  1
  O  O17  1  0.24709117  0.63349267  0.58092036  1
  O  O18  1  0.92122017  0.38997816  0.83706369  1
  O  O19  1  0.33706369  0.88997816  0.42122017  1
  O  O20  1  0.20497875  0.88107188  0.28666498  1
  O  O21  1  0.00109679  0.94910791  0.57026786  1
  O  O22  1  0.83706369  0.92122017  0.38997816  1
  O  O23  1  0.38997816  0.83706369  0.92122017  1
loop_
_geom_bond_atom_site_label_1
_geom_bond_atom_site_label_2
_geom_bond_distance
_geom_bond_site_symmetry_2
Cl0 O8 1.402362 1_555
Cl0 O2 1.454327 1_555
Cl0 O12 1.463292 1_555
Cl0 O4 1.465181 1_555
Cl1 O3 1.402362 1_555
Cl1 O10 1.454327 1_555
Cl1 O9 1.463292 1_555
Cl1 O11 1.465181 1_555
Cl2 O16 1.402362 1_655
Cl2 O6 1.454327 1_555
Cl2 O1 1.463292 1_655
Cl2 O18 1.465181 1_555
Cl3 O21 1.402362 1_555
Cl3 O20 1.454327 1_555
Cl3 O17 1.463292 1_555
Cl3 O19 1.465181 1_555
Cl4 O5 1.402362 1_565
Cl4 O14 1.454327 1_555
Cl4 O0 1.463292 1_565
Cl4 O22 1.465181 1_555
Cl5 O13 1.402362 1_556
Cl5 O15 1.454327 1_555
Cl5 O7 1.463292 1_556
Cl5 O23 1.465181 1_555
O0 Sm0 2.488117 1_655
O1 Sm0 2.488116 1_556
O2 Sm0 2.399264 1_655
O4 Sm1 2.475193 1_555
O6 Sm1 2.399264 1_555
O7 Sm0 2.488117 1_565
O9 Sm1 2.488117 1_555
O10 Sm0 2.399264 1_556
O11 Sm1 2.475193 1_555
O12 Sm1 2.488116 1_555
O14 Sm1 2.399264 1_555
O15 Sm1 2.399264 1_555
O17 Sm1 2.488117 1_555
O18 Sm0 2.475193 1_656
O19 Sm1 2.475193 1_555
O20 Sm0 2.399264 1_565
O22 Sm0 2.475193 1_665
O23 Sm0 2.475193 1_566
