# generated using pymatgen
data_Li4V3P8O29
_symmetry_space_group_name_H-M   'P 1'
_cell_length_a   9.75865400
_cell_length_b   9.77625540
_cell_length_c   14.24234295
_cell_angle_alpha   90.05443377
_cell_angle_beta   90.24661771
_cell_angle_gamma   119.93716664
_symmetry_Int_Tables_number   1
_chemical_formula_structural   Li4V3P8O29
_chemical_formula_sum   'Li8 V6 P16 O58'
_cell_volume   1177.44968287
_cell_formula_units_Z   2
loop_
 _symmetry_equiv_pos_site_id
 _symmetry_equiv_pos_as_xyz
  1  'x, y, z'
loop_
 _atom_site_type_symbol
 _atom_site_label
 _atom_site_symmetry_multiplicity
 _atom_site_fract_x
 _atom_site_fract_y
 _atom_site_fract_z
 _atom_site_occupancy
  Li  Li0  1  0.22321100  0.92027600  0.45030300  1
  Li  Li1  1  0.09258000  0.31707000  0.44365500  1
  Li  Li2  1  0.23217400  0.33444000  0.94257000  1
  Li  Li3  1  0.66820700  0.90326700  0.94040700  1
  Li  Li4  1  0.68746500  0.77067700  0.43743500  1
  Li  Li5  1  0.32318200  0.09274500  0.05472300  1
  Li  Li6  1  0.77615300  0.08989000  0.56053600  1
  Li  Li7  1  0.97728100  0.94844300  0.99384800  1
  V  V0  1  0.43323300  0.43563500  0.74622600  1
  V  V1  1  0.57007700  0.56489700  0.25150700  1
  V  V2  1  0.43422000  0.00029700  0.25029300  1
  V  V3  1  0.56650400  0.00024200  0.75154300  1
  V  V4  1  0.00353900  0.57014800  0.75678300  1
  V  V5  1  0.99814300  0.43703700  0.24083600  1
  P  P0  1  0.08235300  0.78070200  0.15600400  1
  P  P1  1  0.22724900  0.91006700  0.66371000  1
  P  P2  1  0.08616500  0.31963200  0.65803000  1
  P  P3  1  0.33508700  0.66201100  0.87103500  1
  P  P4  1  0.33239300  0.66786000  0.36734800  1
  P  P5  1  0.23001700  0.31465900  0.15815700  1
  P  P6  1  0.31418100  0.22790400  0.33990500  1
  P  P7  1  0.68540600  0.91032500  0.15941000  1
  P  P8  1  0.31478700  0.09248000  0.84191800  1
  P  P9  1  0.68146900  0.77006700  0.65381900  1
  P  P10  1  0.77698600  0.69468000  0.83599000  1
  P  P11  1  0.67290600  0.33687000  0.63420500  1
  P  P12  1  0.66189300  0.32924600  0.13205800  1
  P  P13  1  0.91922000  0.68596300  0.34105300  1
  P  P14  1  0.77495900  0.09361000  0.33882700  1
  P  P15  1  0.91771500  0.22294900  0.83999300  1
  O  O0  1  0.01485000  0.76448100  0.42514600  1
  O  O1  1  0.08320800  0.74156000  0.67303200  1
  O  O2  1  0.22513400  0.02254700  0.93042600  1
  O  O3  1  0.25858500  0.91798500  0.16349900  1
  O  O4  1  0.07726600  0.61804500  0.16510200  1
  O  O5  1  0.18993900  0.66906400  0.82600600  1
  O  O6  1  0.09397000  0.47783000  0.67860700  1
  O  O7  1  0.00968900  0.20708900  0.91858600  1
  O  O8  1  0.08550500  0.34092200  0.16814300  1
  O  O9  1  0.33601600  0.82014400  0.32192200  1
  O  O10  1  0.38017000  0.90120100  0.68458200  1
  O  O11  1  0.18580800  0.52321200  0.31950400  1
  O  O12  1  0.32332500  0.64206300  0.97483400  1
  O  O13  1  0.31901100  0.67396000  0.47091900  1
  O  O14  1  0.32504900  0.50894000  0.82533800  1
  O  O15  1  0.52807400  0.91186700  0.17511100  1
  O  O16  1  0.48960400  0.80976100  0.83696500  1
  O  O17  1  0.25500300  0.34223300  0.66469900  1
  O  O18  1  0.21236000  0.19984800  0.24393100  1
  O  O19  1  0.22381300  0.23140300  0.42187200  1
  O  O20  1  0.22175900  0.22961800  0.06862500  1
  O  O21  1  0.38257400  0.47093400  0.17235900  1
  O  O22  1  0.48611600  0.67089900  0.33496500  1
  O  O23  1  0.34337700  0.26465500  0.83357900  1
  O  O24  1  0.51933000  0.62168500  0.67848300  1
  O  O25  1  0.66575300  0.91997400  0.66144900  1
  O  O26  1  0.20703300  0.00373000  0.75103300  1
  O  O27  1  0.23753000  0.98977000  0.57393800  1
  O  O28  1  0.76083200  0.00365800  0.42726300  1
  O  O29  1  0.33959800  0.08196900  0.34045700  1
  O  O30  1  0.47440400  0.38076500  0.32460800  1
  O  O31  1  0.65572100  0.74159100  0.17355100  1
  O  O32  1  0.52753500  0.34349700  0.68060800  1
  O  O33  1  0.61567200  0.54126800  0.82951200  1
  O  O34  1  0.79483700  0.80366900  0.91489200  1
  O  O35  1  0.74369000  0.75538100  0.56211300  1
  O  O36  1  0.79909900  0.78684700  0.73809600  1
  O  O37  1  0.75067100  0.66328300  0.34126700  1
  O  O38  1  0.50749100  0.18171200  0.17563700  1
  O  O39  1  0.47017000  0.09187000  0.83081600  1
  O  O40  1  0.67201100  0.47813100  0.17538900  1
  O  O41  1  0.65035600  0.31051200  0.02880300  1
  O  O42  1  0.67267100  0.34421700  0.53053000  1
  O  O43  1  0.81967000  0.47737800  0.68399000  1
  O  O44  1  0.62153000  0.10108500  0.32007600  1
  O  O45  1  0.66953400  0.18337300  0.67029400  1
  O  O46  1  0.91345900  0.65642900  0.83685100  1
  O  O47  1  0.00057400  0.79546600  0.24954800  1
  O  O48  1  0.00760000  0.80451300  0.07203700  1
  O  O49  1  0.90784400  0.52474300  0.31694300  1
  O  O50  1  0.81040800  0.32282800  0.17514400  1
  O  O51  1  0.92209400  0.38287100  0.83253700  1
  O  O52  1  0.74362200  0.08421600  0.83909900  1
  O  O53  1  0.76240000  0.97871000  0.06828200  1
  O  O54  1  0.79628900  0.00691400  0.24837500  1
  O  O55  1  0.92144800  0.26069300  0.33895400  1
  O  O56  1  0.00387000  0.24540900  0.56712300  1
  O  O57  1  0.98652600  0.20044900  0.74073400  1
loop_
_geom_bond_atom_site_label_1
_geom_bond_atom_site_label_2
_geom_bond_distance
_geom_bond_site_symmetry_2
Li0 O27 1.866160 1_555
Li0 O0 1.866608 1_555
Li0 O29 2.112899 1_565
Li0 O9 2.569592 1_555
Li1 O19 1.873816 1_555
Li1 O56 1.934573 1_555
Li1 O55 2.091574 1_455
Li1 O11 2.491241 1_555
Li2 O7 1.917154 1_555
Li2 O20 2.045668 1_556
Li2 O23 2.191831 1_555
Li2 O14 2.234882 1_555
Li3 O34 1.952262 1_555
Li3 O53 2.003045 1_556
Li3 O16 2.104521 1_555
Li3 O52 2.113627 1_565
Li4 O35 1.884292 1_555
Li4 O37 2.002405 1_555
Li4 O28 2.023687 1_565
Li4 O22 2.236469 1_555
Li5 O2 1.961653 1_554
Li5 O20 2.032830 1_555
Li5 O3 2.157527 1_545
Li5 O38 2.316506 1_555
Li6 O56 1.970873 1_655
Li6 O28 2.050517 1_555
Li6 O25 2.053623 1_545
Li6 O45 2.306900 1_555
Li7 O48 1.929566 1_656
Li7 O34 1.975408 1_555
Li7 O2 2.337101 1_665
Li7 O53 2.499288 1_556
Li7 O7 2.617760 1_665
O0 P13 1.472484 1_455
O1 P1 1.548578 1_555
O1 V4 1.883309 1_555
O2 P8 1.495324 1_555
O3 P0 1.569941 1_555
O3 V2 1.927833 1_565
O4 P0 1.571487 1_555
O4 V5 1.880980 1_455
O5 P3 1.584966 1_555
O5 V4 1.855533 1_555
O6 P2 1.537850 1_555
O6 V4 1.906439 1_555
O7 P15 1.487665 1_455
O8 P5 1.561406 1_555
O8 V5 1.867336 1_455
O9 P4 1.608024 1_555
O9 V2 1.840718 1_565
O10 P1 1.564666 1_555
O10 V3 1.838344 1_565
O11 P4 1.575139 1_555
O11 V5 1.938961 1_455
O12 P3 1.488746 1_555
O13 P4 1.485185 1_555
O14 P3 1.588667 1_555
O14 V0 1.913518 1_555
O15 P7 1.559993 1_555
O15 V2 1.878765 1_565
O16 P3 1.558618 1_555
O16 V3 2.031849 1_565
O17 P2 1.551705 1_555
O17 V0 1.898046 1_555
O18 P5 1.610362 1_555
O18 P6 1.626813 1_555
O19 P6 1.476681 1_555
O20 P5 1.501305 1_555
O21 P5 1.522521 1_555
O21 V1 1.940424 1_555
O22 P4 1.557396 1_555
O22 V1 2.002906 1_555
O23 P8 1.567525 1_555
O23 V0 1.913420 1_555
O24 P9 1.563999 1_555
O24 V0 1.852055 1_555
O25 P9 1.551542 1_555
O25 V3 1.991907 1_565
O26 P1 1.613808 1_545
O26 P8 1.615415 1_555
O27 P1 1.475435 1_555
O28 P14 1.503784 1_555
O29 P6 1.565329 1_555
O29 V2 1.970613 1_555
O30 P6 1.548172 1_555
O30 V1 1.878970 1_555
O31 P7 1.539414 1_555
O31 V1 1.867034 1_555
O32 P11 1.597871 1_555
O32 V0 1.834343 1_555
O33 P10 1.542080 1_555
O33 V0 1.946175 1_555
O34 P10 1.496408 1_555
O35 P9 1.479425 1_555
O36 P9 1.607839 1_555
O36 P10 1.616560 1_555
O37 P13 1.546162 1_555
O37 V1 1.987889 1_555
O38 P12 1.605147 1_555
O38 V2 1.879289 1_555
O39 P8 1.528194 1_555
O39 V3 1.951572 1_555
O40 P12 1.537374 1_555
O40 V1 1.932360 1_555
O41 P12 1.478630 1_555
O42 P11 1.478436 1_555
O43 P11 1.570571 1_555
O43 V4 1.864107 1_655
O44 P14 1.557001 1_555
O44 V2 1.866735 1_555
O45 P11 1.571456 1_555
O45 V3 1.942309 1_555
O46 P10 1.552614 1_555
O46 V4 1.879240 1_655
O47 P0 1.598895 1_555
O47 P13 1.624205 1_455
O48 P0 1.476142 1_555
O49 P13 1.561544 1_555
O49 V5 1.856671 1_555
O50 P12 1.601302 1_555
O50 V5 1.849323 1_555
O51 P15 1.546322 1_555
O51 V4 1.925245 1_655
O52 P15 1.557540 1_555
O52 V3 1.944144 1_555
O53 P7 1.484809 1_555
O54 P14 1.611705 1_555
O54 P7 1.622989 1_545
O55 P14 1.543069 1_555
O55 V5 2.052030 1_555
O56 P2 1.501810 1_555
O57 P2 1.603803 1_655
O57 P15 1.628743 1_555
