# generated using pymatgen
data_Sb3O2F5
_symmetry_space_group_name_H-M   'P 1'
_cell_length_a   5.69688000
_cell_length_b   6.60417700
_cell_length_c   18.52391600
_cell_angle_alpha   90.00000000
_cell_angle_beta   90.00000000
_cell_angle_gamma   90.00000000
_symmetry_Int_Tables_number   1
_chemical_formula_structural   Sb3O2F5
_chemical_formula_sum   'Sb12 O8 F20'
_cell_volume   696.92906810
_cell_formula_units_Z   4
loop_
 _symmetry_equiv_pos_site_id
 _symmetry_equiv_pos_as_xyz
  1  'x, y, z'
loop_
 _atom_site_type_symbol
 _atom_site_label
 _atom_site_symmetry_multiplicity
 _atom_site_fract_x
 _atom_site_fract_y
 _atom_site_fract_z
 _atom_site_occupancy
  Sb  Sb0  1  0.11944800  0.53840600  0.60087600  1
  Sb  Sb1  1  0.11944800  0.53840600  0.89912400  1
  Sb  Sb2  1  0.28543500  0.95301800  0.75000000  1
  Sb  Sb3  1  0.21456500  0.45301800  0.25000000  1
  Sb  Sb4  1  0.38055200  0.03840600  0.10087600  1
  Sb  Sb5  1  0.38055200  0.03840600  0.39912400  1
  Sb  Sb6  1  0.61944800  0.96159400  0.89912400  1
  Sb  Sb7  1  0.61944800  0.96159400  0.60087600  1
  Sb  Sb8  1  0.78543500  0.54698200  0.75000000  1
  Sb  Sb9  1  0.71456500  0.04698200  0.25000000  1
  Sb  Sb10  1  0.88055200  0.46159400  0.39912400  1
  Sb  Sb11  1  0.88055200  0.46159400  0.10087600  1
  O  O0  1  0.04394600  0.28247900  0.17396200  1
  O  O1  1  0.04394600  0.28247900  0.32603800  1
  O  O2  1  0.45605400  0.78247900  0.82603800  1
  O  O3  1  0.45605400  0.78247900  0.67396200  1
  O  O4  1  0.54394600  0.21752100  0.17396200  1
  O  O5  1  0.54394600  0.21752100  0.32603800  1
  O  O6  1  0.95605400  0.71752100  0.67396200  1
  O  O7  1  0.95605400  0.71752100  0.82603800  1
  F  F0  1  0.09945800  0.39016000  0.75000000  1
  F  F1  1  0.08860700  0.32322200  0.02781100  1
  F  F2  1  0.08860700  0.32322200  0.47218900  1
  F  F3  1  0.15053500  0.65164500  0.38048000  1
  F  F4  1  0.15053500  0.65164500  0.11952000  1
  F  F5  1  0.34946500  0.15164500  0.88048000  1
  F  F6  1  0.34946500  0.15164500  0.61952000  1
  F  F7  1  0.41139300  0.82322200  0.52781100  1
  F  F8  1  0.41139300  0.82322200  0.97218900  1
  F  F9  1  0.40054200  0.89016000  0.25000000  1
  F  F10  1  0.59945800  0.10984000  0.75000000  1
  F  F11  1  0.58860700  0.17677800  0.02781100  1
  F  F12  1  0.58860700  0.17677800  0.47218900  1
  F  F13  1  0.65053500  0.84835500  0.38048000  1
  F  F14  1  0.65053500  0.84835500  0.11952000  1
  F  F15  1  0.84946500  0.34835500  0.61952000  1
  F  F16  1  0.84946500  0.34835500  0.88048000  1
  F  F17  1  0.91139300  0.67677800  0.97218900  1
  F  F18  1  0.91139300  0.67677800  0.52781100  1
  F  F19  1  0.90054200  0.60984000  0.25000000  1
loop_
_geom_bond_atom_site_label_1
_geom_bond_atom_site_label_2
_geom_bond_distance
_geom_bond_site_symmetry_2
O0 Sb11 2.024501 1_455
O0 Sb3 2.048705 1_555
O1 Sb10 2.024501 1_455
O1 Sb3 2.048705 1_555
O2 Sb6 2.024501 1_555
O2 Sb2 2.048705 1_555
O3 Sb7 2.024501 1_555
O3 Sb2 2.048705 1_555
O4 Sb4 2.024501 1_555
O4 Sb9 2.048705 1_555
O5 Sb5 2.024501 1_555
O5 Sb9 2.048705 1_555
O6 Sb0 2.024501 1_655
O6 Sb8 2.048705 1_555
O7 Sb1 2.024501 1_655
O7 Sb8 2.048705 1_555
F0 Sb8 2.067119 1_455
F1 Sb11 2.017863 1_455
F2 Sb10 2.017863 1_455
F3 Sb10 2.015008 1_455
F4 Sb11 2.015008 1_455
F5 Sb6 2.015008 1_545
F6 Sb7 2.015008 1_545
F7 Sb7 2.017863 1_555
F8 Sb6 2.017863 1_555
F9 Sb9 2.067119 1_565
F10 Sb2 2.067119 1_545
F11 Sb4 2.017863 1_555
F12 Sb5 2.017863 1_555
F13 Sb5 2.015008 1_565
F14 Sb4 2.015008 1_565
F15 Sb0 2.015008 1_655
F16 Sb1 2.015008 1_655
F17 Sb1 2.017863 1_655
F18 Sb0 2.017863 1_655
F19 Sb3 2.067119 1_655
