# generated using pymatgen
data_LiCo2OF3
_symmetry_space_group_name_H-M   'P 1'
_cell_length_a   6.13753455
_cell_length_b   6.13753455
_cell_length_c   6.13753452
_cell_angle_alpha   58.81239279
_cell_angle_beta   58.81239279
_cell_angle_gamma   58.81239261
_symmetry_Int_Tables_number   1
_chemical_formula_structural   LiCo2OF3
_chemical_formula_sum   'Li2 Co4 O2 F6'
_cell_volume   159.04734193
_cell_formula_units_Z   2
loop_
 _symmetry_equiv_pos_site_id
 _symmetry_equiv_pos_as_xyz
  1  'x, y, z'
loop_
 _atom_site_type_symbol
 _atom_site_label
 _atom_site_symmetry_multiplicity
 _atom_site_fract_x
 _atom_site_fract_y
 _atom_site_fract_z
 _atom_site_occupancy
  Li  Li0  1  0.50094500  0.50094500  0.50094500  1
  Li  Li1  1  0.86054500  0.86054500  0.86054500  1
  Co  Co0  1  0.98975000  0.50354200  0.50354200  1
  Co  Co1  1  0.50354200  0.98975000  0.50354200  1
  Co  Co2  1  0.14641100  0.14641100  0.14641100  1
  Co  Co3  1  0.50354200  0.50354200  0.98975000  1
  O  O0  1  0.27144200  0.27144200  0.27144200  1
  O  O1  1  0.73142000  0.73142000  0.73142000  1
  F  F0  1  0.25870100  0.74293700  0.25870100  1
  F  F1  1  0.74293700  0.25870100  0.25870100  1
  F  F2  1  0.25870100  0.25870100  0.74293700  1
  F  F3  1  0.25921800  0.73642300  0.73642300  1
  F  F4  1  0.73642300  0.73642300  0.25921800  1
  F  F5  1  0.73642300  0.25921800  0.73642300  1
loop_
_geom_bond_atom_site_label_1
_geom_bond_atom_site_label_2
_geom_bond_distance
_geom_bond_site_symmetry_2
Li1 O1 1.958484 1_555
Co0 O1 1.964355 1_555
Co0 O0 2.011917 1_655
Co0 F4 2.145293 1_555
Co0 F5 2.145293 1_555
Co0 F2 2.190416 1_655
Co0 F0 2.190416 1_655
Co1 O1 1.964355 1_555
Co1 O0 2.011917 1_565
Co1 F4 2.145293 1_555
Co1 F3 2.145293 1_555
Co1 F2 2.190416 1_565
Co1 F1 2.190416 1_565
Co2 O0 1.896389 1_555
Co2 F2 2.009729 1_554
Co2 F0 2.009729 1_545
Co2 F1 2.009729 1_455
Co3 O1 1.964355 1_555
Co3 O0 2.011917 1_556
Co3 F5 2.145293 1_555
Co3 F3 2.145293 1_555
Co3 F0 2.190416 1_556
Co3 F1 2.190416 1_556
F0 Li0 2.083824 1_555
F1 Li0 2.083824 1_555
F2 Li0 2.083824 1_555
F3 Li1 1.971754 1_455
F3 Li0 2.024969 1_555
F4 Li1 1.971754 1_554
F4 Li0 2.024969 1_555
F5 Li1 1.971754 1_545
F5 Li0 2.024969 1_555
