# generated using pymatgen
data_LiVPO5
_symmetry_space_group_name_H-M   'P 1'
_cell_length_a   6.06153500
_cell_length_b   7.35862300
_cell_length_c   9.95002200
_cell_angle_alpha   90.00000000
_cell_angle_beta   90.00000000
_cell_angle_gamma   90.00000000
_symmetry_Int_Tables_number   1
_chemical_formula_structural   LiVPO5
_chemical_formula_sum   'Li4 V4 P4 O20'
_cell_volume   443.81626242
_cell_formula_units_Z   4
loop_
 _symmetry_equiv_pos_site_id
 _symmetry_equiv_pos_as_xyz
  1  'x, y, z'
loop_
 _atom_site_type_symbol
 _atom_site_label
 _atom_site_symmetry_multiplicity
 _atom_site_fract_x
 _atom_site_fract_y
 _atom_site_fract_z
 _atom_site_occupancy
  Li  Li0  1  0.06695500  0.57175600  0.44031100  1
  Li  Li1  1  0.43304500  0.42824400  0.94031100  1
  Li  Li2  1  0.56695500  0.92824400  0.55968900  1
  Li  Li3  1  0.93304500  0.07175600  0.05968900  1
  V  V0  1  0.09473700  0.04780600  0.55062200  1
  V  V1  1  0.40526300  0.95219500  0.05062200  1
  V  V2  1  0.59473700  0.45219400  0.44937800  1
  V  V3  1  0.90526300  0.54780500  0.94937800  1
  P  P0  1  0.20414700  0.84787400  0.82796300  1
  P  P1  1  0.29585300  0.15212600  0.32796300  1
  P  P2  1  0.70414700  0.65212600  0.17203700  1
  P  P3  1  0.79585300  0.34787400  0.67203700  1
  O  O0  1  0.99764800  0.22316900  0.68779600  1
  O  O1  1  0.11518300  0.41331900  0.98192900  1
  O  O2  1  0.15571700  0.00969700  0.92683400  1
  O  O3  1  0.10325700  0.24656500  0.40682500  1
  O  O4  1  0.28000300  0.91626000  0.68850300  1
  O  O5  1  0.21999700  0.08374000  0.18850300  1
  O  O6  1  0.39674300  0.75343500  0.90682500  1
  O  O7  1  0.34428300  0.99030300  0.42683400  1
  O  O8  1  0.38481700  0.58668100  0.48192900  1
  O  O9  1  0.50235200  0.77683100  0.18779600  1
  O  O10  1  0.49764800  0.27683100  0.31220400  1
  O  O11  1  0.61518300  0.08668100  0.01807100  1
  O  O12  1  0.65571700  0.49030300  0.07316600  1
  O  O13  1  0.60325700  0.25343500  0.59317500  1
  O  O14  1  0.78000300  0.58374000  0.31149700  1
  O  O15  1  0.71999700  0.41626000  0.81149700  1
  O  O16  1  0.89674300  0.74656500  0.09317500  1
  O  O17  1  0.84428300  0.50969700  0.57316600  1
  O  O18  1  0.88481700  0.91331900  0.51807100  1
  O  O19  1  0.00235200  0.72316900  0.81220400  1
loop_
_geom_bond_atom_site_label_1
_geom_bond_atom_site_label_2
_geom_bond_distance
_geom_bond_site_symmetry_2
Li0 O17 1.943650 1_455
Li0 O8 1.973787 1_555
Li0 O14 2.162393 1_455
Li0 O3 2.426042 1_555
Li1 O12 1.943650 1_556
Li1 O1 1.973787 1_555
Li1 O15 2.162393 1_555
Li1 O6 2.426042 1_555
Li2 O7 1.943650 1_555
Li2 O18 1.973787 1_555
Li2 O4 2.162393 1_555
Li2 O13 2.426042 1_565
Li3 O2 1.943650 1_654
Li3 O11 1.973787 1_555
Li3 O5 2.162393 1_655
Li3 O16 2.426042 1_545
O0 P3 1.537163 1_555
O0 V0 1.968365 1_655
O1 V3 1.644192 1_455
O2 P0 1.572250 1_545
O2 V1 1.996038 1_546
O3 P1 1.568933 1_555
O3 V0 2.046701 1_555
O4 P0 1.546019 1_555
O4 V0 2.019976 1_565
O5 P1 1.546019 1_555
O5 V1 2.019972 1_545
O6 P0 1.568933 1_555
O6 V1 2.046706 1_556
O7 P1 1.572250 1_565
O7 V0 1.996039 1_565
O8 V2 1.644197 1_555
O9 P2 1.537163 1_555
O9 V1 1.968370 1_555
O10 P1 1.537163 1_555
O10 V2 1.968365 1_555
O11 V1 1.644192 1_545
O12 P2 1.572250 1_555
O12 V3 1.996038 1_554
O13 P3 1.568933 1_555
O13 V2 2.046701 1_555
O14 P2 1.546019 1_555
O14 V2 2.019976 1_555
O15 P3 1.546019 1_555
O15 V3 2.019972 1_555
O16 P2 1.568933 1_555
O16 V3 2.046706 1_554
O17 P3 1.572250 1_555
O17 V2 1.996039 1_555
O18 V0 1.644197 1_665
O19 P0 1.537163 1_555
O19 V3 1.968370 1_455
