# generated using pymatgen
data_Fe5Sb(PO4)6
_symmetry_space_group_name_H-M   'P 1'
_cell_length_a   8.57281109
_cell_length_b   8.57281109
_cell_length_c   8.57281069
_cell_angle_alpha   60.90910713
_cell_angle_beta   60.90910713
_cell_angle_gamma   60.90910439
_symmetry_Int_Tables_number   1
_chemical_formula_structural   Fe5Sb(PO4)6
_chemical_formula_sum   'Fe5 Sb1 P6 O24'
_cell_volume   454.63568834
_cell_formula_units_Z   1
loop_
 _symmetry_equiv_pos_site_id
 _symmetry_equiv_pos_as_xyz
  1  'x, y, z'
loop_
 _atom_site_type_symbol
 _atom_site_label
 _atom_site_symmetry_multiplicity
 _atom_site_fract_x
 _atom_site_fract_y
 _atom_site_fract_z
 _atom_site_occupancy
  Fe  Fe0  1  0.00566500  0.00566500  0.00566500  1
  Fe  Fe1  1  0.35593400  0.35593400  0.35593400  1
  Fe  Fe2  1  0.49946600  0.49946600  0.49946600  1
  Fe  Fe3  1  0.14433200  0.14433200  0.14433200  1
  Fe  Fe4  1  0.64200100  0.64200100  0.64200100  1
  Sb  Sb0  1  0.85753900  0.85753900  0.85753900  1
  P  P0  1  0.74493300  0.04532800  0.45512300  1
  P  P1  1  0.04532800  0.45512300  0.74493300  1
  P  P2  1  0.45512300  0.74493300  0.04532800  1
  P  P3  1  0.53948600  0.25219400  0.95541600  1
  P  P4  1  0.95541600  0.53948600  0.25219400  1
  P  P5  1  0.25219400  0.95541600  0.53948600  1
  O  O0  1  0.88803100  0.50381500  0.67851800  1
  O  O1  1  0.50381500  0.67851800  0.88803100  1
  O  O2  1  0.67851800  0.88803100  0.50381500  1
  O  O3  1  0.90917400  0.05768400  0.26406100  1
  O  O4  1  0.81293400  0.01002000  0.61435600  1
  O  O5  1  0.58912100  0.24079900  0.44268400  1
  O  O6  1  0.05768400  0.26406100  0.90917400  1
  O  O7  1  0.24079900  0.44268400  0.58912100  1
  O  O8  1  0.39069800  0.17795400  0.99579900  1
  O  O9  1  0.44268400  0.58912100  0.24079900  1
  O  O10  1  0.74383400  0.08676600  0.93993200  1
  O  O11  1  0.99579900  0.39069800  0.17795400  1
  O  O12  1  0.01002000  0.61435600  0.81293400  1
  O  O13  1  0.26406100  0.90917400  0.05768400  1
  O  O14  1  0.56294300  0.40518600  0.75728000  1
  O  O15  1  0.61435600  0.81293400  0.01002000  1
  O  O16  1  0.75728000  0.56294300  0.40518600  1
  O  O17  1  0.93993200  0.74383400  0.08676600  1
  O  O18  1  0.40518600  0.75728000  0.56294300  1
  O  O19  1  0.17795400  0.99579900  0.39069800  1
  O  O20  1  0.08676600  0.93993200  0.74383400  1
  O  O21  1  0.31037500  0.11210400  0.50850200  1
  O  O22  1  0.50850200  0.31037500  0.11210400  1
  O  O23  1  0.11210400  0.50850200  0.31037500  1
loop_
_geom_bond_atom_site_label_1
_geom_bond_atom_site_label_2
_geom_bond_distance
_geom_bond_site_symmetry_2
Fe0 O3 2.147143 1_455
Fe0 O13 2.147143 1_545
Fe0 O6 2.147143 1_554
Fe0 O20 2.273931 1_544
Fe0 O10 2.273931 1_454
Fe0 O17 2.273931 1_445
Fe1 O22 1.967550 1_555
Fe1 O23 1.967550 1_555
Fe1 O21 1.967550 1_555
Fe1 O7 2.082493 1_555
Fe1 O5 2.082493 1_555
Fe1 O9 2.082493 1_555
Fe2 O9 2.184842 1_555
Fe2 O5 2.184842 1_555
Fe2 O7 2.184842 1_555
Fe2 O14 2.199799 1_555
Fe2 O18 2.199799 1_555
Fe2 O16 2.199799 1_555
Fe3 O19 1.945556 1_545
Fe3 O11 1.945556 1_455
Fe3 O8 1.945556 1_554
Fe3 O6 2.090954 1_554
Fe3 O13 2.090954 1_545
Fe3 O3 2.090955 1_455
Fe4 O1 1.949815 1_555
Fe4 O0 1.949815 1_555
Fe4 O2 1.949815 1_555
Fe4 O16 2.072028 1_555
Fe4 O18 2.072028 1_555
Fe4 O14 2.072028 1_555
O0 P1 1.511599 1_655
O1 P2 1.511599 1_556
O2 P0 1.511599 1_565
O3 P0 1.552515 1_555
O4 P0 1.579663 1_555
O4 Sb0 1.959689 1_545
O5 P0 1.546565 1_555
O6 P1 1.552515 1_555
O7 P1 1.546565 1_555
O8 P3 1.515798 1_555
O9 P2 1.546565 1_555
O10 P3 1.624466 1_555
O10 Sb0 2.031832 1_545
O11 P4 1.515798 1_555
O12 P1 1.579663 1_555
O12 Sb0 1.959689 1_455
O13 P2 1.552515 1_555
O14 P3 1.550437 1_555
O15 P2 1.579663 1_555
O15 Sb0 1.959689 1_554
O16 P4 1.550437 1_555
O17 P4 1.624466 1_555
O17 Sb0 2.031832 1_554
O18 P5 1.550437 1_555
O19 P5 1.515798 1_555
O20 P5 1.624466 1_555
O20 Sb0 2.031832 1_455
O21 P5 1.516371 1_545
O22 P3 1.516371 1_554
O23 P4 1.516371 1_455
