# generated using pymatgen
data_Ba2Ti6O13
_symmetry_space_group_name_H-M   'P 1'
_cell_length_a   7.77652290
_cell_length_b   7.77652290
_cell_length_c   9.10641651
_cell_angle_alpha   82.15857940
_cell_angle_beta   82.15857940
_cell_angle_gamma   29.52886897
_symmetry_Int_Tables_number   1
_chemical_formula_structural   Ba2Ti6O13
_chemical_formula_sum   'Ba2 Ti6 O13'
_cell_volume   268.70611161
_cell_formula_units_Z   1
loop_
 _symmetry_equiv_pos_site_id
 _symmetry_equiv_pos_as_xyz
  1  'x, y, z'
loop_
 _atom_site_type_symbol
 _atom_site_label
 _atom_site_symmetry_multiplicity
 _atom_site_fract_x
 _atom_site_fract_y
 _atom_site_fract_z
 _atom_site_occupancy
  Ba  Ba0  1  0.05218482  0.05218482  0.22079293  1
  Ba  Ba1  1  0.94781518  0.94781518  0.77920707  1
  Ti  Ti0  1  0.66940480  0.66940480  0.55628894  1
  Ti  Ti1  1  0.33059520  0.33059520  0.44371106  1
  Ti  Ti2  1  0.25216605  0.25216605  0.77660073  1
  Ti  Ti3  1  0.74783395  0.74783395  0.22339927  1
  Ti  Ti4  1  0.62150209  0.62150209  0.89992681  1
  Ti  Ti5  1  0.37849791  0.37849791  0.10007319  1
  O  O0  1  0.50000000  0.50000000  -0.00000000  1
  O  O1  1  0.42851397  0.42851397  0.30204083  1
  O  O2  1  0.57148603  0.57148603  0.69795917  1
  O  O3  1  0.36886181  0.36886181  0.62210520  1
  O  O4  1  0.63113819  0.63113819  0.37789480  1
  O  O5  1  0.32641057  0.32641057  0.92042886  1
  O  O6  1  0.67358943  0.67358943  0.07957114  1
  O  O7  1  0.19917706  0.19917706  0.56927678  1
  O  O8  1  0.87351954  0.87351954  0.11108848  1
  O  O9  1  0.12648046  0.12648046  0.88891152  1
  O  O10  1  0.25903379  0.25903379  0.24649205  1
  O  O11  1  0.74096621  0.74096621  0.75350795  1
  O  O12  1  0.80082294  0.80082294  0.43072322  1
loop_
_geom_bond_atom_site_label_1
_geom_bond_atom_site_label_2
_geom_bond_distance
_geom_bond_site_symmetry_2
Ba0 O1 2.747015 1_545
Ba0 O1 2.747015 1_455
Ba0 O4 2.804215 1_545
Ba0 O4 2.804215 1_455
Ba0 O6 2.872740 1_545
Ba0 O6 2.872740 1_455
Ba0 O8 2.995945 1_445
Ba0 O0 3.005241 1_455
Ba0 O0 3.005241 1_545
Ba0 O9 3.070765 1_554
Ba0 O10 3.152452 1_555
Ba1 O2 2.747015 1_655
Ba1 O2 2.747015 1_565
Ba1 O3 2.804215 1_655
Ba1 O3 2.804215 1_565
Ba1 O5 2.872740 1_565
Ba1 O5 2.872740 1_655
Ba1 O9 2.995945 1_665
Ba1 O0 3.005241 1_566
Ba1 O0 3.005241 1_656
Ba1 O8 3.070765 1_556
Ba1 O11 3.152452 1_555
O0 Ti5 1.923466 1_555
O0 Ti4 1.923466 1_554
O1 Ti1 1.815756 1_555
O1 Ti5 2.082999 1_555
O2 Ti0 1.815756 1_555
O2 Ti4 2.082999 1_555
O3 Ti1 1.798370 1_555
O3 Ti2 2.088733 1_555
O4 Ti0 1.798370 1_555
O4 Ti3 2.088733 1_555
O5 Ti2 1.837104 1_555
O5 Ti5 1.910892 1_556
O6 Ti3 1.837104 1_555
O6 Ti4 1.910892 1_554
O7 Ti0 2.038873 1_545
O7 Ti0 2.038873 1_455
O7 Ti1 2.139199 1_555
O7 Ti2 2.150377 1_555
O8 Ti5 1.985228 1_655
O8 Ti5 1.985228 1_565
O8 Ti3 2.018300 1_555
O9 Ti4 1.985228 1_455
O9 Ti4 1.985228 1_545
O9 Ti2 2.018300 1_555
O10 Ti3 2.002541 1_455
O10 Ti3 2.002541 1_545
O10 Ti5 2.080841 1_555
O10 Ti1 2.220181 1_555
O11 Ti2 2.002541 1_655
O11 Ti2 2.002541 1_565
O11 Ti4 2.080841 1_555
O11 Ti0 2.220181 1_555
O12 Ti1 2.038873 1_565
O12 Ti1 2.038873 1_655
O12 Ti0 2.139199 1_555
O12 Ti3 2.150377 1_555
