# generated using pymatgen
data_Li14MgCo13O28
_symmetry_space_group_name_H-M   'P 1'
_cell_length_a   7.53255800
_cell_length_b   8.07944524
_cell_length_c   8.56664667
_cell_angle_alpha   103.15831076
_cell_angle_beta   104.55279921
_cell_angle_gamma   105.44522666
_symmetry_Int_Tables_number   1
_chemical_formula_structural   Li14MgCo13O28
_chemical_formula_sum   'Li14 Mg1 Co13 O28'
_cell_volume   461.52568817
_cell_formula_units_Z   1
loop_
 _symmetry_equiv_pos_site_id
 _symmetry_equiv_pos_as_xyz
  1  'x, y, z'
loop_
 _atom_site_type_symbol
 _atom_site_label
 _atom_site_symmetry_multiplicity
 _atom_site_fract_x
 _atom_site_fract_y
 _atom_site_fract_z
 _atom_site_occupancy
  Li  Li0  1  0.93019500  0.28643600  0.21512000  1
  Li  Li1  1  0.85659700  0.07147400  0.42836500  1
  Li  Li2  1  0.64201400  0.42896300  0.07294700  1
  Li  Li3  1  0.78531300  0.85666100  0.64281500  1
  Li  Li4  1  0.57138900  0.21477300  0.28587400  1
  Li  Li5  1  0.28628900  0.35736200  0.14328300  1
  Li  Li6  1  0.50000000  0.00000000  0.50000000  1
  Li  Li7  1  0.71371100  0.64263800  0.85671700  1
  Li  Li8  1  0.21468700  0.14333900  0.35718500  1
  Li  Li9  1  0.42861100  0.78522700  0.71412600  1
  Li  Li10  1  0.00000000  0.50000000  0.00000000  1
  Li  Li11  1  0.35798600  0.57103700  0.92705300  1
  Li  Li12  1  0.14340300  0.92852600  0.57163500  1
  Li  Li13  1  0.06980500  0.71356400  0.78488000  1
  Mg  Mg0  1  0.50000000  0.50000000  0.50000000  1
  Co  Co0  1  0.92831900  0.78575400  0.21420500  1
  Co  Co1  1  0.64279800  0.92832300  0.07092500  1
  Co  Co2  1  0.85703200  0.57138600  0.42850600  1
  Co  Co3  1  0.78527400  0.35716700  0.64289500  1
  Co  Co4  1  0.57151400  0.71441700  0.28579200  1
  Co  Co5  1  0.71413600  0.14256300  0.85701800  1
  Co  Co6  1  0.28586400  0.85743700  0.14298200  1
  Co  Co7  1  0.21472600  0.64283300  0.35710500  1
  Co  Co8  1  0.00000000  0.00000000  0.00000000  1
  Co  Co9  1  0.42848600  0.28558300  0.71420800  1
  Co  Co10  1  0.14296800  0.42861400  0.57149400  1
  Co  Co11  1  0.35720200  0.07167700  0.92907500  1
  Co  Co12  1  0.07168100  0.21424600  0.78579500  1
  O  O0  1  0.93890600  0.55481200  0.23055300  1
  O  O1  1  0.91837400  0.01755000  0.19795300  1
  O  O2  1  0.86621400  0.33930000  0.44517800  1
  O  O3  1  0.63356400  0.16044800  0.05501000  1
  O  O4  1  0.65320200  0.69726000  0.08781400  1
  O  O5  1  0.84783900  0.80407300  0.41255900  1
  O  O6  1  0.79097900  0.59462400  0.63370400  1
  O  O7  1  0.98999700  0.23205700  0.98317800  1
  O  O8  1  0.58541000  0.48089600  0.29113500  1
  O  O9  1  0.79690200  0.12554800  0.65997800  1
  O  O10  1  0.56201200  0.94635000  0.26807600  1
  O  O11  1  0.27589500  0.08958800  0.12724200  1
  O  O12  1  0.70451900  0.37491900  0.84146800  1
  O  O13  1  0.49012100  0.74512200  0.48318800  1
  O  O14  1  0.50987900  0.25487800  0.51681200  1
  O  O15  1  0.72410500  0.91041200  0.87275800  1
  O  O16  1  0.29548100  0.62508100  0.15853200  1
  O  O17  1  0.43798800  0.05365000  0.73192400  1
  O  O18  1  0.41459000  0.51910400  0.70886500  1
  O  O19  1  0.01000300  0.76794300  0.01682200  1
  O  O20  1  0.20902100  0.40537600  0.36629600  1
  O  O21  1  0.20309800  0.87445200  0.34002200  1
  O  O22  1  0.34679800  0.30274000  0.91218600  1
  O  O23  1  0.36643600  0.83955200  0.94499000  1
  O  O24  1  0.15216100  0.19592700  0.58744100  1
  O  O25  1  0.13378600  0.66070000  0.55482200  1
  O  O26  1  0.06109400  0.44518800  0.76944700  1
  O  O27  1  0.08162600  0.98245000  0.80204700  1
loop_
_geom_bond_atom_site_label_1
_geom_bond_atom_site_label_2
_geom_bond_distance
_geom_bond_site_symmetry_2
Li0 O20 2.000817 1_655
Li0 O1 2.119911 1_555
Li0 O7 2.121731 1_554
Li0 O2 2.121926 1_555
Li0 O0 2.124330 1_555
Li0 O3 2.126667 1_555
Li1 O10 2.115017 1_545
Li1 O5 2.115809 1_545
Li1 O2 2.116072 1_555
Li1 O1 2.116724 1_555
Li1 O24 2.117513 1_655
Li1 O9 2.118545 1_555
Li2 O8 1.997563 1_555
Li2 O4 2.119862 1_555
Li2 O22 2.120204 1_554
Li2 O3 2.122251 1_555
Li2 O0 2.122378 1_555
Li2 O12 2.128168 1_554
Li3 O15 2.110692 1_555
Li3 O6 2.112972 1_555
Li3 O13 2.114203 1_555
Li3 O5 2.117801 1_555
Li3 O9 2.120360 1_565
Li3 O27 2.122722 1_655
Li4 O2 2.113830 1_555
Li4 O8 2.113945 1_555
Li4 O11 2.116378 1_555
Li4 O14 2.117155 1_555
Li4 O10 2.119903 1_545
Li4 O3 2.122064 1_555
Li5 O8 2.114136 1_555
Li5 O11 2.115328 1_555
Li5 O20 2.116787 1_555
Li5 O22 2.117698 1_554
Li5 O16 2.118385 1_555
Li5 O7 2.124430 1_454
Li6 O14 2.011181 1_555
Li6 O13 2.011181 1_545
Li6 O21 2.127733 1_545
Li6 O9 2.127733 1_555
Li6 O10 2.129704 1_545
Li6 O17 2.129704 1_555
Li7 O18 2.114136 1_555
Li7 O15 2.115328 1_555
Li7 O6 2.116787 1_555
Li7 O4 2.117698 1_556
Li7 O12 2.118385 1_555
Li7 O19 2.124430 1_656
Li8 O11 2.110692 1_555
Li8 O20 2.112972 1_555
Li8 O14 2.114203 1_555
Li8 O24 2.117801 1_555
Li8 O21 2.120360 1_545
Li8 O1 2.122722 1_455
Li9 O25 2.113830 1_555
Li9 O18 2.113945 1_555
Li9 O15 2.116378 1_555
Li9 O13 2.117155 1_555
Li9 O17 2.119903 1_565
Li9 O23 2.122064 1_555
Li10 O26 2.115628 1_554
Li10 O0 2.115628 1_455
Li10 O12 2.116030 1_454
Li10 O16 2.116030 1_555
Li10 O7 2.116262 1_454
Li10 O19 2.116262 1_555
Li11 O18 1.997563 1_555
Li11 O22 2.119862 1_555
Li11 O4 2.120204 1_556
Li11 O23 2.122251 1_555
Li11 O26 2.122378 1_555
Li11 O16 2.128168 1_556
Li12 O17 2.115017 1_565
Li12 O24 2.115809 1_565
Li12 O25 2.116072 1_555
Li12 O27 2.116724 1_555
Li12 O5 2.117513 1_455
Li12 O21 2.118545 1_555
Li13 O6 2.000817 1_455
Li13 O27 2.119911 1_555
Li13 O19 2.121731 1_556
Li13 O25 2.121926 1_555
Li13 O26 2.124330 1_555
Li13 O23 2.126667 1_555
Mg0 O18 2.035898 1_555
Mg0 O8 2.035898 1_555
Mg0 O20 2.036574 1_555
Mg0 O6 2.036574 1_555
Mg0 O13 2.037506 1_555
Mg0 O14 2.037506 1_555
Co0 O21 1.922623 1_655
Co0 O0 1.923566 1_555
Co0 O4 1.925836 1_555
Co0 O19 1.928132 1_655
Co0 O1 1.928861 1_565
Co0 O5 1.930738 1_555
Co1 O10 1.922415 1_555
Co1 O4 1.925473 1_555
Co1 O3 1.929206 1_565
Co1 O1 1.929608 1_565
Co1 O23 1.932787 1_554
Co1 O15 1.932830 1_554
Co2 O8 1.925379 1_555
Co2 O6 1.926629 1_555
Co2 O2 1.930628 1_555
Co2 O5 1.933728 1_555
Co2 O0 1.933951 1_555
Co2 O25 1.935740 1_655
Co3 O14 1.925445 1_555
Co3 O6 1.927519 1_555
Co3 O2 1.927676 1_555
Co3 O26 1.930722 1_655
Co3 O9 1.933028 1_555
Co3 O12 1.933844 1_555
Co4 O13 1.925622 1_555
Co4 O8 1.927398 1_555
Co4 O10 1.932635 1_555
Co4 O16 1.932860 1_555
Co4 O4 1.933163 1_555
Co4 O5 1.933716 1_555
Co5 O3 1.928346 1_556
Co5 O7 1.929780 1_555
Co5 O17 1.929936 1_555
Co5 O9 1.930202 1_555
Co5 O15 1.930535 1_545
Co5 O12 1.930989 1_555
Co6 O23 1.928346 1_554
Co6 O19 1.929780 1_555
Co6 O10 1.929936 1_555
Co6 O21 1.930202 1_555
Co6 O11 1.930535 1_565
Co6 O16 1.930989 1_555
Co7 O13 1.925445 1_555
Co7 O20 1.927519 1_555
Co7 O25 1.927676 1_555
Co7 O0 1.930722 1_455
Co7 O21 1.933028 1_555
Co7 O16 1.933844 1_555
Co8 O11 1.931877 1_555
Co8 O15 1.931877 1_444
Co8 O19 1.932476 1_545
Co8 O7 1.932476 1_454
Co8 O1 1.932566 1_455
Co8 O27 1.932566 1_544
Co9 O14 1.925622 1_555
Co9 O18 1.927398 1_555
Co9 O17 1.932635 1_555
Co9 O12 1.932860 1_555
Co9 O22 1.933163 1_555
Co9 O24 1.933716 1_555
Co10 O18 1.925379 1_555
Co10 O20 1.926629 1_555
Co10 O25 1.930628 1_555
Co10 O24 1.933728 1_555
Co10 O26 1.933951 1_555
Co10 O2 1.935740 1_455
Co11 O17 1.922415 1_555
Co11 O22 1.925473 1_555
Co11 O23 1.929206 1_545
Co11 O27 1.929608 1_545
Co11 O3 1.932787 1_556
Co11 O11 1.932830 1_556
Co12 O9 1.922623 1_455
Co12 O26 1.923566 1_555
Co12 O22 1.925836 1_555
Co12 O7 1.928132 1_455
Co12 O27 1.928861 1_545
Co12 O24 1.930738 1_555
