# generated using pymatgen
data_Li2V3TeO8
_symmetry_space_group_name_H-M   'P 1'
_cell_length_a   8.61660400
_cell_length_b   8.67819320
_cell_length_c   8.84848197
_cell_angle_alpha   89.90587166
_cell_angle_beta   89.71003238
_cell_angle_gamma   89.77119110
_symmetry_Int_Tables_number   1
_chemical_formula_structural   Li2V3TeO8
_chemical_formula_sum   'Li8 V12 Te4 O32'
_cell_volume   661.64437114
_cell_formula_units_Z   4
loop_
 _symmetry_equiv_pos_site_id
 _symmetry_equiv_pos_as_xyz
  1  'x, y, z'
loop_
 _atom_site_type_symbol
 _atom_site_label
 _atom_site_symmetry_multiplicity
 _atom_site_fract_x
 _atom_site_fract_y
 _atom_site_fract_z
 _atom_site_occupancy
  Li  Li0  1  0.11881400  0.11761100  0.37739300  1
  Li  Li1  1  0.25430600  0.25227500  0.75360500  1
  Li  Li2  1  0.75089200  0.25323100  0.25407500  1
  Li  Li3  1  0.88106400  0.38135300  0.87876100  1
  Li  Li4  1  0.38160500  0.61844000  0.62237000  1
  Li  Li5  1  0.24857200  0.75167400  0.24587600  1
  Li  Li6  1  0.75290400  0.75091500  0.74880900  1
  Li  Li7  1  0.61532200  0.87536500  0.12098100  1
  V  V0  1  0.37016000  0.11378800  0.12062700  1
  V  V1  1  0.61905000  0.12263100  0.89197000  1
  V  V2  1  0.88969300  0.11711300  0.62402400  1
  V  V3  1  0.11096600  0.38355100  0.12200000  1
  V  V4  1  0.37827900  0.37226800  0.38988200  1
  V  V5  1  0.62858000  0.38588600  0.62475500  1
  V  V6  1  0.12535900  0.61271400  0.87515700  1
  V  V7  1  0.87867400  0.62902000  0.10982400  1
  V  V8  1  0.61109100  0.61529600  0.37782900  1
  V  V9  1  0.38757900  0.87864100  0.87355700  1
  V  V10  1  0.11803800  0.86750600  0.61135600  1
  V  V11  1  0.87285800  0.88621100  0.37671800  1
  Te  Te0  1  0.50177700  0.00243500  0.49875800  1
  Te  Te1  1  0.49778000  0.49804000  0.99791300  1
  Te  Te2  1  0.99589300  0.50099600  0.50173000  1
  Te  Te3  1  0.00306800  0.99671000  0.00187800  1
  O  O0  1  0.85585500  0.10983300  0.41366900  1
  O  O1  1  0.09888200  0.10167600  0.64164700  1
  O  O2  1  0.39381800  0.12036500  0.88107200  1
  O  O3  1  0.59756900  0.14462100  0.10016100  1
  O  O4  1  0.86387800  0.13603000  0.90013800  1
  O  O5  1  0.67735800  0.16457900  0.68178200  1
  O  O6  1  0.36251400  0.11137000  0.36448000  1
  O  O7  1  0.10651300  0.13710800  0.13919800  1
  O  O8  1  0.89393800  0.36066400  0.64074400  1
  O  O9  1  0.63987300  0.39099600  0.86547900  1
  O  O10  1  0.31947100  0.33438000  0.17451000  1
  O  O11  1  0.13242100  0.36192700  0.39841500  1
  O  O12  1  0.40743100  0.36015100  0.60752100  1
  O  O13  1  0.62135300  0.39144300  0.38440700  1
  O  O14  1  0.89922400  0.39888500  0.14189700  1
  O  O15  1  0.14082400  0.38869100  0.91124200  1
  O  O16  1  0.64029700  0.60913500  0.58896200  1
  O  O17  1  0.39858500  0.59969700  0.35987700  1
  O  O18  1  0.11842000  0.60885100  0.11584800  1
  O  O19  1  0.90345900  0.63578500  0.89059800  1
  O  O20  1  0.63311100  0.63844800  0.10064800  1
  O  O21  1  0.81884600  0.66582900  0.32598200  1
  O  O22  1  0.13792500  0.60825600  0.63270300  1
  O  O23  1  0.39479100  0.63359800  0.85726000  1
  O  O24  1  0.60347000  0.86306000  0.35996000  1
  O  O25  1  0.86104900  0.88921800  0.13533600  1
  O  O26  1  0.17006900  0.83159800  0.82490800  1
  O  O27  1  0.36589700  0.86240500  0.60341400  1
  O  O28  1  0.09394400  0.86288700  0.38932200  1
  O  O29  1  0.88106500  0.89102600  0.61671000  1
  O  O30  1  0.61398600  0.91047300  0.86158100  1
  O  O31  1  0.36176100  0.89334300  0.09076500  1
loop_
_geom_bond_atom_site_label_1
_geom_bond_atom_site_label_2
_geom_bond_distance
_geom_bond_site_symmetry_2
Li0 O6 2.102882 1_555
Li0 O7 2.117323 1_555
Li0 O11 2.132414 1_555
Li0 O28 2.224041 1_545
Li0 O0 2.288075 1_455
Li0 O1 2.347569 1_555
Li1 O2 2.006526 1_555
Li1 O12 2.068036 1_555
Li1 O15 2.070172 1_555
Li1 O1 2.124771 1_555
Li2 O13 1.998823 1_555
Li2 O14 2.052443 1_555
Li2 O0 2.087816 1_555
Li2 O3 2.126242 1_555
Li3 O9 2.083501 1_555
Li3 O8 2.116334 1_555
Li3 O4 2.142683 1_555
Li3 O19 2.219884 1_555
Li3 O15 2.259231 1_655
Li3 O14 2.339639 1_556
Li4 O23 2.086492 1_555
Li4 O22 2.103425 1_555
Li4 O27 2.127360 1_555
Li4 O16 2.248227 1_555
Li4 O12 2.255596 1_555
Li4 O17 2.332433 1_555
Li5 O18 2.036303 1_555
Li5 O28 2.072290 1_555
Li5 O31 2.082535 1_555
Li5 O17 2.103102 1_555
Li6 O29 2.014250 1_555
Li6 O19 2.063305 1_555
Li6 O30 2.079682 1_555
Li6 O16 2.117785 1_555
Li7 O20 2.069171 1_555
Li7 O24 2.119087 1_555
Li7 O25 2.125674 1_555
Li7 O31 2.207347 1_555
Li7 O30 2.315013 1_554
Li7 O3 2.348045 1_565
O0 V2 1.886677 1_555
O0 V11 1.973261 1_545
O1 V2 1.814418 1_455
O1 V10 2.056082 1_545
O2 V1 1.943796 1_555
O2 V9 2.099802 1_545
O2 V0 2.129144 1_556
O3 V1 1.860566 1_554
O3 V0 1.986062 1_555
O4 Te3 1.925209 1_646
O4 V1 2.114859 1_555
O4 V2 2.457871 1_555
O5 V2 1.939984 1_555
O5 V1 1.957995 1_555
O5 V5 2.027877 1_555
O5 Te0 2.634559 1_555
O6 Te0 1.935727 1_555
O6 V0 2.158471 1_555
O6 V4 2.280278 1_555
O7 Te3 1.944197 1_545
O7 V3 2.144320 1_555
O7 V0 2.285044 1_555
O8 Te2 1.939231 1_555
O8 V2 2.119471 1_555
O8 V5 2.301111 1_555
O9 Te1 1.927480 1_555
O9 V5 2.133297 1_555
O9 V1 2.347795 1_555
O10 V3 1.904583 1_555
O10 V4 2.002447 1_555
O10 V0 2.019158 1_555
O10 Te1 2.608708 1_554
O11 Te2 1.912483 1_455
O11 V4 2.121676 1_555
O11 V3 2.460565 1_555
O12 V5 1.926322 1_555
O12 V4 1.945966 1_555
O13 V8 1.945087 1_555
O13 V4 2.102042 1_555
O13 V5 2.128403 1_555
O14 V3 1.836404 1_655
O14 V7 2.023944 1_555
O15 V3 1.881741 1_556
O15 V6 1.973731 1_555
O16 V8 1.886984 1_555
O16 V5 1.965511 1_555
O17 V8 1.844290 1_555
O17 V4 1.999263 1_555
O18 V3 1.957167 1_555
O18 V7 2.073448 1_455
O18 V6 2.130499 1_554
O19 V6 1.925871 1_655
O19 V7 1.951276 1_556
O20 Te1 1.922648 1_554
O20 V7 2.119135 1_555
O20 V8 2.466930 1_555
O21 V8 1.898601 1_555
O21 V7 2.004199 1_555
O21 V11 2.021858 1_555
O21 Te2 2.605974 1_555
O22 Te2 1.932428 1_455
O22 V6 2.147937 1_555
O22 V10 2.263314 1_555
O23 Te1 1.928314 1_555
O23 V9 2.132287 1_555
O23 V6 2.333933 1_555
O24 Te0 1.929932 1_565
O24 V8 2.156453 1_555
O24 V11 2.336166 1_555
O25 Te3 1.937286 1_655
O25 V11 2.138912 1_555
O25 V7 2.274070 1_555
O26 V10 1.968314 1_555
O26 V9 1.969630 1_555
O26 V6 1.988872 1_555
O26 Te3 2.558121 1_556
O27 Te0 1.924010 1_565
O27 V10 2.136787 1_555
O27 V9 2.402997 1_555
O28 V11 1.918716 1_455
O28 V10 1.977136 1_555
O29 V2 1.964916 1_565
O29 V10 2.051584 1_655
O29 V11 2.125585 1_555
O30 V1 1.861833 1_565
O30 V9 1.973704 1_555
O31 V0 1.933347 1_565
O31 V9 1.938028 1_554
