# generated using pymatgen
data_TmSeO3
_symmetry_space_group_name_H-M   'P 1'
_cell_length_a   12.41658600
_cell_length_b   5.91727200
_cell_length_c   8.73391715
_cell_angle_alpha   73.98525050
_cell_angle_beta   90.00000000
_cell_angle_gamma   90.00000000
_symmetry_Int_Tables_number   1
_chemical_formula_structural   TmSeO3
_chemical_formula_sum   'Tm8 Se8 O24'
_cell_volume   616.79715958
_cell_formula_units_Z   8
loop_
 _symmetry_equiv_pos_site_id
 _symmetry_equiv_pos_as_xyz
  1  'x, y, z'
loop_
 _atom_site_type_symbol
 _atom_site_label
 _atom_site_symmetry_multiplicity
 _atom_site_fract_x
 _atom_site_fract_y
 _atom_site_fract_z
 _atom_site_occupancy
  Tm  Tm0  1  0.55950000  0.75892400  0.91449300  1
  Tm  Tm1  1  0.94050000  0.75892400  0.41449300  1
  Tm  Tm2  1  0.24372400  0.63630100  0.85635000  1
  Tm  Tm3  1  0.25627600  0.63630100  0.35635000  1
  Tm  Tm4  1  0.74372400  0.36369900  0.64365000  1
  Tm  Tm5  1  0.75627600  0.36369900  0.14365000  1
  Tm  Tm6  1  0.05950000  0.24107600  0.58550700  1
  Tm  Tm7  1  0.44050000  0.24107600  0.08550700  1
  Se  Se0  1  0.83975000  0.95398400  0.00430000  1
  Se  Se1  1  0.66025000  0.95398400  0.50430000  1
  Se  Se2  1  0.98541200  0.62904800  0.82527800  1
  Se  Se3  1  0.51458800  0.62904800  0.32527800  1
  Se  Se4  1  0.48541200  0.37095200  0.67472200  1
  Se  Se5  1  0.01458800  0.37095200  0.17472200  1
  Se  Se6  1  0.33975000  0.04601600  0.49570000  1
  Se  Se7  1  0.16025000  0.04601600  0.99570000  1
  O  O0  1  0.17279900  0.01252600  0.80584700  1
  O  O1  1  0.32720100  0.01252600  0.30584700  1
  O  O2  1  0.98211300  0.86969000  0.64576500  1
  O  O3  1  0.27203600  0.78189100  0.58736200  1
  O  O4  1  0.75865300  0.74778000  0.50143600  1
  O  O5  1  0.51788700  0.86969000  0.14576500  1
  O  O6  1  0.40601100  0.59411400  0.91907800  1
  O  O7  1  0.22796400  0.78189100  0.08736200  1
  O  O8  1  0.74134700  0.74778000  0.00143600  1
  O  O9  1  0.59445100  0.55064000  0.71731000  1
  O  O10  1  0.09398900  0.59411400  0.41907800  1
  O  O11  1  0.09445100  0.44936000  0.78269000  1
  O  O12  1  0.90554900  0.55064000  0.21731000  1
  O  O13  1  0.90601100  0.40588600  0.58092200  1
  O  O14  1  0.40554900  0.44936000  0.28269000  1
  O  O15  1  0.25865300  0.25222000  0.99856400  1
  O  O16  1  0.77203600  0.21810900  0.91263800  1
  O  O17  1  0.59398900  0.40588600  0.08092200  1
  O  O18  1  0.48211300  0.13031000  0.85423500  1
  O  O19  1  0.24134700  0.25222000  0.49856400  1
  O  O20  1  0.72796400  0.21810900  0.41263800  1
  O  O21  1  0.01788700  0.13031000  0.35423500  1
  O  O22  1  0.67279900  0.98747400  0.69415300  1
  O  O23  1  0.82720100  0.98747400  0.19415300  1
loop_
_geom_bond_atom_site_label_1
_geom_bond_atom_site_label_2
_geom_bond_distance
_geom_bond_site_symmetry_2
O0 Se7 1.730421 1_555
O0 Tm2 2.320422 1_545
O0 Tm6 2.464837 1_555
O1 Se6 1.730421 1_555
O1 Tm3 2.320422 1_545
O1 Tm7 2.464837 1_555
O2 Se2 1.804331 1_555
O2 Tm6 2.321966 1_665
O2 Tm1 2.346720 1_555
O3 Se6 1.760708 1_565
O3 Tm2 2.295280 1_555
O3 Tm3 2.410481 1_555
O4 Se1 1.731801 1_555
O4 Tm4 2.277008 1_555
O4 Tm1 2.377296 1_555
O5 Se3 1.804331 1_555
O5 Tm7 2.321966 1_565
O5 Tm0 2.346720 1_554
O6 Tm2 2.085050 1_555
O6 Tm0 2.136172 1_555
O6 Tm7 2.232668 1_556
O7 Se7 1.760708 1_564
O7 Tm3 2.295280 1_555
O7 Tm2 2.410481 1_554
O8 Se0 1.731801 1_555
O8 Tm5 2.277008 1_555
O8 Tm0 2.377296 1_554
O9 Se4 1.822121 1_555
O9 Tm4 2.337843 1_555
O9 Tm0 2.417515 1_555
O10 Tm3 2.085050 1_555
O10 Tm1 2.136172 1_455
O10 Tm6 2.232668 1_555
O11 Se2 1.822121 1_455
O11 Tm2 2.337843 1_555
O11 Tm6 2.417515 1_555
O12 Se5 1.822121 1_655
O12 Tm5 2.337843 1_555
O12 Tm1 2.417515 1_555
O13 Tm4 2.085050 1_555
O13 Tm6 2.136172 1_655
O13 Tm1 2.232668 1_555
O14 Se3 1.822121 1_555
O14 Tm3 2.337843 1_555
O14 Tm7 2.417515 1_555
O15 Se7 1.731801 1_555
O15 Tm2 2.277008 1_555
O15 Tm7 2.377296 1_556
O16 Se0 1.760708 1_546
O16 Tm4 2.295280 1_555
O16 Tm5 2.410481 1_556
O17 Tm5 2.085050 1_555
O17 Tm7 2.136172 1_555
O17 Tm0 2.232668 1_554
O18 Se4 1.804331 1_555
O18 Tm0 2.321966 1_545
O18 Tm7 2.346720 1_556
O19 Se6 1.731801 1_555
O19 Tm3 2.277008 1_555
O19 Tm6 2.377296 1_555
O20 Se1 1.760708 1_545
O20 Tm5 2.295280 1_555
O20 Tm4 2.410481 1_555
O21 Se5 1.804331 1_555
O21 Tm1 2.321966 1_445
O21 Tm6 2.346720 1_555
O22 Se1 1.730421 1_555
O22 Tm4 2.320422 1_565
O22 Tm0 2.464837 1_555
O23 Se0 1.730421 1_555
O23 Tm5 2.320422 1_565
O23 Tm1 2.464837 1_555
