# generated using pymatgen
data_Li3Mn4CrO8
_symmetry_space_group_name_H-M   'P 1'
_cell_length_a   6.15049846
_cell_length_b   6.15049846
_cell_length_c   5.99862260
_cell_angle_alpha   60.98772176
_cell_angle_beta   60.98772176
_cell_angle_gamma   58.28360215
_symmetry_Int_Tables_number   1
_chemical_formula_structural   Li3Mn4CrO8
_chemical_formula_sum   'Li3 Mn4 Cr1 O8'
_cell_volume   160.53649633
_cell_formula_units_Z   1
loop_
 _symmetry_equiv_pos_site_id
 _symmetry_equiv_pos_as_xyz
  1  'x, y, z'
loop_
 _atom_site_type_symbol
 _atom_site_label
 _atom_site_symmetry_multiplicity
 _atom_site_fract_x
 _atom_site_fract_y
 _atom_site_fract_z
 _atom_site_occupancy
  Li  Li0  1  0.00000000  0.50000000  0.00000000  1
  Li  Li1  1  0.00000000  0.00000000  0.50000000  1
  Li  Li2  1  0.50000000  0.00000000  0.00000000  1
  Mn  Mn0  1  0.50000000  0.50000000  0.50000000  1
  Mn  Mn1  1  0.00000000  0.00000000  0.00000000  1
  Mn  Mn2  1  0.00000000  0.50000000  0.50000000  1
  Mn  Mn3  1  0.50000000  0.00000000  0.50000000  1
  Cr  Cr0  1  0.50000000  0.50000000  0.00000000  1
  O  O0  1  0.26960900  0.26960900  0.25032300  1
  O  O1  1  0.25285900  0.73608900  0.76333800  1
  O  O2  1  0.73608900  0.25285900  0.76333800  1
  O  O3  1  0.75115400  0.75115400  0.26783000  1
  O  O4  1  0.24884600  0.24884600  0.73217000  1
  O  O5  1  0.26391100  0.74714100  0.23666200  1
  O  O6  1  0.74714100  0.26391100  0.23666200  1
  O  O7  1  0.73039100  0.73039100  0.74967700  1
loop_
_geom_bond_atom_site_label_1
_geom_bond_atom_site_label_2
_geom_bond_distance
_geom_bond_site_symmetry_2
Li0 O6 2.185362 1_455
Li0 O1 2.185362 1_554
Li0 O4 2.201401 1_554
Li0 O3 2.201401 1_455
Li0 O7 2.212056 1_454
Li0 O0 2.212056 1_555
Li1 O6 2.188691 1_455
Li1 O5 2.188691 1_545
Li1 O2 2.188691 1_455
Li1 O1 2.188691 1_545
Li1 O0 2.411572 1_555
Li1 O7 2.411572 1_445
Li2 O5 2.185362 1_545
Li2 O2 2.185362 1_554
Li2 O3 2.201401 1_545
Li2 O4 2.201401 1_554
Li2 O7 2.212056 1_544
Li2 O0 2.212056 1_555
Mn0 O5 2.118841 1_555
Mn0 O2 2.118841 1_555
Mn0 O6 2.118841 1_555
Mn0 O1 2.118841 1_555
Mn0 O3 2.246613 1_555
Mn0 O4 2.246613 1_555
Mn1 O5 2.123248 1_545
Mn1 O2 2.123248 1_454
Mn1 O6 2.123248 1_455
Mn1 O1 2.123248 1_544
Mn1 O3 2.226849 1_445
Mn1 O4 2.226849 1_554
Mn2 O3 2.040413 1_455
Mn2 O4 2.040413 1_555
Mn2 O0 2.044459 1_555
Mn2 O7 2.044459 1_455
Mn2 O2 2.284411 1_455
Mn2 O5 2.284411 1_555
Mn3 O4 2.040413 1_555
Mn3 O3 2.040413 1_545
Mn3 O0 2.044459 1_555
Mn3 O7 2.044459 1_545
Mn3 O6 2.284411 1_555
Mn3 O1 2.284411 1_545
Cr0 O6 2.051171 1_555
Cr0 O1 2.051171 1_554
Cr0 O2 2.051171 1_554
Cr0 O5 2.051171 1_555
Cr0 O0 2.062523 1_555
Cr0 O7 2.062523 1_554
