# generated using pymatgen
data_Ba2LaCl7
_symmetry_space_group_name_H-M   'P 1'
_cell_length_a   14.05945000
_cell_length_b   7.57331300
_cell_length_c   12.23817615
_cell_angle_alpha   87.12804311
_cell_angle_beta   90.00000000
_cell_angle_gamma   90.00000000
_symmetry_Int_Tables_number   1
_chemical_formula_structural   Ba2LaCl7
_chemical_formula_sum   'Ba8 La4 Cl28'
_cell_volume   1301.44290780
_cell_formula_units_Z   4
loop_
 _symmetry_equiv_pos_site_id
 _symmetry_equiv_pos_as_xyz
  1  'x, y, z'
loop_
 _atom_site_type_symbol
 _atom_site_label
 _atom_site_symmetry_multiplicity
 _atom_site_fract_x
 _atom_site_fract_y
 _atom_site_fract_z
 _atom_site_occupancy
  Ba  Ba0  1  0.55569800  0.31832100  0.20118300  1
  Ba  Ba1  1  0.86676800  0.20843500  0.21597400  1
  Ba  Ba2  1  0.36676800  0.79156500  0.28402600  1
  Ba  Ba3  1  0.05569800  0.68167900  0.29881700  1
  Ba  Ba4  1  0.94430200  0.31832100  0.70118300  1
  Ba  Ba5  1  0.63323200  0.20843500  0.71597400  1
  Ba  Ba6  1  0.13323200  0.79156500  0.78402600  1
  Ba  Ba7  1  0.44430200  0.68167900  0.79881700  1
  La  La0  1  0.23360300  0.20320000  0.02613000  1
  La  La1  1  0.73360300  0.79680000  0.47387000  1
  La  La2  1  0.26639700  0.20320000  0.52613000  1
  La  La3  1  0.76639700  0.79680000  0.97387000  1
  Cl  Cl0  1  0.18651900  0.85211500  0.09922800  1
  Cl  Cl1  1  0.41198100  0.06321000  0.10049000  1
  Cl  Cl2  1  0.38188500  0.51474100  0.09588300  1
  Cl  Cl3  1  0.92555700  0.85658900  0.11063000  1
  Cl  Cl4  1  0.07315500  0.35246100  0.14308600  1
  Cl  Cl5  1  0.68929900  0.99810300  0.14432700  1
  Cl  Cl6  1  0.74410800  0.53114400  0.14441900  1
  Cl  Cl7  1  0.24410800  0.46885600  0.35558100  1
  Cl  Cl8  1  0.18929900  0.00189700  0.35567300  1
  Cl  Cl9  1  0.57315500  0.64753900  0.35691400  1
  Cl  Cl10  1  0.42555700  0.14341100  0.38937000  1
  Cl  Cl11  1  0.88188500  0.48525900  0.40411700  1
  Cl  Cl12  1  0.91198100  0.93679000  0.39951000  1
  Cl  Cl13  1  0.68651900  0.14788500  0.40077200  1
  Cl  Cl14  1  0.31348100  0.85211500  0.59922800  1
  Cl  Cl15  1  0.08801900  0.06321000  0.60049000  1
  Cl  Cl16  1  0.11811500  0.51474100  0.59588300  1
  Cl  Cl17  1  0.57444300  0.85658900  0.61063000  1
  Cl  Cl18  1  0.42684500  0.35246100  0.64308600  1
  Cl  Cl19  1  0.81070100  0.99810300  0.64432700  1
  Cl  Cl20  1  0.75589200  0.53114400  0.64441900  1
  Cl  Cl21  1  0.25589200  0.46885600  0.85558100  1
  Cl  Cl22  1  0.31070100  0.00189700  0.85567300  1
  Cl  Cl23  1  0.92684500  0.64753900  0.85691400  1
  Cl  Cl24  1  0.07444300  0.14341100  0.88937000  1
  Cl  Cl25  1  0.61811500  0.48525900  0.90411700  1
  Cl  Cl26  1  0.58801900  0.93679000  0.89951000  1
  Cl  Cl27  1  0.81348100  0.14788500  0.90077200  1
loop_
_geom_bond_atom_site_label_1
_geom_bond_atom_site_label_2
_geom_bond_distance
_geom_bond_site_symmetry_2
Ba0 Cl1 3.093970 1_555
Ba0 Cl2 3.106952 1_555
Ba0 Cl6 3.159920 1_555
Ba0 Cl5 3.172166 1_545
Ba0 Cl10 3.178197 1_555
Ba0 Cl9 3.222596 1_555
Ba0 Cl13 3.270990 1_555
Ba1 Cl12 3.036196 1_545
Ba1 Cl6 3.082113 1_555
Ba1 Cl5 3.109945 1_545
Ba1 Cl3 3.128866 1_545
Ba1 Cl11 3.197770 1_555
Ba1 Cl4 3.210565 1_655
Ba1 Cl13 3.412232 1_555
Ba2 Cl1 3.036196 1_565
Ba2 Cl7 3.082113 1_555
Ba2 Cl8 3.109945 1_565
Ba2 Cl10 3.128866 1_565
Ba2 Cl2 3.197770 1_555
Ba2 Cl9 3.210565 1_555
Ba2 Cl0 3.412232 1_555
Ba3 Cl12 3.093970 1_455
Ba3 Cl11 3.106952 1_455
Ba3 Cl7 3.159920 1_555
Ba3 Cl8 3.172166 1_565
Ba3 Cl3 3.178197 1_455
Ba3 Cl4 3.222596 1_555
Ba3 Cl0 3.270990 1_555
Ba4 Cl15 3.093970 1_655
Ba4 Cl16 3.106952 1_655
Ba4 Cl20 3.159920 1_555
Ba4 Cl19 3.172166 1_545
Ba4 Cl24 3.178197 1_655
Ba4 Cl23 3.222596 1_555
Ba4 Cl27 3.270990 1_555
Ba5 Cl26 3.036196 1_545
Ba5 Cl20 3.082113 1_555
Ba5 Cl19 3.109945 1_545
Ba5 Cl17 3.128866 1_545
Ba5 Cl25 3.197770 1_555
Ba5 Cl18 3.210565 1_555
Ba5 Cl27 3.412232 1_555
Ba6 Cl15 3.036196 1_565
Ba6 Cl21 3.082113 1_555
Ba6 Cl22 3.109945 1_565
Ba6 Cl24 3.128866 1_565
Ba6 Cl16 3.197770 1_555
Ba6 Cl23 3.210565 1_455
Ba6 Cl14 3.412232 1_555
Ba7 Cl26 3.093970 1_555
Ba7 Cl25 3.106952 1_555
Ba7 Cl21 3.159920 1_555
Ba7 Cl22 3.172166 1_565
Ba7 Cl17 3.178197 1_555
Ba7 Cl18 3.222596 1_555
Ba7 Cl14 3.270990 1_555
Cl0 La0 2.840733 1_565
Cl1 La0 2.853948 1_555
Cl2 La0 3.292953 1_555
Cl3 La3 2.844210 1_554
Cl4 La0 2.928706 1_555
Cl5 La3 2.858249 1_554
Cl6 La3 2.842810 1_554
Cl7 La2 2.842810 1_555
Cl8 La2 2.858249 1_555
Cl9 La1 2.928706 1_555
Cl10 La2 2.844210 1_555
Cl11 La1 3.292953 1_555
Cl12 La1 2.853948 1_555
Cl13 La1 2.840733 1_545
Cl14 La2 2.840733 1_565
Cl15 La2 2.853948 1_555
Cl16 La2 3.292953 1_555
Cl17 La1 2.844210 1_555
Cl18 La2 2.928706 1_555
Cl19 La1 2.858249 1_555
Cl20 La1 2.842810 1_555
Cl21 La0 2.842810 1_556
Cl22 La0 2.858249 1_556
Cl23 La3 2.928706 1_555
Cl24 La0 2.844210 1_556
Cl25 La3 3.292953 1_555
Cl26 La3 2.853948 1_555
Cl27 La3 2.840733 1_545
