# generated using pymatgen
data_Li2Mn2CuO6
_symmetry_space_group_name_H-M   'P 1'
_cell_length_a   5.10963183
_cell_length_b   5.10963183
_cell_length_c   10.31635300
_cell_angle_alpha   90.00000000
_cell_angle_beta   90.00000000
_cell_angle_gamma   121.18196562
_symmetry_Int_Tables_number   1
_chemical_formula_structural   Li2Mn2CuO6
_chemical_formula_sum   'Li4 Mn4 Cu2 O12'
_cell_volume   230.43013202
_cell_formula_units_Z   2
loop_
 _symmetry_equiv_pos_site_id
 _symmetry_equiv_pos_as_xyz
  1  'x, y, z'
loop_
 _atom_site_type_symbol
 _atom_site_label
 _atom_site_symmetry_multiplicity
 _atom_site_fract_x
 _atom_site_fract_y
 _atom_site_fract_z
 _atom_site_occupancy
  Li  Li0  1  0.17340700  0.67340700  0.25000000  1
  Li  Li1  1  0.32659300  0.82659300  0.75000000  1
  Li  Li2  1  0.67340700  0.17340700  0.25000000  1
  Li  Li3  1  0.82659300  0.32659300  0.75000000  1
  Mn  Mn0  1  0.33538200  0.66461700  0.00000000  1
  Mn  Mn1  1  0.16461700  0.83538200  0.50000000  1
  Mn  Mn2  1  0.83538200  0.16461700  0.50000000  1
  Mn  Mn3  1  0.66461700  0.33538300  0.00000000  1
  Cu  Cu0  1  0.50000000  0.50000000  0.50000000  1
  Cu  Cu1  1  0.00000000  0.00000000  0.00000000  1
  O  O0  1  0.13000200  0.50145800  0.60708500  1
  O  O1  1  0.86999800  0.49854200  0.39291500  1
  O  O2  1  0.00145800  0.63000200  0.89291500  1
  O  O3  1  0.36999800  0.99854200  0.10708500  1
  O  O4  1  0.66258700  0.66258700  0.09441200  1
  O  O5  1  0.83741300  0.83741300  0.59441200  1
  O  O6  1  0.16258700  0.16258700  0.40558800  1
  O  O7  1  0.49854200  0.86999800  0.39291500  1
  O  O8  1  0.33741300  0.33741300  0.90558800  1
  O  O9  1  0.63000200  0.00145800  0.89291500  1
  O  O10  1  0.99854200  0.36999800  0.10708500  1
  O  O11  1  0.50145800  0.13000200  0.60708500  1
loop_
_geom_bond_atom_site_label_1
_geom_bond_atom_site_label_2
_geom_bond_distance
_geom_bond_site_symmetry_2
Li0 O1 1.985231 1_455
Li0 O10 1.985231 1_455
Li0 O7 2.052970 1_555
Li0 O3 2.052970 1_555
Li1 O9 1.985231 1_565
Li1 O11 1.985231 1_565
Li1 O0 2.052970 1_555
Li1 O2 2.052970 1_555
Li2 O7 1.985231 1_545
Li2 O3 1.985231 1_545
Li2 O1 2.052970 1_555
Li2 O10 2.052970 1_555
Li3 O2 1.985231 1_655
Li3 O0 1.985231 1_655
Li3 O11 2.052970 1_555
Li3 O9 2.052970 1_555
Mn0 O8 1.939574 1_554
Mn0 O4 1.939576 1_555
Mn0 O10 1.940598 1_455
Mn0 O9 1.940602 1_564
Mn0 O2 1.962249 1_554
Mn0 O3 1.962252 1_555
Mn1 O5 1.939574 1_455
Mn1 O6 1.939576 1_565
Mn1 O1 1.940598 1_455
Mn1 O11 1.940602 1_565
Mn1 O0 1.962249 1_555
Mn1 O7 1.962252 1_555
Mn2 O5 1.939574 1_545
Mn2 O6 1.939576 1_655
Mn2 O7 1.940598 1_545
Mn2 O0 1.940602 1_655
Mn2 O11 1.962249 1_555
Mn2 O1 1.962252 1_555
Mn3 O4 1.939572 1_555
Mn3 O8 1.939572 1_554
Mn3 O2 1.940600 1_654
Mn3 O3 1.940600 1_545
Mn3 O10 1.962253 1_555
Mn3 O9 1.962253 1_554
Cu0 O5 1.953319 1_555
Cu0 O6 1.953319 1_555
Cu0 O0 2.193001 1_555
Cu0 O11 2.193001 1_555
Cu0 O7 2.193001 1_555
Cu0 O1 2.193001 1_555
Cu1 O8 1.953319 1_554
Cu1 O4 1.953319 1_445
Cu1 O9 2.193001 1_454
Cu1 O2 2.193001 1_544
Cu1 O3 2.193001 1_545
Cu1 O10 2.193001 1_455
