# generated using pymatgen
data_Li2FeOF3
_symmetry_space_group_name_H-M   'P 1'
_cell_length_a   5.19829404
_cell_length_b   5.19829404
_cell_length_c   10.45326405
_cell_angle_alpha   78.17528451
_cell_angle_beta   78.17528451
_cell_angle_gamma   33.31597131
_symmetry_Int_Tables_number   1
_chemical_formula_structural   Li2FeOF3
_chemical_formula_sum   'Li4 Fe2 O2 F6'
_cell_volume   151.55808099
_cell_formula_units_Z   2
loop_
 _symmetry_equiv_pos_site_id
 _symmetry_equiv_pos_as_xyz
  1  'x, y, z'
loop_
 _atom_site_type_symbol
 _atom_site_label
 _atom_site_symmetry_multiplicity
 _atom_site_fract_x
 _atom_site_fract_y
 _atom_site_fract_z
 _atom_site_occupancy
  Li  Li0  1  0.27489200  0.27489200  0.38763400  1
  Li  Li1  1  0.50000000  0.50000000  0.00000000  1
  Li  Li2  1  0.50000000  0.50000000  0.50000000  1
  Li  Li3  1  0.72510800  0.72510800  0.61236600  1
  Fe  Fe0  1  0.27269300  0.27269300  0.87172600  1
  Fe  Fe1  1  0.72730700  0.72730700  0.12827400  1
  O  O0  1  0.13803800  0.13803800  0.05576200  1
  O  O1  1  0.86196200  0.86196200  0.94423800  1
  F  F0  1  0.12980300  0.12980300  0.54949700  1
  F  F1  1  0.35992300  0.35992300  0.17084600  1
  F  F2  1  0.34946600  0.34946600  0.68786200  1
  F  F3  1  0.65053400  0.65053400  0.31213800  1
  F  F4  1  0.64007700  0.64007700  0.82915400  1
  F  F5  1  0.87019700  0.87019700  0.45050300  1
loop_
_geom_bond_atom_site_label_1
_geom_bond_atom_site_label_2
_geom_bond_distance
_geom_bond_site_symmetry_2
Li1 O0 2.189393 1_655
Li1 O0 2.189393 1_565
Li1 O1 2.189393 1_454
Li1 O1 2.189393 1_544
Fe0 O1 1.968230 1_545
Fe0 O1 1.968230 1_455
Fe0 O0 2.096656 1_556
Fe1 O0 1.968230 1_655
Fe1 O0 1.968230 1_565
Fe1 O1 2.096656 1_554
F0 Li3 1.954576 1_455
F0 Li3 1.954576 1_545
F0 Li0 1.976166 1_555
F0 Li2 2.108528 1_545
F0 Li2 2.108528 1_455
F1 Li1 2.017451 1_555
F1 Fe1 2.101131 1_455
F1 Fe1 2.101131 1_545
F1 Li0 2.243134 1_555
F2 Fe0 1.910502 1_555
F2 Li3 2.189908 1_455
F2 Li3 2.189908 1_545
F2 Li2 2.201112 1_555
F3 Fe1 1.910502 1_555
F3 Li0 2.189908 1_655
F3 Li0 2.189908 1_565
F3 Li2 2.201112 1_555
F4 Li1 2.017451 1_556
F4 Fe0 2.101131 1_655
F4 Fe0 2.101131 1_565
F4 Li3 2.243134 1_555
F5 Li0 1.954576 1_565
F5 Li0 1.954576 1_655
F5 Li3 1.976166 1_555
F5 Li2 2.108528 1_565
F5 Li2 2.108528 1_655
