# generated using pymatgen
data_LiCu2F4
_symmetry_space_group_name_H-M   'P 1'
_cell_length_a   9.86276100
_cell_length_b   3.01857500
_cell_length_c   5.28836996
_cell_angle_alpha   84.35998593
_cell_angle_beta   90.00000000
_cell_angle_gamma   90.00000000
_symmetry_Int_Tables_number   1
_chemical_formula_structural   LiCu2F4
_chemical_formula_sum   'Li2 Cu4 F8'
_cell_volume   156.68044195
_cell_formula_units_Z   2
loop_
 _symmetry_equiv_pos_site_id
 _symmetry_equiv_pos_as_xyz
  1  'x, y, z'
loop_
 _atom_site_type_symbol
 _atom_site_label
 _atom_site_symmetry_multiplicity
 _atom_site_fract_x
 _atom_site_fract_y
 _atom_site_fract_z
 _atom_site_occupancy
  Li  Li0  1  0.25000000  0.96294500  0.22181700  1
  Li  Li1  1  0.75000000  0.03705500  0.77818300  1
  Cu  Cu0  1  0.07460600  0.64134100  0.73493600  1
  Cu  Cu1  1  0.42539400  0.64134100  0.73493600  1
  Cu  Cu2  1  0.57460600  0.35865900  0.26506400  1
  Cu  Cu3  1  0.92539400  0.35865900  0.26506400  1
  F  F0  1  0.61696100  0.67555600  0.58146400  1
  F  F1  1  0.88303900  0.67555600  0.58146400  1
  F  F2  1  0.25000000  0.57379400  0.92929500  1
  F  F3  1  0.75000000  0.42620600  0.07070500  1
  F  F4  1  0.11696100  0.32444400  0.41853600  1
  F  F5  1  0.38303900  0.32444400  0.41853600  1
  F  F6  1  0.50000000  0.00000000  0.00000000  1
  F  F7  1  0.00000000  0.00000000  0.00000000  1
loop_
_geom_bond_atom_site_label_1
_geom_bond_atom_site_label_2
_geom_bond_distance
_geom_bond_site_symmetry_2
Cu0 F7 1.994180 1_566
Cu0 F2 2.012284 1_555
Cu0 F4 2.050337 1_555
Cu0 F1 2.054913 1_455
Cu0 F7 2.391821 1_556
Cu0 F4 2.558889 1_565
Cu1 F6 1.994180 1_566
Cu1 F2 2.012284 1_555
Cu1 F5 2.050337 1_555
Cu1 F0 2.054913 1_555
Cu1 F6 2.391821 1_556
Cu1 F5 2.558889 1_565
Cu2 F6 1.994180 1_555
Cu2 F3 2.012284 1_555
Cu2 F0 2.050337 1_555
Cu2 F5 2.054913 1_555
Cu2 F6 2.391821 1_565
Cu2 F0 2.558889 1_545
Cu3 F7 1.994180 1_655
Cu3 F3 2.012284 1_555
Cu3 F1 2.050337 1_555
Cu3 F4 2.054913 1_655
Cu3 F7 2.391821 1_665
Cu3 F1 2.558889 1_545
F0 Li1 2.053737 1_565
F0 Li1 2.474789 1_555
F1 Li1 2.053737 1_565
F1 Li1 2.474789 1_555
F2 Li0 2.032278 1_556
F2 Li0 2.287439 1_546
F3 Li1 2.032278 1_554
F3 Li1 2.287439 1_564
F4 Li0 2.053737 1_545
F4 Li0 2.474789 1_555
F5 Li0 2.053737 1_545
F5 Li0 2.474789 1_555
