# generated using pymatgen
data_YHO2
_symmetry_space_group_name_H-M   'P 1'
_cell_length_a   3.55812900
_cell_length_b   4.92174300
_cell_length_c   11.21878100
_cell_angle_alpha   90.00000000
_cell_angle_beta   90.00000000
_cell_angle_gamma   90.00000000
_symmetry_Int_Tables_number   1
_chemical_formula_structural   YHO2
_chemical_formula_sum   'Y4 H4 O8'
_cell_volume   196.46549735
_cell_formula_units_Z   4
loop_
 _symmetry_equiv_pos_site_id
 _symmetry_equiv_pos_as_xyz
  1  'x, y, z'
loop_
 _atom_site_type_symbol
 _atom_site_label
 _atom_site_symmetry_multiplicity
 _atom_site_fract_x
 _atom_site_fract_y
 _atom_site_fract_z
 _atom_site_occupancy
  Y  Y0  1  0.25000000  0.06130300  0.85573700  1
  Y  Y1  1  0.25000000  0.43869700  0.35573700  1
  Y  Y2  1  0.75000000  0.56130300  0.64426300  1
  Y  Y3  1  0.75000000  0.93869700  0.14426300  1
  H  H0  1  0.25000000  0.10072500  0.58746600  1
  H  H1  1  0.25000000  0.39927500  0.08746600  1
  H  H2  1  0.75000000  0.60072500  0.91253400  1
  H  H3  1  0.75000000  0.89927500  0.41253400  1
  O  O0  1  0.25000000  0.20842500  0.05850800  1
  O  O1  1  0.75000000  0.19191800  0.30770300  1
  O  O2  1  0.75000000  0.30808200  0.80770300  1
  O  O3  1  0.25000000  0.29157500  0.55850800  1
  O  O4  1  0.75000000  0.70842500  0.44149200  1
  O  O5  1  0.25000000  0.69191800  0.19229700  1
  O  O6  1  0.25000000  0.80808200  0.69229700  1
  O  O7  1  0.75000000  0.79157500  0.94149200  1
loop_
_geom_bond_atom_site_label_1
_geom_bond_atom_site_label_2
_geom_bond_distance
_geom_bond_site_symmetry_2
H0 O3 0.993909 1_555
H1 O0 0.993909 1_555
H2 O7 0.993909 1_555
H3 O4 0.993909 1_555
O0 Y0 2.387306 1_554
O0 Y3 2.419294 1_445
O0 Y3 2.419294 1_545
O1 Y3 2.217051 1_545
O1 Y1 2.220513 1_655
O1 Y1 2.220513 1_555
O2 Y2 2.217051 1_555
O2 Y0 2.220513 1_655
O2 Y0 2.220513 1_555
O3 Y1 2.387306 1_555
O3 Y2 2.419294 1_455
O3 Y2 2.419294 1_555
O4 Y2 2.387306 1_555
O4 Y1 2.419294 1_655
O4 Y1 2.419294 1_555
O5 Y1 2.217051 1_555
O5 Y3 2.220513 1_555
O5 Y3 2.220513 1_455
O6 Y0 2.217051 1_565
O6 Y2 2.220513 1_555
O6 Y2 2.220513 1_455
O7 Y3 2.387306 1_556
O7 Y0 2.419294 1_665
O7 Y0 2.419294 1_565
