# generated using pymatgen
data_LiNi(PO3)5
_symmetry_space_group_name_H-M   'P 1'
_cell_length_a   9.49357600
_cell_length_b   5.38471300
_cell_length_c   13.22151948
_cell_angle_alpha   69.19157040
_cell_angle_beta   90.00000000
_cell_angle_gamma   90.00000000
_symmetry_Int_Tables_number   1
_chemical_formula_structural   LiNi(PO3)5
_chemical_formula_sum   'Li2 Ni2 P10 O30'
_cell_volume   631.80072064
_cell_formula_units_Z   2
loop_
 _symmetry_equiv_pos_site_id
 _symmetry_equiv_pos_as_xyz
  1  'x, y, z'
loop_
 _atom_site_type_symbol
 _atom_site_label
 _atom_site_symmetry_multiplicity
 _atom_site_fract_x
 _atom_site_fract_y
 _atom_site_fract_z
 _atom_site_occupancy
  Li  Li0  1  0.29523900  0.93958500  0.41693300  1
  Li  Li1  1  0.70476100  0.93958500  0.91693300  1
  Ni  Ni0  1  0.98520800  0.03112200  0.49780500  1
  Ni  Ni1  1  0.01479200  0.03112200  0.99780500  1
  P  P0  1  0.00040500  0.01684900  0.24723100  1
  P  P1  1  0.52160800  0.55260600  0.35308400  1
  P  P2  1  0.19291100  0.36771200  0.58455800  1
  P  P3  1  0.18141700  0.62878800  0.91297500  1
  P  P4  1  0.47869100  0.44569800  0.64739700  1
  P  P5  1  0.81858300  0.62878800  0.41297500  1
  P  P6  1  0.52130900  0.44569800  0.14739700  1
  P  P7  1  0.80708900  0.36771200  0.08455800  1
  P  P8  1  0.99959500  0.01684900  0.74723100  1
  P  P9  1  0.47839200  0.55260600  0.85308400  1
  O  O0  1  0.89105600  0.77180900  0.29640200  1
  O  O1  1  0.10429200  0.26923100  0.69567300  1
  O  O2  1  0.51494600  0.28132100  0.93434500  1
  O  O3  1  0.34483800  0.69363200  0.88203600  1
  O  O4  1  0.14944200  0.77132600  0.98945900  1
  O  O5  1  0.84157500  0.20599000  0.01465000  1
  O  O6  1  0.39838200  0.74261900  0.33128800  1
  O  O7  1  0.85055800  0.77132600  0.48945900  1
  O  O8  1  0.10894400  0.77180900  0.79640200  1
  O  O9  1  0.58579400  0.51261700  0.24757300  1
  O  O10  1  0.92252000  0.05952000  0.83992300  1
  O  O11  1  0.81972000  0.66444800  0.03441600  1
  O  O12  1  0.49463200  0.70612100  0.55378200  1
  O  O13  1  0.61019200  0.27789000  0.67653400  1
  O  O14  1  0.65035300  0.27317400  0.12927700  1
  O  O15  1  0.07791100  0.96768000  0.15719300  1
  O  O16  1  0.65516200  0.69363200  0.38203600  1
  O  O17  1  0.34964700  0.27317400  0.62927700  1
  O  O18  1  0.60161800  0.74261900  0.83128800  1
  O  O19  1  0.48505400  0.28132100  0.43434500  1
  O  O20  1  0.84648100  0.33700000  0.44853700  1
  O  O21  1  0.07748000  0.05952000  0.33992300  1
  O  O22  1  0.89570800  0.26923100  0.19567300  1
  O  O23  1  0.92208900  0.96768000  0.65719300  1
  O  O24  1  0.15842500  0.20599000  0.51465000  1
  O  O25  1  0.41420600  0.51261700  0.74757300  1
  O  O26  1  0.50536800  0.70612100  0.05378200  1
  O  O27  1  0.38980800  0.27789000  0.17653400  1
  O  O28  1  0.18028000  0.66444800  0.53441600  1
  O  O29  1  0.15351900  0.33700000  0.94853700  1
loop_
_geom_bond_atom_site_label_1
_geom_bond_atom_site_label_2
_geom_bond_distance
_geom_bond_site_symmetry_2
Li0 O28 2.040529 1_555
Li0 O6 2.054076 1_555
Li0 O21 2.293550 1_565
Li0 O24 2.594381 1_565
Li0 O12 2.611769 1_555
Li0 O19 2.643373 1_565
Li1 O11 2.040529 1_556
Li1 O18 2.054076 1_555
Li1 O10 2.293550 1_565
Li1 O5 2.594381 1_566
Li1 O26 2.611769 1_556
Li1 O2 2.643373 1_565
Ni0 O7 1.926895 1_545
Ni0 O24 1.946651 1_655
Ni0 O20 2.027164 1_555
Ni0 O23 2.098861 1_545
Ni0 O21 2.218414 1_655
Ni1 O4 1.926895 1_545
Ni1 O5 1.946651 1_456
Ni1 O29 2.027164 1_555
Ni1 O15 2.098861 1_546
Ni1 O10 2.218414 1_455
O0 P5 1.612038 1_555
O0 P0 1.622303 1_665
O1 P2 1.610523 1_555
O1 P8 1.625211 1_455
O2 P9 1.514455 1_555
O3 P9 1.592892 1_555
O3 P3 1.610827 1_555
O4 P3 1.501760 1_555
O5 P7 1.513839 1_555
O6 P1 1.512939 1_555
O7 P5 1.501760 1_555
O8 P3 1.612038 1_555
O8 P8 1.622303 1_465
O9 P1 1.605357 1_555
O9 P6 1.611819 1_555
O10 P8 1.513339 1_555
O11 P7 1.501452 1_555
O12 P4 1.512667 1_555
O13 P4 1.508680 1_555
O14 P6 1.606049 1_555
O14 P7 1.615233 1_555
O15 P0 1.500864 1_565
O16 P1 1.592892 1_555
O16 P5 1.610827 1_555
O17 P4 1.606049 1_555
O17 P2 1.615233 1_555
O18 P9 1.512939 1_555
O19 P1 1.514455 1_555
O20 P5 1.494991 1_555
O21 P0 1.513339 1_555
O22 P7 1.610523 1_555
O22 P0 1.625211 1_655
O23 P8 1.500864 1_565
O24 P2 1.513839 1_555
O25 P9 1.605357 1_555
O25 P4 1.611819 1_555
O26 P6 1.512667 1_555
O27 P6 1.508680 1_555
O28 P2 1.501452 1_555
O29 P3 1.494991 1_555
