# generated using pymatgen
data_Li15(NiO2)14
_symmetry_space_group_name_H-M   'P 1'
_cell_length_a   5.20489365
_cell_length_b   5.20489358
_cell_length_c   71.40190876
_cell_angle_alpha   32.51114961
_cell_angle_beta   32.51115087
_cell_angle_gamma   32.77596516
_symmetry_Int_Tables_number   1
_chemical_formula_structural   Li15(NiO2)14
_chemical_formula_sum   'Li15 Ni14 O28'
_cell_volume   499.31656712
_cell_formula_units_Z   1
loop_
 _symmetry_equiv_pos_site_id
 _symmetry_equiv_pos_as_xyz
  1  'x, y, z'
loop_
 _atom_site_type_symbol
 _atom_site_label
 _atom_site_symmetry_multiplicity
 _atom_site_fract_x
 _atom_site_fract_y
 _atom_site_fract_z
 _atom_site_occupancy
  Li  Li0  1  0.68629700  0.68629700  0.03780200  1
  Li  Li1  1  0.35163700  0.35163700  0.09986400  1
  Li  Li2  1  0.89808400  0.89808400  0.15643500  1
  Li  Li3  1  0.96979200  0.96979200  0.21874700  1
  Li  Li4  1  0.99867900  0.99867900  0.35735300  1
  Li  Li5  1  0.99125300  0.99125300  0.28709700  1
  Li  Li6  1  0.99802400  0.99802400  0.50030200  1
  Li  Li7  1  0.00001300  0.00001300  0.42857400  1
  Li  Li8  1  0.00214900  0.00214900  0.64252200  1
  Li  Li9  1  0.99878500  0.99878500  0.57160500  1
  Li  Li10  1  0.00331500  0.00331500  0.71378900  1
  Li  Li11  1  0.00769500  0.00769500  0.78460000  1
  Li  Li12  1  0.02360900  0.02360900  0.85367400  1
  Li  Li13  1  0.61082000  0.61082000  0.97794000  1
  Li  Li14  1  0.07740500  0.07740500  0.91865800  1
  Ni  Ni0  1  0.48498100  0.48498100  0.03416800  1
  Ni  Ni1  1  0.51220100  0.51220100  0.10881500  1
  Ni  Ni2  1  0.48456300  0.48456300  0.18160900  1
  Ni  Ni3  1  0.48745700  0.48745700  0.25207300  1
  Ni  Ni4  1  0.49547000  0.49547000  0.32212100  1
  Ni  Ni5  1  0.49898000  0.49898000  0.39295900  1
  Ni  Ni6  1  0.49953300  0.49953300  0.46431900  1
  Ni  Ni7  1  0.49984200  0.49984200  0.53574800  1
  Ni  Ni8  1  0.50041900  0.50041900  0.60707700  1
  Ni  Ni9  1  0.50160600  0.50160600  0.67832100  1
  Ni  Ni10  1  0.50416800  0.50416800  0.74939700  1
  Ni  Ni11  1  0.50927500  0.50927500  0.82013000  1
  Ni  Ni12  1  0.51453300  0.51453300  0.89084200  1
  Ni  Ni13  1  0.50523500  0.50523500  0.96086000  1
  O  O0  1  0.25024800  0.25024800  0.01273000  1
  O  O1  1  0.25371300  0.25371300  0.08775400  1
  O  O2  1  0.74106800  0.74106800  0.05607400  1
  O  O3  1  0.21599400  0.21599400  0.16539700  1
  O  O4  1  0.73631700  0.73631700  0.13030000  1
  O  O5  1  0.23101000  0.23101000  0.23325600  1
  O  O6  1  0.73315100  0.73315100  0.20137300  1
  O  O7  1  0.24355100  0.24355100  0.30266100  1
  O  O8  1  0.73884100  0.73884100  0.27139000  1
  O  O9  1  0.24934400  0.24934400  0.37316300  1
  O  O10  1  0.74552700  0.74552700  0.34189500  1
  O  O11  1  0.25163500  0.25163500  0.44419600  1
  O  O12  1  0.74896400  0.74896400  0.41275200  1
  O  O13  1  0.24996700  0.24996700  0.51593700  1
  O  O14  1  0.74808000  0.74808000  0.48435300  1
  O  O15  1  0.25082200  0.25082200  0.58723100  1
  O  O16  1  0.74960400  0.74960400  0.55556800  1
  O  O17  1  0.25133700  0.25133700  0.65858800  1
  O  O18  1  0.75011100  0.75011100  0.62688500  1
  O  O19  1  0.25318800  0.25318800  0.72973600  1
  O  O20  1  0.75104200  0.75104200  0.69816400  1
  O  O21  1  0.25873800  0.25873800  0.80046800  1
  O  O22  1  0.75452500  0.75452500  0.76909600  1
  O  O23  1  0.26383300  0.26383300  0.87120300  1
  O  O24  1  0.76235800  0.76235800  0.83947500  1
  O  O25  1  0.25266100  0.25266100  0.94342800  1
  O  O26  1  0.77514700  0.77514700  0.90840200  1
  O  O27  1  0.79840400  0.79840400  0.97577100  1
loop_
_geom_bond_atom_site_label_1
_geom_bond_atom_site_label_2
_geom_bond_distance
_geom_bond_site_symmetry_2
Li0 O2 1.804409 1_555
Li0 O0 1.938868 1_565
Li0 O0 1.938868 1_655
Li0 O1 2.072847 1_555
Li1 O1 1.786239 1_555
Li1 O2 1.877303 1_555
Li1 O4 1.950817 1_545
Li1 O4 1.950817 1_455
Li1 Ni1 2.186656 1_555
Li2 O6 1.928031 1_555
Li2 O3 1.956335 1_655
Li2 O3 1.956335 1_565
Li2 O4 2.442851 1_565
Li2 O4 2.442851 1_655
Li2 O1 2.458413 1_665
Li3 O3 2.022507 1_665
Li3 O8 2.051184 1_555
Li3 O5 2.138555 1_655
Li3 O5 2.138555 1_565
Li3 O6 2.208416 1_565
Li3 O6 2.208417 1_655
Li4 O7 2.107509 1_665
Li4 O12 2.126957 1_555
Li4 O10 2.160720 1_565
Li4 O10 2.160720 1_655
Li4 O9 2.165568 1_655
Li4 O9 2.165568 1_565
Li5 O5 2.080851 1_665
Li5 O10 2.109821 1_555
Li5 O8 2.157114 1_565
Li5 O8 2.157114 1_655
Li5 O7 2.162900 1_655
Li5 O7 2.162900 1_565
Li6 O16 2.125070 1_555
Li6 O11 2.150837 1_665
Li6 O13 2.162863 1_655
Li6 O13 2.162863 1_565
Li6 O14 2.165696 1_565
Li6 O14 2.165696 1_655
Li7 O9 2.129443 1_555
Li7 O14 2.139220 1_445
Li7 O12 2.162499 1_455
Li7 O12 2.162499 1_545
Li7 O11 2.165538 1_545
Li7 O11 2.165538 1_455
Li8 O15 2.125379 1_555
Li8 O20 2.134919 1_445
Li8 O18 2.162137 1_455
Li8 O18 2.162137 1_545
Li8 O17 2.166841 1_545
Li8 O17 2.166841 1_455
Li9 O18 2.124722 1_555
Li9 O13 2.136111 1_665
Li9 O15 2.162529 1_655
Li9 O15 2.162529 1_565
Li9 O16 2.167898 1_565
Li9 O16 2.167898 1_655
Li10 O17 2.123062 1_555
Li10 O22 2.125785 1_445
Li10 O20 2.160935 1_455
Li10 O20 2.160935 1_545
Li10 O19 2.166256 1_545
Li10 O19 2.166256 1_455
Li11 O19 2.114834 1_555
Li11 O24 2.116220 1_445
Li11 O22 2.158981 1_455
Li11 O22 2.158982 1_545
Li11 O21 2.160939 1_545
Li11 O21 2.160939 1_455
Li12 O21 2.064879 1_555
Li12 O26 2.093076 1_445
Li12 O24 2.149384 1_455
Li12 O24 2.149385 1_545
Li12 O23 2.178371 1_545
Li12 O23 2.178371 1_455
Li13 O27 1.738815 1_555
Li13 O0 1.847228 1_556
Li13 O25 2.024576 1_565
Li13 O25 2.024576 1_655
Li13 Ni13 2.204519 1_555
Li14 O23 1.963937 1_555
Li14 O26 2.012553 1_455
Li14 O26 2.012553 1_545
Li14 O27 2.101933 1_445
Li14 O25 2.391433 1_545
Li14 O25 2.391433 1_455
Ni0 O2 1.959238 1_545
Ni0 O2 1.959238 1_455
Ni0 O27 2.058925 1_554
Ni0 O0 2.094962 1_565
Ni0 O0 2.094962 1_655
Ni0 O1 2.106744 1_555
Ni1 O1 1.964442 1_565
Ni1 O1 1.964442 1_655
Ni1 O3 2.015619 1_555
Ni1 O2 2.067328 1_555
Ni1 O4 2.161158 1_545
Ni1 O4 2.161158 1_455
Ni2 O4 1.884162 1_555
Ni2 O5 1.896048 1_555
Ni2 O3 2.033476 1_565
Ni2 O3 2.033476 1_655
Ni2 O6 2.055040 1_545
Ni2 O6 2.055040 1_455
Ni3 O6 1.873510 1_555
Ni3 O7 1.874241 1_555
Ni3 O5 2.032928 1_565
Ni3 O5 2.032928 1_655
Ni3 O8 2.050189 1_545
Ni3 O8 2.050189 1_455
Ni4 O8 1.884395 1_555
Ni4 O9 1.890939 1_555
Ni4 O7 2.042921 1_565
Ni4 O7 2.042921 1_655
Ni4 O10 2.045730 1_545
Ni4 O10 2.045731 1_455
Ni5 O10 1.890516 1_555
Ni5 O11 1.897067 1_555
Ni5 O12 2.045659 1_545
Ni5 O12 2.045659 1_455
Ni5 O9 2.047710 1_565
Ni5 O9 2.047711 1_655
Ni6 O12 1.907356 1_555
Ni6 O13 1.909679 1_555
Ni6 O14 2.047902 1_545
Ni6 O14 2.047903 1_455
Ni6 O11 2.049462 1_565
Ni6 O11 2.049462 1_655
Ni7 O14 1.902406 1_555
Ni7 O15 1.904267 1_555
Ni7 O13 2.045836 1_565
Ni7 O13 2.045836 1_655
Ni7 O16 2.046283 1_545
Ni7 O16 2.046283 1_455
Ni8 O16 1.905076 1_555
Ni8 O17 1.905590 1_555
Ni8 O15 2.046585 1_565
Ni8 O15 2.046585 1_655
Ni8 O18 2.047039 1_545
Ni8 O18 2.047039 1_455
Ni9 O19 1.902820 1_555
Ni9 O18 1.903654 1_555
Ni9 O17 2.045551 1_565
Ni9 O17 2.045551 1_655
Ni9 O20 2.047653 1_545
Ni9 O20 2.047653 1_455
Ni10 O21 1.895319 1_555
Ni10 O20 1.898696 1_555
Ni10 O19 2.043163 1_565
Ni10 O19 2.043163 1_655
Ni10 O22 2.045942 1_545
Ni10 O22 2.045942 1_455
Ni11 O22 1.893955 1_555
Ni11 O23 1.895384 1_555
Ni11 O24 2.038946 1_545
Ni11 O24 2.038946 1_455
Ni11 O21 2.045852 1_565
Ni11 O21 2.045852 1_655
Ni12 O24 1.902460 1_555
Ni12 O25 1.916971 1_555
Ni12 O26 2.043153 1_545
Ni12 O26 2.043153 1_455
Ni12 O23 2.045483 1_565
Ni12 O23 2.045483 1_655
Ni13 O26 1.883073 1_555
Ni13 O0 1.902970 1_556
Ni13 O27 1.921087 1_545
Ni13 O27 1.921087 1_455
Ni13 O25 2.098744 1_565
Ni13 O25 2.098744 1_655
