# generated using pymatgen
data_Li8Mn7Fe(BO3)8
_symmetry_space_group_name_H-M   'P 1'
_cell_length_a   5.25215200
_cell_length_b   9.12466497
_cell_length_c   10.52645123
_cell_angle_alpha   88.25090699
_cell_angle_beta   89.05553726
_cell_angle_gamma   89.85813971
_symmetry_Int_Tables_number   1
_chemical_formula_structural   Li8Mn7Fe(BO3)8
_chemical_formula_sum   'Li8 Mn7 Fe1 B8 O24'
_cell_volume   504.16645673
_cell_formula_units_Z   1
loop_
 _symmetry_equiv_pos_site_id
 _symmetry_equiv_pos_as_xyz
  1  'x, y, z'
loop_
 _atom_site_type_symbol
 _atom_site_label
 _atom_site_symmetry_multiplicity
 _atom_site_fract_x
 _atom_site_fract_y
 _atom_site_fract_z
 _atom_site_occupancy
  Li  Li0  1  0.14651100  0.17448600  0.66794600  1
  Li  Li1  1  0.18730900  0.16135300  0.16827000  1
  Li  Li2  1  0.32035300  0.33128800  0.41730100  1
  Li  Li3  1  0.33525200  0.32664200  0.91692600  1
  Li  Li4  1  0.64660300  0.67422200  0.66812300  1
  Li  Li5  1  0.68838700  0.65986000  0.16805600  1
  Li  Li6  1  0.82021800  0.83056400  0.41788300  1
  Li  Li7  1  0.83597800  0.82568600  0.91760300  1
  Mn  Mn0  1  0.15911800  0.83795000  0.63272500  1
  Mn  Mn1  1  0.33022500  0.66298900  0.38129500  1
  Mn  Mn2  1  0.33106000  0.99785700  0.88290100  1
  Mn  Mn3  1  0.65870900  0.33884500  0.63317300  1
  Mn  Mn4  1  0.67798400  0.99829900  0.13345400  1
  Mn  Mn5  1  0.83154400  0.16450100  0.38371800  1
  Mn  Mn6  1  0.83256700  0.49814300  0.88532800  1
  Fe  Fe0  1  0.18530900  0.49818800  0.13221300  1
  B  B0  1  0.17147700  0.82829400  0.12491600  1
  B  B1  1  0.15705100  0.50137500  0.62582500  1
  B  B2  1  0.33667200  0.99739500  0.37547500  1
  B  B3  1  0.32918900  0.66725200  0.87651500  1
  B  B4  1  0.67463400  0.33170000  0.12717900  1
  B  B5  1  0.65719700  0.00142600  0.62585600  1
  B  B6  1  0.83683200  0.49740200  0.37463500  1
  B  B7  1  0.82796600  0.16736100  0.87609600  1
  O  O0  1  0.09590300  0.48097500  0.34344600  1
  O  O1  1  0.08968600  0.17925100  0.86142600  1
  O  O2  1  0.17474100  0.78867900  0.84554300  1
  O  O3  1  0.19477700  0.87560600  0.41729900  1
  O  O4  1  0.22399500  0.13405500  0.36076800  1
  O  O5  1  0.21859500  0.53563100  0.91930300  1
  O  O6  1  0.26503600  0.36406700  0.61111100  1
  O  O7  1  0.28850500  0.96368100  0.09654700  1
  O  O8  1  0.30295600  0.62655700  0.59562500  1
  O  O9  1  0.31740200  0.70759400  0.16453300  1
  O  O10  1  0.41181500  0.32004600  0.11301700  1
  O  O11  1  0.40439200  0.01631300  0.66688600  1
  O  O12  1  0.59658600  0.98151500  0.34520500  1
  O  O13  1  0.59065800  0.67906200  0.86142100  1
  O  O14  1  0.67404800  0.28923800  0.84605300  1
  O  O15  1  0.69423400  0.37630900  0.41761500  1
  O  O16  1  0.72402500  0.63427700  0.36078500  1
  O  O17  1  0.71727200  0.03529100  0.91789200  1
  O  O18  1  0.79469900  0.46554800  0.09805800  1
  O  O19  1  0.76540200  0.86420800  0.61134500  1
  O  O20  1  0.80269700  0.12688100  0.59589200  1
  O  O21  1  0.81819600  0.21036000  0.16637500  1
  O  O22  1  0.91102200  0.81488500  0.11080000  1
  O  O23  1  0.90461000  0.51629400  0.66724200  1
loop_
_geom_bond_atom_site_label_1
_geom_bond_atom_site_label_2
_geom_bond_distance
_geom_bond_site_symmetry_2
Li0 O6 1.915138 1_555
Li0 O11 1.976981 1_555
Li0 O20 2.023338 1_455
Li0 O1 2.055296 1_555
Li1 O10 1.939033 1_555
Li1 O21 1.988747 1_455
Li1 O7 2.042291 1_545
Li1 O4 2.046208 1_555
Li2 O0 1.953720 1_555
Li2 O4 1.982156 1_555
Li2 O15 2.007262 1_555
Li2 O6 2.086453 1_555
Li3 O14 1.951443 1_555
Li3 O1 1.973550 1_555
Li3 O5 2.002280 1_555
Li3 O10 2.108475 1_556
Li4 O19 1.918740 1_555
Li4 O23 1.975775 1_555
Li4 O8 2.024531 1_555
Li4 O13 2.052845 1_555
Li5 O22 1.914265 1_555
Li5 O9 1.996199 1_555
Li5 O18 2.014850 1_555
Li5 O16 2.046645 1_555
Li6 O12 1.954305 1_555
Li6 O16 1.975999 1_555
Li6 O3 2.010582 1_655
Li6 O19 2.083922 1_555
Li7 O2 1.955313 1_655
Li7 O13 1.970227 1_555
Li7 O17 2.010235 1_565
Li7 O22 2.077236 1_556
Mn0 O19 2.096111 1_455
Mn0 O8 2.114922 1_555
Mn0 O11 2.121074 1_565
Mn0 O2 2.274166 1_555
Mn0 O3 2.287842 1_555
Mn1 O16 2.092642 1_555
Mn1 O3 2.107773 1_555
Mn1 O0 2.120928 1_555
Mn1 O8 2.272655 1_555
Mn1 O9 2.307540 1_555
Mn2 O1 2.091415 1_565
Mn2 O17 2.098253 1_565
Mn2 O2 2.129784 1_555
Mn2 O7 2.268451 1_556
Mn2 O11 2.301144 1_565
Mn3 O6 2.095759 1_555
Mn3 O23 2.116452 1_555
Mn3 O20 2.120370 1_555
Mn3 O14 2.275244 1_555
Mn3 O15 2.288955 1_555
Mn4 O22 2.088164 1_555
Mn4 O21 2.112574 1_565
Mn4 O7 2.114732 1_555
Mn4 O12 2.263333 1_555
Mn4 O17 2.289868 1_564
Mn5 O4 2.090211 1_655
Mn5 O15 2.099848 1_555
Mn5 O12 2.131447 1_545
Mn5 O20 2.251964 1_555
Mn5 O21 2.315378 1_555
Mn6 O13 2.092278 1_555
Mn6 O5 2.095324 1_655
Mn6 O14 2.136575 1_555
Mn6 O18 2.255526 1_556
Mn6 O23 2.321460 1_555
Fe0 O10 2.025053 1_555
Fe0 O9 2.074150 1_555
Fe0 O18 2.112030 1_455
Fe0 O5 2.260718 1_554
Fe0 O0 2.265810 1_555
B0 O22 1.384548 1_455
B0 O9 1.397353 1_555
B0 O7 1.402952 1_555
B1 O6 1.385935 1_555
B1 O23 1.396488 1_455
B1 O8 1.402554 1_555
B2 O4 1.384458 1_565
B2 O3 1.395565 1_555
B2 O12 1.404829 1_555
B3 O13 1.383921 1_555
B3 O5 1.394440 1_555
B3 O2 1.405045 1_555
B4 O21 1.393866 1_555
B4 O10 1.395499 1_555
B4 O18 1.399224 1_555
B5 O19 1.385378 1_545
B5 O11 1.397049 1_555
B5 O20 1.402937 1_555
B6 O16 1.385714 1_555
B6 O15 1.396030 1_555
B6 O0 1.403201 1_655
B7 O1 1.384862 1_655
B7 O17 1.395169 1_555
B7 O14 1.404552 1_555
