# generated using pymatgen
data_Li5Nb2Fe5O12
_symmetry_space_group_name_H-M   'P 1'
_cell_length_a   5.20963600
_cell_length_b   5.31216983
_cell_length_c   10.25164421
_cell_angle_alpha   84.06175386
_cell_angle_beta   77.77129158
_cell_angle_gamma   60.81958677
_symmetry_Int_Tables_number   1
_chemical_formula_structural   Li5Nb2Fe5O12
_chemical_formula_sum   'Li5 Nb2 Fe5 O12'
_cell_volume   242.08258980
_cell_formula_units_Z   1
loop_
 _symmetry_equiv_pos_site_id
 _symmetry_equiv_pos_as_xyz
  1  'x, y, z'
loop_
 _atom_site_type_symbol
 _atom_site_label
 _atom_site_symmetry_multiplicity
 _atom_site_fract_x
 _atom_site_fract_y
 _atom_site_fract_z
 _atom_site_occupancy
  Li  Li0  1  0.67933400  0.15261700  0.50327300  1
  Li  Li1  1  0.82663900  0.85351900  0.99372200  1
  Li  Li2  1  0.16502800  0.15298300  0.99792300  1
  Li  Li3  1  0.32766400  0.85138500  0.50747200  1
  Li  Li4  1  0.91949900  0.16136100  0.74944300  1
  Nb  Nb0  1  0.23979300  0.50539600  0.74950200  1
  Nb  Nb1  1  0.73496000  0.51971000  0.24898700  1
  Fe  Fe0  1  0.07993000  0.82355500  0.24983800  1
  Fe  Fe1  1  0.50432700  0.48902600  0.99404000  1
  Fe  Fe2  1  0.00183800  0.49819300  0.50234000  1
  Fe  Fe3  1  0.43032900  0.15468900  0.25128100  1
  Fe  Fe4  1  0.58424700  0.83776800  0.75171200  1
  O  O0  1  0.20414600  0.80934300  0.86753500  1
  O  O1  1  0.98503200  0.81508000  0.63070500  1
  O  O2  1  0.37362100  0.50243300  0.37689500  1
  O  O3  1  0.12806600  0.50442700  0.12617000  1
  O  O4  1  0.51991700  0.17937900  0.86279400  1
  O  O5  1  0.29328600  0.19142000  0.63366100  1
  O  O6  1  0.70126000  0.81910500  0.38074700  1
  O  O7  1  0.48870400  0.80899400  0.12351600  1
  O  O8  1  0.88578800  0.49629200  0.87122700  1
  O  O9  1  0.61345700  0.51059000  0.63565600  1
  O  O10  1  0.02379200  0.18550500  0.36170800  1
  O  O11  1  0.78934500  0.17722400  0.12985300  1
loop_
_geom_bond_atom_site_label_1
_geom_bond_atom_site_label_2
_geom_bond_distance
_geom_bond_site_symmetry_2
Li0 O5 2.094744 1_555
Li0 O10 2.122955 1_655
Li0 O6 2.220807 1_545
Li0 O1 2.251698 1_545
Li0 O2 2.271186 1_555
Li0 O9 2.296965 1_555
Li1 O0 2.032571 1_655
Li1 O7 2.067468 1_556
Li1 O11 2.235665 1_566
Li1 O8 2.243201 1_555
Li1 O4 2.254320 1_565
Li1 O3 2.300248 1_656
Li2 O11 2.084528 1_456
Li2 O4 2.117671 1_555
Li2 O8 2.202836 1_455
Li2 O0 2.277577 1_545
Li2 O7 2.295328 1_546
Li2 O3 2.302419 1_556
Li3 O1 2.037001 1_455
Li3 O6 2.038320 1_555
Li3 O9 2.220194 1_555
Li3 O5 2.244614 1_565
Li3 O2 2.286989 1_555
Li3 O10 2.367029 1_565
Li4 O4 2.120575 1_555
Li4 O5 2.123947 1_655
Li4 O1 2.157990 1_545
Li4 O0 2.179349 1_645
Li4 O9 2.190947 1_555
Li4 O8 2.194810 1_555
Nb0 O8 2.015020 1_455
Nb0 O5 2.021442 1_555
Nb0 O1 2.022903 1_455
Nb0 O0 2.030352 1_555
Nb0 O9 2.058059 1_555
Nb0 O4 2.077321 1_555
Nb1 O7 2.007370 1_555
Nb1 O2 2.090294 1_555
Nb1 O6 2.111072 1_555
Nb1 O10 2.111532 1_655
Nb1 O3 2.133684 1_655
Nb1 O11 2.166203 1_555
Fe0 O3 2.107035 1_555
Fe0 O6 2.147242 1_455
Fe0 O2 2.187915 1_555
Fe0 O10 2.205351 1_565
Fe0 O11 2.207198 1_465
Fe0 O7 2.215827 1_555
Fe1 O3 2.103702 1_556
Fe1 O8 2.130895 1_555
Fe1 O4 2.191801 1_555
Fe1 O0 2.197869 1_555
Fe1 O11 2.210688 1_556
Fe1 O7 2.223438 1_556
Fe2 O2 2.094543 1_555
Fe2 O9 2.164093 1_455
Fe2 O6 2.167067 1_455
Fe2 O5 2.184641 1_555
Fe2 O1 2.199755 1_455
Fe2 O10 2.256347 1_555
Fe3 O11 2.064776 1_555
Fe3 O10 2.116240 1_555
Fe3 O6 2.186817 1_545
Fe3 O2 2.226407 1_555
Fe3 O7 2.228175 1_545
Fe3 O3 2.255241 1_555
Fe4 O4 2.091678 1_565
Fe4 O9 2.133704 1_555
Fe4 O1 2.145046 1_555
Fe4 O0 2.147610 1_555
Fe4 O5 2.195791 1_565
Fe4 O8 2.199150 1_555
