# generated using pymatgen
data_LiBi2PO6
_symmetry_space_group_name_H-M   'P 1'
_cell_length_a   5.67074700
_cell_length_b   9.95570800
_cell_length_c   14.17738245
_cell_angle_alpha   45.45368220
_cell_angle_beta   90.00000000
_cell_angle_gamma   90.00000000
_symmetry_Int_Tables_number   1
_chemical_formula_structural   LiBi2PO6
_chemical_formula_sum   'Li4 Bi8 P4 O24'
_cell_volume   570.43379060
_cell_formula_units_Z   4
loop_
 _symmetry_equiv_pos_site_id
 _symmetry_equiv_pos_as_xyz
  1  'x, y, z'
loop_
 _atom_site_type_symbol
 _atom_site_label
 _atom_site_symmetry_multiplicity
 _atom_site_fract_x
 _atom_site_fract_y
 _atom_site_fract_z
 _atom_site_occupancy
  Li  Li0  1  0.24381700  0.88859700  0.00075900  1
  Li  Li1  1  0.25618300  0.88859700  0.50075900  1
  Li  Li2  1  0.74381700  0.11140300  0.49924100  1
  Li  Li3  1  0.75618300  0.11140300  0.99924100  1
  Bi  Bi0  1  0.23383600  0.85723400  0.75042200  1
  Bi  Bi1  1  0.73425600  0.64087200  0.74948400  1
  Bi  Bi2  1  0.23425600  0.35912800  0.75051600  1
  Bi  Bi3  1  0.73383600  0.14276600  0.74957800  1
  Bi  Bi4  1  0.26616400  0.85723400  0.25042200  1
  Bi  Bi5  1  0.76574400  0.64087200  0.24948400  1
  Bi  Bi6  1  0.26574400  0.35912800  0.25051600  1
  Bi  Bi7  1  0.76616400  0.14276600  0.24957800  1
  P  P0  1  0.74778100  0.65907200  0.99863600  1
  P  P1  1  0.75221900  0.65907200  0.49863600  1
  P  P2  1  0.24778100  0.34092800  0.50136400  1
  P  P3  1  0.25221900  0.34092800  0.00136400  1
  O  O0  1  0.05891400  0.31361900  0.93773400  1
  O  O1  1  0.55135700  0.81208900  0.93362200  1
  O  O2  1  0.86390400  0.67846800  0.88959100  1
  O  O3  1  0.36525300  0.54051500  0.89089400  1
  O  O4  1  0.55222000  0.19601500  0.85163200  1
  O  O5  1  0.04984100  0.10368500  0.85223000  1
  O  O6  1  0.05222000  0.80398500  0.64836800  1
  O  O7  1  0.54984100  0.89631500  0.64777000  1
  O  O8  1  0.86525300  0.45948500  0.60910600  1
  O  O9  1  0.36390400  0.32153200  0.61040900  1
  O  O10  1  0.05135700  0.18791100  0.56637800  1
  O  O11  1  0.55891400  0.68638100  0.56226600  1
  O  O12  1  0.44108600  0.31361900  0.43773400  1
  O  O13  1  0.94864300  0.81208900  0.43362200  1
  O  O14  1  0.63609600  0.67846800  0.38959100  1
  O  O15  1  0.13474700  0.54051500  0.39089400  1
  O  O16  1  0.45015900  0.10368500  0.35223000  1
  O  O17  1  0.94778000  0.19601500  0.35163200  1
  O  O18  1  0.95015900  0.89631500  0.14777000  1
  O  O19  1  0.44778000  0.80398500  0.14836800  1
  O  O20  1  0.63474700  0.45948500  0.10910600  1
  O  O21  1  0.13609600  0.32153200  0.11040900  1
  O  O22  1  0.44864300  0.18791100  0.06637800  1
  O  O23  1  0.94108600  0.68638100  0.06226600  1
loop_
_geom_bond_atom_site_label_1
_geom_bond_atom_site_label_2
_geom_bond_distance
_geom_bond_site_symmetry_2
Li0 O5 1.975687 1_564
Li0 O19 1.988362 1_555
Li0 O23 2.301635 1_455
Li0 O1 2.354734 1_554
Li1 O16 1.975687 1_565
Li1 O6 1.988362 1_555
Li1 O11 2.301635 1_555
Li1 O13 2.354734 1_455
Li2 O7 1.975687 1_545
Li2 O17 1.988362 1_555
Li2 O12 2.301635 1_555
Li2 O10 2.354734 1_655
Li3 O18 1.975687 1_546
Li3 O4 1.988362 1_555
Li3 O0 2.301635 1_655
Li3 O22 2.354734 1_556
Bi0 O6 2.123969 1_555
Bi0 O7 2.164758 1_555
Bi0 O3 2.377788 1_555
Bi0 O2 2.556282 1_455
Bi0 O10 2.581778 1_565
Bi1 O7 2.120253 1_555
Bi1 O6 2.162693 1_655
Bi1 O2 2.381027 1_555
Bi1 O11 2.559662 1_555
Bi1 O3 2.566315 1_555
Bi2 O5 2.120253 1_555
Bi2 O4 2.162693 1_555
Bi2 O9 2.381027 1_555
Bi2 O0 2.559662 1_555
Bi2 O8 2.566315 1_455
Bi3 O4 2.123969 1_555
Bi3 O5 2.164758 1_655
Bi3 O8 2.377788 1_555
Bi3 O9 2.556282 1_555
Bi3 O1 2.581778 1_545
Bi4 O19 2.123969 1_555
Bi4 O18 2.164758 1_455
Bi4 O15 2.377788 1_555
Bi4 O14 2.556282 1_555
Bi4 O22 2.581778 1_565
Bi5 O18 2.120253 1_555
Bi5 O19 2.162693 1_555
Bi5 O14 2.381027 1_555
Bi5 O23 2.559662 1_555
Bi5 O15 2.566315 1_655
Bi6 O16 2.120253 1_555
Bi6 O17 2.162693 1_455
Bi6 O21 2.381027 1_555
Bi6 O12 2.559662 1_555
Bi6 O20 2.566315 1_555
Bi7 O17 2.123969 1_555
Bi7 O16 2.164758 1_555
Bi7 O20 2.377788 1_555
Bi7 O21 2.556282 1_655
Bi7 O13 2.581778 1_545
O0 P3 1.559947 1_556
O1 P0 1.562379 1_555
O2 P0 1.562728 1_555
O3 P3 1.563956 1_556
O8 P1 1.563956 1_555
O9 P2 1.562728 1_555
O10 P2 1.562379 1_555
O11 P1 1.559947 1_555
O12 P2 1.559947 1_555
O13 P1 1.562379 1_555
O14 P1 1.562728 1_555
O15 P2 1.563956 1_555
O20 P0 1.563956 1_554
O21 P3 1.562728 1_555
O22 P3 1.562379 1_555
O23 P0 1.559947 1_554
