# generated using pymatgen
data_Li6Fe7O15
_symmetry_space_group_name_H-M   'P 1'
_cell_length_a   7.94887855
_cell_length_b   7.94887855
_cell_length_c   9.00616479
_cell_angle_alpha   78.63017207
_cell_angle_beta   78.63017207
_cell_angle_gamma   28.74109865
_symmetry_Int_Tables_number   1
_chemical_formula_structural   Li6Fe7O15
_chemical_formula_sum   'Li6 Fe7 O15'
_cell_volume   267.90367825
_cell_formula_units_Z   1
loop_
 _symmetry_equiv_pos_site_id
 _symmetry_equiv_pos_as_xyz
  1  'x, y, z'
loop_
 _atom_site_type_symbol
 _atom_site_label
 _atom_site_symmetry_multiplicity
 _atom_site_fract_x
 _atom_site_fract_y
 _atom_site_fract_z
 _atom_site_occupancy
  Li  Li0  1  0.79780600  0.79780600  0.73283200  1
  Li  Li1  1  0.40325500  0.40325500  0.86628200  1
  Li  Li2  1  0.40347500  0.40347500  0.52516100  1
  Li  Li3  1  0.59652500  0.59652500  0.47483900  1
  Li  Li4  1  0.20219400  0.20219400  0.26716800  1
  Li  Li5  1  0.59674500  0.59674500  0.13371800  1
  Fe  Fe0  1  0.19305800  0.19305800  0.60688800  1
  Fe  Fe1  1  0.99718600  0.99718600  0.67006300  1
  Fe  Fe2  1  0.80694200  0.80694200  0.39311200  1
  Fe  Fe3  1  0.00281400  0.00281400  0.32993700  1
  Fe  Fe4  1  0.80610200  0.80610200  0.06890800  1
  Fe  Fe5  1  0.00000000  0.00000000  0.00000000  1
  Fe  Fe6  1  0.19389800  0.19389800  0.93109200  1
  O  O0  1  0.27965900  0.27965900  0.73785500  1
  O  O1  1  0.09569600  0.09569600  0.80008300  1
  O  O2  1  0.48777700  0.48777700  0.66534300  1
  O  O3  1  0.70759500  0.70759500  0.57931700  1
  O  O4  1  0.29240500  0.29240500  0.42068300  1
  O  O5  1  0.09535100  0.09535100  0.48368500  1
  O  O6  1  0.90464900  0.90464900  0.51631500  1
  O  O7  1  0.72034100  0.72034100  0.26214500  1
  O  O8  1  0.51222300  0.51222300  0.33465700  1
  O  O9  1  0.90430400  0.90430400  0.19991700  1
  O  O10  1  0.09427300  0.09427300  0.12377300  1
  O  O11  1  0.29291300  0.29291300  0.05002600  1
  O  O12  1  0.70708700  0.70708700  0.94997400  1
  O  O13  1  0.50000000  0.50000000  0.00000000  1
  O  O14  1  0.90572700  0.90572700  0.87622700  1
loop_
_geom_bond_atom_site_label_1
_geom_bond_atom_site_label_2
_geom_bond_distance
_geom_bond_site_symmetry_2
Li0 O0 1.991766 1_655
Li0 O0 1.991766 1_565
Li0 O3 2.150215 1_555
Li0 O12 2.159694 1_555
Li0 O6 2.281210 1_555
Li0 O14 2.302986 1_555
Li1 O14 1.975598 1_455
Li1 O14 1.975598 1_545
Li1 O2 2.002633 1_555
Li1 O13 2.097718 1_556
Li1 O11 2.116963 1_556
Li1 O0 2.420100 1_555
Li2 O6 1.974390 1_455
Li2 O6 1.974390 1_545
Li2 O2 1.986598 1_555
Li2 O4 2.113371 1_555
Li2 O8 2.139847 1_555
Li2 O0 2.412178 1_555
Li3 O5 1.974390 1_655
Li3 O5 1.974390 1_565
Li3 O8 1.986598 1_555
Li3 O3 2.113371 1_555
Li3 O2 2.139847 1_555
Li3 O7 2.412178 1_555
Li4 O7 1.991766 1_545
Li4 O7 1.991766 1_455
Li4 O4 2.150215 1_555
Li4 O11 2.159694 1_555
Li4 O5 2.281210 1_555
Li4 O10 2.302986 1_555
Li5 O10 1.975598 1_655
Li5 O10 1.975598 1_565
Li5 O8 2.002633 1_555
Li5 O13 2.097718 1_555
Li5 O12 2.116963 1_554
Li5 O7 2.420100 1_555
Fe0 O0 1.951982 1_555
Fe0 O3 1.995315 1_455
Fe0 O3 1.995315 1_545
Fe0 O4 2.027024 1_555
Fe0 O5 2.043264 1_555
Fe0 O1 2.052747 1_555
Fe1 O2 1.979252 1_655
Fe1 O2 1.979252 1_565
Fe1 O5 2.017461 1_665
Fe1 O14 2.089721 1_555
Fe1 O1 2.096618 1_665
Fe1 O6 2.179775 1_555
Fe2 O7 1.951982 1_555
Fe2 O4 1.995315 1_565
Fe2 O4 1.995315 1_655
Fe2 O3 2.027024 1_555
Fe2 O6 2.043264 1_555
Fe2 O9 2.052747 1_555
Fe3 O8 1.979252 1_545
Fe3 O8 1.979252 1_455
Fe3 O6 2.017461 1_445
Fe3 O10 2.089721 1_555
Fe3 O9 2.096618 1_445
Fe3 O5 2.179775 1_555
Fe4 O7 1.958970 1_555
Fe4 O11 1.994082 1_655
Fe4 O11 1.994082 1_565
Fe4 O12 2.034047 1_554
Fe4 O14 2.069207 1_554
Fe4 O9 2.098952 1_555
Fe5 O13 1.972848 1_455
Fe5 O13 1.972848 1_545
Fe5 O10 2.002284 1_555
Fe5 O14 2.002284 1_444
Fe5 O1 2.081749 1_554
Fe5 O9 2.081749 1_445
Fe6 O0 1.958970 1_555
Fe6 O12 1.994082 1_545
Fe6 O12 1.994082 1_455
Fe6 O11 2.034047 1_556
Fe6 O10 2.069207 1_556
Fe6 O1 2.098952 1_555
