# generated using pymatgen
data_Li3Ti2(FeO4)2
_symmetry_space_group_name_H-M   'P 1'
_cell_length_a   5.98514787
_cell_length_b   5.99895181
_cell_length_c   5.96200542
_cell_angle_alpha   60.38128789
_cell_angle_beta   60.43875146
_cell_angle_gamma   90.93464016
_symmetry_Int_Tables_number   1
_chemical_formula_structural   Li3Ti2(FeO4)2
_chemical_formula_sum   'Li3 Ti2 Fe2 O8'
_cell_volume   151.98845655
_cell_formula_units_Z   1
loop_
 _symmetry_equiv_pos_site_id
 _symmetry_equiv_pos_as_xyz
  1  'x, y, z'
loop_
 _atom_site_type_symbol
 _atom_site_label
 _atom_site_symmetry_multiplicity
 _atom_site_fract_x
 _atom_site_fract_y
 _atom_site_fract_z
 _atom_site_occupancy
  Li  Li0  1  0.00000000  0.50000000  0.00000000  1
  Li  Li1  1  0.50000000  0.00000000  0.50000000  1
  Li  Li2  1  0.50000000  0.50000000  0.00000000  1
  Ti  Ti0  1  0.00000000  0.00000000  0.50000000  1
  Ti  Ti1  1  0.00000000  0.00000000  0.00000000  1
  Fe  Fe0  1  0.00000000  0.50000000  0.50000000  1
  Fe  Fe1  1  0.50000000  0.00000000  0.00000000  1
  O  O0  1  0.23120500  0.77329700  0.48503200  1
  O  O1  1  0.77551900  0.77811900  0.96859000  1
  O  O2  1  0.23281000  0.76408000  0.00922000  1
  O  O3  1  0.22064700  0.22429900  0.52658500  1
  O  O4  1  0.77935300  0.77570100  0.47341500  1
  O  O5  1  0.76719000  0.23592000  0.99078000  1
  O  O6  1  0.22448100  0.22188100  0.03141000  1
  O  O7  1  0.76879500  0.22670300  0.51496800  1
loop_
_geom_bond_atom_site_label_1
_geom_bond_atom_site_label_2
_geom_bond_distance
_geom_bond_site_symmetry_2
Li0 O2 2.131650 1_555
Li0 O5 2.131650 1_454
Li0 O6 2.153228 1_555
Li0 O1 2.153228 1_454
Li0 O7 2.188053 1_455
Li0 O0 2.188053 1_554
Li1 O7 2.153118 1_555
Li1 O0 2.153118 1_545
Li1 O3 2.157278 1_555
Li1 O4 2.157278 1_545
Li1 O5 2.160099 1_554
Li1 O2 2.160099 1_546
Li2 O1 2.198792 1_554
Li2 O6 2.198792 1_555
Li2 O3 2.232778 1_555
Li2 O4 2.232778 1_554
Li2 O5 2.269815 1_554
Li2 O2 2.269815 1_555
Fe0 O7 2.066476 1_455
Fe0 O0 2.066476 1_555
Fe0 O5 2.082326 1_455
Fe0 O2 2.082326 1_555
Fe0 O3 2.126789 1_555
Fe0 O4 2.126789 1_455
Fe1 O0 2.061781 1_545
Fe1 O7 2.061781 1_554
Fe1 O2 2.079879 1_545
Fe1 O5 2.079879 1_554
Fe1 O6 2.130571 1_555
Fe1 O1 2.130571 1_544
O0 Ti0 1.957527 1_565
O1 Ti0 1.985989 1_665
O1 Ti1 2.012015 1_666
O2 Ti1 2.002649 1_565
O3 Ti0 1.984696 1_555
O3 Ti1 2.007792 1_556
O4 Ti0 1.984696 1_665
O4 Ti1 2.007792 1_665
O5 Ti1 2.002649 1_656
O6 Ti0 1.985989 1_555
O6 Ti1 2.012015 1_555
O7 Ti0 1.957527 1_655
