# generated using pymatgen
data_V4O7
_symmetry_space_group_name_H-M   'P 1'
_cell_length_a   5.84422841
_cell_length_b   6.27035250
_cell_length_c   7.68407628
_cell_angle_alpha   74.37261580
_cell_angle_beta   74.91186961
_cell_angle_gamma   81.30329589
_symmetry_Int_Tables_number   1
_chemical_formula_structural   V4O7
_chemical_formula_sum   'V8 O14'
_cell_volume   260.83093706
_cell_formula_units_Z   2
loop_
 _symmetry_equiv_pos_site_id
 _symmetry_equiv_pos_as_xyz
  1  'x, y, z'
loop_
 _atom_site_type_symbol
 _atom_site_label
 _atom_site_symmetry_multiplicity
 _atom_site_fract_x
 _atom_site_fract_y
 _atom_site_fract_z
 _atom_site_occupancy
  V  V0  1  0.65337800  0.09651400  0.28893000  1
  V  V1  1  0.34662000  0.90346700  0.71107500  1
  V  V2  1  0.47379400  0.41393300  0.83754600  1
  V  V3  1  0.52623800  0.58603700  0.16244200  1
  V  V4  1  0.09893100  0.24660600  0.25944400  1
  V  V5  1  0.90104100  0.75339500  0.74064700  1
  V  V6  1  0.16238700  0.33716800  0.60661900  1
  V  V7  1  0.83758200  0.66281500  0.39339600  1
  O  O0  1  0.76476600  0.36908700  0.33634900  1
  O  O1  1  0.23522100  0.63093300  0.66362200  1
  O  O2  1  0.17591500  0.51158400  0.33386200  1
  O  O3  1  0.82404900  0.48840300  0.66617000  1
  O  O4  1  0.57971800  0.81200200  0.26705800  1
  O  O5  1  0.42026900  0.18798400  0.73296000  1
  O  O6  1  0.82882900  0.67079900  0.97310600  1
  O  O7  1  0.17122500  0.32925600  0.02681800  1
  O  O8  1  0.67908300  0.88376000  0.56654400  1
  O  O9  1  0.32094200  0.11624500  0.43345400  1
  O  O10  1  0.40115600  0.71283600  0.92248100  1
  O  O11  1  0.59886800  0.28717000  0.07747900  1
  O  O12  1  0.03041600  0.03069800  0.72593500  1
  O  O13  1  0.96957200  0.96930300  0.27407100  1
loop_
_geom_bond_atom_site_label_1
_geom_bond_atom_site_label_2
_geom_bond_distance
_geom_bond_site_symmetry_2
O0 V4 1.985730 1_655
O0 V0 2.067153 1_555
O0 V7 2.129436 1_555
O0 V3 2.235289 1_555
O1 V5 1.985901 1_455
O1 V1 2.067085 1_555
O1 V6 2.129531 1_555
O1 V2 2.235658 1_555
O2 V4 2.040072 1_555
O2 V7 2.052796 1_455
O2 V6 2.073647 1_555
O2 V3 2.167591 1_555
O3 V5 2.040425 1_555
O3 V6 2.052843 1_655
O3 V7 2.073748 1_555
O3 V2 2.167184 1_555
O4 V3 1.905210 1_555
O4 V0 1.956434 1_565
O4 V7 1.983601 1_555
O5 V2 1.905070 1_555
O5 V1 1.956478 1_545
O5 V6 1.983696 1_555
O6 V5 1.676960 1_555
O6 V3 2.013608 1_556
O7 V4 1.678167 1_555
O7 V2 2.013198 1_554
O8 V1 1.975300 1_555
O8 V5 2.033283 1_555
O8 V7 2.123897 1_555
O8 V0 2.219424 1_565
O9 V0 1.975162 1_555
O9 V4 2.033001 1_555
O9 V6 2.123940 1_555
O9 V1 2.219482 1_545
O10 V1 1.810372 1_555
O10 V3 2.074255 1_556
O10 V2 2.095962 1_555
O11 V0 1.810651 1_555
O11 V2 2.074021 1_554
O11 V3 2.095857 1_555
O12 V1 1.886233 1_545
O12 V5 1.963420 1_445
O12 V6 2.063765 1_555
O13 V0 1.886144 1_565
O13 V4 1.963556 1_665
O13 V7 2.063914 1_555
