# generated using pymatgen
data_Li2Ti2Mn5O12
_symmetry_space_group_name_H-M   'P 1'
_cell_length_a   9.11311500
_cell_length_b   5.09141000
_cell_length_c   10.36222361
_cell_angle_alpha   78.26406995
_cell_angle_beta   90.00000000
_cell_angle_gamma   90.00000000
_symmetry_Int_Tables_number   1
_chemical_formula_structural   Li2Ti2Mn5O12
_chemical_formula_sum   'Li4 Ti4 Mn10 O24'
_cell_volume   470.74196368
_cell_formula_units_Z   2
loop_
 _symmetry_equiv_pos_site_id
 _symmetry_equiv_pos_as_xyz
  1  'x, y, z'
loop_
 _atom_site_type_symbol
 _atom_site_label
 _atom_site_symmetry_multiplicity
 _atom_site_fract_x
 _atom_site_fract_y
 _atom_site_fract_z
 _atom_site_occupancy
  Li  Li0  1  0.91649700  0.49551100  0.26615600  1
  Li  Li1  1  0.57594400  0.74539000  0.49582200  1
  Li  Li2  1  0.41649700  0.50448900  0.73384400  1
  Li  Li3  1  0.07594400  0.25461000  0.50417800  1
  Ti  Ti0  1  0.75001700  0.23801800  0.50799300  1
  Ti  Ti1  1  0.74921200  0.75805900  0.99321200  1
  Ti  Ti2  1  0.24921200  0.24194100  0.00678800  1
  Ti  Ti3  1  0.25001700  0.76198200  0.49200700  1
  Mn  Mn0  1  0.91676800  0.24790600  0.00981100  1
  Mn  Mn1  1  0.92512800  0.75506100  0.49556200  1
  Mn  Mn2  1  0.72380000  0.99497300  0.26400900  1
  Mn  Mn3  1  0.58081300  0.24536500  0.99749700  1
  Mn  Mn4  1  0.75500100  0.50606200  0.73868500  1
  Mn  Mn5  1  0.42512800  0.24493900  0.50443800  1
  Mn  Mn6  1  0.41676800  0.75209400  0.99018900  1
  Mn  Mn7  1  0.22380000  0.00502700  0.73599100  1
  Mn  Mn8  1  0.25500100  0.49393800  0.26131500  1
  Mn  Mn9  1  0.08081300  0.75463500  0.00250300  1
  O  O0  1  0.89715000  0.11904000  0.38913500  1
  O  O1  1  0.88925500  0.87902900  0.11100400  1
  O  O2  1  0.77498800  0.87783500  0.60517400  1
  O  O3  1  0.73724000  0.11651800  0.89281200  1
  O  O4  1  0.91411400  0.61586100  0.90428300  1
  O  O5  1  0.90293900  0.40101600  0.60406900  1
  O  O6  1  0.59009900  0.13565000  0.40325900  1
  O  O7  1  0.77471500  0.62491800  0.38952000  1
  O  O8  1  0.58038900  0.87766800  0.09493100  1
  O  O9  1  0.76371700  0.37642600  0.11304300  1
  O  O10  1  0.60297500  0.59879500  0.88756300  1
  O  O11  1  0.58855400  0.36783200  0.60793000  1
  O  O12  1  0.38925500  0.12097100  0.88899600  1
  O  O13  1  0.39715000  0.88096000  0.61086500  1
  O  O14  1  0.27498800  0.12216500  0.39482600  1
  O  O15  1  0.40293900  0.59898400  0.39593100  1
  O  O16  1  0.23724000  0.88348200  0.10718800  1
  O  O17  1  0.41411400  0.38413900  0.09571700  1
  O  O18  1  0.08038900  0.12233200  0.90506900  1
  O  O19  1  0.27471500  0.37508200  0.61048000  1
  O  O20  1  0.09009900  0.86435000  0.59674100  1
  O  O21  1  0.26371700  0.62357400  0.88695700  1
  O  O22  1  0.08855400  0.63216800  0.39207000  1
  O  O23  1  0.10297500  0.40120500  0.11243700  1
loop_
_geom_bond_atom_site_label_1
_geom_bond_atom_site_label_2
_geom_bond_distance
_geom_bond_site_symmetry_2
Li0 O7 2.019976 1_555
Li0 O0 2.082153 1_555
Li0 O22 2.239268 1_655
Li0 O1 2.276433 1_555
Li0 O9 2.283576 1_555
Li0 O23 2.442715 1_655
Li1 O6 2.027164 1_565
Li1 O11 2.037041 1_555
Li1 O15 2.103960 1_555
Li1 O13 2.210683 1_555
Li1 O7 2.268411 1_555
Li1 O2 2.310805 1_555
Li2 O19 2.019976 1_555
Li2 O13 2.082153 1_555
Li2 O11 2.239268 1_555
Li2 O12 2.276433 1_555
Li2 O21 2.283576 1_555
Li2 O10 2.442715 1_555
Li3 O20 2.027164 1_545
Li3 O22 2.037041 1_555
Li3 O5 2.103960 1_455
Li3 O0 2.210683 1_455
Li3 O19 2.268411 1_555
Li3 O14 2.310805 1_555
Mn0 O9 1.950024 1_555
Mn0 O4 1.967901 1_554
Mn0 O1 1.971936 1_545
Mn0 O18 2.022976 1_654
Mn0 O3 2.218997 1_554
Mn0 O23 2.226498 1_655
Mn1 O5 1.931303 1_555
Mn1 O7 1.954886 1_555
Mn1 O2 1.960039 1_555
Mn1 O0 1.970802 1_565
Mn1 O20 1.976456 1_655
Mn1 O22 2.008132 1_655
Mn2 O7 2.111821 1_555
Mn2 O6 2.121341 1_565
Mn2 O0 2.215617 1_565
Mn2 O9 2.261736 1_565
Mn2 O1 2.348708 1_555
Mn2 O8 2.357968 1_555
Mn3 O10 1.934588 1_555
Mn3 O8 1.937836 1_546
Mn3 O3 1.982101 1_555
Mn3 O17 2.033578 1_556
Mn3 O9 2.232073 1_556
Mn3 O12 2.236583 1_555
Mn4 O5 2.086366 1_555
Mn4 O2 2.112995 1_555
Mn4 O10 2.195128 1_555
Mn4 O11 2.240503 1_555
Mn4 O3 2.285156 1_555
Mn4 O4 2.397880 1_555
Mn5 O15 1.931303 1_555
Mn5 O19 1.954886 1_555
Mn5 O14 1.960039 1_555
Mn5 O13 1.970802 1_545
Mn5 O6 1.976456 1_555
Mn5 O11 2.008132 1_555
Mn6 O21 1.950024 1_555
Mn6 O17 1.967901 1_556
Mn6 O12 1.971936 1_565
Mn6 O8 2.022976 1_556
Mn6 O16 2.218997 1_556
Mn6 O10 2.226498 1_555
Mn7 O19 2.111821 1_555
Mn7 O20 2.121341 1_545
Mn7 O13 2.215617 1_545
Mn7 O21 2.261736 1_545
Mn7 O12 2.348708 1_555
Mn7 O18 2.357968 1_555
Mn8 O15 2.086366 1_555
Mn8 O14 2.112995 1_555
Mn8 O23 2.195128 1_555
Mn8 O22 2.240503 1_555
Mn8 O16 2.285156 1_555
Mn8 O17 2.397880 1_555
Mn9 O23 1.934588 1_555
Mn9 O18 1.937836 1_564
Mn9 O16 1.982101 1_555
Mn9 O4 2.033578 1_454
Mn9 O21 2.232073 1_554
Mn9 O1 2.236583 1_455
O0 Ti0 1.996305 1_555
O1 Ti1 1.950322 1_554
O2 Ti0 1.917702 1_565
O3 Ti1 1.911206 1_545
O4 Ti1 1.975613 1_555
O5 Ti0 1.989490 1_555
O6 Ti0 1.950244 1_555
O7 Ti0 2.110539 1_555
O8 Ti1 2.027303 1_554
O9 Ti1 2.086450 1_554
O10 Ti1 1.998291 1_555
O11 Ti0 1.988161 1_555
O12 Ti2 1.950322 1_556
O13 Ti3 1.996305 1_555
O14 Ti3 1.917702 1_545
O15 Ti3 1.989490 1_555
O16 Ti2 1.911206 1_565
O17 Ti2 1.975613 1_555
O18 Ti2 2.027303 1_556
O19 Ti3 2.110539 1_555
O20 Ti3 1.950244 1_555
O21 Ti2 2.086450 1_556
O22 Ti3 1.988161 1_555
O23 Ti2 1.998291 1_555
