# generated using pymatgen
data_Mn2Fe3Cu(PO4)6
_symmetry_space_group_name_H-M   'P 1'
_cell_length_a   8.54793071
_cell_length_b   8.54793104
_cell_length_c   8.54793022
_cell_angle_alpha   60.82612711
_cell_angle_beta   60.82613067
_cell_angle_gamma   60.82612610
_symmetry_Int_Tables_number   1
_chemical_formula_structural   Mn2Fe3Cu(PO4)6
_chemical_formula_sum   'Mn2 Fe3 Cu1 P6 O24'
_cell_volume   449.86740073
_cell_formula_units_Z   1
loop_
 _symmetry_equiv_pos_site_id
 _symmetry_equiv_pos_as_xyz
  1  'x, y, z'
loop_
 _atom_site_type_symbol
 _atom_site_label
 _atom_site_symmetry_multiplicity
 _atom_site_fract_x
 _atom_site_fract_y
 _atom_site_fract_z
 _atom_site_occupancy
  Mn  Mn0  1  0.99934900  0.99934900  0.99934900  1
  Mn  Mn1  1  0.49967600  0.49967600  0.49967600  1
  Fe  Fe0  1  0.14491600  0.14491600  0.14491600  1
  Fe  Fe1  1  0.35377100  0.35377100  0.35377100  1
  Fe  Fe2  1  0.64524600  0.64524600  0.64524600  1
  Cu  Cu0  1  0.85487700  0.85487700  0.85487700  1
  P  P0  1  0.04557600  0.74988700  0.45486600  1
  P  P1  1  0.45486600  0.04557600  0.74988700  1
  P  P2  1  0.74988700  0.45486600  0.04557600  1
  P  P3  1  0.24968100  0.54447000  0.95408200  1
  P  P4  1  0.54447000  0.95408200  0.24968100  1
  P  P5  1  0.95408200  0.24968100  0.54447000  1
  O  O0  1  0.10957100  0.31821600  0.50362400  1
  O  O1  1  0.31821600  0.50362400  0.10957100  1
  O  O2  1  0.05845900  0.91014500  0.25756800  1
  O  O3  1  0.50362400  0.10957100  0.31821600  1
  O  O4  1  0.01685000  0.81320200  0.60929000  1
  O  O5  1  0.24361100  0.58957300  0.43705100  1
  O  O6  1  0.25756800  0.05845900  0.91014500  1
  O  O7  1  0.43705100  0.24361100  0.58957300  1
  O  O8  1  0.18309100  0.38876800  0.99382600  1
  O  O9  1  0.58957300  0.43705100  0.24361100  1
  O  O10  1  0.08925500  0.74152900  0.94490500  1
  O  O11  1  0.38876800  0.99382600  0.18309100  1
  O  O12  1  0.60929000  0.01685000  0.81320200  1
  O  O13  1  0.91014500  0.25756800  0.05845900  1
  O  O14  1  0.40945600  0.55982600  0.75654800  1
  O  O15  1  0.81320200  0.60929000  0.01685000  1
  O  O16  1  0.55982600  0.75654800  0.40945600  1
  O  O17  1  0.74152900  0.94490500  0.08925500  1
  O  O18  1  0.75654800  0.40945600  0.55982600  1
  O  O19  1  0.99382600  0.18309100  0.38876800  1
  O  O20  1  0.49687300  0.88879100  0.68357700  1
  O  O21  1  0.94490500  0.08925500  0.74152900  1
  O  O22  1  0.68357700  0.49687300  0.88879100  1
  O  O23  1  0.88879100  0.68357700  0.49687300  1
loop_
_geom_bond_atom_site_label_1
_geom_bond_atom_site_label_2
_geom_bond_distance
_geom_bond_site_symmetry_2
Mn0 O21 2.159647 1_565
Mn0 O10 2.159647 1_655
Mn0 O17 2.159647 1_556
Mn0 O2 2.186196 1_656
Mn0 O13 2.186196 1_566
Mn0 O6 2.186196 1_665
Mn1 O14 2.177958 1_555
Mn1 O18 2.177958 1_555
Mn1 O16 2.177959 1_555
Mn1 O9 2.183921 1_555
Mn1 O5 2.183921 1_555
Mn1 O7 2.183921 1_555
Fe0 O11 1.935725 1_545
Fe0 O19 1.935725 1_455
Fe0 O8 1.935725 1_554
Fe0 O13 2.090171 1_455
Fe0 O6 2.090171 1_554
Fe0 O2 2.090171 1_545
Fe1 O1 1.929404 1_555
Fe1 O3 1.929404 1_555
Fe1 O0 1.929404 1_555
Fe1 O7 2.085938 1_555
Fe1 O5 2.085938 1_555
Fe1 O9 2.085938 1_555
Fe2 O22 1.932762 1_555
Fe2 O20 1.932763 1_555
Fe2 O23 1.932763 1_555
Fe2 O16 2.094905 1_555
Fe2 O18 2.094905 1_555
Fe2 O14 2.094905 1_555
Cu0 O12 1.966049 1_565
Cu0 O4 1.966049 1_655
Cu0 O15 1.966049 1_556
Cu0 O10 2.104400 1_655
Cu0 O17 2.104400 1_556
Cu0 O21 2.104400 1_565
O0 P5 1.529350 1_455
O1 P3 1.529350 1_554
O2 P0 1.564159 1_555
O3 P4 1.529350 1_545
O4 P0 1.531845 1_555
O5 P0 1.567538 1_555
O6 P1 1.564159 1_555
O7 P1 1.567538 1_555
O8 P3 1.523161 1_555
O9 P2 1.567538 1_555
O10 P3 1.564636 1_555
O11 P4 1.523161 1_555
O12 P1 1.531845 1_555
O13 P2 1.564159 1_555
O14 P3 1.563330 1_555
O15 P2 1.531845 1_555
O16 P4 1.563330 1_555
O17 P4 1.564636 1_555
O18 P5 1.563330 1_555
O19 P5 1.523161 1_555
O20 P1 1.522931 1_565
O21 P5 1.564635 1_555
O22 P2 1.522931 1_556
O23 P0 1.522931 1_655
