# generated using pymatgen
data_NaTiO2
_symmetry_space_group_name_H-M   'P 1'
_cell_length_a   5.44124900
_cell_length_b   6.10252800
_cell_length_c   12.29145600
_cell_angle_alpha   90.00000000
_cell_angle_beta   90.00000000
_cell_angle_gamma   90.00000000
_symmetry_Int_Tables_number   1
_chemical_formula_structural   NaTiO2
_chemical_formula_sum   'Na8 Ti8 O16'
_cell_volume   408.14239812
_cell_formula_units_Z   8
loop_
 _symmetry_equiv_pos_site_id
 _symmetry_equiv_pos_as_xyz
  1  'x, y, z'
loop_
 _atom_site_type_symbol
 _atom_site_label
 _atom_site_symmetry_multiplicity
 _atom_site_fract_x
 _atom_site_fract_y
 _atom_site_fract_z
 _atom_site_occupancy
  Na  Na0  1  0.58768200  0.61283100  0.68598600  1
  Na  Na1  1  0.58768200  0.11283100  0.81401400  1
  Na  Na2  1  0.91231800  0.11283100  0.31401400  1
  Na  Na3  1  0.91231800  0.61283100  0.18598600  1
  Na  Na4  1  0.08768200  0.88716900  0.68598600  1
  Na  Na5  1  0.08768200  0.38716900  0.81401400  1
  Na  Na6  1  0.41231800  0.38716900  0.31401400  1
  Na  Na7  1  0.41231800  0.88716900  0.18598600  1
  Ti  Ti0  1  0.62222100  0.17024900  0.55829700  1
  Ti  Ti1  1  0.62222100  0.67024900  0.94170300  1
  Ti  Ti2  1  0.87777900  0.67024900  0.44170300  1
  Ti  Ti3  1  0.87777900  0.17024900  0.05829700  1
  Ti  Ti4  1  0.12222100  0.82975100  0.94170300  1
  Ti  Ti5  1  0.12222100  0.32975100  0.55829700  1
  Ti  Ti6  1  0.37777900  0.32975100  0.05829700  1
  Ti  Ti7  1  0.37777900  0.82975100  0.44170300  1
  O  O0  1  0.60643100  0.23407700  0.16788000  1
  O  O1  1  0.60643100  0.73407700  0.33212000  1
  O  O2  1  0.79704100  0.85940400  0.04400600  1
  O  O3  1  0.79704100  0.35940400  0.45599400  1
  O  O4  1  0.70295900  0.35940400  0.95599400  1
  O  O5  1  0.70295900  0.85940400  0.54400600  1
  O  O6  1  0.89356900  0.73407700  0.83212000  1
  O  O7  1  0.89356900  0.23407700  0.66788000  1
  O  O8  1  0.10643100  0.76592300  0.33212000  1
  O  O9  1  0.10643100  0.26592300  0.16788000  1
  O  O10  1  0.29704100  0.14059600  0.45599400  1
  O  O11  1  0.29704100  0.64059600  0.04400600  1
  O  O12  1  0.20295900  0.64059600  0.54400600  1
  O  O13  1  0.20295900  0.14059600  0.95599400  1
  O  O14  1  0.39356900  0.26592300  0.66788000  1
  O  O15  1  0.39356900  0.76592300  0.83212000  1
loop_
_geom_bond_atom_site_label_1
_geom_bond_atom_site_label_2
_geom_bond_distance
_geom_bond_site_symmetry_2
Na0 O15 2.283582 1_555
Na0 O14 2.376316 1_555
Na0 O5 2.388125 1_555
Na0 O6 2.558134 1_555
Na0 O12 2.730648 1_555
Na0 O7 2.856948 1_555
Na1 O14 2.283582 1_555
Na1 O15 2.376316 1_545
Na1 O4 2.388125 1_555
Na1 O7 2.558134 1_555
Na1 O13 2.730648 1_555
Na1 O6 2.856948 1_545
Na2 O9 2.283582 1_655
Na2 O8 2.376316 1_645
Na2 O3 2.388125 1_555
Na2 O0 2.558134 1_555
Na2 O10 2.730648 1_655
Na2 O1 2.856948 1_545
Na3 O8 2.283582 1_655
Na3 O9 2.376316 1_655
Na3 O2 2.388125 1_555
Na3 O1 2.558134 1_555
Na3 O11 2.730648 1_655
Na3 O0 2.856948 1_555
Na4 O6 2.283582 1_455
Na4 O7 2.376316 1_465
Na4 O12 2.388125 1_555
Na4 O15 2.558134 1_555
Na4 O5 2.730648 1_455
Na4 O14 2.856948 1_565
Na5 O7 2.283582 1_455
Na5 O6 2.376316 1_455
Na5 O13 2.388125 1_555
Na5 O14 2.558134 1_555
Na5 O4 2.730648 1_455
Na5 O15 2.856948 1_555
Na6 O0 2.283582 1_555
Na6 O1 2.376316 1_555
Na6 O10 2.388125 1_555
Na6 O9 2.558134 1_555
Na6 O3 2.730648 1_555
Na6 O8 2.856948 1_555
Na7 O1 2.283582 1_555
Na7 O0 2.376316 1_565
Na7 O11 2.388125 1_555
Na7 O8 2.558134 1_555
Na7 O2 2.730648 1_555
Na7 O9 2.856948 1_565
O0 Ti6 1.924327 1_555
O0 Ti3 2.036154 1_555
O1 Ti7 1.924327 1_555
O1 Ti2 2.036154 1_555
O2 Ti1 1.954100 1_554
O2 Ti3 1.955054 1_565
O2 Ti4 2.178224 1_654
O3 Ti0 1.954100 1_555
O3 Ti2 1.955054 1_555
O3 Ti5 2.178224 1_655
O4 Ti3 1.954100 1_556
O4 Ti1 1.955054 1_555
O4 Ti6 2.178224 1_556
O5 Ti2 1.954100 1_555
O5 Ti0 1.955054 1_565
O5 Ti7 2.178224 1_555
O6 Ti4 1.924327 1_655
O6 Ti1 2.036154 1_555
O7 Ti5 1.924327 1_655
O7 Ti0 2.036154 1_555
O8 Ti2 1.924327 1_455
O8 Ti7 2.036154 1_555
O9 Ti3 1.924327 1_455
O9 Ti6 2.036154 1_555
O10 Ti5 1.954100 1_555
O10 Ti7 1.955054 1_545
O10 Ti0 2.178224 1_555
O11 Ti4 1.954100 1_554
O11 Ti6 1.955054 1_555
O11 Ti1 2.178224 1_554
O12 Ti7 1.954100 1_555
O12 Ti5 1.955054 1_555
O12 Ti2 2.178224 1_455
O13 Ti6 1.954100 1_556
O13 Ti4 1.955054 1_545
O13 Ti3 2.178224 1_456
O14 Ti0 1.924327 1_555
O14 Ti5 2.036154 1_555
O15 Ti1 1.924327 1_555
O15 Ti4 2.036154 1_555
