# generated using pymatgen
data_UP3H10ClO8
_symmetry_space_group_name_H-M   'P 1'
_cell_length_a   7.73934700
_cell_length_b   10.29865300
_cell_length_c   14.96050000
_cell_angle_alpha   90.00000000
_cell_angle_beta   90.00000000
_cell_angle_gamma   90.00000000
_symmetry_Int_Tables_number   1
_chemical_formula_structural   UP3H10ClO8
_chemical_formula_sum   'U4 P12 H40 Cl4 O32'
_cell_volume   1192.42439645
_cell_formula_units_Z   4
loop_
 _symmetry_equiv_pos_site_id
 _symmetry_equiv_pos_as_xyz
  1  'x, y, z'
loop_
 _atom_site_type_symbol
 _atom_site_label
 _atom_site_symmetry_multiplicity
 _atom_site_fract_x
 _atom_site_fract_y
 _atom_site_fract_z
 _atom_site_occupancy
  U  U0  1  0.19786200  0.43421600  0.75000000  1
  U  U1  1  0.80213800  0.56578400  0.25000000  1
  U  U2  1  0.19786200  0.06578400  0.25000000  1
  U  U3  1  0.80213800  0.93421600  0.75000000  1
  P  P0  1  0.65073300  0.28543300  0.75000000  1
  P  P1  1  0.34926700  0.71456700  0.25000000  1
  P  P2  1  0.65073300  0.21456700  0.25000000  1
  P  P3  1  0.34926700  0.78543300  0.75000000  1
  P  P4  1  0.11841400  0.12980400  0.88706400  1
  P  P5  1  0.88158600  0.87019600  0.38706400  1
  P  P6  1  0.11841400  0.37019600  0.11293600  1
  P  P7  1  0.88158600  0.62980400  0.61293600  1
  P  P8  1  0.88158600  0.87019600  0.11293600  1
  P  P9  1  0.11841400  0.12980400  0.61293600  1
  P  P10  1  0.88158600  0.62980400  0.88706400  1
  P  P11  1  0.11841400  0.37019600  0.38706400  1
  H  H0  1  0.73132300  0.34186200  0.67471400  1
  H  H1  1  0.26867700  0.65813800  0.17471400  1
  H  H2  1  0.73132300  0.15813800  0.32528600  1
  H  H3  1  0.26867700  0.84186200  0.82528600  1
  H  H4  1  0.26867700  0.65813800  0.32528600  1
  H  H5  1  0.73132300  0.34186200  0.82528600  1
  H  H6  1  0.26867700  0.84186200  0.67471400  1
  H  H7  1  0.73132300  0.15813800  0.17471400  1
  H  H8  1  0.29094700  0.08500400  0.88776300  1
  H  H9  1  0.70905300  0.91499600  0.38776300  1
  H  H10  1  0.29094700  0.41499600  0.11223700  1
  H  H11  1  0.70905300  0.58500400  0.61223700  1
  H  H12  1  0.70905300  0.91499600  0.11223700  1
  H  H13  1  0.29094700  0.08500400  0.61223700  1
  H  H14  1  0.70905300  0.58500400  0.88776300  1
  H  H15  1  0.29094700  0.41499600  0.38776300  1
  H  H16  1  0.06970400  0.13905400  0.97792600  1
  H  H17  1  0.93029600  0.86094600  0.47792600  1
  H  H18  1  0.06970400  0.36094600  0.02207400  1
  H  H19  1  0.93029600  0.63905400  0.52207400  1
  H  H20  1  0.93029600  0.86094600  0.02207400  1
  H  H21  1  0.06970400  0.13905400  0.52207400  1
  H  H22  1  0.93029600  0.63905400  0.97792600  1
  H  H23  1  0.06970400  0.36094600  0.47792600  1
  H  H24  1  0.39514500  0.55533900  0.91755500  1
  H  H25  1  0.60485500  0.44466100  0.41755500  1
  H  H26  1  0.39514500  0.94466100  0.08244500  1
  H  H27  1  0.60485500  0.05533900  0.58244500  1
  H  H28  1  0.60485500  0.44466100  0.08244500  1
  H  H29  1  0.39514500  0.55533900  0.58244500  1
  H  H30  1  0.60485500  0.05533900  0.91755500  1
  H  H31  1  0.39514500  0.94466100  0.41755500  1
  H  H32  1  0.42381100  0.40072600  0.91825200  1
  H  H33  1  0.57618900  0.59927400  0.41825200  1
  H  H34  1  0.42381100  0.09927400  0.08174800  1
  H  H35  1  0.57618900  0.90072600  0.58174800  1
  H  H36  1  0.57618900  0.59927400  0.08174800  1
  H  H37  1  0.42381100  0.40072600  0.58174800  1
  H  H38  1  0.57618900  0.90072600  0.91825200  1
  H  H39  1  0.42381100  0.09927400  0.41825200  1
  Cl  Cl0  1  0.55812300  0.25000000  0.00000000  1
  Cl  Cl1  1  0.44187700  0.75000000  0.50000000  1
  Cl  Cl2  1  0.44187700  0.75000000  0.00000000  1
  Cl  Cl3  1  0.55812300  0.25000000  0.50000000  1
  O  O0  1  0.45881400  0.32063300  0.75000000  1
  O  O1  1  0.54118600  0.67936700  0.25000000  1
  O  O2  1  0.45881400  0.17936700  0.25000000  1
  O  O3  1  0.54118600  0.82063300  0.75000000  1
  O  O4  1  0.69217800  0.14024900  0.75000000  1
  O  O5  1  0.30782200  0.85975100  0.25000000  1
  O  O6  1  0.69217800  0.35975100  0.25000000  1
  O  O7  1  0.30782200  0.64024900  0.75000000  1
  O  O8  1  0.11504500  0.26538100  0.84557700  1
  O  O9  1  0.88495500  0.73461900  0.34557700  1
  O  O10  1  0.11504500  0.23461900  0.15442300  1
  O  O11  1  0.88495500  0.76538100  0.65442300  1
  O  O12  1  0.88495500  0.73461900  0.15442300  1
  O  O13  1  0.11504500  0.26538100  0.65442300  1
  O  O14  1  0.88495500  0.76538100  0.84557700  1
  O  O15  1  0.11504500  0.23461900  0.34557700  1
  O  O16  1  0.00798400  0.02505100  0.84327000  1
  O  O17  1  0.99201600  0.97494900  0.34327000  1
  O  O18  1  0.00798400  0.47494900  0.15673000  1
  O  O19  1  0.99201600  0.52505100  0.65673000  1
  O  O20  1  0.99201600  0.97494900  0.15673000  1
  O  O21  1  0.00798400  0.02505100  0.65673000  1
  O  O22  1  0.99201600  0.52505100  0.84327000  1
  O  O23  1  0.00798400  0.47494900  0.34327000  1
  O  O24  1  0.34930700  0.47217600  0.89564500  1
  O  O25  1  0.65069300  0.52782400  0.39564500  1
  O  O26  1  0.34930700  0.02782400  0.10435500  1
  O  O27  1  0.65069300  0.97217600  0.60435500  1
  O  O28  1  0.65069300  0.52782400  0.10435500  1
  O  O29  1  0.34930700  0.47217600  0.60435500  1
  O  O30  1  0.65069300  0.97217600  0.89564500  1
  O  O31  1  0.34930700  0.02782400  0.39564500  1
loop_
_geom_bond_atom_site_label_1
_geom_bond_atom_site_label_2
_geom_bond_distance
_geom_bond_site_symmetry_2
H0 P0 1.412563 1_555
H1 P1 1.412563 1_555
H2 P2 1.412563 1_555
H3 P3 1.412563 1_555
H4 P1 1.412563 1_555
H5 P0 1.412563 1_555
H6 P3 1.412563 1_555
H7 P2 1.412563 1_555
H8 P4 1.412794 1_555
H9 P5 1.412794 1_555
H10 P6 1.412794 1_555
H11 P7 1.412794 1_555
H12 P8 1.412794 1_555
H13 P9 1.412794 1_555
H14 P10 1.412794 1_555
H15 P11 1.412794 1_555
H16 P4 1.413860 1_555
H17 P5 1.413860 1_555
H18 P6 1.413860 1_555
H19 P7 1.413860 1_555
H20 P8 1.413860 1_555
H21 P9 1.413860 1_555
H22 P10 1.413860 1_555
H23 P11 1.413860 1_555
H24 O24 0.983275 1_555
H25 O25 0.983275 1_555
H26 O26 0.983275 1_565
H27 O27 0.983275 1_545
H28 O28 0.983275 1_555
H29 O29 0.983275 1_555
H30 O30 0.983275 1_545
H31 O31 0.983275 1_565
H32 O24 0.994147 1_555
H33 O25 0.994147 1_555
H34 O26 0.994147 1_555
H35 O27 0.994147 1_555
H36 O28 0.994147 1_555
H37 O29 0.994147 1_555
H38 O30 0.994147 1_555
H39 O31 0.994147 1_555
O0 P0 1.528926 1_555
O0 U0 2.333901 1_555
O1 P1 1.528926 1_555
O1 U1 2.333901 1_555
O2 P2 1.528926 1_555
O2 U2 2.333901 1_555
O3 P3 1.528926 1_555
O3 U3 2.333901 1_555
O4 P0 1.529218 1_555
O4 U3 2.286161 1_545
O5 P1 1.529218 1_555
O5 U2 2.286161 1_565
O6 P2 1.529218 1_555
O6 U1 2.286161 1_555
O7 P3 1.529218 1_555
O7 U0 2.286161 1_555
O8 P4 1.528218 1_555
O8 U0 2.340663 1_555
O9 P5 1.528218 1_555
O9 U1 2.340663 1_555
O10 P6 1.528218 1_555
O10 U2 2.340663 1_555
O11 P7 1.528218 1_555
O11 U3 2.340663 1_555
O12 P8 1.528218 1_555
O12 U1 2.340663 1_555
O13 P9 1.528218 1_555
O13 U0 2.340663 1_555
O14 P10 1.528218 1_555
O14 U3 2.340663 1_555
O15 P11 1.528218 1_555
O15 U2 2.340663 1_555
O16 P4 1.524316 1_555
O16 U3 2.315205 1_445
O17 P5 1.524316 1_555
O17 U2 2.315205 1_665
O18 P6 1.524316 1_555
O18 U1 2.315205 1_455
O19 P7 1.524316 1_555
O19 U0 2.315205 1_655
O20 P8 1.524316 1_555
O20 U2 2.315205 1_665
O21 P9 1.524316 1_555
O21 U3 2.315205 1_445
O22 P10 1.524316 1_555
O22 U0 2.315205 1_655
O23 P11 1.524316 1_555
O23 U1 2.315205 1_455
O24 U0 2.504859 1_555
O25 U1 2.504859 1_555
O26 U2 2.504859 1_555
O27 U3 2.504859 1_555
O28 U1 2.504859 1_555
O29 U0 2.504859 1_555
O30 U3 2.504859 1_555
O31 U2 2.504859 1_555
