# generated using pymatgen
data_Li2Fe(SO4)2
_symmetry_space_group_name_H-M   'P 1'
_cell_length_a   9.29578400
_cell_length_b   9.40146300
_cell_length_c   13.85871800
_cell_angle_alpha   90.00000000
_cell_angle_beta   90.00000000
_cell_angle_gamma   90.00000000
_symmetry_Int_Tables_number   1
_chemical_formula_structural   Li2Fe(SO4)2
_chemical_formula_sum   'Li16 Fe8 S16 O64'
_cell_volume   1211.16837587
_cell_formula_units_Z   8
loop_
 _symmetry_equiv_pos_site_id
 _symmetry_equiv_pos_as_xyz
  1  'x, y, z'
loop_
 _atom_site_type_symbol
 _atom_site_label
 _atom_site_symmetry_multiplicity
 _atom_site_fract_x
 _atom_site_fract_y
 _atom_site_fract_z
 _atom_site_occupancy
  Li  Li0  1  0.77979200  0.96633600  0.37396300  1
  Li  Li1  1  0.72020800  0.96633600  0.87396300  1
  Li  Li2  1  0.04549100  0.77547300  0.37268500  1
  Li  Li3  1  0.45450900  0.77547300  0.87268500  1
  Li  Li4  1  0.95450900  0.72452700  0.87268500  1
  Li  Li5  1  0.54549100  0.72452700  0.37268500  1
  Li  Li6  1  0.27979200  0.53366400  0.37396300  1
  Li  Li7  1  0.22020800  0.53366400  0.87396300  1
  Li  Li8  1  0.77979200  0.46633600  0.12603700  1
  Li  Li9  1  0.72020800  0.46633600  0.62603700  1
  Li  Li10  1  0.45450900  0.27547300  0.62731500  1
  Li  Li11  1  0.04549100  0.27547300  0.12731500  1
  Li  Li12  1  0.54549100  0.22452700  0.12731500  1
  Li  Li13  1  0.95450900  0.22452700  0.62731500  1
  Li  Li14  1  0.22020800  0.03366400  0.62603700  1
  Li  Li15  1  0.27979200  0.03366400  0.12603700  1
  Fe  Fe0  1  0.89691600  0.86067700  0.12345200  1
  Fe  Fe1  1  0.60308400  0.86067700  0.62345200  1
  Fe  Fe2  1  0.39691600  0.63932300  0.12345200  1
  Fe  Fe3  1  0.10308400  0.63932300  0.62345200  1
  Fe  Fe4  1  0.89691600  0.36067700  0.37654800  1
  Fe  Fe5  1  0.60308400  0.36067700  0.87654800  1
  Fe  Fe6  1  0.39691600  0.13932300  0.37654800  1
  Fe  Fe7  1  0.10308400  0.13932300  0.87654800  1
  S  S0  1  0.93019200  0.92578300  0.72754200  1
  S  S1  1  0.56980800  0.92578300  0.22754200  1
  S  S2  1  0.31245600  0.83920700  0.49067700  1
  S  S3  1  0.18754400  0.83920700  0.99067700  1
  S  S4  1  0.81245600  0.66079300  0.49067700  1
  S  S5  1  0.68754400  0.66079300  0.99067700  1
  S  S6  1  0.06980800  0.57421700  0.22754200  1
  S  S7  1  0.43019200  0.57421700  0.72754200  1
  S  S8  1  0.56980800  0.42578300  0.27245800  1
  S  S9  1  0.93019200  0.42578300  0.77245800  1
  S  S10  1  0.31245600  0.33920700  0.00932300  1
  S  S11  1  0.18754400  0.33920700  0.50932300  1
  S  S12  1  0.81245600  0.16079300  0.00932300  1
  S  S13  1  0.68754400  0.16079300  0.50932300  1
  S  S14  1  0.43019200  0.07421700  0.77245800  1
  S  S15  1  0.06980800  0.07421700  0.27245800  1
  O  O0  1  0.29978100  0.99595100  0.47655600  1
  O  O1  1  0.20021900  0.99595100  0.97655600  1
  O  O2  1  0.00242700  0.98227400  0.34613000  1
  O  O3  1  0.49757300  0.98227400  0.84613000  1
  O  O4  1  0.53784900  0.97465600  0.32881400  1
  O  O5  1  0.96215100  0.97465600  0.82881400  1
  O  O6  1  0.76947700  0.92753600  0.72180200  1
  O  O7  1  0.73052300  0.92753600  0.22180200  1
  O  O8  1  0.26857300  0.81212900  0.08195900  1
  O  O9  1  0.23142700  0.81212900  0.58195900  1
  O  O10  1  0.03402700  0.79519900  0.00325900  1
  O  O11  1  0.46597300  0.79519900  0.50325900  1
  O  O12  1  0.98570500  0.77686900  0.72152200  1
  O  O13  1  0.51429500  0.77686900  0.22152200  1
  O  O14  1  0.25505700  0.75835400  0.40712500  1
  O  O15  1  0.24494300  0.75835400  0.90712500  1
  O  O16  1  0.75505700  0.74164600  0.40712500  1
  O  O17  1  0.74494300  0.74164600  0.90712500  1
  O  O18  1  0.01429500  0.72313100  0.22152200  1
  O  O19  1  0.48570500  0.72313100  0.72152200  1
  O  O20  1  0.96597300  0.70480100  0.50325900  1
  O  O21  1  0.53402700  0.70480100  0.00325900  1
  O  O22  1  0.76857300  0.68787100  0.08195900  1
  O  O23  1  0.73142700  0.68787100  0.58195900  1
  O  O24  1  0.23052300  0.57246400  0.22180200  1
  O  O25  1  0.26947700  0.57246400  0.72180200  1
  O  O26  1  0.46215100  0.52534400  0.82881400  1
  O  O27  1  0.03784900  0.52534400  0.32881400  1
  O  O28  1  0.50242700  0.51772600  0.34613000  1
  O  O29  1  0.99757300  0.51772600  0.84613000  1
  O  O30  1  0.79978100  0.50404900  0.47655600  1
  O  O31  1  0.70021900  0.50404900  0.97655600  1
  O  O32  1  0.29978100  0.49595100  0.02344400  1
  O  O33  1  0.20021900  0.49595100  0.52344400  1
  O  O34  1  0.49757300  0.48227400  0.65387000  1
  O  O35  1  0.00242700  0.48227400  0.15387000  1
  O  O36  1  0.53784900  0.47465600  0.17118600  1
  O  O37  1  0.96215100  0.47465600  0.67118600  1
  O  O38  1  0.73052300  0.42753600  0.27819800  1
  O  O39  1  0.76947700  0.42753600  0.77819800  1
  O  O40  1  0.26857300  0.31212900  0.41804100  1
  O  O41  1  0.23142700  0.31212900  0.91804100  1
  O  O42  1  0.46597300  0.29519900  0.99674100  1
  O  O43  1  0.03402700  0.29519900  0.49674100  1
  O  O44  1  0.51429500  0.27686900  0.27847800  1
  O  O45  1  0.98570500  0.27686900  0.77847800  1
  O  O46  1  0.25505700  0.25835400  0.09287500  1
  O  O47  1  0.24494300  0.25835400  0.59287500  1
  O  O48  1  0.75505700  0.24164600  0.09287500  1
  O  O49  1  0.74494300  0.24164600  0.59287500  1
  O  O50  1  0.48570500  0.22313100  0.77847800  1
  O  O51  1  0.01429500  0.22313100  0.27847800  1
  O  O52  1  0.53402700  0.20480100  0.49674100  1
  O  O53  1  0.96597300  0.20480100  0.99674100  1
  O  O54  1  0.76857300  0.18787100  0.41804100  1
  O  O55  1  0.73142700  0.18787100  0.91804100  1
  O  O56  1  0.26947700  0.07246400  0.77819800  1
  O  O57  1  0.23052300  0.07246400  0.27819800  1
  O  O58  1  0.46215100  0.02534400  0.67118600  1
  O  O59  1  0.03784900  0.02534400  0.17118600  1
  O  O60  1  0.99757300  0.01772600  0.65387000  1
  O  O61  1  0.50242700  0.01772600  0.15387000  1
  O  O62  1  0.79978100  0.00404900  0.02344400  1
  O  O63  1  0.70021900  0.00404900  0.52344400  1
loop_
_geom_bond_atom_site_label_1
_geom_bond_atom_site_label_2
_geom_bond_distance
_geom_bond_site_symmetry_2
Li0 O2 2.110532 1_655
Li0 O54 2.172992 1_565
Li0 O16 2.174024 1_555
Li0 O7 2.188532 1_555
Li0 O63 2.228104 1_565
Li0 O4 2.335777 1_555
Li1 O3 2.110532 1_555
Li1 O55 2.172992 1_565
Li1 O17 2.174024 1_555
Li1 O6 2.188532 1_555
Li1 O62 2.228104 1_566
Li1 O5 2.335777 1_555
Li2 O14 2.012145 1_555
Li2 O2 2.018843 1_555
Li2 O20 2.064571 1_455
Li2 O18 2.171396 1_555
Li2 O27 2.429944 1_555
Li3 O15 2.012145 1_555
Li3 O3 2.018843 1_555
Li3 O21 2.064571 1_556
Li3 O19 2.171396 1_555
Li3 O26 2.429944 1_555
Li4 O17 2.012145 1_555
Li4 O29 2.018843 1_555
Li4 O10 2.064571 1_656
Li4 O12 2.171396 1_555
Li4 O5 2.429944 1_555
Li5 O16 2.012145 1_555
Li5 O28 2.018843 1_555
Li5 O11 2.064571 1_555
Li5 O13 2.171396 1_555
Li5 O4 2.429944 1_555
Li6 O28 2.110532 1_555
Li6 O40 2.172992 1_555
Li6 O14 2.174024 1_555
Li6 O24 2.188532 1_555
Li6 O33 2.228104 1_555
Li6 O27 2.335777 1_555
Li7 O29 2.110532 1_455
Li7 O41 2.172992 1_555
Li7 O15 2.174024 1_555
Li7 O25 2.188532 1_555
Li7 O32 2.228104 1_556
Li7 O26 2.335777 1_555
Li8 O35 2.110532 1_655
Li8 O22 2.172992 1_555
Li8 O48 2.174024 1_555
Li8 O38 2.188532 1_555
Li8 O31 2.228104 1_554
Li8 O36 2.335777 1_555
Li9 O34 2.110532 1_555
Li9 O23 2.172992 1_555
Li9 O49 2.174024 1_555
Li9 O39 2.188532 1_555
Li9 O30 2.228104 1_555
Li9 O37 2.335777 1_555
Li10 O47 2.012145 1_555
Li10 O34 2.018843 1_555
Li10 O52 2.064571 1_555
Li10 O50 2.171396 1_555
Li10 O58 2.429944 1_555
Li11 O46 2.012145 1_555
Li11 O35 2.018843 1_555
Li11 O53 2.064571 1_454
Li11 O51 2.171396 1_555
Li11 O59 2.429944 1_555
Li12 O48 2.012145 1_555
Li12 O61 2.018843 1_555
Li12 O42 2.064571 1_554
Li12 O44 2.171396 1_555
Li12 O36 2.429944 1_555
Li13 O49 2.012145 1_555
Li13 O60 2.018843 1_555
Li13 O43 2.064571 1_655
Li13 O45 2.171396 1_555
Li13 O37 2.429944 1_555
Li14 O60 2.110532 1_455
Li14 O9 2.172992 1_545
Li14 O47 2.174024 1_555
Li14 O56 2.188532 1_555
Li14 O0 2.228104 1_545
Li14 O58 2.335777 1_555
Li15 O61 2.110532 1_555
Li15 O8 2.172992 1_545
Li15 O46 2.174024 1_555
Li15 O57 2.188532 1_555
Li15 O1 2.228104 1_544
Li15 O59 2.335777 1_555
Fe0 O22 2.096057 1_555
Fe0 O59 2.133211 1_665
Fe0 O62 2.133802 1_565
Fe0 O7 2.155303 1_555
Fe0 O18 2.170248 1_655
Fe0 O10 2.185878 1_655
Fe1 O23 2.096057 1_555
Fe1 O58 2.133211 1_565
Fe1 O63 2.133802 1_565
Fe1 O6 2.155303 1_555
Fe1 O19 2.170248 1_555
Fe1 O11 2.185878 1_555
Fe2 O8 2.096057 1_555
Fe2 O36 2.133211 1_555
Fe2 O32 2.133802 1_555
Fe2 O24 2.155303 1_555
Fe2 O13 2.170248 1_555
Fe2 O21 2.185878 1_555
Fe3 O9 2.096057 1_555
Fe3 O37 2.133211 1_455
Fe3 O33 2.133802 1_555
Fe3 O25 2.155303 1_555
Fe3 O12 2.170248 1_455
Fe3 O20 2.185878 1_455
Fe4 O54 2.096057 1_555
Fe4 O27 2.133211 1_655
Fe4 O30 2.133802 1_555
Fe4 O38 2.155303 1_555
Fe4 O51 2.170248 1_655
Fe4 O43 2.185878 1_655
Fe5 O55 2.096057 1_555
Fe5 O26 2.133211 1_555
Fe5 O31 2.133802 1_555
Fe5 O39 2.155303 1_555
Fe5 O50 2.170248 1_555
Fe5 O42 2.185878 1_555
Fe6 O40 2.096057 1_555
Fe6 O4 2.133211 1_545
Fe6 O0 2.133802 1_545
Fe6 O57 2.155303 1_555
Fe6 O44 2.170248 1_555
Fe6 O52 2.185878 1_555
Fe7 O41 2.096057 1_555
Fe7 O5 2.133211 1_445
Fe7 O1 2.133802 1_545
Fe7 O56 2.155303 1_555
Fe7 O45 2.170248 1_455
Fe7 O53 2.185878 1_455
O0 S2 1.491223 1_555
O1 S3 1.491223 1_555
O2 S15 1.477143 1_565
O3 S14 1.477143 1_565
O4 S1 1.506383 1_555
O5 S0 1.506383 1_555
O6 S0 1.496179 1_555
O7 S1 1.496179 1_555
O8 S3 1.494160 1_554
O9 S2 1.494160 1_555
O10 S3 1.496024 1_554
O11 S2 1.496024 1_555
O12 S0 1.494417 1_555
O13 S1 1.494417 1_555
O14 S2 1.484348 1_555
O15 S3 1.484348 1_555
O16 S4 1.484348 1_555
O17 S5 1.484348 1_555
O18 S6 1.494417 1_555
O19 S7 1.494417 1_555
O20 S4 1.496024 1_555
O21 S5 1.496024 1_554
O22 S5 1.494160 1_554
O23 S4 1.494160 1_555
O24 S6 1.496179 1_555
O25 S7 1.496179 1_555
O26 S7 1.506383 1_555
O27 S6 1.506383 1_555
O28 S8 1.477143 1_555
O29 S9 1.477143 1_555
O30 S4 1.491223 1_555
O31 S5 1.491223 1_555
O32 S10 1.491223 1_555
O33 S11 1.491223 1_555
O34 S7 1.477143 1_555
O35 S6 1.477143 1_555
O36 S8 1.506383 1_555
O37 S9 1.506383 1_555
O38 S8 1.496179 1_555
O39 S9 1.496179 1_555
O40 S11 1.494160 1_555
O41 S10 1.494160 1_556
O42 S10 1.496024 1_556
O43 S11 1.496024 1_555
O44 S8 1.494417 1_555
O45 S9 1.494417 1_555
O46 S10 1.484348 1_555
O47 S11 1.484348 1_555
O48 S12 1.484348 1_555
O49 S13 1.484348 1_555
O50 S14 1.494417 1_555
O51 S15 1.494417 1_555
O52 S13 1.496024 1_555
O53 S12 1.496024 1_556
O54 S13 1.494160 1_555
O55 S12 1.494160 1_556
O56 S14 1.496179 1_555
O57 S15 1.496179 1_555
O58 S14 1.506383 1_555
O59 S15 1.506383 1_555
O60 S0 1.477143 1_545
O61 S1 1.477143 1_545
O62 S12 1.491223 1_555
O63 S13 1.491223 1_555
