# generated using pymatgen
data_LiCuPO4
_symmetry_space_group_name_H-M   'P 1'
_cell_length_a   10.54703677
_cell_length_b   10.54703677
_cell_length_c   12.35567300
_cell_angle_alpha   90.00000000
_cell_angle_beta   90.00000000
_cell_angle_gamma   120.00000483
_symmetry_Int_Tables_number   1
_chemical_formula_structural   LiCuPO4
_chemical_formula_sum   'Li12 Cu12 P12 O48'
_cell_volume   1190.30411959
_cell_formula_units_Z   12
loop_
 _symmetry_equiv_pos_site_id
 _symmetry_equiv_pos_as_xyz
  1  'x, y, z'
loop_
 _atom_site_type_symbol
 _atom_site_label
 _atom_site_symmetry_multiplicity
 _atom_site_fract_x
 _atom_site_fract_y
 _atom_site_fract_z
 _atom_site_occupancy
  Li  Li0  1  0.00000000  0.50000000  0.00934400  1
  Li  Li1  1  0.00000000  0.50000000  0.65732200  1
  Li  Li2  1  0.00000000  0.50000000  0.33333300  1
  Li  Li3  1  0.00000000  0.00000000  0.16666700  1
  Li  Li4  1  0.00000000  0.00000000  0.50000000  1
  Li  Li5  1  0.00000000  0.00000000  0.83333300  1
  Li  Li6  1  0.50000000  0.50000000  0.34267800  1
  Li  Li7  1  0.50000000  0.50000000  0.66666700  1
  Li  Li8  1  0.50000000  0.50000000  0.99065600  1
  Li  Li9  1  0.50000000  0.00000000  0.32398900  1
  Li  Li10  1  0.50000000  0.00000000  0.00000000  1
  Li  Li11  1  0.50000000  0.00000000  0.67601100  1
  Cu  Cu0  1  0.00000000  0.74367400  0.83333300  1
  Cu  Cu1  1  0.00000000  0.25632600  0.83333300  1
  Cu  Cu2  1  0.24817700  0.75182300  0.16666700  1
  Cu  Cu3  1  0.24817700  0.49635500  0.50000000  1
  Cu  Cu4  1  0.50364500  0.75182300  0.83333300  1
  Cu  Cu5  1  0.25632600  0.25632600  0.16666700  1
  Cu  Cu6  1  0.25632600  0.00000000  0.50000000  1
  Cu  Cu7  1  0.74367400  0.74367400  0.16666700  1
  Cu  Cu8  1  0.49635500  0.24817700  0.83333300  1
  Cu  Cu9  1  0.75182300  0.50364500  0.50000000  1
  Cu  Cu10  1  0.75182300  0.24817700  0.16666700  1
  Cu  Cu11  1  0.74367400  0.00000000  0.50000000  1
  P  P0  1  0.00000000  0.75643000  0.33333300  1
  P  P1  1  0.24828500  0.75171500  0.66666700  1
  P  P2  1  0.00000000  0.24357000  0.33333300  1
  P  P3  1  0.24828500  0.49657000  0.00000000  1
  P  P4  1  0.24357000  0.24357000  0.66666700  1
  P  P5  1  0.50343000  0.75171500  0.33333300  1
  P  P6  1  0.24357000  0.00000000  0.00000000  1
  P  P7  1  0.49657000  0.24828500  0.33333300  1
  P  P8  1  0.75643000  0.75643000  0.66666700  1
  P  P9  1  0.75171500  0.50343000  0.00000000  1
  P  P10  1  0.75171500  0.24828500  0.66666700  1
  P  P11  1  0.75643000  0.00000000  0.00000000  1
  O  O0  1  0.07233400  0.88084800  0.41815200  1
  O  O1  1  0.11915200  0.92766600  0.91518100  1
  O  O2  1  0.10226800  0.69839200  0.72769000  1
  O  O3  1  0.10748900  0.71512400  0.27916900  1
  O  O4  1  0.28487600  0.89251100  0.05416400  1
  O  O5  1  0.30160800  0.89773200  0.60564400  1
  O  O6  1  0.20467100  0.61857700  0.59247800  1
  O  O7  1  0.10226800  0.40387600  0.93897700  1
  O  O8  1  0.20467100  0.58609400  0.07418800  1
  O  O9  1  0.10748900  0.39236400  0.38749700  1
  O  O10  1  0.07233400  0.19148500  0.24851400  1
  O  O11  1  0.38142300  0.79532900  0.74085500  1
  O  O12  1  0.41390600  0.79532900  0.25914500  1
  O  O13  1  0.11915200  0.19148500  0.75148600  1
  O  O14  1  0.28487600  0.39236400  0.61250300  1
  O  O15  1  0.38142300  0.58609400  0.92581200  1
  O  O16  1  0.30160800  0.40387600  0.06102300  1
  O  O17  1  0.41390600  0.61857700  0.40752200  1
  O  O18  1  0.19148500  0.11915200  0.58184800  1
  O  O19  1  0.19148500  0.07233400  0.08481900  1
  O  O20  1  0.59612400  0.89773200  0.39435600  1
  O  O21  1  0.60763600  0.89251100  0.94583600  1
  O  O22  1  0.60763600  0.71512400  0.72083100  1
  O  O23  1  0.40387600  0.30160800  0.27231000  1
  O  O24  1  0.59612400  0.69839200  0.27231000  1
  O  O25  1  0.39236400  0.28487600  0.72083100  1
  O  O26  1  0.39236400  0.10748900  0.94583600  1
  O  O27  1  0.40387600  0.10226800  0.39435600  1
  O  O28  1  0.80851500  0.92766600  0.08481900  1
  O  O29  1  0.80851500  0.88084800  0.58184800  1
  O  O30  1  0.58609400  0.38142300  0.40752200  1
  O  O31  1  0.69839200  0.59612400  0.06102300  1
  O  O32  1  0.61857700  0.41390600  0.92581200  1
  O  O33  1  0.71512400  0.60763600  0.61250300  1
  O  O34  1  0.88084800  0.80851500  0.75148600  1
  O  O35  1  0.58609400  0.20467100  0.25914500  1
  O  O36  1  0.61857700  0.20467100  0.74085500  1
  O  O37  1  0.92766600  0.80851500  0.24851400  1
  O  O38  1  0.89251100  0.60763600  0.38749700  1
  O  O39  1  0.79532900  0.41390600  0.07418800  1
  O  O40  1  0.89773200  0.59612400  0.93897700  1
  O  O41  1  0.79532900  0.38142300  0.59247800  1
  O  O42  1  0.69839200  0.10226800  0.60564400  1
  O  O43  1  0.71512400  0.10748900  0.05416400  1
  O  O44  1  0.89251100  0.28487600  0.27916900  1
  O  O45  1  0.89773200  0.30160800  0.72769000  1
  O  O46  1  0.88084800  0.07233400  0.91518100  1
  O  O47  1  0.92766600  0.11915200  0.41815200  1
loop_
_geom_bond_atom_site_label_1
_geom_bond_atom_site_label_2
_geom_bond_distance
_geom_bond_site_symmetry_2
Li0 O7 2.010153 1_554
Li0 O40 2.010153 1_454
Li0 O8 2.041115 1_555
Li0 O39 2.041115 1_455
Li1 O2 2.010158 1_555
Li1 O45 2.010158 1_455
Li1 O6 2.041115 1_555
Li1 O41 2.041115 1_455
Li2 O44 2.075783 1_455
Li2 O3 2.075783 1_555
Li2 O38 2.075791 1_455
Li2 O9 2.075791 1_555
Li3 O10 2.035367 1_555
Li3 O37 2.035367 1_445
Li3 O19 2.035373 1_555
Li3 O28 2.035373 1_445
Li4 O18 2.035374 1_555
Li4 O29 2.035374 1_445
Li4 O47 2.035381 1_455
Li4 O0 2.035381 1_545
Li5 O34 2.035368 1_445
Li5 O13 2.035368 1_555
Li5 O1 2.035381 1_545
Li5 O46 2.035381 1_455
Li6 O23 2.010158 1_555
Li6 O24 2.010158 1_555
Li6 O30 2.041115 1_555
Li6 O17 2.041115 1_555
Li7 O14 2.075783 1_555
Li7 O33 2.075783 1_555
Li7 O22 2.075783 1_555
Li7 O25 2.075783 1_555
Li8 O16 2.010153 1_556
Li8 O31 2.010153 1_556
Li8 O15 2.041115 1_555
Li8 O32 2.041115 1_555
Li9 O27 2.010153 1_555
Li9 O20 2.010153 1_545
Li9 O35 2.041115 1_555
Li9 O12 2.041115 1_545
Li10 O43 2.075783 1_555
Li10 O4 2.075783 1_545
Li10 O21 2.075791 1_544
Li10 O26 2.075791 1_554
Li11 O5 2.010153 1_545
Li11 O42 2.010153 1_555
Li11 O36 2.041115 1_555
Li11 O11 2.041115 1_545
Cu0 O2 1.900118 1_555
Cu0 O40 1.900126 1_455
Cu0 O1 1.982195 1_555
Cu0 O34 1.982195 1_455
Cu1 O45 1.900118 1_455
Cu1 O7 1.900126 1_555
Cu1 O46 1.982195 1_455
Cu1 O13 1.982195 1_555
Cu2 O3 1.925998 1_555
Cu2 O4 1.926006 1_555
Cu2 O12 1.941498 1_555
Cu2 O8 1.941506 1_555
Cu3 O9 1.926010 1_555
Cu3 O14 1.926021 1_555
Cu3 O6 1.941490 1_555
Cu3 O17 1.941496 1_555
Cu4 O21 1.926010 1_555
Cu4 O22 1.926012 1_555
Cu4 O11 1.941490 1_555
Cu4 O15 1.941503 1_555
Cu5 O23 1.900118 1_555
Cu5 O16 1.900126 1_555
Cu5 O10 1.982187 1_555
Cu5 O19 1.982193 1_555
Cu6 O27 1.900126 1_555
Cu6 O5 1.900126 1_545
Cu6 O0 1.982195 1_545
Cu6 O18 1.982202 1_555
Cu7 O24 1.900118 1_555
Cu7 O31 1.900126 1_555
Cu7 O37 1.982187 1_555
Cu7 O28 1.982193 1_555
Cu8 O26 1.926010 1_555
Cu8 O25 1.926012 1_555
Cu8 O36 1.941490 1_555
Cu8 O32 1.941503 1_555
Cu9 O38 1.926010 1_555
Cu9 O33 1.926021 1_555
Cu9 O41 1.941490 1_555
Cu9 O30 1.941496 1_555
Cu10 O44 1.925998 1_555
Cu10 O43 1.926006 1_555
Cu10 O35 1.941498 1_555
Cu10 O39 1.941506 1_555
Cu11 O20 1.900126 1_545
Cu11 O42 1.900126 1_555
Cu11 O47 1.982195 1_555
Cu11 O29 1.982202 1_545
O0 P0 1.549575 1_555
O1 P6 1.549575 1_566
O2 P1 1.546092 1_555
O3 P0 1.554613 1_555
O4 P6 1.554613 1_565
O5 P1 1.546092 1_555
O6 P1 1.541989 1_555
O7 P3 1.546092 1_556
O8 P3 1.541982 1_555
O9 P2 1.554606 1_555
O10 P2 1.549581 1_555
O11 P1 1.541981 1_555
O12 P5 1.541982 1_555
O13 P4 1.549574 1_555
O14 P4 1.554604 1_555
O15 P3 1.541981 1_556
O16 P3 1.546092 1_555
O17 P5 1.541989 1_555
O18 P4 1.549574 1_555
O19 P6 1.549581 1_555
O20 P5 1.546092 1_555
O21 P11 1.554606 1_566
O22 P8 1.554604 1_555
O23 P7 1.546092 1_555
O24 P5 1.546092 1_555
O25 P4 1.554604 1_555
O26 P6 1.554606 1_556
O27 P7 1.546092 1_555
O28 P11 1.549581 1_565
O29 P8 1.549574 1_555
O30 P7 1.541989 1_555
O31 P9 1.546092 1_555
O32 P9 1.541981 1_556
O33 P8 1.554604 1_555
O34 P8 1.549574 1_555
O35 P7 1.541982 1_555
O36 P10 1.541981 1_555
O37 P0 1.549581 1_655
O38 P0 1.554606 1_655
O39 P9 1.541982 1_555
O40 P9 1.546092 1_556
O41 P10 1.541989 1_555
O42 P10 1.546092 1_555
O43 P11 1.554613 1_555
O44 P2 1.554613 1_655
O45 P10 1.546092 1_555
O46 P11 1.549575 1_556
O47 P2 1.549575 1_655
