# generated using pymatgen
data_Nb3Zn3N
_symmetry_space_group_name_H-M   'P 1'
_cell_length_a   8.25212612
_cell_length_b   8.25212057
_cell_length_c   8.25211178
_cell_angle_alpha   60.00105751
_cell_angle_beta   60.00098112
_cell_angle_gamma   60.00094602
_symmetry_Int_Tables_number   1
_chemical_formula_structural   Nb3Zn3N
_chemical_formula_sum   'Nb12 Zn12 N4'
_cell_volume   397.36656466
_cell_formula_units_Z   4
loop_
 _symmetry_equiv_pos_site_id
 _symmetry_equiv_pos_as_xyz
  1  'x, y, z'
loop_
 _atom_site_type_symbol
 _atom_site_label
 _atom_site_symmetry_multiplicity
 _atom_site_fract_x
 _atom_site_fract_y
 _atom_site_fract_z
 _atom_site_occupancy
  Nb  Nb0  1  0.43229121  0.43228810  0.06771030  1
  Nb  Nb1  1  0.06771699  0.43228193  0.06771766  1
  Nb  Nb2  1  0.43228146  0.06771960  0.06771848  1
  Nb  Nb3  1  0.06770906  0.06771139  0.43229116  1
  Nb  Nb4  1  0.43229104  0.06770873  0.43229258  1
  Nb  Nb5  1  0.06771371  0.43228353  0.43228758  1
  Nb  Nb6  1  0.81774772  0.81774655  0.18225415  1
  Nb  Nb7  1  0.18225460  0.81774575  0.18225921  1
  Nb  Nb8  1  0.81774635  0.18225512  0.18225892  1
  Nb  Nb9  1  0.18225050  0.18225055  0.81775290  1
  Nb  Nb10  1  0.81775042  0.18224879  0.81775044  1
  Nb  Nb11  1  0.18225557  0.81774373  0.81774422  1
  Zn  Zn0  1  0.83173197  0.83171721  0.50479697  1
  Zn  Zn1  1  0.83172803  0.50482039  0.83172046  1
  Zn  Zn2  1  0.50481072  0.83172697  0.83173479  1
  Zn  Zn3  1  0.83172058  0.83172095  0.83174559  1
  Zn  Zn4  1  0.41828427  0.41828098  0.74515583  1
  Zn  Zn5  1  0.41829363  0.74516372  0.41827079  1
  Zn  Zn6  1  0.74515975  0.41829846  0.41827800  1
  Zn  Zn7  1  0.41826684  0.41827863  0.41827569  1
  Zn  Zn8  1  0.62498817  0.62500742  0.12500805  1
  Zn  Zn9  1  0.62499363  0.12499007  0.62499578  1
  Zn  Zn10  1  0.12499530  0.62499943  0.62498194  1
  Zn  Zn11  1  0.62501310  0.62501755  0.62498160  1
  N  N0  1  0.12500182  0.12499581  0.62500135  1
  N  N1  1  0.12500895  0.62498696  0.12500176  1
  N  N2  1  0.62499168  0.12500520  0.12500380  1
  N  N3  1  0.12500392  0.12500347  0.12500801  1
loop_
_geom_bond_atom_site_label_1
_geom_bond_atom_site_label_2
_geom_bond_distance
_geom_bond_site_symmetry_2
Nb0 Zn7 2.782052 1_555
Nb0 Zn4 2.782146 1_554
Nb0 Zn8 3.051880 1_555
Nb0 Zn11 3.052078 1_554
Nb0 Zn2 3.066572 1_554
Nb0 Zn1 3.066601 1_554
Nb1 Zn6 2.782167 1_455
Nb1 Zn4 2.782215 1_554
Nb1 Zn8 3.052049 1_455
Nb1 Zn10 3.052114 1_554
Nb1 Zn3 3.066622 1_454
Nb1 Zn1 3.066662 1_454
Nb2 Zn5 2.782128 1_545
Nb2 Zn4 2.782194 1_554
Nb2 Zn8 3.051931 1_545
Nb2 Zn9 3.052032 1_554
Nb2 Zn2 3.066623 1_544
Nb2 Zn3 3.066629 1_544
Nb3 Zn5 2.782239 1_545
Nb3 Zn6 2.782256 1_455
Nb3 Zn10 3.051937 1_545
Nb3 Zn9 3.051973 1_455
Nb3 Zn0 3.066678 1_445
Nb3 Zn3 3.066715 1_445
Nb4 Zn7 2.782065 1_555
Nb4 Zn5 2.782094 1_545
Nb4 Zn9 3.051713 1_555
Nb4 Zn11 3.051809 1_545
Nb4 Zn0 3.066533 1_545
Nb4 Zn2 3.066593 1_545
Nb5 Zn7 2.782021 1_555
Nb5 Zn6 2.782060 1_455
Nb5 Zn10 3.051745 1_555
Nb5 Zn11 3.051886 1_455
Nb5 Zn0 3.066496 1_455
Nb5 Zn1 3.066582 1_455
Nb6 Zn0 2.781786 1_555
Nb6 Zn3 2.781911 1_554
Nb6 Zn11 3.052090 1_555
Nb6 Zn8 3.052176 1_555
Nb6 Zn6 3.066872 1_555
Nb6 Zn5 3.066896 1_555
Nb7 Zn0 2.781925 1_455
Nb7 Zn2 2.782002 1_554
Nb7 Zn10 3.052051 1_555
Nb7 Zn8 3.052142 1_555
Nb7 Zn7 3.066930 1_555
Nb7 Zn5 3.066958 1_555
Nb8 Zn0 2.781997 1_545
Nb8 Zn1 2.782102 1_554
Nb8 Zn9 3.052141 1_555
Nb8 Zn8 3.052274 1_555
Nb8 Zn7 3.067011 1_555
Nb8 Zn6 3.067022 1_555
Nb9 Zn2 2.782014 1_545
Nb9 Zn1 2.782046 1_455
Nb9 Zn9 3.052196 1_555
Nb9 Zn10 3.052245 1_555
Nb9 Zn4 3.067003 1_555
Nb9 Zn7 3.067022 1_555
Nb10 Zn1 2.781994 1_555
Nb10 Zn3 2.782005 1_545
Nb10 Zn9 3.052336 1_555
Nb10 Zn11 3.052386 1_555
Nb10 Zn4 3.067020 1_555
Nb10 Zn6 3.067049 1_555
Nb11 Zn2 2.781977 1_555
Nb11 Zn3 2.782016 1_455
Nb11 Zn11 3.052295 1_555
Nb11 Zn10 3.052309 1_555
Nb11 Zn4 3.066971 1_555
Nb11 Zn5 3.067016 1_555
Zn0 Zn11 2.515806 1_555
Zn0 Zn10 2.516022 1_655
Zn0 Zn9 2.516144 1_565
Zn0 Zn1 2.697744 1_555
Zn0 Zn2 2.697901 1_555
Zn0 Zn3 2.697985 1_555
Zn1 Zn11 2.516012 1_555
Zn1 Zn10 2.516024 1_655
Zn1 Zn8 2.516191 1_556
Zn1 Zn3 2.697696 1_555
Zn1 Zn2 2.697756 1_555
Zn2 Zn9 2.516013 1_565
Zn2 Zn8 2.516055 1_556
Zn2 Zn3 2.697721 1_555
Zn3 Zn8 2.516022 1_556
Zn3 Zn9 2.516172 1_565
Zn4 Zn9 2.516095 1_555
Zn4 Zn6 2.697465 1_555
Zn4 Zn5 2.697527 1_555
Zn4 Zn7 2.697533 1_555
Zn5 Zn8 2.515887 1_555
Zn5 Zn6 2.697375 1_555
Zn5 Zn7 2.697585 1_555
Zn6 Zn8 2.516006 1_555
Zn6 Zn9 2.516245 1_555
Zn6 Zn7 2.697653 1_555
Zn7 Zn8 2.516053 1_555
Zn7 Zn9 2.516086 1_555
Zn10 Zn7 2.515955 1_555
Zn10 Zn4 2.516146 1_555
Zn10 Zn5 2.516169 1_555
Zn10 Zn3 2.516219 1_455
Zn11 Zn6 2.515917 1_555
Zn11 Zn5 2.515972 1_555
Zn11 Zn2 2.516056 1_555
Zn11 Zn4 2.516147 1_555
N0 Nb9 2.168539 1_555
N0 Nb11 2.168549 1_545
N0 Nb10 2.168557 1_455
N0 Nb3 2.168636 1_555
N0 Nb4 2.168688 1_555
N0 Nb5 2.168691 1_555
N1 Nb1 2.168591 1_555
N1 Nb7 2.168595 1_555
N1 Nb11 2.168609 1_554
N1 Nb0 2.168627 1_555
N1 Nb6 2.168636 1_455
N1 Nb5 2.168658 1_555
N2 Nb8 2.168575 1_555
N2 Nb10 2.168588 1_554
N2 Nb2 2.168603 1_555
N2 Nb6 2.168613 1_545
N2 Nb0 2.168634 1_555
N2 Nb4 2.168667 1_555
N3 Nb9 2.168587 1_554
N3 Nb8 2.168591 1_455
N3 Nb7 2.168592 1_545
N3 Nb1 2.168595 1_555
N3 Nb2 2.168597 1_555
N3 Nb3 2.168609 1_555
