# generated using pymatgen
data_Mg4Sc3(SiO3)8
_symmetry_space_group_name_H-M   'P 1'
_cell_length_a   8.97921700
_cell_length_b   5.44018500
_cell_length_c   9.45088371
_cell_angle_alpha   89.84924417
_cell_angle_beta   90.00000000
_cell_angle_gamma   90.00000000
_symmetry_Int_Tables_number   1
_chemical_formula_structural   Mg4Sc3(SiO3)8
_chemical_formula_sum   'Mg4 Sc3 Si8 O24'
_cell_volume   461.66085561
_cell_formula_units_Z   1
loop_
 _symmetry_equiv_pos_site_id
 _symmetry_equiv_pos_as_xyz
  1  'x, y, z'
loop_
 _atom_site_type_symbol
 _atom_site_label
 _atom_site_symmetry_multiplicity
 _atom_site_fract_x
 _atom_site_fract_y
 _atom_site_fract_z
 _atom_site_occupancy
  Mg  Mg0  1  0.27112400  0.50000000  0.00000000  1
  Mg  Mg1  1  0.76367100  0.50000000  0.50000000  1
  Mg  Mg2  1  0.39729900  0.50000000  0.50000000  1
  Mg  Mg3  1  0.23564300  0.00000000  0.50000000  1
  Sc  Sc0  1  0.88307200  0.50000000  0.00000000  1
  Sc  Sc1  1  0.08823200  0.00000000  0.00000000  1
  Sc  Sc2  1  0.59492800  0.00000000  0.50000000  1
  Si  Si0  1  0.41105200  0.17697100  0.79430000  1
  Si  Si1  1  0.58920300  0.67773700  0.79194900  1
  Si  Si2  1  0.91349800  0.17938700  0.70518800  1
  Si  Si3  1  0.09091900  0.67489700  0.70284800  1
  Si  Si4  1  0.91349800  0.82061300  0.29481200  1
  Si  Si5  1  0.09091900  0.32510300  0.29715200  1
  Si  Si6  1  0.58920300  0.32226300  0.20805100  1
  Si  Si7  1  0.41105200  0.82302900  0.20570000  1
  O  O0  1  0.92014700  0.17857100  0.87583400  1
  O  O1  1  0.09951800  0.66142100  0.87633700  1
  O  O2  1  0.75248200  0.65544400  0.85540200  1
  O  O3  1  0.25415500  0.18565400  0.87956100  1
  O  O4  1  0.50694900  0.93466000  0.84217600  1
  O  O5  1  0.47866000  0.44846000  0.84923700  1
  O  O6  1  0.98305100  0.44794100  0.64485500  1
  O  O7  1  0.01876400  0.94579100  0.64921500  1
  O  O8  1  0.75728800  0.18330100  0.61858700  1
  O  O9  1  0.24631900  0.68558900  0.61740600  1
  O  O10  1  0.59077800  0.66031600  0.61622700  1
  O  O11  1  0.40218100  0.17629800  0.61937700  1
  O  O12  1  0.59077800  0.33968400  0.38377300  1
  O  O13  1  0.40218100  0.82370200  0.38062300  1
  O  O14  1  0.75728800  0.81669900  0.38141300  1
  O  O15  1  0.24631900  0.31441100  0.38259400  1
  O  O16  1  0.98305100  0.55205900  0.35514500  1
  O  O17  1  0.01876400  0.05420900  0.35078500  1
  O  O18  1  0.50694900  0.06534000  0.15782400  1
  O  O19  1  0.47866000  0.55154000  0.15076300  1
  O  O20  1  0.75248200  0.34455600  0.14459800  1
  O  O21  1  0.25415500  0.81434600  0.12043900  1
  O  O22  1  0.92014700  0.82142900  0.12416600  1
  O  O23  1  0.09951800  0.33857900  0.12366300  1
loop_
_geom_bond_atom_site_label_1
_geom_bond_atom_site_label_2
_geom_bond_distance
_geom_bond_site_symmetry_2
Mg0 O21 2.062408 1_555
Mg0 O3 2.062408 1_554
Mg0 O23 2.122738 1_555
Mg0 O1 2.122738 1_554
Mg0 O19 2.362958 1_555
Mg0 O5 2.362958 1_554
Mg1 O14 2.053679 1_555
Mg1 O8 2.053679 1_555
Mg1 O10 2.093407 1_555
Mg1 O12 2.093407 1_555
Mg1 O6 2.415099 1_555
Mg1 O16 2.415099 1_555
Mg2 O9 2.023445 1_555
Mg2 O15 2.023445 1_555
Mg2 O13 2.089368 1_555
Mg2 O11 2.089368 1_555
Mg2 O12 2.233931 1_555
Mg2 O10 2.233931 1_555
Mg3 O15 2.038638 1_555
Mg3 O9 2.038638 1_545
Mg3 O11 2.105848 1_555
Mg3 O13 2.105848 1_545
Mg3 O7 2.421955 1_545
Mg3 O17 2.421955 1_555
O0 Si2 1.613855 1_555
O0 Sc0 2.134571 1_556
O0 Sc1 2.143055 1_656
O1 Si3 1.642885 1_555
O1 Sc1 2.186374 1_566
O1 Sc0 2.430830 1_456
O2 Si1 1.588537 1_555
O2 Sc0 1.987851 1_556
O3 Si0 1.623725 1_555
O3 Sc1 2.128224 1_556
O4 Si0 1.637298 1_565
O4 Si1 1.651637 1_555
O5 Si0 1.680333 1_555
O5 Si1 1.682438 1_555
O6 Si3 1.663288 1_655
O6 Si2 1.686789 1_555
O7 Si2 1.670848 1_465
O7 Si3 1.686593 1_555
O8 Si2 1.624081 1_555
O8 Sc2 2.093258 1_555
O9 Si3 1.613151 1_555
O10 Si1 1.663739 1_555
O10 Sc2 2.147601 1_565
O11 Si0 1.655108 1_555
O11 Sc2 2.278994 1_555
O12 Si6 1.663739 1_555
O12 Sc2 2.147601 1_555
O13 Si7 1.655108 1_555
O13 Sc2 2.278994 1_565
O14 Si4 1.624081 1_555
O14 Sc2 2.093258 1_565
O15 Si5 1.613151 1_555
O16 Si5 1.663288 1_655
O16 Si4 1.686789 1_555
O17 Si4 1.670848 1_445
O17 Si5 1.686593 1_555
O18 Si7 1.637298 1_545
O18 Si6 1.651637 1_555
O19 Si7 1.680333 1_555
O19 Si6 1.682438 1_555
O20 Si6 1.588537 1_555
O20 Sc0 1.987851 1_555
O21 Si7 1.623725 1_555
O21 Sc1 2.128224 1_565
O22 Si4 1.613855 1_555
O22 Sc0 2.134571 1_555
O22 Sc1 2.143055 1_665
O23 Si5 1.642885 1_555
O23 Sc1 2.186374 1_555
O23 Sc0 2.430830 1_455
