# generated using pymatgen
data_Li5Nb2Cu3O10
_symmetry_space_group_name_H-M   'P 1'
_cell_length_a   5.26906700
_cell_length_b   5.77923219
_cell_length_c   7.72470041
_cell_angle_alpha   100.85719300
_cell_angle_beta   105.62391231
_cell_angle_gamma   106.12225092
_symmetry_Int_Tables_number   1
_chemical_formula_structural   Li5Nb2Cu3O10
_chemical_formula_sum   'Li5 Nb2 Cu3 O10'
_cell_volume   208.63653367
_cell_formula_units_Z   1
loop_
 _symmetry_equiv_pos_site_id
 _symmetry_equiv_pos_as_xyz
  1  'x, y, z'
loop_
 _atom_site_type_symbol
 _atom_site_label
 _atom_site_symmetry_multiplicity
 _atom_site_fract_x
 _atom_site_fract_y
 _atom_site_fract_z
 _atom_site_occupancy
  Li  Li0  1  0.22019500  0.86834100  0.37543600  1
  Li  Li1  1  0.41062600  0.32939600  0.80569000  1
  Li  Li2  1  0.50000000  0.50000000  0.50000000  1
  Li  Li3  1  0.58937400  0.67060400  0.19431000  1
  Li  Li4  1  0.77980500  0.13165900  0.62456400  1
  Nb  Nb0  1  0.10865000  0.72622600  0.70331700  1
  Nb  Nb1  1  0.89135000  0.27377400  0.29668300  1
  Cu  Cu0  1  0.00000000  0.50000000  0.00000000  1
  Cu  Cu1  1  0.69714800  0.87734400  0.90027700  1
  Cu  Cu2  1  0.30285200  0.12265600  0.09972300  1
  O  O0  1  0.07175100  0.03484400  0.82705100  1
  O  O1  1  0.33215800  0.64659500  0.93102600  1
  O  O2  1  0.13891500  0.34160700  0.55051700  1
  O  O3  1  0.21675200  0.52515300  0.24910600  1
  O  O4  1  0.45107000  0.87495900  0.65159900  1
  O  O5  1  0.54893000  0.12504100  0.34840100  1
  O  O6  1  0.78324800  0.47484700  0.75089400  1
  O  O7  1  0.86108500  0.65839300  0.44948300  1
  O  O8  1  0.66784200  0.35340500  0.06897400  1
  O  O9  1  0.92824900  0.96515600  0.17294900  1
loop_
_geom_bond_atom_site_label_1
_geom_bond_atom_site_label_2
_geom_bond_distance
_geom_bond_site_symmetry_2
Li0 O3 2.031675 1_555
Li0 O5 2.032035 1_565
Li0 O4 2.139572 1_555
Li0 O9 2.153512 1_455
Li0 O7 2.224649 1_455
Li1 O8 2.072899 1_556
Li1 O6 2.098973 1_555
Li1 O1 2.106360 1_555
Li1 O2 2.128021 1_555
Li1 O0 2.165560 1_555
Li2 O2 2.043837 1_555
Li2 O7 2.043837 1_555
Li2 O6 2.161782 1_555
Li2 O3 2.161782 1_555
Li2 O4 2.377085 1_555
Li2 O5 2.377085 1_555
Li3 O1 2.072899 1_554
Li3 O3 2.098973 1_555
Li3 O8 2.106360 1_555
Li3 O7 2.128021 1_555
Li3 O9 2.165560 1_555
Li4 O6 2.031675 1_555
Li4 O4 2.032035 1_545
Li4 O5 2.139572 1_555
Li4 O0 2.153512 1_655
Li4 O2 2.224649 1_655
Nb0 O7 1.936145 1_455
Nb0 O0 1.944986 1_565
Nb0 O4 1.951930 1_555
Nb0 O1 2.045211 1_555
Nb0 O6 2.083878 1_455
Nb0 O2 2.381035 1_555
Nb1 O2 1.936145 1_655
Nb1 O9 1.944986 1_545
Nb1 O5 1.951930 1_555
Nb1 O8 2.045211 1_555
Nb1 O3 2.083878 1_655
Nb1 O7 2.381035 1_555
Cu0 O3 1.909699 1_555
Cu0 O6 1.909699 1_454
Cu0 O1 1.978271 1_554
Cu0 O8 1.978271 1_455
Cu1 O4 2.002486 1_555
Cu1 O9 2.012319 1_556
Cu1 O1 2.115269 1_555
Cu1 O0 2.200442 1_665
Cu2 O5 2.002486 1_555
Cu2 O0 2.012319 1_554
Cu2 O8 2.115269 1_555
Cu2 O9 2.200442 1_445
