# generated using pymatgen
data_Gd2Zr2O7
_symmetry_space_group_name_H-M   'P 1'
_cell_length_a   6.98550600
_cell_length_b   7.50909400
_cell_length_c   12.17721180
_cell_angle_alpha   81.29513553
_cell_angle_beta   90.00000000
_cell_angle_gamma   90.00000000
_symmetry_Int_Tables_number   1
_chemical_formula_structural   Gd2Zr2O7
_chemical_formula_sum   'Gd8 Zr8 O28'
_cell_volume   631.39569276
_cell_formula_units_Z   4
loop_
 _symmetry_equiv_pos_site_id
 _symmetry_equiv_pos_as_xyz
  1  'x, y, z'
loop_
 _atom_site_type_symbol
 _atom_site_label
 _atom_site_symmetry_multiplicity
 _atom_site_fract_x
 _atom_site_fract_y
 _atom_site_fract_z
 _atom_site_occupancy
  Gd  Gd0  1  0.88995700  0.52461100  0.63873100  1
  Gd  Gd1  1  0.38995700  0.47538900  0.86126900  1
  Gd  Gd2  1  0.67935100  0.74592300  0.38696100  1
  Gd  Gd3  1  0.17935100  0.25407700  0.11303900  1
  Gd  Gd4  1  0.82064900  0.74592300  0.88696100  1
  Gd  Gd5  1  0.32064900  0.25407700  0.61303900  1
  Gd  Gd6  1  0.61004300  0.52461100  0.13873100  1
  Gd  Gd7  1  0.11004300  0.47538900  0.36126900  1
  Zr  Zr0  1  0.85839000  0.24896900  0.89841200  1
  Zr  Zr1  1  0.35839000  0.75103100  0.60158800  1
  Zr  Zr2  1  0.11240400  0.94754200  0.38624100  1
  Zr  Zr3  1  0.61240400  0.05245800  0.11375900  1
  Zr  Zr4  1  0.38759600  0.94754200  0.88624100  1
  Zr  Zr5  1  0.88759600  0.05245800  0.61375900  1
  Zr  Zr6  1  0.64161000  0.24896900  0.39841200  1
  Zr  Zr7  1  0.14161000  0.75103100  0.10158800  1
  O  O0  1  0.68002100  0.00689400  0.93588600  1
  O  O1  1  0.22898100  0.52357300  0.67469700  1
  O  O2  1  0.10315000  0.37764900  0.93183300  1
  O  O3  1  0.06095400  0.81308300  0.25207900  1
  O  O4  1  0.60681000  0.80225700  0.20285400  1
  O  O5  1  0.60315000  0.62235100  0.56816700  1
  O  O6  1  0.72898100  0.47642700  0.82530300  1
  O  O7  1  0.99896700  0.68743600  0.47117400  1
  O  O8  1  0.38118900  0.83930200  0.42373100  1
  O  O9  1  0.43904600  0.81308300  0.75207900  1
  O  O10  1  0.18002100  0.99310600  0.56411400  1
  O  O11  1  0.89319000  0.80225700  0.70285400  1
  O  O12  1  0.50103300  0.68743600  0.97117400  1
  O  O13  1  0.11881100  0.83930200  0.92373100  1
  O  O14  1  0.88118900  0.16069800  0.07626900  1
  O  O15  1  0.49896700  0.31256400  0.02882600  1
  O  O16  1  0.10681000  0.19774300  0.29714600  1
  O  O17  1  0.81997900  0.00689400  0.43588600  1
  O  O18  1  0.56095400  0.18691700  0.24792100  1
  O  O19  1  0.61881100  0.16069800  0.57626900  1
  O  O20  1  0.00103300  0.31256400  0.52882600  1
  O  O21  1  0.27101900  0.52357300  0.17469700  1
  O  O22  1  0.39685000  0.37764900  0.43183300  1
  O  O23  1  0.39319000  0.19774300  0.79714600  1
  O  O24  1  0.93904600  0.18691700  0.74792100  1
  O  O25  1  0.89685000  0.62235100  0.06816700  1
  O  O26  1  0.77101900  0.47642700  0.32530300  1
  O  O27  1  0.31997900  0.99310600  0.06411400  1
loop_
_geom_bond_atom_site_label_1
_geom_bond_atom_site_label_2
_geom_bond_distance
_geom_bond_site_symmetry_2
Gd0 O5 2.258341 1_555
Gd0 O11 2.334452 1_555
Gd0 O7 2.341538 1_555
Gd0 O20 2.360845 1_655
Gd0 O1 2.408209 1_655
Gd0 O6 2.511622 1_555
Gd0 O24 2.700945 1_555
Gd1 O2 2.258341 1_555
Gd1 O23 2.334452 1_555
Gd1 O15 2.341538 1_556
Gd1 O12 2.360845 1_555
Gd1 O6 2.408209 1_555
Gd1 O1 2.511622 1_555
Gd1 O9 2.700945 1_555
Gd2 O8 2.263912 1_555
Gd2 O4 2.274824 1_555
Gd2 O5 2.322417 1_555
Gd2 O17 2.348108 1_565
Gd2 O26 2.351369 1_555
Gd2 O7 2.468405 1_555
Gd3 O14 2.263912 1_455
Gd3 O16 2.274824 1_555
Gd3 O2 2.322417 1_554
Gd3 O27 2.348108 1_545
Gd3 O21 2.351369 1_555
Gd3 O15 2.468405 1_555
Gd4 O13 2.263912 1_655
Gd4 O11 2.274824 1_555
Gd4 O25 2.322417 1_556
Gd4 O0 2.348108 1_565
Gd4 O6 2.351369 1_555
Gd4 O12 2.468405 1_555
Gd5 O19 2.263912 1_555
Gd5 O23 2.274824 1_555
Gd5 O22 2.322417 1_555
Gd5 O10 2.348108 1_545
Gd5 O1 2.351369 1_555
Gd5 O20 2.468405 1_555
Gd6 O25 2.258341 1_555
Gd6 O4 2.334452 1_555
Gd6 O12 2.341538 1_554
Gd6 O15 2.360845 1_555
Gd6 O21 2.408209 1_555
Gd6 O26 2.511622 1_555
Gd6 O18 2.700945 1_555
Gd7 O22 2.258341 1_555
Gd7 O16 2.334452 1_555
Gd7 O20 2.341538 1_555
Gd7 O7 2.360845 1_455
Gd7 O26 2.408209 1_455
Gd7 O21 2.511622 1_555
Gd7 O3 2.700945 1_555
O0 Zr0 2.194067 1_555
O0 Zr4 2.195091 1_545
O0 Zr3 2.292603 1_556
O1 Zr1 2.016625 1_555
O2 Zr0 2.035107 1_455
O3 Zr7 2.037474 1_555
O3 Zr2 2.077721 1_555
O4 Zr3 2.022730 1_565
O5 Zr1 2.035107 1_555
O6 Zr0 2.016625 1_555
O7 Zr2 2.213815 1_655
O8 Zr2 2.069323 1_555
O8 Zr1 2.172759 1_555
O9 Zr1 2.037474 1_555
O9 Zr4 2.077721 1_555
O10 Zr1 2.194067 1_555
O10 Zr5 2.195091 1_465
O10 Zr2 2.292603 1_555
O11 Zr5 2.022730 1_565
O12 Zr4 2.213815 1_555
O13 Zr4 2.069323 1_555
O13 Zr7 2.172759 1_556
O14 Zr3 2.069323 1_555
O14 Zr0 2.172759 1_554
O15 Zr3 2.213815 1_555
O16 Zr2 2.022730 1_545
O17 Zr6 2.194067 1_555
O17 Zr2 2.195091 1_645
O17 Zr5 2.292603 1_555
O18 Zr6 2.037474 1_555
O18 Zr3 2.077721 1_555
O19 Zr5 2.069323 1_555
O19 Zr6 2.172759 1_555
O20 Zr5 2.213815 1_455
O21 Zr7 2.016625 1_555
O22 Zr6 2.035107 1_555
O23 Zr4 2.022730 1_545
O24 Zr0 2.037474 1_555
O24 Zr5 2.077721 1_555
O25 Zr7 2.035107 1_655
O26 Zr6 2.016625 1_555
O27 Zr7 2.194067 1_555
O27 Zr3 2.195091 1_565
O27 Zr4 2.292603 1_554
