# generated using pymatgen
data_Li2V(Si2O5)3
_symmetry_space_group_name_H-M   'P 1'
_cell_length_a   12.68773200
_cell_length_b   6.87099600
_cell_length_c   7.44627250
_cell_angle_alpha   69.24588263
_cell_angle_beta   90.00000000
_cell_angle_gamma   90.00000000
_symmetry_Int_Tables_number   1
_chemical_formula_structural   Li2V(Si2O5)3
_chemical_formula_sum   'Li4 V2 Si12 O30'
_cell_volume   607.02307713
_cell_formula_units_Z   2
loop_
 _symmetry_equiv_pos_site_id
 _symmetry_equiv_pos_as_xyz
  1  'x, y, z'
loop_
 _atom_site_type_symbol
 _atom_site_label
 _atom_site_symmetry_multiplicity
 _atom_site_fract_x
 _atom_site_fract_y
 _atom_site_fract_z
 _atom_site_occupancy
  Li  Li0  1  0.66143000  0.85770100  0.45855500  1
  Li  Li1  1  0.83545400  0.83174700  0.15888100  1
  Li  Li2  1  0.33545400  0.16825300  0.84111900  1
  Li  Li3  1  0.16143000  0.14229900  0.54144500  1
  V  V0  1  0.24965000  0.73862600  0.75703400  1
  V  V1  1  0.74965000  0.26137400  0.24296600  1
  Si  Si0  1  0.33293800  0.96872400  0.30807800  1
  Si  Si1  1  0.15580200  0.99257200  0.02383200  1
  Si  Si2  1  0.48781500  0.70043800  0.91641500  1
  Si  Si3  1  0.99015000  0.69069600  0.70453100  1
  Si  Si4  1  0.65724600  0.46885600  0.80084100  1
  Si  Si5  1  0.33404300  0.50889400  0.47731100  1
  Si  Si6  1  0.83404300  0.49110600  0.52268900  1
  Si  Si7  1  0.15724600  0.53114400  0.19915900  1
  Si  Si8  1  0.49015000  0.30930400  0.29546900  1
  Si  Si9  1  0.98781500  0.29956200  0.08358500  1
  Si  Si10  1  0.65580200  0.00742800  0.97616800  1
  Si  Si11  1  0.83293800  0.03127600  0.69192200  1
  O  O0  1  0.19202100  0.99307400  0.81460800  1
  O  O1  1  0.76442100  0.92717300  0.89425600  1
  O  O2  1  0.56010100  0.84389100  0.00134200  1
  O  O3  1  0.26496200  0.96209400  0.49135000  1
  O  O4  1  0.94634500  0.91105400  0.71493700  1
  O  O5  1  0.38317300  0.83072700  0.81941800  1
  O  O6  1  0.11589400  0.69871000  0.67082500  1
  O  O7  1  0.36380000  0.73404800  0.31790800  1
  O  O8  1  0.22394900  0.54619700  0.01140100  1
  O  O9  1  0.55928300  0.63868800  0.75725700  1
  O  O10  1  0.11650800  0.76653100  0.17754400  1
  O  O11  1  0.95874200  0.51505400  0.90954600  1
  O  O12  1  0.92946400  0.65133700  0.52469000  1
  O  O13  1  0.31633300  0.50126300  0.69477900  1
  O  O14  1  0.72404800  0.57231300  0.59711100  1
  O  O15  1  0.22404800  0.42768700  0.40288900  1
  O  O16  1  0.81633300  0.49873700  0.30522100  1
  O  O17  1  0.42946400  0.34866300  0.47531000  1
  O  O18  1  0.45874200  0.48494600  0.09045400  1
  O  O19  1  0.61650800  0.23346900  0.82245600  1
  O  O20  1  0.05928300  0.36131200  0.24274300  1
  O  O21  1  0.72394900  0.45380300  0.98859900  1
  O  O22  1  0.86380000  0.26595200  0.68209200  1
  O  O23  1  0.61589400  0.30129000  0.32917500  1
  O  O24  1  0.88317300  0.16927300  0.18058200  1
  O  O25  1  0.44634500  0.08894600  0.28506300  1
  O  O26  1  0.76496200  0.03790600  0.50865000  1
  O  O27  1  0.06010100  0.15610900  0.99865800  1
  O  O28  1  0.26442100  0.07282700  0.10574400  1
  O  O29  1  0.69202100  0.00692600  0.18539200  1
loop_
_geom_bond_atom_site_label_1
_geom_bond_atom_site_label_2
_geom_bond_distance
_geom_bond_site_symmetry_2
Li0 O26 1.930051 1_565
Li0 O29 1.964996 1_565
Li0 O14 2.026567 1_555
Li0 O9 2.553271 1_555
Li1 O1 2.051647 1_554
Li1 O16 2.171327 1_555
Li1 O29 2.228894 1_565
Li1 O24 2.456966 1_565
Li2 O28 2.051647 1_556
Li2 O13 2.171327 1_555
Li2 O0 2.228894 1_545
Li2 O5 2.456966 1_545
Li3 O3 1.930051 1_545
Li3 O0 1.964996 1_545
Li3 O15 2.026567 1_555
Li3 O20 2.553271 1_555
O0 Si1 1.623130 1_556
O0 V0 2.075141 1_555
O1 Si11 1.665396 1_565
O1 Si10 1.677412 1_565
O2 Si10 1.619514 1_564
O2 Si2 1.629223 1_554
O3 Si0 1.601325 1_555
O3 V0 2.038723 1_555
O4 Si11 1.637608 1_565
O4 Si3 1.640269 1_555
O5 Si2 1.620969 1_555
O5 V0 1.922129 1_555
O6 Si3 1.612933 1_455
O6 V0 1.868714 1_555
O7 Si5 1.625833 1_555
O7 Si0 1.635560 1_555
O8 Si7 1.605967 1_555
O8 V0 1.914993 1_554
O9 Si4 1.656348 1_555
O9 Si2 1.662273 1_555
O10 Si1 1.646497 1_555
O10 Si7 1.650568 1_555
O11 Si3 1.624822 1_555
O11 Si9 1.627247 1_556
O12 Si6 1.640021 1_555
O12 Si3 1.648017 1_555
O13 Si5 1.617183 1_555
O13 V0 2.031361 1_555
O14 Si4 1.661562 1_555
O14 Si6 1.668904 1_555
O15 Si7 1.661562 1_555
O15 Si5 1.668904 1_555
O16 Si6 1.617183 1_555
O16 V1 2.031361 1_555
O17 Si5 1.640021 1_555
O17 Si8 1.648017 1_555
O18 Si8 1.624822 1_555
O18 Si2 1.627247 1_554
O19 Si10 1.646497 1_555
O19 Si4 1.650568 1_555
O20 Si7 1.656348 1_555
O20 Si9 1.662273 1_455
O21 Si4 1.605967 1_555
O21 V1 1.914993 1_556
O22 Si6 1.625833 1_555
O22 Si11 1.635560 1_555
O23 Si8 1.612933 1_555
O23 V1 1.868714 1_555
O24 Si9 1.620969 1_555
O24 V1 1.922129 1_555
O25 Si0 1.637608 1_545
O25 Si8 1.640269 1_555
O26 Si11 1.601325 1_555
O26 V1 2.038723 1_555
O27 Si1 1.619514 1_546
O27 Si9 1.629223 1_456
O28 Si0 1.665396 1_545
O28 Si1 1.677412 1_545
O29 Si10 1.623130 1_554
O29 V1 2.075141 1_555
