# generated using pymatgen
data_Ca4Y2Al7Cr2SiO24
_symmetry_space_group_name_H-M   'P 1'
_cell_length_a   10.51509500
_cell_length_b   10.53306954
_cell_length_c   10.53389319
_cell_angle_alpha   109.43976257
_cell_angle_beta   109.21564294
_cell_angle_gamma   109.58146762
_symmetry_Int_Tables_number   1
_chemical_formula_structural   Ca4Y2Al7Cr2SiO24
_chemical_formula_sum   'Ca8 Y4 Al14 Cr4 Si2 O48'
_cell_volume   900.06886198
_cell_formula_units_Z   2
loop_
 _symmetry_equiv_pos_site_id
 _symmetry_equiv_pos_as_xyz
  1  'x, y, z'
loop_
 _atom_site_type_symbol
 _atom_site_label
 _atom_site_symmetry_multiplicity
 _atom_site_fract_x
 _atom_site_fract_y
 _atom_site_fract_z
 _atom_site_occupancy
  Ca  Ca0  1  0.37824900  0.62547500  0.75267800  1
  Ca  Ca1  1  0.12455100  0.75447100  0.87734700  1
  Ca  Ca2  1  0.87448400  0.24702000  0.12461800  1
  Ca  Ca3  1  0.62235700  0.37262800  0.24658300  1
  Ca  Ca4  1  0.74838800  0.62756200  0.87551300  1
  Ca  Ca5  1  0.87283000  0.11989700  0.74428400  1
  Ca  Ca6  1  0.37488400  0.25298600  0.62942400  1
  Ca  Ca7  1  0.75043600  0.12221800  0.37778200  1
  Y  Y0  1  0.62596600  0.74743900  0.37089700  1
  Y  Y1  1  0.25236700  0.88069400  0.62443900  1
  Y  Y2  1  0.12829000  0.88208400  0.25534100  1
  Y  Y3  1  0.24965300  0.36941900  0.12316100  1
  Al  Al0  1  0.87566800  0.75523000  0.62967200  1
  Al  Al1  1  0.37827300  0.75123500  0.12825200  1
  Al  Al2  1  0.25127000  0.62811800  0.37435500  1
  Al  Al3  1  0.99890900  0.99906400  0.99749500  1
  Al  Al4  1  0.87347300  0.62767100  0.25376500  1
  Al  Al5  1  0.12731800  0.37085000  0.74654500  1
  Al  Al6  1  0.49969900  0.49835600  0.99994200  1
  Al  Al7  1  0.61888800  0.24897600  0.87176600  1
  Al  Al8  1  0.74724900  0.36955200  0.62436400  1
  Al  Al9  1  0.12593900  0.24594900  0.37010400  1
  Al  Al10  1  0.24865000  0.12587300  0.87433900  1
  Al  Al11  1  0.49942000  0.00295800  0.50062100  1
  Al  Al12  1  0.37208800  0.12294100  0.24809600  1
  Al  Al13  1  0.00362600  0.00303400  0.50202700  1
  Cr  Cr0  1  0.50125200  0.00019300  0.00222800  1
  Cr  Cr1  1  0.99741200  0.49802800  0.99669000  1
  Cr  Cr2  1  0.99895000  0.49859900  0.50064700  1
  Cr  Cr3  1  0.49955500  0.49819900  0.49946400  1
  Si  Si0  1  0.62580500  0.87499200  0.74879200  1
  Si  Si1  1  0.75011600  0.87337100  0.12617400  1
  O  O0  1  0.87735000  0.89446300  0.56938500  1
  O  O1  1  0.49094500  0.88484300  0.79602000  1
  O  O2  1  0.30430400  0.98259700  0.87914500  1
  O  O3  1  0.61022100  0.90862000  0.60293900  1
  O  O4  1  0.80005300  0.91120600  0.30705500  1
  O  O5  1  0.51811400  0.89522700  0.32508400  1
  O  O6  1  0.29915900  0.82051300  0.41807900  1
  O  O7  1  0.39960100  0.58039600  0.37765900  1
  O  O8  1  0.01638200  0.69765500  0.61185400  1
  O  O9  1  0.19662600  0.61927900  0.51664800  1
  O  O10  1  0.60711200  0.69400400  0.99628600  1
  O  O11  1  0.17522900  0.98219900  0.10298500  1
  O  O12  1  0.02150900  0.82087100  0.40074400  1
  O  O13  1  0.38540500  0.80487900  0.98492700  1
  O  O14  1  0.41752600  0.59758400  0.11837500  1
  O  O15  1  0.17957800  0.69673700  0.08327300  1
  O  O16  1  0.58498800  0.69385900  0.70040500  1
  O  O17  1  0.89517300  0.88784100  0.08945200  1
  O  O18  1  0.67908900  0.60236900  0.48448800  1
  O  O19  1  0.10247200  0.48431700  0.17839600  1
  O  O20  1  0.89040900  0.48696200  0.30869500  1
  O  O21  1  0.92524500  0.61773700  0.10417300  1
  O  O22  1  0.32324900  0.42540700  0.80724500  1
  O  O23  1  0.92011600  0.80509500  0.82174500  1
  O  O24  1  0.07921800  0.19794500  0.17629900  1
  O  O25  1  0.68062900  0.58415800  0.20180000  1
  O  O26  1  0.08466700  0.38972900  0.90386400  1
  O  O27  1  0.10847300  0.51220900  0.68997800  1
  O  O28  1  0.90136200  0.51155100  0.82101400  1
  O  O29  1  0.32028400  0.40438300  0.51314100  1
  O  O30  1  0.09940300  0.11825000  0.92151400  1
  O  O31  1  0.41477000  0.31745500  0.29810900  1
  O  O32  1  0.82211000  0.31179400  0.92286000  1
  O  O33  1  0.58482900  0.40492200  0.88967300  1
  O  O34  1  0.61759200  0.19217800  0.01445400  1
  O  O35  1  0.98526600  0.17932300  0.59788800  1
  O  O36  1  0.39726000  0.31974100  0.01709800  1
  O  O37  1  0.80553100  0.00477700  0.89149700  1
  O  O38  1  0.80723300  0.38890200  0.48756100  1
  O  O39  1  0.98927900  0.30945800  0.38935600  1
  O  O40  1  0.60293000  0.42338500  0.61557900  1
  O  O41  1  0.69450200  0.17853300  0.58342400  1
  O  O42  1  0.47976400  0.09451700  0.67986200  1
  O  O43  1  0.19354800  0.07361800  0.67870100  1
  O  O44  1  0.38143500  0.07604800  0.39629900  1
  O  O45  1  0.70216300  0.00634200  0.11640400  1
  O  O46  1  0.51524400  0.11378000  0.19516500  1
  O  O47  1  0.11664000  0.09725900  0.41600000  1
loop_
_geom_bond_atom_site_label_1
_geom_bond_atom_site_label_2
_geom_bond_distance
_geom_bond_site_symmetry_2
Ca0 O22 2.305188 1_555
Ca0 O16 2.355877 1_555
Ca0 O1 2.391618 1_555
Ca0 O27 2.424929 1_555
Ca0 O13 2.503615 1_555
Ca0 O29 2.507278 1_555
Ca0 O10 2.536758 1_555
Ca0 O9 2.552677 1_555
Ca1 O23 2.322891 1_455
Ca1 O13 2.380525 1_555
Ca1 O15 2.386997 1_556
Ca1 O8 2.410201 1_555
Ca1 O11 2.490291 1_556
Ca1 O2 2.499709 1_555
Ca1 O28 2.540546 1_455
Ca1 O27 2.564062 1_555
Ca2 O24 2.315138 1_655
Ca2 O34 2.328422 1_555
Ca2 O39 2.387010 1_555
Ca2 O32 2.394215 1_554
Ca2 O45 2.527678 1_555
Ca2 O20 2.532966 1_555
Ca2 O19 2.542151 1_655
Ca2 O37 2.546317 1_554
Ca3 O31 2.352971 1_555
Ca3 O25 2.353090 1_555
Ca3 O46 2.356407 1_555
Ca3 O20 2.410233 1_555
Ca3 O36 2.491952 1_555
Ca3 O34 2.521146 1_555
Ca3 O38 2.547721 1_555
Ca3 O18 2.550241 1_555
Ca4 O40 2.362325 1_555
Ca4 O10 2.379777 1_555
Ca4 O17 2.395539 1_556
Ca4 O28 2.422506 1_555
Ca4 O33 2.485517 1_555
Ca4 O23 2.488594 1_555
Ca4 O16 2.533301 1_555
Ca4 O21 2.572394 1_556
Ca5 O35 2.348257 1_555
Ca5 O3 2.400721 1_545
Ca5 O37 2.403051 1_555
Ca5 O26 2.444763 1_655
Ca5 O41 2.479966 1_555
Ca5 O0 2.501243 1_545
Ca5 O30 2.506629 1_655
Ca5 O32 2.600110 1_555
Ca6 O47 2.379051 1_555
Ca6 O33 2.382846 1_555
Ca6 O42 2.392302 1_555
Ca6 O29 2.413294 1_555
Ca6 O22 2.483503 1_555
Ca6 O43 2.522742 1_555
Ca6 O40 2.551921 1_555
Ca6 O44 2.580630 1_555
Ca7 O41 2.368005 1_555
Ca7 O4 2.387079 1_545
Ca7 O45 2.399181 1_555
Ca7 O38 2.417259 1_555
Ca7 O35 2.478387 1_555
Ca7 O5 2.510224 1_545
Ca7 O46 2.536098 1_555
Ca7 O39 2.555435 1_555
Al0 O23 1.758861 1_555
Al0 O0 1.778854 1_555
Al0 O18 1.803674 1_555
Al0 O8 1.816804 1_655
Al1 O14 1.778876 1_555
Al1 O5 1.779483 1_555
Al1 O13 1.793950 1_554
Al1 O15 1.811799 1_555
Al2 O6 1.764791 1_555
Al2 O7 1.785501 1_555
Al2 O19 1.790977 1_555
Al2 O9 1.791498 1_555
Al3 O23 1.904228 1_555
Al3 O30 1.915615 1_665
Al3 O11 1.923480 1_656
Al3 O24 1.946781 1_666
Al3 O37 2.004310 1_565
Al3 O17 2.023592 1_556
Al4 O25 1.760955 1_555
Al4 O12 1.776076 1_655
Al4 O20 1.800849 1_555
Al4 O21 1.812046 1_555
Al5 O22 1.754522 1_555
Al5 O35 1.758065 1_455
Al5 O26 1.821146 1_555
Al5 O27 1.822604 1_555
Al6 O33 1.906064 1_555
Al6 O22 1.918415 1_555
Al6 O36 1.930943 1_556
Al6 O14 1.960196 1_556
Al6 O25 1.965483 1_556
Al6 O10 2.011283 1_555
Al7 O33 1.759114 1_555
Al7 O42 1.772666 1_555
Al7 O34 1.795509 1_556
Al7 O32 1.830839 1_555
Al8 O41 1.748941 1_555
Al8 O40 1.775454 1_555
Al8 O38 1.795463 1_555
Al8 O28 1.804877 1_555
Al9 O47 1.768795 1_555
Al9 O24 1.775113 1_555
Al9 O29 1.801351 1_555
Al9 O39 1.816431 1_455
Al10 O43 1.769438 1_555
Al10 O36 1.772971 1_556
Al10 O30 1.780922 1_555
Al10 O2 1.801624 1_545
Al11 O41 1.895905 1_555
Al11 O44 1.909285 1_555
Al11 O42 1.927737 1_555
Al11 O5 1.933266 1_545
Al11 O6 1.962992 1_545
Al11 O3 2.041754 1_545
Al12 O44 1.770772 1_555
Al12 O11 1.780739 1_545
Al12 O31 1.784997 1_555
Al12 O46 1.788894 1_555
Al13 O35 1.904052 1_455
Al13 O43 1.908358 1_555
Al13 O0 1.927889 1_445
Al13 O47 1.932707 1_555
Al13 O12 1.966335 1_545
Al13 O4 2.032686 1_445
Cr0 O46 1.910569 1_555
Cr0 O34 1.914978 1_555
Cr0 O13 1.916745 1_544
Cr0 O2 1.954343 1_544
Cr0 O45 2.024281 1_555
Cr0 O1 2.050937 1_544
Cr1 O32 1.862195 1_555
Cr1 O28 1.872562 1_555
Cr1 O26 1.910181 1_655
Cr1 O21 1.924648 1_556
Cr1 O15 1.942607 1_656
Cr1 O19 1.950383 1_656
Cr2 O27 1.873921 1_655
Cr2 O38 1.888850 1_555
Cr2 O39 1.893359 1_555
Cr2 O20 1.904812 1_555
Cr2 O8 1.941154 1_655
Cr2 O9 1.954594 1_655
Cr3 O29 1.890926 1_555
Cr3 O40 1.907663 1_555
Cr3 O18 1.927558 1_555
Cr3 O31 1.961593 1_555
Cr3 O7 1.990536 1_555
Cr3 O16 2.034304 1_555
O0 Y0 2.284715 1_555
O1 Si0 1.672670 1_555
O1 Y1 2.539958 1_555
O2 Y1 2.318345 1_555
O3 Si0 1.657787 1_555
O3 Y0 2.564546 1_555
O4 Si1 1.661547 1_555
O4 Y0 2.498925 1_555
O5 Y0 2.294627 1_555
O6 Y1 2.316265 1_555
O6 Y2 2.465984 1_555
O7 Y3 2.348377 1_555
O7 Y0 2.480778 1_555
O8 Y1 2.509701 1_555
O9 Y1 2.369312 1_555
O10 Si1 1.650269 1_556
O11 Y2 2.287004 1_555
O12 Y2 2.307928 1_555
O12 Y1 2.462404 1_555
O14 Y0 2.328022 1_555
O14 Y3 2.487947 1_555
O15 Y2 2.526125 1_555
O16 Si0 1.656462 1_555
O17 Si1 1.664682 1_555
O17 Y2 2.533079 1_655
O18 Y0 2.329773 1_555
O19 Y3 2.361735 1_555
O21 Y2 2.381793 1_655
O24 Y3 2.439441 1_555
O25 Y0 2.399692 1_555
O26 Y3 2.516249 1_556
O30 Y3 2.292567 1_556
O31 Y3 2.431561 1_555
O36 Y3 2.286437 1_555
O37 Si0 1.652406 1_545
O42 Y1 2.393080 1_545
O43 Y1 2.267289 1_545
O44 Y2 2.279917 1_545
O45 Si1 1.661825 1_545
O47 Y2 2.405274 1_545
