# generated using pymatgen
data_Y2MgNi2
_symmetry_space_group_name_H-M   'P 1'
_cell_length_a   7.33613906
_cell_length_b   7.33613906
_cell_length_c   3.74588804
_cell_angle_alpha   90.00000000
_cell_angle_beta   90.00000000
_cell_angle_gamma   90.00000000
_symmetry_Int_Tables_number   1
_chemical_formula_structural   Y2MgNi2
_chemical_formula_sum   'Y4 Mg2 Ni4'
_cell_volume   201.59970984
_cell_formula_units_Z   2
loop_
 _symmetry_equiv_pos_site_id
 _symmetry_equiv_pos_as_xyz
  1  'x, y, z'
loop_
 _atom_site_type_symbol
 _atom_site_label
 _atom_site_symmetry_multiplicity
 _atom_site_fract_x
 _atom_site_fract_y
 _atom_site_fract_z
 _atom_site_occupancy
  Y  Y0  1  0.17525821  0.67525821  0.50000000  1
  Y  Y1  1  0.67525821  0.82474179  0.50000000  1
  Y  Y2  1  0.32474179  0.17525821  0.50000000  1
  Y  Y3  1  0.82474179  0.32474179  0.50000000  1
  Mg  Mg0  1  0.50000000  0.50000000  -0.00000000  1
  Mg  Mg1  1  -0.00000000  -0.00000000  -0.00000000  1
  Ni  Ni0  1  0.88348029  0.61651971  -0.00000000  1
  Ni  Ni1  1  0.38348029  0.88348029  0.00000000  1
  Ni  Ni2  1  0.61651971  0.11651971  -0.00000000  1
  Ni  Ni3  1  0.11651971  0.38348029  0.00000000  1
loop_
_geom_bond_atom_site_label_1
_geom_bond_atom_site_label_2
_geom_bond_distance
_geom_bond_site_symmetry_2
Mg0 Ni1 2.940264 1_555
Mg0 Ni0 2.940264 1_555
Mg0 Ni3 2.940264 1_555
Mg0 Ni2 2.940264 1_555
Mg1 Ni2 2.940264 1_455
Mg1 Ni0 2.940264 1_445
Mg1 Ni1 2.940264 1_545
Mg1 Ni3 2.940264 1_555
Ni0 Ni3 2.417753 1_655
Ni0 Y1 2.859146 1_555
Ni0 Y1 2.859146 1_554
Ni0 Y0 2.876708 1_655
Ni0 Y3 2.876708 1_554
Ni0 Y0 2.876708 1_654
Ni0 Y3 2.876708 1_555
Ni1 Ni2 2.417753 1_565
Ni1 Y0 2.859146 1_555
Ni1 Y0 2.859146 1_554
Ni1 Y2 2.876708 1_565
Ni1 Y2 2.876708 1_564
Ni1 Y1 2.876708 1_555
Ni1 Y1 2.876708 1_554
Ni2 Y3 2.859146 1_555
Ni2 Y3 2.859146 1_554
Ni2 Y2 2.876708 1_554
Ni2 Y1 2.876708 1_544
Ni2 Y1 2.876708 1_545
Ni2 Y2 2.876708 1_555
Ni3 Y2 2.859146 1_554
Ni3 Y2 2.859146 1_555
Ni3 Y0 2.876708 1_554
Ni3 Y3 2.876708 1_455
Ni3 Y3 2.876708 1_454
Ni3 Y0 2.876708 1_555
