# generated using pymatgen
data_Ho(ClO4)3
_symmetry_space_group_name_H-M   'P 1'
_cell_length_a   9.33317251
_cell_length_b   9.33317251
_cell_length_c   9.33317260
_cell_angle_alpha   51.64083131
_cell_angle_beta   51.64083131
_cell_angle_gamma   51.64082360
_symmetry_Int_Tables_number   1
_chemical_formula_structural   Ho(ClO4)3
_chemical_formula_sum   'Ho2 Cl6 O24'
_cell_volume   461.78074458
_cell_formula_units_Z   2
loop_
 _symmetry_equiv_pos_site_id
 _symmetry_equiv_pos_as_xyz
  1  'x, y, z'
loop_
 _atom_site_type_symbol
 _atom_site_label
 _atom_site_symmetry_multiplicity
 _atom_site_fract_x
 _atom_site_fract_y
 _atom_site_fract_z
 _atom_site_occupancy
  Ho  Ho0  1  0.94109535  0.94109535  0.94109535  1
  Ho  Ho1  1  0.44109535  0.44109535  0.44109535  1
  Cl  Cl0  1  0.65722273  0.03341680  0.30897789  1
  Cl  Cl1  1  0.53341680  0.15722273  0.80897789  1
  Cl  Cl2  1  0.80897789  0.53341680  0.15722273  1
  Cl  Cl3  1  0.03341680  0.30897789  0.65722273  1
  Cl  Cl4  1  0.30897789  0.65722273  0.03341680  1
  Cl  Cl5  1  0.15722273  0.80897789  0.53341680  1
  O  O0  1  0.91987364  0.24854662  0.87097596  1
  O  O1  1  0.71861477  0.11812937  0.79364987  1
  O  O2  1  0.99946102  0.42849517  0.05051983  1
  O  O3  1  0.61097034  0.08066861  0.15686901  1
  O  O4  1  0.58066861  0.11097034  0.65686901  1
  O  O5  1  0.92849517  0.49946102  0.55051983  1
  O  O6  1  0.61812937  0.21861477  0.29364987  1
  O  O7  1  0.42849517  0.05051983  0.99946102  1
  O  O8  1  0.74854662  0.41987364  0.37097596  1
  O  O9  1  0.79364987  0.71861477  0.11812937  1
  O  O10  1  0.65686901  0.58066861  0.11097034  1
  O  O11  1  0.41987364  0.37097596  0.74854662  1
  O  O12  1  0.49946102  0.55051983  0.92849517  1
  O  O13  1  0.87097596  0.91987364  0.24854662  1
  O  O14  1  0.08066861  0.15686901  0.61097034  1
  O  O15  1  0.21861477  0.29364987  0.61812937  1
  O  O16  1  0.29364987  0.61812937  0.21861477  1
  O  O17  1  0.55051983  0.92849517  0.49946102  1
  O  O18  1  0.37097596  0.74854662  0.41987364  1
  O  O19  1  0.15686901  0.61097034  0.08066861  1
  O  O20  1  0.11097034  0.65686901  0.58066861  1
  O  O21  1  0.24854662  0.87097596  0.91987364  1
  O  O22  1  0.11812937  0.79364987  0.71861477  1
  O  O23  1  0.05051983  0.99946102  0.42849517  1
loop_
_geom_bond_atom_site_label_1
_geom_bond_atom_site_label_2
_geom_bond_distance
_geom_bond_site_symmetry_2
Ho0 O1 2.324128 1_565
Ho0 O22 2.324128 1_655
Ho0 O9 2.324129 1_556
Ho0 O19 2.412220 1_656
Ho0 O3 2.412220 1_566
Ho0 O14 2.412221 1_665
Ho0 O21 2.413746 1_655
Ho0 O0 2.413746 1_565
Ho0 O13 2.413746 1_556
Ho1 O6 2.324128 1_555
Ho1 O16 2.324128 1_555
Ho1 O15 2.324129 1_555
Ho1 O20 2.412220 1_555
Ho1 O4 2.412220 1_555
Ho1 O10 2.412221 1_555
Ho1 O18 2.413746 1_555
Ho1 O8 2.413746 1_555
Ho1 O11 2.413746 1_555
Cl0 O17 1.401232 1_545
Cl0 O6 1.454771 1_555
Cl0 O13 1.463684 1_545
Cl0 O3 1.464084 1_555
Cl1 O7 1.401232 1_555
Cl1 O1 1.454771 1_555
Cl1 O11 1.463684 1_555
Cl1 O4 1.464084 1_555
Cl2 O2 1.401232 1_555
Cl2 O9 1.454771 1_555
Cl2 O8 1.463685 1_555
Cl2 O10 1.464084 1_555
Cl3 O5 1.401232 1_455
Cl3 O15 1.454771 1_555
Cl3 O0 1.463685 1_455
Cl3 O14 1.464084 1_555
Cl4 O12 1.401232 1_554
Cl4 O16 1.454771 1_555
Cl4 O21 1.463685 1_554
Cl4 O19 1.464084 1_555
Cl5 O23 1.401232 1_555
Cl5 O22 1.454771 1_555
Cl5 O18 1.463685 1_555
Cl5 O20 1.464084 1_555
