# generated using pymatgen
data_LiFeF3
_symmetry_space_group_name_H-M   'P 1'
_cell_length_a   7.09373183
_cell_length_b   7.09373183
_cell_length_c   5.71572528
_cell_angle_alpha   73.83625029
_cell_angle_beta   73.83625029
_cell_angle_gamma   79.42169848
_symmetry_Int_Tables_number   1
_chemical_formula_structural   LiFeF3
_chemical_formula_sum   'Li4 Fe4 F12'
_cell_volume   263.57116558
_cell_formula_units_Z   4
loop_
 _symmetry_equiv_pos_site_id
 _symmetry_equiv_pos_as_xyz
  1  'x, y, z'
loop_
 _atom_site_type_symbol
 _atom_site_label
 _atom_site_symmetry_multiplicity
 _atom_site_fract_x
 _atom_site_fract_y
 _atom_site_fract_z
 _atom_site_occupancy
  Li  Li0  1  0.79412800  0.61964800  0.29409000  1
  Li  Li1  1  0.61964800  0.79412800  0.79409000  1
  Li  Li2  1  0.38035200  0.20587200  0.20591000  1
  Li  Li3  1  0.20587200  0.38035200  0.70591000  1
  Fe  Fe0  1  0.91376000  0.08624000  0.25000000  1
  Fe  Fe1  1  0.29406200  0.70593800  0.25000000  1
  Fe  Fe2  1  0.70593800  0.29406200  0.75000000  1
  Fe  Fe3  1  0.08624000  0.91376000  0.75000000  1
  F  F0  1  0.99164700  0.80504500  0.16511100  1
  F  F1  1  0.80504500  0.99164700  0.66511100  1
  F  F2  1  0.86623200  0.33921100  0.36210800  1
  F  F3  1  0.58895400  0.69383900  0.13874600  1
  F  F4  1  0.33921100  0.86623200  0.86210800  1
  F  F5  1  0.69383900  0.58895400  0.63874600  1
  F  F6  1  0.30616100  0.41104600  0.36125400  1
  F  F7  1  0.66078900  0.13376800  0.13789200  1
  F  F8  1  0.41104600  0.30616100  0.86125400  1
  F  F9  1  0.13376800  0.66078900  0.63789200  1
  F  F10  1  0.19495500  0.00835300  0.33488900  1
  F  F11  1  0.00835300  0.19495500  0.83488900  1
loop_
_geom_bond_atom_site_label_1
_geom_bond_atom_site_label_2
_geom_bond_distance
_geom_bond_site_symmetry_2
F0 Li0 1.948841 1_555
F0 Fe0 2.122396 1_565
F0 Fe3 2.226956 1_654
F0 Fe1 2.273246 1_655
F1 Li1 1.948841 1_555
F1 Fe3 2.122396 1_655
F1 Fe0 2.226956 1_565
F1 Fe2 2.273246 1_565
F2 Li0 1.917491 1_555
F2 Fe0 2.010553 1_555
F2 Fe2 2.155399 1_555
F3 Li0 1.833517 1_555
F3 Li1 1.863340 1_554
F3 Fe1 2.002887 1_555
F4 Li1 1.917491 1_555
F4 Fe3 2.010553 1_555
F4 Fe1 2.155399 1_556
F5 Li1 1.833517 1_555
F5 Li0 1.863340 1_555
F5 Fe2 2.002887 1_555
F6 Li2 1.833517 1_555
F6 Li3 1.863340 1_555
F6 Fe1 2.002887 1_555
F7 Li2 1.917491 1_555
F7 Fe0 2.010553 1_555
F7 Fe2 2.155399 1_554
F8 Li3 1.833517 1_555
F8 Li2 1.863340 1_556
F8 Fe2 2.002887 1_555
F9 Li3 1.917491 1_555
F9 Fe3 2.010553 1_555
F9 Fe1 2.155399 1_555
F10 Li2 1.948841 1_555
F10 Fe0 2.122396 1_455
F10 Fe3 2.226956 1_545
F10 Fe1 2.273246 1_545
F11 Li3 1.948841 1_555
F11 Fe3 2.122396 1_545
F11 Fe0 2.226956 1_456
F11 Fe2 2.273246 1_455
