# generated using pymatgen
data_Li3V3P8O29
_symmetry_space_group_name_H-M   'P 1'
_cell_length_a   9.77576200
_cell_length_b   9.78616537
_cell_length_c   14.42803037
_cell_angle_alpha   89.87441958
_cell_angle_beta   90.99896000
_cell_angle_gamma   119.87471423
_symmetry_Int_Tables_number   1
_chemical_formula_structural   Li3V3P8O29
_chemical_formula_sum   'Li6 V6 P16 O58'
_cell_volume   1196.65664556
_cell_formula_units_Z   2
loop_
 _symmetry_equiv_pos_site_id
 _symmetry_equiv_pos_as_xyz
  1  'x, y, z'
loop_
 _atom_site_type_symbol
 _atom_site_label
 _atom_site_symmetry_multiplicity
 _atom_site_fract_x
 _atom_site_fract_y
 _atom_site_fract_z
 _atom_site_occupancy
  Li  Li0  1  0.70801300  0.78369100  0.94911200  1
  Li  Li1  1  0.69230600  0.92151900  0.43344700  1
  Li  Li2  1  0.08069100  0.30738700  0.94358600  1
  Li  Li3  1  0.77933000  0.69161500  0.54625100  1
  Li  Li4  1  0.30059400  0.08354300  0.55520900  1
  Li  Li5  1  0.31695800  0.22248100  0.06241700  1
  V  V0  1  0.42785600  0.43412600  0.25594400  1
  V  V1  1  0.56971900  0.00753200  0.24404800  1
  V  V2  1  0.99502100  0.43363400  0.74544600  1
  V  V3  1  0.00125700  0.56664500  0.25043500  1
  V  V4  1  0.43018300  0.99365400  0.75439900  1
  V  V5  1  0.56723500  0.56609200  0.75018400  1
  P  P0  1  0.67597000  0.76610800  0.16046300  1
  P  P1  1  0.67704000  0.91027200  0.65516800  1
  P  P2  1  0.22601100  0.31593200  0.66279600  1
  P  P3  1  0.33959700  0.67525800  0.36925800  1
  P  P4  1  0.33570800  0.66229700  0.86761400  1
  P  P5  1  0.08503000  0.31603200  0.15891200  1
  P  P6  1  0.91808800  0.22946900  0.33928200  1
  P  P7  1  0.22357400  0.91009800  0.16380800  1
  P  P8  1  0.77434900  0.08698100  0.83389100  1
  P  P9  1  0.08288800  0.77134800  0.66288800  1
  P  P10  1  0.91849100  0.68601000  0.84433500  1
  P  P11  1  0.66285500  0.33787100  0.13138700  1
  P  P12  1  0.65777600  0.32998700  0.63271500  1
  P  P13  1  0.77287700  0.68074800  0.33664700  1
  P  P14  1  0.32075400  0.08644400  0.34198700  1
  P  P15  1  0.32032100  0.23180000  0.84112900  1
  O  O0  1  0.76283400  0.76022100  0.42305700  1
  O  O1  1  0.66129200  0.74391600  0.66657500  1
  O  O2  1  0.79616200  0.01479400  0.73800400  1
  O  O3  1  0.76721700  0.99102500  0.91491900  1
  O  O4  1  0.51769800  0.61567200  0.18075900  1
  O  O5  1  0.65313700  0.91153700  0.17107200  1
  O  O6  1  0.48611600  0.66603700  0.82408200  1
  O  O7  1  0.38079700  0.47693400  0.67982300  1
  O  O8  1  0.25151600  0.24255600  0.93062200  1
  O  O9  1  0.25441100  0.33758700  0.16727900  1
  O  O10  1  0.48869000  0.82274800  0.33058900  1
  O  O11  1  0.34066900  0.52373900  0.32508300  1
  O  O12  1  0.51880000  0.90250500  0.67986600  1
  O  O13  1  0.34373600  0.66763000  0.47188800  1
  O  O14  1  0.35114700  0.66923600  0.97004600  1
  O  O15  1  0.38058100  0.90523100  0.17786900  1
  O  O16  1  0.18472600  0.51390300  0.82869500  1
  O  O17  1  0.33604100  0.81280800  0.82341800  1
  O  O18  1  0.08466200  0.34534300  0.66791700  1
  O  O19  1  0.99241100  0.20530600  0.24405300  1
  O  O20  1  0.01328300  0.24676100  0.06709700  1
  O  O21  1  0.00328400  0.23008500  0.42412000  1
  O  O22  1  0.09433200  0.47658500  0.17837900  1
  O  O23  1  0.18832400  0.66706500  0.32447300  1
  O  O24  1  0.25357600  0.91438900  0.66411000  1
  O  O25  1  0.91762600  0.25674100  0.83602200  1
  O  O26  1  0.09223400  0.61723100  0.67794400  1
  O  O27  1  0.73757800  0.97701900  0.56304500  1
  O  O28  1  0.25553500  0.01731900  0.43275200  1
  O  O29  1  0.91164400  0.38406600  0.32096900  1
  O  O30  1  0.08458100  0.73956900  0.16718500  1
  O  O31  1  0.20268700  0.98615200  0.25870200  1
  O  O32  1  0.74520600  0.08638800  0.33320000  1
  O  O33  1  0.81006200  0.33316000  0.67702000  1
  O  O34  1  0.91114500  0.52599500  0.82033400  1
  O  O35  1  0.99686200  0.76094100  0.93246600  1
  O  O36  1  0.99050200  0.76355500  0.57878900  1
  O  O37  1  0.00646400  0.79397400  0.75504900  1
  O  O38  1  0.91671400  0.65707200  0.33406200  1
  O  O39  1  0.66137800  0.18558400  0.17568600  1
  O  O40  1  0.61894600  0.09537400  0.82014400  1
  O  O41  1  0.81357300  0.48008900  0.17666900  1
  O  O42  1  0.66179500  0.34342300  0.53032200  1
  O  O43  1  0.66036000  0.32815000  0.02868900  1
  O  O44  1  0.48035000  0.09634600  0.32067700  1
  O  O45  1  0.66377900  0.48220200  0.67665700  1
  O  O46  1  0.51090700  0.18002100  0.67075500  1
  O  O47  1  0.74637200  0.65967900  0.83429500  1
  O  O48  1  0.79089100  0.78704500  0.24795100  1
  O  O49  1  0.74750800  0.76210500  0.07211500  1
  O  O50  1  0.61969200  0.51910300  0.32168100  1
  O  O51  1  0.51249900  0.33576300  0.16898300  1
  O  O52  1  0.34286800  0.08653100  0.83064800  1
  O  O53  1  0.48069000  0.38207500  0.82147600  1
  O  O54  1  0.22882800  0.00469500  0.08242300  1
  O  O55  1  0.34466400  0.25533600  0.32843400  1
  O  O56  1  0.23330400  0.22968300  0.58117000  1
  O  O57  1  0.20366700  0.21528200  0.75711500  1
loop_
_geom_bond_atom_site_label_1
_geom_bond_atom_site_label_2
_geom_bond_distance
_geom_bond_site_symmetry_2
Li0 O49 1.843620 1_556
Li0 O3 1.879073 1_555
Li0 O47 2.200352 1_555
Li0 O6 2.582612 1_555
Li1 O27 1.929588 1_555
Li1 O0 2.019478 1_555
Li1 O32 2.036474 1_565
Li1 O10 2.255070 1_555
Li2 O20 1.899648 1_556
Li2 O8 2.071982 1_555
Li2 O25 2.079733 1_455
Li2 O16 2.421377 1_555
Li3 O36 1.870149 1_555
Li3 O0 1.930989 1_555
Li3 O1 2.295521 1_555
Li3 O45 2.601329 1_555
Li4 O28 1.851799 1_555
Li4 O56 1.888515 1_555
Li4 O24 2.162420 1_545
Li4 O46 2.418937 1_555
Li5 O54 1.882739 1_555
Li5 O8 2.035899 1_554
Li5 O9 2.158158 1_555
Li5 O51 2.245205 1_555
O0 P13 1.501141 1_555
O1 P1 1.565619 1_555
O1 V5 1.940213 1_555
O2 P1 1.612747 1_545
O2 P8 1.619605 1_555
O3 P8 1.478581 1_565
O4 P0 1.546525 1_555
O4 V0 1.890728 1_555
O5 P0 1.554780 1_555
O5 V1 1.858375 1_565
O6 P4 1.592561 1_555
O6 V5 1.878564 1_555
O7 P2 1.564011 1_555
O7 V5 1.862472 1_555
O8 P15 1.494031 1_555
O9 P5 1.563976 1_555
O9 V0 1.933348 1_555
O10 P3 1.564597 1_555
O10 V1 2.013491 1_565
O11 P3 1.620141 1_555
O11 V0 1.807958 1_555
O12 P1 1.558100 1_555
O12 V4 1.873244 1_555
O13 P3 1.483328 1_555
O14 P4 1.481218 1_555
O15 P7 1.568808 1_555
O15 V1 1.852361 1_565
O16 P4 1.562716 1_555
O16 V2 1.993532 1_455
O17 P4 1.602283 1_555
O17 V4 1.836411 1_555
O18 P2 1.548390 1_555
O18 V2 1.886376 1_455
O19 P5 1.599536 1_655
O19 P6 1.636760 1_555
O20 P5 1.484659 1_555
O21 P6 1.466784 1_455
O22 P5 1.553876 1_555
O22 V3 1.876524 1_555
O23 P3 1.568316 1_555
O23 V3 1.896639 1_555
O24 P9 1.554426 1_555
O24 V4 1.967555 1_555
O25 P8 1.550263 1_555
O25 V2 1.999187 1_555
O26 P9 1.570157 1_555
O26 V2 1.844837 1_455
O27 P1 1.477183 1_555
O28 P14 1.474659 1_555
O29 P6 1.566938 1_555
O29 V3 1.859931 1_655
O30 P7 1.541621 1_555
O30 V3 1.903145 1_555
O31 P14 1.602399 1_565
O31 P7 1.623508 1_555
O32 P6 1.569229 1_555
O32 V1 1.949775 1_555
O33 P12 1.595838 1_555
O33 V2 1.838926 1_555
O34 P10 1.570573 1_555
O34 V2 1.852085 1_555
O35 P10 1.466963 1_555
O36 P9 1.478973 1_655
O37 P9 1.605000 1_555
O37 P10 1.625697 1_455
O38 P13 1.535794 1_555
O38 V3 1.920946 1_655
O39 P11 1.613827 1_555
O39 V1 1.811008 1_555
O40 P8 1.570901 1_555
O40 V4 1.846350 1_545
O41 P11 1.569173 1_555
O41 V3 1.898465 1_655
O42 P12 1.482350 1_555
O43 P11 1.483986 1_555
O44 P14 1.550498 1_555
O44 V1 1.880264 1_555
O45 P12 1.593758 1_555
O45 V5 1.871024 1_555
O46 P12 1.562459 1_555
O46 V4 1.998807 1_545
O47 P10 1.574244 1_555
O47 V5 1.926451 1_555
O48 P13 1.603214 1_555
O48 P0 1.618587 1_555
O49 P0 1.474460 1_555
O50 P13 1.556219 1_555
O50 V0 1.869719 1_555
O51 P11 1.566094 1_555
O51 V0 2.005107 1_555
O52 P15 1.551366 1_555
O52 V4 1.890760 1_545
O53 P15 1.554918 1_555
O53 V5 1.876485 1_555
O54 P7 1.479328 1_545
O55 P14 1.562035 1_555
O55 V0 1.849515 1_555
O56 P2 1.473674 1_555
O57 P15 1.601544 1_555
O57 P2 1.630928 1_555
