# generated using pymatgen
data_Ga(W3O10)4
_symmetry_space_group_name_H-M   'P 1'
_cell_length_a   15.80321944
_cell_length_b   15.80321944
_cell_length_c   15.80321944
_cell_angle_alpha   109.47122063
_cell_angle_beta   109.47122063
_cell_angle_gamma   109.47122063
_symmetry_Int_Tables_number   1
_chemical_formula_structural   Ga(W3O10)4
_chemical_formula_sum   'Ga1 W12 O40'
_cell_volume   3038.18924172
_cell_formula_units_Z   1
loop_
 _symmetry_equiv_pos_site_id
 _symmetry_equiv_pos_as_xyz
  1  'x, y, z'
loop_
 _atom_site_type_symbol
 _atom_site_label
 _atom_site_symmetry_multiplicity
 _atom_site_fract_x
 _atom_site_fract_y
 _atom_site_fract_z
 _atom_site_occupancy
  Ga  Ga0  1  0.00000000  0.00000000  0.00000000  1
  W  W0  1  0.28040700  0.13329200  0.13329200  1
  W  W1  1  0.14711500  0.00000000  0.86670800  1
  W  W2  1  0.14711500  0.86670800  0.00000000  1
  W  W3  1  0.00000000  0.14711500  0.86670800  1
  W  W4  1  0.13329200  0.28040700  0.13329200  1
  W  W5  1  0.86670800  0.14711500  0.00000000  1
  W  W6  1  0.00000000  0.86670800  0.14711500  1
  W  W7  1  0.86670800  0.00000000  0.14711500  1
  W  W8  1  0.13329200  0.13329200  0.28040700  1
  W  W9  1  0.71959300  0.85288500  0.85288500  1
  W  W10  1  0.85288500  0.71959300  0.85288500  1
  W  W11  1  0.85288500  0.85288500  0.71959300  1
  O  O0  1  0.11567400  0.00000000  0.00000000  1
  O  O1  1  0.00000000  0.11567400  0.00000000  1
  O  O2  1  0.00000000  0.00000000  0.11567400  1
  O  O3  1  0.88432600  0.88432600  0.88432600  1
  O  O4  1  0.27408200  0.10800400  0.00000000  1
  O  O5  1  0.16607700  0.89199600  0.89199600  1
  O  O6  1  0.27408200  0.00000000  0.10800400  1
  O  O7  1  0.10800400  0.27408200  0.00000000  1
  O  O8  1  0.00000000  0.27408200  0.10800400  1
  O  O9  1  0.89199600  0.16607700  0.89199600  1
  O  O10  1  0.89199600  0.89199600  0.16607700  1
  O  O11  1  0.00000000  0.10800400  0.27408200  1
  O  O12  1  0.10800400  0.00000000  0.27408200  1
  O  O13  1  0.72591800  0.72591800  0.83392300  1
  O  O14  1  0.83392300  0.72591800  0.72591800  1
  O  O15  1  0.72591800  0.83392300  0.72591800  1
  O  O16  1  0.22819100  0.12630200  0.22819100  1
  O  O17  1  0.10188900  0.10188900  0.87369800  1
  O  O18  1  0.00000000  0.77180900  0.89811100  1
  O  O19  1  0.00000000  0.89811100  0.77180900  1
  O  O20  1  0.22819100  0.22819100  0.12630200  1
  O  O21  1  0.10188900  0.87369800  0.10188900  1
  O  O22  1  0.89811100  0.00000000  0.77180900  1
  O  O23  1  0.87369800  0.10188900  0.10188900  1
  O  O24  1  0.12630200  0.22819100  0.22819100  1
  O  O25  1  0.77180900  0.00000000  0.89811100  1
  O  O26  1  0.77180900  0.89811100  0.00000000  1
  O  O27  1  0.89811100  0.77180900  0.00000000  1
  O  O28  1  0.41313200  0.21423600  0.21423600  1
  O  O29  1  0.19889700  0.00000000  0.78576400  1
  O  O30  1  0.19889700  0.78576400  0.00000000  1
  O  O31  1  0.00000000  0.19889700  0.78576400  1
  O  O32  1  0.21423600  0.41313200  0.21423600  1
  O  O33  1  0.78576400  0.19889700  0.00000000  1
  O  O34  1  0.00000000  0.78576400  0.19889700  1
  O  O35  1  0.78576400  0.00000000  0.19889700  1
  O  O36  1  0.21423600  0.21423600  0.41313200  1
  O  O37  1  0.58686800  0.80110300  0.80110300  1
  O  O38  1  0.80110300  0.58686800  0.80110300  1
  O  O39  1  0.80110300  0.80110300  0.58686800  1
loop_
_geom_bond_atom_site_label_1
_geom_bond_atom_site_label_2
_geom_bond_distance
_geom_bond_site_symmetry_2
Ga0 O2 1.828022 1_555
Ga0 O1 1.828022 1_555
Ga0 O0 1.828022 1_555
Ga0 O3 1.828022 1_444
O0 W0 2.319856 1_555
O0 W2 2.319856 1_545
O0 W1 2.319856 1_554
O1 W4 2.319856 1_555
O1 W5 2.319856 1_455
O1 W3 2.319856 1_554
O2 W8 2.319856 1_555
O2 W7 2.319856 1_455
O2 W6 2.319856 1_545
O3 W10 2.319856 1_555
O3 W11 2.319856 1_555
O3 W9 2.319856 1_555
O4 W0 1.969416 1_555
O4 W1 1.969416 1_554
O5 W1 1.969410 1_565
O5 W2 1.969410 1_556
O6 W0 1.969416 1_555
O6 W2 1.969416 1_545
O7 W4 1.969416 1_555
O7 W3 1.969416 1_554
O8 W4 1.969416 1_555
O8 W5 1.969416 1_455
O9 W5 1.969410 1_556
O9 W3 1.969410 1_655
O10 W7 1.969410 1_565
O10 W6 1.969410 1_655
O11 W8 1.969416 1_555
O11 W7 1.969416 1_455
O12 W8 1.969416 1_555
O12 W6 1.969416 1_545
O13 W10 1.969419 1_555
O13 W9 1.969419 1_555
O14 W10 1.969419 1_555
O14 W11 1.969419 1_555
O15 W11 1.969419 1_555
O15 W9 1.969419 1_555
O16 W8 1.953702 1_555
O16 W0 1.953702 1_555
O17 W1 1.953702 1_555
O17 W3 1.953702 1_555
O18 W2 1.953702 1_556
O18 W10 1.953702 1_455
O19 W1 1.953702 1_565
O19 W11 1.953702 1_455
O20 W0 1.953702 1_555
O20 W4 1.953702 1_555
O21 W6 1.953702 1_555
O21 W2 1.953702 1_555
O22 W3 1.953702 1_655
O22 W11 1.953702 1_545
O23 W5 1.953702 1_555
O23 W7 1.953702 1_555
O24 W8 1.953702 1_555
O24 W4 1.953702 1_555
O25 W5 1.953702 1_556
O25 W9 1.953702 1_545
O26 W9 1.953702 1_554
O26 W7 1.953702 1_565
O27 W6 1.953702 1_655
O27 W10 1.953702 1_554
O28 W0 1.733134 1_555
O29 W1 1.733146 1_555
O30 W2 1.733146 1_555
O31 W3 1.733146 1_555
O32 W4 1.733134 1_555
O33 W5 1.733146 1_555
O34 W6 1.733146 1_555
O35 W7 1.733146 1_555
O36 W8 1.733134 1_555
O37 W9 1.733132 1_555
O38 W10 1.733132 1_555
O39 W11 1.733132 1_555
