# generated using pymatgen
data_Nb2P2O9
_symmetry_space_group_name_H-M   'P 1'
_cell_length_a   5.47605049
_cell_length_b   5.47605049
_cell_length_c   11.83299900
_cell_angle_alpha   90.00000000
_cell_angle_beta   90.00000000
_cell_angle_gamma   105.08639324
_symmetry_Int_Tables_number   1
_chemical_formula_structural   Nb2P2O9
_chemical_formula_sum   'Nb4 P4 O18'
_cell_volume   342.60799887
_cell_formula_units_Z   2
loop_
 _symmetry_equiv_pos_site_id
 _symmetry_equiv_pos_as_xyz
  1  'x, y, z'
loop_
 _atom_site_type_symbol
 _atom_site_label
 _atom_site_symmetry_multiplicity
 _atom_site_fract_x
 _atom_site_fract_y
 _atom_site_fract_z
 _atom_site_occupancy
  Nb  Nb0  1  0.20373600  0.79626400  0.55998200  1
  Nb  Nb1  1  0.79626400  0.20373600  0.44001800  1
  Nb  Nb2  1  0.29626400  0.70373600  0.05998200  1
  Nb  Nb3  1  0.70373600  0.29626400  0.94001800  1
  P  P0  1  0.10547300  0.89452700  0.85270500  1
  P  P1  1  0.89452700  0.10547300  0.14729500  1
  P  P2  1  0.39452700  0.60547300  0.35270500  1
  P  P3  1  0.60547300  0.39452700  0.64729500  1
  O  O0  1  0.63227500  0.01782000  0.08353800  1
  O  O1  1  0.01782000  0.63227500  0.91646200  1
  O  O2  1  0.13227500  0.51782000  0.41646200  1
  O  O3  1  0.51782000  0.13227500  0.58353800  1
  O  O4  1  0.50000000  0.50000000  0.00000000  1
  O  O5  1  0.85849700  0.14150300  0.27302800  1
  O  O6  1  0.64150300  0.35849700  0.77302800  1
  O  O7  1  0.00000000  0.00000000  0.50000000  1
  O  O8  1  0.56466000  0.43534000  0.37460800  1
  O  O9  1  0.93534000  0.06466000  0.87460800  1
  O  O10  1  0.06466000  0.93534000  0.12539200  1
  O  O11  1  0.14150300  0.85849700  0.72697200  1
  O  O12  1  0.35849700  0.64150300  0.22697200  1
  O  O13  1  0.43534000  0.56466000  0.62539200  1
  O  O14  1  0.48218000  0.86772500  0.41646200  1
  O  O15  1  0.36772500  0.98218000  0.91646200  1
  O  O16  1  0.86772500  0.48218000  0.58353800  1
  O  O17  1  0.98218000  0.36772500  0.08353800  1
loop_
_geom_bond_atom_site_label_1
_geom_bond_atom_site_label_2
_geom_bond_distance
_geom_bond_site_symmetry_2
Nb0 O7 1.908177 1_565
Nb0 O11 2.048726 1_555
Nb0 O13 2.157181 1_555
Nb0 O16 2.184982 1_455
Nb0 O3 2.184982 1_565
Nb0 O2 2.247575 1_555
Nb0 O14 2.247575 1_555
Nb1 O7 1.908177 1_655
Nb1 O5 2.048726 1_555
Nb1 O8 2.157181 1_555
Nb1 O2 2.184982 1_655
Nb1 O14 2.184982 1_545
Nb1 O3 2.247575 1_555
Nb1 O16 2.247575 1_555
Nb2 O4 1.908177 1_555
Nb2 O12 2.048726 1_555
Nb2 O10 2.157181 1_555
Nb2 O17 2.184982 1_455
Nb2 O0 2.184982 1_565
Nb2 O1 2.247575 1_554
Nb2 O15 2.247575 1_554
Nb3 O4 1.908177 1_556
Nb3 O6 2.048726 1_555
Nb3 O9 2.157181 1_555
Nb3 O15 2.184982 1_545
Nb3 O1 2.184982 1_655
Nb3 O0 2.247575 1_556
Nb3 O17 2.247575 1_556
O0 P1 1.582131 1_555
O1 P0 1.582131 1_555
O2 P2 1.582131 1_555
O3 P3 1.582131 1_555
O5 P1 1.520416 1_555
O6 P3 1.520416 1_555
O8 P2 1.501656 1_555
O9 P0 1.501656 1_645
O10 P1 1.501656 1_465
O11 P0 1.520416 1_555
O12 P2 1.520416 1_555
O13 P3 1.501656 1_555
O14 P2 1.582131 1_555
O15 P0 1.582131 1_555
O16 P3 1.582131 1_555
O17 P1 1.582131 1_555
