# generated using pymatgen
data_NaSbO2
_symmetry_space_group_name_H-M   'P 1'
_cell_length_a   5.30604116
_cell_length_b   5.30604116
_cell_length_c   5.53484260
_cell_angle_alpha   63.85544827
_cell_angle_beta   116.14455173
_cell_angle_gamma   89.86936355
_symmetry_Int_Tables_number   1
_chemical_formula_structural   NaSbO2
_chemical_formula_sum   'Na2 Sb2 O4'
_cell_volume   121.78431751
_cell_formula_units_Z   2
loop_
 _symmetry_equiv_pos_site_id
 _symmetry_equiv_pos_as_xyz
  1  'x, y, z'
loop_
 _atom_site_type_symbol
 _atom_site_label
 _atom_site_symmetry_multiplicity
 _atom_site_fract_x
 _atom_site_fract_y
 _atom_site_fract_z
 _atom_site_occupancy
  Na  Na0  1  0.37826614  0.37826614  0.75000000  1
  Na  Na1  1  0.62173386  0.62173386  0.25000000  1
  Sb  Sb0  1  0.88768735  0.88768735  0.75000000  1
  Sb  Sb1  1  0.11231265  0.11231265  0.25000000  1
  O  O0  1  0.25719719  0.85709052  0.74550395  1
  O  O1  1  0.14290948  0.74280281  0.24550395  1
  O  O2  1  0.85709052  0.25719719  0.75449605  1
  O  O3  1  0.74280281  0.14290948  0.25449605  1
loop_
_geom_bond_atom_site_label_1
_geom_bond_atom_site_label_2
_geom_bond_distance
_geom_bond_site_symmetry_2
Na0 O1 2.292153 1_555
Na0 O3 2.292153 1_556
Na0 O0 2.605956 1_555
Na0 O2 2.605956 1_555
Na0 O2 2.848732 1_455
Na0 O0 2.848732 1_545
Na1 O0 2.292153 1_554
Na1 O2 2.292153 1_555
Na1 O3 2.605956 1_555
Na1 O1 2.605956 1_555
Na1 O1 2.848732 1_655
Na1 O3 2.848732 1_565
O0 Sb0 1.978932 1_455
O0 Sb1 2.193301 1_565
O1 Sb1 1.978932 1_565
O1 Sb0 2.193301 1_454
O2 Sb0 1.978932 1_545
O2 Sb1 2.193301 1_656
O3 Sb1 1.978932 1_655
O3 Sb0 2.193301 1_545
