# generated using pymatgen
data_Li2TiFe2O5
_symmetry_space_group_name_H-M   'P 1'
_cell_length_a   4.21465900
_cell_length_b   6.11626479
_cell_length_c   7.99843763
_cell_angle_alpha   103.59405761
_cell_angle_beta   105.26008491
_cell_angle_gamma   90.11251639
_symmetry_Int_Tables_number   1
_chemical_formula_structural   Li2TiFe2O5
_chemical_formula_sum   'Li4 Ti2 Fe4 O10'
_cell_volume   192.89277831
_cell_formula_units_Z   2
loop_
 _symmetry_equiv_pos_site_id
 _symmetry_equiv_pos_as_xyz
  1  'x, y, z'
loop_
 _atom_site_type_symbol
 _atom_site_label
 _atom_site_symmetry_multiplicity
 _atom_site_fract_x
 _atom_site_fract_y
 _atom_site_fract_z
 _atom_site_occupancy
  Li  Li0  1  0.19179100  0.10835100  0.39103500  1
  Li  Li1  1  0.00000000  0.50000000  0.00000000  1
  Li  Li2  1  0.80820900  0.89164900  0.60896500  1
  Li  Li3  1  0.00000000  0.00000000  0.00000000  1
  Ti  Ti0  1  0.43731400  0.18671900  0.79808300  1
  Ti  Ti1  1  0.56268600  0.81328100  0.20191700  1
  Fe  Fe0  1  0.79533800  0.38135000  0.59463000  1
  Fe  Fe1  1  0.60046100  0.30518500  0.19883100  1
  Fe  Fe2  1  0.20466200  0.61865000  0.40537000  1
  Fe  Fe3  1  0.39953900  0.69481500  0.80116900  1
  O  O0  1  0.88295500  0.19053000  0.80835400  1
  O  O1  1  0.69359900  0.08228500  0.38430400  1
  O  O2  1  0.11022300  0.32108500  0.21912700  1
  O  O3  1  0.30501100  0.36159400  0.61903000  1
  O  O4  1  0.88977700  0.67891500  0.78087300  1
  O  O5  1  0.50000000  0.50000000  0.00000000  1
  O  O6  1  0.69498900  0.63840600  0.38097000  1
  O  O7  1  0.11704500  0.80947000  0.19164600  1
  O  O8  1  0.30640100  0.91771500  0.61569600  1
  O  O9  1  0.50000000  0.00000000  0.00000000  1
loop_
_geom_bond_atom_site_label_1
_geom_bond_atom_site_label_2
_geom_bond_distance
_geom_bond_site_symmetry_2
Li0 O3 2.040482 1_555
Li0 O2 2.072605 1_555
Li0 O7 2.084984 1_545
Li0 O1 2.090990 1_455
Li0 O1 2.135077 1_555
Li0 O8 2.313446 1_545
Li1 O7 2.100026 1_555
Li1 O0 2.100026 1_454
Li1 O5 2.107330 1_455
Li1 O5 2.107330 1_555
Li1 O2 2.227135 1_555
Li1 O4 2.227135 1_454
Li2 O6 2.040482 1_555
Li2 O4 2.072605 1_555
Li2 O0 2.084984 1_565
Li2 O8 2.090990 1_655
Li2 O8 2.135077 1_555
Li2 O1 2.313446 1_565
Li3 O0 2.096414 1_454
Li3 O7 2.096414 1_545
Li3 O9 2.107330 1_455
Li3 O9 2.107330 1_555
Li3 O4 2.257022 1_444
Li3 O2 2.257022 1_555
Fe0 O4 2.024949 1_555
Fe0 O3 2.111501 1_655
Fe0 O1 2.128482 1_555
Fe0 O3 2.132082 1_555
Fe0 O0 2.242323 1_555
Fe0 O6 2.540952 1_555
Fe1 O9 2.107037 1_555
Fe1 O2 2.111850 1_655
Fe1 O2 2.115388 1_555
Fe1 O5 2.160213 1_555
Fe1 O6 2.174936 1_555
Fe1 O1 2.204487 1_555
Fe2 O2 2.024949 1_555
Fe2 O6 2.111501 1_455
Fe2 O8 2.128482 1_555
Fe2 O6 2.132082 1_555
Fe2 O7 2.242323 1_555
Fe2 O3 2.540952 1_555
Fe3 O9 2.107037 1_566
Fe3 O4 2.111850 1_455
Fe3 O4 2.115388 1_555
Fe3 O5 2.160213 1_556
Fe3 O3 2.174936 1_555
Fe3 O8 2.204487 1_555
O0 Ti0 1.858151 1_555
O0 Ti0 2.359358 1_655
O1 Ti1 1.893151 1_545
O3 Ti0 1.951413 1_555
O5 Ti0 2.160619 1_554
O5 Ti1 2.160619 1_555
O6 Ti1 1.951413 1_555
O7 Ti1 1.858151 1_555
O7 Ti1 2.359358 1_455
O8 Ti0 1.893151 1_565
O9 Ti0 2.150791 1_554
O9 Ti1 2.150791 1_545
