# generated using pymatgen
data_Ba13Nb14O42
_symmetry_space_group_name_H-M   'P 1'
_cell_length_a   9.25128700
_cell_length_b   10.14830092
_cell_length_c   11.71426119
_cell_angle_alpha   106.79892330
_cell_angle_beta   108.42926917
_cell_angle_gamma   89.97559299
_symmetry_Int_Tables_number   1
_chemical_formula_structural   Ba13Nb14O42
_chemical_formula_sum   'Ba13 Nb14 O42'
_cell_volume   993.84177677
_cell_formula_units_Z   1
loop_
 _symmetry_equiv_pos_site_id
 _symmetry_equiv_pos_as_xyz
  1  'x, y, z'
loop_
 _atom_site_type_symbol
 _atom_site_label
 _atom_site_symmetry_multiplicity
 _atom_site_fract_x
 _atom_site_fract_y
 _atom_site_fract_z
 _atom_site_occupancy
  Ba  Ba0  1  0.85876400  0.71684400  0.14071100  1
  Ba  Ba1  1  0.42412200  0.85905500  0.07028700  1
  Ba  Ba2  1  0.42803500  0.85779800  0.57199300  1
  Ba  Ba3  1  0.85925300  0.71798800  0.64773600  1
  Ba  Ba4  1  0.71366000  0.42764800  0.28487600  1
  Ba  Ba5  1  0.28483600  0.57114500  0.21342400  1
  Ba  Ba6  1  0.71516400  0.42885500  0.78657600  1
  Ba  Ba7  1  0.28634000  0.57235200  0.71512400  1
  Ba  Ba8  1  0.14074700  0.28201200  0.35226400  1
  Ba  Ba9  1  0.57196500  0.14220200  0.42800700  1
  Ba  Ba10  1  0.00000000  0.00000000  0.50000000  1
  Ba  Ba11  1  0.14123600  0.28315600  0.85928900  1
  Ba  Ba12  1  0.57587800  0.14094500  0.92971300  1
  Nb  Nb0  1  0.21124200  0.92948000  0.28182300  1
  Nb  Nb1  1  0.64273500  0.78661400  0.35740700  1
  Nb  Nb2  1  0.92977800  0.35276500  0.07028500  1
  Nb  Nb3  1  0.07112500  0.64293900  0.42833800  1
  Nb  Nb4  1  0.92887500  0.35706100  0.57166200  1
  Nb  Nb5  1  0.78815300  0.07053500  0.21131000  1
  Nb  Nb6  1  0.35303200  0.21129100  0.14094200  1
  Nb  Nb7  1  0.21184700  0.92946500  0.78869000  1
  Nb  Nb8  1  0.50000000  0.50000000  0.50000000  1
  Nb  Nb9  1  0.64696800  0.78870900  0.85905800  1
  Nb  Nb10  1  0.35726500  0.21338600  0.64259300  1
  Nb  Nb11  1  0.07022200  0.64723500  0.92971500  1
  Nb  Nb12  1  0.50000000  0.50000000  0.00000000  1
  Nb  Nb13  1  0.78875800  0.07052000  0.71817700  1
  O  O0  1  0.71001800  0.92766000  0.03608800  1
  O  O1  1  0.71445400  0.92849700  0.28561400  1
  O  O2  1  0.85709000  0.71467100  0.39283400  1
  O  O3  1  0.42862900  0.85751400  0.32117400  1
  O  O4  1  0.71391600  0.42833000  0.03553600  1
  O  O5  1  0.71427600  0.92844200  0.53586900  1
  O  O6  1  0.00029100  0.49986900  0.25023700  1
  O  O7  1  0.57130300  0.64278700  0.17857800  1
  O  O8  1  0.14470200  0.78244600  0.10860400  1
  O  O9  1  0.14235200  0.78581500  0.35682300  1
  O  O10  1  0.42847500  0.35729400  0.07127300  1
  O  O11  1  0.71051600  0.92756900  0.78287900  1
  O  O12  1  0.00000000  0.50000000  0.50000000  1
  O  O13  1  0.57155000  0.64311600  0.42863300  1
  O  O14  1  0.85514700  0.21749500  0.14493200  1
  O  O15  1  0.71421200  0.42847300  0.53579900  1
  O  O16  1  0.57115300  0.14255100  0.17813400  1
  O  O17  1  0.85483700  0.71031700  0.89148700  1
  O  O18  1  0.14273000  0.78544500  0.60720300  1
  O  O19  1  0.99970900  0.00007300  0.25336500  1
  O  O20  1  0.85727000  0.21455500  0.39279700  1
  O  O21  1  0.14516300  0.28968300  0.10851300  1
  O  O22  1  0.28578800  0.57152700  0.46420100  1
  O  O23  1  0.42844600  0.35701800  0.32161400  1
  O  O24  1  0.99970900  0.50013100  0.74976300  1
  O  O25  1  0.42884700  0.85744900  0.82186600  1
  O  O26  1  0.57155400  0.64298200  0.67838600  1
  O  O27  1  0.28948400  0.07243100  0.21712100  1
  O  O28  1  0.85764800  0.21418500  0.64317700  1
  O  O29  1  0.14485300  0.78250500  0.85506800  1
  O  O30  1  0.00000000  0.50000000  0.00000000  1
  O  O31  1  0.42845000  0.35688400  0.57136700  1
  O  O32  1  0.57152500  0.64270600  0.92872700  1
  O  O33  1  0.28608400  0.57167000  0.96446400  1
  O  O34  1  0.14291000  0.28532900  0.60716600  1
  O  O35  1  0.00029100  0.99992700  0.74663500  1
  O  O36  1  0.57137100  0.14248600  0.67882600  1
  O  O37  1  0.42869700  0.35721300  0.82142200  1
  O  O38  1  0.85529800  0.21755400  0.89139600  1
  O  O39  1  0.28572400  0.07155800  0.46413100  1
  O  O40  1  0.28554600  0.07150300  0.71438600  1
  O  O41  1  0.28998200  0.07234000  0.96391200  1
loop_
_geom_bond_atom_site_label_1
_geom_bond_atom_site_label_2
_geom_bond_distance
_geom_bond_site_symmetry_2
Ba0 O17 2.889672 1_554
Ba0 O8 2.890944 1_655
Ba0 O0 2.901653 1_555
Ba0 O19 2.902757 1_565
Ba0 O30 2.920523 1_655
Ba0 O32 2.922927 1_554
Ba0 O9 2.925724 1_655
Ba0 O1 2.932595 1_555
Ba0 O4 2.959850 1_555
Ba0 O7 2.962125 1_555
Ba0 O6 2.962653 1_655
Ba0 O2 2.964805 1_555
Ba1 O41 2.890809 1_564
Ba1 O29 2.895836 1_554
Ba1 O27 2.897997 1_565
Ba1 O8 2.902608 1_555
Ba1 O0 2.910925 1_555
Ba1 O25 2.919535 1_554
Ba1 O16 2.922208 1_565
Ba1 O33 2.930150 1_554
Ba1 O3 2.930620 1_555
Ba1 O32 2.958496 1_554
Ba1 O1 2.960390 1_555
Ba1 O7 2.965606 1_555
Ba2 O11 2.888282 1_555
Ba2 O40 2.918939 1_565
Ba2 O36 2.921566 1_565
Ba2 O18 2.922487 1_555
Ba2 O25 2.925738 1_555
Ba2 O39 2.926743 1_565
Ba2 O26 2.930943 1_555
Ba2 O5 2.931031 1_555
Ba2 O9 2.932121 1_555
Ba2 O22 2.932301 1_555
Ba2 O13 2.936325 1_555
Ba2 O3 2.939070 1_555
Ba3 O29 2.886774 1_655
Ba3 O11 2.889951 1_555
Ba3 O35 2.891801 1_655
Ba3 O17 2.891897 1_555
Ba3 O24 2.923672 1_555
Ba3 O18 2.923775 1_655
Ba3 O26 2.925108 1_555
Ba3 O5 2.929440 1_555
Ba3 O12 2.965415 1_655
Ba3 O13 2.967212 1_555
Ba3 O15 2.969211 1_555
Ba3 O2 2.970149 1_555
Ba4 O14 2.877946 1_555
Ba4 O10 2.920018 1_555
Ba4 O16 2.922725 1_555
Ba4 O4 2.923591 1_555
Ba4 O20 2.925024 1_555
Ba4 O23 2.925585 1_555
Ba4 O7 2.929829 1_555
Ba4 O6 2.930398 1_655
Ba4 O13 2.935060 1_555
Ba4 O15 2.935357 1_555
Ba4 O12 2.935689 1_655
Ba4 O2 2.942355 1_555
Ba5 O8 2.880928 1_555
Ba5 O21 2.882503 1_555
Ba5 O30 2.916916 1_555
Ba5 O33 2.921595 1_554
Ba5 O6 2.922056 1_555
Ba5 O10 2.925113 1_555
Ba5 O7 2.928461 1_555
Ba5 O9 2.930458 1_555
Ba5 O22 2.933776 1_555
Ba5 O23 2.935678 1_555
Ba5 O3 2.937670 1_555
Ba5 O13 2.938365 1_555
Ba6 O38 2.880928 1_555
Ba6 O17 2.882503 1_555
Ba6 O30 2.916916 1_656
Ba6 O4 2.921595 1_556
Ba6 O24 2.922056 1_555
Ba6 O32 2.925113 1_555
Ba6 O37 2.928461 1_555
Ba6 O28 2.930458 1_555
Ba6 O15 2.933776 1_555
Ba6 O26 2.935678 1_555
Ba6 O36 2.937670 1_555
Ba6 O31 2.938365 1_555
Ba7 O29 2.877946 1_555
Ba7 O32 2.920018 1_555
Ba7 O25 2.922725 1_555
Ba7 O33 2.923591 1_555
Ba7 O18 2.925024 1_555
Ba7 O26 2.925585 1_555
Ba7 O37 2.929829 1_555
Ba7 O24 2.930398 1_455
Ba7 O31 2.935060 1_555
Ba7 O22 2.935357 1_555
Ba7 O12 2.935689 1_555
Ba7 O34 2.942355 1_555
Ba8 O14 2.886774 1_455
Ba8 O27 2.889951 1_555
Ba8 O19 2.891801 1_455
Ba8 O21 2.891897 1_555
Ba8 O6 2.923672 1_555
Ba8 O20 2.923775 1_455
Ba8 O23 2.925108 1_555
Ba8 O39 2.929440 1_555
Ba8 O12 2.965415 1_555
Ba8 O31 2.967212 1_555
Ba8 O22 2.969211 1_555
Ba8 O34 2.970149 1_555
Ba9 O27 2.888282 1_555
Ba9 O1 2.918939 1_545
Ba9 O3 2.921566 1_545
Ba9 O20 2.922487 1_555
Ba9 O16 2.925738 1_555
Ba9 O5 2.926743 1_545
Ba9 O23 2.930943 1_555
Ba9 O39 2.931031 1_555
Ba9 O28 2.932121 1_555
Ba9 O15 2.932301 1_555
Ba9 O31 2.936325 1_555
Ba9 O36 2.939070 1_555
Ba10 O35 2.888511 1_545
Ba10 O19 2.888511 1_455
Ba10 O28 2.925544 1_455
Ba10 O9 2.925544 1_545
Ba10 O34 2.925943 1_555
Ba10 O2 2.925943 1_445
Ba10 O40 2.926709 1_555
Ba10 O1 2.926709 1_445
Ba10 O5 2.927672 1_445
Ba10 O39 2.927672 1_555
Ba10 O18 2.931071 1_545
Ba10 O20 2.931071 1_455
Ba11 O21 2.889672 1_556
Ba11 O38 2.890944 1_455
Ba11 O41 2.901653 1_555
Ba11 O35 2.902757 1_545
Ba11 O30 2.920523 1_556
Ba11 O10 2.922927 1_556
Ba11 O28 2.925724 1_455
Ba11 O40 2.932595 1_555
Ba11 O33 2.959850 1_555
Ba11 O37 2.962125 1_555
Ba11 O24 2.962653 1_455
Ba11 O34 2.964805 1_555
Ba12 O0 2.890809 1_546
Ba12 O14 2.895836 1_556
Ba12 O11 2.897997 1_545
Ba12 O38 2.902608 1_555
Ba12 O41 2.910925 1_555
Ba12 O16 2.919535 1_556
Ba12 O25 2.922208 1_545
Ba12 O4 2.930150 1_556
Ba12 O36 2.930620 1_555
Ba12 O10 2.958496 1_556
Ba12 O40 2.960390 1_555
Ba12 O37 2.965606 1_555
Nb0 O19 2.044113 1_465
Nb0 O8 2.045411 1_555
Nb0 O27 2.046047 1_565
Nb0 O3 2.097055 1_555
Nb0 O9 2.097360 1_555
Nb0 O39 2.098831 1_565
Nb1 O3 2.065188 1_555
Nb1 O5 2.065622 1_555
Nb1 O1 2.067440 1_555
Nb1 O2 2.071560 1_555
Nb1 O13 2.073910 1_555
Nb1 O7 2.076938 1_555
Nb2 O38 2.043214 1_554
Nb2 O21 2.044802 1_655
Nb2 O14 2.049925 1_555
Nb2 O30 2.093471 1_655
Nb2 O4 2.099272 1_555
Nb2 O6 2.100048 1_655
Nb3 O6 2.067770 1_555
Nb3 O2 2.068037 1_455
Nb3 O9 2.071313 1_555
Nb3 O18 2.071757 1_555
Nb3 O22 2.071905 1_555
Nb3 O12 2.072633 1_555
Nb4 O24 2.067770 1_555
Nb4 O34 2.068037 1_655
Nb4 O28 2.071313 1_555
Nb4 O20 2.071757 1_555
Nb4 O15 2.071905 1_555
Nb4 O12 2.072633 1_655
Nb5 O19 2.043851 1_555
Nb5 O0 2.044622 1_545
Nb5 O14 2.046658 1_555
Nb5 O16 2.094033 1_555
Nb5 O1 2.097985 1_545
Nb5 O20 2.100010 1_555
Nb6 O41 2.043232 1_554
Nb6 O21 2.046176 1_555
Nb6 O27 2.046240 1_555
Nb6 O16 2.089735 1_555
Nb6 O10 2.099657 1_555
Nb6 O23 2.100293 1_555
Nb7 O35 2.043851 1_555
Nb7 O41 2.044622 1_565
Nb7 O29 2.046658 1_555
Nb7 O25 2.094033 1_555
Nb7 O40 2.097985 1_565
Nb7 O18 2.100010 1_555
Nb8 O15 2.068651 1_555
Nb8 O22 2.068651 1_555
Nb8 O26 2.069758 1_555
Nb8 O23 2.069758 1_555
Nb8 O31 2.073412 1_555
Nb8 O13 2.073412 1_555
Nb9 O0 2.043232 1_556
Nb9 O17 2.046176 1_555
Nb9 O11 2.046240 1_555
Nb9 O25 2.089735 1_555
Nb9 O32 2.099657 1_555
Nb9 O26 2.100293 1_555
Nb10 O36 2.065188 1_555
Nb10 O39 2.065622 1_555
Nb10 O40 2.067440 1_555
Nb10 O34 2.071560 1_555
Nb10 O31 2.073910 1_555
Nb10 O37 2.076938 1_555
Nb11 O8 2.043214 1_556
Nb11 O17 2.044802 1_455
Nb11 O29 2.049925 1_555
Nb11 O30 2.093471 1_556
Nb11 O33 2.099272 1_555
Nb11 O24 2.100048 1_455
Nb12 O4 2.066795 1_555
Nb12 O33 2.066795 1_554
Nb12 O32 2.069131 1_554
Nb12 O10 2.069131 1_555
Nb12 O7 2.070538 1_555
Nb12 O37 2.070538 1_554
Nb13 O35 2.044113 1_645
Nb13 O38 2.045411 1_555
Nb13 O11 2.046047 1_545
Nb13 O36 2.097055 1_555
Nb13 O28 2.097360 1_555
Nb13 O5 2.098831 1_545
