# generated using pymatgen
data_Li7Mn2P7O24
_symmetry_space_group_name_H-M   'P 1'
_cell_length_a   5.00097900
_cell_length_b   12.61555300
_cell_length_c   14.86060182
_cell_angle_alpha   81.40539359
_cell_angle_beta   90.00000000
_cell_angle_gamma   90.00000000
_symmetry_Int_Tables_number   1
_chemical_formula_structural   Li7Mn2P7O24
_chemical_formula_sum   'Li14 Mn4 P14 O48'
_cell_volume   927.02874614
_cell_formula_units_Z   2
loop_
 _symmetry_equiv_pos_site_id
 _symmetry_equiv_pos_as_xyz
  1  'x, y, z'
loop_
 _atom_site_type_symbol
 _atom_site_label
 _atom_site_symmetry_multiplicity
 _atom_site_fract_x
 _atom_site_fract_y
 _atom_site_fract_z
 _atom_site_occupancy
  Li  Li0  1  0.25258100  0.48063700  0.05548100  1
  Li  Li1  1  0.17488900  0.10592300  0.13903700  1
  Li  Li2  1  0.74741900  0.98063700  0.05548100  1
  Li  Li3  1  0.82511100  0.60592300  0.13903700  1
  Li  Li4  1  0.81313200  0.43348900  0.40211800  1
  Li  Li5  1  0.18686800  0.93348900  0.40211800  1
  Li  Li6  1  0.29149300  0.25000000  0.50000000  1
  Li  Li7  1  0.70850700  0.75000000  0.50000000  1
  Li  Li8  1  0.81313200  0.06651100  0.59788200  1
  Li  Li9  1  0.18686800  0.56651100  0.59788200  1
  Li  Li10  1  0.17488900  0.39407700  0.86096300  1
  Li  Li11  1  0.25258100  0.01936300  0.94451900  1
  Li  Li12  1  0.82511100  0.89407700  0.86096300  1
  Li  Li13  1  0.74741900  0.51936300  0.94451900  1
  Mn  Mn0  1  0.35614800  0.29429100  0.28097700  1
  Mn  Mn1  1  0.64385200  0.79429100  0.28097700  1
  Mn  Mn2  1  0.35614800  0.20570900  0.71902300  1
  Mn  Mn3  1  0.64385200  0.70570900  0.71902300  1
  P  P0  1  0.53562700  0.25000000  0.00000000  1
  P  P1  1  0.46437300  0.75000000  0.00000000  1
  P  P2  1  0.85626600  0.34172600  0.13674700  1
  P  P3  1  0.14373400  0.84172600  0.13674700  1
  P  P4  1  0.62282800  0.04854000  0.27013900  1
  P  P5  1  0.37717200  0.54854000  0.27013900  1
  P  P6  1  0.85577700  0.18823000  0.39392900  1
  P  P7  1  0.14422300  0.68823000  0.39392900  1
  P  P8  1  0.85577700  0.31177000  0.60607100  1
  P  P9  1  0.14422300  0.81177000  0.60607100  1
  P  P10  1  0.62282800  0.45146000  0.72986100  1
  P  P11  1  0.37717200  0.95146000  0.72986100  1
  P  P12  1  0.85626600  0.15827400  0.86325200  1
  P  P13  1  0.14373400  0.65827400  0.86325200  1
  O  O0  1  0.38685600  0.14515400  0.01869500  1
  O  O1  1  0.61314400  0.64515400  0.01869500  1
  O  O2  1  0.74526800  0.24831200  0.08291600  1
  O  O3  1  0.85670700  0.44724000  0.07283100  1
  O  O4  1  0.25473200  0.74831200  0.08291600  1
  O  O5  1  0.14329300  0.94724000  0.07283100  1
  O  O6  1  0.13538600  0.29974500  0.16711400  1
  O  O7  1  0.76248600  0.01956700  0.18667500  1
  O  O8  1  0.67277200  0.34377700  0.21833000  1
  O  O9  1  0.86461400  0.79974500  0.16711400  1
  O  O10  1  0.23751400  0.51956700  0.18667500  1
  O  O11  1  0.39345600  0.12893700  0.24937800  1
  O  O12  1  0.32722800  0.84377700  0.21833000  1
  O  O13  1  0.60654400  0.62893700  0.24937800  1
  O  O14  1  0.86251900  0.11069500  0.31863400  1
  O  O15  1  0.13748100  0.61069500  0.31863400  1
  O  O16  1  0.04963300  0.28269400  0.35908500  1
  O  O17  1  0.45503900  0.45256600  0.34204600  1
  O  O18  1  0.57026600  0.23421400  0.39871800  1
  O  O19  1  0.95036700  0.78269400  0.35908500  1
  O  O20  1  0.54496100  0.95256600  0.34204600  1
  O  O21  1  0.42973400  0.73421400  0.39871800  1
  O  O22  1  0.95908700  0.12795400  0.48220400  1
  O  O23  1  0.04091300  0.62795400  0.48220400  1
  O  O24  1  0.95908700  0.37204600  0.51779600  1
  O  O25  1  0.04091300  0.87204600  0.51779600  1
  O  O26  1  0.57026600  0.26578600  0.60128200  1
  O  O27  1  0.45503900  0.04743400  0.65795400  1
  O  O28  1  0.04963300  0.21730600  0.64091500  1
  O  O29  1  0.42973400  0.76578600  0.60128200  1
  O  O30  1  0.54496100  0.54743400  0.65795400  1
  O  O31  1  0.95036700  0.71730600  0.64091500  1
  O  O32  1  0.86251900  0.38930500  0.68136600  1
  O  O33  1  0.13748100  0.88930500  0.68136600  1
  O  O34  1  0.39345600  0.37106300  0.75062200  1
  O  O35  1  0.67277200  0.15622300  0.78167000  1
  O  O36  1  0.60654400  0.87106300  0.75062200  1
  O  O37  1  0.76248600  0.48043300  0.81332500  1
  O  O38  1  0.13538600  0.20025500  0.83288600  1
  O  O39  1  0.32722800  0.65622300  0.78167000  1
  O  O40  1  0.23751400  0.98043300  0.81332500  1
  O  O41  1  0.86461400  0.70025500  0.83288600  1
  O  O42  1  0.85670700  0.05276000  0.92716900  1
  O  O43  1  0.74526800  0.25168800  0.91708400  1
  O  O44  1  0.14329300  0.55276000  0.92716900  1
  O  O45  1  0.25473200  0.75168800  0.91708400  1
  O  O46  1  0.38685600  0.35484600  0.98130500  1
  O  O47  1  0.61314400  0.85484600  0.98130500  1
loop_
_geom_bond_atom_site_label_1
_geom_bond_atom_site_label_2
_geom_bond_distance
_geom_bond_site_symmetry_2
Li0 O3 2.032477 1_455
Li0 O44 2.060072 1_554
Li0 O10 2.081847 1_555
Li0 O46 2.169594 1_554
Li1 O11 2.027330 1_555
Li1 O0 2.074201 1_555
Li1 O5 2.364132 1_545
Li1 O7 2.389786 1_455
Li1 O6 2.548904 1_555
Li2 O5 2.032477 1_655
Li2 O42 2.060072 1_564
Li2 O7 2.081847 1_565
Li2 O47 2.169594 1_554
Li3 O13 2.027330 1_555
Li3 O1 2.074201 1_555
Li3 O3 2.364132 1_555
Li3 O10 2.389786 1_655
Li3 O9 2.548904 1_555
Li4 O24 1.921060 1_555
Li4 O17 1.999413 1_555
Li4 O16 2.406328 1_655
Li5 O25 1.921060 1_555
Li5 O20 1.999413 1_555
Li5 O19 2.406328 1_455
Li6 O26 2.082842 1_555
Li6 O18 2.082842 1_555
Li6 O24 2.307742 1_455
Li6 O22 2.307742 1_455
Li6 O16 2.400026 1_555
Li6 O28 2.400026 1_555
Li7 O29 2.082842 1_555
Li7 O21 2.082842 1_555
Li7 O25 2.307742 1_655
Li7 O23 2.307742 1_655
Li7 O19 2.400026 1_555
Li7 O31 2.400026 1_555
Li8 O22 1.921060 1_555
Li8 O27 1.999413 1_555
Li8 O28 2.406328 1_655
Li9 O23 1.921060 1_555
Li9 O30 1.999413 1_555
Li9 O31 2.406328 1_455
Li10 O34 2.027330 1_555
Li10 O46 2.074201 1_555
Li10 O44 2.364132 1_555
Li10 O37 2.389786 1_455
Li10 O38 2.548904 1_555
Li11 O42 2.032477 1_455
Li11 O5 2.060072 1_546
Li11 O40 2.081847 1_545
Li11 O0 2.169594 1_556
Li12 O36 2.027330 1_555
Li12 O47 2.074201 1_555
Li12 O42 2.364132 1_565
Li12 O40 2.389786 1_655
Li12 O41 2.548904 1_555
Li13 O44 2.032477 1_655
Li13 O3 2.060072 1_556
Li13 O37 2.081847 1_555
Li13 O1 2.169594 1_556
Mn0 O8 1.894727 1_555
Mn0 O16 1.915112 1_555
Mn0 O6 2.012938 1_555
Mn0 O18 2.094310 1_555
Mn0 O11 2.213509 1_555
Mn0 O17 2.365734 1_555
Mn1 O12 1.894727 1_555
Mn1 O19 1.915112 1_555
Mn1 O9 2.012938 1_555
Mn1 O21 2.094310 1_555
Mn1 O13 2.213509 1_555
Mn1 O20 2.365734 1_555
Mn2 O35 1.894727 1_555
Mn2 O28 1.915112 1_555
Mn2 O38 2.012938 1_555
Mn2 O26 2.094310 1_555
Mn2 O34 2.213509 1_555
Mn2 O27 2.365734 1_555
Mn3 O39 1.894727 1_555
Mn3 O31 1.915112 1_555
Mn3 O41 2.012938 1_555
Mn3 O29 2.094310 1_555
Mn3 O36 2.213509 1_555
Mn3 O30 2.365734 1_555
O0 P0 1.506784 1_555
O1 P1 1.506784 1_555
O2 P0 1.615564 1_555
O2 P2 1.618218 1_555
O3 P2 1.515310 1_555
O4 P1 1.615564 1_555
O4 P3 1.618218 1_555
O5 P3 1.515310 1_555
O6 P2 1.536608 1_455
O7 P4 1.515026 1_555
O8 P2 1.523802 1_555
O9 P3 1.536608 1_655
O10 P5 1.515026 1_555
O11 P4 1.531721 1_555
O12 P3 1.523802 1_555
O13 P5 1.531721 1_555
O14 P6 1.592806 1_555
O14 P4 1.655281 1_555
O15 P7 1.592806 1_555
O15 P5 1.655281 1_555
O16 P6 1.563248 1_455
O17 P5 1.540377 1_555
O18 P6 1.546819 1_555
O19 P7 1.563248 1_655
O20 P4 1.540377 1_565
O21 P7 1.546819 1_555
O22 P6 1.505950 1_555
O23 P7 1.505950 1_555
O24 P8 1.505950 1_555
O25 P9 1.505950 1_555
O26 P8 1.546819 1_555
O27 P11 1.540377 1_545
O28 P8 1.563248 1_455
O29 P9 1.546819 1_555
O30 P10 1.540377 1_555
O31 P9 1.563248 1_655
O32 P8 1.592806 1_555
O32 P10 1.655281 1_555
O33 P9 1.592806 1_555
O33 P11 1.655281 1_555
O34 P10 1.531721 1_555
O35 P12 1.523790 1_555
O36 P11 1.531721 1_555
O37 P10 1.515026 1_555
O38 P12 1.536605 1_455
O39 P13 1.523790 1_555
O40 P11 1.515026 1_555
O41 P13 1.536605 1_655
O42 P12 1.515318 1_555
O43 P0 1.615564 1_556
O43 P12 1.618227 1_555
O44 P13 1.515318 1_555
O45 P1 1.615564 1_556
O45 P13 1.618227 1_555
O46 P0 1.506784 1_556
O47 P1 1.506784 1_556
