# generated using pymatgen
data_LiAs
_symmetry_space_group_name_H-M   'P 1'
_cell_length_a   5.20832454
_cell_length_b   5.81447823
_cell_length_c   9.51972661
_cell_angle_alpha   94.53667087
_cell_angle_beta   90.00000000
_cell_angle_gamma   90.00000000
_symmetry_Int_Tables_number   1
_chemical_formula_structural   LiAs
_chemical_formula_sum   'Li8 As8'
_cell_volume   287.38920102
_cell_formula_units_Z   8
loop_
 _symmetry_equiv_pos_site_id
 _symmetry_equiv_pos_as_xyz
  1  'x, y, z'
loop_
 _atom_site_type_symbol
 _atom_site_label
 _atom_site_symmetry_multiplicity
 _atom_site_fract_x
 _atom_site_fract_y
 _atom_site_fract_z
 _atom_site_occupancy
  Li  Li0  1  0.83282548  0.32052509  0.55066773  1
  Li  Li1  1  0.33282548  0.17947491  0.94933227  1
  Li  Li2  1  0.16717452  0.67947491  0.44933227  1
  Li  Li3  1  0.66717452  0.82052509  0.05066773  1
  Li  Li4  1  0.08314989  0.59688811  0.82855258  1
  Li  Li5  1  0.58314989  0.90311189  0.67144742  1
  Li  Li6  1  0.91685011  0.40311189  0.17144742  1
  Li  Li7  1  0.41685011  0.09688811  0.32855258  1
  As  As0  1  0.33344510  0.31181777  0.60073843  1
  As  As1  1  0.83344510  0.18818223  0.89926157  1
  As  As2  1  0.66655490  0.68818223  0.39926157  1
  As  As3  1  0.16655490  0.81181777  0.10073843  1
  As  As4  1  0.57735055  0.49661267  0.80046064  1
  As  As5  1  0.07735055  0.00338733  0.69953936  1
  As  As6  1  0.42264945  0.50338733  0.19953936  1
  As  As7  1  0.92264945  -0.00338733  0.30046064  1
loop_
_geom_bond_atom_site_label_1
_geom_bond_atom_site_label_2
_geom_bond_distance
_geom_bond_site_symmetry_2
As0 As4 2.461716 1_555
As0 As5 2.479257 1_555
As0 Li0 2.645458 1_555
As0 Li0 2.651804 1_455
As0 Li2 2.807981 1_555
As0 Li7 2.819962 1_555
As0 Li5 2.836354 1_545
As0 Li4 2.929430 1_555
As1 As5 2.461716 1_655
As1 As4 2.479257 1_555
As1 Li1 2.645458 1_655
As1 Li1 2.651804 1_555
As1 Li3 2.807981 1_546
As1 Li6 2.819962 1_556
As1 Li4 2.836354 1_655
As1 Li5 2.929430 1_545
As2 As6 2.461716 1_555
As2 As7 2.479257 1_565
As2 Li2 2.645458 1_555
As2 Li2 2.651804 1_655
As2 Li0 2.807981 1_555
As2 Li5 2.819962 1_555
As2 Li7 2.836354 1_565
As2 Li6 2.929430 1_555
As3 As7 2.461716 1_465
As3 As6 2.479257 1_555
As3 Li3 2.645458 1_455
As3 Li3 2.651804 1_555
As3 Li1 2.807981 1_564
As3 Li4 2.819962 1_554
As3 Li6 2.836354 1_455
As3 Li7 2.929430 1_565
As4 Li4 2.648028 1_555
As4 Li4 2.706786 1_655
As4 Li1 2.728404 1_555
As4 Li5 2.748645 1_555
As4 Li0 2.843996 1_555
As4 Li3 2.954622 1_556
As5 Li5 2.648028 1_445
As5 Li5 2.706786 1_545
As5 Li0 2.728404 1_455
As5 Li4 2.748645 1_545
As5 Li1 2.843996 1_555
As5 Li2 2.954622 1_545
As6 Li6 2.648028 1_555
As6 Li6 2.706786 1_455
As6 Li3 2.728404 1_555
As6 Li7 2.748645 1_555
As6 Li2 2.843996 1_555
As6 Li1 2.954622 1_554
As7 Li7 2.648028 1_655
As7 Li7 2.706786 1_555
As7 Li2 2.728404 1_645
As7 Li6 2.748645 1_555
As7 Li3 2.843996 1_545
As7 Li0 2.954622 1_555
