# generated using pymatgen
data_Na5V2P(CO4)4
_symmetry_space_group_name_H-M   'P 1'
_cell_length_a   10.01624437
_cell_length_b   9.94322903
_cell_length_c   9.89200237
_cell_angle_alpha   60.65838702
_cell_angle_beta   59.92373374
_cell_angle_gamma   59.41787924
_symmetry_Int_Tables_number   1
_chemical_formula_structural   Na5V2P(CO4)4
_chemical_formula_sum   'Na10 V4 P2 C8 O32'
_cell_volume   696.46351328
_cell_formula_units_Z   2
loop_
 _symmetry_equiv_pos_site_id
 _symmetry_equiv_pos_as_xyz
  1  'x, y, z'
loop_
 _atom_site_type_symbol
 _atom_site_label
 _atom_site_symmetry_multiplicity
 _atom_site_fract_x
 _atom_site_fract_y
 _atom_site_fract_z
 _atom_site_occupancy
  Na  Na0  1  0.83222600  0.41080500  0.57264500  1
  Na  Na1  1  0.06567600  0.67735500  0.83919500  1
  Na  Na2  1  0.06482500  0.67956700  0.41749400  1
  Na  Na3  1  0.67956700  0.06482500  0.83811400  1
  Na  Na4  1  0.83250600  0.41188600  0.18517500  1
  Na  Na5  1  0.41080500  0.83222600  0.18432400  1
  Na  Na6  1  0.41188600  0.83250600  0.57043300  1
  Na  Na7  1  0.67187600  0.67187600  0.82812400  1
  Na  Na8  1  0.67735500  0.06567600  0.41777400  1
  Na  Na9  1  0.42187600  0.42187600  0.57812400  1
  V  V0  1  0.75293400  0.24717300  0.99960700  1
  V  V1  1  0.25039300  0.24971500  0.49706600  1
  V  V2  1  0.24717300  0.75293400  0.00028500  1
  V  V3  1  0.24971500  0.25039300  0.00282700  1
  P  P0  1  0.87268400  0.87268400  0.62731600  1
  P  P1  1  0.62268400  0.62268400  0.37731600  1
  C  C0  1  0.46870000  0.11138300  0.20760300  1
  C  C1  1  0.11138300  0.46870000  0.21231400  1
  C  C2  1  0.46186000  0.46398800  0.21432800  1
  C  C3  1  0.46398800  0.46186000  0.85982400  1
  C  C4  1  0.04239700  0.03768600  0.78130000  1
  C  C5  1  0.03768600  0.04239700  0.13861700  1
  C  C6  1  0.03567200  0.39017600  0.78814000  1
  C  C7  1  0.39017600  0.03567200  0.78601200  1
  O  O0  1  0.89708100  0.15194800  0.81027200  1
  O  O1  1  0.35871200  0.10519600  0.18123900  1
  O  O2  1  0.10519600  0.35871200  0.35485300  1
  O  O3  1  0.06384500  0.39200800  0.64395600  1
  O  O4  1  0.10930200  0.43972800  0.09805200  1
  O  O5  1  0.80730300  0.80749000  0.56455800  1
  O  O6  1  0.80749000  0.80730300  0.82064800  1
  O  O7  1  0.60902200  0.11442300  0.09469600  1
  O  O8  1  0.11442300  0.60902200  0.18185900  1
  O  O9  1  0.34938600  0.43533600  0.35752600  1
  O  O10  1  0.43533600  0.34938600  0.85775200  1
  O  O11  1  0.79969900  0.06337800  0.56826600  1
  O  O12  1  0.06337800  0.79969900  0.56865700  1
  O  O13  1  0.06876100  0.89514700  0.89128800  1
  O  O14  1  0.89514700  0.06876100  0.14480400  1
  O  O15  1  0.34980900  0.60604400  0.85799200  1
  O  O16  1  0.15194800  0.89708100  0.14069800  1
  O  O17  1  0.43492100  0.60545400  0.10229300  1
  O  O18  1  0.60545400  0.43492100  0.85733200  1
  O  O19  1  0.68544200  0.42935200  0.44269700  1
  O  O20  1  0.42935200  0.68544200  0.44251000  1
  O  O21  1  0.06814100  0.15530400  0.13557700  1
  O  O22  1  0.15530400  0.06814100  0.64097800  1
  O  O23  1  0.89247400  0.39224800  0.90061400  1
  O  O24  1  0.39224800  0.89247400  0.81466400  1
  O  O25  1  0.68134300  0.68173400  0.18662200  1
  O  O26  1  0.68173400  0.68134300  0.45030100  1
  O  O27  1  0.39200800  0.06384500  0.90019100  1
  O  O28  1  0.43972800  0.10930200  0.35291900  1
  O  O29  1  0.39266800  0.14770700  0.64454600  1
  O  O30  1  0.14770700  0.39266800  0.81507900  1
  O  O31  1  0.60604400  0.34980900  0.18615500  1
loop_
_geom_bond_atom_site_label_1
_geom_bond_atom_site_label_2
_geom_bond_distance
_geom_bond_site_symmetry_2
Na0 O19 2.287788 1_555
Na0 O26 2.341998 1_555
Na0 O2 2.476653 1_655
Na0 O0 2.544005 1_555
Na0 O18 2.616030 1_555
Na0 O3 2.642835 1_655
Na1 O6 2.287797 1_455
Na1 O12 2.341998 1_555
Na1 O13 2.476653 1_555
Na1 O4 2.544007 1_556
Na1 O30 2.616030 1_555
Na1 O15 2.642835 1_555
Na2 O5 2.258641 1_455
Na2 O12 2.318213 1_555
Na2 O8 2.501813 1_555
Na2 O16 2.580342 1_555
Na2 O3 2.631164 1_555
Na2 O9 2.654640 1_555
Na3 O6 2.258644 1_545
Na3 O11 2.318213 1_555
Na3 O7 2.501813 1_556
Na3 O0 2.580338 1_555
Na3 O27 2.631164 1_555
Na3 O10 2.654640 1_555
Na4 O19 2.258644 1_555
Na4 O25 2.318213 1_555
Na4 O21 2.501813 1_655
Na4 O4 2.580347 1_655
Na4 O31 2.631164 1_555
Na4 O23 2.654640 1_554
Na5 O20 2.287796 1_555
Na5 O25 2.341998 1_555
Na5 O1 2.476653 1_565
Na5 O16 2.544010 1_555
Na5 O17 2.616030 1_555
Na5 O27 2.642835 1_564
Na6 O20 2.258636 1_555
Na6 O26 2.318213 1_555
Na6 O22 2.501813 1_565
Na6 O28 2.580345 1_565
Na6 O15 2.631164 1_555
Na6 O24 2.654640 1_555
Na7 O6 2.307982 1_555
Na7 O5 2.307987 1_555
Na7 O24 2.551445 1_555
Na7 O23 2.551445 1_555
Na7 O17 2.610077 1_556
Na7 O18 2.610077 1_555
Na8 O5 2.287793 1_545
Na8 O11 2.341998 1_555
Na8 O14 2.476653 1_555
Na8 O28 2.544001 1_555
Na8 O29 2.616030 1_555
Na8 O31 2.642835 1_555
Na9 O20 2.307990 1_555
Na9 O19 2.307991 1_555
Na9 O9 2.551445 1_555
Na9 O10 2.551445 1_555
Na9 O29 2.610077 1_555
Na9 O30 2.610077 1_555
C0 O1 1.287681 1_555
C0 O7 1.288609 1_555
C0 O28 1.307596 1_555
C1 O2 1.287681 1_555
C1 O8 1.288609 1_555
C1 O4 1.307586 1_555
C2 O17 1.290497 1_555
C2 O9 1.299400 1_555
C2 O31 1.300219 1_555
C3 O18 1.290497 1_555
C3 O10 1.299400 1_555
C3 O15 1.300219 1_555
C4 O13 1.287681 1_545
C4 O22 1.288609 1_555
C4 O0 1.307592 1_455
C5 O14 1.287681 1_455
C5 O21 1.288609 1_555
C5 O16 1.307593 1_545
C6 O30 1.290497 1_555
C6 O23 1.299400 1_455
C6 O3 1.300219 1_555
C7 O29 1.290497 1_555
C7 O24 1.299400 1_545
C7 O27 1.300219 1_555
O0 V0 2.031109 1_555
O1 V3 2.054564 1_555
O2 V1 2.054572 1_555
O3 V1 2.051319 1_555
O4 V3 2.031109 1_555
O5 P0 1.571084 1_555
O6 P0 1.571076 1_555
O7 V0 2.016220 1_554
O8 V2 2.016223 1_555
O9 V1 2.070884 1_555
O10 V3 2.070884 1_556
O11 P0 1.550150 1_545
O12 P0 1.550150 1_455
O13 V2 2.054564 1_556
O14 V0 2.054570 1_554
O15 V2 2.051317 1_556
O16 V2 2.031109 1_555
O17 V2 2.085843 1_555
O18 V0 2.085837 1_555
O19 P1 1.571075 1_555
O20 P1 1.571075 1_555
O21 V3 2.016229 1_555
O22 V1 2.016228 1_555
O23 V0 2.070892 1_555
O24 V2 2.070890 1_556
O25 P1 1.550150 1_555
O26 P1 1.550150 1_555
O27 V3 2.051325 1_556
O28 V1 2.031109 1_555
O29 V1 2.085835 1_555
O30 V3 2.085843 1_556
O31 V0 2.051325 1_554
