# generated using pymatgen
data_Cu2O3
_symmetry_space_group_name_H-M   'P 1'
_cell_length_a   7.10305300
_cell_length_b   5.34383300
_cell_length_c   7.24150847
_cell_angle_alpha   52.70058818
_cell_angle_beta   90.00000000
_cell_angle_gamma   90.00000000
_symmetry_Int_Tables_number   1
_chemical_formula_structural   Cu2O3
_chemical_formula_sum   'Cu8 O12'
_cell_volume   218.65332108
_cell_formula_units_Z   4
loop_
 _symmetry_equiv_pos_site_id
 _symmetry_equiv_pos_as_xyz
  1  'x, y, z'
loop_
 _atom_site_type_symbol
 _atom_site_label
 _atom_site_symmetry_multiplicity
 _atom_site_fract_x
 _atom_site_fract_y
 _atom_site_fract_z
 _atom_site_occupancy
  Cu  Cu0  1  0.01287700  0.12061800  0.13688500  1
  Cu  Cu1  1  0.48712300  0.12061800  0.63688500  1
  Cu  Cu2  1  0.25558800  0.50685600  0.23558900  1
  Cu  Cu3  1  0.75558800  0.49314400  0.26441100  1
  Cu  Cu4  1  0.24441200  0.50685600  0.73558900  1
  Cu  Cu5  1  0.74441200  0.49314400  0.76441100  1
  Cu  Cu6  1  0.51287700  0.87938200  0.36311500  1
  Cu  Cu7  1  0.98712300  0.87938200  0.86311500  1
  O  O0  1  0.07714400  0.99733500  0.44079300  1
  O  O1  1  0.81869000  0.48825800  0.01604900  1
  O  O2  1  0.42285600  0.99733500  0.94079300  1
  O  O3  1  0.50640700  0.28071100  0.31214400  1
  O  O4  1  0.00640700  0.71928900  0.18785600  1
  O  O5  1  0.68131000  0.48825800  0.51604900  1
  O  O6  1  0.31869000  0.51174200  0.48395100  1
  O  O7  1  0.99359300  0.28071100  0.81214400  1
  O  O8  1  0.49359300  0.71928900  0.68785600  1
  O  O9  1  0.57714400  0.00266500  0.05920700  1
  O  O10  1  0.18131000  0.51174200  0.98395100  1
  O  O11  1  0.92285600  0.00266500  0.55920700  1
loop_
_geom_bond_atom_site_label_1
_geom_bond_atom_site_label_2
_geom_bond_distance
_geom_bond_site_symmetry_2
Cu0 O0 1.930943 1_545
Cu0 O4 1.943817 1_545
Cu0 O7 1.960228 1_454
Cu0 O10 2.054508 1_554
Cu0 O1 2.108177 1_455
Cu1 O2 1.930943 1_545
Cu1 O8 1.943817 1_545
Cu1 O3 1.960228 1_555
Cu1 O6 2.054508 1_555
Cu1 O5 2.108177 1_555
Cu2 O6 1.868997 1_555
Cu2 O10 1.882003 1_554
Cu2 O4 2.016263 1_555
Cu2 O3 2.032199 1_555
Cu2 O2 2.461178 1_554
Cu2 O0 2.514892 1_545
Cu3 O1 1.868997 1_555
Cu3 O5 1.882003 1_555
Cu3 O3 2.016263 1_555
Cu3 O4 2.032199 1_655
Cu3 O11 2.461178 1_555
Cu3 O9 2.514892 1_565
Cu4 O10 1.868997 1_555
Cu4 O6 1.882003 1_555
Cu4 O8 2.016263 1_555
Cu4 O7 2.032199 1_455
Cu4 O0 2.461178 1_555
Cu4 O2 2.514892 1_545
Cu5 O5 1.868997 1_555
Cu5 O1 1.882003 1_556
Cu5 O7 2.016263 1_555
Cu5 O8 2.032199 1_555
Cu5 O9 2.461178 1_556
Cu5 O11 2.514892 1_565
Cu6 O9 1.930943 1_565
Cu6 O3 1.943817 1_565
Cu6 O8 1.960228 1_555
Cu6 O5 2.054508 1_555
Cu6 O6 2.108177 1_555
Cu7 O11 1.930943 1_565
Cu7 O7 1.943817 1_565
Cu7 O4 1.960228 1_656
Cu7 O1 2.054508 1_556
Cu7 O10 2.108177 1_655
O0 O11 1.402406 1_465
O2 O9 1.402406 1_566
