# generated using pymatgen
data_LuVO3
_symmetry_space_group_name_H-M   'P 1'
_cell_length_a   5.24197900
_cell_length_b   5.65867200
_cell_length_c   7.59342200
_cell_angle_alpha   90.00000000
_cell_angle_beta   90.00000000
_cell_angle_gamma   90.00000000
_symmetry_Int_Tables_number   1
_chemical_formula_structural   LuVO3
_chemical_formula_sum   'Lu4 V4 O12'
_cell_volume   225.24094157
_cell_formula_units_Z   4
loop_
 _symmetry_equiv_pos_site_id
 _symmetry_equiv_pos_as_xyz
  1  'x, y, z'
loop_
 _atom_site_type_symbol
 _atom_site_label
 _atom_site_symmetry_multiplicity
 _atom_site_fract_x
 _atom_site_fract_y
 _atom_site_fract_z
 _atom_site_occupancy
  Lu  Lu0  1  0.02291200  0.92869200  0.75000000  1
  Lu  Lu1  1  0.47708800  0.42869200  0.75000000  1
  Lu  Lu2  1  0.52291200  0.57130800  0.25000000  1
  Lu  Lu3  1  0.97708800  0.07130800  0.25000000  1
  V  V0  1  0.00000000  0.50000000  0.50000000  1
  V  V1  1  0.00000000  0.50000000  0.00000000  1
  V  V2  1  0.50000000  0.00000000  0.50000000  1
  V  V3  1  0.50000000  0.00000000  0.00000000  1
  O  O0  1  0.12963000  0.44547700  0.25000000  1
  O  O1  1  0.19034400  0.18611200  0.93477000  1
  O  O2  1  0.19034400  0.18611200  0.56523000  1
  O  O3  1  0.30965600  0.68611100  0.93477000  1
  O  O4  1  0.30965600  0.68611100  0.56523000  1
  O  O5  1  0.37037000  0.94547700  0.25000000  1
  O  O6  1  0.62963000  0.05452300  0.75000000  1
  O  O7  1  0.69034400  0.31388900  0.43477000  1
  O  O8  1  0.69034400  0.31388900  0.06523000  1
  O  O9  1  0.80965600  0.81388900  0.43477000  1
  O  O10  1  0.80965600  0.81388900  0.06523000  1
  O  O11  1  0.87037000  0.55452300  0.75000000  1
loop_
_geom_bond_atom_site_label_1
_geom_bond_atom_site_label_2
_geom_bond_distance
_geom_bond_site_symmetry_2
Lu0 O6 2.181076 1_465
Lu0 O2 2.204693 1_565
Lu0 O1 2.204693 1_565
Lu0 O11 2.263262 1_455
Lu0 O4 2.472268 1_555
Lu0 O3 2.472268 1_555
Lu0 O10 2.720545 1_456
Lu0 O9 2.720545 1_455
Lu1 O11 2.181076 1_555
Lu1 O3 2.204689 1_555
Lu1 O4 2.204689 1_555
Lu1 O6 2.263262 1_555
Lu1 O2 2.472264 1_555
Lu1 O1 2.472264 1_555
Lu1 O8 2.720545 1_556
Lu1 O7 2.720545 1_555
Lu2 O0 2.181076 1_555
Lu2 O8 2.204689 1_555
Lu2 O7 2.204689 1_555
Lu2 O5 2.263262 1_555
Lu2 O9 2.472268 1_555
Lu2 O10 2.472268 1_555
Lu2 O3 2.720545 1_554
Lu2 O4 2.720545 1_555
Lu3 O5 2.181076 1_645
Lu3 O10 2.204689 1_545
Lu3 O9 2.204689 1_545
Lu3 O0 2.263262 1_655
Lu3 O7 2.472268 1_555
Lu3 O8 2.472268 1_555
Lu3 O1 2.720546 1_654
Lu3 O2 2.720546 1_655
O0 V0 2.039776 1_555
O0 V1 2.039776 1_555
O1 V3 1.997316 1_556
O1 V1 2.096605 1_556
O2 V2 1.997316 1_555
O2 V0 2.096605 1_555
O3 V1 1.997313 1_556
O3 V3 2.096610 1_566
O4 V0 1.997313 1_555
O4 V2 2.096610 1_565
O5 V3 2.039776 1_565
O5 V2 2.039776 1_565
O6 V2 2.039776 1_555
O6 V3 2.039776 1_556
O7 V0 1.997313 1_655
O7 V2 2.096610 1_555
O8 V1 1.997313 1_655
O8 V3 2.096610 1_555
O9 V2 1.997313 1_565
O9 V0 2.096610 1_655
O10 V3 1.997313 1_565
O10 V1 2.096610 1_655
O11 V0 2.039776 1_655
O11 V1 2.039776 1_656
