# generated using pymatgen
data_V3(O2F)2
_symmetry_space_group_name_H-M   'P 1'
_cell_length_a   4.69413500
_cell_length_b   5.63377327
_cell_length_c   7.66450121
_cell_angle_alpha   85.59539664
_cell_angle_beta   87.18235252
_cell_angle_gamma   87.16784950
_symmetry_Int_Tables_number   1
_chemical_formula_structural   V3(O2F)2
_chemical_formula_sum   'V6 O8 F4'
_cell_volume   201.63802833
_cell_formula_units_Z   2
loop_
 _symmetry_equiv_pos_site_id
 _symmetry_equiv_pos_as_xyz
  1  'x, y, z'
loop_
 _atom_site_type_symbol
 _atom_site_label
 _atom_site_symmetry_multiplicity
 _atom_site_fract_x
 _atom_site_fract_y
 _atom_site_fract_z
 _atom_site_occupancy
  V  V0  1  0.49527700  0.82941400  0.66606300  1
  V  V1  1  0.52427500  0.51835800  0.00806200  1
  V  V2  1  0.51831100  0.18173200  0.33741100  1
  V  V3  1  0.99470200  0.32671800  0.65889300  1
  V  V4  1  0.96994000  0.65209800  0.32649900  1
  V  V5  1  0.99378400  0.99185100  0.00419800  1
  O  O0  1  0.80625000  0.37352900  0.43327900  1
  O  O1  1  0.79954000  0.70156000  0.10495800  1
  O  O2  1  0.69782200  0.21042300  0.09655300  1
  O  O3  1  0.69007800  0.52568900  0.77694700  1
  O  O4  1  0.71395200  0.85901800  0.43237600  1
  O  O5  1  0.30791600  0.12945300  0.56781400  1
  O  O6  1  0.29764000  0.48389900  0.22487700  1
  O  O7  1  0.30245900  0.79798300  0.90085900  1
  F  F0  1  0.80301900  0.02722300  0.76639700  1
  F  F1  1  0.19891500  0.96572300  0.23610700  1
  F  F2  1  0.19309600  0.29528200  0.89808700  1
  F  F3  1  0.19302700  0.63004800  0.56062300  1
loop_
_geom_bond_atom_site_label_1
_geom_bond_atom_site_label_2
_geom_bond_distance
_geom_bond_site_symmetry_2
O0 V4 1.892953 1_555
O0 V2 1.974406 1_555
O0 V3 1.974738 1_555
O1 V1 1.905330 1_555
O1 V4 1.907746 1_555
O1 V5 1.996642 1_555
O2 V5 1.953362 1_545
O2 V1 1.966534 1_555
O2 V2 1.989673 1_555
O3 V1 1.897800 1_556
O3 V3 1.997545 1_555
O3 V0 2.045675 1_555
O4 V4 1.836416 1_555
O4 V0 2.019850 1_555
O4 V2 2.091916 1_565
O5 V3 1.934134 1_455
O5 V0 1.980037 1_545
O5 V2 1.989478 1_555
O6 V4 1.929349 1_455
O6 V1 1.930811 1_555
O6 V2 2.098322 1_555
O7 V5 1.945095 1_456
O7 V0 1.973798 1_555
O7 V1 1.991029 1_556
F0 V3 2.049162 1_555
F0 V5 2.061697 1_546
F0 V0 2.078472 1_545
F1 V5 2.054831 1_455
F1 V4 2.164165 1_455
F1 V2 2.184393 1_565
F2 V5 2.080561 1_446
F2 V3 2.088384 1_455
F2 V1 2.278447 1_556
F3 V3 2.060311 1_455
F3 V0 2.082610 1_555
F3 V4 2.114176 1_455
