# generated using pymatgen
data_Sm2Zr2O7
_symmetry_space_group_name_H-M   'P 1'
_cell_length_a   5.63867400
_cell_length_b   7.98392100
_cell_length_c   13.92435714
_cell_angle_alpha   81.55835069
_cell_angle_beta   90.00000000
_cell_angle_gamma   90.00000000
_symmetry_Int_Tables_number   1
_chemical_formula_structural   Sm2Zr2O7
_chemical_formula_sum   'Sm8 Zr8 O28'
_cell_volume   620.06540179
_cell_formula_units_Z   4
loop_
 _symmetry_equiv_pos_site_id
 _symmetry_equiv_pos_as_xyz
  1  'x, y, z'
loop_
 _atom_site_type_symbol
 _atom_site_label
 _atom_site_symmetry_multiplicity
 _atom_site_fract_x
 _atom_site_fract_y
 _atom_site_fract_z
 _atom_site_occupancy
  Sm  Sm0  1  0.33364500  0.86103400  0.56180400  1
  Sm  Sm1  1  0.77492400  0.76547700  0.92249800  1
  Sm  Sm2  1  0.24556600  0.71478600  0.13064000  1
  Sm  Sm3  1  0.75987100  0.64168100  0.39647400  1
  Sm  Sm4  1  0.25987100  0.35831900  0.60352600  1
  Sm  Sm5  1  0.74556600  0.28521400  0.86936000  1
  Sm  Sm6  1  0.27492400  0.23452300  0.07750200  1
  Sm  Sm7  1  0.83364500  0.13896600  0.43819600  1
  Zr  Zr0  1  0.26702800  0.92538600  0.31905100  1
  Zr  Zr1  1  0.76341400  0.97134400  0.11814200  1
  Zr  Zr2  1  0.77817000  0.58827400  0.67461400  1
  Zr  Zr3  1  0.26485900  0.53051600  0.87677600  1
  Zr  Zr4  1  0.76485900  0.46948400  0.12322400  1
  Zr  Zr5  1  0.27817000  0.41172600  0.32538600  1
  Zr  Zr6  1  0.26341400  0.02865600  0.88185800  1
  Zr  Zr7  1  0.76702800  0.07461400  0.68094900  1
  O  O0  1  0.55058500  0.92021500  0.41461200  1
  O  O1  1  0.42595600  0.99533600  0.17549700  1
  O  O2  1  0.64807500  0.82818900  0.68292200  1
  O  O3  1  0.36825400  0.77761100  0.88669500  1
  O  O4  1  0.04639900  0.85660900  0.43332900  1
  O  O5  1  0.04548500  0.93210700  0.02047900  1
  O  O6  1  0.96719100  0.86478500  0.22916100  1
  O  O7  1  0.10214000  0.63134700  0.61944500  1
  O  O8  1  0.92178400  0.57871500  0.82572700  1
  O  O9  1  0.64571100  0.72837300  0.08497100  1
  O  O10  1  0.39299400  0.67568800  0.29990700  1
  O  O11  1  0.57504100  0.58472600  0.55035100  1
  O  O12  1  0.54212800  0.44426100  0.97815500  1
  O  O13  1  0.47326700  0.47805100  0.76791000  1
  O  O14  1  0.97326700  0.52194900  0.23209000  1
  O  O15  1  0.04212800  0.55573900  0.02184500  1
  O  O16  1  0.07504100  0.41527400  0.44964900  1
  O  O17  1  0.89299400  0.32431200  0.70009300  1
  O  O18  1  0.14571100  0.27162700  0.91502900  1
  O  O19  1  0.42178400  0.42128500  0.17427300  1
  O  O20  1  0.60214000  0.36865300  0.38055500  1
  O  O21  1  0.46719100  0.13521500  0.77083900  1
  O  O22  1  0.54548500  0.06789300  0.97952100  1
  O  O23  1  0.54639900  0.14339100  0.56667100  1
  O  O24  1  0.86825400  0.22238900  0.11330500  1
  O  O25  1  0.14807500  0.17181100  0.31707800  1
  O  O26  1  0.92595600  0.00466400  0.82450300  1
  O  O27  1  0.05058500  0.07978500  0.58538800  1
loop_
_geom_bond_atom_site_label_1
_geom_bond_atom_site_label_2
_geom_bond_distance
_geom_bond_site_symmetry_2
O0 Zr0 2.076674 1_555
O0 Sm0 2.374015 1_555
O0 Sm7 2.423622 1_565
O0 Sm3 2.562532 1_555
O1 Zr1 2.083297 1_555
O1 Zr0 2.186961 1_555
O1 Sm6 2.338561 1_565
O1 Sm2 2.617750 1_555
O2 Zr2 2.070158 1_555
O2 Zr7 2.074990 1_565
O2 Sm0 2.434458 1_555
O3 Zr3 2.081073 1_555
O3 Zr6 2.081269 1_565
O3 Sm1 2.345625 1_555
O4 Zr0 2.030941 1_555
O4 Sm0 2.417326 1_555
O4 Sm3 2.465104 1_455
O4 Sm7 2.563308 1_465
O5 Zr1 2.145282 1_455
O5 Zr6 2.322299 1_564
O5 Sm2 2.419668 1_555
O5 Sm1 2.547864 1_454
O5 Sm6 2.949018 1_565
O6 Zr1 2.011874 1_555
O6 Zr0 2.199310 1_655
O6 Sm2 2.502470 1_655
O6 Sm3 2.957810 1_555
O7 Zr2 1.991953 1_455
O7 Sm0 2.297587 1_555
O7 Sm4 2.394514 1_555
O8 Zr3 2.077327 1_655
O8 Zr2 2.245416 1_555
O8 Sm1 2.305363 1_555
O8 Sm5 2.535635 1_555
O9 Zr1 2.163319 1_555
O9 Zr4 2.164281 1_555
O9 Sm2 2.342377 1_555
O9 Sm1 2.353716 1_554
O10 Zr0 2.169309 1_555
O10 Zr5 2.183323 1_555
O10 Sm3 2.460505 1_555
O10 Sm2 2.475404 1_555
O11 Zr2 2.078692 1_555
O11 Sm3 2.365964 1_555
O11 Sm4 2.565341 1_555
O11 Sm0 2.616867 1_555
O12 Zr3 2.150780 1_555
O12 Sm5 2.405835 1_555
O12 Zr4 2.411983 1_556
O12 Sm6 2.511503 1_556
O12 Sm1 2.883943 1_555
O13 Zr3 2.010167 1_555
O13 Zr2 2.254376 1_555
O13 Sm5 2.466735 1_555
O13 Sm4 2.871122 1_555
O14 Zr4 2.010167 1_555
O14 Zr5 2.254376 1_655
O14 Sm2 2.466735 1_655
O14 Sm3 2.871122 1_555
O15 Zr4 2.150780 1_455
O15 Sm2 2.405835 1_555
O15 Zr3 2.411983 1_554
O15 Sm1 2.511503 1_454
O15 Sm6 2.883943 1_555
O16 Zr5 2.078692 1_555
O16 Sm4 2.365964 1_555
O16 Sm3 2.565341 1_455
O16 Sm7 2.616867 1_455
O17 Zr7 2.169309 1_555
O17 Zr2 2.183323 1_555
O17 Sm4 2.460505 1_655
O17 Sm5 2.475404 1_555
O18 Zr6 2.163319 1_555
O18 Zr3 2.164281 1_555
O18 Sm5 2.342377 1_455
O18 Sm6 2.353716 1_556
O19 Zr4 2.077327 1_555
O19 Zr5 2.245416 1_555
O19 Sm6 2.305363 1_555
O19 Sm2 2.535635 1_555
O20 Zr5 1.991953 1_555
O20 Sm7 2.297587 1_555
O20 Sm3 2.394514 1_555
O21 Zr6 2.011874 1_555
O21 Zr7 2.199310 1_555
O21 Sm5 2.502470 1_555
O21 Sm4 2.957810 1_555
O22 Zr6 2.145282 1_555
O22 Zr1 2.322299 1_546
O22 Sm5 2.419668 1_555
O22 Sm6 2.547864 1_556
O22 Sm1 2.949018 1_545
O23 Zr7 2.030941 1_555
O23 Sm7 2.417326 1_555
O23 Sm4 2.465104 1_555
O23 Sm0 2.563308 1_545
O24 Zr4 2.081073 1_555
O24 Zr1 2.081269 1_545
O24 Sm6 2.345625 1_655
O25 Zr5 2.070158 1_555
O25 Zr0 2.074990 1_545
O25 Sm7 2.434458 1_455
O26 Zr6 2.083297 1_655
O26 Zr7 2.186961 1_555
O26 Sm1 2.338561 1_545
O26 Sm5 2.617750 1_555
O27 Zr7 2.076674 1_455
O27 Sm7 2.374015 1_455
O27 Sm0 2.423622 1_545
O27 Sm4 2.562532 1_555
