# generated using pymatgen
data_Li4Fe5(CoO6)2
_symmetry_space_group_name_H-M   'P 1'
_cell_length_a   8.91639100
_cell_length_b   5.22826700
_cell_length_c   9.81084936
_cell_angle_alpha   80.72468680
_cell_angle_beta   90.00000000
_cell_angle_gamma   90.00000000
_symmetry_Int_Tables_number   1
_chemical_formula_structural   Li4Fe5(CoO6)2
_chemical_formula_sum   'Li8 Fe10 Co4 O24'
_cell_volume   451.37524042
_cell_formula_units_Z   2
loop_
 _symmetry_equiv_pos_site_id
 _symmetry_equiv_pos_as_xyz
  1  'x, y, z'
loop_
 _atom_site_type_symbol
 _atom_site_label
 _atom_site_symmetry_multiplicity
 _atom_site_fract_x
 _atom_site_fract_y
 _atom_site_fract_z
 _atom_site_occupancy
  Li  Li0  1  0.90347100  0.01664000  0.74693200  1
  Li  Li1  1  0.91708800  0.48695000  0.25762200  1
  Li  Li2  1  0.58388200  0.76103100  0.50312400  1
  Li  Li3  1  0.58998200  0.49810200  0.25616400  1
  Li  Li4  1  0.40347100  0.98336000  0.25306800  1
  Li  Li5  1  0.41708800  0.51305000  0.74237800  1
  Li  Li6  1  0.08388200  0.23896900  0.49687600  1
  Li  Li7  1  0.08998200  0.50189800  0.74383600  1
  Fe  Fe0  1  0.91882600  0.25575700  0.00262300  1
  Fe  Fe1  1  0.92166700  0.75064200  0.49733800  1
  Fe  Fe2  1  0.75150500  0.99691400  0.25681600  1
  Fe  Fe3  1  0.57899900  0.24064500  0.99701500  1
  Fe  Fe4  1  0.74437100  0.51019400  0.74060300  1
  Fe  Fe5  1  0.42166700  0.24935800  0.50266200  1
  Fe  Fe6  1  0.41882600  0.74424300  0.99737700  1
  Fe  Fe7  1  0.25150500  0.00308600  0.74318400  1
  Fe  Fe8  1  0.24437100  0.48980600  0.25939700  1
  Fe  Fe9  1  0.07899900  0.75935500  0.00298500  1
  Co  Co0  1  0.74789700  0.24535500  0.50553700  1
  Co  Co1  1  0.74628900  0.75648000  0.99316600  1
  Co  Co2  1  0.24628900  0.24352000  0.00683400  1
  Co  Co3  1  0.24789700  0.75464500  0.49446300  1
  O  O0  1  0.89555200  0.12571700  0.38969400  1
  O  O1  1  0.90944400  0.89332300  0.11297400  1
  O  O2  1  0.75344800  0.15383500  0.88020800  1
  O  O3  1  0.76769800  0.85213200  0.62659800  1
  O  O4  1  0.90084800  0.38188800  0.61789200  1
  O  O5  1  0.91683100  0.61152700  0.88049800  1
  O  O6  1  0.76366000  0.65131800  0.36555400  1
  O  O7  1  0.59684300  0.13617700  0.38568400  1
  O  O8  1  0.58140400  0.88710300  0.12115900  1
  O  O9  1  0.74762400  0.35247000  0.12363900  1
  O  O10  1  0.59699500  0.38530300  0.60878100  1
  O  O11  1  0.39555200  0.87428300  0.61030600  1
  O  O12  1  0.40944400  0.10667700  0.88702600  1
  O  O13  1  0.58047600  0.59649300  0.88131900  1
  O  O14  1  0.26769800  0.14786800  0.37340200  1
  O  O15  1  0.40084800  0.61811200  0.38210800  1
  O  O16  1  0.41683100  0.38847300  0.11950200  1
  O  O17  1  0.25344800  0.84616500  0.11979200  1
  O  O18  1  0.24762400  0.64753000  0.87636100  1
  O  O19  1  0.26366000  0.34868200  0.63444600  1
  O  O20  1  0.09684300  0.86382300  0.61431600  1
  O  O21  1  0.08140400  0.11289700  0.87884100  1
  O  O22  1  0.09699500  0.61469700  0.39121900  1
  O  O23  1  0.08047600  0.40350700  0.11868100  1
loop_
_geom_bond_atom_site_label_1
_geom_bond_atom_site_label_2
_geom_bond_distance
_geom_bond_site_symmetry_2
Li0 O3 1.981518 1_545
Li0 O2 2.077469 1_555
Li0 O4 2.114377 1_555
Li0 O21 2.157558 1_655
Li0 O5 2.307103 1_545
Li0 O20 2.374667 1_645
Li1 O6 2.006142 1_555
Li1 O23 2.088661 1_655
Li1 O0 2.119869 1_555
Li1 O9 2.191641 1_555
Li1 O22 2.240406 1_655
Li1 O1 2.358102 1_555
Li2 O10 2.071392 1_555
Li2 O7 2.111718 1_565
Li2 O11 2.115857 1_555
Li2 O3 2.136949 1_555
Li2 O15 2.217512 1_555
Li2 O6 2.229291 1_555
Li3 O7 2.103307 1_555
Li3 O6 2.113929 1_555
Li3 O9 2.136595 1_555
Li3 O16 2.181167 1_555
Li3 O15 2.239258 1_555
Li3 O8 2.242358 1_555
Li4 O14 1.981518 1_565
Li4 O17 2.077469 1_555
Li4 O15 2.114377 1_555
Li4 O8 2.157558 1_555
Li4 O16 2.307103 1_565
Li4 O7 2.374667 1_565
Li5 O19 2.006142 1_555
Li5 O13 2.088661 1_555
Li5 O11 2.119869 1_555
Li5 O18 2.191641 1_555
Li5 O10 2.240406 1_555
Li5 O12 2.358102 1_555
Li6 O22 2.071392 1_555
Li6 O20 2.111718 1_545
Li6 O0 2.115857 1_455
Li6 O14 2.136949 1_555
Li6 O4 2.217512 1_455
Li6 O19 2.229291 1_555
Li7 O20 2.103307 1_555
Li7 O19 2.113929 1_555
Li7 O18 2.136595 1_555
Li7 O5 2.181167 1_455
Li7 O4 2.239258 1_455
Li7 O21 2.242358 1_555
Fe0 O2 2.026578 1_554
Fe0 O1 2.026929 1_545
Fe0 O5 2.043842 1_554
Fe0 O9 2.046709 1_555
Fe0 O23 2.062564 1_655
Fe0 O21 2.103906 1_654
Fe1 O3 1.997845 1_555
Fe1 O6 2.035334 1_555
Fe1 O22 2.066767 1_655
Fe1 O20 2.079863 1_655
Fe1 O0 2.085048 1_565
Fe1 O4 2.101247 1_555
Fe2 O6 1.947623 1_555
Fe2 O0 2.021289 1_565
Fe2 O7 2.080159 1_565
Fe2 O9 2.093096 1_565
Fe2 O1 2.124710 1_555
Fe2 O8 2.155827 1_555
Fe3 O13 2.017218 1_555
Fe3 O2 2.026416 1_555
Fe3 O8 2.043230 1_546
Fe3 O12 2.045544 1_555
Fe3 O9 2.092802 1_556
Fe3 O16 2.105140 1_556
Fe4 O3 1.961051 1_555
Fe4 O10 2.024334 1_555
Fe4 O4 2.026405 1_555
Fe4 O13 2.108511 1_555
Fe4 O2 2.128652 1_555
Fe4 O5 2.182520 1_555
Fe5 O14 1.997845 1_555
Fe5 O19 2.035334 1_555
Fe5 O10 2.066767 1_555
Fe5 O7 2.079863 1_555
Fe5 O11 2.085048 1_545
Fe5 O15 2.101247 1_555
Fe6 O17 2.026578 1_556
Fe6 O12 2.026929 1_565
Fe6 O16 2.043842 1_556
Fe6 O18 2.046709 1_555
Fe6 O13 2.062564 1_555
Fe6 O8 2.103906 1_556
Fe7 O19 1.947623 1_555
Fe7 O11 2.021289 1_545
Fe7 O20 2.080159 1_545
Fe7 O18 2.093096 1_545
Fe7 O12 2.124710 1_555
Fe7 O21 2.155827 1_555
Fe8 O14 1.961051 1_555
Fe8 O22 2.024334 1_555
Fe8 O15 2.026405 1_555
Fe8 O23 2.108511 1_555
Fe8 O17 2.128652 1_555
Fe8 O16 2.182520 1_555
Fe9 O23 2.017218 1_555
Fe9 O17 2.026416 1_555
Fe9 O21 2.043230 1_564
Fe9 O1 2.045544 1_455
Fe9 O18 2.092802 1_554
Fe9 O5 2.105140 1_454
Co0 O10 1.900167 1_555
Co0 O0 1.909290 1_555
Co0 O7 1.933613 1_555
Co0 O4 1.959116 1_555
Co0 O3 2.209372 1_545
Co0 O6 2.339047 1_555
Co1 O1 2.069028 1_556
Co1 O5 2.092488 1_555
Co1 O13 2.094148 1_555
Co1 O8 2.116861 1_556
Co1 O2 2.192252 1_565
Co1 O9 2.286651 1_556
Co2 O12 2.069028 1_554
Co2 O16 2.092488 1_555
Co2 O23 2.094148 1_555
Co2 O21 2.116861 1_554
Co2 O17 2.192252 1_545
Co2 O18 2.286651 1_554
Co3 O22 1.900167 1_555
Co3 O11 1.909290 1_555
Co3 O20 1.933613 1_555
Co3 O15 1.959116 1_555
Co3 O14 2.209372 1_565
Co3 O19 2.339047 1_555
