# generated using pymatgen
data_Bi3IO4
_symmetry_space_group_name_H-M   'P 1'
_cell_length_a   5.86185400
_cell_length_b   5.90371200
_cell_length_c   19.99506200
_cell_angle_alpha   90.00000000
_cell_angle_beta   90.00000000
_cell_angle_gamma   90.00000000
_symmetry_Int_Tables_number   1
_chemical_formula_structural   Bi3IO4
_chemical_formula_sum   'Bi12 I4 O16'
_cell_volume   691.96306817
_cell_formula_units_Z   4
loop_
 _symmetry_equiv_pos_site_id
 _symmetry_equiv_pos_as_xyz
  1  'x, y, z'
loop_
 _atom_site_type_symbol
 _atom_site_label
 _atom_site_symmetry_multiplicity
 _atom_site_fract_x
 _atom_site_fract_y
 _atom_site_fract_z
 _atom_site_occupancy
  Bi  Bi0  1  0.20185300  0.20164200  0.86428500  1
  Bi  Bi1  1  0.20185300  0.29835800  0.63571500  1
  Bi  Bi2  1  0.25000000  0.69815900  0.00000000  1
  Bi  Bi3  1  0.25000000  0.80184100  0.50000000  1
  Bi  Bi4  1  0.29814700  0.29835800  0.36428500  1
  Bi  Bi5  1  0.29814700  0.20164200  0.13571500  1
  Bi  Bi6  1  0.70185300  0.70164200  0.63571500  1
  Bi  Bi7  1  0.70185300  0.79835800  0.86428500  1
  Bi  Bi8  1  0.75000000  0.30184100  0.00000000  1
  Bi  Bi9  1  0.75000000  0.19815900  0.50000000  1
  Bi  Bi10  1  0.79814700  0.79835800  0.13571500  1
  Bi  Bi11  1  0.79814700  0.70164200  0.36428500  1
  I  I0  1  0.22435400  0.75000000  0.75000000  1
  I  I1  1  0.27564600  0.75000000  0.25000000  1
  I  I2  1  0.72435400  0.25000000  0.75000000  1
  I  I3  1  0.77564600  0.25000000  0.25000000  1
  O  O0  1  0.01419500  0.45741200  0.41437700  1
  O  O1  1  0.01419500  0.04258800  0.08562300  1
  O  O2  1  0.07387600  0.43069700  0.93856700  1
  O  O3  1  0.07387600  0.06930300  0.56143300  1
  O  O4  1  0.42612400  0.06930300  0.43856700  1
  O  O5  1  0.42612400  0.43069700  0.06143300  1
  O  O6  1  0.48580500  0.45741200  0.58562300  1
  O  O7  1  0.48580500  0.04258800  0.91437700  1
  O  O8  1  0.51419500  0.95741200  0.08562300  1
  O  O9  1  0.51419500  0.54258800  0.41437700  1
  O  O10  1  0.57387600  0.56930300  0.93856700  1
  O  O11  1  0.57387600  0.93069700  0.56143300  1
  O  O12  1  0.92612400  0.56930300  0.06143300  1
  O  O13  1  0.92612400  0.93069700  0.43856700  1
  O  O14  1  0.98580500  0.95741200  0.91437700  1
  O  O15  1  0.98580500  0.54258800  0.58562300  1
loop_
_geom_bond_atom_site_label_1
_geom_bond_atom_site_label_2
_geom_bond_distance
_geom_bond_site_symmetry_2
Bi0 O2 2.144168 1_555
Bi0 O7 2.157646 1_555
Bi0 O14 2.164725 1_445
Bi0 I0 3.514077 1_545
Bi0 I2 3.624626 1_455
Bi1 O3 2.144168 1_555
Bi1 O6 2.157646 1_555
Bi1 O15 2.164725 1_455
Bi1 I0 3.514077 1_555
Bi1 I2 3.624626 1_455
Bi2 O2 2.251230 1_554
Bi2 O5 2.251230 1_555
Bi2 O10 2.385775 1_554
Bi2 O12 2.385775 1_455
Bi2 O14 2.769848 1_454
Bi2 O8 2.769848 1_555
Bi3 O3 2.251230 1_565
Bi3 O4 2.251230 1_565
Bi3 O11 2.385775 1_555
Bi3 O13 2.385775 1_455
Bi3 O9 2.769848 1_555
Bi3 O15 2.769848 1_455
Bi4 O4 2.144168 1_555
Bi4 O0 2.157646 1_555
Bi4 O9 2.164725 1_555
Bi4 I1 3.514077 1_555
Bi4 I3 3.624626 1_555
Bi5 O5 2.144168 1_555
Bi5 O1 2.157646 1_555
Bi5 O8 2.164725 1_545
Bi5 I1 3.514077 1_545
Bi5 I3 3.624626 1_555
Bi6 O11 2.144168 1_555
Bi6 O15 2.157646 1_555
Bi6 O6 2.164725 1_555
Bi6 I2 3.514077 1_555
Bi6 I0 3.624626 1_555
Bi7 O10 2.144168 1_555
Bi7 O14 2.157646 1_555
Bi7 O7 2.164725 1_565
Bi7 I2 3.514077 1_565
Bi7 I0 3.624626 1_555
Bi8 O10 2.251230 1_554
Bi8 O12 2.251230 1_555
Bi8 O5 2.385775 1_555
Bi8 O2 2.385775 1_654
Bi8 O1 2.769848 1_655
Bi8 O7 2.769848 1_554
Bi9 O11 2.251230 1_545
Bi9 O13 2.251230 1_545
Bi9 O3 2.385775 1_655
Bi9 O4 2.385775 1_555
Bi9 O0 2.769848 1_655
Bi9 O6 2.769848 1_555
Bi10 O12 2.144168 1_555
Bi10 O8 2.157646 1_555
Bi10 O1 2.164725 1_665
Bi10 I3 3.514077 1_565
Bi10 I1 3.624626 1_655
Bi11 O13 2.144168 1_555
Bi11 O9 2.157646 1_555
Bi11 O0 2.164725 1_655
Bi11 I3 3.514077 1_555
Bi11 I1 3.624626 1_655
