# generated using pymatgen
data_Li2CrAsCO7
_symmetry_space_group_name_H-M   'P 1'
_cell_length_a   8.35700967
_cell_length_b   8.35633023
_cell_length_c   8.62658520
_cell_angle_alpha   87.57754667
_cell_angle_beta   87.57231292
_cell_angle_gamma   104.01762450
_symmetry_Int_Tables_number   1
_chemical_formula_structural   Li2CrAsCO7
_chemical_formula_sum   'Li8 Cr4 As4 C4 O28'
_cell_volume   583.10622933
_cell_formula_units_Z   4
loop_
 _symmetry_equiv_pos_site_id
 _symmetry_equiv_pos_as_xyz
  1  'x, y, z'
loop_
 _atom_site_type_symbol
 _atom_site_label
 _atom_site_symmetry_multiplicity
 _atom_site_fract_x
 _atom_site_fract_y
 _atom_site_fract_z
 _atom_site_occupancy
  Li  Li0  1  0.36096700  0.85371100  0.21365100  1
  Li  Li1  1  0.86094700  0.35367600  0.21363300  1
  Li  Li2  1  0.60356700  0.61088800  0.21361400  1
  Li  Li3  1  0.10364000  0.11096900  0.21354900  1
  Li  Li4  1  0.63901100  0.14630700  0.78637100  1
  Li  Li5  1  0.13906400  0.64635100  0.78633600  1
  Li  Li6  1  0.39640900  0.38904800  0.78648200  1
  Li  Li7  1  0.89644000  0.88906300  0.78645100  1
  Cr  Cr0  1  0.27131300  0.52131100  0.33488500  1
  Cr  Cr1  1  0.72869400  0.47862600  0.66518400  1
  Cr  Cr2  1  0.77127900  0.02126600  0.33484800  1
  Cr  Cr3  1  0.22879400  0.97878300  0.66499300  1
  As  As0  1  0.48576500  0.23563300  0.41996400  1
  As  As1  1  0.98571900  0.73560500  0.41998700  1
  As  As2  1  0.51431700  0.76430900  0.58003000  1
  As  As3  1  0.01430900  0.26438100  0.58003500  1
  C  C0  1  0.73876800  0.98873600  0.05464300  1
  C  C1  1  0.23872300  0.48870500  0.05464100  1
  C  C2  1  0.26121100  0.01129800  0.94528100  1
  C  C3  1  0.76123200  0.51128200  0.94539700  1
  O  O0  1  0.27574600  0.02580200  0.08941800  1
  O  O1  1  0.77575000  0.52581600  0.08950500  1
  O  O2  1  0.72418600  0.97421800  0.91056000  1
  O  O3  1  0.22420200  0.47421300  0.91057000  1
  O  O4  1  0.85411400  0.10403900  0.11321400  1
  O  O5  1  0.35406200  0.60401400  0.11324300  1
  O  O6  1  0.14591400  0.89602600  0.88662400  1
  O  O7  1  0.64590600  0.39595100  0.88681900  1
  O  O8  1  0.64074500  0.89068400  0.16218100  1
  O  O9  1  0.14065100  0.39065700  0.16213000  1
  O  O10  1  0.35928300  0.10938500  0.83776800  1
  O  O11  1  0.85927700  0.60931500  0.83787900  1
  O  O12  1  0.45562700  0.70567900  0.39724200  1
  O  O13  1  0.95571700  0.20577000  0.39720200  1
  O  O14  1  0.54434000  0.29428000  0.60280000  1
  O  O15  1  0.04432700  0.79429200  0.60281900  1
  O  O16  1  0.31814700  0.06799400  0.44966500  1
  O  O17  1  0.81811900  0.56793400  0.44980900  1
  O  O18  1  0.68186900  0.93202400  0.55023800  1
  O  O19  1  0.18183800  0.43213100  0.55029600  1
  O  O20  1  0.43959500  0.39162100  0.31059100  1
  O  O21  1  0.93961800  0.89161500  0.31056700  1
  O  O22  1  0.64172000  0.18960000  0.31045900  1
  O  O23  1  0.14167800  0.68956900  0.31052300  1
  O  O24  1  0.35831900  0.81041500  0.68949100  1
  O  O25  1  0.85829700  0.31034500  0.68953000  1
  O  O26  1  0.56038100  0.60830100  0.68946900  1
  O  O27  1  0.06040400  0.10835900  0.68941800  1
loop_
_geom_bond_atom_site_label_1
_geom_bond_atom_site_label_2
_geom_bond_distance
_geom_bond_site_symmetry_2
Li0 O0 2.038207 1_565
Li0 O23 2.119855 1_555
Li0 O12 2.253634 1_555
Li0 O5 2.281660 1_555
Li0 O8 2.304312 1_555
Li1 O1 2.037950 1_555
Li1 O22 2.119134 1_555
Li1 O13 2.253339 1_555
Li1 O4 2.281345 1_555
Li1 O9 2.303742 1_655
Li2 O1 2.037531 1_555
Li2 O20 2.119390 1_555
Li2 O12 2.253852 1_555
Li2 O5 2.280318 1_555
Li2 O8 2.304055 1_555
Li3 O0 2.037564 1_555
Li3 O21 2.120185 1_445
Li3 O13 2.253959 1_455
Li3 O4 2.280266 1_455
Li3 O9 2.303325 1_555
Li4 O2 2.037792 1_545
Li4 O25 2.119383 1_555
Li4 O14 2.253264 1_555
Li4 O7 2.281411 1_555
Li4 O10 2.303865 1_555
Li5 O3 2.038137 1_555
Li5 O24 2.119307 1_555
Li5 O15 2.253062 1_555
Li5 O6 2.281139 1_555
Li5 O11 2.304413 1_455
Li6 O3 2.038015 1_555
Li6 O26 2.119412 1_555
Li6 O14 2.254031 1_555
Li6 O7 2.280089 1_555
Li6 O10 2.302842 1_555
Li7 O2 2.038363 1_555
Li7 O27 2.119689 1_665
Li7 O15 2.253522 1_655
Li7 O6 2.279228 1_655
Li7 O11 2.303673 1_555
Cr0 O23 1.981654 1_555
Cr0 O20 1.982104 1_555
Cr0 O12 2.006526 1_555
Cr0 O19 2.015659 1_555
Cr0 O5 2.038722 1_555
Cr0 O9 2.074406 1_555
Cr1 O25 1.981608 1_555
Cr1 O26 1.982223 1_555
Cr1 O14 2.006693 1_555
Cr1 O17 2.015539 1_555
Cr1 O7 2.038687 1_555
Cr1 O11 2.073854 1_555
Cr2 O22 1.981750 1_555
Cr2 O21 1.982256 1_545
Cr2 O13 2.007806 1_555
Cr2 O18 2.015491 1_545
Cr2 O4 2.038943 1_555
Cr2 O8 2.073110 1_545
Cr3 O24 1.981876 1_555
Cr3 O27 1.982283 1_565
Cr3 O15 2.007369 1_555
Cr3 O16 2.014837 1_565
Cr3 O6 2.038972 1_555
Cr3 O10 2.073731 1_565
As0 O22 1.705363 1_555
As0 O20 1.705490 1_555
As0 O16 1.725938 1_555
As0 O14 1.726861 1_555
As1 O23 1.705213 1_655
As1 O21 1.705601 1_555
As1 O17 1.726093 1_555
As1 O15 1.726983 1_655
As2 O26 1.705540 1_555
As2 O24 1.705712 1_555
As2 O18 1.726052 1_555
As2 O12 1.726680 1_555
As3 O25 1.705446 1_455
As3 O27 1.705490 1_555
As3 O19 1.726076 1_555
As3 O13 1.726796 1_455
C0 O2 1.262100 1_554
C0 O4 1.321106 1_565
C0 O8 1.322576 1_555
C1 O3 1.261914 1_554
C1 O5 1.321220 1_555
C1 O9 1.322467 1_555
C2 O0 1.262504 1_556
C2 O6 1.321056 1_545
C2 O10 1.322745 1_555
C3 O1 1.262268 1_556
C3 O7 1.321171 1_555
C3 O11 1.322475 1_555
