# generated using pymatgen
data_Na2Ca6Mg7Fe(SiO3)16
_symmetry_space_group_name_H-M   'P 1'
_cell_length_a   13.33103036
_cell_length_b   13.33103036
_cell_length_c   5.32915299
_cell_angle_alpha   79.00476476
_cell_angle_beta   79.00476476
_cell_angle_gamma   85.12729191
_symmetry_Int_Tables_number   1
_chemical_formula_structural   Na2Ca6Mg7Fe(SiO3)16
_chemical_formula_sum   'Na2 Ca6 Mg7 Fe1 Si16 O48'
_cell_volume   911.46616305
_cell_formula_units_Z   1
loop_
 _symmetry_equiv_pos_site_id
 _symmetry_equiv_pos_as_xyz
  1  'x, y, z'
loop_
 _atom_site_type_symbol
 _atom_site_label
 _atom_site_symmetry_multiplicity
 _atom_site_fract_x
 _atom_site_fract_y
 _atom_site_fract_z
 _atom_site_occupancy
  Na  Na0  1  0.84984300  0.15015700  0.00000000  1
  Na  Na1  1  0.14763900  0.85236100  0.50000000  1
  Ca  Ca0  1  0.34907800  0.65092200  0.00000000  1
  Ca  Ca1  1  0.85088300  0.64937300  0.49991900  1
  Ca  Ca2  1  0.35062700  0.14911700  0.50008100  1
  Ca  Ca3  1  0.15043500  0.35105800  0.99666600  1
  Ca  Ca4  1  0.64894200  0.84956500  0.00333400  1
  Ca  Ca5  1  0.65127200  0.34872800  0.50000000  1
  Mg  Mg0  1  0.04665100  0.95334900  0.00000000  1
  Mg  Mg1  1  0.54669600  0.95436100  0.50064800  1
  Mg  Mg2  1  0.04563900  0.45330400  0.49935200  1
  Mg  Mg3  1  0.54646600  0.45353400  0.00000000  1
  Mg  Mg4  1  0.45411100  0.54588900  0.50000000  1
  Mg  Mg5  1  0.45471500  0.04559100  0.00094500  1
  Mg  Mg6  1  0.95440900  0.54528500  0.99905500  1
  Fe  Fe0  1  0.95046300  0.04953700  0.50000000  1
  Si  Si0  1  0.09697800  0.68839200  0.19548400  1
  Si  Si1  1  0.31160800  0.90302200  0.80451600  1
  Si  Si2  1  0.09606600  0.18998600  0.69363700  1
  Si  Si3  1  0.59702300  0.68918900  0.69486600  1
  Si  Si4  1  0.31081100  0.40297700  0.30513400  1
  Si  Si5  1  0.81001400  0.90393400  0.30636300  1
  Si  Si6  1  0.59873100  0.18868100  0.19500000  1
  Si  Si7  1  0.18888400  0.59808400  0.69301100  1
  Si  Si8  1  0.81131900  0.40126900  0.80500000  1
  Si  Si9  1  0.40191600  0.81111600  0.30698900  1
  Si  Si10  1  0.18763300  0.09762100  0.19647000  1
  Si  Si11  1  0.68997700  0.59578600  0.19496300  1
  Si  Si12  1  0.40421400  0.31002300  0.80503700  1
  Si  Si13  1  0.90237900  0.81236700  0.80353000  1
  Si  Si14  1  0.69059300  0.09688500  0.69654300  1
  Si  Si15  1  0.90311500  0.30940700  0.30345700  1
  O  O0  1  0.32021700  0.83128100  0.09396500  1
  O  O1  1  0.05314800  0.80486900  0.19359700  1
  O  O2  1  0.01334900  0.60074400  0.27760100  1
  O  O3  1  0.31784600  0.33280200  0.60035000  1
  O  O4  1  0.81540900  0.83206700  0.60046500  1
  O  O5  1  0.39925600  0.98665100  0.72239900  1
  O  O6  1  0.05570900  0.30588900  0.70768600  1
  O  O7  1  0.55834800  0.80584000  0.70580800  1
  O  O8  1  0.19513100  0.94685200  0.80640300  1
  O  O9  1  0.01582000  0.09923600  0.76777200  1
  O  O10  1  0.51358000  0.60181200  0.77744300  1
  O  O11  1  0.16871900  0.67978300  0.90603500  1
  O  O12  1  0.81859100  0.33216900  0.09883300  1
  O  O13  1  0.39818800  0.48642000  0.22255700  1
  O  O14  1  0.90076400  0.98418000  0.23222800  1
  O  O15  1  0.55777100  0.30549500  0.20358600  1
  O  O16  1  0.33361800  0.81784300  0.60136200  1
  O  O17  1  0.30562600  0.55700600  0.70349300  1
  O  O18  1  0.19416000  0.44165200  0.29419200  1
  O  O19  1  0.69411100  0.94429100  0.29231400  1
  O  O20  1  0.51412800  0.10189200  0.27707800  1
  O  O21  1  0.66719800  0.68215400  0.39965000  1
  O  O22  1  0.16793300  0.18459100  0.39953500  1
  O  O23  1  0.10159100  0.51406100  0.77550200  1
  O  O24  1  0.89810800  0.48587200  0.72292200  1
  O  O25  1  0.33415200  0.31680800  0.10013600  1
  O  O26  1  0.83210800  0.81852700  0.09940400  1
  O  O27  1  0.48593900  0.89840900  0.22449800  1
  O  O28  1  0.30400900  0.05660800  0.20690100  1
  O  O29  1  0.80653400  0.55667600  0.20647500  1
  O  O30  1  0.69450500  0.44222900  0.79641400  1
  O  O31  1  0.66783100  0.18140900  0.90116700  1
  O  O32  1  0.44299400  0.69437400  0.29650700  1
  O  O33  1  0.09508100  0.01952700  0.27904100  1
  O  O34  1  0.60199500  0.51309800  0.27783400  1
  O  O35  1  0.18215700  0.66638200  0.39863800  1
  O  O36  1  0.83161300  0.31932400  0.59233800  1
  O  O37  1  0.48690200  0.39800500  0.72216600  1
  O  O38  1  0.98047300  0.90491900  0.72095900  1
  O  O39  1  0.80797200  0.05467200  0.69694800  1
  O  O40  1  0.44332400  0.19346600  0.79352500  1
  O  O41  1  0.94339200  0.69599100  0.79309900  1
  O  O42  1  0.60378800  0.01247500  0.77910200  1
  O  O43  1  0.18147300  0.16789200  0.90059600  1
  O  O44  1  0.68319200  0.66584800  0.89986400  1
  O  O45  1  0.98752500  0.39621200  0.22089800  1
  O  O46  1  0.94532800  0.19202800  0.30305200  1
  O  O47  1  0.68067600  0.16838700  0.40766200  1
loop_
_geom_bond_atom_site_label_1
_geom_bond_atom_site_label_2
_geom_bond_distance
_geom_bond_site_symmetry_2
Na0 O46 2.406013 1_555
Na0 O39 2.406013 1_554
Na0 O9 2.430834 1_654
Na0 O14 2.430834 1_545
Na0 O12 2.563296 1_555
Na0 O31 2.563296 1_554
Na0 O36 2.846751 1_554
Na0 O47 2.846751 1_555
Na1 O38 2.427374 1_455
Na1 O33 2.427374 1_565
Na1 O8 2.443006 1_555
Na1 O1 2.443006 1_555
Na1 O16 2.621574 1_555
Na1 O35 2.621574 1_555
Na1 O0 2.877016 1_555
Na1 O11 2.877016 1_555
Ca0 O17 2.372097 1_554
Ca0 O32 2.372097 1_555
Ca0 O13 2.388433 1_555
Ca0 O10 2.388433 1_554
Ca0 O11 2.531483 1_554
Ca0 O0 2.531483 1_555
Ca0 O35 2.791606 1_555
Ca0 O16 2.791606 1_554
Ca1 O29 2.352880 1_555
Ca1 O41 2.363002 1_555
Ca1 O2 2.364408 1_655
Ca1 O24 2.371431 1_555
Ca1 O4 2.578348 1_555
Ca1 O21 2.588617 1_555
Ca1 O44 2.804648 1_555
Ca1 O26 2.824052 1_555
Ca2 O40 2.352880 1_555
Ca2 O28 2.363002 1_555
Ca2 O5 2.364408 1_545
Ca2 O20 2.371431 1_555
Ca2 O22 2.578348 1_555
Ca2 O3 2.588617 1_555
Ca2 O25 2.804648 1_555
Ca2 O43 2.824052 1_555
Ca3 O18 2.348390 1_556
Ca3 O6 2.356614 1_555
Ca3 O45 2.359910 1_456
Ca3 O23 2.368640 1_555
Ca3 O43 2.572953 1_555
Ca3 O25 2.596137 1_556
Ca3 O3 2.794002 1_555
Ca3 O22 2.806105 1_556
Ca4 O7 2.348390 1_554
Ca4 O19 2.356614 1_555
Ca4 O42 2.359910 1_564
Ca4 O27 2.368640 1_555
Ca4 O26 2.572953 1_555
Ca4 O44 2.596137 1_554
Ca4 O21 2.794002 1_555
Ca4 O4 2.806105 1_554
Ca5 O15 2.366745 1_555
Ca5 O30 2.366745 1_555
Ca5 O37 2.386895 1_555
Ca5 O34 2.386895 1_555
Ca5 O47 2.528487 1_555
Ca5 O36 2.528487 1_555
Ca5 O12 2.805692 1_555
Ca5 O31 2.805692 1_555
Mg0 O8 2.053262 1_554
Mg0 O1 2.053262 1_555
Mg0 O38 2.090427 1_454
Mg0 O33 2.090427 1_565
Mg0 O14 2.150114 1_455
Mg0 O9 2.150114 1_564
Mg1 O19 2.071813 1_555
Mg1 O7 2.080010 1_555
Mg1 O42 2.085906 1_565
Mg1 O27 2.086664 1_555
Mg1 O5 2.146950 1_555
Mg1 O20 2.152790 1_565
Mg2 O6 2.071813 1_555
Mg2 O18 2.080010 1_555
Mg2 O45 2.085906 1_455
Mg2 O23 2.086664 1_555
Mg2 O2 2.146950 1_555
Mg2 O24 2.152790 1_455
Mg3 O15 2.071148 1_555
Mg3 O30 2.071148 1_554
Mg3 O37 2.082583 1_554
Mg3 O34 2.082583 1_555
Mg3 O10 2.159410 1_554
Mg3 O13 2.159410 1_555
Mg4 O17 2.075782 1_555
Mg4 O32 2.075782 1_555
Mg4 O13 2.082872 1_555
Mg4 O10 2.082872 1_555
Mg4 O34 2.154090 1_555
Mg4 O37 2.154090 1_555
Mg5 O40 2.076776 1_554
Mg5 O20 2.079186 1_555
Mg5 O5 2.080791 1_544
Mg5 O28 2.105421 1_555
Mg5 O27 2.145021 1_545
Mg5 O42 2.166970 1_554
Mg6 O29 2.076776 1_556
Mg6 O24 2.079186 1_555
Mg6 O2 2.080791 1_656
Mg6 O41 2.105421 1_555
Mg6 O23 2.145021 1_655
Mg6 O45 2.166970 1_556
Fe0 O39 1.989819 1_555
Fe0 O46 1.989819 1_555
Fe0 O14 2.041416 1_545
Fe0 O9 2.041416 1_655
Fe0 O38 2.108589 1_545
Fe0 O33 2.108589 1_655
O0 Si1 1.671330 1_554
O0 Si9 1.689002 1_555
O1 Si0 1.610813 1_555
O2 Si0 1.624751 1_555
O3 Si4 1.684946 1_555
O3 Si12 1.703252 1_555
O4 Si5 1.684647 1_555
O4 Si13 1.703736 1_555
O5 Si1 1.624751 1_555
O6 Si2 1.603105 1_555
O7 Si3 1.604495 1_555
O8 Si1 1.610813 1_555
O9 Si2 1.624929 1_555
O10 Si3 1.620410 1_555
O11 Si0 1.671330 1_556
O11 Si7 1.689002 1_555
O12 Si8 1.674052 1_554
O12 Si15 1.683825 1_555
O13 Si4 1.620410 1_555
O14 Si5 1.624929 1_555
O15 Si6 1.611979 1_555
O16 Si9 1.671220 1_555
O16 Si1 1.684869 1_555
O17 Si7 1.612995 1_555
O18 Si4 1.604495 1_555
O19 Si5 1.603105 1_555
O20 Si6 1.625557 1_555
O21 Si3 1.684946 1_555
O21 Si11 1.703252 1_555
O22 Si2 1.684647 1_555
O22 Si10 1.703736 1_555
O23 Si7 1.624988 1_555
O24 Si8 1.625557 1_555
O25 Si12 1.683243 1_554
O25 Si4 1.702402 1_555
O26 Si13 1.686226 1_554
O26 Si5 1.702241 1_555
O27 Si9 1.624988 1_555
O28 Si10 1.608136 1_555
O29 Si11 1.605149 1_555
O30 Si8 1.611979 1_555
O31 Si6 1.674052 1_556
O31 Si14 1.683825 1_555
O32 Si9 1.612995 1_555
O33 Si10 1.623616 1_555
O34 Si11 1.619311 1_555
O35 Si7 1.671220 1_555
O35 Si0 1.684869 1_555
O36 Si15 1.671095 1_555
O36 Si8 1.689980 1_555
O37 Si12 1.619311 1_555
O38 Si13 1.623616 1_555
O39 Si14 1.617547 1_555
O40 Si12 1.605149 1_555
O41 Si13 1.608136 1_555
O42 Si14 1.623908 1_555
O43 Si10 1.686226 1_556
O43 Si2 1.702241 1_555
O44 Si11 1.683243 1_556
O44 Si3 1.702402 1_555
O45 Si15 1.623908 1_555
O46 Si15 1.617547 1_555
O47 Si14 1.671095 1_555
O47 Si6 1.689980 1_555
