# generated using pymatgen
data_Cu3P
_symmetry_space_group_name_H-M   'P 1'
_cell_length_a   6.89606533
_cell_length_b   6.89606533
_cell_length_c   7.13933200
_cell_angle_alpha   90.00000000
_cell_angle_beta   90.00000000
_cell_angle_gamma   120.00000199
_symmetry_Int_Tables_number   1
_chemical_formula_structural   Cu3P
_chemical_formula_sum   'Cu18 P6'
_cell_volume   294.02952029
_cell_formula_units_Z   6
loop_
 _symmetry_equiv_pos_site_id
 _symmetry_equiv_pos_as_xyz
  1  'x, y, z'
loop_
 _atom_site_type_symbol
 _atom_site_label
 _atom_site_symmetry_multiplicity
 _atom_site_fract_x
 _atom_site_fract_y
 _atom_site_fract_z
 _atom_site_occupancy
  Cu  Cu0  1  0.38367210  0.00000000  0.42810515  1
  Cu  Cu1  1  0.38367210  0.38367210  0.92810515  1
  Cu  Cu2  1  1.00000000  0.61632790  0.92810515  1
  Cu  Cu3  1  0.00000000  0.38367210  0.42810515  1
  Cu  Cu4  1  0.61632790  0.61632790  0.42810515  1
  Cu  Cu5  1  0.61632790  1.00000000  0.92810515  1
  Cu  Cu6  1  0.33333300  0.66666700  0.18752894  1
  Cu  Cu7  1  0.66666700  0.33333300  0.68752894  1
  Cu  Cu8  1  0.33333300  0.66666700  0.68752894  1
  Cu  Cu9  1  0.66666700  0.33333300  0.18752894  1
  Cu  Cu10  1  -0.00000000  -0.00000000  0.32764697  1
  Cu  Cu11  1  -0.00000000  -0.00000000  0.82764697  1
  Cu  Cu12  1  0.72683528  0.00000000  0.57767096  1
  Cu  Cu13  1  0.72683528  0.72683528  0.07767096  1
  Cu  Cu14  1  1.00000000  0.27316472  0.07767096  1
  Cu  Cu15  1  0.00000000  0.72683528  0.57767096  1
  Cu  Cu16  1  0.27316472  0.27316472  0.57767096  1
  Cu  Cu17  1  0.27316472  1.00000000  0.07767096  1
  P  P0  1  0.66900168  0.00000000  0.25138927  1
  P  P1  1  0.66900168  0.66900168  0.75138927  1
  P  P2  1  1.00000000  0.33099832  0.75138927  1
  P  P3  1  0.00000000  0.66900168  0.25138927  1
  P  P4  1  0.33099832  0.33099832  0.25138927  1
  P  P5  1  0.33099832  1.00000000  0.75138927  1
loop_
_geom_bond_atom_site_label_1
_geom_bond_atom_site_label_2
_geom_bond_distance
_geom_bond_site_symmetry_2
Cu0 P5 2.336442 1_545
Cu0 P0 2.337385 1_555
Cu1 P4 2.336442 1_556
Cu1 P1 2.337385 1_555
Cu2 P3 2.336442 1_656
Cu2 P2 2.337385 1_555
Cu3 P2 2.336442 1_455
Cu3 P3 2.337385 1_555
Cu4 P1 2.336442 1_555
Cu4 P4 2.337385 1_555
Cu5 P0 2.336442 1_566
Cu5 P5 2.337385 1_555
Cu6 P3 2.351402 1_555
Cu6 P0 2.351405 1_565
Cu6 P4 2.351408 1_555
Cu7 P2 2.351402 1_555
Cu7 P5 2.351405 1_545
Cu7 P1 2.351408 1_555
Cu8 P5 2.351402 1_555
Cu8 P2 2.351405 1_455
Cu8 P1 2.351408 1_555
Cu9 P0 2.351402 1_555
Cu9 P3 2.351405 1_655
Cu9 P4 2.351408 1_555
Cu10 P4 2.346615 1_555
Cu10 P0 2.346615 1_455
Cu10 P3 2.346615 1_545
Cu11 P1 2.346615 1_445
Cu11 P2 2.346615 1_455
Cu11 P5 2.346615 1_545
Cu12 P0 2.363328 1_555
Cu12 P2 2.448895 1_555
Cu12 P1 2.448895 1_545
Cu13 P1 2.363328 1_554
Cu13 P0 2.448895 1_565
Cu13 P3 2.448895 1_655
Cu14 P2 2.363328 1_554
Cu14 P0 2.448895 1_555
Cu14 P4 2.448895 1_655
Cu15 P3 2.363328 1_555
Cu15 P5 2.448895 1_555
Cu15 P1 2.448895 1_455
Cu16 P4 2.363328 1_555
Cu16 P5 2.448895 1_545
Cu16 P2 2.448895 1_455
Cu17 P5 2.363328 1_554
Cu17 P3 2.448895 1_555
Cu17 P4 2.448895 1_565
