# generated using pymatgen
data_Li3Fe8(BO3)8
_symmetry_space_group_name_H-M   'P 1'
_cell_length_a   5.26025000
_cell_length_b   9.11364687
_cell_length_c   11.39254813
_cell_angle_alpha   113.54253588
_cell_angle_beta   102.95758771
_cell_angle_gamma   89.25429395
_symmetry_Int_Tables_number   1
_chemical_formula_structural   Li3Fe8(BO3)8
_chemical_formula_sum   'Li3 Fe8 B8 O24'
_cell_volume   486.15517497
_cell_formula_units_Z   1
loop_
 _symmetry_equiv_pos_site_id
 _symmetry_equiv_pos_as_xyz
  1  'x, y, z'
loop_
 _atom_site_type_symbol
 _atom_site_label
 _atom_site_symmetry_multiplicity
 _atom_site_fract_x
 _atom_site_fract_y
 _atom_site_fract_z
 _atom_site_occupancy
  Li  Li0  1  0.02725400  0.03318100  0.40897700  1
  Li  Li1  1  0.49593500  0.50907300  0.66572300  1
  Li  Li2  1  0.25902900  0.24660100  0.15411200  1
  Fe  Fe0  1  0.00745300  0.35496700  0.37520200  1
  Fe  Fe1  1  0.27051700  0.93985500  0.88301400  1
  Fe  Fe2  1  0.48258500  0.15073100  0.63376600  1
  Fe  Fe3  1  0.24597000  0.56902500  0.12644100  1
  Fe  Fe4  1  0.77107200  0.43644800  0.88631900  1
  Fe  Fe5  1  0.51773900  0.84314000  0.37243200  1
  Fe  Fe6  1  0.97654300  0.65981600  0.62793300  1
  Fe  Fe7  1  0.74387000  0.04959200  0.12258200  1
  B  B0  1  0.02841500  0.69430000  0.38034900  1
  B  B1  1  0.25595600  0.60157700  0.87030300  1
  B  B2  1  0.47222000  0.80878300  0.62361900  1
  B  B3  1  0.24249000  0.90037400  0.13542500  1
  B  B4  1  0.51389700  0.17995700  0.37642700  1
  B  B5  1  0.77138500  0.10605400  0.87912200  1
  B  B6  1  0.97630600  0.31870500  0.62331900  1
  B  B7  1  0.73036800  0.39155800  0.12801300  1
  O  O0  1  0.03257100  0.09348600  0.88645200  1
  O  O1  1  0.12540000  0.71500600  0.82870200  1
  O  O2  1  0.12816000  0.52251800  0.92322800  1
  O  O3  1  0.10509700  0.18675300  0.60746900  1
  O  O4  1  0.07378300  0.43570600  0.58327400  1
  O  O5  1  0.24482200  0.83189500  0.67276900  1
  O  O6  1  0.25372500  0.67225500  0.33505600  1
  O  O7  1  0.50173500  0.56819000  0.85190800  1
  O  O8  1  0.64306900  0.21604200  0.83598800  1
  O  O9  1  0.43003300  0.06820300  0.41682300  1
  O  O10  1  0.34966900  0.29089500  0.35685900  1
  O  O11  1  0.63293100  0.01197600  0.91824800  1
  O  O12  1  0.34397700  0.99851400  0.08254800  1
  O  O13  1  0.61699000  0.68266900  0.62911900  1
  O  O14  1  0.54292300  0.90894300  0.57159300  1
  O  O15  1  0.41155800  0.80315700  0.17955400  1
  O  O16  1  0.47549100  0.39511700  0.13163200  1
  O  O17  1  0.75072600  0.35054200  0.67045900  1
  O  O18  1  0.76523700  0.17649900  0.35330400  1
  O  O19  1  0.95344400  0.58418600  0.42824800  1
  O  O20  1  0.88309200  0.81955500  0.38337700  1
  O  O21  1  0.85021700  0.47779100  0.07603500  1
  O  O22  1  0.89251100  0.29379000  0.18001400  1
  O  O23  1  0.99339400  0.90338700  0.14566100  1
loop_
_geom_bond_atom_site_label_1
_geom_bond_atom_site_label_2
_geom_bond_distance
_geom_bond_site_symmetry_2
Li0 O20 1.983993 1_445
Li0 O18 2.056906 1_455
Li0 O3 2.076408 1_555
Li0 O9 2.123373 1_555
Li1 O13 1.937721 1_555
Li1 O7 1.961844 1_555
Li1 O17 1.966239 1_555
Li1 O4 2.205006 1_555
Li2 O16 1.908385 1_555
Li2 O22 2.030099 1_455
Li2 O10 2.119372 1_555
Li2 O12 2.154273 1_545
Fe0 O10 1.915467 1_555
Fe0 O19 1.965441 1_455
Fe0 O18 1.979479 1_455
Fe0 O22 2.009131 1_455
Fe0 O4 2.127126 1_555
Fe1 O0 1.860410 1_565
Fe1 O11 1.925133 1_565
Fe1 O1 1.995181 1_555
Fe1 O12 2.059901 1_556
Fe1 O5 2.167734 1_555
Fe2 O3 1.983753 1_555
Fe2 O14 2.072175 1_545
Fe2 O8 2.102372 1_555
Fe2 O17 2.162085 1_555
Fe2 O9 2.228138 1_555
Fe3 O16 1.991541 1_555
Fe3 O15 2.111515 1_555
Fe3 O21 2.117155 1_455
Fe3 O2 2.122024 1_554
Fe3 O6 2.169463 1_555
Fe4 O7 1.919679 1_555
Fe4 O2 1.934178 1_655
Fe4 O8 1.938811 1_555
Fe4 O21 1.984114 1_556
Fe4 O17 2.240117 1_555
Fe5 O20 1.912705 1_555
Fe5 O6 1.948540 1_555
Fe5 O9 1.981700 1_565
Fe5 O15 2.021988 1_555
Fe5 O14 2.074993 1_555
Fe6 O13 1.902546 1_555
Fe6 O5 1.950974 1_655
Fe6 O4 1.987840 1_655
Fe6 O19 2.071401 1_555
Fe6 O1 2.094215 1_655
Fe7 O23 1.909706 1_545
Fe7 O12 2.067658 1_545
Fe7 O11 2.153041 1_554
Fe7 O22 2.155240 1_555
Fe7 O18 2.387819 1_555
B0 O20 1.358785 1_455
B0 O6 1.377148 1_555
B0 O19 1.415868 1_455
B1 O7 1.366862 1_555
B1 O2 1.369683 1_555
B1 O1 1.411328 1_555
B2 O14 1.364836 1_555
B2 O13 1.385000 1_555
B2 O5 1.410079 1_555
B3 O23 1.340257 1_455
B3 O15 1.401246 1_555
B3 O12 1.426510 1_555
B4 O10 1.374469 1_555
B4 O9 1.385967 1_555
B4 O18 1.402441 1_555
B5 O0 1.363744 1_655
B5 O8 1.388886 1_555
B5 O11 1.389743 1_555
B6 O3 1.340865 1_655
B6 O17 1.390318 1_555
B6 O4 1.454582 1_655
B7 O16 1.350134 1_555
B7 O21 1.384856 1_555
B7 O22 1.430963 1_555
