# generated using pymatgen
data_Li3Mn4NiO8
_symmetry_space_group_name_H-M   'P 1'
_cell_length_a   5.98152708
_cell_length_b   5.98152708
_cell_length_c   6.07686423
_cell_angle_alpha   59.69960442
_cell_angle_beta   59.69960442
_cell_angle_gamma   61.00521477
_symmetry_Int_Tables_number   1
_chemical_formula_structural   Li3Mn4NiO8
_chemical_formula_sum   'Li3 Mn4 Ni1 O8'
_cell_volume   154.15649849
_cell_formula_units_Z   1
loop_
 _symmetry_equiv_pos_site_id
 _symmetry_equiv_pos_as_xyz
  1  'x, y, z'
loop_
 _atom_site_type_symbol
 _atom_site_label
 _atom_site_symmetry_multiplicity
 _atom_site_fract_x
 _atom_site_fract_y
 _atom_site_fract_z
 _atom_site_occupancy
  Li  Li0  1  0.50000000  0.00000000  0.50000000  1
  Li  Li1  1  0.00000000  0.00000000  0.50000000  1
  Li  Li2  1  0.00000000  0.50000000  0.50000000  1
  Mn  Mn0  1  0.50000000  0.50000000  0.50000000  1
  Mn  Mn1  1  0.00000000  0.00000000  0.00000000  1
  Mn  Mn2  1  0.50000000  0.00000000  0.00000000  1
  Mn  Mn3  1  0.00000000  0.50000000  0.00000000  1
  Ni  Ni0  1  0.50000000  0.50000000  0.00000000  1
  O  O0  1  0.25057100  0.25057100  0.20878400  1
  O  O1  1  0.76094200  0.26445900  0.23300400  1
  O  O2  1  0.26445900  0.76094200  0.23300400  1
  O  O3  1  0.74603900  0.74603900  0.27551500  1
  O  O4  1  0.25396100  0.25396100  0.72448500  1
  O  O5  1  0.73554100  0.23905800  0.76699600  1
  O  O6  1  0.23905800  0.73554100  0.76699600  1
  O  O7  1  0.74942900  0.74942900  0.79121600  1
loop_
_geom_bond_atom_site_label_1
_geom_bond_atom_site_label_2
_geom_bond_distance
_geom_bond_site_symmetry_2
Li0 O4 2.057255 1_555
Li0 O3 2.057255 1_545
Li0 O1 2.195307 1_555
Li0 O6 2.195307 1_545
Li0 O7 2.328962 1_545
Li0 O0 2.328962 1_555
Li1 O7 2.109374 1_445
Li1 O0 2.109374 1_555
Li1 O6 2.176667 1_545
Li1 O2 2.176667 1_545
Li1 O1 2.176667 1_455
Li1 O5 2.176667 1_455
Li2 O4 2.057255 1_555
Li2 O3 2.057255 1_455
Li2 O2 2.195307 1_555
Li2 O5 2.195307 1_455
Li2 O7 2.328962 1_455
Li2 O0 2.328962 1_555
Mn0 O3 2.059307 1_555
Mn0 O4 2.059307 1_555
Mn0 O5 2.161722 1_555
Mn0 O6 2.161722 1_555
Mn0 O1 2.161722 1_555
Mn0 O2 2.161722 1_555
Mn1 O3 2.126656 1_445
Mn1 O4 2.126656 1_554
Mn1 O2 2.139178 1_545
Mn1 O5 2.139178 1_454
Mn1 O6 2.139178 1_544
Mn1 O1 2.139178 1_455
Mn2 O0 1.980649 1_555
Mn2 O7 1.980649 1_544
Mn2 O2 1.982831 1_545
Mn2 O5 1.982831 1_554
Mn2 O3 2.242597 1_545
Mn2 O4 2.242597 1_554
Mn3 O0 1.980649 1_555
Mn3 O7 1.980649 1_454
Mn3 O6 1.982831 1_554
Mn3 O1 1.982831 1_455
Mn3 O3 2.242597 1_455
Mn3 O4 2.242597 1_554
Ni0 O7 2.097485 1_554
Ni0 O0 2.097485 1_555
Ni0 O6 2.123969 1_554
Ni0 O1 2.123969 1_555
Ni0 O5 2.123969 1_554
Ni0 O2 2.123969 1_555
