# generated using pymatgen
data_Ti3CrCo2(PO4)6
_symmetry_space_group_name_H-M   'P 1'
_cell_length_a   8.57360038
_cell_length_b   8.57360038
_cell_length_c   8.57360080
_cell_angle_alpha   60.51250767
_cell_angle_beta   60.51250767
_cell_angle_gamma   60.51250585
_symmetry_Int_Tables_number   1
_chemical_formula_structural   Ti3CrCo2(PO4)6
_chemical_formula_sum   'Ti3 Cr1 Co2 P6 O24'
_cell_volume   450.79145946
_cell_formula_units_Z   1
loop_
 _symmetry_equiv_pos_site_id
 _symmetry_equiv_pos_as_xyz
  1  'x, y, z'
loop_
 _atom_site_type_symbol
 _atom_site_label
 _atom_site_symmetry_multiplicity
 _atom_site_fract_x
 _atom_site_fract_y
 _atom_site_fract_z
 _atom_site_occupancy
  Ti  Ti0  1  0.35734700  0.35734700  0.35734700  1
  Ti  Ti1  1  0.14201000  0.14201000  0.14201000  1
  Ti  Ti2  1  0.64292300  0.64292300  0.64292300  1
  Cr  Cr0  1  0.85908500  0.85908500  0.85908500  1
  Co  Co0  1  0.99983600  0.99983600  0.99983600  1
  Co  Co1  1  0.49923300  0.49923300  0.49923300  1
  P  P0  1  0.46011300  0.75085800  0.04173300  1
  P  P1  1  0.75085800  0.04173300  0.46011300  1
  P  P2  1  0.04173300  0.46011300  0.75085800  1
  P  P3  1  0.95765900  0.54258800  0.24906200  1
  P  P4  1  0.24906200  0.95765900  0.54258800  1
  P  P5  1  0.54258800  0.24906200  0.95765900  1
  O  O0  1  0.68895300  0.87796200  0.50375300  1
  O  O1  1  0.87796200  0.50375200  0.68895300  1
  O  O2  1  0.50375200  0.68895300  0.87796200  1
  O  O3  1  0.26388900  0.91310000  0.05660500  1
  O  O4  1  0.61720200  0.80875600  0.00864900  1
  O  O5  1  0.43674300  0.58643900  0.23556300  1
  O  O6  1  0.91310000  0.05660500  0.26388900  1
  O  O7  1  0.58643900  0.23556300  0.43674300  1
  O  O8  1  0.00283900  0.37920400  0.18687300  1
  O  O9  1  0.23556300  0.43674300  0.58643900  1
  O  O10  1  0.94527100  0.73582500  0.08813600  1
  O  O11  1  0.18687300  0.00283900  0.37920400  1
  O  O12  1  0.80875600  0.00864900  0.61720200  1
  O  O13  1  0.05660500  0.26388900  0.91310000  1
  O  O14  1  0.76456100  0.55511700  0.41379200  1
  O  O15  1  0.00864900  0.61720200  0.80875600  1
  O  O16  1  0.41379200  0.76456100  0.55511700  1
  O  O17  1  0.08813600  0.94527100  0.73582500  1
  O  O18  1  0.55511700  0.41379200  0.76456100  1
  O  O19  1  0.37920400  0.18687300  0.00283900  1
  O  O20  1  0.73582500  0.08813600  0.94527100  1
  O  O21  1  0.49459400  0.31484200  0.11888400  1
  O  O22  1  0.11888400  0.49459400  0.31484200  1
  O  O23  1  0.31484200  0.11888400  0.49459400  1
loop_
_geom_bond_atom_site_label_1
_geom_bond_atom_site_label_2
_geom_bond_distance
_geom_bond_site_symmetry_2
Cr0 O15 1.962004 1_655
Cr0 O4 1.962004 1_556
Cr0 O12 1.962004 1_565
Cr0 O20 2.033719 1_565
Cr0 O17 2.033719 1_655
Cr0 O10 2.033719 1_556
Co0 O20 2.218637 1_565
Co0 O10 2.218637 1_556
Co0 O17 2.218637 1_655
Co0 O3 2.232965 1_656
Co0 O13 2.232965 1_665
Co0 O6 2.232965 1_566
Co1 O16 2.242304 1_555
Co1 O14 2.242304 1_555
Co1 O18 2.242304 1_555
Co1 O7 2.256197 1_555
Co1 O9 2.256197 1_555
Co1 O5 2.256197 1_555
O0 P1 1.553759 1_565
O0 Ti2 1.895375 1_555
O1 P2 1.553762 1_655
O1 Ti2 1.895375 1_555
O2 P0 1.553763 1_556
O2 Ti2 1.895375 1_555
O3 P0 1.562389 1_555
O3 Ti1 2.030357 1_565
O4 P0 1.511373 1_555
O5 P0 1.559803 1_555
O5 Ti0 2.002249 1_555
O6 P1 1.562389 1_555
O6 Ti1 2.030357 1_655
O7 P1 1.559803 1_555
O7 Ti0 2.002249 1_555
O8 P3 1.547358 1_455
O8 Ti1 1.907000 1_555
O9 P2 1.559803 1_555
O9 Ti0 2.002249 1_555
O10 P3 1.542850 1_555
O11 P4 1.547358 1_545
O11 Ti1 1.907000 1_555
O12 P1 1.511373 1_555
O13 P2 1.562389 1_555
O13 Ti1 2.030357 1_556
O14 P3 1.555463 1_555
O14 Ti2 2.044413 1_555
O15 P2 1.511373 1_555
O16 P4 1.555463 1_555
O16 Ti2 2.044413 1_555
O17 P4 1.542850 1_555
O18 P5 1.555463 1_555
O18 Ti2 2.044413 1_555
O19 P5 1.547358 1_554
O19 Ti1 1.907000 1_555
O20 P5 1.542850 1_555
O21 P5 1.541793 1_554
O21 Ti0 1.907957 1_555
O22 P3 1.541793 1_455
O22 Ti0 1.907957 1_555
O23 P4 1.541793 1_545
O23 Ti0 1.907957 1_555
