# generated using pymatgen
data_Mn19Fe17O48
_symmetry_space_group_name_H-M   'P 1'
_cell_length_a   6.14860556
_cell_length_b   6.14860556
_cell_length_c   30.07716380
_cell_angle_alpha   89.83462017
_cell_angle_beta   89.83462017
_cell_angle_gamma   59.84395885
_symmetry_Int_Tables_number   1
_chemical_formula_structural   Mn19Fe17O48
_chemical_formula_sum   'Mn19 Fe17 O48'
_cell_volume   983.18070689
_cell_formula_units_Z   1
loop_
 _symmetry_equiv_pos_site_id
 _symmetry_equiv_pos_as_xyz
  1  'x, y, z'
loop_
 _atom_site_type_symbol
 _atom_site_label
 _atom_site_symmetry_multiplicity
 _atom_site_fract_x
 _atom_site_fract_y
 _atom_site_fract_z
 _atom_site_occupancy
  Mn  Mn0  1  0.83399400  0.83399400  0.22757600  1
  Mn  Mn1  1  0.66884600  0.66884600  0.33280600  1
  Mn  Mn2  1  0.49919200  0.49919200  0.24915700  1
  Mn  Mn3  1  0.50088200  0.50088200  0.43697700  1
  Mn  Mn4  1  0.16551000  0.16551000  0.39582800  1
  Mn  Mn5  1  0.83360600  0.83360600  0.41678100  1
  Mn  Mn6  1  0.83449000  0.83449000  0.60417200  1
  Mn  Mn7  1  0.33115400  0.33115400  0.66719400  1
  Mn  Mn8  1  0.49911800  0.49911800  0.56302300  1
  Mn  Mn9  1  0.16600600  0.16600600  0.77242400  1
  Mn  Mn10  1  0.16639400  0.16639400  0.58321900  1
  Mn  Mn11  1  0.66660700  0.66660700  0.83394900  1
  Mn  Mn12  1  0.49884900  0.49884900  0.93841900  1
  Mn  Mn13  1  0.50080800  0.50080800  0.75084300  1
  Mn  Mn14  1  0.50115100  0.50115100  0.06158100  1
  Mn  Mn15  1  0.00000000  0.00000000  0.00000000  1
  Mn  Mn16  1  0.16732600  0.16732600  0.89428800  1
  Mn  Mn17  1  0.83267400  0.83267400  0.10571200  1
  Mn  Mn18  1  0.33339300  0.33339300  0.16605100  1
  Fe  Fe0  1  0.16428700  0.16428700  0.27184400  1
  Fe  Fe1  1  0.66530600  0.16368800  0.33355000  1
  Fe  Fe2  1  0.00000000  0.00000000  0.50000000  1
  Fe  Fe3  1  0.16368800  0.66530600  0.33355000  1
  Fe  Fe4  1  0.00000000  0.50000000  0.50000000  1
  Fe  Fe5  1  0.50000000  0.00000000  0.50000000  1
  Fe  Fe6  1  0.33469400  0.83631200  0.66645000  1
  Fe  Fe7  1  0.83631200  0.33469400  0.66645000  1
  Fe  Fe8  1  0.66575700  0.17038500  0.83326300  1
  Fe  Fe9  1  0.17038500  0.66575700  0.83326300  1
  Fe  Fe10  1  0.83328000  0.83328000  0.91651100  1
  Fe  Fe11  1  0.00000000  0.50000000  0.00000000  1
  Fe  Fe12  1  0.83571300  0.83571300  0.72815600  1
  Fe  Fe13  1  0.50000000  0.00000000  0.00000000  1
  Fe  Fe14  1  0.16672000  0.16672000  0.08348900  1
  Fe  Fe15  1  0.33424300  0.82961500  0.16673700  1
  Fe  Fe16  1  0.82961500  0.33424300  0.16673700  1
  O  O0  1  0.82585400  0.32230000  0.29445400  1
  O  O1  1  0.50306500  0.50306500  0.36653400  1
  O  O2  1  0.32230000  0.82585400  0.29445400  1
  O  O3  1  0.33864900  0.33864900  0.29412700  1
  O  O4  1  0.13915500  0.67980700  0.46282300  1
  O  O5  1  0.97691600  0.97691600  0.37518100  1
  O  O6  1  0.83184300  0.83184300  0.29776600  1
  O  O7  1  0.99719000  0.52898700  0.37263300  1
  O  O8  1  0.83141500  0.83141500  0.53494300  1
  O  O9  1  0.67980700  0.13915500  0.46282300  1
  O  O10  1  0.68872500  0.68872500  0.45801600  1
  O  O11  1  0.52898700  0.99719000  0.37263300  1
  O  O12  1  0.47101300  0.00281000  0.62736700  1
  O  O13  1  0.31127500  0.31127500  0.54198400  1
  O  O14  1  0.32019300  0.86084500  0.53717700  1
  O  O15  1  0.16858500  0.16858500  0.46505700  1
  O  O16  1  0.00281000  0.47101300  0.62736700  1
  O  O17  1  0.16815700  0.16815700  0.70223400  1
  O  O18  1  0.86084500  0.32019300  0.53717700  1
  O  O19  1  0.02308400  0.02308400  0.62481900  1
  O  O20  1  0.80699900  0.35546200  0.79824500  1
  O  O21  1  0.66135100  0.66135100  0.70587300  1
  O  O22  1  0.67770000  0.17414600  0.70554600  1
  O  O23  1  0.49693500  0.49693500  0.63346600  1
  O  O24  1  0.35546200  0.80699900  0.79824500  1
  O  O25  1  0.48572800  0.48572800  0.87025700  1
  O  O26  1  0.34815900  0.34815900  0.79524500  1
  O  O27  1  0.17414600  0.67770000  0.70554600  1
  O  O28  1  0.12856800  0.69338700  0.96167900  1
  O  O29  1  0.97979600  0.97979600  0.87292800  1
  O  O30  1  0.84688200  0.84688200  0.79224700  1
  O  O31  1  0.97411700  0.54062500  0.87130500  1
  O  O32  1  0.81887000  0.81887000  0.03694900  1
  O  O33  1  0.69338700  0.12856800  0.96167900  1
  O  O34  1  0.68532800  0.68532800  0.95963900  1
  O  O35  1  0.54062500  0.97411700  0.87130500  1
  O  O36  1  0.45937500  0.02588300  0.12869500  1
  O  O37  1  0.31467200  0.31467200  0.04036100  1
  O  O38  1  0.18113000  0.18113000  0.96305100  1
  O  O39  1  0.15311800  0.15311800  0.20775300  1
  O  O40  1  0.30661300  0.87143200  0.03832100  1
  O  O41  1  0.02588300  0.45937500  0.12869500  1
  O  O42  1  0.02020400  0.02020400  0.12707200  1
  O  O43  1  0.87143200  0.30661300  0.03832100  1
  O  O44  1  0.65184100  0.65184100  0.20475500  1
  O  O45  1  0.64453800  0.19300100  0.20175500  1
  O  O46  1  0.51427200  0.51427200  0.12974300  1
  O  O47  1  0.19300100  0.64453800  0.20175500  1
loop_
_geom_bond_atom_site_label_1
_geom_bond_atom_site_label_2
_geom_bond_distance
_geom_bond_site_symmetry_2
Mn0 O45 2.060226 1_565
Mn0 O47 2.060226 1_655
Mn0 O44 2.061318 1_555
Mn0 O6 2.111164 1_555
Mn1 O6 2.028914 1_555
Mn1 O1 2.034479 1_555
Mn1 O7 2.124604 1_555
Mn1 O11 2.124604 1_555
Mn1 O2 2.178032 1_555
Mn1 O0 2.178032 1_555
Mn2 O44 2.101426 1_555
Mn2 O45 2.166431 1_555
Mn2 O47 2.166431 1_555
Mn2 O3 2.177571 1_555
Mn2 O0 2.210350 1_555
Mn2 O2 2.210350 1_555
Mn3 O4 2.073137 1_555
Mn3 O9 2.073137 1_555
Mn3 O10 2.101675 1_555
Mn3 O1 2.118776 1_555
Mn4 O7 2.055184 1_455
Mn4 O11 2.055184 1_545
Mn4 O15 2.082579 1_555
Mn4 O5 2.105765 1_445
Mn5 O5 1.971235 1_555
Mn5 O10 1.977326 1_555
Mn5 O11 2.096854 1_555
Mn5 O7 2.096854 1_555
Mn5 O4 2.136344 1_655
Mn5 O9 2.136344 1_565
Mn6 O12 2.055184 1_565
Mn6 O16 2.055184 1_655
Mn6 O8 2.082579 1_555
Mn6 O19 2.105765 1_665
Mn7 O17 2.028914 1_555
Mn7 O23 2.034479 1_555
Mn7 O16 2.124604 1_555
Mn7 O12 2.124604 1_555
Mn7 O22 2.178032 1_555
Mn7 O27 2.178032 1_555
Mn8 O18 2.073137 1_555
Mn8 O14 2.073137 1_555
Mn8 O13 2.101675 1_555
Mn8 O23 2.118776 1_555
Mn9 O24 2.060226 1_545
Mn9 O20 2.060226 1_455
Mn9 O26 2.061318 1_555
Mn9 O17 2.111164 1_555
Mn10 O19 1.971235 1_555
Mn10 O13 1.977326 1_555
Mn10 O16 2.096854 1_555
Mn10 O12 2.096854 1_555
Mn10 O18 2.136344 1_455
Mn10 O14 2.136344 1_545
Mn11 O20 1.976267 1_555
Mn11 O24 1.976267 1_555
Mn11 O31 1.993267 1_555
Mn11 O35 1.993267 1_555
Mn11 O25 2.212469 1_555
Mn11 O30 2.291041 1_555
Mn12 O25 2.055348 1_555
Mn12 O33 2.088812 1_555
Mn12 O28 2.088812 1_555
Mn12 O34 2.089490 1_555
Mn13 O26 2.101426 1_555
Mn13 O20 2.166431 1_555
Mn13 O24 2.166431 1_555
Mn13 O21 2.177571 1_555
Mn13 O22 2.210350 1_555
Mn13 O27 2.210350 1_555
Mn14 O46 2.055348 1_555
Mn14 O40 2.088812 1_555
Mn14 O43 2.088812 1_555
Mn14 O37 2.089490 1_555
Mn15 O40 2.004360 1_545
Mn15 O43 2.004360 1_455
Mn15 O28 2.004360 1_544
Mn15 O33 2.004360 1_454
Mn15 O32 2.224310 1_445
Mn15 O38 2.224310 1_554
Mn16 O38 2.073911 1_555
Mn16 O31 2.100808 1_455
Mn16 O35 2.100808 1_545
Mn16 O29 2.101456 1_445
Mn17 O32 2.073911 1_555
Mn17 O36 2.100808 1_565
Mn17 O41 2.100808 1_655
Mn17 O42 2.101456 1_665
Mn18 O45 1.976267 1_555
Mn18 O47 1.976267 1_555
Mn18 O36 1.993267 1_555
Mn18 O41 1.993267 1_555
Mn18 O46 2.212469 1_555
Mn18 O39 2.291041 1_555
Fe0 O2 1.923773 1_545
Fe0 O0 1.923773 1_455
Fe0 O39 1.931743 1_555
Fe0 O3 1.977620 1_555
Fe1 O11 1.995455 1_545
Fe1 O1 2.061174 1_555
Fe1 O0 2.064513 1_555
Fe1 O6 2.068149 1_545
Fe1 O5 2.086262 1_545
Fe1 O3 2.105418 1_555
Fe2 O4 2.042817 1_545
Fe2 O9 2.042817 1_455
Fe2 O14 2.042817 1_545
Fe2 O18 2.042817 1_455
Fe2 O8 2.078568 1_445
Fe2 O15 2.078568 1_555
Fe3 O7 1.995455 1_455
Fe3 O1 2.061174 1_555
Fe3 O2 2.064513 1_555
Fe3 O6 2.068149 1_455
Fe3 O5 2.086262 1_455
Fe3 O3 2.105418 1_555
Fe4 O4 2.035286 1_555
Fe4 O18 2.035286 1_455
Fe4 O8 2.053118 1_455
Fe4 O15 2.053118 1_555
Fe4 O13 2.092428 1_555
Fe4 O10 2.092428 1_455
Fe5 O9 2.035286 1_555
Fe5 O14 2.035286 1_545
Fe5 O8 2.053118 1_545
Fe5 O15 2.053118 1_555
Fe5 O13 2.092428 1_555
Fe5 O10 2.092428 1_545
Fe6 O12 1.995455 1_565
Fe6 O23 2.061174 1_555
Fe6 O27 2.064513 1_555
Fe6 O17 2.068149 1_565
Fe6 O19 2.086262 1_565
Fe6 O21 2.105418 1_555
Fe7 O16 1.995455 1_655
Fe7 O23 2.061174 1_555
Fe7 O22 2.064513 1_555
Fe7 O17 2.068149 1_655
Fe7 O19 2.086262 1_655
Fe7 O21 2.105418 1_555
Fe8 O25 2.017852 1_555
Fe8 O20 2.034500 1_555
Fe8 O26 2.043718 1_555
Fe8 O29 2.063184 1_545
Fe8 O35 2.068150 1_545
Fe8 O30 2.121139 1_545
Fe9 O25 2.017852 1_555
Fe9 O24 2.034500 1_555
Fe9 O26 2.043718 1_555
Fe9 O29 2.063184 1_455
Fe9 O31 2.068150 1_455
Fe9 O30 2.121139 1_455
Fe10 O29 2.035491 1_555
Fe10 O34 2.038523 1_555
Fe10 O31 2.068394 1_555
Fe10 O35 2.068394 1_555
Fe10 O33 2.078539 1_565
Fe10 O28 2.078539 1_655
Fe11 O38 2.032474 1_554
Fe11 O32 2.032474 1_455
Fe11 O43 2.073273 1_455
Fe11 O28 2.073273 1_554
Fe11 O34 2.075099 1_454
Fe11 O37 2.075099 1_555
Fe12 O27 1.923773 1_655
Fe12 O22 1.923773 1_565
Fe12 O30 1.931743 1_555
Fe12 O21 1.977620 1_555
Fe13 O38 2.032474 1_554
Fe13 O32 2.032474 1_545
Fe13 O40 2.073273 1_545
Fe13 O33 2.073273 1_554
Fe13 O34 2.075099 1_544
Fe13 O37 2.075099 1_555
Fe14 O42 2.035491 1_555
Fe14 O37 2.038523 1_555
Fe14 O36 2.068394 1_555
Fe14 O41 2.068394 1_555
Fe14 O40 2.078539 1_545
Fe14 O43 2.078539 1_455
Fe15 O46 2.017852 1_555
Fe15 O47 2.034500 1_555
Fe15 O44 2.043718 1_555
Fe15 O42 2.063184 1_565
Fe15 O36 2.068150 1_565
Fe15 O39 2.121139 1_565
Fe16 O46 2.017852 1_555
Fe16 O45 2.034500 1_555
Fe16 O44 2.043718 1_555
Fe16 O42 2.063184 1_655
Fe16 O41 2.068150 1_655
Fe16 O39 2.121139 1_655
