# generated using pymatgen
data_Th2TeN2
_symmetry_space_group_name_H-M   'P 1'
_cell_length_a   4.10575568
_cell_length_b   4.10575569
_cell_length_c   7.19942532
_cell_angle_alpha   106.56750760
_cell_angle_beta   106.56750675
_cell_angle_gamma   90.00001295
_symmetry_Int_Tables_number   1
_chemical_formula_structural   Th2TeN2
_chemical_formula_sum   'Th2 Te1 N2'
_cell_volume   111.05716211
_cell_formula_units_Z   1
loop_
 _symmetry_equiv_pos_site_id
 _symmetry_equiv_pos_as_xyz
  1  'x, y, z'
loop_
 _atom_site_type_symbol
 _atom_site_label
 _atom_site_symmetry_multiplicity
 _atom_site_fract_x
 _atom_site_fract_y
 _atom_site_fract_z
 _atom_site_occupancy
  Th  Th0  1  0.33649179  0.33649179  0.67298258  1
  Th  Th1  1  0.66350821  0.66350821  0.32701742  1
  Te  Te0  1  -0.00000000  -0.00000000  -0.00000000  1
  N  N0  1  0.75000000  0.25000000  0.50000000  1
  N  N1  1  0.25000000  0.75000000  0.50000000  1
loop_
_geom_bond_atom_site_label_1
_geom_bond_atom_site_label_2
_geom_bond_distance
_geom_bond_site_symmetry_2
Te0 Th1 3.615264 1_555
Te0 Th0 3.615264 1_444
Te0 Th1 3.615268 1_455
Te0 Th0 3.615268 1_544
Te0 Th1 3.615268 1_545
Te0 Th0 3.615268 1_454
Te0 Th1 3.615270 1_445
Te0 Th0 3.615270 1_554
N0 Th0 2.347988 1_555
N0 Th1 2.347988 1_555
N0 Th1 2.347992 1_545
N0 Th0 2.347992 1_655
N1 Th1 2.347988 1_555
N1 Th0 2.347988 1_555
N1 Th0 2.347992 1_565
N1 Th1 2.347992 1_455
