# generated using pymatgen
data_LiFe2(BO3)2
_symmetry_space_group_name_H-M   'P 1'
_cell_length_a   5.24445000
_cell_length_b   9.08336185
_cell_length_c   10.17436491
_cell_angle_alpha   89.48007039
_cell_angle_beta   88.81761778
_cell_angle_gamma   89.65272346
_symmetry_Int_Tables_number   1
_chemical_formula_structural   LiFe2(BO3)2
_chemical_formula_sum   'Li4 Fe8 B8 O24'
_cell_volume   484.54711844
_cell_formula_units_Z   4
loop_
 _symmetry_equiv_pos_site_id
 _symmetry_equiv_pos_as_xyz
  1  'x, y, z'
loop_
 _atom_site_type_symbol
 _atom_site_label
 _atom_site_symmetry_multiplicity
 _atom_site_fract_x
 _atom_site_fract_y
 _atom_site_fract_z
 _atom_site_occupancy
  Li  Li0  1  0.14998000  0.17735900  0.66680100  1
  Li  Li1  1  0.19036100  0.16474000  0.16029000  1
  Li  Li2  1  0.32972100  0.33251300  0.40218200  1
  Li  Li3  1  0.68479300  0.66392800  0.15335500  1
  Fe  Fe0  1  0.16504600  0.83347400  0.63398300  1
  Fe  Fe1  1  0.18810700  0.49329900  0.12345000  1
  Fe  Fe2  1  0.32501000  0.99330300  0.87826600  1
  Fe  Fe3  1  0.32233200  0.66831400  0.37836900  1
  Fe  Fe4  1  0.65327400  0.34629100  0.63471000  1
  Fe  Fe5  1  0.67602700  0.00240200  0.12425700  1
  Fe  Fe6  1  0.83277800  0.15102300  0.38731800  1
  Fe  Fe7  1  0.82868100  0.49889000  0.87702700  1
  B  B0  1  0.15283100  0.50014000  0.62174000  1
  B  B1  1  0.16856100  0.83561100  0.13383400  1
  B  B2  1  0.34280900  0.99811500  0.37379300  1
  B  B3  1  0.33046300  0.66130600  0.87642100  1
  B  B4  1  0.67157900  0.00294100  0.63067500  1
  B  B5  1  0.67869300  0.32774700  0.12936600  1
  B  B6  1  0.82189300  0.49409900  0.37309800  1
  B  B7  1  0.82679200  0.16972200  0.88014200  1
  O  O0  1  0.08703400  0.50025200  0.34569900  1
  O  O1  1  0.08036800  0.15427200  0.85547100  1
  O  O2  1  0.21988000  0.78686700  0.82183800  1
  O  O3  1  0.23746700  0.87025600  0.42829100  1
  O  O4  1  0.20800100  0.12854400  0.36974300  1
  O  O5  1  0.17294400  0.54972100  0.92415500  1
  O  O6  1  0.27972400  0.36830300  0.60329200  1
  O  O7  1  0.30498800  0.96086000  0.09397800  1
  O  O8  1  0.26230400  0.63166800  0.57407700  1
  O  O9  1  0.30266600  0.71128900  0.17750000  1
  O  O10  1  0.41923300  0.32319500  0.14507800  1
  O  O11  1  0.40573000  0.00361400  0.65736100  1
  O  O12  1  0.58767800  0.99481300  0.31911700  1
  O  O13  1  0.58673900  0.65079800  0.89168200  1
  O  O14  1  0.70185700  0.30147900  0.84644800  1
  O  O15  1  0.71341100  0.36478400  0.41927100  1
  O  O16  1  0.67101500  0.61497500  0.34820200  1
  O  O17  1  0.68155300  0.05549900  0.93601600  1
  O  O18  1  0.80249700  0.45661000  0.08888600  1
  O  O19  1  0.81515400  0.87808200  0.63692800  1
  O  O20  1  0.78798100  0.13601500  0.59531900  1
  O  O21  1  0.82511900  0.20121000  0.15979300  1
  O  O22  1  0.90816400  0.83685300  0.12976100  1
  O  O23  1  0.91470400  0.50571600  0.68189600  1
loop_
_geom_bond_atom_site_label_1
_geom_bond_atom_site_label_2
_geom_bond_distance
_geom_bond_site_symmetry_2
Li0 O1 1.956224 1_555
Li0 O6 1.965841 1_555
Li0 O11 2.066562 1_555
Li0 O20 2.084419 1_455
Li1 O10 1.882956 1_555
Li1 O21 1.942050 1_455
Li1 O7 2.058791 1_545
Li1 O4 2.157101 1_555
Li2 O4 1.995781 1_555
Li2 O15 2.046409 1_555
Li2 O0 2.064563 1_555
Li2 O6 2.085697 1_555
Li3 O22 1.975100 1_555
Li3 O16 2.027685 1_555
Li3 O9 2.057369 1_555
Li3 O18 2.085460 1_555
Fe0 O19 1.876488 1_455
Fe0 O2 1.980286 1_555
Fe0 O8 1.996984 1_555
Fe0 O11 2.020141 1_565
Fe0 O3 2.142820 1_555
Fe1 O10 1.971597 1_555
Fe1 O18 2.089049 1_455
Fe1 O5 2.089940 1_554
Fe1 O9 2.152189 1_555
Fe1 O0 2.313202 1_555
Fe2 O1 1.954776 1_565
Fe2 O2 2.048135 1_555
Fe2 O17 2.055480 1_565
Fe2 O7 2.212204 1_556
Fe2 O11 2.279679 1_565
Fe3 O16 1.908324 1_555
Fe3 O3 1.954088 1_555
Fe3 O0 2.003159 1_555
Fe3 O8 2.034251 1_555
Fe3 O9 2.081710 1_555
Fe4 O6 2.000007 1_555
Fe4 O23 2.066680 1_555
Fe4 O20 2.072128 1_555
Fe4 O14 2.208414 1_555
Fe4 O15 2.213093 1_555
Fe5 O22 1.930183 1_545
Fe5 O17 1.970452 1_554
Fe5 O21 2.010922 1_555
Fe5 O7 2.014833 1_545
Fe5 O12 2.027324 1_545
Fe6 O4 1.981748 1_655
Fe6 O12 2.055211 1_545
Fe6 O15 2.063004 1_555
Fe6 O20 2.127685 1_555
Fe6 O21 2.356429 1_555
Fe7 O13 1.873731 1_555
Fe7 O5 1.937182 1_655
Fe7 O14 1.946205 1_555
Fe7 O23 2.027330 1_555
Fe7 O18 2.187706 1_556
B0 O6 1.378922 1_555
B0 O23 1.380230 1_455
B0 O8 1.406572 1_555
B1 O22 1.367097 1_455
B1 O7 1.400070 1_555
B1 O9 1.400505 1_555
B2 O4 1.376697 1_565
B2 O12 1.389206 1_555
B2 O3 1.394610 1_555
B3 O13 1.358829 1_555
B3 O5 1.389348 1_555
B3 O2 1.392589 1_555
B4 O19 1.359265 1_545
B4 O20 1.398270 1_555
B4 O11 1.414900 1_555
B5 O10 1.367634 1_555
B5 O18 1.396680 1_555
B5 O21 1.413957 1_555
B6 O16 1.374221 1_555
B6 O15 1.382443 1_555
B6 O0 1.413874 1_655
B7 O1 1.354934 1_655
B7 O17 1.400296 1_555
B7 O14 1.404090 1_555
