# generated using pymatgen
data_Sr2Re4H16C3(N2O7)3
_symmetry_space_group_name_H-M   'P 1'
_cell_length_a   20.09150629
_cell_length_b   17.91697195
_cell_length_c   10.64843733
_cell_angle_alpha   85.37943249
_cell_angle_beta   62.73162467
_cell_angle_gamma   31.88894285
_symmetry_Int_Tables_number   1
_chemical_formula_structural   Sr2Re4H16C3(N2O7)3
_chemical_formula_sum   'Sr4 Re8 H32 C6 N12 O42'
_cell_volume   1357.14017800
_cell_formula_units_Z   2
loop_
 _symmetry_equiv_pos_site_id
 _symmetry_equiv_pos_as_xyz
  1  'x, y, z'
loop_
 _atom_site_type_symbol
 _atom_site_label
 _atom_site_symmetry_multiplicity
 _atom_site_fract_x
 _atom_site_fract_y
 _atom_site_fract_z
 _atom_site_occupancy
  Sr  Sr0  1  0.73470500  0.25750600  0.46836100  1
  Sr  Sr1  1  0.78163900  0.71057200  0.51529500  1
  Sr  Sr2  1  0.99249400  0.51529500  0.71057200  1
  Sr  Sr3  1  0.53942800  0.46836100  0.25750600  1
  Re  Re0  1  0.52112800  0.79309600  0.50156700  1
  Re  Re1  1  0.16251300  0.29010600  0.97274200  1
  Re  Re2  1  0.27725800  0.67536000  0.08748700  1
  Re  Re3  1  0.74843300  0.06579100  0.72887200  1
  Re  Re4  1  0.45690400  0.72887200  0.06579100  1
  Re  Re5  1  0.95989400  0.08748700  0.67536000  1
  Re  Re6  1  0.57464000  0.97274200  0.29010600  1
  Re  Re7  1  0.18420900  0.50156700  0.79309600  1
  H  H0  1  0.09891600  0.96605100  0.91619700  1
  H  H1  1  0.32066700  0.79512700  0.70017700  1
  H  H2  1  0.77566300  0.96148000  0.29254900  1
  H  H3  1  0.11740600  0.12163300  0.03837800  1
  H  H4  1  0.66261100  0.49625800  0.50768400  1
  H  H5  1  0.77584800  0.03271400  0.39597600  1
  H  H6  1  0.59468400  0.03702900  0.59427100  1
  H  H7  1  0.08094300  0.06604500  0.14112200  1
  H  H8  1  0.10887800  0.53811000  0.16905700  1
  H  H9  1  0.65572900  0.47598400  0.65531600  1
  H  H10  1  0.85402400  0.45453800  0.47415200  1
  H  H11  1  0.74231600  0.91655300  0.58738900  1
  H  H12  1  0.21162200  0.52741700  0.13259400  1
  H  H13  1  0.95745100  0.27969200  0.47433700  1
  H  H14  1  0.54982300  0.06597000  0.92933300  1
  H  H15  1  0.33380300  0.23116500  0.15108400  1
  H  H16  1  0.28394900  0.15108400  0.23116500  1
  H  H17  1  0.45487300  0.92933300  0.06597000  1
  H  H18  1  0.28852000  0.47433700  0.27969200  1
  H  H19  1  0.12836700  0.13259400  0.52741700  1
  H  H20  1  0.75374200  0.58738900  0.91655300  1
  H  H21  1  0.21728600  0.47415200  0.45453800  1
  H  H22  1  0.21297100  0.65531600  0.47598400  1
  H  H23  1  0.18395500  0.16905700  0.53811000  1
  H  H24  1  0.71189000  0.14112200  0.06604500  1
  H  H25  1  0.77401600  0.59427100  0.03702900  1
  H  H26  1  0.79546200  0.39597600  0.03271400  1
  H  H27  1  0.33344700  0.50768400  0.49625800  1
  H  H28  1  0.72258300  0.03837800  0.12163300  1
  H  H29  1  0.97030800  0.29254900  0.96148000  1
  H  H30  1  0.18403000  0.70017700  0.79512700  1
  H  H31  1  0.01883500  0.91619700  0.96605100  1
  C  C0  1  0.92191200  0.23617400  0.10042500  1
  C  C1  1  0.14957500  0.50851200  0.32808800  1
  C  C2  1  0.52660500  0.97339500  0.97339500  1
  C  C3  1  0.01382600  0.32808800  0.50851200  1
  C  C4  1  0.74148800  0.10042500  0.23617400  1
  C  C5  1  0.27660500  0.72339500  0.72339500  1
  N  N0  1  0.22678200  0.83868900  0.78458400  1
  N  N1  1  0.76354700  0.02770500  0.31622000  1
  N  N2  1  0.05934800  0.12297900  0.08148600  1
  N  N3  1  0.16851400  0.51381300  0.19065200  1
  N  N4  1  0.93378000  0.35747200  0.48645300  1
  N  N5  1  0.46541600  0.10005600  0.02321800  1
  N  N6  1  0.41131100  0.02321800  0.10005600  1
  N  N7  1  0.22229500  0.48645300  0.35747200  1
  N  N8  1  0.12702100  0.19065200  0.51381300  1
  N  N9  1  0.73618700  0.08148600  0.12297900  1
  N  N10  1  0.89252800  0.31622000  0.02770500  1
  N  N11  1  0.14994400  0.78458400  0.83868900  1
  O  O0  1  0.82887200  0.25998300  0.17804600  1
  O  O1  1  0.99199000  0.67903400  0.03607100  1
  O  O2  1  0.51397400  0.70114400  0.52135700  1
  O  O3  1  0.64657900  0.86821000  0.38571400  1
  O  O4  1  0.36007500  0.28636100  0.74012500  1
  O  O5  1  0.06573900  0.28960000  0.07236800  1
  O  O6  1  0.65874600  0.69865300  0.52286500  1
  O  O7  1  0.40710800  0.06008600  0.80399300  1
  O  O8  1  0.07192600  0.42992500  0.15374800  1
  O  O9  1  0.72165500  0.40679000  0.52757600  1
  O  O10  1  0.72242400  0.90602100  0.52834500  1
  O  O11  1  0.09625200  0.90559900  0.17807400  1
  O  O12  1  0.44600700  0.52118700  0.84289200  1
  O  O13  1  0.72713500  0.13026400  0.59125400  1
  O  O14  1  0.17763200  0.67770700  0.18426100  1
  O  O15  1  0.50987500  0.63656100  0.88992500  1
  O  O16  1  0.86428600  0.15050300  0.60342100  1
  O  O17  1  0.72864300  0.98647500  0.73602600  1
  O  O18  1  0.21392900  0.95709400  0.25801000  1
  O  O19  1  0.07195400  0.51690100  0.42112800  1
  O  O20  1  0.69015100  0.80984900  0.80984900  1
  O  O21  1  0.99001700  0.42112800  0.51690100  1
  O  O22  1  0.57096600  0.25801000  0.95709400  1
  O  O23  1  0.54885600  0.73602600  0.98647500  1
  O  O24  1  0.38179000  0.60342100  0.15050300  1
  O  O25  1  0.96363900  0.88992500  0.63656100  1
  O  O26  1  0.96040000  0.18426100  0.67770700  1
  O  O27  1  0.55134700  0.59125400  0.13026400  1
  O  O28  1  0.18991400  0.84289200  0.52118700  1
  O  O29  1  0.82007500  0.17807400  0.90559900  1
  O  O30  1  0.84321000  0.52834500  0.90602100  1
  O  O31  1  0.34397900  0.52757600  0.40679000  1
  O  O32  1  0.34440100  0.15374800  0.42992500  1
  O  O33  1  0.72881300  0.80399300  0.06008600  1
  O  O34  1  0.11973600  0.52286500  0.69865300  1
  O  O35  1  0.57229300  0.07236800  0.28960000  1
  O  O36  1  0.61343900  0.74012500  0.28636100  1
  O  O37  1  0.09949700  0.38571400  0.86821000  1
  O  O38  1  0.26352500  0.52135700  0.70114400  1
  O  O39  1  0.29290600  0.03607100  0.67903400  1
  O  O40  1  0.73309900  0.17804600  0.25998300  1
  O  O41  1  0.44015100  0.55984900  0.55984900  1
loop_
_geom_bond_atom_site_label_1
_geom_bond_atom_site_label_2
_geom_bond_distance
_geom_bond_site_symmetry_2
H0 N0 1.015991 1_555
H1 N0 1.017113 1_555
H2 N1 1.015955 1_565
H3 N2 1.017508 1_555
H4 O9 0.983903 1_555
H5 N1 1.016210 1_555
H6 O10 0.986844 1_545
H7 N2 1.014200 1_555
H8 N3 1.014200 1_555
H9 O9 0.986844 1_555
H10 N4 1.016210 1_555
H11 O10 0.983903 1_555
H12 N3 1.017508 1_555
H13 N4 1.015955 1_555
H14 N5 1.017087 1_556
H15 N5 1.015991 1_555
H16 N6 1.015991 1_555
H17 N6 1.017115 1_565
H18 N7 1.015955 1_555
H19 N8 1.017508 1_555
H20 O30 0.983903 1_555
H21 N7 1.016210 1_555
H22 O31 0.986844 1_555
H23 N8 1.014200 1_555
H24 N9 1.014200 1_555
H25 O30 0.986844 1_554
H26 N10 1.016210 1_555
H27 O31 0.983903 1_555
H28 N9 1.017508 1_555
H29 N10 1.015955 1_556
H30 N11 1.017081 1_555
H31 N11 1.015991 1_555
C0 O0 1.283112 1_555
C0 N10 1.344319 1_555
C0 N2 1.350665 1_655
C1 O19 1.283127 1_555
C1 N7 1.344308 1_555
C1 N3 1.350661 1_555
C2 O20 1.282319 1_555
C2 N6 1.342204 1_566
C2 N5 1.342219 1_566
C3 O21 1.283112 1_455
C3 N4 1.344327 1_455
C3 N8 1.350658 1_555
C4 O40 1.283130 1_555
C4 N1 1.344315 1_555
C4 N9 1.350651 1_555
C5 O41 1.282319 1_555
C5 N0 1.342202 1_555
C5 N11 1.342217 1_555
O0 Sr3 2.757536 1_555
O0 Sr0 2.810579 1_555
O1 Re7 1.742376 1_654
O2 Re0 1.760047 1_555
O3 Re6 1.754290 1_555
O3 Sr1 2.651928 1_555
O4 Re7 1.748938 1_555
O5 Re1 1.744784 1_554
O6 Re0 1.768448 1_555
O6 Sr1 2.618939 1_555
O7 Re1 1.752931 1_555
O7 Sr1 2.678348 1_545
O8 Re1 1.767522 1_554
O8 Sr1 2.620043 1_455
O9 Sr0 2.559253 1_555
O10 Sr1 2.559253 1_555
O11 Re2 1.767534 1_555
O11 Sr0 2.620043 1_465
O12 Re2 1.752930 1_556
O12 Sr0 2.678348 1_555
O13 Re3 1.768448 1_555
O13 Sr0 2.618939 1_555
O14 Re2 1.744768 1_555
O15 Re4 1.748938 1_556
O16 Re5 1.754284 1_555
O16 Sr0 2.651928 1_555
O17 Re3 1.760047 1_565
O18 Re4 1.742375 1_555
O19 Sr2 2.757536 1_455
O19 Sr1 2.810579 1_455
O20 Sr1 2.538560 1_555
O20 Sr2 2.538560 1_555
O21 Sr1 2.757536 1_555
O21 Sr2 2.810579 1_555
O22 Re3 1.742370 1_555
O23 Re4 1.760047 1_556
O24 Re2 1.754299 1_555
O24 Sr3 2.651928 1_555
O25 Re3 1.748938 1_565
O26 Re5 1.744785 1_555
O27 Re4 1.768448 1_555
O27 Sr3 2.618939 1_555
O28 Re5 1.752931 1_465
O28 Sr3 2.678348 1_555
O29 Re5 1.767530 1_555
O29 Sr3 2.620043 1_556
O30 Sr2 2.559253 1_555
O31 Sr3 2.559253 1_555
O32 Re6 1.767536 1_545
O32 Sr2 2.620043 1_455
O33 Re6 1.752938 1_555
O33 Sr2 2.678348 1_554
O34 Re7 1.768448 1_555
O34 Sr2 2.618939 1_455
O35 Re6 1.744767 1_545
O36 Re0 1.748938 1_555
O37 Re1 1.754293 1_555
O37 Sr2 2.651928 1_455
O38 Re7 1.760047 1_555
O39 Re0 1.742376 1_545
O40 Sr0 2.757536 1_555
O40 Sr3 2.810579 1_555
O41 Sr3 2.538560 1_555
O41 Sr0 2.538560 1_555
