# generated using pymatgen
data_Na2H6PtC4N4O3
_symmetry_space_group_name_H-M   'P 1'
_cell_length_a   7.37148100
_cell_length_b   9.11242626
_cell_length_c   15.50620316
_cell_angle_alpha   89.08727862
_cell_angle_beta   87.30040393
_cell_angle_gamma   84.93871255
_symmetry_Int_Tables_number   1
_chemical_formula_structural   Na2H6PtC4N4O3
_chemical_formula_sum   'Na8 H24 Pt4 C16 N16 O12'
_cell_volume   1036.29863533
_cell_formula_units_Z   4
loop_
 _symmetry_equiv_pos_site_id
 _symmetry_equiv_pos_as_xyz
  1  'x, y, z'
loop_
 _atom_site_type_symbol
 _atom_site_label
 _atom_site_symmetry_multiplicity
 _atom_site_fract_x
 _atom_site_fract_y
 _atom_site_fract_z
 _atom_site_occupancy
  Na  Na0  1  0.45700900  0.75501100  0.75482700  1
  Na  Na1  1  0.54299100  0.24498900  0.24517300  1
  Na  Na2  1  0.76062700  0.43345400  0.80775800  1
  Na  Na3  1  0.23937300  0.56654600  0.19224200  1
  Na  Na4  1  0.69304900  0.07206200  0.68837200  1
  Na  Na5  1  0.30695100  0.92793800  0.31162800  1
  Na  Na6  1  0.00000000  0.50000000  0.00000000  1
  Na  Na7  1  0.00000000  0.00000000  0.50000000  1
  H  H0  1  0.53610900  0.63652700  0.93107500  1
  H  H1  1  0.46389100  0.36347300  0.06892500  1
  H  H2  1  0.41617500  0.52316300  0.89806200  1
  H  H3  1  0.58382500  0.47683700  0.10193800  1
  H  H4  1  0.07050700  0.59990200  0.81566500  1
  H  H5  1  0.92949300  0.40009800  0.18433500  1
  H  H6  1  0.91575800  0.70955300  0.85282800  1
  H  H7  1  0.08424200  0.29044700  0.14717200  1
  H  H8  1  0.56854100  0.65006900  0.27286700  1
  H  H9  1  0.43145900  0.34993100  0.72713300  1
  H  H10  1  0.55684400  0.73620800  0.18896000  1
  H  H11  1  0.44315600  0.26379200  0.81104000  1
  H  H12  1  0.98398800  0.76260900  0.31255600  1
  H  H13  1  0.01601200  0.23739100  0.68744400  1
  H  H14  1  0.98563300  0.84211800  0.22516000  1
  H  H15  1  0.01436700  0.15788200  0.77484000  1
  H  H16  1  0.51417700  0.86414300  0.57713000  1
  H  H17  1  0.48582300  0.13585700  0.42287000  1
  H  H18  1  0.37392500  0.98514200  0.61419300  1
  H  H19  1  0.62607500  0.01485800  0.38580700  1
  H  H20  1  0.90635300  0.79390500  0.64948900  1
  H  H21  1  0.09364700  0.20609500  0.35051100  1
  H  H22  1  0.03591700  0.89638600  0.68820000  1
  H  H23  1  0.96408300  0.10361400  0.31180000  1
  Pt  Pt0  1  0.24628400  0.01221400  0.98717400  1
  Pt  Pt1  1  0.75371600  0.98778600  0.01282600  1
  Pt  Pt2  1  0.24790000  0.48707100  0.51685000  1
  Pt  Pt3  1  0.75210000  0.51292900  0.48315000  1
  C  C0  1  0.27293400  0.22069300  0.95279500  1
  C  C1  1  0.72706600  0.77930700  0.04720500  1
  C  C2  1  0.21860800  0.80558100  0.02462300  1
  C  C3  1  0.78139200  0.19441900  0.97537700  1
  C  C4  1  0.19844300  0.96383100  0.86589900  1
  C  C5  1  0.80155700  0.03616900  0.13410100  1
  C  C6  1  0.29649500  0.05887300  0.10796300  1
  C  C7  1  0.70350500  0.94112700  0.89203700  1
  C  C8  1  0.23576100  0.54254500  0.64041300  1
  C  C9  1  0.76423900  0.45745500  0.35958700  1
  C  C10  1  0.26730400  0.43188400  0.39351300  1
  C  C11  1  0.73269600  0.56811600  0.60648700  1
  C  C12  1  0.23063300  0.27795800  0.55184600  1
  C  C13  1  0.76936700  0.72204200  0.44815400  1
  C  C14  1  0.26081200  0.69575800  0.48036900  1
  C  C15  1  0.73918800  0.30424200  0.51963100  1
  N  N0  1  0.28885300  0.34466000  0.93410000  1
  N  N1  1  0.71114700  0.65534000  0.06590000  1
  N  N2  1  0.20009200  0.68512400  0.04907700  1
  N  N3  1  0.79990800  0.31487600  0.95092300  1
  N  N4  1  0.17160300  0.93575800  0.79407900  1
  N  N5  1  0.82839700  0.06424200  0.20592100  1
  N  N6  1  0.32800500  0.08636600  0.17918400  1
  N  N7  1  0.67199500  0.91363400  0.82081600  1
  N  N8  1  0.23295200  0.57264200  0.71392800  1
  N  N9  1  0.76704800  0.42735800  0.28607200  1
  N  N10  1  0.28417200  0.39919600  0.32043700  1
  N  N11  1  0.71582800  0.60080400  0.67956300  1
  N  N12  1  0.21736600  0.15486000  0.57318200  1
  N  N13  1  0.78263400  0.84514000  0.42681800  1
  N  N14  1  0.26414500  0.81839000  0.45642200  1
  N  N15  1  0.73585500  0.18161000  0.54357800  1
  O  O0  1  0.50513800  0.59205800  0.87756400  1
  O  O1  1  0.49486200  0.40794200  0.12243600  1
  O  O2  1  0.96647200  0.60744100  0.85843000  1
  O  O3  1  0.03352800  0.39255900  0.14157000  1
  O  O4  1  0.48571800  0.72015600  0.24274500  1
  O  O5  1  0.51428200  0.27984400  0.75725500  1
  O  O6  1  0.06094900  0.77257100  0.26045600  1
  O  O7  1  0.93905100  0.22742900  0.73954400  1
  O  O8  1  0.47677800  0.91460500  0.63061700  1
  O  O9  1  0.52322200  0.08539500  0.36938300  1
  O  O10  1  0.94791700  0.89234800  0.64245700  1
  O  O11  1  0.05208300  0.10765200  0.35754300  1
loop_
_geom_bond_atom_site_label_1
_geom_bond_atom_site_label_2
_geom_bond_distance
_geom_bond_site_symmetry_2
Na0 O8 2.401559 1_555
Na0 O0 2.415268 1_555
Na1 O9 2.401559 1_555
Na1 O1 2.415268 1_555
Na2 O7 2.422770 1_555
Na2 O2 2.451514 1_555
Na2 O0 2.486952 1_555
Na2 O5 2.547068 1_555
Na3 O6 2.422770 1_555
Na3 O3 2.451514 1_555
Na3 O1 2.486952 1_555
Na3 O4 2.547068 1_555
Na4 O5 2.440075 1_555
Na4 O8 2.445679 1_545
Na4 O10 2.467130 1_545
Na4 O7 2.558664 1_555
Na5 O4 2.440075 1_555
Na5 O9 2.445679 1_565
Na5 O11 2.467130 1_565
Na5 O6 2.558664 1_555
Na6 O3 2.403856 1_555
Na6 O2 2.403856 1_454
Na7 O11 2.430385 1_555
Na7 O10 2.430385 1_445
H0 O0 0.974523 1_555
H1 O1 0.974523 1_555
H2 O0 0.985834 1_555
H3 O1 0.985834 1_555
H4 O2 0.988345 1_455
H5 O3 0.988345 1_655
H6 O2 0.975816 1_555
H7 O3 0.975816 1_555
H8 O4 0.973322 1_555
H9 O5 0.973322 1_555
H10 O4 0.979951 1_555
H11 O5 0.979951 1_555
H12 O6 0.972792 1_655
H13 O7 0.972792 1_455
H14 O6 0.982294 1_655
H15 O7 0.982294 1_455
H16 O8 0.971372 1_555
H17 O9 0.971372 1_555
H18 O8 0.989862 1_555
H19 O9 0.989862 1_555
H20 O10 0.976064 1_555
H21 O11 0.976064 1_555
H22 O10 0.986735 1_455
H23 O11 0.986735 1_655
C0 N0 1.176284 1_555
C0 Pt0 1.988855 1_555
C1 N1 1.176284 1_555
C1 Pt1 1.988855 1_555
C2 N2 1.172843 1_555
C2 Pt0 1.986461 1_564
C3 N3 1.172843 1_555
C3 Pt1 1.986461 1_546
C4 N4 1.176255 1_555
C4 Pt0 1.992838 1_565
C5 N5 1.176255 1_555
C5 Pt1 1.992838 1_545
C6 N6 1.174559 1_555
C6 Pt0 1.986016 1_554
C7 N7 1.174559 1_555
C7 Pt1 1.986016 1_556
C8 N8 1.175517 1_555
C8 Pt2 1.985269 1_555
C9 N9 1.175517 1_555
C9 Pt3 1.985269 1_555
C10 N10 1.174359 1_555
C10 Pt2 1.980694 1_555
C11 N11 1.174359 1_555
C11 Pt3 1.980694 1_555
C12 N12 1.175484 1_555
C12 Pt2 1.986216 1_555
C13 N13 1.175484 1_555
C13 Pt3 1.986216 1_555
C14 N14 1.173884 1_555
C14 Pt2 1.984415 1_555
C15 N15 1.173884 1_555
C15 Pt3 1.984415 1_555
N0 Na6 2.625078 1_556
N1 Na6 2.625078 1_655
N2 Na3 2.471534 1_555
N2 Na6 2.487177 1_555
N3 Na2 2.471534 1_555
N3 Na6 2.487177 1_656
N4 Na0 2.609477 1_555
N5 Na1 2.609477 1_555
N6 Na5 2.498200 1_545
N6 Na1 2.500369 1_555
N7 Na4 2.498200 1_565
N7 Na0 2.500369 1_555
N8 Na0 2.551131 1_555
N9 Na1 2.551131 1_555
N10 Na3 2.502478 1_555
N10 Na1 2.519144 1_555
N11 Na2 2.502478 1_555
N11 Na0 2.519144 1_555
N12 Na7 2.543168 1_555
N13 Na7 2.543168 1_665
N14 Na5 2.460579 1_555
N14 Na7 2.515912 1_565
N15 Na4 2.460579 1_555
N15 Na7 2.515912 1_655
