# generated using pymatgen
data_LiV(PO3)3
_symmetry_space_group_name_H-M   'P 1'
_cell_length_a   7.36934100
_cell_length_b   9.24190900
_cell_length_c   12.06562800
_cell_angle_alpha   90.00000000
_cell_angle_beta   90.00000000
_cell_angle_gamma   90.00000000
_symmetry_Int_Tables_number   1
_chemical_formula_structural   LiV(PO3)3
_chemical_formula_sum   'Li4 V4 P12 O36'
_cell_volume   821.75105863
_cell_formula_units_Z   4
loop_
 _symmetry_equiv_pos_site_id
 _symmetry_equiv_pos_as_xyz
  1  'x, y, z'
loop_
 _atom_site_type_symbol
 _atom_site_label
 _atom_site_symmetry_multiplicity
 _atom_site_fract_x
 _atom_site_fract_y
 _atom_site_fract_z
 _atom_site_occupancy
  Li  Li0  1  0.75000000  0.96824200  0.03224200  1
  Li  Li1  1  0.75000000  0.46824200  0.46775800  1
  Li  Li2  1  0.25000000  0.53175800  0.53224200  1
  Li  Li3  1  0.25000000  0.03175800  0.96775800  1
  V  V0  1  0.75000000  0.51940700  0.70956000  1
  V  V1  1  0.75000000  0.01940700  0.79044000  1
  V  V2  1  0.25000000  0.98059300  0.20956000  1
  V  V3  1  0.25000000  0.48059300  0.29044000  1
  P  P0  1  0.95338500  0.75080100  0.34838300  1
  P  P1  1  0.95338500  0.25080100  0.15161700  1
  P  P2  1  0.75000000  0.30474900  0.95822300  1
  P  P3  1  0.75000000  0.80474900  0.54177700  1
  P  P4  1  0.54661500  0.25080100  0.15161700  1
  P  P5  1  0.54661500  0.75080100  0.34838300  1
  P  P6  1  0.45338500  0.24919900  0.65161700  1
  P  P7  1  0.45338500  0.74919900  0.84838300  1
  P  P8  1  0.25000000  0.19525100  0.45822300  1
  P  P9  1  0.25000000  0.69525100  0.04177700  1
  P  P10  1  0.04661500  0.24919900  0.65161700  1
  P  P11  1  0.04661500  0.74919900  0.84838300  1
  O  O0  1  0.97755300  0.65129800  0.75986200  1
  O  O1  1  0.97755300  0.15129800  0.74013800  1
  O  O2  1  0.94436100  0.88398100  0.88153400  1
  O  O3  1  0.94436100  0.38398100  0.61846600  1
  O  O4  1  0.91879300  0.34454900  0.03941200  1
  O  O5  1  0.91879300  0.84454900  0.46058800  1
  O  O6  1  0.75000000  0.69620800  0.31444900  1
  O  O7  1  0.75000000  0.40236100  0.86134100  1
  O  O8  1  0.75000000  0.90236100  0.63865900  1
  O  O9  1  0.75000000  0.14225500  0.94337500  1
  O  O10  1  0.75000000  0.19620800  0.18555100  1
  O  O11  1  0.75000000  0.64225500  0.55662500  1
  O  O12  1  0.58120700  0.34454900  0.03941200  1
  O  O13  1  0.58120700  0.84454900  0.46058800  1
  O  O14  1  0.55563900  0.88398100  0.88153400  1
  O  O15  1  0.55563900  0.38398100  0.61846600  1
  O  O16  1  0.52244700  0.65129800  0.75986200  1
  O  O17  1  0.52244700  0.15129800  0.74013800  1
  O  O18  1  0.47755300  0.84870200  0.25986200  1
  O  O19  1  0.47755300  0.34870200  0.24013800  1
  O  O20  1  0.44436100  0.11601900  0.11846600  1
  O  O21  1  0.44436100  0.61601900  0.38153400  1
  O  O22  1  0.41879300  0.15545100  0.53941200  1
  O  O23  1  0.41879300  0.65545100  0.96058800  1
  O  O24  1  0.25000000  0.85774500  0.05662500  1
  O  O25  1  0.25000000  0.59763900  0.13865900  1
  O  O26  1  0.25000000  0.35774500  0.44337500  1
  O  O27  1  0.25000000  0.09763900  0.36134100  1
  O  O28  1  0.25000000  0.30379200  0.68555100  1
  O  O29  1  0.25000000  0.80379200  0.81444900  1
  O  O30  1  0.08120700  0.15545100  0.53941200  1
  O  O31  1  0.08120700  0.65545100  0.96058800  1
  O  O32  1  0.05563900  0.61601900  0.38153400  1
  O  O33  1  0.05563900  0.11601900  0.11846600  1
  O  O34  1  0.02244700  0.34870200  0.24013800  1
  O  O35  1  0.02244700  0.84870200  0.25986200  1
loop_
_geom_bond_atom_site_label_1
_geom_bond_atom_site_label_2
_geom_bond_distance
_geom_bond_site_symmetry_2
Li0 O9 1.932883 1_564
Li0 O2 2.442227 1_554
Li0 O14 2.442227 1_554
Li1 O11 1.932883 1_555
Li1 O15 2.442227 1_555
Li1 O3 2.442227 1_555
Li2 O26 1.932883 1_555
Li2 O21 2.442227 1_555
Li2 O32 2.442227 1_555
Li3 O24 1.932883 1_546
Li3 O20 2.442227 1_556
Li3 O33 2.442227 1_556
O0 P11 1.489438 1_655
O0 V0 2.160135 1_555
O1 P10 1.489438 1_655
O1 V1 2.160135 1_555
O2 P11 1.509783 1_655
O2 V1 2.196826 1_565
O3 P10 1.509783 1_655
O3 V0 2.196826 1_555
O4 P2 1.625477 1_554
O4 P1 1.627418 1_555
O5 P3 1.625477 1_555
O5 P0 1.627418 1_555
O6 P0 1.633598 1_555
O6 P5 1.633598 1_555
O7 P2 1.476566 1_555
O7 V0 2.126950 1_555
O8 P3 1.476566 1_555
O8 V1 2.126950 1_565
O9 P2 1.512403 1_555
O9 V1 2.166562 1_555
O10 P1 1.633598 1_555
O10 P4 1.633598 1_555
O11 P3 1.512403 1_555
O11 V0 2.166562 1_555
O12 P2 1.625477 1_554
O12 P4 1.627418 1_555
O13 P3 1.625477 1_555
O13 P5 1.627418 1_555
O14 P7 1.509783 1_555
O14 V1 2.196826 1_565
O15 P6 1.509783 1_555
O15 V0 2.196826 1_555
O16 P7 1.489438 1_555
O16 V0 2.160135 1_555
O17 P6 1.489438 1_555
O17 V1 2.160135 1_555
O18 P5 1.489438 1_555
O18 V2 2.160135 1_555
O19 P4 1.489438 1_555
O19 V3 2.160135 1_555
O20 P4 1.509783 1_555
O20 V2 2.196826 1_545
O21 P5 1.509783 1_555
O21 V3 2.196826 1_555
O22 P8 1.625477 1_555
O22 P6 1.627418 1_555
O23 P9 1.625477 1_556
O23 P7 1.627418 1_555
O24 P9 1.512403 1_555
O24 V2 2.166562 1_555
O25 P9 1.476566 1_555
O25 V3 2.126950 1_555
O26 P8 1.512403 1_555
O26 V3 2.166562 1_555
O27 P8 1.476566 1_555
O27 V2 2.126950 1_545
O28 P10 1.633598 1_555
O28 P6 1.633598 1_555
O29 P11 1.633598 1_555
O29 P7 1.633598 1_555
O30 P8 1.625477 1_555
O30 P10 1.627418 1_555
O31 P9 1.625477 1_556
O31 P11 1.627418 1_555
O32 P0 1.509783 1_455
O32 V3 2.196826 1_555
O33 P1 1.509783 1_455
O33 V2 2.196826 1_545
O34 P1 1.489438 1_455
O34 V3 2.160135 1_555
O35 P0 1.489438 1_455
O35 V2 2.160135 1_555
