# generated using pymatgen
data_Sr3Li2
_symmetry_space_group_name_H-M   'P 1'
_cell_length_a   8.78108905
_cell_length_b   9.80126406
_cell_length_c   9.80126406
_cell_angle_alpha   90.00000000
_cell_angle_beta   89.99998689
_cell_angle_gamma   89.99998689
_symmetry_Int_Tables_number   1
_chemical_formula_structural   Sr3Li2
_chemical_formula_sum   'Sr12 Li8'
_cell_volume   843.55336293
_cell_formula_units_Z   4
loop_
 _symmetry_equiv_pos_site_id
 _symmetry_equiv_pos_as_xyz
  1  'x, y, z'
loop_
 _atom_site_type_symbol
 _atom_site_label
 _atom_site_symmetry_multiplicity
 _atom_site_fract_x
 _atom_site_fract_y
 _atom_site_fract_z
 _atom_site_occupancy
  Sr  Sr0  1  -0.00000000  0.15031457  0.84968543  1
  Sr  Sr1  1  0.50000000  0.65031457  0.65031457  1
  Sr  Sr2  1  0.50000000  0.34968543  0.34968543  1
  Sr  Sr3  1  0.00000000  0.84968543  0.15031457  1
  Sr  Sr4  1  0.00000000  0.71167905  0.71167905  1
  Sr  Sr5  1  0.50000000  0.78831995  0.21168005  1
  Sr  Sr6  1  0.50000000  0.21168005  0.78831995  1
  Sr  Sr7  1  -0.00000000  0.28832095  0.28832095  1
  Sr  Sr8  1  0.75000100  0.50000000  0.00000000  1
  Sr  Sr9  1  0.24999900  0.50000000  0.00000000  1
  Sr  Sr10  1  0.75000100  0.00000000  0.50000000  1
  Sr  Sr11  1  0.24999900  0.00000000  0.50000000  1
  Li  Li0  1  0.68012066  0.88741305  0.88741305  1
  Li  Li1  1  0.68012066  0.11258695  0.11258695  1
  Li  Li2  1  0.18012066  0.38741305  0.61258695  1
  Li  Li3  1  0.18012066  0.61258695  0.38741305  1
  Li  Li4  1  0.31987934  0.88741305  0.88741305  1
  Li  Li5  1  0.81987934  0.61258695  0.38741305  1
  Li  Li6  1  0.81987934  0.38741305  0.61258695  1
  Li  Li7  1  0.31987934  0.11258695  0.11258695  1
loop_
_geom_bond_atom_site_label_1
_geom_bond_atom_site_label_2
_geom_bond_distance
_geom_bond_site_symmetry_2
Sr0 Sr11 4.328568 1_555
Sr0 Sr8 4.328568 1_456
Sr0 Sr9 4.328569 1_556
Sr0 Sr10 4.328569 1_455
Sr1 Sr11 4.328577 1_565
Sr1 Sr9 4.328577 1_556
Sr1 Sr10 4.328578 1_565
Sr1 Sr8 4.328578 1_556
Sr2 Sr8 4.328577 1_555
Sr2 Sr9 4.328578 1_555
Sr3 Sr9 4.328568 1_555
Sr3 Sr8 4.328569 1_455
Sr4 Sr8 4.136353 1_456
Sr4 Sr9 4.136354 1_556
Sr5 Sr8 4.136360 1_555
Sr5 Sr9 4.136362 1_555
Sr6 Sr9 4.136360 1_556
Sr6 Sr8 4.136362 1_556
Sr7 Sr9 4.136353 1_555
Sr7 Sr8 4.136354 1_455
Sr8 Sr9 4.390527 1_655
Sr8 Sr9 4.390562 1_555
Sr10 Sr4 4.136353 1_645
Sr10 Sr7 4.136354 1_655
Sr10 Sr6 4.136360 1_555
Sr10 Sr5 4.136362 1_545
Sr10 Sr3 4.328568 1_645
Sr10 Sr2 4.328577 1_555
Sr10 Sr11 4.390527 1_655
Sr10 Sr11 4.390562 1_555
Sr11 Sr7 4.136353 1_555
Sr11 Sr4 4.136354 1_545
Sr11 Sr5 4.136360 1_545
Sr11 Sr6 4.136362 1_555
Sr11 Sr3 4.328569 1_545
Sr11 Sr2 4.328578 1_555
Li0 Li1 3.121154 1_566
Li0 Li4 3.163311 1_555
Li0 Sr1 3.647236 1_555
Li0 Sr5 3.680497 1_556
Li0 Sr6 3.680497 1_565
Li0 Sr4 3.717967 1_655
Li0 Sr0 3.829664 1_665
Li0 Sr3 3.829664 1_656
Li0 Sr10 4.001561 1_565
Li0 Sr8 4.001561 1_556
Li1 Li7 3.163311 1_555
Li1 Sr2 3.647235 1_555
Li1 Sr6 3.680498 1_554
Li1 Sr5 3.680498 1_545
Li1 Sr7 3.717969 1_655
Li1 Sr3 3.829663 1_645
Li1 Sr0 3.829663 1_654
Li1 Sr8 4.001561 1_555
Li1 Sr10 4.001561 1_555
Li2 Li3 3.121154 1_555
Li2 Li6 3.163311 1_455
Li2 Sr0 3.647236 1_555
Li2 Sr4 3.680486 1_555
Li2 Sr7 3.680487 1_555
Li2 Sr6 3.717959 1_555
Li2 Sr2 3.829663 1_555
Li2 Sr1 3.829664 1_555
Li2 Sr11 4.001558 1_555
Li2 Sr9 4.001558 1_556
Li3 Li5 3.163311 1_455
Li3 Sr3 3.647236 1_555
Li3 Sr4 3.680486 1_555
Li3 Sr7 3.680487 1_555
Li3 Sr5 3.717959 1_555
Li3 Sr2 3.829663 1_555
Li3 Sr1 3.829664 1_555
Li3 Sr9 4.001558 1_555
Li3 Sr11 4.001558 1_565
Li4 Li7 3.121154 1_566
Li4 Sr1 3.647235 1_555
Li4 Sr5 3.680498 1_556
Li4 Sr6 3.680498 1_565
Li4 Sr4 3.717969 1_555
Li4 Sr3 3.829663 1_556
Li4 Sr0 3.829663 1_565
Li4 Sr11 4.001561 1_565
Li4 Sr9 4.001561 1_556
Li5 Li6 3.121154 1_555
Li5 Sr3 3.647236 1_655
Li5 Sr7 3.680486 1_655
Li5 Sr4 3.680487 1_655
Li5 Sr5 3.717959 1_555
Li5 Sr1 3.829663 1_555
Li5 Sr2 3.829664 1_555
Li5 Sr10 4.001558 1_565
Li5 Sr8 4.001558 1_555
Li6 Sr0 3.647236 1_655
Li6 Sr7 3.680486 1_655
Li6 Sr4 3.680487 1_655
Li6 Sr6 3.717959 1_555
Li6 Sr1 3.829663 1_555
Li6 Sr2 3.829664 1_555
Li6 Sr8 4.001558 1_556
Li6 Sr10 4.001558 1_555
Li7 Sr2 3.647236 1_555
Li7 Sr6 3.680497 1_554
Li7 Sr5 3.680497 1_545
Li7 Sr7 3.717967 1_555
Li7 Sr3 3.829664 1_545
Li7 Sr0 3.829664 1_554
Li7 Sr11 4.001561 1_555
Li7 Sr9 4.001561 1_555
