# generated using pymatgen
data_Li5NiO4
_symmetry_space_group_name_H-M   'P 1'
_cell_length_a   4.77978400
_cell_length_b   9.43203230
_cell_length_c   8.68584373
_cell_angle_alpha   90.00015980
_cell_angle_beta   89.99887519
_cell_angle_gamma   89.99974289
_symmetry_Int_Tables_number   1
_chemical_formula_structural   Li5NiO4
_chemical_formula_sum   'Li20 Ni4 O16'
_cell_volume   391.58456220
_cell_formula_units_Z   4
loop_
 _symmetry_equiv_pos_site_id
 _symmetry_equiv_pos_as_xyz
  1  'x, y, z'
loop_
 _atom_site_type_symbol
 _atom_site_label
 _atom_site_symmetry_multiplicity
 _atom_site_fract_x
 _atom_site_fract_y
 _atom_site_fract_z
 _atom_site_occupancy
  Li  Li0  1  0.75000100  0.73221700  0.24999900  1
  Li  Li1  1  0.75000100  0.23217400  0.74999800  1
  Li  Li2  1  0.25000300  0.73217900  0.75000000  1
  Li  Li3  1  0.25000200  0.23221200  0.25000100  1
  Li  Li4  1  0.77563200  0.49601700  0.45446200  1
  Li  Li5  1  0.77563000  0.99601500  0.95450900  1
  Li  Li6  1  0.72437200  0.49601500  0.04553900  1
  Li  Li7  1  0.72437500  0.99601200  0.54549200  1
  Li  Li8  1  0.22437700  0.49601300  0.95450800  1
  Li  Li9  1  0.22437000  0.99601000  0.45446000  1
  Li  Li10  1  0.27563000  0.49601700  0.54549100  1
  Li  Li11  1  0.27563700  0.99601300  0.04553800  1
  Li  Li12  1  0.69400800  0.24804000  0.03575500  1
  Li  Li13  1  0.69404100  0.74803900  0.53571800  1
  Li  Li14  1  0.19404300  0.24803400  0.96427900  1
  Li  Li15  1  0.19400500  0.74804000  0.46424200  1
  Li  Li16  1  0.30599400  0.74804100  0.03576000  1
  Li  Li17  1  0.30595500  0.24803600  0.53572300  1
  Li  Li18  1  0.80595900  0.74803900  0.96427800  1
  Li  Li19  1  0.80598900  0.24803800  0.46424100  1
  Ni  Ni0  1  0.24996200  0.00568500  0.75000600  1
  Ni  Ni1  1  0.74999100  0.50569100  0.75000900  1
  Ni  Ni2  1  0.24998500  0.50571500  0.25000600  1
  Ni  Ni3  1  0.75001300  0.00568400  0.24999400  1
  O  O0  1  0.97694300  0.61804600  0.62164500  1
  O  O1  1  0.97707800  0.11813900  0.12165800  1
  O  O2  1  0.47704900  0.61812000  0.37833100  1
  O  O3  1  0.47696500  0.11805700  0.87835600  1
  O  O4  1  0.02295400  0.61812000  0.12166600  1
  O  O5  1  0.02303600  0.11805900  0.62164100  1
  O  O6  1  0.52306200  0.61804700  0.87835500  1
  O  O7  1  0.52292700  0.11813500  0.37834100  1
  O  O8  1  0.41558400  0.37689300  0.11118000  1
  O  O9  1  0.41565900  0.87689800  0.61121700  1
  O  O10  1  0.91567900  0.37688500  0.88878700  1
  O  O11  1  0.91552200  0.87695200  0.38882200  1
  O  O12  1  0.58447900  0.87695400  0.11117900  1
  O  O13  1  0.58432600  0.37688500  0.61121100  1
  O  O14  1  0.08434700  0.87689700  0.88878300  1
  O  O15  1  0.08441500  0.37689400  0.38881900  1
loop_
_geom_bond_atom_site_label_1
_geom_bond_atom_site_label_2
_geom_bond_distance
_geom_bond_site_symmetry_2
Li0 O12 1.985830 1_555
Li0 O11 1.985831 1_555
Li0 O4 2.025512 1_655
Li0 O2 2.025514 1_555
Li1 O13 1.985779 1_555
Li1 O10 1.985796 1_555
Li1 O5 2.025969 1_655
Li1 O3 2.025997 1_555
Li2 O14 1.985744 1_555
Li2 O9 1.985760 1_555
Li2 O6 2.026150 1_555
Li2 O0 2.026161 1_455
Li3 O15 1.985563 1_555
Li3 O8 1.985573 1_555
Li3 O1 2.025385 1_455
Li3 O7 2.025391 1_555
Li4 O15 1.940561 1_655
Li4 O2 1.949475 1_555
Li4 O13 1.988059 1_555
Li4 O0 2.087907 1_555
Li5 O14 1.940506 1_655
Li5 O3 1.949487 1_565
Li5 O12 1.986870 1_556
Li5 O1 2.088498 1_566
Li6 O8 1.940579 1_555
Li6 O4 1.949476 1_655
Li6 O10 1.988059 1_554
Li6 O6 2.087926 1_554
Li7 O9 1.940488 1_555
Li7 O5 1.949494 1_665
Li7 O11 1.986847 1_555
Li7 O7 2.088504 1_565
Li8 O10 1.940504 1_455
Li8 O6 1.949501 1_555
Li8 O8 1.987339 1_556
Li8 O4 2.088377 1_556
Li9 O11 1.940455 1_455
Li9 O7 1.949460 1_565
Li9 O9 1.987983 1_555
Li9 O5 2.088018 1_565
Li10 O13 1.940510 1_555
Li10 O0 1.949473 1_455
Li10 O15 1.987373 1_555
Li10 O2 2.088369 1_555
Li11 O12 1.940440 1_555
Li11 O1 1.949465 1_465
Li11 O14 1.987994 1_554
Li11 O3 2.087995 1_564
Li12 O8 1.917616 1_555
Li12 O1 1.971951 1_555
Li12 O10 2.056461 1_554
Li12 O3 2.109137 1_554
Li13 O9 1.917733 1_555
Li13 O0 1.972018 1_555
Li13 O11 2.055984 1_555
Li13 O2 2.108599 1_555
Li14 O10 1.917625 1_455
Li14 O3 1.971954 1_555
Li14 O8 2.055879 1_556
Li14 O1 2.108337 1_456
Li15 O11 1.918170 1_455
Li15 O2 1.971980 1_555
Li15 O9 2.056550 1_555
Li15 O0 2.109243 1_455
Li16 O12 1.918185 1_555
Li16 O4 1.971967 1_555
Li16 O14 2.056531 1_554
Li16 O6 2.109259 1_554
Li17 O13 1.917629 1_555
Li17 O5 1.971938 1_555
Li17 O15 2.055886 1_555
Li17 O7 2.108394 1_555
Li18 O14 1.917745 1_655
Li18 O6 1.971988 1_555
Li18 O12 2.056010 1_556
Li18 O4 2.108611 1_656
Li19 O15 1.917642 1_655
Li19 O7 1.971931 1_555
Li19 O13 2.056453 1_555
Li19 O5 2.109130 1_655
Ni0 O5 1.882306 1_555
Ni0 O3 1.882433 1_555
Ni0 O14 1.885516 1_545
Ni0 O9 1.885732 1_545
Ni1 O6 1.882093 1_555
Ni1 O0 1.882252 1_555
Ni1 O10 1.885792 1_555
Ni1 O13 1.885858 1_555
Ni2 O4 1.882632 1_555
Ni2 O2 1.882647 1_555
Ni2 O15 1.885826 1_555
Ni2 O8 1.885953 1_555
Ni3 O1 1.882951 1_555
Ni3 O7 1.883035 1_555
Ni3 O12 1.885227 1_545
Ni3 O11 1.885261 1_545
