# generated using pymatgen
data_Li2CuPO4
_symmetry_space_group_name_H-M   'P 1'
_cell_length_a   5.38537000
_cell_length_b   6.21914366
_cell_length_c   10.09405808
_cell_angle_alpha   89.63778733
_cell_angle_beta   89.86961783
_cell_angle_gamma   89.29136034
_symmetry_Int_Tables_number   1
_chemical_formula_structural   Li2CuPO4
_chemical_formula_sum   'Li8 Cu4 P4 O16'
_cell_volume   338.04069842
_cell_formula_units_Z   4
loop_
 _symmetry_equiv_pos_site_id
 _symmetry_equiv_pos_as_xyz
  1  'x, y, z'
loop_
 _atom_site_type_symbol
 _atom_site_label
 _atom_site_symmetry_multiplicity
 _atom_site_fract_x
 _atom_site_fract_y
 _atom_site_fract_z
 _atom_site_occupancy
  Li  Li0  1  0.15212500  0.99901800  0.25221900  1
  Li  Li1  1  0.15844600  0.00018300  0.75517600  1
  Li  Li2  1  0.32763100  0.25078800  0.50193500  1
  Li  Li3  1  0.32977300  0.24436600  0.00166400  1
  Li  Li4  1  0.67387700  0.25805300  0.75503700  1
  Li  Li5  1  0.66968900  0.24754600  0.25117100  1
  Li  Li6  1  0.84723300  0.49929600  0.00342400  1
  Li  Li7  1  0.67759700  0.74712700  0.75790100  1
  Cu  Cu0  1  0.80495700  0.50894500  0.49919100  1
  Cu  Cu1  1  0.65666600  0.74380700  0.25992200  1
  Cu  Cu2  1  0.34371700  0.74195900  0.49689100  1
  Cu  Cu3  1  0.33515900  0.76075700  0.00061200  1
  P  P0  1  0.82643600  0.00545600  0.99787400  1
  P  P1  1  0.83139600  0.00943600  0.50556400  1
  P  P2  1  0.17687700  0.49567600  0.75350100  1
  P  P3  1  0.17290400  0.48872800  0.24635300  1
  O  O0  1  0.82756200  0.00657500  0.35119500  1
  O  O1  1  0.10255900  0.01505000  0.55682100  1
  O  O2  1  0.82557300  0.00581700  0.84399400  1
  O  O3  1  0.09690100  0.01255400  0.05325200  1
  O  O4  1  0.68009800  0.20819900  0.55714400  1
  O  O5  1  0.68207300  0.20519600  0.05167800  1
  O  O6  1  0.31641800  0.29217600  0.80763000  1
  O  O7  1  0.31708300  0.29015000  0.30247000  1
  O  O8  1  0.17749500  0.48735100  0.09292600  1
  O  O9  1  0.89754200  0.48040600  0.29385100  1
  O  O10  1  0.17980900  0.48850300  0.59916800  1
  O  O11  1  0.90406700  0.49955000  0.80528200  1
  O  O12  1  0.28724700  0.70543800  0.29508200  1
  O  O13  1  0.31444900  0.70486200  0.79636400  1
  O  O14  1  0.70155300  0.80611600  0.56514000  1
  O  O15  1  0.70508800  0.79091700  0.04697700  1
loop_
_geom_bond_atom_site_label_1
_geom_bond_atom_site_label_2
_geom_bond_distance
_geom_bond_site_symmetry_2
Li0 O12 2.002224 1_555
Li0 O0 2.011489 1_465
Li0 O3 2.032020 1_565
Li0 O7 2.092406 1_565
Li1 O2 2.002524 1_455
Li1 O1 2.026741 1_555
Li1 O13 2.050781 1_545
Li1 O6 2.086667 1_555
Li2 O10 1.941218 1_555
Li2 O1 1.989011 1_555
Li2 O4 1.993555 1_555
Li2 O7 2.027541 1_555
Li3 O8 1.946342 1_555
Li3 O5 1.976158 1_555
Li3 O6 1.980507 1_554
Li3 O3 1.988620 1_555
Li4 O2 1.971878 1_555
Li4 O6 2.004831 1_555
Li4 O4 2.023537 1_555
Li4 O11 2.026880 1_555
Li5 O9 1.960309 1_555
Li5 O7 1.982177 1_555
Li5 O0 1.985295 1_555
Li5 O5 2.033332 1_555
Li6 O8 1.997066 1_655
Li6 O15 2.010656 1_555
Li6 O11 2.022646 1_554
Li6 O5 2.097807 1_555
Li7 O14 1.981954 1_555
Li7 O2 2.007771 1_565
Li7 O11 2.008444 1_555
Li7 O13 2.013084 1_555
Cu0 O14 2.038950 1_555
Cu0 O4 2.075610 1_555
Cu0 O9 2.138694 1_555
Cu0 O10 2.260777 1_655
Cu1 O12 2.036738 1_555
Cu1 O9 2.103775 1_555
Cu1 O0 2.103931 1_565
Cu1 O15 2.182997 1_555
Cu2 O12 2.074635 1_555
Cu2 O10 2.083110 1_555
Cu2 O14 2.091882 1_555
Cu2 O1 2.211792 1_565
Cu3 O15 2.058565 1_555
Cu3 O3 2.082943 1_565
Cu3 O13 2.096405 1_554
Cu3 O8 2.119552 1_555
O0 P1 1.558610 1_555
O1 P1 1.551243 1_455
O2 P0 1.553279 1_555
O3 P0 1.562554 1_454
O4 P1 1.563424 1_555
O5 P0 1.557303 1_554
O6 P2 1.560317 1_555
O7 P3 1.555113 1_555
O8 P3 1.548918 1_555
O9 P3 1.558835 1_655
O10 P2 1.558805 1_555
O11 P2 1.558224 1_655
O12 P3 1.570937 1_555
O13 P2 1.568758 1_555
O14 P1 1.568386 1_565
O15 P0 1.569932 1_564
