# generated using pymatgen
data_LiCr(CO3)2
_symmetry_space_group_name_H-M   'P 1'
_cell_length_a   4.66715355
_cell_length_b   20.44416456
_cell_length_c   4.66675579
_cell_angle_alpha   90.00131573
_cell_angle_beta   120.00249038
_cell_angle_gamma   83.44729418
_symmetry_Int_Tables_number   1
_chemical_formula_structural   LiCr(CO3)2
_chemical_formula_sum   'Li4 Cr4 C8 O24'
_cell_volume   382.25507662
_cell_formula_units_Z   4
loop_
 _symmetry_equiv_pos_site_id
 _symmetry_equiv_pos_as_xyz
  1  'x, y, z'
loop_
 _atom_site_type_symbol
 _atom_site_label
 _atom_site_symmetry_multiplicity
 _atom_site_fract_x
 _atom_site_fract_y
 _atom_site_fract_z
 _atom_site_occupancy
  Li  Li0  1  0.00000000  0.00000200  0.99999200  1
  Li  Li1  1  0.50000000  0.25000000  0.24999100  1
  Li  Li2  1  0.00000200  0.49999800  0.49999000  1
  Li  Li3  1  0.50000100  0.74999900  0.74999200  1
  Cr  Cr0  1  0.25001200  0.62499100  0.12500100  1
  Cr  Cr1  1  0.75002500  0.87499300  0.37502200  1
  Cr  Cr2  1  0.25001100  0.12501400  0.62500400  1
  Cr  Cr3  1  0.74994800  0.37500600  0.87501100  1
  C  C0  1  0.87839400  0.18274800  0.93918200  1
  C  C1  1  0.37831900  0.43273900  0.18919300  1
  C  C2  1  0.87835900  0.68275300  0.43917100  1
  C  C3  1  0.37837800  0.93273700  0.68920300  1
  C  C4  1  0.62167700  0.06725900  0.31081300  1
  C  C5  1  0.12161100  0.31724900  0.56083100  1
  C  C6  1  0.62163300  0.56726200  0.81080300  1
  C  C7  1  0.12165400  0.81724700  0.06084100  1
  O  O0  1  0.90735400  0.06656500  0.32650200  1
  O  O1  1  0.40738800  0.31658300  0.57657200  1
  O  O2  1  0.90730400  0.56659900  0.82656900  1
  O  O3  1  0.40730100  0.81656100  0.07652200  1
  O  O4  1  0.14754600  0.18341400  0.22411400  1
  O  O5  1  0.64749800  0.43343000  0.47399600  1
  O  O6  1  0.14744200  0.68345700  0.72389800  1
  O  O7  1  0.64745100  0.93341100  0.97399200  1
  O  O8  1  0.89334300  0.18340600  0.66912200  1
  O  O9  1  0.39312100  0.43344000  0.91910500  1
  O  O10  1  0.89314200  0.68345500  0.16915800  1
  O  O11  1  0.39324100  0.93341200  0.41920600  1
  O  O12  1  0.60688800  0.06655300  0.58089200  1
  O  O13  1  0.10667300  0.31658700  0.83087000  1
  O  O14  1  0.60671100  0.56659800  0.08077000  1
  O  O15  1  0.10680800  0.81655700  0.33082900  1
  O  O16  1  0.35251200  0.06655700  0.02603200  1
  O  O17  1  0.85245700  0.31657400  0.27591300  1
  O  O18  1  0.35256000  0.56659500  0.52599000  1
  O  O19  1  0.85254800  0.81655100  0.77606200  1
  O  O20  1  0.59261100  0.18341100  0.92341100  1
  O  O21  1  0.09264300  0.43342700  0.17347700  1
  O  O22  1  0.59272800  0.68345100  0.42350100  1
  O  O23  1  0.09270700  0.93340900  0.67345400  1
loop_
_geom_bond_atom_site_label_1
_geom_bond_atom_site_label_2
_geom_bond_distance
_geom_bond_site_symmetry_2
Li0 O16 2.209957 1_556
Li0 O12 2.210060 1_455
Li0 O0 2.210229 1_456
Li0 O7 2.210668 1_445
Li0 O23 2.210830 1_545
Li0 O11 2.210917 1_546
Li1 O17 2.210202 1_555
Li1 O4 2.210430 1_555
Li1 O1 2.210658 1_555
Li1 O20 2.210725 1_554
Li1 O13 2.210808 1_554
Li1 O8 2.210929 1_555
Li2 O9 2.210178 1_555
Li2 O5 2.210182 1_455
Li2 O21 2.210326 1_555
Li2 O18 2.210787 1_555
Li2 O2 2.211058 1_455
Li2 O14 2.211111 1_455
Li3 O6 2.209864 1_555
Li3 O19 2.209998 1_555
Li3 O22 2.210155 1_555
Li3 O10 2.210173 1_556
Li3 O15 2.210393 1_555
Li3 O3 2.210409 1_556
Cr0 O14 2.032060 1_555
Cr0 O18 2.032287 1_555
Cr0 O2 2.032485 1_454
Cr0 O10 2.033242 1_455
Cr0 O6 2.033486 1_554
Cr0 O22 2.033539 1_555
Cr1 O11 2.032529 1_555
Cr1 O7 2.032657 1_554
Cr1 O15 2.032719 1_655
Cr1 O23 2.032756 1_655
Cr1 O19 2.033039 1_555
Cr1 O3 2.033170 1_555
Cr2 O8 2.031664 1_455
Cr2 O4 2.032075 1_555
Cr2 O20 2.032263 1_555
Cr2 O12 2.033130 1_555
Cr2 O16 2.033196 1_556
Cr2 O0 2.033248 1_455
Cr3 O13 2.032206 1_655
Cr3 O17 2.032426 1_556
Cr3 O1 2.032571 1_555
Cr3 O9 2.032627 1_555
Cr3 O5 2.032839 1_555
Cr3 O21 2.032902 1_656
C0 O4 1.296038 1_656
C0 O8 1.296753 1_555
C0 O20 1.297037 1_555
C1 O5 1.295832 1_555
C1 O9 1.296527 1_554
C1 O21 1.296601 1_555
C2 O6 1.295467 1_655
C2 O10 1.296130 1_555
C2 O22 1.296468 1_555
C3 O7 1.295528 1_555
C3 O11 1.296248 1_555
C3 O23 1.296542 1_555
C4 O16 1.295774 1_555
C4 O12 1.296454 1_555
C4 O0 1.296650 1_555
C5 O17 1.296029 1_455
C5 O13 1.296628 1_555
C5 O1 1.297066 1_555
C6 O18 1.295571 1_555
C6 O14 1.296253 1_556
C6 O2 1.296526 1_555
C7 O19 1.295628 1_454
C7 O15 1.296168 1_555
C7 O3 1.296545 1_555
