# generated using pymatgen
data_Li4Fe3Co3(CuO8)2
_symmetry_space_group_name_H-M   'P 1'
_cell_length_a   5.80333868
_cell_length_b   5.78023651
_cell_length_c   9.55011348
_cell_angle_alpha   90.21783643
_cell_angle_beta   90.32702746
_cell_angle_gamma   119.90065921
_symmetry_Int_Tables_number   1
_chemical_formula_structural   Li4Fe3Co3(CuO8)2
_chemical_formula_sum   'Li4 Fe3 Co3 Cu2 O16'
_cell_volume   277.70053501
_cell_formula_units_Z   1
loop_
 _symmetry_equiv_pos_site_id
 _symmetry_equiv_pos_as_xyz
  1  'x, y, z'
loop_
 _atom_site_type_symbol
 _atom_site_label
 _atom_site_symmetry_multiplicity
 _atom_site_fract_x
 _atom_site_fract_y
 _atom_site_fract_z
 _atom_site_occupancy
  Li  Li0  1  0.32430700  0.66063000  0.89902900  1
  Li  Li1  1  0.01619700  0.00794200  0.99693400  1
  Li  Li2  1  0.02096900  0.01099500  0.49493800  1
  Li  Li3  1  0.65433800  0.32741600  0.39621700  1
  Fe  Fe0  1  0.66062700  0.82857500  0.21370100  1
  Fe  Fe1  1  0.82721100  0.66215300  0.71335900  1
  Fe  Fe2  1  0.82959600  0.16908600  0.71227100  1
  Co  Co0  1  0.16734500  0.82948300  0.21214200  1
  Co  Co1  1  0.16799600  0.33638300  0.21269700  1
  Co  Co2  1  0.33945700  0.17048900  0.71211400  1
  Cu  Cu0  1  0.33805600  0.67252800  0.48695400  1
  Cu  Cu1  1  0.67548200  0.33497100  0.98937200  1
  O  O0  1  0.17385100  0.84642000  0.60609100  1
  O  O1  1  0.03397900  0.51760700  0.32488700  1
  O  O2  1  0.32203000  0.65862400  0.10709300  1
  O  O3  1  0.00952800  0.00449200  0.30890700  1
  O  O4  1  0.01249900  0.00834600  0.80970400  1
  O  O5  1  0.17770100  0.33189100  0.60632900  1
  O  O6  1  0.46311200  0.95959800  0.33531900  1
  O  O7  1  0.46369300  0.50525100  0.33618500  1
  O  O8  1  0.32258500  0.15960600  0.11282800  1
  O  O9  1  0.67769600  0.84217500  0.59782500  1
  O  O10  1  0.50512300  0.46942400  0.83761500  1
  O  O11  1  0.50229100  0.03384600  0.83551700  1
  O  O12  1  0.65729900  0.32957900  0.60221300  1
  O  O13  1  0.85082400  0.67779800  0.10288700  1
  O  O14  1  0.95678500  0.47574100  0.84039600  1
  O  O15  1  0.84941900  0.16925000  0.10431600  1
loop_
_geom_bond_atom_site_label_1
_geom_bond_atom_site_label_2
_geom_bond_distance
_geom_bond_site_symmetry_2
Li0 O14 1.927179 1_455
Li0 O10 1.955750 1_555
Li0 O11 1.970830 1_565
Li0 O2 1.987194 1_556
Li1 O4 1.788098 1_555
Li1 O8 1.889751 1_556
Li1 O15 1.939484 1_456
Li1 O13 1.945869 1_446
Li2 O3 1.777033 1_555
Li2 O0 1.912416 1_545
Li2 O5 1.921293 1_555
Li2 O9 1.994440 1_445
Li3 O6 1.928960 1_545
Li3 O7 1.934036 1_555
Li3 O12 1.967200 1_555
Li3 O1 2.033390 1_655
Fe0 O3 1.969693 1_665
Fe0 O2 1.976821 1_555
Fe0 O15 2.011727 1_565
Fe0 O13 2.015752 1_555
Fe0 O7 2.017322 1_555
Fe0 O6 2.027426 1_555
Fe1 O4 1.958720 1_665
Fe1 O12 1.969043 1_555
Fe1 O9 1.987725 1_555
Fe1 O14 2.001424 1_555
Fe1 O10 2.025432 1_555
Fe1 O0 2.031335 1_655
Fe2 O4 1.958135 1_655
Fe2 O14 1.962833 1_555
Fe2 O9 1.963390 1_545
Fe2 O12 1.971132 1_555
Fe2 O5 2.031138 1_655
Fe2 O11 2.038758 1_555
Co0 O6 1.891769 1_555
Co0 O13 1.896579 1_455
Co0 O1 1.908239 1_555
Co0 O3 1.908501 1_565
Co0 O8 1.913629 1_565
Co0 O2 1.916853 1_555
Co1 O7 1.893805 1_555
Co1 O15 1.900673 1_455
Co1 O3 1.906399 1_555
Co1 O2 1.910537 1_555
Co1 O1 1.913994 1_555
Co1 O8 1.917006 1_555
Co2 O4 1.897670 1_555
Co2 O0 1.907182 1_545
Co2 O5 1.908322 1_555
Co2 O11 1.908980 1_555
Co2 O10 1.913472 1_555
Co2 O12 1.920389 1_555
Cu0 O9 2.002249 1_555
Cu0 O0 2.042437 1_555
Cu0 O6 2.051051 1_555
Cu0 O7 2.060088 1_555
Cu0 O5 2.060316 1_555
Cu0 O1 2.166629 1_555
Cu1 O14 2.015510 1_555
Cu1 O13 2.024400 1_556
Cu1 O15 2.025063 1_556
Cu1 O11 2.101965 1_555
Cu1 O10 2.107163 1_555
Cu1 O8 2.139801 1_556
