# generated using pymatgen
data_K2TiSi3(HO5)2
_symmetry_space_group_name_H-M   'P 1'
_cell_length_a   7.23061800
_cell_length_b   10.03477100
_cell_length_c   13.13013800
_cell_angle_alpha   90.00000000
_cell_angle_beta   90.00000000
_cell_angle_gamma   90.00000000
_symmetry_Int_Tables_number   1
_chemical_formula_structural   K2TiSi3(HO5)2
_chemical_formula_sum   'K8 Ti4 Si12 H8 O40'
_cell_volume   952.69124604
_cell_formula_units_Z   4
loop_
 _symmetry_equiv_pos_site_id
 _symmetry_equiv_pos_as_xyz
  1  'x, y, z'
loop_
 _atom_site_type_symbol
 _atom_site_label
 _atom_site_symmetry_multiplicity
 _atom_site_fract_x
 _atom_site_fract_y
 _atom_site_fract_z
 _atom_site_occupancy
  K  K0  1  0.14808100  0.79070600  0.63516500  1
  K  K1  1  0.20568900  0.93538900  0.92158500  1
  K  K2  1  0.29431100  0.06461100  0.42158500  1
  K  K3  1  0.35191900  0.20929400  0.13516500  1
  K  K4  1  0.64808100  0.70929400  0.36483500  1
  K  K5  1  0.70568900  0.56461100  0.07841500  1
  K  K6  1  0.79431100  0.43538900  0.57841500  1
  K  K7  1  0.85191900  0.29070600  0.86483500  1
  Ti  Ti0  1  0.24074200  0.45293400  0.71011300  1
  Ti  Ti1  1  0.25925800  0.54706600  0.21011300  1
  Ti  Ti2  1  0.74074200  0.04706600  0.28988700  1
  Ti  Ti3  1  0.75925800  0.95293400  0.78988700  1
  Si  Si0  1  0.00810800  0.82230800  0.17479100  1
  Si  Si1  1  0.08086200  0.14173400  0.66853600  1
  Si  Si2  1  0.23188000  0.53722800  0.95199600  1
  Si  Si3  1  0.26812000  0.46277200  0.45199600  1
  Si  Si4  1  0.41913800  0.85826600  0.16853600  1
  Si  Si5  1  0.49189200  0.17769200  0.67479100  1
  Si  Si6  1  0.50810800  0.67769200  0.82520900  1
  Si  Si7  1  0.58086200  0.35826600  0.33146400  1
  Si  Si8  1  0.73188000  0.96277200  0.04800400  1
  Si  Si9  1  0.76812000  0.03722800  0.54800400  1
  Si  Si10  1  0.91913800  0.64173400  0.83146400  1
  Si  Si11  1  0.99189200  0.32230800  0.32520900  1
  H  H0  1  0.02960200  0.84648700  0.38382800  1
  H  H1  1  0.16630400  0.72784600  0.40639400  1
  H  H2  1  0.33369600  0.27215400  0.90639400  1
  H  H3  1  0.47039800  0.15351300  0.88382800  1
  H  H4  1  0.52960200  0.65351300  0.61617200  1
  H  H5  1  0.66630400  0.77215400  0.59360600  1
  H  H6  1  0.83369600  0.22784600  0.09360600  1
  H  H7  1  0.97039800  0.34648700  0.11617200  1
  O  O0  1  0.01243400  0.55947500  0.73814600  1
  O  O1  1  0.01992600  0.59943800  0.94038500  1
  O  O2  1  0.05183200  0.66482400  0.19107100  1
  O  O3  1  0.07158600  0.30132400  0.68895400  1
  O  O4  1  0.09855600  0.38664400  0.22782100  1
  O  O5  1  0.12353600  0.33766500  0.42730700  1
  O  O6  1  0.12154400  0.81474400  0.43462600  1
  O  O7  1  0.20176400  0.90543500  0.15055000  1
  O  O8  1  0.22751500  0.51169700  0.56719900  1
  O  O9  1  0.24398100  0.57676100  0.36375500  1
  O  O10  1  0.25601900  0.42323900  0.86375500  1
  O  O11  1  0.27248500  0.48830300  0.06719900  1
  O  O12  1  0.29823600  0.09456500  0.65055000  1
  O  O13  1  0.37845600  0.18525600  0.93462600  1
  O  O14  1  0.37646400  0.66233500  0.92730700  1
  O  O15  1  0.40144400  0.61335600  0.72782100  1
  O  O16  1  0.42841400  0.69867600  0.18895400  1
  O  O17  1  0.44816800  0.33517600  0.69107100  1
  O  O18  1  0.48007400  0.40056200  0.44038500  1
  O  O19  1  0.48756600  0.44052500  0.23814600  1
  O  O20  1  0.51243400  0.94052500  0.26185400  1
  O  O21  1  0.51992600  0.90056200  0.05961500  1
  O  O22  1  0.55183200  0.83517600  0.80892900  1
  O  O23  1  0.57158600  0.19867600  0.31104600  1
  O  O24  1  0.59855600  0.11335600  0.77217900  1
  O  O25  1  0.62353600  0.16233500  0.57269300  1
  O  O26  1  0.62154400  0.68525600  0.56537400  1
  O  O27  1  0.70176400  0.59456500  0.84945000  1
  O  O28  1  0.72751500  0.98830300  0.43280100  1
  O  O29  1  0.74398100  0.92323900  0.63624500  1
  O  O30  1  0.75601900  0.07676100  0.13624500  1
  O  O31  1  0.77248500  0.01169700  0.93280100  1
  O  O32  1  0.79823600  0.40543500  0.34945000  1
  O  O33  1  0.87845600  0.31474400  0.06537400  1
  O  O34  1  0.87646400  0.83766500  0.07269300  1
  O  O35  1  0.90144400  0.88664400  0.27217900  1
  O  O36  1  0.92841400  0.80132400  0.81104600  1
  O  O37  1  0.94816800  0.16482400  0.30892900  1
  O  O38  1  0.98007400  0.09943800  0.55961500  1
  O  O39  1  0.98756600  0.05947500  0.76185400  1
loop_
_geom_bond_atom_site_label_1
_geom_bond_atom_site_label_2
_geom_bond_distance
_geom_bond_site_symmetry_2
K0 O6 2.651083 1_555
K0 O36 2.804853 1_455
K0 O15 2.829030 1_555
K0 O0 2.859080 1_555
K0 O8 2.994178 1_555
K0 O29 3.210357 1_455
K0 O12 3.242982 1_565
K1 O13 2.806545 1_565
K1 O36 2.817074 1_455
K1 O39 2.904571 1_465
K1 O21 2.927341 1_556
K1 O14 3.006358 1_555
K1 O7 3.021464 1_556
K1 O22 3.076265 1_555
K1 O31 3.227932 1_465
K1 O34 3.250379 1_456
K2 O6 2.806545 1_545
K2 O23 2.817074 1_555
K2 O20 2.904571 1_545
K2 O38 2.927341 1_455
K2 O5 3.006358 1_555
K2 O12 3.021464 1_555
K2 O37 3.076265 1_455
K2 O28 3.227932 1_545
K2 O25 3.250379 1_555
K3 O13 2.651083 1_554
K3 O23 2.804853 1_555
K3 O4 2.829030 1_555
K3 O19 2.859080 1_555
K3 O11 2.994178 1_555
K3 O30 3.210357 1_555
K3 O7 3.242982 1_545
K4 O26 2.651083 1_555
K4 O16 2.804853 1_555
K4 O35 2.829030 1_555
K4 O20 2.859080 1_555
K4 O28 2.994178 1_555
K4 O9 3.210357 1_555
K4 O32 3.242982 1_555
K5 O33 2.806545 1_555
K5 O16 2.817074 1_555
K5 O19 2.904571 1_555
K5 O1 2.927341 1_654
K5 O34 3.006358 1_555
K5 O27 3.021464 1_554
K5 O2 3.076265 1_655
K5 O11 3.227932 1_555
K5 O14 3.250379 1_554
K6 O26 2.806545 1_555
K6 O3 2.817074 1_655
K6 O0 2.904571 1_655
K6 O18 2.927341 1_555
K6 O25 3.006358 1_555
K6 O32 3.021464 1_555
K6 O17 3.076265 1_555
K6 O8 3.227932 1_655
K6 O5 3.250379 1_655
K7 O33 2.651083 1_556
K7 O3 2.804853 1_655
K7 O24 2.829030 1_555
K7 O39 2.859080 1_555
K7 O31 2.994178 1_555
K7 O10 3.210357 1_655
K7 O27 3.242982 1_555
H0 O6 0.994127 1_555
H0 K2 2.949603 1_565
H1 O6 1.001270 1_555
H2 O13 1.001270 1_555
H3 O13 0.994127 1_555
H3 K1 2.949603 1_545
H4 O26 0.994127 1_555
H4 K6 2.949603 1_555
H5 O26 1.001270 1_555
H6 O33 1.001270 1_555
H7 O33 0.994127 1_555
H7 K5 2.949603 1_555
O0 Si10 1.624113 1_455
O0 Ti0 2.000913 1_555
O1 Si10 1.660287 1_455
O1 Si2 1.661831 1_555
O2 Si0 1.625744 1_555
O2 Ti1 1.925700 1_555
O3 Si1 1.625119 1_555
O3 Ti0 1.971734 1_555
O4 Si11 1.626879 1_455
O4 Ti1 1.998924 1_555
O5 Si11 1.651334 1_455
O5 Si3 1.665561 1_555
O7 Si4 1.658374 1_555
O7 Si0 1.660674 1_555
O8 Si3 1.617185 1_555
O8 Ti0 1.969274 1_555
O9 Si3 1.637454 1_555
O9 Ti1 2.042219 1_555
O10 Si2 1.637454 1_555
O10 Ti0 2.042219 1_555
O11 Si2 1.617185 1_554
O11 Ti1 1.969274 1_555
O12 Si1 1.658374 1_555
O12 Si5 1.660674 1_555
O14 Si6 1.651334 1_555
O14 Si2 1.665561 1_555
O15 Si6 1.626879 1_555
O15 Ti0 1.998924 1_555
O16 Si4 1.625119 1_555
O16 Ti1 1.971734 1_555
O17 Si5 1.625744 1_555
O17 Ti0 1.925700 1_555
O18 Si7 1.660287 1_555
O18 Si3 1.661831 1_555
O19 Si7 1.624113 1_555
O19 Ti1 2.000913 1_555
O20 Si4 1.624113 1_555
O20 Ti2 2.000913 1_565
O21 Si4 1.660287 1_555
O21 Si8 1.661831 1_555
O22 Si6 1.625744 1_555
O22 Ti3 1.925700 1_555
O23 Si7 1.625119 1_555
O23 Ti2 1.971734 1_555
O24 Si5 1.626879 1_555
O24 Ti3 1.998924 1_545
O25 Si5 1.651334 1_555
O25 Si9 1.665561 1_555
O27 Si10 1.658374 1_555
O27 Si6 1.660674 1_555
O28 Si9 1.617185 1_565
O28 Ti2 1.969274 1_565
O29 Si9 1.637454 1_565
O29 Ti3 2.042219 1_555
O30 Si8 1.637454 1_545
O30 Ti2 2.042219 1_555
O31 Si8 1.617185 1_546
O31 Ti3 1.969274 1_545
O32 Si7 1.658374 1_555
O32 Si11 1.660674 1_555
O34 Si0 1.651334 1_655
O34 Si8 1.665561 1_555
O35 Si0 1.626879 1_655
O35 Ti2 1.998924 1_565
O36 Si10 1.625119 1_555
O36 Ti3 1.971734 1_555
O37 Si11 1.625744 1_555
O37 Ti2 1.925700 1_555
O38 Si1 1.660287 1_655
O38 Si9 1.661831 1_555
O39 Si1 1.624113 1_655
O39 Ti3 2.000913 1_545
