# generated using pymatgen
data_Li2NbFe3O8
_symmetry_space_group_name_H-M   'P 1'
_cell_length_a   6.00715043
_cell_length_b   6.00715043
_cell_length_c   9.81189600
_cell_angle_alpha   90.00000000
_cell_angle_beta   90.00000000
_cell_angle_gamma   120.00000473
_symmetry_Int_Tables_number   1
_chemical_formula_structural   Li2NbFe3O8
_chemical_formula_sum   'Li4 Nb2 Fe6 O16'
_cell_volume   306.63417938
_cell_formula_units_Z   2
loop_
 _symmetry_equiv_pos_site_id
 _symmetry_equiv_pos_as_xyz
  1  'x, y, z'
loop_
 _atom_site_type_symbol
 _atom_site_label
 _atom_site_symmetry_multiplicity
 _atom_site_fract_x
 _atom_site_fract_y
 _atom_site_fract_z
 _atom_site_occupancy
  Li  Li0  1  0.33333300  0.66666700  0.90201900  1
  Li  Li1  1  0.00000000  0.00000000  0.99049900  1
  Li  Li2  1  0.00000000  0.00000000  0.49049900  1
  Li  Li3  1  0.66666700  0.33333300  0.40201900  1
  Nb  Nb0  1  0.33333300  0.66666700  0.49350000  1
  Nb  Nb1  1  0.66666700  0.33333300  0.99350000  1
  Fe  Fe0  1  0.17124900  0.82875100  0.21705900  1
  Fe  Fe1  1  0.17124900  0.34249900  0.21705900  1
  Fe  Fe2  1  0.65750100  0.82875100  0.21705900  1
  Fe  Fe3  1  0.34249900  0.17124900  0.71705900  1
  Fe  Fe4  1  0.82875100  0.65750100  0.71705900  1
  Fe  Fe5  1  0.82875100  0.17124900  0.71705900  1
  O  O0  1  0.16762700  0.83237300  0.59140000  1
  O  O1  1  0.03678700  0.51839300  0.34371800  1
  O  O2  1  0.33333300  0.66666700  0.10782200  1
  O  O3  1  0.00000000  0.00000000  0.30374200  1
  O  O4  1  0.00000000  0.00000000  0.80374200  1
  O  O5  1  0.16762700  0.33525300  0.59140000  1
  O  O6  1  0.48160700  0.96321300  0.34371800  1
  O  O7  1  0.48160700  0.51839300  0.34371800  1
  O  O8  1  0.33525300  0.16762700  0.09140000  1
  O  O9  1  0.66474700  0.83237300  0.59140000  1
  O  O10  1  0.51839300  0.48160700  0.84371800  1
  O  O11  1  0.51839300  0.03678700  0.84371800  1
  O  O12  1  0.66666700  0.33333300  0.60782200  1
  O  O13  1  0.83237300  0.66474700  0.09140000  1
  O  O14  1  0.96321300  0.48160700  0.84371800  1
  O  O15  1  0.83237300  0.16762700  0.09140000  1
loop_
_geom_bond_atom_site_label_1
_geom_bond_atom_site_label_2
_geom_bond_distance
_geom_bond_site_symmetry_2
Li0 O11 2.008669 1_565
Li0 O14 2.008669 1_455
Li0 O10 2.008669 1_555
Li0 O2 2.019318 1_556
Li1 O4 1.832440 1_555
Li1 O13 2.005505 1_446
Li1 O8 2.005505 1_556
Li1 O15 2.005510 1_456
Li2 O3 1.832440 1_555
Li2 O5 2.005505 1_555
Li2 O9 2.005505 1_445
Li2 O0 2.005510 1_545
Li3 O1 2.008669 1_655
Li3 O6 2.008669 1_545
Li3 O7 2.008669 1_555
Li3 O12 2.019318 1_555
Nb0 O0 1.973654 1_555
Nb0 O5 1.973663 1_555
Nb0 O9 1.973663 1_555
Nb0 O1 2.130701 1_555
Nb0 O6 2.130701 1_555
Nb0 O7 2.130709 1_555
Nb1 O15 1.973654 1_556
Nb1 O8 1.973663 1_556
Nb1 O13 1.973663 1_556
Nb1 O11 2.130701 1_555
Nb1 O14 2.130701 1_555
Nb1 O10 2.130709 1_555
Fe0 O3 1.974380 1_565
Fe0 O2 1.998215 1_555
Fe0 O1 2.041287 1_555
Fe0 O6 2.041287 1_555
Fe0 O13 2.151565 1_455
Fe0 O8 2.151565 1_565
Fe1 O3 1.974385 1_555
Fe1 O2 1.998214 1_555
Fe1 O1 2.041278 1_555
Fe1 O7 2.041286 1_555
Fe1 O15 2.151565 1_455
Fe1 O8 2.151565 1_555
Fe2 O3 1.974385 1_665
Fe2 O2 1.998214 1_555
Fe2 O6 2.041278 1_555
Fe2 O7 2.041286 1_555
Fe2 O15 2.151565 1_565
Fe2 O13 2.151565 1_555
Fe3 O4 1.974385 1_555
Fe3 O12 1.998214 1_555
Fe3 O11 2.041278 1_555
Fe3 O10 2.041286 1_555
Fe3 O0 2.151565 1_545
Fe3 O5 2.151565 1_555
Fe4 O4 1.974385 1_665
Fe4 O12 1.998214 1_555
Fe4 O14 2.041278 1_555
Fe4 O10 2.041286 1_555
Fe4 O0 2.151565 1_655
Fe4 O9 2.151565 1_555
Fe5 O4 1.974380 1_655
Fe5 O12 1.998215 1_555
Fe5 O11 2.041287 1_555
Fe5 O14 2.041287 1_555
Fe5 O5 2.151565 1_655
Fe5 O9 2.151565 1_545
