# generated using pymatgen
data_Al2O3
_symmetry_space_group_name_H-M   'P 1'
_cell_length_a   5.31266725
_cell_length_b   12.01665701
_cell_length_c   3.15695200
_cell_angle_alpha   90.00000000
_cell_angle_beta   109.36810811
_cell_angle_gamma   90.00000000
_symmetry_Int_Tables_number   1
_chemical_formula_structural   Al2O3
_chemical_formula_sum   'Al8 O12'
_cell_volume   190.13564295
_cell_formula_units_Z   4
loop_
 _symmetry_equiv_pos_site_id
 _symmetry_equiv_pos_as_xyz
  1  'x, y, z'
loop_
 _atom_site_type_symbol
 _atom_site_label
 _atom_site_symmetry_multiplicity
 _atom_site_fract_x
 _atom_site_fract_y
 _atom_site_fract_z
 _atom_site_occupancy
  Al  Al0  1  0.15805897  0.83422061  0.57781244  1
  Al  Al1  1  0.17806832  0.56678665  0.35912863  1
  Al  Al2  1  0.32193168  0.06678665  0.14087137  1
  Al  Al3  1  0.34194103  0.33422061  0.92218756  1
  Al  Al4  1  0.65805897  0.66577939  0.07781244  1
  Al  Al5  1  0.67806832  0.93321335  0.85912863  1
  Al  Al6  1  0.82193168  0.43321335  0.64087137  1
  Al  Al7  1  0.84194103  0.16577939  0.42218756  1
  O  O0  1  0.00607253  0.87375243  0.98772651  1
  O  O1  1  0.00566462  0.69444943  0.40929628  1
  O  O2  1  0.30987195  0.99206513  0.63675692  1
  O  O3  1  0.19012805  0.49206513  0.86324308  1
  O  O4  1  0.49392747  0.37375243  0.51227349  1
  O  O5  1  0.49433538  0.19444943  0.09070372  1
  O  O6  1  0.50566462  0.80555057  0.90929628  1
  O  O7  1  0.50607253  0.62624757  0.48772651  1
  O  O8  1  0.80987195  0.50793487  0.13675692  1
  O  O9  1  0.69012805  0.00793487  0.36324308  1
  O  O10  1  0.99433538  0.30555057  0.59070372  1
  O  O11  1  0.99392747  0.12624757  0.01227349  1
loop_
_geom_bond_atom_site_label_1
_geom_bond_atom_site_label_2
_geom_bond_distance
_geom_bond_site_symmetry_2
Al0 O0 1.801484 1_555
Al0 O6 1.828211 1_555
Al0 O0 1.830371 1_554
Al0 O1 1.863819 1_555
Al0 O2 2.045308 1_555
Al1 O7 1.800751 1_555
Al1 O3 1.809825 1_555
Al1 O1 1.820334 1_555
Al1 O3 1.824174 1_554
Al1 O8 1.976990 1_455
Al2 O11 1.800751 1_455
Al2 O2 1.809825 1_544
Al2 O5 1.820334 1_555
Al2 O2 1.824174 1_545
Al2 O9 1.976990 1_555
Al3 O4 1.801484 1_555
Al3 O10 1.828211 1_455
Al3 O4 1.830371 1_556
Al3 O5 1.863819 1_556
Al3 O3 2.045308 1_555
Al4 O7 1.801484 1_555
Al4 O1 1.828211 1_655
Al4 O7 1.830371 1_554
Al4 O6 1.863819 1_554
Al4 O8 2.045308 1_555
Al5 O0 1.800751 1_655
Al5 O9 1.809825 1_566
Al5 O6 1.820334 1_555
Al5 O9 1.824174 1_565
Al5 O2 1.976990 1_555
Al6 O4 1.800751 1_555
Al6 O8 1.809825 1_555
Al6 O10 1.820334 1_555
Al6 O8 1.824174 1_556
Al6 O3 1.976990 1_655
Al7 O11 1.801484 1_555
Al7 O5 1.828211 1_555
Al7 O11 1.830371 1_556
Al7 O10 1.863819 1_555
Al7 O9 2.045308 1_555
