# generated using pymatgen
data_Li2Co3SbO8
_symmetry_space_group_name_H-M   'P 1'
_cell_length_a   8.25882500
_cell_length_b   8.25882500
_cell_length_c   8.25882500
_cell_angle_alpha   90.00000000
_cell_angle_beta   90.00000000
_cell_angle_gamma   90.00000000
_symmetry_Int_Tables_number   1
_chemical_formula_structural   Li2Co3SbO8
_chemical_formula_sum   'Li8 Co12 Sb4 O32'
_cell_volume   563.31950792
_cell_formula_units_Z   4
loop_
 _symmetry_equiv_pos_site_id
 _symmetry_equiv_pos_as_xyz
  1  'x, y, z'
loop_
 _atom_site_type_symbol
 _atom_site_label
 _atom_site_symmetry_multiplicity
 _atom_site_fract_x
 _atom_site_fract_y
 _atom_site_fract_z
 _atom_site_occupancy
  Li  Li0  1  0.99605800  0.99605800  0.99605800  1
  Li  Li1  1  0.25394200  0.25394200  0.25394200  1
  Li  Li2  1  0.24605800  0.74605800  0.75394200  1
  Li  Li3  1  0.50394200  0.00394200  0.49605800  1
  Li  Li4  1  0.49605800  0.50394200  0.00394200  1
  Li  Li5  1  0.75394200  0.24605800  0.74605800  1
  Li  Li6  1  0.74605800  0.75394200  0.24605800  1
  Li  Li7  1  0.00394200  0.49605800  0.50394200  1
  Co  Co0  1  0.11794800  0.13205200  0.62500000  1
  Co  Co1  1  0.12500000  0.38205200  0.86794800  1
  Co  Co2  1  0.13205200  0.62500000  0.11794800  1
  Co  Co3  1  0.36794800  0.37500000  0.61794800  1
  Co  Co4  1  0.37500000  0.61794800  0.36794800  1
  Co  Co5  1  0.38205200  0.86794800  0.12500000  1
  Co  Co6  1  0.61794800  0.36794800  0.37500000  1
  Co  Co7  1  0.62500000  0.11794800  0.13205200  1
  Co  Co8  1  0.63205200  0.87500000  0.88205200  1
  Co  Co9  1  0.86794800  0.12500000  0.38205200  1
  Co  Co10  1  0.87500000  0.88205200  0.63205200  1
  Co  Co11  1  0.88205200  0.63205200  0.87500000  1
  Sb  Sb0  1  0.12500000  0.87500000  0.37500000  1
  Sb  Sb1  1  0.37500000  0.12500000  0.87500000  1
  Sb  Sb2  1  0.62500000  0.62500000  0.62500000  1
  Sb  Sb3  1  0.87500000  0.37500000  0.12500000  1
  O  O0  1  0.10586000  0.11972400  0.39012600  1
  O  O1  1  0.10987400  0.89414000  0.61972400  1
  O  O2  1  0.11218800  0.61218800  0.88781200  1
  O  O3  1  0.13027600  0.14414000  0.85987400  1
  O  O4  1  0.11972400  0.39012600  0.10586000  1
  O  O5  1  0.13781200  0.36218800  0.63781200  1
  O  O6  1  0.14012600  0.63027600  0.35586000  1
  O  O7  1  0.14414000  0.85987400  0.13027600  1
  O  O8  1  0.35586000  0.14012600  0.63027600  1
  O  O9  1  0.35987400  0.36972400  0.85586000  1
  O  O10  1  0.36218800  0.63781200  0.13781200  1
  O  O11  1  0.38027600  0.60987400  0.60586000  1
  O  O12  1  0.36972400  0.85586000  0.35987400  1
  O  O13  1  0.38781200  0.38781200  0.38781200  1
  O  O14  1  0.39012600  0.10586000  0.11972400  1
  O  O15  1  0.39414000  0.88027600  0.89012600  1
  O  O16  1  0.60586000  0.38027600  0.60987400  1
  O  O17  1  0.60987400  0.60586000  0.38027600  1
  O  O18  1  0.61218800  0.88781200  0.11218800  1
  O  O19  1  0.63027600  0.35586000  0.14012600  1
  O  O20  1  0.61972400  0.10987400  0.89414000  1
  O  O21  1  0.63781200  0.13781200  0.36218800  1
  O  O22  1  0.64012600  0.86972400  0.64414000  1
  O  O23  1  0.64414000  0.64012600  0.86972400  1
  O  O24  1  0.85586000  0.35987400  0.36972400  1
  O  O25  1  0.85987400  0.13027600  0.14414000  1
  O  O26  1  0.86218800  0.86218800  0.86218800  1
  O  O27  1  0.88027600  0.89012600  0.39414000  1
  O  O28  1  0.86972400  0.64414000  0.64012600  1
  O  O29  1  0.88781200  0.11218800  0.61218800  1
  O  O30  1  0.89012600  0.39414000  0.88027600  1
  O  O31  1  0.89414000  0.61972400  0.10987400  1
loop_
_geom_bond_atom_site_label_1
_geom_bond_atom_site_label_2
_geom_bond_distance
_geom_bond_site_symmetry_2
Li0 O26 1.914971 1_555
Li0 O7 1.997353 1_656
Li0 O25 1.997353 1_566
Li0 O3 1.997353 1_665
Li1 O13 1.914971 1_555
Li1 O0 1.997353 1_555
Li1 O14 1.997353 1_555
Li1 O4 1.997353 1_555
Li2 O2 1.914971 1_555
Li2 O11 1.997353 1_555
Li2 O15 1.997353 1_555
Li2 O1 1.997353 1_555
Li3 O21 1.914971 1_555
Li3 O8 1.997353 1_555
Li3 O12 1.997353 1_545
Li3 O22 1.997353 1_545
Li4 O10 1.914971 1_555
Li4 O19 1.997353 1_555
Li4 O9 1.997353 1_554
Li4 O23 1.997353 1_554
Li5 O29 1.914971 1_555
Li5 O16 1.997353 1_555
Li5 O30 1.997353 1_555
Li5 O20 1.997353 1_555
Li6 O18 1.914971 1_555
Li6 O17 1.997353 1_555
Li6 O27 1.997353 1_555
Li6 O31 1.997353 1_555
Li7 O5 1.914971 1_555
Li7 O6 1.997353 1_555
Li7 O24 1.997353 1_455
Li7 O28 1.997353 1_455
Co0 O5 1.910652 1_555
Co0 O29 1.910652 1_455
Co0 O3 1.945017 1_555
Co0 O0 1.945017 1_555
Co0 O1 1.966488 1_545
Co0 O8 1.966488 1_555
Co1 O2 1.910652 1_555
Co1 O5 1.910652 1_555
Co1 O9 1.945017 1_555
Co1 O30 1.945017 1_455
Co1 O3 1.966488 1_555
Co1 O4 1.966488 1_556
Co2 O10 1.910652 1_555
Co2 O2 1.910652 1_554
Co2 O7 1.945017 1_555
Co2 O4 1.945017 1_555
Co2 O31 1.966488 1_455
Co2 O6 1.966488 1_555
Co3 O13 1.910652 1_555
Co3 O5 1.910652 1_555
Co3 O11 1.945017 1_555
Co3 O8 1.945017 1_555
Co3 O16 1.966488 1_555
Co3 O9 1.966488 1_555
Co4 O13 1.910652 1_555
Co4 O10 1.910652 1_555
Co4 O17 1.945017 1_555
Co4 O6 1.945017 1_555
Co4 O11 1.966488 1_555
Co4 O12 1.966488 1_555
Co5 O18 1.910652 1_555
Co5 O10 1.910652 1_555
Co5 O12 1.945017 1_555
Co5 O15 1.945017 1_554
Co5 O7 1.966488 1_555
Co5 O14 1.966488 1_565
Co6 O13 1.910652 1_555
Co6 O21 1.910652 1_555
Co6 O16 1.945017 1_555
Co6 O19 1.945017 1_555
Co6 O17 1.966488 1_555
Co6 O24 1.966488 1_555
Co7 O21 1.910652 1_555
Co7 O18 1.910652 1_545
Co7 O25 1.945017 1_555
Co7 O14 1.945017 1_555
Co7 O20 1.966488 1_554
Co7 O19 1.966488 1_555
Co8 O18 1.910652 1_556
Co8 O26 1.910652 1_555
Co8 O20 1.945017 1_565
Co8 O23 1.945017 1_555
Co8 O15 1.966488 1_555
Co8 O22 1.966488 1_555
Co9 O29 1.910652 1_555
Co9 O21 1.910652 1_555
Co9 O24 1.945017 1_555
Co9 O27 1.945017 1_545
Co9 O25 1.966488 1_555
Co9 O0 1.966488 1_655
Co10 O29 1.910652 1_565
Co10 O26 1.910652 1_555
Co10 O1 1.945017 1_655
Co10 O22 1.945017 1_555
Co10 O27 1.966488 1_555
Co10 O28 1.966488 1_555
Co11 O2 1.910652 1_655
Co11 O26 1.910652 1_555
Co11 O31 1.945017 1_556
Co11 O28 1.945017 1_555
Co11 O30 1.966488 1_555
Co11 O23 1.966488 1_555
O0 Sb0 2.031150 1_545
O1 Sb0 2.031150 1_555
O3 Sb1 2.031150 1_555
O4 Sb3 2.031150 1_455
O6 Sb0 2.031150 1_555
O7 Sb0 2.031150 1_555
O8 Sb1 2.031150 1_555
O9 Sb1 2.031150 1_555
O11 Sb2 2.031150 1_555
O12 Sb0 2.031150 1_555
O14 Sb1 2.031150 1_554
O15 Sb1 2.031150 1_565
O16 Sb2 2.031150 1_555
O17 Sb2 2.031150 1_555
O19 Sb3 2.031150 1_555
O20 Sb1 2.031150 1_555
O22 Sb2 2.031150 1_555
O23 Sb2 2.031150 1_555
O24 Sb3 2.031150 1_555
O25 Sb3 2.031150 1_555
O27 Sb0 2.031150 1_655
O28 Sb2 2.031150 1_555
O30 Sb3 2.031150 1_556
O31 Sb3 2.031150 1_555
