# generated using pymatgen
data_Li4V3P8O29
_symmetry_space_group_name_H-M   'P 1'
_cell_length_a   9.75828700
_cell_length_b   9.77469152
_cell_length_c   14.17003139
_cell_angle_alpha   89.92144197
_cell_angle_beta   90.18259432
_cell_angle_gamma   119.85570161
_symmetry_Int_Tables_number   1
_chemical_formula_structural   Li4V3P8O29
_chemical_formula_sum   'Li8 V6 P16 O58'
_cell_volume   1172.21027022
_cell_formula_units_Z   2
loop_
 _symmetry_equiv_pos_site_id
 _symmetry_equiv_pos_as_xyz
  1  'x, y, z'
loop_
 _atom_site_type_symbol
 _atom_site_label
 _atom_site_symmetry_multiplicity
 _atom_site_fract_x
 _atom_site_fract_y
 _atom_site_fract_z
 _atom_site_occupancy
  Li  Li0  1  0.66599200  0.90195200  0.55892300  1
  Li  Li1  1  0.23557400  0.33451900  0.56087300  1
  Li  Li2  1  0.09226300  0.31739800  0.05507200  1
  Li  Li3  1  0.22638000  0.91609000  0.05962800  1
  Li  Li4  1  0.09764500  0.76922800  0.56065900  1
  Li  Li5  1  0.77709700  0.08479700  0.93858700  1
  Li  Li6  1  0.90911000  0.68123300  0.94069500  1
  Li  Li7  1  0.00576400  0.00647200  0.50351600  1
  V  V0  1  0.99753400  0.43237600  0.25593000  1
  V  V1  1  0.00161600  0.56774900  0.74556300  1
  V  V2  1  0.56493100  0.99807000  0.74919300  1
  V  V3  1  0.43856800  0.00501200  0.25309900  1
  V  V4  1  0.56589300  0.56625000  0.24732000  1
  V  V5  1  0.43456400  0.43398300  0.75157900  1
  P  P0  1  0.68586200  0.76933500  0.84294300  1
  P  P1  1  0.68910000  0.91131200  0.33941400  1
  P  P2  1  0.22903500  0.31248200  0.34427500  1
  P  P3  1  0.32833800  0.66624700  0.13207200  1
  P  P4  1  0.33466700  0.66484600  0.62815800  1
  P  P5  1  0.08920700  0.32132900  0.84049300  1
  P  P6  1  0.91461900  0.22280600  0.65949400  1
  P  P7  1  0.23174200  0.91189000  0.84339500  1
  P  P8  1  0.77328300  0.09089200  0.15790100  1
  P  P9  1  0.08930400  0.77662200  0.34177700  1
  P  P10  1  0.91060700  0.68097900  0.16058400  1
  P  P11  1  0.66589400  0.33577100  0.36870000  1
  P  P12  1  0.67074200  0.33571300  0.86812400  1
  P  P13  1  0.77305300  0.69243600  0.65748700  1
  P  P14  1  0.30597900  0.08484400  0.66167500  1
  P  P15  1  0.31272700  0.22660700  0.16083300  1
  O  O0  1  0.78524600  0.79329100  0.57505000  1
  O  O1  1  0.65644000  0.74029100  0.32887600  1
  O  O2  1  0.76548200  0.01243100  0.06720500  1
  O  O3  1  0.66335800  0.91521300  0.84066700  1
  O  O4  1  0.52343200  0.61780400  0.82183300  1
  O  O5  1  0.47279900  0.65893600  0.17797800  1
  O  O6  1  0.38500500  0.46847000  0.32858200  1
  O  O7  1  0.22232000  0.23162600  0.07841800  1
  O  O8  1  0.25667300  0.34201000  0.83305200  1
  O  O9  1  0.49027000  0.80912600  0.66623100  1
  O  O10  1  0.53020700  0.91179800  0.32529400  1
  O  O11  1  0.32381700  0.50991300  0.67270400  1
  O  O12  1  0.32408700  0.65998300  0.02746800  1
  O  O13  1  0.33178500  0.65267400  0.52294700  1
  O  O14  1  0.17852500  0.51932800  0.17547300  1
  O  O15  1  0.38177400  0.90071700  0.81892800  1
  O  O16  1  0.33442200  0.81936800  0.17217400  1
  O  O17  1  0.08775100  0.34357500  0.32996500  1
  O  O18  1  0.98806000  0.20149500  0.75809600  1
  O  O19  1  0.00537800  0.20554400  0.58028900  1
  O  O20  1  0.00631700  0.24938800  0.93144400  1
  O  O21  1  0.09924300  0.48123200  0.81990400  1
  O  O22  1  0.19068000  0.67867700  0.66618100  1
  O  O23  1  0.91954900  0.25999800  0.16338600  1
  O  O24  1  0.08815000  0.61799700  0.32875000  1
  O  O25  1  0.26063800  0.91531100  0.32986700  1
  O  O26  1  0.79516600  0.00198200  0.24856400  1
  O  O27  1  0.76999800  0.98419700  0.42992400  1
  O  O28  1  0.19588400  0.99565300  0.58213700  1
  O  O29  1  0.74145000  0.08266600  0.66169800  1
  O  O30  1  0.91663100  0.38024300  0.66754700  1
  O  O31  1  0.08304000  0.74542600  0.83511400  1
  O  O32  1  0.81402300  0.33169500  0.32508900  1
  O  O33  1  0.90354200  0.52215500  0.18018400  1
  O  O34  1  0.99940700  0.75761600  0.07223000  1
  O  O35  1  0.01912500  0.78901300  0.43216100  1
  O  O36  1  0.99869900  0.79308300  0.25083200  1
  O  O37  1  0.91347700  0.65890400  0.65874300  1
  O  O38  1  0.67105900  0.18532000  0.82978900  1
  O  O39  1  0.62035600  0.09746700  0.17970100  1
  O  O40  1  0.81835000  0.48662900  0.82762400  1
  O  O41  1  0.66450900  0.33992000  0.97266500  1
  O  O42  1  0.66566100  0.33135100  0.47276900  1
  O  O43  1  0.66706100  0.48146700  0.32257800  1
  O  O44  1  0.46085500  0.08150900  0.66819000  1
  O  O45  1  0.51679000  0.18587800  0.32377300  1
  O  O46  1  0.74178300  0.65673200  0.16411400  1
  O  O47  1  0.79494800  0.79193100  0.75228700  1
  O  O48  1  0.76472000  0.75590100  0.92891500  1
  O  O49  1  0.61477900  0.53610200  0.66958500  1
  O  O50  1  0.52406100  0.33827900  0.81847900  1
  O  O51  1  0.47291900  0.38063200  0.17621900  1
  O  O52  1  0.34026500  0.08286900  0.16031300  1
  O  O53  1  0.24411500  0.98731300  0.93570800  1
  O  O54  1  0.21294300  0.01256300  0.75992000  1
  O  O55  1  0.33954400  0.25900900  0.66245200  1
  O  O56  1  0.21304700  0.23156700  0.43589800  1
  O  O57  1  0.21308700  0.19950000  0.25776100  1
loop_
_geom_bond_atom_site_label_1
_geom_bond_atom_site_label_2
_geom_bond_distance
_geom_bond_site_symmetry_2
Li0 O0 1.939801 1_555
Li0 O27 2.052580 1_555
Li0 O29 2.118617 1_565
Li0 O9 2.130607 1_555
Li1 O19 1.973428 1_555
Li1 O56 1.994806 1_555
Li1 O55 2.092673 1_555
Li1 O11 2.172730 1_555
Li2 O7 1.865207 1_555
Li2 O20 1.911254 1_554
Li2 O23 2.140942 1_455
Li2 O14 2.420961 1_555
Li3 O53 1.864567 1_554
Li3 O34 1.980623 1_455
Li3 O52 2.029931 1_565
Li3 O16 2.350805 1_555
Li4 O28 1.948737 1_555
Li4 O35 2.019297 1_555
Li4 O37 2.099200 1_455
Li4 O22 2.152015 1_555
Li5 O2 1.937199 1_556
Li5 O20 2.004971 1_655
Li5 O3 2.017319 1_545
Li5 O38 2.326131 1_555
Li6 O48 1.888883 1_555
Li6 O34 2.036210 1_556
Li6 O31 2.113282 1_655
Li6 O40 2.300394 1_555
Li7 O28 2.208189 1_545
Li7 O19 2.232267 1_555
Li7 O56 2.329384 1_555
Li7 O0 2.354533 1_445
Li7 O35 2.416638 1_545
Li7 O27 2.431979 1_445
O0 P13 1.493818 1_555
O1 P1 1.545416 1_555
O1 V4 1.874197 1_555
O2 P8 1.479723 1_555
O3 P0 1.547283 1_555
O3 V2 2.005555 1_555
O4 P0 1.567297 1_555
O4 V5 1.849203 1_555
O5 P3 1.584236 1_555
O5 V4 1.850085 1_555
O6 P2 1.543198 1_555
O6 V4 1.919742 1_555
O7 P15 1.476785 1_555
O8 P5 1.547470 1_555
O8 V5 1.900147 1_555
O9 P4 1.565367 1_555
O9 V2 1.996124 1_555
O10 P1 1.565098 1_555
O10 V3 1.865264 1_565
O11 P4 1.594140 1_555
O11 V5 1.938181 1_555
O12 P3 1.483185 1_555
O13 P4 1.494807 1_555
O14 P3 1.578227 1_555
O14 V0 1.912355 1_455
O15 P7 1.561448 1_555
O15 V2 1.841663 1_555
O16 P3 1.574871 1_555
O16 V3 1.950068 1_565
O17 P2 1.565091 1_555
O17 V0 1.838878 1_455
O18 P5 1.598368 1_655
O18 P6 1.628065 1_555
O19 P6 1.492692 1_455
O20 P5 1.499184 1_555
O21 P5 1.544090 1_555
O21 V1 1.877693 1_555
O22 P4 1.573827 1_555
O22 V1 1.965434 1_555
O23 P8 1.557621 1_555
O23 V0 1.964904 1_555
O24 P9 1.556172 1_555
O24 V0 1.881645 1_455
O25 P9 1.551166 1_555
O25 V3 1.860241 1_565
O26 P1 1.614332 1_545
O26 P8 1.622124 1_555
O27 P1 1.487188 1_555
O28 P14 1.498987 1_565
O29 P6 1.558358 1_555
O29 V2 1.944385 1_545
O30 P6 1.533623 1_555
O30 V1 1.937897 1_655
O31 P7 1.554222 1_555
O31 V1 1.970658 1_555
O32 P11 1.592483 1_555
O32 V0 1.841081 1_555
O33 P10 1.544145 1_555
O33 V0 1.885716 1_555
O34 P10 1.495842 1_555
O35 P9 1.487468 1_555
O36 P9 1.613118 1_655
O36 P10 1.622977 1_555
O37 P13 1.559636 1_555
O37 V1 1.949461 1_655
O38 P12 1.569346 1_555
O38 V2 1.959026 1_545
O39 P8 1.557245 1_555
O39 V3 1.859654 1_555
O40 P12 1.570858 1_555
O40 V1 1.943700 1_655
O41 P12 1.484257 1_555
O42 P11 1.475210 1_555
O43 P11 1.561013 1_555
O43 V4 1.898438 1_555
O44 P14 1.530308 1_555
O44 V2 1.956737 1_545
O45 P11 1.594725 1_555
O45 V3 1.835065 1_555
O46 P10 1.544168 1_555
O46 V4 1.901829 1_555
O47 P13 1.609611 1_555
O47 P0 1.614302 1_555
O48 P0 1.479078 1_555
O49 P13 1.549541 1_555
O49 V5 1.923806 1_555
O50 P12 1.604231 1_555
O50 V5 1.828170 1_555
O51 P15 1.553489 1_555
O51 V4 1.868250 1_555
O52 P15 1.556350 1_555
O52 V3 1.985968 1_555
O53 P7 1.477219 1_555
O54 P7 1.605079 1_545
O54 P14 1.621164 1_555
O55 P14 1.565394 1_555
O55 V5 1.949221 1_555
O56 P2 1.486976 1_555
O57 P2 1.605635 1_555
O57 P15 1.628816 1_555
