# generated using pymatgen
data_Li6Cr5O12
_symmetry_space_group_name_H-M   'P 1'
_cell_length_a   8.79636300
_cell_length_b   5.11482000
_cell_length_c   9.83853568
_cell_angle_alpha   80.37568437
_cell_angle_beta   90.00000000
_cell_angle_gamma   90.00000000
_symmetry_Int_Tables_number   1
_chemical_formula_structural   Li6Cr5O12
_chemical_formula_sum   'Li12 Cr10 O24'
_cell_volume   436.42328949
_cell_formula_units_Z   2
loop_
 _symmetry_equiv_pos_site_id
 _symmetry_equiv_pos_as_xyz
  1  'x, y, z'
loop_
 _atom_site_type_symbol
 _atom_site_label
 _atom_site_symmetry_multiplicity
 _atom_site_fract_x
 _atom_site_fract_y
 _atom_site_fract_z
 _atom_site_occupancy
  Li  Li0  1  0.23669600  0.00140900  0.75807800  1
  Li  Li1  1  0.59432500  0.99684700  0.75987100  1
  Li  Li2  1  0.09432500  0.00315300  0.24012900  1
  Li  Li3  1  0.73669600  0.99859100  0.24192200  1
  Li  Li4  1  0.41234400  0.49965100  0.75920400  1
  Li  Li5  1  0.76078200  0.50634800  0.75734000  1
  Li  Li6  1  0.75188800  0.75493700  0.99147100  1
  Li  Li7  1  0.58227100  0.50242200  0.24530400  1
  Li  Li8  1  0.26078200  0.49365200  0.24266000  1
  Li  Li9  1  0.91234400  0.50034900  0.24079600  1
  Li  Li10  1  0.08227100  0.49757800  0.75469600  1
  Li  Li11  1  0.25188800  0.24506300  0.00852900  1
  Cr  Cr0  1  0.58115000  0.75000500  0.49691600  1
  Cr  Cr1  1  0.08115000  0.24999500  0.50308400  1
  Cr  Cr2  1  0.41562600  0.24490500  0.49946000  1
  Cr  Cr3  1  0.75032000  0.24888100  0.50364300  1
  Cr  Cr4  1  0.25032000  0.75111900  0.49635700  1
  Cr  Cr5  1  0.91562600  0.75509500  0.50054000  1
  Cr  Cr6  1  0.92233700  0.23651000  0.99591900  1
  Cr  Cr7  1  0.42233700  0.76349000  0.00408100  1
  Cr  Cr8  1  0.07514800  0.73791400  0.99510800  1
  Cr  Cr9  1  0.57514800  0.26208600  0.00489200  1
  O  O0  1  0.58653500  0.11979900  0.39457900  1
  O  O1  1  0.24473400  0.12224700  0.39170500  1
  O  O2  1  0.91546800  0.12128000  0.39190600  1
  O  O3  1  0.74558900  0.15771300  0.89324000  1
  O  O4  1  0.07009200  0.10891900  0.89079400  1
  O  O5  1  0.41546800  0.87872000  0.60809400  1
  O  O6  1  0.74473400  0.87775300  0.60829500  1
  O  O7  1  0.08653500  0.88020100  0.60542100  1
  O  O8  1  0.43002400  0.11037600  0.88958600  1
  O  O9  1  0.93002400  0.88962400  0.11041400  1
  O  O10  1  0.57009200  0.89108100  0.10920600  1
  O  O11  1  0.24558900  0.84228700  0.10676000  1
  O  O12  1  0.08182300  0.61781700  0.38976200  1
  O  O13  1  0.41589500  0.60723800  0.39186400  1
  O  O14  1  0.74922000  0.61951000  0.38647500  1
  O  O15  1  0.24650800  0.64812600  0.88539600  1
  O  O16  1  0.24922000  0.38049000  0.61352500  1
  O  O17  1  0.91589500  0.39276200  0.60813600  1
  O  O18  1  0.58182300  0.38218300  0.61023800  1
  O  O19  1  0.93223000  0.59585200  0.88812800  1
  O  O20  1  0.56865500  0.61232200  0.89023800  1
  O  O21  1  0.06865500  0.38767800  0.10976200  1
  O  O22  1  0.43223000  0.40414800  0.11187200  1
  O  O23  1  0.74650800  0.35187400  0.11460400  1
loop_
_geom_bond_atom_site_label_1
_geom_bond_atom_site_label_2
_geom_bond_distance
_geom_bond_site_symmetry_2
Li0 O15 2.021099 1_545
Li0 O4 2.096454 1_555
Li0 O7 2.167062 1_545
Li0 O16 2.207299 1_555
Li0 O8 2.262251 1_555
Li0 O5 2.313824 1_545
Li1 O8 2.074231 1_565
Li1 O3 2.128423 1_565
Li1 O6 2.156202 1_555
Li1 O20 2.172742 1_555
Li1 O18 2.256927 1_565
Li1 O5 2.317718 1_555
Li2 O9 2.074231 1_445
Li2 O11 2.128423 1_545
Li2 O1 2.156202 1_555
Li2 O21 2.172742 1_555
Li2 O12 2.256927 1_545
Li2 O2 2.317718 1_455
Li3 O23 2.021099 1_565
Li3 O10 2.096454 1_555
Li3 O0 2.167062 1_565
Li3 O14 2.207299 1_555
Li3 O9 2.262251 1_555
Li3 O2 2.313824 1_565
Li4 O20 2.032994 1_555
Li4 O15 2.135740 1_555
Li4 O16 2.185580 1_555
Li4 O8 2.186327 1_555
Li4 O5 2.237501 1_555
Li4 O18 2.241857 1_555
Li5 O3 2.046502 1_555
Li5 O19 2.082482 1_555
Li5 O17 2.153889 1_555
Li5 O6 2.201706 1_555
Li5 O20 2.257557 1_555
Li5 O18 2.298547 1_555
Li6 O20 2.089225 1_555
Li6 O19 2.118729 1_555
Li6 O3 2.124965 1_565
Li6 O9 2.137499 1_556
Li6 O10 2.157227 1_556
Li6 O23 2.210184 1_556
Li7 O22 1.984590 1_555
Li7 O23 2.159788 1_555
Li7 O14 2.173132 1_555
Li7 O13 2.183329 1_555
Li7 O10 2.205944 1_555
Li7 O0 2.242165 1_555
Li8 O11 2.046502 1_555
Li8 O22 2.082482 1_555
Li8 O13 2.153889 1_555
Li8 O1 2.201706 1_555
Li8 O21 2.257557 1_555
Li8 O12 2.298547 1_555
Li9 O21 2.032994 1_655
Li9 O23 2.135740 1_555
Li9 O14 2.185580 1_555
Li9 O9 2.186327 1_555
Li9 O2 2.237501 1_555
Li9 O12 2.241857 1_655
Li10 O19 1.984590 1_455
Li10 O15 2.159788 1_555
Li10 O16 2.173132 1_555
Li10 O17 2.183329 1_455
Li10 O4 2.205944 1_555
Li10 O7 2.242165 1_555
Li11 O21 2.089225 1_555
Li11 O22 2.118729 1_555
Li11 O11 2.124965 1_545
Li11 O8 2.137499 1_554
Li11 O4 2.157227 1_554
Li11 O15 2.210184 1_554
Cr0 O6 1.984366 1_555
Cr0 O0 1.989149 1_565
Cr0 O13 1.991712 1_555
Cr0 O5 1.998673 1_555
Cr0 O14 2.013538 1_555
Cr0 O18 2.020191 1_555
Cr1 O1 1.984366 1_555
Cr1 O7 1.989149 1_545
Cr1 O17 1.991712 1_455
Cr1 O2 1.998673 1_455
Cr1 O16 2.013538 1_555
Cr1 O12 2.020191 1_555
Cr2 O13 1.974645 1_555
Cr2 O0 1.988759 1_555
Cr2 O5 1.995242 1_545
Cr2 O1 1.999902 1_555
Cr2 O18 2.018417 1_555
Cr2 O16 2.035481 1_555
Cr3 O0 1.974801 1_555
Cr3 O17 1.993173 1_555
Cr3 O2 1.996180 1_555
Cr3 O18 2.000155 1_555
Cr3 O6 2.003091 1_545
Cr3 O14 2.047420 1_555
Cr4 O7 1.974801 1_555
Cr4 O13 1.993173 1_555
Cr4 O5 1.996180 1_555
Cr4 O12 2.000155 1_555
Cr4 O1 2.003091 1_565
Cr4 O16 2.047420 1_555
Cr5 O17 1.974645 1_555
Cr5 O7 1.988759 1_655
Cr5 O2 1.995242 1_565
Cr5 O6 1.999902 1_555
Cr5 O12 2.018417 1_655
Cr5 O14 2.035481 1_555
Cr6 O4 1.846768 1_655
Cr6 O3 1.932955 1_555
Cr6 O9 1.937316 1_546
Cr6 O21 1.948963 1_656
Cr6 O19 1.964338 1_555
Cr6 O23 2.081875 1_556
Cr7 O10 1.846768 1_555
Cr7 O11 1.932955 1_555
Cr7 O8 1.937316 1_564
Cr7 O20 1.948963 1_554
Cr7 O22 1.964338 1_555
Cr7 O15 2.081875 1_554
Cr8 O19 1.863321 1_455
Cr8 O21 1.951696 1_556
Cr8 O9 1.952703 1_456
Cr8 O15 1.952913 1_555
Cr8 O11 1.983822 1_556
Cr8 O4 2.001259 1_565
Cr9 O22 1.863321 1_555
Cr9 O20 1.951696 1_554
Cr9 O8 1.952703 1_554
Cr9 O23 1.952913 1_555
Cr9 O3 1.983822 1_554
Cr9 O10 2.001259 1_545
