# generated using pymatgen
data_Li2VF6
_symmetry_space_group_name_H-M   'P 1'
_cell_length_a   5.23021800
_cell_length_b   5.20005500
_cell_length_c   9.21503242
_cell_angle_alpha   55.99188280
_cell_angle_beta   90.00000000
_cell_angle_gamma   90.00000000
_symmetry_Int_Tables_number   1
_chemical_formula_structural   Li2VF6
_chemical_formula_sum   'Li4 V2 F12'
_cell_volume   207.75778293
_cell_formula_units_Z   2
loop_
 _symmetry_equiv_pos_site_id
 _symmetry_equiv_pos_as_xyz
  1  'x, y, z'
loop_
 _atom_site_type_symbol
 _atom_site_label
 _atom_site_symmetry_multiplicity
 _atom_site_fract_x
 _atom_site_fract_y
 _atom_site_fract_z
 _atom_site_occupancy
  Li  Li0  1  0.23831100  0.49566100  0.50259200  1
  Li  Li1  1  0.29343700  0.71728600  0.77463700  1
  Li  Li2  1  0.76168900  0.49566100  0.00259200  1
  Li  Li3  1  0.70656300  0.71728600  0.27463700  1
  V  V0  1  0.25001500  0.00175800  0.99941200  1
  V  V1  1  0.74998500  0.00175800  0.49941200  1
  F  F0  1  0.19171700  0.35969000  0.76793500  1
  F  F1  1  0.94230500  0.06689300  0.07417300  1
  F  F2  1  0.92540700  0.74414000  0.44094500  1
  F  F3  1  0.43485900  0.26590500  0.03990300  1
  F  F4  1  0.46381200  0.89434600  0.43209800  1
  F  F5  1  0.67144200  0.67481700  0.73301200  1
  F  F6  1  0.80828300  0.35969000  0.26793500  1
  F  F7  1  0.05769500  0.06689300  0.57417300  1
  F  F8  1  0.07459300  0.74414000  0.94094500  1
  F  F9  1  0.56514100  0.26590500  0.53990300  1
  F  F10  1  0.53618800  0.89434600  0.93209800  1
  F  F11  1  0.32855800  0.67481700  0.23301200  1
loop_
_geom_bond_atom_site_label_1
_geom_bond_atom_site_label_2
_geom_bond_distance
_geom_bond_site_symmetry_2
F0 V0 1.914708 1_555
F0 Li1 1.968028 1_555
F0 Li0 2.145720 1_555
F1 V0 1.854858 1_654
F1 Li3 2.116850 1_545
F1 Li2 2.157202 1_555
F2 V1 1.932370 1_565
F2 Li0 1.962008 1_655
F2 Li3 1.979309 1_555
F3 V0 1.879869 1_554
F3 Li2 2.002034 1_555
F3 Li1 2.369295 1_554
F4 V1 1.823340 1_565
F4 Li0 2.145835 1_555
F4 Li3 2.461623 1_555
F5 V1 1.897136 1_565
F5 Li1 2.049239 1_555
F5 Li2 2.161725 1_556
F6 V1 1.914708 1_555
F6 Li3 1.968028 1_555
F6 Li2 2.145720 1_555
F7 V1 1.854858 1_455
F7 Li1 2.116850 1_545
F7 Li0 2.157202 1_555
F8 V0 1.932370 1_565
F8 Li2 1.962008 1_456
F8 Li1 1.979309 1_555
F9 V1 1.879869 1_555
F9 Li0 2.002034 1_555
F9 Li3 2.369295 1_555
F10 V0 1.823340 1_565
F10 Li2 2.145835 1_556
F10 Li1 2.461623 1_555
F11 V0 1.897136 1_564
F11 Li3 2.049239 1_555
F11 Li0 2.161725 1_555
