# generated using pymatgen
data_Li3V2(O2F)2
_symmetry_space_group_name_H-M   'P 1'
_cell_length_a   8.95202600
_cell_length_b   5.13998000
_cell_length_c   7.37529012
_cell_angle_alpha   88.49295601
_cell_angle_beta   90.00000000
_cell_angle_gamma   90.00000000
_symmetry_Int_Tables_number   1
_chemical_formula_structural   Li3V2(O2F)2
_chemical_formula_sum   'Li9 V6 O12 F6'
_cell_volume   339.24356925
_cell_formula_units_Z   3
loop_
 _symmetry_equiv_pos_site_id
 _symmetry_equiv_pos_as_xyz
  1  'x, y, z'
loop_
 _atom_site_type_symbol
 _atom_site_label
 _atom_site_symmetry_multiplicity
 _atom_site_fract_x
 _atom_site_fract_y
 _atom_site_fract_z
 _atom_site_occupancy
  Li  Li0  1  0.16617500  0.68266500  0.36917000  1
  Li  Li1  1  0.16666600  0.31098600  0.62486300  1
  Li  Li2  1  0.00000000  0.13752700  0.36136800  1
  Li  Li3  1  0.83382500  0.68266500  0.36917000  1
  Li  Li4  1  0.83333400  0.31098600  0.62486300  1
  Li  Li5  1  0.67778800  0.85099200  0.64549500  1
  Li  Li6  1  0.50000000  0.71128200  0.36512800  1
  Li  Li7  1  0.50000000  0.31694600  0.59933300  1
  Li  Li8  1  0.32221200  0.85099200  0.64549500  1
  V  V0  1  0.16646300  0.00377800  0.00163300  1
  V  V1  1  0.00000000  0.50792900  0.99074900  1
  V  V2  1  0.83353700  0.00377800  0.00163300  1
  V  V3  1  0.66710900  0.49502800  0.00327500  1
  V  V4  1  0.50000000  0.99769600  0.00915400  1
  V  V5  1  0.33289100  0.49502800  0.00327500  1
  O  O0  1  0.17160900  0.68764100  0.86160900  1
  O  O1  1  0.16088100  0.31782600  0.13681900  1
  O  O2  1  0.00000000  0.16709500  0.85436000  1
  O  O3  1  0.00000000  0.84121100  0.14916000  1
  O  O4  1  0.82839100  0.68764100  0.86160900  1
  O  O5  1  0.83911900  0.31782600  0.13681900  1
  O  O6  1  0.66798000  0.15614800  0.85463200  1
  O  O7  1  0.66738700  0.83038800  0.14812200  1
  O  O8  1  0.50000000  0.68218900  0.86589900  1
  O  O9  1  0.50000000  0.31211200  0.13630200  1
  O  O10  1  0.33202000  0.15614800  0.85463200  1
  O  O11  1  0.33261300  0.83038800  0.14812200  1
  F  F0  1  0.16624700  0.99744000  0.49800400  1
  F  F1  1  0.00000000  0.47184900  0.48239700  1
  F  F2  1  0.83375300  0.99744000  0.49800400  1
  F  F3  1  0.66842000  0.52223700  0.51291900  1
  F  F4  1  0.50000000  0.97724000  0.53235300  1
  F  F5  1  0.33158000  0.52223700  0.51291900  1
loop_
_geom_bond_atom_site_label_1
_geom_bond_atom_site_label_2
_geom_bond_distance
_geom_bond_site_symmetry_2
Li0 O11 2.321474 1_555
Li0 O3 2.332480 1_555
Li0 O1 2.573813 1_555
Li1 O2 2.360537 1_555
Li1 O10 2.371776 1_555
Li2 O3 2.212378 1_545
Li2 O1 2.365381 1_555
Li2 O5 2.365381 1_455
Li3 O7 2.321474 1_555
Li3 O3 2.332480 1_655
Li3 O5 2.573813 1_555
Li4 O2 2.360537 1_655
Li4 O6 2.371776 1_555
Li5 O6 2.230310 1_565
Li5 O4 2.234446 1_555
Li5 O8 2.419521 1_555
Li6 O7 2.264985 1_555
Li6 O11 2.264985 1_555
Li7 O10 2.531377 1_555
Li7 O6 2.531377 1_555
Li8 O10 2.230310 1_565
Li8 O0 2.234446 1_555
Li8 O8 2.419521 1_555
O0 V0 1.948671 1_566
O0 V1 2.018461 1_555
O0 V5 2.025332 1_556
O1 V0 1.920124 1_555
O1 V5 2.030659 1_555
O1 V1 2.033275 1_554
O2 V0 2.014234 1_556
O2 V2 2.014234 1_456
O2 V1 2.042946 1_555
O3 V2 2.013676 1_465
O3 V0 2.013676 1_565
O3 V1 2.098773 1_554
O4 V2 1.948671 1_566
O4 V1 2.018461 1_655
O4 V3 2.025332 1_556
O5 V2 1.920124 1_555
O5 V3 2.030659 1_555
O5 V1 2.033275 1_654
O6 V2 1.985113 1_556
O6 V4 2.043179 1_546
O6 V3 2.082388 1_556
O7 V4 1.997251 1_555
O7 V2 2.030563 1_565
O7 V3 2.051682 1_555
O8 V4 1.958654 1_556
O8 V3 2.034365 1_556
O8 V5 2.034365 1_556
O9 V4 1.889669 1_545
O9 V3 2.008960 1_555
O9 V5 2.008960 1_555
O10 V0 1.985113 1_556
O10 V4 2.043179 1_546
O10 V5 2.082388 1_556
O11 V4 1.997251 1_555
O11 V0 2.030563 1_565
O11 V5 2.051682 1_555
F0 Li1 1.884684 1_565
F0 Li0 1.897747 1_555
F0 Li8 1.912123 1_555
F0 Li2 1.926317 1_565
F1 Li2 1.957138 1_555
F1 Li1 1.991995 1_555
F1 Li4 1.991995 1_455
F1 Li0 2.009203 1_555
F1 Li3 2.009203 1_455
F2 Li4 1.884684 1_565
F2 Li3 1.897747 1_555
F2 Li5 1.912123 1_555
F2 Li2 1.926317 1_665
F3 Li7 1.938402 1_555
F3 Li5 1.976211 1_555
F3 Li3 1.987582 1_555
F3 Li4 1.998253 1_555
F3 Li6 2.085600 1_555
F4 Li7 1.827076 1_565
F4 Li6 1.865083 1_555
F4 Li5 1.903153 1_555
F4 Li8 1.903153 1_555
F5 Li7 1.938402 1_555
F5 Li8 1.976211 1_555
F5 Li0 1.987582 1_555
F5 Li1 1.998253 1_555
F5 Li6 2.085600 1_555
