# generated using pymatgen
data_K3NaFeCl6
_symmetry_space_group_name_H-M   'P 1'
_cell_length_a   7.77682688
_cell_length_b   7.77682688
_cell_length_c   7.77682698
_cell_angle_alpha   111.55878121
_cell_angle_beta   111.55878121
_cell_angle_gamma   111.55878944
_symmetry_Int_Tables_number   1
_chemical_formula_structural   K3NaFeCl6
_chemical_formula_sum   'K3 Na1 Fe1 Cl6'
_cell_volume   331.14347329
_cell_formula_units_Z   1
loop_
 _symmetry_equiv_pos_site_id
 _symmetry_equiv_pos_as_xyz
  1  'x, y, z'
loop_
 _atom_site_type_symbol
 _atom_site_label
 _atom_site_symmetry_multiplicity
 _atom_site_fract_x
 _atom_site_fract_y
 _atom_site_fract_z
 _atom_site_occupancy
  K  K0  1  0.00000000  0.50000000  0.50000000  1
  K  K1  1  0.50000000  0.00000000  0.50000000  1
  K  K2  1  0.50000000  0.50000000  0.00000000  1
  Na  Na0  1  0.00000000  0.00000000  0.00000000  1
  Fe  Fe0  1  0.50000000  0.50000000  0.50000000  1
  Cl  Cl0  1  0.53165900  0.80549000  0.80549000  1
  Cl  Cl1  1  0.19451000  0.46834100  0.19451000  1
  Cl  Cl2  1  0.19451000  0.19451000  0.46834100  1
  Cl  Cl3  1  0.80549000  0.53165900  0.80549000  1
  Cl  Cl4  1  0.80549000  0.80549000  0.53165900  1
  Cl  Cl5  1  0.46834100  0.19451000  0.19451000  1
loop_
_geom_bond_atom_site_label_1
_geom_bond_atom_site_label_2
_geom_bond_distance
_geom_bond_site_symmetry_2
Cl0 Fe0 2.518182 1_555
Cl0 Na0 2.839451 1_666
Cl0 K0 3.130124 1_555
Cl0 K2 3.236949 1_556
Cl0 K1 3.236950 1_565
Cl1 Fe0 2.518182 1_555
Cl1 Na0 2.839451 1_555
Cl1 K1 3.130124 1_565
Cl1 K2 3.236949 1_555
Cl1 K0 3.236950 1_555
Cl2 Fe0 2.518182 1_555
Cl2 Na0 2.839452 1_555
Cl2 K2 3.130124 1_556
Cl2 K0 3.236950 1_555
Cl2 K1 3.236950 1_555
Cl3 Fe0 2.518182 1_555
Cl3 Na0 2.839451 1_666
Cl3 K1 3.130124 1_555
Cl3 K2 3.236949 1_556
Cl3 K0 3.236950 1_655
Cl4 Fe0 2.518182 1_555
Cl4 Na0 2.839452 1_666
Cl4 K2 3.130124 1_555
Cl4 K1 3.236950 1_565
Cl4 K0 3.236950 1_655
Cl5 Fe0 2.518182 1_555
Cl5 Na0 2.839451 1_555
Cl5 K0 3.130124 1_655
Cl5 K2 3.236949 1_555
Cl5 K1 3.236950 1_555
