# generated using pymatgen
data_Li2Mn2(SO4)3
_symmetry_space_group_name_H-M   'P 1'
_cell_length_a   8.05941095
_cell_length_b   8.05941095
_cell_length_c   8.91876903
_cell_angle_alpha   68.18786506
_cell_angle_beta   68.18786506
_cell_angle_gamma   66.98424618
_symmetry_Int_Tables_number   1
_chemical_formula_structural   Li2Mn2(SO4)3
_chemical_formula_sum   'Li4 Mn4 S6 O24'
_cell_volume   477.34977191
_cell_formula_units_Z   2
loop_
 _symmetry_equiv_pos_site_id
 _symmetry_equiv_pos_as_xyz
  1  'x, y, z'
loop_
 _atom_site_type_symbol
 _atom_site_label
 _atom_site_symmetry_multiplicity
 _atom_site_fract_x
 _atom_site_fract_y
 _atom_site_fract_z
 _atom_site_occupancy
  Li  Li0  1  0.66647100  0.86970700  0.05278900  1
  Li  Li1  1  0.86970700  0.66647100  0.55278900  1
  Li  Li2  1  0.13029300  0.33352900  0.44721100  1
  Li  Li3  1  0.33352900  0.13029300  0.94721100  1
  Mn  Mn0  1  0.36524000  0.86945100  0.48471300  1
  Mn  Mn1  1  0.86945100  0.36524000  0.98471300  1
  Mn  Mn2  1  0.13054900  0.63476000  0.01528700  1
  Mn  Mn3  1  0.63476000  0.13054900  0.51528700  1
  S  S0  1  0.75350600  0.54342700  0.31974000  1
  S  S1  1  0.54342700  0.75350600  0.81974000  1
  S  S2  1  0.06164000  0.93836000  0.25000000  1
  S  S3  1  0.93836000  0.06164000  0.75000000  1
  S  S4  1  0.45657300  0.24649400  0.18026000  1
  S  S5  1  0.24649400  0.45657300  0.68026000  1
  O  O0  1  0.87891600  0.94685900  0.38269600  1
  O  O1  1  0.94685900  0.87891600  0.88269600  1
  O  O2  1  0.87540700  0.50615400  0.42509300  1
  O  O3  1  0.61986600  0.73572900  0.30846900  1
  O  O4  1  0.86960200  0.54401100  0.14029300  1
  O  O5  1  0.50615400  0.87540700  0.92509300  1
  O  O6  1  0.21270700  0.90026800  0.32374900  1
  O  O7  1  0.65593000  0.40151800  0.38096900  1
  O  O8  1  0.73572900  0.61986600  0.80846900  1
  O  O9  1  0.54401100  0.86960200  0.64029300  1
  O  O10  1  0.90026800  0.21270700  0.82374900  1
  O  O11  1  0.59848200  0.34407000  0.11903100  1
  O  O12  1  0.40151800  0.65593000  0.88096900  1
  O  O13  1  0.09973200  0.78729300  0.17625100  1
  O  O14  1  0.45598900  0.13039800  0.35970700  1
  O  O15  1  0.26427100  0.38013400  0.19153100  1
  O  O16  1  0.34407000  0.59848200  0.61903100  1
  O  O17  1  0.78729300  0.09973200  0.67625100  1
  O  O18  1  0.49384600  0.12459300  0.07490700  1
  O  O19  1  0.13039800  0.45598900  0.85970700  1
  O  O20  1  0.38013400  0.26427100  0.69153100  1
  O  O21  1  0.12459300  0.49384600  0.57490700  1
  O  O22  1  0.05314100  0.12108400  0.11730400  1
  O  O23  1  0.12108400  0.05314100  0.61730400  1
loop_
_geom_bond_atom_site_label_1
_geom_bond_atom_site_label_2
_geom_bond_distance
_geom_bond_site_symmetry_2
Li0 O5 1.994201 1_554
Li0 O18 2.014131 1_565
Li0 O3 2.087549 1_555
Li0 O1 2.216605 1_554
Li0 O4 2.499235 1_555
Li1 O2 1.994201 1_555
Li1 O21 2.014131 1_655
Li1 O8 2.087549 1_555
Li1 O0 2.216605 1_555
Li1 O9 2.499235 1_555
Li2 O21 1.994201 1_555
Li2 O2 2.014131 1_455
Li2 O15 2.087549 1_555
Li2 O23 2.216605 1_555
Li2 O14 2.499235 1_555
Li3 O18 1.994201 1_556
Li3 O5 2.014131 1_545
Li3 O20 2.087549 1_555
Li3 O22 2.216605 1_556
Li3 O19 2.499235 1_555
Mn0 O16 2.104458 1_555
Mn0 O6 2.107522 1_555
Mn0 O23 2.180810 1_565
Mn0 O3 2.230673 1_555
Mn0 O14 2.248391 1_565
Mn0 O9 2.342980 1_555
Mn1 O11 2.104458 1_556
Mn1 O10 2.107522 1_555
Mn1 O22 2.180810 1_656
Mn1 O8 2.230673 1_555
Mn1 O19 2.248391 1_655
Mn1 O4 2.342980 1_556
Mn2 O12 2.104458 1_554
Mn2 O13 2.107522 1_555
Mn2 O1 2.180810 1_454
Mn2 O15 2.230673 1_555
Mn2 O4 2.248391 1_455
Mn2 O19 2.342980 1_554
Mn3 O7 2.104458 1_555
Mn3 O17 2.107522 1_555
Mn3 O0 2.180810 1_545
Mn3 O20 2.230673 1_555
Mn3 O9 2.248391 1_545
Mn3 O14 2.342980 1_555
O0 S2 1.503402 1_655
O1 S3 1.503402 1_565
O2 S0 1.477769 1_555
O3 S0 1.493832 1_555
O4 S0 1.523793 1_555
O5 S1 1.477769 1_555
O6 S2 1.470370 1_555
O7 S0 1.464497 1_555
O8 S1 1.493832 1_555
O9 S1 1.523793 1_555
O10 S3 1.470370 1_555
O11 S4 1.464497 1_555
O12 S1 1.464497 1_555
O13 S2 1.470370 1_555
O14 S4 1.523793 1_555
O15 S4 1.493832 1_555
O16 S5 1.464497 1_555
O17 S3 1.470370 1_555
O18 S4 1.477769 1_555
O19 S5 1.523793 1_555
O20 S5 1.493832 1_555
O21 S5 1.477769 1_555
O22 S2 1.503402 1_545
O23 S3 1.503402 1_455
