# generated using pymatgen
data_Li2BiO3
_symmetry_space_group_name_H-M   'P 1'
_cell_length_a   5.53121565
_cell_length_b   5.53121565
_cell_length_c   5.66549313
_cell_angle_alpha   79.53381752
_cell_angle_beta   79.53381752
_cell_angle_gamma   119.29266676
_symmetry_Int_Tables_number   1
_chemical_formula_structural   Li2BiO3
_chemical_formula_sum   'Li4 Bi2 O6'
_cell_volume   141.06358660
_cell_formula_units_Z   2
loop_
 _symmetry_equiv_pos_site_id
 _symmetry_equiv_pos_as_xyz
  1  'x, y, z'
loop_
 _atom_site_type_symbol
 _atom_site_label
 _atom_site_symmetry_multiplicity
 _atom_site_fract_x
 _atom_site_fract_y
 _atom_site_fract_z
 _atom_site_occupancy
  Li  Li0  1  0.74327900  0.25480000  0.49430800  1
  Li  Li1  1  0.43495700  0.58742200  0.49619200  1
  Li  Li2  1  0.58742200  0.43495700  0.99619200  1
  Li  Li3  1  0.25480000  0.74327900  0.99430800  1
  Bi  Bi0  1  0.09969900  0.91889300  0.48948700  1
  Bi  Bi1  1  0.91889300  0.09969900  0.98948700  1
  O  O0  1  0.68782700  0.84475200  0.74063500  1
  O  O1  1  0.84475200  0.68782700  0.24063500  1
  O  O2  1  0.01069900  0.51136100  0.74256300  1
  O  O3  1  0.33091200  0.17780000  0.73461500  1
  O  O4  1  0.51136100  0.01069900  0.24256300  1
  O  O5  1  0.17780000  0.33091200  0.23461500  1
loop_
_geom_bond_atom_site_label_1
_geom_bond_atom_site_label_2
_geom_bond_distance
_geom_bond_site_symmetry_2
Li0 O3 2.224402 1_555
Li0 O4 2.274258 1_555
Li0 O0 2.280261 1_545
Li0 O1 2.293070 1_555
Li0 O2 2.367890 1_655
Li0 O5 2.370345 1_655
Li1 O3 2.149183 1_555
Li1 O1 2.196868 1_555
Li1 O2 2.294050 1_555
Li1 O4 2.305146 1_565
Li1 O0 2.317745 1_555
Li1 O5 2.405696 1_555
Li2 O5 2.149183 1_556
Li2 O0 2.196868 1_555
Li2 O4 2.294050 1_556
Li2 O2 2.305146 1_655
Li2 O1 2.317745 1_556
Li2 O3 2.405696 1_555
Li3 O5 2.224402 1_556
Li3 O2 2.274258 1_555
Li3 O1 2.280261 1_456
Li3 O0 2.293070 1_555
Li3 O4 2.367890 1_566
Li3 O3 2.370345 1_565
Bi0 O4 2.202903 1_565
Bi0 O2 2.205174 1_555
Bi0 O0 2.253632 1_455
Bi0 O5 2.253841 1_565
Bi0 O3 2.278319 1_565
Bi0 O1 2.285416 1_455
Bi1 O2 2.202903 1_655
Bi1 O4 2.205174 1_556
Bi1 O1 2.253632 1_546
Bi1 O3 2.253841 1_655
Bi1 O5 2.278319 1_656
Bi1 O0 2.285416 1_545
