# generated using pymatgen
data_Li4Cr3Fe3(WO8)2
_symmetry_space_group_name_H-M   'P 1'
_cell_length_a   5.98297500
_cell_length_b   5.98667569
_cell_length_c   9.70920264
_cell_angle_alpha   89.32963202
_cell_angle_beta   89.44447165
_cell_angle_gamma   60.05093090
_symmetry_Int_Tables_number   1
_chemical_formula_structural   Li4Cr3Fe3(WO8)2
_chemical_formula_sum   'Li4 Cr3 Fe3 W2 O16'
_cell_volume   301.30459149
_cell_formula_units_Z   1
loop_
 _symmetry_equiv_pos_site_id
 _symmetry_equiv_pos_as_xyz
  1  'x, y, z'
loop_
 _atom_site_type_symbol
 _atom_site_label
 _atom_site_symmetry_multiplicity
 _atom_site_fract_x
 _atom_site_fract_y
 _atom_site_fract_z
 _atom_site_occupancy
  Li  Li0  1  0.66823000  0.66791800  0.09151500  1
  Li  Li1  1  0.99858400  0.99635300  0.01099900  1
  Li  Li2  1  0.99548400  0.00434900  0.50962900  1
  Li  Li3  1  0.33359400  0.33171600  0.59528400  1
  Cr  Cr0  1  0.83243400  0.34042300  0.78505600  1
  Cr  Cr1  1  0.34096000  0.82989200  0.78523000  1
  Cr  Cr2  1  0.16961900  0.17243500  0.28609400  1
  Fe  Fe0  1  0.83214700  0.83069600  0.78856700  1
  Fe  Fe1  1  0.66058700  0.17117900  0.28968900  1
  Fe  Fe2  1  0.18438300  0.65545500  0.28205300  1
  W  W0  1  0.67070800  0.66932100  0.51466100  1
  W  W1  1  0.33849700  0.32884700  0.01249400  1
  O  O0  1  0.83192000  0.35212100  0.41130800  1
  O  O1  1  0.51983100  0.52006500  0.65687800  1
  O  O2  1  0.66499500  0.66265000  0.89014400  1
  O  O3  1  0.00203700  0.00280700  0.69532500  1
  O  O4  1  0.00485500  0.99401100  0.19829900  1
  O  O5  1  0.34332800  0.83068000  0.40927300  1
  O  O6  1  0.95939200  0.50985900  0.64898300  1
  O  O7  1  0.50697200  0.95920300  0.64799700  1
  O  O8  1  0.17093400  0.17044400  0.90673800  1
  O  O9  1  0.82575000  0.83076300  0.41511300  1
  O  O10  1  0.46546000  0.04020400  0.14829100  1
  O  O11  1  0.04102100  0.47534800  0.15212100  1
  O  O12  1  0.32324400  0.34340800  0.39173100  1
  O  O13  1  0.65615800  0.17661900  0.91162500  1
  O  O14  1  0.47817000  0.48260900  0.14480900  1
  O  O15  1  0.18100600  0.65032700  0.91225400  1
loop_
_geom_bond_atom_site_label_1
_geom_bond_atom_site_label_2
_geom_bond_distance
_geom_bond_site_symmetry_2
Li0 O2 1.956214 1_554
Li0 O14 2.006553 1_555
Li0 O10 2.014719 1_565
Li0 O11 2.022924 1_655
Li1 O4 1.819030 1_655
Li1 O13 2.024662 1_564
Li1 O15 2.042158 1_654
Li1 O8 2.049975 1_664
Li2 O3 1.803582 1_655
Li2 O9 2.011822 1_545
Li2 O0 2.034938 1_555
Li2 O5 2.045847 1_645
Li3 O12 1.977233 1_555
Li3 O7 1.996295 1_545
Li3 O6 2.006986 1_455
Li3 O1 2.038092 1_555
Cr0 O3 1.962189 1_655
Cr0 O2 1.965358 1_555
Cr0 O6 2.017386 1_555
Cr0 O1 2.051561 1_555
Cr0 O8 2.119774 1_655
Cr0 O13 2.136217 1_555
Cr1 O3 1.965378 1_565
Cr1 O2 1.968488 1_555
Cr1 O7 2.019682 1_555
Cr1 O1 2.045721 1_555
Cr1 O8 2.132008 1_565
Cr1 O15 2.136769 1_555
Cr2 O12 1.981572 1_555
Cr2 O4 1.981997 1_545
Cr2 O10 2.032134 1_555
Cr2 O11 2.035596 1_555
Cr2 O0 2.128438 1_455
Cr2 O5 2.130785 1_545
Fe0 O3 1.980012 1_665
Fe0 O2 1.986733 1_555
Fe0 O13 2.163622 1_565
Fe0 O6 2.164818 1_555
Fe0 O15 2.175444 1_655
Fe0 O7 2.184517 1_555
Fe1 O4 1.990014 1_645
Fe1 O12 2.006387 1_555
Fe1 O9 2.137108 1_545
Fe1 O14 2.140717 1_555
Fe1 O0 2.186470 1_555
Fe1 O10 2.198349 1_555
Fe2 O4 1.930723 1_555
Fe2 O12 1.932629 1_555
Fe2 O14 2.026519 1_555
Fe2 O11 2.113294 1_555
Fe2 O5 2.140008 1_555
Fe2 O9 2.259205 1_455
O0 W0 1.934013 1_555
O1 W0 2.066941 1_555
O5 W0 1.985757 1_555
O6 W0 1.990878 1_555
O7 W0 1.994458 1_555
O8 W1 1.987627 1_556
O9 W0 1.893327 1_555
O10 W1 1.989205 1_555
O11 W1 2.048702 1_555
O13 W1 1.912382 1_556
O14 W1 2.003154 1_555
O15 W1 1.924167 1_556
