# generated using pymatgen
data_LiFeF3
_symmetry_space_group_name_H-M   'P 1'
_cell_length_a   5.04873000
_cell_length_b   5.32897300
_cell_length_c   8.09265400
_cell_angle_alpha   90.00000000
_cell_angle_beta   90.00000000
_cell_angle_gamma   90.00000000
_symmetry_Int_Tables_number   1
_chemical_formula_structural   LiFeF3
_chemical_formula_sum   'Li4 Fe4 F12'
_cell_volume   217.72918063
_cell_formula_units_Z   4
loop_
 _symmetry_equiv_pos_site_id
 _symmetry_equiv_pos_as_xyz
  1  'x, y, z'
loop_
 _atom_site_type_symbol
 _atom_site_label
 _atom_site_symmetry_multiplicity
 _atom_site_fract_x
 _atom_site_fract_y
 _atom_site_fract_z
 _atom_site_occupancy
  Li  Li0  1  0.00000000  0.50000000  0.00000000  1
  Li  Li1  1  0.00000000  0.50000000  0.50000000  1
  Li  Li2  1  0.50000000  0.00000000  0.50000000  1
  Li  Li3  1  0.50000000  0.00000000  0.00000000  1
  Fe  Fe0  1  0.04069900  0.92558500  0.75000000  1
  Fe  Fe1  1  0.45930100  0.42558500  0.75000000  1
  Fe  Fe2  1  0.54069900  0.57441500  0.25000000  1
  Fe  Fe3  1  0.95930100  0.07441500  0.25000000  1
  F  F0  1  0.16724200  0.42510100  0.25000000  1
  F  F1  1  0.20366300  0.20320900  0.58982500  1
  F  F2  1  0.20366300  0.20320900  0.91017500  1
  F  F3  1  0.29633700  0.70320900  0.91017500  1
  F  F4  1  0.29633700  0.70320900  0.58982500  1
  F  F5  1  0.33275800  0.92510100  0.25000000  1
  F  F6  1  0.66724200  0.07489900  0.75000000  1
  F  F7  1  0.70366300  0.29679100  0.08982500  1
  F  F8  1  0.70366300  0.29679100  0.41017500  1
  F  F9  1  0.79633700  0.79679100  0.08982500  1
  F  F10  1  0.79633700  0.79679100  0.41017500  1
  F  F11  1  0.83275800  0.57489900  0.75000000  1
loop_
_geom_bond_atom_site_label_1
_geom_bond_atom_site_label_2
_geom_bond_distance
_geom_bond_site_symmetry_2
F0 Fe2 2.046502 1_555
F0 Fe3 2.143492 1_455
F0 Li0 2.228327 1_555
F0 Li1 2.228327 1_555
F1 Li2 1.984810 1_555
F1 Li1 2.021664 1_555
F1 Fe0 2.132124 1_545
F1 Fe1 2.179523 1_555
F2 Li3 1.984810 1_556
F2 Li0 2.021664 1_556
F2 Fe0 2.132124 1_545
F2 Fe1 2.179523 1_555
F3 Li0 1.984810 1_556
F3 Li3 2.021664 1_566
F3 Fe1 2.132124 1_555
F3 Fe0 2.179523 1_555
F4 Li1 1.984810 1_555
F4 Li2 2.021664 1_565
F4 Fe1 2.132124 1_555
F4 Fe0 2.179523 1_555
F5 Fe3 2.046502 1_465
F5 Fe2 2.143492 1_555
F5 Li2 2.228327 1_565
F5 Li3 2.228327 1_565
F6 Fe0 2.046502 1_645
F6 Fe1 2.143492 1_555
F6 Li2 2.228327 1_555
F6 Li3 2.228327 1_556
F7 Li0 1.984810 1_655
F7 Li3 2.021664 1_555
F7 Fe2 2.132124 1_555
F7 Fe3 2.179523 1_555
F8 Li1 1.984810 1_655
F8 Li2 2.021664 1_555
F8 Fe2 2.132124 1_555
F8 Fe3 2.179523 1_555
F9 Li3 1.984810 1_565
F9 Li0 2.021664 1_655
F9 Fe3 2.132124 1_565
F9 Fe2 2.179523 1_555
F10 Li2 1.984810 1_565
F10 Li1 2.021664 1_655
F10 Fe3 2.132124 1_565
F10 Fe2 2.179523 1_555
F11 Fe1 2.046502 1_555
F11 Fe0 2.143492 1_655
F11 Li1 2.228327 1_655
F11 Li0 2.228327 1_656
