# generated using pymatgen
data_Li3V5O12
_symmetry_space_group_name_H-M   'P 1'
_cell_length_a   5.03536500
_cell_length_b   5.07010449
_cell_length_c   9.16571879
_cell_angle_alpha   94.18246198
_cell_angle_beta   92.17114982
_cell_angle_gamma   112.45423630
_symmetry_Int_Tables_number   1
_chemical_formula_structural   Li3V5O12
_chemical_formula_sum   'Li3 V5 O12'
_cell_volume   215.13330819
_cell_formula_units_Z   1
loop_
 _symmetry_equiv_pos_site_id
 _symmetry_equiv_pos_as_xyz
  1  'x, y, z'
loop_
 _atom_site_type_symbol
 _atom_site_label
 _atom_site_symmetry_multiplicity
 _atom_site_fract_x
 _atom_site_fract_y
 _atom_site_fract_z
 _atom_site_occupancy
  Li  Li0  1  0.67308400  0.15125500  0.68765900  1
  Li  Li1  1  0.85312900  0.62286000  0.99601300  1
  Li  Li2  1  0.07761000  0.94466700  0.75261000  1
  V  V0  1  0.92913700  0.06486500  0.24562300  1
  V  V1  1  0.51222800  0.00920800  0.98102800  1
  V  V2  1  0.01478600  0.53714000  0.50850700  1
  V  V3  1  0.56584900  0.44374700  0.26915300  1
  V  V4  1  0.41713400  0.55648400  0.74070700  1
  O  O0  1  0.72010400  0.21282400  0.38932900  1
  O  O1  1  0.23738400  0.08529200  0.14525900  1
  O  O2  1  0.78526700  0.30102000  0.12083600  1
  O  O3  1  0.47177400  0.27391300  0.87330600  1
  O  O4  1  0.71705300  0.55611000  0.63936900  1
  O  O5  1  0.08290600  0.28102700  0.64906600  1
  O  O6  1  0.26147800  0.43268700  0.36607500  1
  O  O7  1  0.89833700  0.74986500  0.36570400  1
  O  O8  1  0.20851900  0.70122400  0.89854800  1
  O  O9  1  0.61663800  0.76276000  0.13688300  1
  O  O10  1  0.74253300  0.91671600  0.86583200  1
  O  O11  1  0.31757300  0.81348600  0.61397500  1
loop_
_geom_bond_atom_site_label_1
_geom_bond_atom_site_label_2
_geom_bond_distance
_geom_bond_site_symmetry_2
Li0 O5 1.966868 1_655
Li0 O11 1.997822 1_545
Li0 O4 2.061824 1_555
Li0 O10 2.181961 1_545
Li0 O3 2.183474 1_555
Li1 O8 1.946294 1_655
Li1 O2 1.991070 1_556
Li1 O9 2.053396 1_556
Li1 O10 2.190061 1_555
Li1 O3 2.243511 1_555
Li2 O10 1.978702 1_455
Li2 O5 2.003247 1_565
Li2 O11 2.030753 1_555
Li2 O8 2.131368 1_555
Li2 O3 2.232275 1_565
Li2 O4 2.254166 1_455
O0 V2 1.962178 1_655
O0 V0 1.992396 1_555
O0 V3 2.001340 1_555
O1 V0 1.807034 1_455
O1 V3 2.142080 1_555
O1 V1 2.193391 1_554
O2 V1 1.938400 1_554
O2 V0 2.016475 1_555
O2 V3 2.042903 1_555
O3 V1 1.790089 1_555
O3 V4 2.033492 1_555
O4 V4 1.803237 1_555
O4 V2 1.981179 1_655
O5 V4 1.847885 1_555
O5 V2 2.003588 1_555
O6 V3 1.784944 1_555
O6 V2 2.013042 1_555
O6 V0 2.161689 1_455
O7 V3 1.922868 1_555
O7 V2 1.962429 1_655
O7 V0 1.966275 1_565
O8 V1 1.806818 1_565
O8 V4 2.069818 1_555
O9 V0 1.906014 1_565
O9 V3 2.035881 1_555
O9 V1 2.140947 1_564
O10 V1 1.765090 1_565
O10 V4 2.145191 1_555
O11 V2 1.811372 1_555
O11 V4 1.993530 1_555
