# generated using pymatgen
data_Pb6CNO11
_symmetry_space_group_name_H-M   'P 1'
_cell_length_a   5.93230500
_cell_length_b   7.31190700
_cell_length_c   31.09193600
_cell_angle_alpha   90.00000000
_cell_angle_beta   90.00000000
_cell_angle_gamma   90.00000000
_symmetry_Int_Tables_number   1
_chemical_formula_structural   Pb6CNO11
_chemical_formula_sum   'Pb24 C4 N4 O44'
_cell_volume   1348.65819458
_cell_formula_units_Z   4
loop_
 _symmetry_equiv_pos_site_id
 _symmetry_equiv_pos_as_xyz
  1  'x, y, z'
loop_
 _atom_site_type_symbol
 _atom_site_label
 _atom_site_symmetry_multiplicity
 _atom_site_fract_x
 _atom_site_fract_y
 _atom_site_fract_z
 _atom_site_occupancy
  Pb  Pb0  1  0.75000000  0.55617300  0.91644700  1
  Pb  Pb1  1  0.75000000  0.94382700  0.41644700  1
  Pb  Pb2  1  0.25000000  0.44382700  0.08355300  1
  Pb  Pb3  1  0.25000000  0.05617300  0.58355300  1
  Pb  Pb4  1  0.25000000  0.83533600  0.84325600  1
  Pb  Pb5  1  0.25000000  0.66466400  0.34325600  1
  Pb  Pb6  1  0.75000000  0.16466400  0.15674400  1
  Pb  Pb7  1  0.75000000  0.33533600  0.65674400  1
  Pb  Pb8  1  0.75000000  0.19584000  0.80178900  1
  Pb  Pb9  1  0.75000000  0.30416000  0.30178900  1
  Pb  Pb10  1  0.25000000  0.80416000  0.19821100  1
  Pb  Pb11  1  0.25000000  0.69584000  0.69821100  1
  Pb  Pb12  1  0.25000000  0.32110800  0.86373100  1
  Pb  Pb13  1  0.25000000  0.17889200  0.36373100  1
  Pb  Pb14  1  0.75000000  0.67889200  0.13626900  1
  Pb  Pb15  1  0.75000000  0.82110800  0.63626900  1
  Pb  Pb16  1  0.25000000  0.80380600  0.96341700  1
  Pb  Pb17  1  0.25000000  0.69619400  0.46341700  1
  Pb  Pb18  1  0.75000000  0.19619400  0.03658300  1
  Pb  Pb19  1  0.75000000  0.30380600  0.53658300  1
  Pb  Pb20  1  0.75000000  0.03649400  0.90935900  1
  Pb  Pb21  1  0.75000000  0.46350600  0.40935900  1
  Pb  Pb22  1  0.25000000  0.96350600  0.09064100  1
  Pb  Pb23  1  0.25000000  0.53649400  0.59064100  1
  C  C0  1  0.25000000  0.27785300  0.96765900  1
  C  C1  1  0.25000000  0.22214700  0.46765900  1
  C  C2  1  0.75000000  0.72214700  0.03234100  1
  C  C3  1  0.75000000  0.77785300  0.53234100  1
  N  N0  1  0.75000000  0.73868500  0.75469700  1
  N  N1  1  0.75000000  0.76131500  0.25469700  1
  N  N2  1  0.25000000  0.26131500  0.24530300  1
  N  N3  1  0.25000000  0.23868500  0.74530300  1
  O  O0  1  0.00344700  0.77777100  0.90716700  1
  O  O1  1  0.49655300  0.72222900  0.40716700  1
  O  O2  1  0.50344700  0.22222900  0.09283300  1
  O  O3  1  0.99655300  0.27777100  0.59283300  1
  O  O4  1  0.99655300  0.22222900  0.09283300  1
  O  O5  1  0.50344700  0.27777100  0.59283300  1
  O  O6  1  0.49655300  0.77777100  0.90716700  1
  O  O7  1  0.00344700  0.72222900  0.40716700  1
  O  O8  1  0.00373800  0.08490500  0.85077400  1
  O  O9  1  0.49626200  0.41509500  0.35077400  1
  O  O10  1  0.50373800  0.91509500  0.14922600  1
  O  O11  1  0.99626200  0.58490500  0.64922600  1
  O  O12  1  0.99626200  0.91509500  0.14922600  1
  O  O13  1  0.50373800  0.58490500  0.64922600  1
  O  O14  1  0.49626200  0.08490500  0.85077400  1
  O  O15  1  0.00373800  0.41509500  0.35077400  1
  O  O16  1  0.25000000  0.14973300  0.93770900  1
  O  O17  1  0.25000000  0.35026700  0.43770900  1
  O  O18  1  0.75000000  0.85026700  0.06229100  1
  O  O19  1  0.75000000  0.64973300  0.56229100  1
  O  O20  1  0.25000000  0.22965800  0.00768600  1
  O  O21  1  0.25000000  0.27034200  0.50768600  1
  O  O22  1  0.75000000  0.77034200  0.99231400  1
  O  O23  1  0.75000000  0.72965800  0.49231400  1
  O  O24  1  0.25000000  0.44690100  0.95524100  1
  O  O25  1  0.25000000  0.05309900  0.45524100  1
  O  O26  1  0.75000000  0.55309900  0.04475900  1
  O  O27  1  0.75000000  0.94690100  0.54475900  1
  O  O28  1  0.75000000  0.43851200  0.85157700  1
  O  O29  1  0.75000000  0.06148800  0.35157700  1
  O  O30  1  0.25000000  0.56148800  0.14842300  1
  O  O31  1  0.25000000  0.93851200  0.64842300  1
  O  O32  1  0.75000000  0.79332300  0.79345100  1
  O  O33  1  0.75000000  0.70667700  0.29345100  1
  O  O34  1  0.25000000  0.20667700  0.20654900  1
  O  O35  1  0.25000000  0.29332300  0.70654900  1
  O  O36  1  0.75000000  0.85908400  0.72448100  1
  O  O37  1  0.75000000  0.64091600  0.22448100  1
  O  O38  1  0.25000000  0.14091600  0.27551900  1
  O  O39  1  0.25000000  0.35908400  0.77551900  1
  O  O40  1  0.75000000  0.57060400  0.74565000  1
  O  O41  1  0.75000000  0.92939600  0.24565000  1
  O  O42  1  0.25000000  0.42939600  0.25435000  1
  O  O43  1  0.25000000  0.07060400  0.75435000  1
loop_
_geom_bond_atom_site_label_1
_geom_bond_atom_site_label_2
_geom_bond_distance
_geom_bond_site_symmetry_2
C0 O20 1.293447 1_556
C0 O24 1.294962 1_555
C0 O16 1.320885 1_555
C1 O21 1.293447 1_555
C1 O25 1.294962 1_555
C1 O17 1.320885 1_555
C2 O22 1.293447 1_554
C2 O26 1.294962 1_555
C2 O18 1.320885 1_555
C3 O23 1.293447 1_555
C3 O27 1.294962 1_555
C3 O19 1.320885 1_555
N0 O40 1.260772 1_555
N0 O32 1.269441 1_555
N0 O36 1.287486 1_555
N1 O41 1.260772 1_555
N1 O33 1.269441 1_555
N1 O37 1.287486 1_555
N2 O42 1.260772 1_555
N2 O34 1.269441 1_555
N2 O38 1.287486 1_555
N3 O43 1.260772 1_555
N3 O35 1.269441 1_555
N3 O39 1.287486 1_555
O0 Pb0 2.229176 1_455
O0 Pb16 2.287847 1_555
O0 Pb20 2.417433 1_465
O0 Pb4 2.503014 1_555
O1 Pb1 2.229176 1_555
O1 Pb17 2.287847 1_555
O1 Pb21 2.417433 1_555
O1 Pb5 2.503014 1_555
O2 Pb2 2.229176 1_555
O2 Pb18 2.287847 1_555
O2 Pb22 2.417433 1_545
O2 Pb6 2.503014 1_555
O3 Pb3 2.229176 1_655
O3 Pb19 2.287847 1_555
O3 Pb23 2.417433 1_655
O3 Pb7 2.503014 1_555
O4 Pb2 2.229176 1_655
O4 Pb18 2.287847 1_555
O4 Pb22 2.417433 1_645
O4 Pb6 2.503014 1_555
O5 Pb3 2.229176 1_555
O5 Pb19 2.287847 1_555
O5 Pb23 2.417433 1_555
O5 Pb7 2.503014 1_555
O6 Pb0 2.229176 1_555
O6 Pb16 2.287847 1_555
O6 Pb20 2.417433 1_565
O6 Pb4 2.503014 1_555
O7 Pb1 2.229176 1_455
O7 Pb17 2.287847 1_555
O7 Pb21 2.417433 1_455
O7 Pb5 2.503014 1_555
O8 Pb8 2.289844 1_455
O8 Pb12 2.297691 1_555
O8 Pb4 2.349225 1_545
O8 Pb20 2.389356 1_455
O9 Pb9 2.289844 1_555
O9 Pb13 2.297691 1_555
O9 Pb5 2.349225 1_555
O9 Pb21 2.389356 1_555
O10 Pb10 2.289844 1_555
O10 Pb14 2.297691 1_555
O10 Pb6 2.349225 1_565
O10 Pb22 2.389356 1_555
O11 Pb11 2.289844 1_655
O11 Pb15 2.297691 1_555
O11 Pb7 2.349225 1_555
O11 Pb23 2.389356 1_655
O12 Pb10 2.289844 1_655
O12 Pb14 2.297691 1_555
O12 Pb6 2.349225 1_565
O12 Pb22 2.389356 1_655
O13 Pb11 2.289844 1_555
O13 Pb15 2.297691 1_555
O13 Pb7 2.349225 1_555
O13 Pb23 2.389356 1_555
O14 Pb8 2.289844 1_555
O14 Pb12 2.297691 1_555
O14 Pb4 2.349225 1_545
O14 Pb20 2.389356 1_555
O15 Pb9 2.289844 1_455
O15 Pb13 2.297691 1_555
O15 Pb5 2.349225 1_555
O15 Pb21 2.389356 1_455
O16 Pb12 2.619304 1_555
O16 Pb16 2.652677 1_545
O17 Pb13 2.619304 1_555
O17 Pb17 2.652677 1_555
O18 Pb14 2.619304 1_555
O18 Pb18 2.652677 1_565
O19 Pb15 2.619304 1_555
O19 Pb19 2.652677 1_555
O24 Pb16 2.622008 1_555
O25 Pb17 2.622008 1_545
O26 Pb18 2.622008 1_555
O27 Pb19 2.622008 1_565
O28 Pb0 2.192757 1_555
O28 Pb8 2.354740 1_555
O29 Pb1 2.192757 1_545
O29 Pb9 2.354740 1_555
O30 Pb2 2.192757 1_555
O30 Pb10 2.354740 1_555
O31 Pb3 2.192757 1_565
O31 Pb11 2.354740 1_555
O36 Pb15 2.756702 1_555
O37 Pb14 2.756702 1_555
O38 Pb13 2.756702 1_555
O39 Pb12 2.756702 1_555
