# generated using pymatgen
data_Zr2N2O
_symmetry_space_group_name_H-M   'P 1'
_cell_length_a   8.80133199
_cell_length_b   8.79867400
_cell_length_c   8.76717120
_cell_angle_alpha   109.29902883
_cell_angle_beta   109.39104799
_cell_angle_gamma   109.70131326
_symmetry_Int_Tables_number   1
_chemical_formula_structural   Zr2N2O
_chemical_formula_sum   'Zr16 N16 O8'
_cell_volume   522.77899442
_cell_formula_units_Z   8
loop_
 _symmetry_equiv_pos_site_id
 _symmetry_equiv_pos_as_xyz
  1  'x, y, z'
loop_
 _atom_site_type_symbol
 _atom_site_label
 _atom_site_symmetry_multiplicity
 _atom_site_fract_x
 _atom_site_fract_y
 _atom_site_fract_z
 _atom_site_occupancy
  Zr  Zr0  1  0.49916059  0.99844127  0.98662983  1
  Zr  Zr1  1  0.75836098  0.29315125  0.54536100  1
  Zr  Zr2  1  0.72116846  0.47191401  0.25001387  1
  Zr  Zr3  1  0.20984085  0.95988882  0.24407143  1
  Zr  Zr4  1  0.24575087  0.21231113  0.95365030  1
  Zr  Zr5  1  0.02778018  0.74288309  0.77456761  1
  Zr  Zr6  1  0.53104725  0.74746104  0.28816795  1
  Zr  Zr7  1  0.96541154  0.25025873  0.21786755  1
  Zr  Zr8  1  0.50407239  0.50870562  0.51270039  1
  Zr  Zr9  1  0.99971689  0.99855250  0.49880018  1
  Zr  Zr10  1  0.47044811  0.25783211  0.72484578  1
  Zr  Zr11  1  0.99838911  0.50789684  0.99952512  1
  Zr  Zr12  1  0.75770526  0.78850669  0.03911983  1
  Zr  Zr13  1  0.28305076  0.53249642  0.74500232  1
  Zr  Zr14  1  0.78093209  0.03076472  0.75286996  1
  Zr  Zr15  1  0.24801394  0.70665227  0.46276491  1
  N  N0  1  0.72749422  0.99320798  0.95827785  1
  N  N1  1  0.50983696  0.23867711  0.97079255  1
  N  N2  1  0.01551214  0.04628387  0.27623279  1
  N  N3  1  0.76683614  0.72763260  0.26190785  1
  N  N4  1  0.72636920  0.25603033  0.76778757  1
  N  N5  1  0.76786802  0.53722279  0.52709745  1
  N  N6  1  0.27392402  0.74136046  0.22678307  1
  N  N7  1  0.95736141  0.72883561  0.98818622  1
  N  N8  1  0.53846674  0.77059447  0.54164500  1
  N  N9  1  0.98940939  0.95919546  0.73161700  1
  N  N10  1  0.22614726  0.26993902  0.73852545  1
  N  N11  1  0.54684698  0.53267972  0.77320171  1
  N  N12  1  0.23016676  0.45586179  0.46741541  1
  N  N13  1  0.96420169  0.50629296  0.23835401  1
  N  N14  1  0.03213589  0.48425414  0.75836171  1
  N  N15  1  0.26474162  0.77953227  0.73002895  1
  O  O0  1  0.27881410  0.01496387  0.05265741  1
  O  O1  1  0.76090480  0.03339865  0.48159477  1
  O  O2  1  0.73761531  0.21866357  0.27454950  1
  O  O3  1  0.05121286  0.27539819  0.01863255  1
  O  O4  1  0.44480346  0.46477786  0.22358751  1
  O  O5  1  0.23748016  0.96720982  0.50930488  1
  O  O6  1  0.46175556  0.22517712  0.45246451  1
  O  O7  1  0.48924505  0.76509082  0.03503825  1
loop_
_geom_bond_atom_site_label_1
_geom_bond_atom_site_label_2
_geom_bond_distance
_geom_bond_site_symmetry_2
N0 Zr14 2.103433 1_565
N0 Zr0 2.118746 1_555
N0 Zr12 2.204210 1_556
N0 Zr7 2.218022 1_566
N1 Zr0 2.136544 1_545
N1 Zr10 2.140390 1_555
N1 Zr2 2.178516 1_556
N1 Zr4 2.204601 1_555
N2 Zr3 2.153557 1_545
N2 Zr7 2.160561 1_455
N2 Zr9 2.164640 1_445
N2 Zr12 2.212616 1_445
N3 Zr2 2.107652 1_555
N3 Zr12 2.173640 1_555
N3 Zr9 2.191668 1_555
N3 Zr6 2.219223 1_555
N4 Zr10 2.163430 1_555
N4 Zr14 2.165251 1_555
N4 Zr1 2.170773 1_555
N4 Zr11 2.233265 1_555
N5 Zr5 2.129071 1_655
N5 Zr2 2.157636 1_555
N5 Zr1 2.181617 1_555
N5 Zr8 2.204794 1_555
N6 Zr6 2.122284 1_555
N6 Zr3 2.152536 1_555
N6 Zr11 2.190408 1_454
N6 Zr15 2.260429 1_555
N7 Zr11 2.120489 1_555
N7 Zr12 2.133325 1_556
N7 Zr3 2.175525 1_656
N7 Zr5 2.186097 1_655
N8 Zr14 2.122185 1_565
N8 Zr8 2.134921 1_555
N8 Zr6 2.140069 1_555
N8 Zr15 2.220138 1_555
N9 Zr4 2.160952 1_665
N9 Zr5 2.168157 1_655
N9 Zr14 2.174062 1_565
N9 Zr9 2.205314 1_555
N10 Zr4 2.078226 1_555
N10 Zr13 2.169148 1_555
N10 Zr9 2.187143 1_445
N10 Zr10 2.228497 1_555
N11 Zr8 2.111710 1_555
N11 Zr10 2.125251 1_555
N11 Zr12 2.188105 1_556
N11 Zr13 2.251165 1_555
N12 Zr13 2.132020 1_555
N12 Zr7 2.155333 1_455
N12 Zr8 2.161514 1_555
N12 Zr15 2.173832 1_555
N13 Zr2 2.099220 1_555
N13 Zr15 2.166391 1_655
N13 Zr7 2.203929 1_555
N13 Zr11 2.215849 1_554
N14 Zr1 2.079774 1_455
N14 Zr13 2.154867 1_555
N14 Zr11 2.183983 1_455
N14 Zr5 2.246931 1_555
N15 Zr0 2.098107 1_555
N15 Zr15 2.153445 1_555
N15 Zr5 2.185553 1_555
N15 Zr13 2.275610 1_555
O0 Zr3 2.105997 1_545
O0 Zr0 2.235443 1_544
O0 Zr4 2.241073 1_554
O0 Zr5 2.357036 1_544
O1 Zr1 2.175938 1_555
O1 Zr6 2.183634 1_545
O1 Zr9 2.188408 1_545
O1 Zr14 2.334268 1_555
O2 Zr1 2.168604 1_555
O2 Zr7 2.172788 1_555
O2 Zr0 2.244613 1_544
O2 Zr2 2.355001 1_555
O3 Zr4 2.154945 1_554
O3 Zr7 2.165392 1_455
O3 Zr11 2.290211 1_454
O3 Zr14 2.296288 1_454
O4 Zr6 2.143347 1_555
O4 Zr4 2.180034 1_554
O4 Zr8 2.276999 1_555
O4 Zr2 2.342498 1_555
O5 Zr9 2.177512 1_455
O5 Zr15 2.231822 1_555
O5 Zr3 2.232794 1_555
O5 Zr10 2.238727 1_565
O6 Zr3 2.168916 1_545
O6 Zr8 2.239002 1_555
O6 Zr1 2.247084 1_555
O6 Zr10 2.280647 1_555
O7 Zr6 2.192775 1_555
O7 Zr0 2.209756 1_554
O7 Zr13 2.222478 1_554
O7 Zr12 2.288526 1_555
