# generated using pymatgen
data_Li4Cu(PO4)2
_symmetry_space_group_name_H-M   'P 1'
_cell_length_a   4.67916800
_cell_length_b   5.45298390
_cell_length_c   6.14052944
_cell_angle_alpha   96.49247092
_cell_angle_beta   93.53895142
_cell_angle_gamma   103.87449256
_symmetry_Int_Tables_number   1
_chemical_formula_structural   Li4Cu(PO4)2
_chemical_formula_sum   'Li4 Cu1 P2 O8'
_cell_volume   150.48900913
_cell_formula_units_Z   1
loop_
 _symmetry_equiv_pos_site_id
 _symmetry_equiv_pos_as_xyz
  1  'x, y, z'
loop_
 _atom_site_type_symbol
 _atom_site_label
 _atom_site_symmetry_multiplicity
 _atom_site_fract_x
 _atom_site_fract_y
 _atom_site_fract_z
 _atom_site_occupancy
  Li  Li0  1  0.15332700  0.28500800  0.57682600  1
  Li  Li1  1  0.29109400  0.57745900  0.17027100  1
  Li  Li2  1  0.70890600  0.42254100  0.82972900  1
  Li  Li3  1  0.84667300  0.71499200  0.42317400  1
  Cu  Cu0  1  0.00000000  0.00000000  0.00000000  1
  P  P0  1  0.38513800  0.78757300  0.71877200  1
  P  P1  1  0.61486200  0.21242700  0.28122800  1
  O  O0  1  0.23916300  0.57381900  0.85408000  1
  O  O1  1  0.26836200  0.69969300  0.47555600  1
  O  O2  1  0.27144000  0.18144000  0.26235400  1
  O  O3  1  0.31600300  0.04792900  0.80218800  1
  O  O4  1  0.68399700  0.95207100  0.19781200  1
  O  O5  1  0.72856000  0.81856000  0.73764600  1
  O  O6  1  0.73163800  0.30030700  0.52444400  1
  O  O7  1  0.76083700  0.42618100  0.14592000  1
loop_
_geom_bond_atom_site_label_1
_geom_bond_atom_site_label_2
_geom_bond_distance
_geom_bond_site_symmetry_2
Li0 O6 2.002603 1_455
Li0 O2 2.094772 1_555
Li0 O0 2.132113 1_555
Li0 O3 2.216350 1_555
Li0 O1 2.359100 1_555
Li1 O1 1.935409 1_555
Li1 O0 1.939046 1_554
Li1 O2 2.275712 1_555
Li1 O4 2.379863 1_555
Li1 O7 2.409088 1_455
Li1 O7 2.533050 1_555
Li2 O6 1.935409 1_555
Li2 O7 1.939046 1_556
Li2 O5 2.275712 1_555
Li2 O3 2.379863 1_555
Li2 O0 2.409088 1_655
Li2 O0 2.533050 1_555
Li3 O1 2.002603 1_655
Li3 O5 2.094772 1_555
Li3 O7 2.132113 1_555
Li3 O4 2.216350 1_555
Li3 O6 2.359100 1_555
Cu0 O3 1.959149 1_554
Cu0 O4 1.959149 1_445
Cu0 O2 1.992899 1_555
Cu0 O5 1.992899 1_444
O0 P0 1.556515 1_555
O1 P0 1.539644 1_555
O2 P1 1.570530 1_555
O3 P0 1.568081 1_545
O4 P1 1.568081 1_565
O5 P0 1.570530 1_555
O6 P1 1.539644 1_555
O7 P1 1.556515 1_555
