# generated using pymatgen
data_Li2Fe2(PO4)3
_symmetry_space_group_name_H-M   'P 1'
_cell_length_a   8.71905300
_cell_length_b   8.80585565
_cell_length_c   12.21449647
_cell_angle_alpha   90.03089117
_cell_angle_beta   90.09169583
_cell_angle_gamma   90.28852787
_symmetry_Int_Tables_number   1
_chemical_formula_structural   Li2Fe2(PO4)3
_chemical_formula_sum   'Li8 Fe8 P12 O48'
_cell_volume   937.80019844
_cell_formula_units_Z   4
loop_
 _symmetry_equiv_pos_site_id
 _symmetry_equiv_pos_as_xyz
  1  'x, y, z'
loop_
 _atom_site_type_symbol
 _atom_site_label
 _atom_site_symmetry_multiplicity
 _atom_site_fract_x
 _atom_site_fract_y
 _atom_site_fract_z
 _atom_site_occupancy
  Li  Li0  1  0.22068700  0.27269100  0.81995200  1
  Li  Li1  1  0.29198300  0.77050800  0.68401600  1
  Li  Li2  1  0.28706000  0.72861800  0.31637300  1
  Li  Li3  1  0.69115300  0.23490000  0.31287500  1
  Li  Li4  1  0.78670700  0.72564000  0.18225100  1
  Li  Li5  1  0.78473600  0.77425600  0.81833200  1
  Li  Li6  1  0.96056700  0.08877500  0.27945100  1
  Li  Li7  1  0.92063000  0.41247000  0.70315600  1
  Fe  Fe0  1  0.26114400  0.04772200  0.38141000  1
  Fe  Fe1  1  0.25570200  0.45623900  0.61257600  1
  Fe  Fe2  1  0.24627700  0.53670500  0.11568500  1
  Fe  Fe3  1  0.24996500  0.95416600  0.88896700  1
  Fe  Fe4  1  0.74316300  0.04095500  0.10774600  1
  Fe  Fe5  1  0.74308900  0.45386100  0.88727900  1
  Fe  Fe6  1  0.75076100  0.54523200  0.38788300  1
  Fe  Fe7  1  0.74882700  0.96317300  0.61655600  1
  P  P0  1  0.04480700  0.75111500  0.50182000  1
  P  P1  1  0.10613100  0.89389400  0.14770000  1
  P  P2  1  0.10457200  0.60179700  0.85302300  1
  P  P3  1  0.39380400  0.39750500  0.35306200  1
  P  P4  1  0.39344100  0.10439000  0.64664000  1
  P  P5  1  0.45781700  0.24785500  0.00100400  1
  P  P6  1  0.53979200  0.74842000  0.00077000  1
  P  P7  1  0.61094900  0.89663800  0.35381600  1
  P  P8  1  0.61116200  0.60399800  0.64879600  1
  P  P9  1  0.89834000  0.10849900  0.85282100  1
  P  P10  1  0.89361600  0.39391300  0.14759100  1
  P  P11  1  0.95699100  0.24968300  0.49702800  1
  O  O0  1  0.04944000  0.35750100  0.57257800  1
  O  O1  1  0.05614000  0.15108400  0.42006300  1
  O  O2  1  0.06942400  0.40485500  0.15637600  1
  O  O3  1  0.07535500  0.09697900  0.84243700  1
  O  O4  1  0.15444700  0.56197600  0.96917100  1
  O  O5  1  0.15504000  0.93174800  0.03097500  1
  O  O6  1  0.15280300  0.66148700  0.57951800  1
  O  O7  1  0.15006900  0.84346100  0.42400000  1
  O  O8  1  0.16142300  0.73348200  0.18020200  1
  O  O9  1  0.16699900  0.76011600  0.81936200  1
  O  O10  1  0.16617700  0.01318200  0.23125800  1
  O  O11  1  0.16194400  0.47775200  0.77084100  1
  O  O12  1  0.32167600  0.51671900  0.27534900  1
  O  O13  1  0.32564300  0.98286900  0.72605300  1
  O  O14  1  0.33613100  0.26368300  0.68065200  1
  O  O15  1  0.35257500  0.23285400  0.32276700  1
  O  O16  1  0.36061900  0.35168000  0.07434200  1
  O  O17  1  0.34606300  0.15825500  0.92623500  1
  O  O18  1  0.34187800  0.43533000  0.46990300  1
  O  O19  1  0.34144500  0.06659500  0.52990000  1
  O  O20  1  0.43382200  0.59492300  0.66123400  1
  O  O21  1  0.43375000  0.90074900  0.33995200  1
  O  O22  1  0.43914600  0.64636200  0.07349700  1
  O  O23  1  0.44403500  0.85518800  0.92942200  1
  O  O24  1  0.55435100  0.34702100  0.92292100  1
  O  O25  1  0.55482600  0.14531900  0.07417700  1
  O  O26  1  0.57095800  0.41122500  0.34313300  1
  O  O27  1  0.56925000  0.09488900  0.65736000  1
  O  O28  1  0.65533800  0.93106000  0.47252700  1
  O  O29  1  0.65774600  0.57220600  0.52999300  1
  O  O30  1  0.65020600  0.83691200  0.07835600  1
  O  O31  1  0.64458200  0.65489400  0.92372700  1
  O  O32  1  0.66293800  0.76735500  0.68153200  1
  O  O33  1  0.66842900  0.73757200  0.31925300  1
  O  O34  1  0.68762600  0.01886300  0.27865000  1
  O  O35  1  0.69234600  0.48800300  0.72417400  1
  O  O36  1  0.82397100  0.51438200  0.22617900  1
  O  O37  1  0.82575000  0.98770800  0.77545900  1
  O  O38  1  0.84278800  0.23115700  0.18507300  1
  O  O39  1  0.85582900  0.27345400  0.82138400  1
  O  O40  1  0.84434500  0.33631800  0.42111500  1
  O  O41  1  0.85854600  0.15104600  0.57404500  1
  O  O42  1  0.83628300  0.42628000  0.03165300  1
  O  O43  1  0.84405300  0.07164200  0.96931700  1
  O  O44  1  0.92652300  0.60056700  0.84145700  1
  O  O45  1  0.92745200  0.90251600  0.15969900  1
  O  O46  1  0.94585600  0.64446500  0.43088600  1
  O  O47  1  0.94286200  0.85269600  0.57328900  1
loop_
_geom_bond_atom_site_label_1
_geom_bond_atom_site_label_2
_geom_bond_distance
_geom_bond_site_symmetry_2
Li0 O11 1.972906 1_555
Li0 O17 1.975789 1_555
Li0 O14 1.980059 1_555
Li0 O3 2.014215 1_555
Li1 O13 1.959517 1_555
Li1 O9 1.983394 1_555
Li1 O6 2.001357 1_555
Li1 O20 2.004351 1_555
Li2 O12 1.956811 1_555
Li2 O8 1.990720 1_555
Li2 O21 1.998784 1_555
Li2 O7 2.047763 1_555
Li3 O26 1.913827 1_555
Li3 O34 1.947641 1_555
Li3 O38 2.047656 1_555
Li3 O40 2.076209 1_555
Li4 O36 1.964894 1_555
Li4 O33 1.970099 1_555
Li4 O45 1.997510 1_555
Li4 O30 1.998813 1_555
Li5 O32 1.979159 1_555
Li5 O37 1.982424 1_555
Li5 O44 1.991430 1_555
Li5 O31 2.061288 1_555
Li6 O1 1.983702 1_655
Li6 O38 1.991534 1_555
Li6 O10 2.004608 1_655
Li6 O45 2.214574 1_545
Li6 O34 2.455128 1_555
Li7 O39 1.975031 1_555
Li7 O0 2.012432 1_655
Li7 O35 2.117750 1_555
Li7 O11 2.328657 1_655
Li7 O44 2.365514 1_555
Fe0 O15 1.948407 1_555
Fe0 O19 1.949842 1_555
Fe0 O10 2.033175 1_555
Fe0 O21 2.053704 1_545
Fe0 O1 2.065168 1_555
Fe0 O7 2.104502 1_545
Fe1 O18 1.908044 1_555
Fe1 O14 2.017411 1_555
Fe1 O0 2.051810 1_555
Fe1 O20 2.057602 1_555
Fe1 O6 2.061692 1_555
Fe1 O11 2.108878 1_555
Fe2 O4 1.972532 1_554
Fe2 O16 1.980060 1_555
Fe2 O2 1.989435 1_555
Fe2 O22 2.003203 1_555
Fe2 O8 2.045544 1_555
Fe2 O12 2.064929 1_555
Fe3 O5 1.932871 1_556
Fe3 O23 1.969696 1_555
Fe3 O17 2.030233 1_565
Fe3 O9 2.037165 1_555
Fe3 O3 2.059037 1_565
Fe3 O13 2.112366 1_555
Fe4 O43 1.925781 1_554
Fe4 O25 1.929435 1_555
Fe4 O30 1.999469 1_545
Fe4 O38 2.105446 1_555
Fe4 O45 2.118495 1_545
Fe4 O34 2.152378 1_555
Fe5 O24 1.941613 1_555
Fe5 O42 1.956243 1_556
Fe5 O31 2.021242 1_555
Fe5 O39 2.038317 1_555
Fe5 O35 2.062605 1_555
Fe5 O44 2.126737 1_555
Fe6 O29 1.932138 1_555
Fe6 O46 1.978561 1_555
Fe6 O33 2.024491 1_555
Fe6 O26 2.031485 1_555
Fe6 O40 2.056647 1_555
Fe6 O36 2.094662 1_555
Fe7 O28 1.957523 1_555
Fe7 O41 1.976955 1_565
Fe7 O27 2.016288 1_565
Fe7 O47 2.026524 1_555
Fe7 O32 2.038241 1_555
Fe7 O37 2.063396 1_555
O0 P11 1.546512 1_455
O1 P11 1.547333 1_455
O2 P10 1.538991 1_455
O3 P9 1.552630 1_455
O4 P2 1.524744 1_555
O5 P1 1.525358 1_555
O6 P0 1.554247 1_555
O7 P0 1.550232 1_555
O8 P1 1.546677 1_555
O9 P2 1.550037 1_555
O10 P1 1.552664 1_545
O11 P2 1.567471 1_555
O12 P3 1.550607 1_555
O13 P4 1.559490 1_565
O14 P4 1.548216 1_555
O15 P3 1.536909 1_555
O16 P5 1.538143 1_555
O17 P5 1.547465 1_556
O18 P3 1.534850 1_555
O19 P4 1.531485 1_555
O20 P8 1.555582 1_555
O21 P7 1.554596 1_555
O22 P6 1.536971 1_555
O23 P6 1.531978 1_556
O24 P5 1.541648 1_556
O25 P5 1.528284 1_555
O26 P3 1.553666 1_555
O27 P4 1.540958 1_555
O28 P7 1.529936 1_555
O29 P8 1.533521 1_555
O30 P6 1.555906 1_555
O31 P6 1.551813 1_556
O32 P8 1.557311 1_555
O33 P7 1.548711 1_555
O34 P7 1.563359 1_545
O35 P8 1.548640 1_555
O36 P10 1.556532 1_555
O37 P9 1.554060 1_565
O38 P10 1.566858 1_555
O39 P9 1.549309 1_555
O40 P11 1.553006 1_555
O41 P11 1.540167 1_555
O42 P10 1.528443 1_555
O43 P9 1.534681 1_555
O44 P2 1.558591 1_655
O45 P1 1.567241 1_655
O46 P0 1.538052 1_655
O47 P0 1.536856 1_655
