# generated using pymatgen
data_Na3ZnPCO7
_symmetry_space_group_name_H-M   'P 1'
_cell_length_a   6.60227800
_cell_length_b   5.31185900
_cell_length_c   8.99473953
_cell_angle_alpha   89.05340580
_cell_angle_beta   90.00000000
_cell_angle_gamma   90.00000000
_symmetry_Int_Tables_number   1
_chemical_formula_structural   Na3ZnPCO7
_chemical_formula_sum   'Na6 Zn2 P2 C2 O14'
_cell_volume   315.40579177
_cell_formula_units_Z   2
loop_
 _symmetry_equiv_pos_site_id
 _symmetry_equiv_pos_as_xyz
  1  'x, y, z'
loop_
 _atom_site_type_symbol
 _atom_site_label
 _atom_site_symmetry_multiplicity
 _atom_site_fract_x
 _atom_site_fract_y
 _atom_site_fract_z
 _atom_site_occupancy
  Na  Na0  1  0.51165200  0.99312400  0.00213800  1
  Na  Na1  1  0.80866400  0.55449300  0.16861900  1
  Na  Na2  1  0.50904300  0.50391100  0.48826200  1
  Na  Na3  1  0.00904300  0.49608900  0.51173800  1
  Na  Na4  1  0.30866400  0.44550700  0.83138100  1
  Na  Na5  1  0.01165200  0.00687600  0.99786200  1
  Zn  Zn0  1  0.25982900  0.98297000  0.29912100  1
  Zn  Zn1  1  0.75982900  0.01703000  0.70087900  1
  P  P0  1  0.76005100  0.01981300  0.34599400  1
  P  P1  1  0.26005100  0.98018700  0.65400600  1
  C  C0  1  0.25943000  0.50839600  0.15116200  1
  C  C1  1  0.75943000  0.49160400  0.84883800  1
  O  O0  1  0.25609400  0.67311900  0.04213100  1
  O  O1  1  0.25760900  0.26720500  0.11956000  1
  O  O2  1  0.94760500  0.93201200  0.25316900  1
  O  O3  1  0.57171700  0.93992500  0.25280000  1
  O  O4  1  0.26054900  0.57923400  0.28773500  1
  O  O5  1  0.76707600  0.30497400  0.37042900  1
  O  O6  1  0.75608100  0.87062400  0.49796200  1
  O  O7  1  0.25608100  0.12937600  0.50203800  1
  O  O8  1  0.26707600  0.69502600  0.62957100  1
  O  O9  1  0.76054900  0.42076600  0.71226500  1
  O  O10  1  0.07171700  0.06007500  0.74720000  1
  O  O11  1  0.44760500  0.06798800  0.74683100  1
  O  O12  1  0.75760900  0.73279500  0.88044000  1
  O  O13  1  0.75609400  0.32688100  0.95786900  1
loop_
_geom_bond_atom_site_label_1
_geom_bond_atom_site_label_2
_geom_bond_distance
_geom_bond_site_symmetry_2
Na0 O3 2.302057 1_555
Na0 O11 2.362270 1_564
Na0 O12 2.407790 1_554
Na0 O0 2.417738 1_555
Na0 O13 2.425466 1_564
Na0 O1 2.469639 1_565
Na1 O5 2.246700 1_555
Na1 O13 2.291601 1_554
Na1 O2 2.343413 1_555
Na1 O3 2.695098 1_555
Na1 O12 2.765590 1_554
Na2 O5 2.275804 1_555
Na2 O8 2.289294 1_555
Na2 O4 2.466006 1_555
Na2 O6 2.543198 1_555
Na2 O7 2.598951 1_555
Na2 O9 2.642456 1_555
Na3 O8 2.275804 1_555
Na3 O5 2.289294 1_455
Na3 O9 2.466006 1_455
Na3 O7 2.543198 1_555
Na3 O6 2.598951 1_455
Na3 O4 2.642456 1_555
Na4 O8 2.246700 1_555
Na4 O0 2.291601 1_556
Na4 O11 2.343413 1_555
Na4 O10 2.695098 1_555
Na4 O1 2.765590 1_556
Na5 O10 2.302057 1_555
Na5 O2 2.362270 1_446
Na5 O1 2.407790 1_556
Na5 O13 2.417738 1_455
Na5 O0 2.425466 1_546
Na5 O12 2.469639 1_445
C0 O4 1.290727 1_555
C0 O0 1.303655 1_555
C0 O1 1.316958 1_555
C1 O9 1.290727 1_555
C1 O13 1.303655 1_555
C1 O12 1.316958 1_555
O1 Zn0 2.192659 1_545
O2 P0 1.568709 1_565
O2 Zn0 2.120644 1_655
O3 P0 1.562251 1_565
O3 Zn0 2.114050 1_555
O4 Zn0 2.148727 1_555
O5 P0 1.534887 1_555
O6 P0 1.568871 1_565
O6 Zn1 1.995899 1_565
O7 P1 1.568871 1_545
O7 Zn0 1.995899 1_545
O8 P1 1.534887 1_555
O9 Zn1 2.148727 1_555
O10 P1 1.562251 1_545
O10 Zn1 2.114050 1_455
O11 P1 1.568709 1_545
O11 Zn1 2.120644 1_555
O12 Zn1 2.192659 1_565
