# generated using pymatgen
data_Li4Nb3V3Cr2O16
_symmetry_space_group_name_H-M   'P 1'
_cell_length_a   6.03983680
_cell_length_b   6.03983680
_cell_length_c   9.80421277
_cell_angle_alpha   89.27652782
_cell_angle_beta   89.27652782
_cell_angle_gamma   59.96630003
_symmetry_Int_Tables_number   1
_chemical_formula_structural   Li4Nb3V3Cr2O16
_chemical_formula_sum   'Li4 Nb3 V3 Cr2 O16'
_cell_volume   309.59934892
_cell_formula_units_Z   1
loop_
 _symmetry_equiv_pos_site_id
 _symmetry_equiv_pos_as_xyz
  1  'x, y, z'
loop_
 _atom_site_type_symbol
 _atom_site_label
 _atom_site_symmetry_multiplicity
 _atom_site_fract_x
 _atom_site_fract_y
 _atom_site_fract_z
 _atom_site_occupancy
  Li  Li0  1  0.66655900  0.66655900  0.89785400  1
  Li  Li1  1  0.00796100  0.00796100  0.99368600  1
  Li  Li2  1  0.00870100  0.00870100  0.49530900  1
  Li  Li3  1  0.33441800  0.33441800  0.38686200  1
  Nb  Nb0  1  0.83136400  0.83136400  0.21368500  1
  Nb  Nb1  1  0.64873200  0.17419200  0.71244900  1
  Nb  Nb2  1  0.17419200  0.64873200  0.71244900  1
  V  V0  1  0.83196700  0.34097400  0.21273100  1
  V  V1  1  0.34097400  0.83196700  0.21273100  1
  V  V2  1  0.17320400  0.17320400  0.71184300  1
  Cr  Cr0  1  0.66123900  0.66123900  0.48148400  1
  Cr  Cr1  1  0.33023700  0.33023700  0.98969400  1
  O  O0  1  0.82016200  0.33189900  0.60060300  1
  O  O1  1  0.52072300  0.52072300  0.33712800  1
  O  O2  1  0.67311000  0.67311000  0.10014600  1
  O  O3  1  0.99789000  0.99789000  0.31344200  1
  O  O4  1  0.99781100  0.99781100  0.81037400  1
  O  O5  1  0.33189900  0.82016200  0.60060300  1
  O  O6  1  0.95973000  0.52368700  0.34176000  1
  O  O7  1  0.52368700  0.95973000  0.34176000  1
  O  O8  1  0.16255000  0.16255000  0.10280200  1
  O  O9  1  0.83134500  0.83134500  0.60118600  1
  O  O10  1  0.48806600  0.03920300  0.84707500  1
  O  O11  1  0.03920300  0.48806600  0.84707500  1
  O  O12  1  0.33390300  0.33390300  0.58599700  1
  O  O13  1  0.66867700  0.16009900  0.10320600  1
  O  O14  1  0.48121700  0.48121700  0.85068300  1
  O  O15  1  0.16009900  0.66867700  0.10320600  1
loop_
_geom_bond_atom_site_label_1
_geom_bond_atom_site_label_2
_geom_bond_distance
_geom_bond_site_symmetry_2
Li0 O2 1.985496 1_556
Li0 O14 2.000178 1_555
Li0 O10 2.008020 1_565
Li0 O11 2.008020 1_655
Li1 O4 1.801910 1_445
Li1 O8 1.952216 1_556
Li1 O15 2.069068 1_546
Li1 O13 2.069068 1_456
Li2 O3 1.788292 1_445
Li2 O5 1.992240 1_545
Li2 O0 1.992240 1_455
Li2 O9 2.113044 1_445
Li3 O12 1.952291 1_555
Li3 O1 2.002476 1_555
Li3 O6 2.011616 1_455
Li3 O7 2.011616 1_545
Nb0 O2 2.008636 1_555
Nb0 O3 2.010501 1_555
Nb0 O13 2.024992 1_565
Nb0 O15 2.024992 1_655
Nb0 O6 2.038281 1_555
Nb0 O7 2.038281 1_555
Nb1 O10 2.020149 1_555
Nb1 O0 2.028307 1_555
Nb1 O12 2.067967 1_555
Nb1 O4 2.068532 1_545
Nb1 O9 2.105901 1_545
Nb1 O14 2.109478 1_555
Nb2 O11 2.020149 1_555
Nb2 O5 2.028307 1_555
Nb2 O12 2.067967 1_555
Nb2 O4 2.068532 1_455
Nb2 O9 2.105901 1_455
Nb2 O14 2.109478 1_555
Cr0 O1 2.055555 1_555
Cr0 O6 2.069803 1_555
Cr0 O7 2.069803 1_555
Cr0 O5 2.073737 1_555
Cr0 O0 2.073737 1_555
Cr0 O9 2.146160 1_555
Cr1 O8 2.061883 1_556
Cr1 O14 2.071282 1_555
Cr1 O10 2.074795 1_555
Cr1 O11 2.074795 1_555
Cr1 O15 2.097337 1_556
Cr1 O13 2.097337 1_556
O0 V2 2.154384 1_655
O1 V0 2.032872 1_555
O1 V1 2.032872 1_555
O2 V1 2.051176 1_555
O2 V0 2.051176 1_555
O3 V0 2.041499 1_565
O3 V1 2.041499 1_655
O4 V2 2.061380 1_665
O5 V2 2.154384 1_565
O6 V0 2.079893 1_555
O7 V1 2.079893 1_555
O8 V1 2.032407 1_545
O8 V0 2.032407 1_455
O10 V2 2.127271 1_555
O11 V2 2.127271 1_555
O12 V2 2.070980 1_555
O13 V0 2.110472 1_555
O15 V1 2.110472 1_555
