# generated using pymatgen
data_Li2Ti3SbO8
_symmetry_space_group_name_H-M   'P 1'
_cell_length_a   5.99726265
_cell_length_b   5.99726265
_cell_length_c   10.42422300
_cell_angle_alpha   90.00000000
_cell_angle_beta   90.00000000
_cell_angle_gamma   120.00000721
_symmetry_Int_Tables_number   1
_chemical_formula_structural   Li2Ti3SbO8
_chemical_formula_sum   'Li4 Ti6 Sb2 O16'
_cell_volume   324.69861224
_cell_formula_units_Z   2
loop_
 _symmetry_equiv_pos_site_id
 _symmetry_equiv_pos_as_xyz
  1  'x, y, z'
loop_
 _atom_site_type_symbol
 _atom_site_label
 _atom_site_symmetry_multiplicity
 _atom_site_fract_x
 _atom_site_fract_y
 _atom_site_fract_z
 _atom_site_occupancy
  Li  Li0  1  0.33333300  0.66666700  0.89163600  1
  Li  Li1  1  0.00000000  0.00000000  0.99454200  1
  Li  Li2  1  0.00000000  0.00000000  0.49454200  1
  Li  Li3  1  0.66666700  0.33333300  0.39163600  1
  Ti  Ti0  1  0.65847900  0.82924000  0.21853700  1
  Ti  Ti1  1  0.34152100  0.17076000  0.71853700  1
  Ti  Ti2  1  0.82924000  0.17076000  0.71853700  1
  Ti  Ti3  1  0.17076000  0.82924000  0.21853700  1
  Ti  Ti4  1  0.17076000  0.34152100  0.21853700  1
  Ti  Ti5  1  0.82924000  0.65847900  0.71853700  1
  Sb  Sb0  1  0.33333300  0.66666700  0.50405300  1
  Sb  Sb1  1  0.66666700  0.33333300  0.00405300  1
  O  O0  1  0.15463800  0.84536200  0.60634200  1
  O  O1  1  0.02509300  0.51254600  0.32143400  1
  O  O2  1  0.33333300  0.66666700  0.11195000  1
  O  O3  1  0.00000000  0.00000000  0.31290300  1
  O  O4  1  0.00000000  0.00000000  0.81290300  1
  O  O5  1  0.15463800  0.30927600  0.60634200  1
  O  O6  1  0.48745400  0.97490700  0.32143400  1
  O  O7  1  0.48745400  0.51254600  0.32143400  1
  O  O8  1  0.30927600  0.15463800  0.10634200  1
  O  O9  1  0.69072400  0.84536200  0.60634200  1
  O  O10  1  0.51254600  0.48745400  0.82143400  1
  O  O11  1  0.51254600  0.02509300  0.82143400  1
  O  O12  1  0.66666700  0.33333300  0.61195000  1
  O  O13  1  0.84536200  0.69072400  0.10634200  1
  O  O14  1  0.97490700  0.48745400  0.82143400  1
  O  O15  1  0.84536200  0.15463800  0.10634200  1
loop_
_geom_bond_atom_site_label_1
_geom_bond_atom_site_label_2
_geom_bond_distance
_geom_bond_site_symmetry_2
Li0 O11 2.000259 1_565
Li0 O14 2.000259 1_455
Li0 O10 2.000259 1_555
Li0 O2 2.296602 1_556
Li1 O4 1.893445 1_555
Li1 O13 1.984556 1_446
Li1 O8 1.984556 1_556
Li1 O15 1.984556 1_456
Li2 O3 1.893445 1_555
Li2 O9 1.984556 1_445
Li2 O5 1.984556 1_555
Li2 O0 1.984556 1_545
Li3 O1 2.000259 1_655
Li3 O6 2.000259 1_545
Li3 O7 2.000259 1_555
Li3 O12 2.296602 1_555
O0 Ti1 2.060371 1_565
O0 Ti5 2.060371 1_455
O0 Sb0 2.140668 1_555
O1 Ti4 1.965137 1_555
O1 Ti3 1.965145 1_555
O1 Sb0 2.487349 1_555
O2 Ti0 2.021472 1_555
O2 Ti4 2.021472 1_555
O2 Ti3 2.021472 1_555
O3 Ti3 2.028287 1_545
O3 Ti4 2.028291 1_555
O3 Ti0 2.028291 1_445
O4 Ti2 2.028287 1_455
O4 Ti1 2.028291 1_555
O4 Ti5 2.028291 1_445
O5 Ti2 2.060371 1_455
O5 Ti1 2.060375 1_555
O5 Sb0 2.140672 1_555
O6 Ti0 1.965137 1_555
O6 Ti3 1.965145 1_555
O6 Sb0 2.487349 1_555
O7 Ti4 1.965145 1_555
O7 Ti0 1.965145 1_555
O7 Sb0 2.487356 1_555
O8 Ti3 2.060371 1_545
O8 Ti4 2.060375 1_555
O8 Sb1 2.140672 1_555
O9 Ti2 2.060371 1_565
O9 Ti5 2.060375 1_555
O9 Sb0 2.140672 1_555
O10 Ti1 1.965145 1_555
O10 Ti5 1.965145 1_555
O10 Sb1 2.487356 1_556
O11 Ti1 1.965137 1_555
O11 Ti2 1.965145 1_555
O11 Sb1 2.487349 1_556
O12 Ti5 2.021472 1_555
O12 Ti1 2.021472 1_555
O12 Ti2 2.021472 1_555
O13 Ti3 2.060371 1_655
O13 Ti0 2.060375 1_555
O13 Sb1 2.140672 1_555
O14 Ti5 1.965137 1_555
O14 Ti2 1.965145 1_555
O14 Sb1 2.487349 1_556
O15 Ti4 2.060371 1_655
O15 Ti0 2.060371 1_545
O15 Sb1 2.140668 1_555
