# generated using pymatgen
data_MnOF
_symmetry_space_group_name_H-M   'P 1'
_cell_length_a   4.62341500
_cell_length_b   5.12350421
_cell_length_c   11.53986474
_cell_angle_alpha   89.61361831
_cell_angle_beta   87.25296810
_cell_angle_gamma   89.88011892
_symmetry_Int_Tables_number   1
_chemical_formula_structural   MnOF
_chemical_formula_sum   'Mn8 O8 F8'
_cell_volume   273.03655149
_cell_formula_units_Z   8
loop_
 _symmetry_equiv_pos_site_id
 _symmetry_equiv_pos_as_xyz
  1  'x, y, z'
loop_
 _atom_site_type_symbol
 _atom_site_label
 _atom_site_symmetry_multiplicity
 _atom_site_fract_x
 _atom_site_fract_y
 _atom_site_fract_z
 _atom_site_occupancy
  Mn  Mn0  1  0.00210300  0.26446900  0.57763200  1
  Mn  Mn1  1  0.97359900  0.76811200  0.92124200  1
  Mn  Mn2  1  0.00336200  0.77184700  0.42762300  1
  Mn  Mn3  1  0.94294000  0.27316200  0.07231800  1
  Mn  Mn4  1  0.50177700  0.77010500  0.17527900  1
  Mn  Mn5  1  0.47858800  0.20972100  0.82309600  1
  Mn  Mn6  1  0.49141100  0.71311900  0.67430500  1
  Mn  Mn7  1  0.52535900  0.22581600  0.32741700  1
  O  O0  1  0.74963400  0.07699300  0.93419400  1
  O  O1  1  0.78781200  0.58619000  0.55805400  1
  O  O2  1  0.80326600  0.09213400  0.44945500  1
  O  O3  1  0.75205400  0.60206100  0.05752500  1
  O  O4  1  0.72854900  0.08466700  0.19226000  1
  O  O5  1  0.26890300  0.88886500  0.80685300  1
  O  O6  1  0.27909000  0.39374700  0.69184400  1
  O  O7  1  0.29323200  0.92420000  0.31143600  1
  F  F0  1  0.72779000  0.52689100  0.81084000  1
  F  F1  1  0.74222600  0.02590100  0.69015100  1
  F  F2  1  0.74809000  0.55219600  0.30871100  1
  F  F3  1  0.26941500  0.45040700  0.18888700  1
  F  F4  1  0.20927300  0.43873000  0.94755800  1
  F  F5  1  0.25389700  0.94787300  0.55945400  1
  F  F6  1  0.25868300  0.44313400  0.43288700  1
  F  F7  1  0.20894600  0.96966400  0.06097600  1
loop_
_geom_bond_atom_site_label_1
_geom_bond_atom_site_label_2
_geom_bond_distance
_geom_bond_site_symmetry_2
Mn0 O1 1.938881 1_455
Mn0 O2 1.990970 1_455
Mn0 O6 1.998231 1_555
Mn1 O0 1.892231 1_565
Mn1 O5 1.951692 1_655
Mn1 O3 2.019286 1_556
Mn2 O2 1.894484 1_465
Mn2 O1 2.001086 1_455
Mn2 O7 2.005277 1_555
Mn3 O3 1.911015 1_555
Mn3 O4 1.919750 1_555
Mn3 O0 2.124021 1_554
Mn4 O4 1.940655 1_565
Mn4 O3 1.946187 1_555
Mn4 O7 1.972331 1_555
Mn5 O5 1.925010 1_545
Mn5 O0 1.953251 1_555
Mn5 O6 2.035890 1_555
Mn6 O6 1.914497 1_555
Mn6 O1 1.983021 1_555
Mn6 O5 2.018070 1_555
Mn7 O7 1.898318 1_545
Mn7 O4 1.926158 1_555
Mn7 O2 2.064001 1_555
F0 Mn5 1.994316 1_555
F0 Mn1 2.146639 1_555
F0 Mn6 2.174323 1_555
F1 Mn6 1.994580 1_545
F1 Mn0 2.111601 1_655
F1 Mn5 2.135845 1_555
F2 Mn7 1.970876 1_555
F2 Mn2 2.173490 1_655
F2 Mn4 2.248083 1_555
F3 Mn4 1.962008 1_555
F3 Mn3 2.264824 1_455
F3 Mn7 2.330402 1_555
F4 Mn3 2.031405 1_456
F4 Mn1 2.035820 1_455
F4 Mn5 2.198906 1_555
F5 Mn0 2.000918 1_565
F5 Mn6 2.126403 1_555
F5 Mn2 2.158997 1_555
F6 Mn7 2.027301 1_555
F6 Mn2 2.056877 1_555
F6 Mn0 2.197546 1_555
F7 Mn3 1.981649 1_465
F7 Mn4 2.182989 1_555
F7 Mn1 2.246304 1_454
