# generated using pymatgen
data_RbH2SNO3
_symmetry_space_group_name_H-M   'P 1'
_cell_length_a   7.54896400
_cell_length_b   7.95446800
_cell_length_c   14.81702300
_cell_angle_alpha   90.00000000
_cell_angle_beta   90.00000000
_cell_angle_gamma   90.00000000
_symmetry_Int_Tables_number   1
_chemical_formula_structural   RbH2SNO3
_chemical_formula_sum   'Rb8 H16 S8 N8 O24'
_cell_volume   889.73248703
_cell_formula_units_Z   8
loop_
 _symmetry_equiv_pos_site_id
 _symmetry_equiv_pos_as_xyz
  1  'x, y, z'
loop_
 _atom_site_type_symbol
 _atom_site_label
 _atom_site_symmetry_multiplicity
 _atom_site_fract_x
 _atom_site_fract_y
 _atom_site_fract_z
 _atom_site_occupancy
  Rb  Rb0  1  0.13059200  0.85794400  0.58272800  1
  Rb  Rb1  1  0.13059200  0.64205600  0.08272800  1
  Rb  Rb2  1  0.36940800  0.35794400  0.58272800  1
  Rb  Rb3  1  0.36940800  0.14205600  0.08272800  1
  Rb  Rb4  1  0.63059200  0.85794400  0.91727200  1
  Rb  Rb5  1  0.63059200  0.64205600  0.41727200  1
  Rb  Rb6  1  0.86940800  0.35794400  0.91727200  1
  Rb  Rb7  1  0.86940800  0.14205600  0.41727200  1
  H  H0  1  0.07408000  0.47336000  0.72474500  1
  H  H1  1  0.07408000  0.02664000  0.22474500  1
  H  H2  1  0.09050200  0.10200700  0.80860200  1
  H  H3  1  0.09050200  0.39799300  0.30860200  1
  H  H4  1  0.40949800  0.60200700  0.80860200  1
  H  H5  1  0.40949800  0.89799300  0.30860200  1
  H  H6  1  0.42592000  0.52664000  0.22474500  1
  H  H7  1  0.42592000  0.97336000  0.72474500  1
  H  H8  1  0.57408000  0.47336000  0.77525500  1
  H  H9  1  0.57408000  0.02664000  0.27525500  1
  H  H10  1  0.59050200  0.10200700  0.69139800  1
  H  H11  1  0.59050200  0.39799300  0.19139800  1
  H  H12  1  0.90949800  0.60200700  0.69139800  1
  H  H13  1  0.90949800  0.89799300  0.19139800  1
  H  H14  1  0.92592000  0.52664000  0.27525500  1
  H  H15  1  0.92592000  0.97336000  0.77525500  1
  S  S0  1  0.12348200  0.84350600  0.86301800  1
  S  S1  1  0.12348200  0.65649400  0.36301800  1
  S  S2  1  0.37651800  0.34350600  0.86301800  1
  S  S3  1  0.37651800  0.15649400  0.36301800  1
  S  S4  1  0.62348200  0.84350600  0.63698200  1
  S  S5  1  0.62348200  0.65649400  0.13698200  1
  S  S6  1  0.87651800  0.34350600  0.63698200  1
  S  S7  1  0.87651800  0.15649400  0.13698200  1
  N  N0  1  0.00349400  0.00926400  0.82915800  1
  N  N1  1  0.00349400  0.49073600  0.32915800  1
  N  N2  1  0.49650600  0.50926400  0.82915800  1
  N  N3  1  0.49650600  0.99073600  0.32915800  1
  N  N4  1  0.50349400  0.00926400  0.67084200  1
  N  N5  1  0.50349400  0.49073600  0.17084200  1
  N  N6  1  0.99650600  0.50926400  0.67084200  1
  N  N7  1  0.99650600  0.99073600  0.17084200  1
  O  O0  1  0.00746600  0.21422300  0.61334700  1
  O  O1  1  0.00746600  0.28577700  0.11334700  1
  O  O2  1  0.22618700  0.90397800  0.94073200  1
  O  O3  1  0.22618700  0.59602200  0.44073200  1
  O  O4  1  0.23946100  0.79213700  0.78693900  1
  O  O5  1  0.23946100  0.70786300  0.28693900  1
  O  O6  1  0.26053900  0.20786300  0.28693900  1
  O  O7  1  0.26053900  0.29213700  0.78693900  1
  O  O8  1  0.27381300  0.40397800  0.94073200  1
  O  O9  1  0.27381300  0.09602200  0.44073200  1
  O  O10  1  0.49253400  0.71422300  0.61334700  1
  O  O11  1  0.49253400  0.78577700  0.11334700  1
  O  O12  1  0.50746600  0.21422300  0.88665300  1
  O  O13  1  0.50746600  0.28577700  0.38665300  1
  O  O14  1  0.72618700  0.90397800  0.55926800  1
  O  O15  1  0.72618700  0.59602200  0.05926800  1
  O  O16  1  0.73946100  0.79213700  0.71306100  1
  O  O17  1  0.73946100  0.70786300  0.21306100  1
  O  O18  1  0.76053900  0.29213700  0.71306100  1
  O  O19  1  0.76053900  0.20786300  0.21306100  1
  O  O20  1  0.77381300  0.40397800  0.55926800  1
  O  O21  1  0.77381300  0.09602200  0.05926800  1
  O  O22  1  0.99253400  0.71422300  0.88665300  1
  O  O23  1  0.99253400  0.78577700  0.38665300  1
loop_
_geom_bond_atom_site_label_1
_geom_bond_atom_site_label_2
_geom_bond_distance
_geom_bond_site_symmetry_2
H0 N6 1.030723 1_455
H0 Rb2 3.200175 1_555
H1 N7 1.030723 1_445
H1 Rb3 3.200175 1_555
H2 N0 1.033641 1_555
H2 Rb6 3.085928 1_455
H3 N1 1.033641 1_555
H3 Rb7 3.085928 1_455
H4 N2 1.033641 1_555
H4 Rb4 3.085928 1_555
H5 N3 1.033641 1_555
H5 Rb5 3.085928 1_555
H6 N5 1.030723 1_555
H6 Rb1 3.200175 1_555
H7 N4 1.030723 1_565
H7 Rb0 3.200175 1_555
H8 N2 1.030723 1_555
H8 Rb6 3.200175 1_555
H9 N3 1.030723 1_545
H9 Rb7 3.200175 1_555
H10 N4 1.033641 1_555
H10 Rb2 3.085928 1_555
H11 N5 1.033641 1_555
H11 Rb3 3.085928 1_555
H12 N6 1.033641 1_555
H12 Rb0 3.085928 1_655
H13 N7 1.033641 1_555
H13 Rb1 3.085928 1_655
H14 N1 1.030723 1_655
H14 Rb5 3.200175 1_555
H15 N0 1.030723 1_665
H15 Rb4 3.200175 1_555
N0 S0 1.676496 1_545
N0 Rb6 3.228279 1_455
N0 Rb4 3.328324 1_445
N1 S1 1.676496 1_555
N1 Rb7 3.228279 1_455
N1 Rb5 3.328324 1_455
N2 S2 1.676496 1_555
N2 Rb4 3.228279 1_555
N2 Rb6 3.328324 1_555
N3 S3 1.676496 1_565
N3 Rb5 3.228279 1_555
N3 Rb7 3.328324 1_565
N4 S4 1.676496 1_545
N4 Rb2 3.228279 1_555
N4 Rb0 3.328324 1_545
N5 S5 1.676496 1_555
N5 Rb3 3.228279 1_555
N5 Rb1 3.328324 1_555
N6 S6 1.676496 1_555
N6 Rb0 3.228279 1_655
N6 Rb2 3.328324 1_655
N7 S7 1.676496 1_565
N7 Rb1 3.228279 1_655
N7 Rb3 3.328324 1_665
O0 S6 1.468801 1_455
O0 Rb2 2.996361 1_555
O0 Rb0 3.016846 1_545
O0 Rb7 3.139454 1_455
O1 S7 1.468801 1_455
O1 Rb3 2.996361 1_555
O1 Rb1 3.016846 1_555
O1 Rb6 3.139454 1_454
O2 S0 1.469159 1_555
O2 Rb3 3.030179 1_566
O2 Rb1 3.047650 1_556
O2 Rb4 3.094308 1_555
O3 S1 1.469159 1_555
O3 Rb2 3.030179 1_555
O3 Rb0 3.047650 1_555
O3 Rb5 3.094308 1_555
O4 S0 1.484664 1_555
O4 Rb0 3.178821 1_555
O5 S1 1.484664 1_555
O5 Rb1 3.178821 1_555
O6 S3 1.484664 1_555
O6 Rb3 3.178821 1_555
O7 S2 1.484664 1_555
O7 Rb2 3.178821 1_555
O8 S2 1.469159 1_555
O8 Rb1 3.030179 1_556
O8 Rb3 3.047650 1_556
O8 Rb6 3.094308 1_455
O9 S3 1.469159 1_555
O9 Rb0 3.030179 1_545
O9 Rb2 3.047650 1_555
O9 Rb7 3.094308 1_455
O10 S4 1.468801 1_555
O10 Rb0 2.996361 1_555
O10 Rb2 3.016846 1_555
O10 Rb5 3.139454 1_555
O11 S5 1.468801 1_555
O11 Rb1 2.996361 1_555
O11 Rb3 3.016846 1_565
O11 Rb4 3.139454 1_554
O12 S2 1.468801 1_555
O12 Rb6 2.996361 1_555
O12 Rb4 3.016846 1_545
O12 Rb3 3.139454 1_556
O13 S3 1.468801 1_555
O13 Rb7 2.996361 1_555
O13 Rb5 3.016846 1_555
O13 Rb2 3.139454 1_555
O14 S4 1.469159 1_555
O14 Rb7 3.030179 1_565
O14 Rb5 3.047650 1_555
O14 Rb0 3.094308 1_655
O15 S5 1.469159 1_555
O15 Rb6 3.030179 1_554
O15 Rb4 3.047650 1_554
O15 Rb1 3.094308 1_655
O16 S4 1.484664 1_555
O16 Rb4 3.178821 1_555
O17 S5 1.484664 1_555
O17 Rb5 3.178821 1_555
O18 S6 1.484664 1_555
O18 Rb6 3.178821 1_555
O19 S7 1.484664 1_555
O19 Rb7 3.178821 1_555
O20 S6 1.469159 1_555
O20 Rb5 3.030179 1_555
O20 Rb7 3.047650 1_555
O20 Rb2 3.094308 1_555
O21 S7 1.469159 1_555
O21 Rb4 3.030179 1_544
O21 Rb6 3.047650 1_554
O21 Rb3 3.094308 1_555
O22 S0 1.468801 1_655
O22 Rb4 2.996361 1_555
O22 Rb6 3.016846 1_555
O22 Rb1 3.139454 1_656
O23 S1 1.468801 1_655
O23 Rb5 2.996361 1_555
O23 Rb7 3.016846 1_565
O23 Rb0 3.139454 1_655
