# generated using pymatgen
data_Na3CuBPO7
_symmetry_space_group_name_H-M   'P 1'
_cell_length_a   6.48497200
_cell_length_b   5.22212200
_cell_length_c   9.00769480
_cell_angle_alpha   88.85557240
_cell_angle_beta   90.00000000
_cell_angle_gamma   90.00000000
_symmetry_Int_Tables_number   1
_chemical_formula_structural   Na3CuBPO7
_chemical_formula_sum   'Na6 Cu2 B2 P2 O14'
_cell_volume   304.98757218
_cell_formula_units_Z   2
loop_
 _symmetry_equiv_pos_site_id
 _symmetry_equiv_pos_as_xyz
  1  'x, y, z'
loop_
 _atom_site_type_symbol
 _atom_site_label
 _atom_site_symmetry_multiplicity
 _atom_site_fract_x
 _atom_site_fract_y
 _atom_site_fract_z
 _atom_site_occupancy
  Na  Na0  1  0.75000000  0.24069900  0.91885000  1
  Na  Na1  1  0.99893400  0.75389000  0.74112600  1
  Na  Na2  1  0.50106600  0.75389000  0.74112600  1
  Na  Na3  1  0.49893400  0.24611000  0.25887400  1
  Na  Na4  1  0.00106600  0.24611000  0.25887400  1
  Na  Na5  1  0.25000000  0.75930100  0.08115000  1
  Cu  Cu0  1  0.25000000  0.22561000  0.65769500  1
  Cu  Cu1  1  0.75000000  0.77439000  0.34230500  1
  B  B0  1  0.25000000  0.26385100  0.93512500  1
  B  B1  1  0.75000000  0.73614900  0.06487500  1
  P  P0  1  0.75000000  0.29680500  0.57797300  1
  P  P1  1  0.25000000  0.70319500  0.42202700  1
  O  O0  1  0.75000000  0.71428800  0.91591100  1
  O  O1  1  0.25000000  0.03217300  0.86270400  1
  O  O2  1  0.25000000  0.47252500  0.83714500  1
  O  O3  1  0.93732200  0.22064000  0.67929300  1
  O  O4  1  0.56267800  0.22064000  0.67929300  1
  O  O5  1  0.75000000  0.59281700  0.54805300  1
  O  O6  1  0.25000000  0.84566500  0.56929200  1
  O  O7  1  0.75000000  0.15433500  0.43070800  1
  O  O8  1  0.25000000  0.40718300  0.45194700  1
  O  O9  1  0.43732200  0.77936000  0.32070700  1
  O  O10  1  0.06267800  0.77936000  0.32070700  1
  O  O11  1  0.75000000  0.52747500  0.16285500  1
  O  O12  1  0.75000000  0.96782700  0.13729600  1
  O  O13  1  0.25000000  0.28571200  0.08408900  1
loop_
_geom_bond_atom_site_label_1
_geom_bond_atom_site_label_2
_geom_bond_distance
_geom_bond_site_symmetry_2
Na0 O12 2.406317 1_546
Na0 O0 2.472752 1_555
Na0 O4 2.480329 1_555
Na0 O3 2.480329 1_555
Na0 O11 2.684230 1_556
Na0 O0 2.749639 1_545
Na1 O0 2.261546 1_555
Na1 O6 2.290573 1_655
Na1 O2 2.346722 1_655
Na1 O1 2.454722 1_665
Na1 O3 2.521245 1_565
Na1 O5 2.529157 1_555
Na1 O3 2.878602 1_555
Na2 O0 2.261546 1_555
Na2 O6 2.290573 1_555
Na2 O2 2.346722 1_555
Na2 O1 2.454722 1_565
Na2 O4 2.521245 1_565
Na2 O5 2.529157 1_555
Na2 O4 2.878602 1_555
Na3 O13 2.261546 1_555
Na3 O7 2.290573 1_555
Na3 O11 2.346722 1_555
Na3 O12 2.454722 1_545
Na3 O9 2.521245 1_545
Na3 O8 2.529157 1_555
Na3 O9 2.878602 1_555
Na4 O13 2.261546 1_555
Na4 O7 2.290573 1_455
Na4 O11 2.346722 1_455
Na4 O12 2.454722 1_445
Na4 O10 2.521245 1_545
Na4 O8 2.529157 1_555
Na4 O10 2.878602 1_555
Na5 O1 2.406317 1_564
Na5 O13 2.472752 1_555
Na5 O9 2.480329 1_555
Na5 O10 2.480329 1_555
Na5 O2 2.684230 1_554
Na5 O13 2.749639 1_565
Cu0 O3 2.037135 1_455
Cu0 O4 2.037135 1_555
Cu0 O8 2.064863 1_555
Cu0 O1 2.087113 1_555
Cu0 O2 2.087752 1_555
Cu0 O6 2.152660 1_545
Cu1 O9 2.037135 1_555
Cu1 O10 2.037135 1_655
Cu1 O5 2.064863 1_555
Cu1 O12 2.087113 1_555
Cu1 O11 2.087752 1_555
Cu1 O7 2.152660 1_565
B0 O13 1.348940 1_556
B0 O1 1.385937 1_555
B0 O2 1.388528 1_555
B1 O0 1.348940 1_554
B1 O12 1.385937 1_555
B1 O11 1.388528 1_555
O3 P0 1.565992 1_555
O4 P0 1.565992 1_555
O5 P0 1.563817 1_555
O6 P1 1.533820 1_555
O7 P0 1.533820 1_555
O8 P1 1.563817 1_555
O9 P1 1.565992 1_555
O10 P1 1.565992 1_555
