# generated using pymatgen
data_La2Ti3O9
_symmetry_space_group_name_H-M   'P 1'
_cell_length_a   7.01012943
_cell_length_b   7.01012943
_cell_length_c   10.69716900
_cell_angle_alpha   90.00000000
_cell_angle_beta   90.00000000
_cell_angle_gamma   119.99999457
_symmetry_Int_Tables_number   1
_chemical_formula_structural   La2Ti3O9
_chemical_formula_sum   'La4 Ti6 O18'
_cell_volume   455.25170922
_cell_formula_units_Z   2
loop_
 _symmetry_equiv_pos_site_id
 _symmetry_equiv_pos_as_xyz
  1  'x, y, z'
loop_
 _atom_site_type_symbol
 _atom_site_label
 _atom_site_symmetry_multiplicity
 _atom_site_fract_x
 _atom_site_fract_y
 _atom_site_fract_z
 _atom_site_occupancy
  La  La0  1  0.33333300  0.66666700  0.95934200  1
  La  La1  1  0.33333300  0.66666700  0.54065800  1
  La  La2  1  0.66666700  0.33333300  0.45934200  1
  La  La3  1  0.66666700  0.33333300  0.04065800  1
  Ti  Ti0  1  0.23062800  0.92525100  0.25000000  1
  Ti  Ti1  1  0.07474900  0.30537700  0.25000000  1
  Ti  Ti2  1  0.30537700  0.23062800  0.75000000  1
  Ti  Ti3  1  0.69462300  0.76937200  0.25000000  1
  Ti  Ti4  1  0.92525100  0.69462300  0.75000000  1
  Ti  Ti5  1  0.76937200  0.07474900  0.75000000  1
  O  O0  1  0.20930500  0.92703700  0.75000000  1
  O  O1  1  0.37592400  0.93635600  0.10829700  1
  O  O2  1  0.37592400  0.93635600  0.39170300  1
  O  O3  1  0.06364400  0.43956900  0.39170300  1
  O  O4  1  0.06364400  0.43956900  0.10829700  1
  O  O5  1  0.07296300  0.28226800  0.75000000  1
  O  O6  1  0.28226800  0.20930500  0.25000000  1
  O  O7  1  0.56043100  0.62407600  0.10829700  1
  O  O8  1  0.56043100  0.62407600  0.39170300  1
  O  O9  1  0.43956900  0.37592400  0.60829700  1
  O  O10  1  0.43956900  0.37592400  0.89170300  1
  O  O11  1  0.71773200  0.79069500  0.75000000  1
  O  O12  1  0.92703700  0.71773200  0.25000000  1
  O  O13  1  0.93635600  0.56043100  0.60829700  1
  O  O14  1  0.93635600  0.56043100  0.89170300  1
  O  O15  1  0.62407600  0.06364400  0.60829700  1
  O  O16  1  0.62407600  0.06364400  0.89170300  1
  O  O17  1  0.79069500  0.07296300  0.25000000  1
loop_
_geom_bond_atom_site_label_1
_geom_bond_atom_site_label_2
_geom_bond_distance
_geom_bond_site_symmetry_2
La0 O7 2.374404 1_556
La0 O1 2.374404 1_556
La0 O4 2.374404 1_556
La0 O14 2.598071 1_455
La0 O16 2.598075 1_565
La0 O10 2.598084 1_555
La1 O8 2.374404 1_555
La1 O2 2.374404 1_555
La1 O3 2.374404 1_555
La1 O13 2.598071 1_455
La1 O15 2.598075 1_565
La1 O9 2.598084 1_555
La2 O9 2.374404 1_555
La2 O15 2.374404 1_555
La2 O13 2.374404 1_555
La2 O3 2.598071 1_655
La2 O2 2.598075 1_545
La2 O8 2.598084 1_555
La3 O10 2.374404 1_554
La3 O16 2.374404 1_554
La3 O14 2.374404 1_554
La3 O4 2.598071 1_655
La3 O1 2.598075 1_545
La3 O7 2.598084 1_555
O0 Ti4 1.837200 1_455
O0 Ti2 1.884027 1_565
O1 Ti0 1.806077 1_555
O2 Ti0 1.806077 1_555
O3 Ti1 1.806081 1_555
O4 Ti1 1.806081 1_555
O5 Ti2 1.837200 1_555
O5 Ti5 1.884027 1_455
O6 Ti0 1.837200 1_545
O6 Ti1 1.884027 1_555
O7 Ti3 1.806079 1_555
O8 Ti3 1.806079 1_555
O9 Ti2 1.806079 1_555
O10 Ti2 1.806079 1_555
O11 Ti5 1.837200 1_565
O11 Ti4 1.884027 1_555
O12 Ti3 1.837200 1_555
O12 Ti0 1.884027 1_655
O13 Ti4 1.806081 1_555
O14 Ti4 1.806081 1_555
O15 Ti5 1.806077 1_555
O16 Ti5 1.806077 1_555
O17 Ti1 1.837200 1_655
O17 Ti3 1.884027 1_545
