# generated using pymatgen
data_Li7Mn(OF)3
_symmetry_space_group_name_H-M   'P 1'
_cell_length_a   5.47735655
_cell_length_b   6.52415542
_cell_length_c   10.28970623
_cell_angle_alpha   84.38419808
_cell_angle_beta   76.22640083
_cell_angle_gamma   119.97239883
_symmetry_Int_Tables_number   1
_chemical_formula_structural   Li7Mn(OF)3
_chemical_formula_sum   'Li14 Mn2 O6 F6'
_cell_volume   298.92251414
_cell_formula_units_Z   2
loop_
 _symmetry_equiv_pos_site_id
 _symmetry_equiv_pos_as_xyz
  1  'x, y, z'
loop_
 _atom_site_type_symbol
 _atom_site_label
 _atom_site_symmetry_multiplicity
 _atom_site_fract_x
 _atom_site_fract_y
 _atom_site_fract_z
 _atom_site_occupancy
  Li  Li0  1  0.10251800  0.10045100  0.22487700  1
  Li  Li1  1  0.10716400  0.61913900  0.74636100  1
  Li  Li2  1  0.46101000  0.95166700  0.39656500  1
  Li  Li3  1  0.53248600  0.53290100  0.11999400  1
  Li  Li4  1  0.27026000  0.22614900  0.44531800  1
  Li  Li5  1  0.20201400  0.68162800  0.95145100  1
  Li  Li6  1  0.30271300  0.37424800  0.66642400  1
  Li  Li7  1  0.73200400  0.25704900  0.05576300  1
  Li  Li8  1  0.76347600  0.80996700  0.53874000  1
  Li  Li9  1  0.47318100  0.49140000  0.89000100  1
  Li  Li10  1  0.51374700  0.01187400  0.61753500  1
  Li  Li11  1  0.87895400  0.39436200  0.27700900  1
  Li  Li12  1  0.94002500  0.89722600  0.74064700  1
  Li  Li13  1  0.69146300  0.12829500  0.81527000  1
  Mn  Mn0  1  0.08624000  0.05818200  0.95541900  1
  Mn  Mn1  1  0.98865600  0.45192800  0.51720300  1
  O  O0  1  0.25145700  0.92659600  0.80845800  1
  O  O1  1  0.39163800  0.24894700  0.04251800  1
  O  O2  1  0.35709700  0.69492800  0.55869000  1
  O  O3  1  0.06192600  0.35735200  0.87533900  1
  O  O4  1  0.62136300  0.27608500  0.46544000  1
  O  O5  1  0.92995200  0.12664600  0.62523000  1
  F  F0  1  0.10034700  0.92624900  0.38289500  1
  F  F1  1  0.24034000  0.41948600  0.29585300  1
  F  F2  1  0.90604400  0.58656400  0.11760200  1
  F  F3  1  0.61113300  0.78813500  0.94905900  1
  F  F4  1  0.73370700  0.57909400  0.70706700  1
  F  F5  1  0.74908800  0.08345200  0.21327000  1
loop_
_geom_bond_atom_site_label_1
_geom_bond_atom_site_label_2
_geom_bond_distance
_geom_bond_site_symmetry_2
Li0 O1 1.914077 1_555
Li1 O3 1.927877 1_555
Li1 O2 1.930188 1_555
Li1 O0 1.990935 1_555
Li2 O2 1.990221 1_555
Li2 O4 2.118023 1_565
Li3 O1 1.953607 1_555
Li4 O4 1.850454 1_555
Li4 O5 2.058058 1_455
Li5 O0 1.926155 1_555
Li5 O3 2.160194 1_555
Li6 O5 2.051470 1_455
Li6 O2 2.112091 1_555
Li6 O3 2.197959 1_555
Li7 O1 1.876416 1_555
Li7 O3 2.030671 1_654
Li8 O2 1.908680 1_555
Li8 O5 2.180830 1_565
Li9 O1 1.907601 1_556
Li9 O3 2.020161 1_555
Li10 O4 1.945656 1_555
Li10 O0 1.968872 1_545
Li10 O2 2.024435 1_545
Li10 O5 2.038618 1_555
Li11 O4 1.913684 1_555
Li12 O5 1.849215 1_565
Li12 O0 1.923475 1_655
Li13 O5 2.081380 1_555
Li13 O0 2.115342 1_545
Li13 O3 2.116815 1_655
Mn0 O1 2.000594 1_556
Mn0 O0 2.054590 1_545
Mn0 O3 2.122160 1_555
Mn1 O4 1.992713 1_555
Mn1 O2 2.028356 1_655
Mn1 O5 2.128140 1_555
F0 Li8 1.872431 1_455
F0 Li0 1.884459 1_565
F0 Li2 1.938908 1_555
F0 Li4 1.954012 1_565
F1 Li3 1.886433 1_555
F1 Li11 1.961490 1_455
F1 Li4 1.982441 1_555
F1 Li0 2.103730 1_555
F1 Mn1 2.454301 1_455
F2 Li5 1.844925 1_654
F2 Li3 1.889001 1_555
F2 Li11 1.892221 1_555
F2 Li7 2.108127 1_555
F3 Li9 1.917137 1_555
F3 Li5 1.979799 1_555
F3 Li3 2.097930 1_556
F3 Li12 2.220659 1_555
F3 Li13 2.269768 1_565
F3 Mn0 2.324451 1_665
F4 Li9 1.897704 1_555
F4 Li12 1.920174 1_555
F4 Li1 2.072815 1_655
F4 Li8 2.098774 1_555
F4 Li6 2.227351 1_555
F4 Mn1 2.575045 1_555
F5 Li0 1.916324 1_655
F5 Li2 1.922555 1_545
F5 Li7 1.933135 1_555
F5 Li11 2.022743 1_555
