# generated using pymatgen
data_Ca2Bi10O17
_symmetry_space_group_name_H-M   'P 1'
_cell_length_a   7.87911139
_cell_length_b   7.87911139
_cell_length_c   9.87009890
_cell_angle_alpha   80.72101183
_cell_angle_beta   80.72101183
_cell_angle_gamma   61.78110690
_symmetry_Int_Tables_number   1
_chemical_formula_structural   Ca2Bi10O17
_chemical_formula_sum   'Ca2 Bi10 O17'
_cell_volume   530.29773123
_cell_formula_units_Z   1
loop_
 _symmetry_equiv_pos_site_id
 _symmetry_equiv_pos_as_xyz
  1  'x, y, z'
loop_
 _atom_site_type_symbol
 _atom_site_label
 _atom_site_symmetry_multiplicity
 _atom_site_fract_x
 _atom_site_fract_y
 _atom_site_fract_z
 _atom_site_occupancy
  Ca  Ca0  1  0.00456600  0.00456600  0.98339700  1
  Ca  Ca1  1  0.50327200  0.50327200  0.97946900  1
  Bi  Bi0  1  0.87574400  0.87574400  0.68161000  1
  Bi  Bi1  1  0.37749800  0.37749800  0.67934200  1
  Bi  Bi2  1  0.65135400  0.12334800  0.31396500  1
  Bi  Bi3  1  0.12334800  0.65135400  0.31396500  1
  Bi  Bi4  1  0.99857300  0.50046700  0.98266600  1
  Bi  Bi5  1  0.50046700  0.99857300  0.98266600  1
  Bi  Bi6  1  0.90390300  0.36860800  0.67542800  1
  Bi  Bi7  1  0.36860800  0.90390300  0.67542800  1
  Bi  Bi8  1  0.60946600  0.60946600  0.32355600  1
  Bi  Bi9  1  0.14743900  0.14743900  0.31774100  1
  O  O0  1  0.83418400  0.83418400  0.90077100  1
  O  O1  1  0.33875000  0.33875000  0.90200800  1
  O  O2  1  0.38177000  0.38177000  0.29261300  1
  O  O3  1  0.04508500  0.55635200  0.73138600  1
  O  O4  1  0.55635200  0.04508500  0.73138600  1
  O  O5  1  0.68989900  0.14372900  0.10192100  1
  O  O6  1  0.14372900  0.68989900  0.10192100  1
  O  O7  1  0.22206700  0.22206700  0.60454200  1
  O  O8  1  0.76405000  0.76405000  0.34439200  1
  O  O9  1  0.87070000  0.34651000  0.89406400  1
  O  O10  1  0.34651000  0.87070000  0.89406400  1
  O  O11  1  0.54118100  0.54118100  0.72403200  1
  O  O12  1  0.64003600  0.64003600  0.10688600  1
  O  O13  1  0.14985700  0.14985700  0.10651000  1
  O  O14  1  0.02706200  0.02706200  0.72238900  1
  O  O15  1  0.26020100  0.83562800  0.35758400  1
  O  O16  1  0.83562800  0.26020100  0.35758400  1
loop_
_geom_bond_atom_site_label_1
_geom_bond_atom_site_label_2
_geom_bond_distance
_geom_bond_site_symmetry_2
Ca0 O6 2.371750 1_546
Ca0 O5 2.371750 1_456
Ca0 O10 2.448509 1_545
Ca0 O9 2.448509 1_455
Ca0 O13 2.496800 1_556
Ca0 O14 2.536674 1_555
Ca0 O0 2.584550 1_445
Ca1 O12 2.424069 1_556
Ca1 O11 2.476590 1_555
Ca1 O1 2.484663 1_555
Ca1 O9 2.604702 1_555
Ca1 O10 2.604702 1_555
Ca1 O5 2.679145 1_556
Ca1 O6 2.679145 1_556
Bi0 O0 2.130301 1_555
Bi0 O14 2.158398 1_665
Bi0 O3 2.234253 1_655
Bi0 O4 2.234253 1_565
Bi1 O1 2.161446 1_555
Bi1 O3 2.327808 1_555
Bi1 O4 2.327808 1_555
Bi1 O11 2.336861 1_555
Bi1 O7 2.355017 1_555
Bi2 O5 2.056938 1_555
Bi2 O2 2.148945 1_555
Bi2 O16 2.299547 1_555
Bi2 O8 2.515461 1_545
Bi3 O6 2.056938 1_555
Bi3 O2 2.148945 1_555
Bi3 O15 2.299547 1_555
Bi3 O8 2.515461 1_455
Bi4 O9 2.243519 1_555
Bi4 O0 2.382487 1_555
Bi4 O1 2.418805 1_655
Bi4 O3 2.446771 1_655
Bi4 O13 2.610226 1_656
Bi4 O12 2.659499 1_556
Bi4 O6 2.745220 1_656
Bi5 O10 2.243519 1_555
Bi5 O0 2.382487 1_555
Bi5 O1 2.418805 1_565
Bi5 O4 2.446771 1_565
Bi5 O13 2.610226 1_566
Bi5 O12 2.659499 1_556
Bi5 O5 2.745220 1_566
Bi6 O9 2.120235 1_555
Bi6 O7 2.250470 1_655
Bi6 O14 2.381524 1_655
Bi6 O3 2.397579 1_655
Bi6 O11 2.517944 1_555
Bi7 O10 2.120235 1_555
Bi7 O7 2.250470 1_565
Bi7 O14 2.381524 1_565
Bi7 O4 2.397579 1_565
Bi7 O11 2.517944 1_555
Bi8 O12 2.100497 1_555
Bi8 O8 2.138627 1_555
Bi8 O15 2.473591 1_555
Bi8 O16 2.473591 1_555
Bi9 O13 2.078975 1_555
Bi9 O15 2.171808 1_545
Bi9 O16 2.171808 1_455
