# generated using pymatgen
data_Ga2P2H9NO11
_symmetry_space_group_name_H-M   'P 1'
_cell_length_a   9.87877000
_cell_length_b   9.94554300
_cell_length_c   12.88579008
_cell_angle_alpha   50.27670635
_cell_angle_beta   90.00000000
_cell_angle_gamma   90.00000000
_symmetry_Int_Tables_number   1
_chemical_formula_structural   Ga2P2H9NO11
_chemical_formula_sum   'Ga8 P8 H36 N4 O44'
_cell_volume   973.75053760
_cell_formula_units_Z   4
loop_
 _symmetry_equiv_pos_site_id
 _symmetry_equiv_pos_as_xyz
  1  'x, y, z'
loop_
 _atom_site_type_symbol
 _atom_site_label
 _atom_site_symmetry_multiplicity
 _atom_site_fract_x
 _atom_site_fract_y
 _atom_site_fract_z
 _atom_site_occupancy
  Ga  Ga0  1  0.76277400  0.28988400  0.82817500  1
  Ga  Ga1  1  0.52656900  0.98524700  0.13105700  1
  Ga  Ga2  1  0.26277400  0.71011600  0.67182500  1
  Ga  Ga3  1  0.02656900  0.01475300  0.36894300  1
  Ga  Ga4  1  0.97343100  0.98524700  0.63105700  1
  Ga  Ga5  1  0.73722600  0.28988400  0.32817500  1
  Ga  Ga6  1  0.47343100  0.01475300  0.86894300  1
  Ga  Ga7  1  0.23722600  0.71011600  0.17182500  1
  P  P0  1  0.45967600  0.34621100  0.84476700  1
  P  P1  1  0.30534500  0.83749700  0.36930000  1
  P  P2  1  0.95967600  0.65378900  0.65523300  1
  P  P3  1  0.80534500  0.16250300  0.13070000  1
  P  P4  1  0.19465500  0.83749700  0.86930000  1
  P  P5  1  0.04032400  0.34621100  0.34476700  1
  P  P6  1  0.69465500  0.16250300  0.63070000  1
  P  P7  1  0.54032400  0.65378900  0.15523300  1
  H  H0  1  0.17541400  0.23935100  0.83371800  1
  H  H1  1  0.00405700  0.16925900  0.89449700  1
  H  H2  1  0.75945300  0.42253800  0.56329100  1
  H  H3  1  0.13380500  0.44863700  0.62227800  1
  H  H4  1  0.74137000  0.69050100  0.34459300  1
  H  H5  1  0.88902500  0.68869800  0.41345400  1
  H  H6  1  0.12727000  0.34118100  0.87851700  1
  H  H7  1  0.05571400  0.88718700  0.19153400  1
  H  H8  1  0.29001100  0.03148000  0.02611200  1
  H  H9  1  0.62727000  0.65881900  0.62148300  1
  H  H10  1  0.63380500  0.55136300  0.87772200  1
  H  H11  1  0.74054700  0.42253800  0.06329100  1
  H  H12  1  0.50405700  0.83074100  0.60550300  1
  H  H13  1  0.79001100  0.96852000  0.47388800  1
  H  H14  1  0.67541400  0.76064900  0.66628200  1
  H  H15  1  0.55571400  0.11281300  0.30846600  1
  H  H16  1  0.75863000  0.69050100  0.84459300  1
  H  H17  1  0.61097500  0.68869800  0.91345400  1
  H  H18  1  0.38902500  0.31130200  0.08654600  1
  H  H19  1  0.24137000  0.30949900  0.15540700  1
  H  H20  1  0.44428600  0.88718700  0.69153400  1
  H  H21  1  0.32458600  0.23935100  0.33371800  1
  H  H22  1  0.20998900  0.03148000  0.52611200  1
  H  H23  1  0.49594300  0.16925900  0.39449700  1
  H  H24  1  0.25945300  0.57746200  0.93670900  1
  H  H25  1  0.36619500  0.44863700  0.12227800  1
  H  H26  1  0.37273000  0.34118100  0.37851700  1
  H  H27  1  0.70998900  0.96852000  0.97388800  1
  H  H28  1  0.94428600  0.11281300  0.80846600  1
  H  H29  1  0.87273000  0.65881900  0.12148300  1
  H  H30  1  0.11097500  0.31130200  0.58654600  1
  H  H31  1  0.25863000  0.30949900  0.65540700  1
  H  H32  1  0.86619500  0.55136300  0.37772200  1
  H  H33  1  0.24054700  0.57746200  0.43670900  1
  H  H34  1  0.99594300  0.83074100  0.10550300  1
  H  H35  1  0.82458600  0.76064900  0.16628200  1
  N  N0  1  0.84271600  0.66719900  0.35417500  1
  N  N1  1  0.65728400  0.66719900  0.85417500  1
  N  N2  1  0.34271600  0.33280100  0.14582500  1
  N  N3  1  0.15728400  0.33280100  0.64582500  1
  O  O0  1  0.64650500  0.06677700  0.93551500  1
  O  O1  1  0.40754900  0.23875900  0.80294800  1
  O  O2  1  0.13915500  0.21934000  0.91476700  1
  O  O3  1  0.08278900  0.85968300  0.13368300  1
  O  O4  1  0.27050400  0.69081500  0.35168800  1
  O  O5  1  0.82528200  0.27198400  0.97930100  1
  O  O6  1  0.86233000  0.50734500  0.69879200  1
  O  O7  1  0.60127700  0.42553900  0.77833600  1
  O  O8  1  0.10127700  0.57446100  0.72166400  1
  O  O9  1  0.36233000  0.49265500  0.80120800  1
  O  O10  1  0.32528200  0.72801600  0.52069900  1
  O  O11  1  0.97486100  0.77310200  0.49868700  1
  O  O12  1  0.43520000  0.92613400  0.28854500  1
  O  O13  1  0.68737800  0.03383800  0.19032800  1
  O  O14  1  0.63915500  0.78066000  0.58523300  1
  O  O15  1  0.18737800  0.96616200  0.30967200  1
  O  O16  1  0.93520000  0.07386600  0.21145500  1
  O  O17  1  0.47486100  0.22689800  0.00131300  1
  O  O18  1  0.90754900  0.76124100  0.69705200  1
  O  O19  1  0.41721100  0.85968300  0.63368300  1
  O  O20  1  0.22949600  0.69081500  0.85168800  1
  O  O21  1  0.14650500  0.93322300  0.56448500  1
  O  O22  1  0.85349500  0.06677700  0.43551500  1
  O  O23  1  0.77050400  0.30918500  0.14831200  1
  O  O24  1  0.58278900  0.14031700  0.36631700  1
  O  O25  1  0.09245100  0.23875900  0.30294800  1
  O  O26  1  0.52513900  0.77310200  0.99868700  1
  O  O27  1  0.06480000  0.92613400  0.78854500  1
  O  O28  1  0.81262200  0.03383800  0.69032800  1
  O  O29  1  0.36084500  0.21934000  0.41476700  1
  O  O30  1  0.31262200  0.96616200  0.80967200  1
  O  O31  1  0.56480000  0.07386600  0.71145500  1
  O  O32  1  0.02513900  0.22689800  0.50131300  1
  O  O33  1  0.67471800  0.27198400  0.47930100  1
  O  O34  1  0.63767000  0.50734500  0.19879200  1
  O  O35  1  0.89872300  0.42553900  0.27833600  1
  O  O36  1  0.39872300  0.57446100  0.22166400  1
  O  O37  1  0.13767000  0.49265500  0.30120800  1
  O  O38  1  0.17471800  0.72801600  0.02069900  1
  O  O39  1  0.72949600  0.30918500  0.64831200  1
  O  O40  1  0.91721100  0.14031700  0.86631700  1
  O  O41  1  0.86084500  0.78066000  0.08523300  1
  O  O42  1  0.59245100  0.76124100  0.19705200  1
  O  O43  1  0.35349500  0.93322300  0.06448500  1
loop_
_geom_bond_atom_site_label_1
_geom_bond_atom_site_label_2
_geom_bond_distance
_geom_bond_site_symmetry_2
Ga0 O7 1.915852 1_555
Ga0 O5 1.939631 1_555
Ga0 O6 1.953363 1_555
Ga0 O40 1.961486 1_555
Ga0 O0 2.057468 1_555
Ga0 O39 2.224387 1_555
Ga1 O42 1.920563 1_555
Ga1 O17 1.922603 1_565
Ga1 O12 1.937444 1_555
Ga1 O13 1.952501 1_565
Ga1 O43 2.119946 1_555
Ga1 O0 2.408068 1_564
Ga2 O8 1.915852 1_555
Ga2 O10 1.939631 1_555
Ga2 O9 1.953363 1_555
Ga2 O19 1.961486 1_555
Ga2 O21 2.057468 1_555
Ga2 O20 2.224387 1_555
Ga3 O25 1.920563 1_555
Ga3 O11 1.922603 1_445
Ga3 O16 1.937444 1_455
Ga3 O15 1.952501 1_545
Ga3 O22 2.119946 1_455
Ga3 O21 2.408068 1_545
Ga4 O18 1.920563 1_555
Ga4 O32 1.922603 1_665
Ga4 O27 1.937444 1_655
Ga4 O28 1.952501 1_565
Ga4 O21 2.119946 1_655
Ga4 O22 2.408068 1_565
Ga5 O35 1.915852 1_555
Ga5 O33 1.939631 1_555
Ga5 O34 1.953363 1_555
Ga5 O24 1.961486 1_555
Ga5 O22 2.057468 1_555
Ga5 O23 2.224387 1_555
Ga6 O1 1.920563 1_555
Ga6 O26 1.922603 1_545
Ga6 O31 1.937444 1_555
Ga6 O30 1.952501 1_545
Ga6 O0 2.119946 1_555
Ga6 O43 2.408068 1_546
Ga7 O36 1.915852 1_555
Ga7 O38 1.939631 1_555
Ga7 O37 1.953363 1_555
Ga7 O3 1.961486 1_555
Ga7 O43 2.057468 1_555
Ga7 O4 2.224387 1_555
H0 O2 0.996480 1_555
H1 O40 1.041323 1_455
H1 O2 1.504578 1_555
H2 O39 0.990013 1_555
H3 N3 1.013062 1_555
H4 N0 1.017216 1_555
H5 N0 1.023347 1_555
H6 O2 0.988380 1_555
H7 O3 0.981174 1_555
H8 O43 0.987499 1_545
H9 O14 0.988380 1_555
H10 N1 1.013062 1_555
H11 O23 0.990013 1_555
H12 O19 1.041323 1_555
H12 O14 1.504578 1_555
H13 O22 0.987499 1_565
H14 O14 0.996480 1_555
H15 O24 0.981174 1_555
H16 N1 1.017216 1_555
H17 N1 1.023347 1_555
H18 N2 1.023347 1_555
H19 N2 1.017216 1_555
H20 O19 0.981174 1_555
H21 O29 0.996480 1_555
H22 O21 0.987499 1_545
H23 O24 1.041323 1_555
H23 O29 1.504578 1_555
H24 O20 0.990013 1_555
H25 N2 1.013062 1_555
H26 O29 0.988380 1_555
H27 O0 0.987499 1_565
H28 O40 0.981174 1_555
H29 O41 0.988380 1_555
H30 N3 1.023347 1_555
H31 N3 1.017216 1_555
H32 N0 1.013062 1_555
H33 O4 0.990013 1_555
H34 O3 1.041323 1_655
H34 O41 1.504578 1_555
H35 O41 0.996480 1_555
O1 P0 1.560022 1_555
O4 P1 1.649644 1_555
O5 P3 1.521600 1_556
O6 P2 1.521916 1_555
O7 P0 1.564852 1_555
O8 P2 1.564852 1_455
O9 P0 1.521916 1_555
O10 P1 1.521600 1_555
O11 P2 1.562127 1_555
O12 P1 1.527434 1_555
O13 P3 1.526181 1_555
O15 P1 1.526181 1_555
O16 P3 1.527434 1_555
O17 P0 1.562127 1_554
O18 P2 1.560022 1_555
O20 P4 1.649644 1_555
O23 P3 1.649644 1_555
O25 P5 1.560022 1_555
O26 P7 1.562127 1_556
O27 P4 1.527434 1_555
O28 P6 1.526181 1_555
O30 P4 1.526181 1_555
O31 P6 1.527434 1_555
O32 P5 1.562127 1_555
O33 P6 1.521600 1_555
O34 P7 1.521916 1_555
O35 P5 1.564852 1_655
O36 P7 1.564852 1_555
O37 P5 1.521916 1_555
O38 P4 1.521600 1_554
O39 P6 1.649644 1_555
O42 P7 1.560022 1_555
