# generated using pymatgen
data_Ti3Fe9O16
_symmetry_space_group_name_H-M   'P 1'
_cell_length_a   6.12874300
_cell_length_b   8.64499500
_cell_length_c   12.19073600
_cell_angle_alpha   90.00000000
_cell_angle_beta   90.00000000
_cell_angle_gamma   90.00000000
_symmetry_Int_Tables_number   1
_chemical_formula_structural   Ti3Fe9O16
_chemical_formula_sum   'Ti6 Fe18 O32'
_cell_volume   645.90118754
_cell_formula_units_Z   2
loop_
 _symmetry_equiv_pos_site_id
 _symmetry_equiv_pos_as_xyz
  1  'x, y, z'
loop_
 _atom_site_type_symbol
 _atom_site_label
 _atom_site_symmetry_multiplicity
 _atom_site_fract_x
 _atom_site_fract_y
 _atom_site_fract_z
 _atom_site_occupancy
  Ti  Ti0  1  0.50000000  0.50056000  0.25206300  1
  Ti  Ti1  1  0.50000000  0.50000000  0.00000000  1
  Ti  Ti2  1  0.50000000  0.49944000  0.74793700  1
  Ti  Ti3  1  0.00000000  0.00000000  0.50000000  1
  Ti  Ti4  1  0.00000000  0.99944000  0.75206300  1
  Ti  Ti5  1  0.00000000  0.00056000  0.24793700  1
  Fe  Fe0  1  0.75065700  0.24861000  0.87604200  1
  Fe  Fe1  1  0.74934300  0.25139000  0.37604200  1
  Fe  Fe2  1  0.24934300  0.24861000  0.87604200  1
  Fe  Fe3  1  0.25065700  0.25139000  0.37604200  1
  Fe  Fe4  1  0.00000000  0.36591100  0.12416800  1
  Fe  Fe5  1  0.00000000  0.36820200  0.62764600  1
  Fe  Fe6  1  0.50000000  0.50000000  0.50000000  1
  Fe  Fe7  1  0.00000000  0.63408900  0.87583200  1
  Fe  Fe8  1  0.00000000  0.63179800  0.37235400  1
  Fe  Fe9  1  0.25065700  0.74861000  0.62395800  1
  Fe  Fe10  1  0.75065700  0.75139000  0.12395800  1
  Fe  Fe11  1  0.24934300  0.75139000  0.12395800  1
  Fe  Fe12  1  0.74934300  0.74861000  0.62395800  1
  Fe  Fe13  1  0.50000000  0.86820200  0.87235400  1
  Fe  Fe14  1  0.50000000  0.86591100  0.37583200  1
  Fe  Fe15  1  0.00000000  0.00000000  0.00000000  1
  Fe  Fe16  1  0.50000000  0.13408900  0.62416800  1
  Fe  Fe17  1  0.50000000  0.13179800  0.12764600  1
  O  O0  1  0.50000000  0.26566200  0.00213800  1
  O  O1  1  0.50000000  0.27077900  0.76246700  1
  O  O2  1  0.50000000  0.26408400  0.48627000  1
  O  O3  1  0.50000000  0.27275100  0.24824500  1
  O  O4  1  0.28395900  0.50114900  0.87804000  1
  O  O5  1  0.71604100  0.50114900  0.87804000  1
  O  O6  1  0.73928500  0.50664800  0.35955300  1
  O  O7  1  0.26071500  0.50664800  0.35955300  1
  O  O8  1  0.73928500  0.49335200  0.64044700  1
  O  O9  1  0.71604100  0.49885100  0.12196000  1
  O  O10  1  0.28395900  0.49885100  0.12196000  1
  O  O11  1  0.26071500  0.49335200  0.64044700  1
  O  O12  1  0.50000000  0.73433800  0.99786200  1
  O  O13  1  0.50000000  0.72922100  0.23753300  1
  O  O14  1  0.50000000  0.73591600  0.51373000  1
  O  O15  1  0.50000000  0.72724900  0.75175500  1
  O  O16  1  0.00000000  0.77077900  0.73753300  1
  O  O17  1  0.00000000  0.77275100  0.25175500  1
  O  O18  1  0.00000000  0.76408400  0.01373000  1
  O  O19  1  0.00000000  0.76566200  0.49786200  1
  O  O20  1  0.78395900  0.00114900  0.62196000  1
  O  O21  1  0.21604100  0.00114900  0.62196000  1
  O  O22  1  0.76071500  0.00664800  0.14044700  1
  O  O23  1  0.23928500  0.00664800  0.14044700  1
  O  O24  1  0.21604100  0.99885100  0.37804000  1
  O  O25  1  0.78395900  0.99885100  0.37804000  1
  O  O26  1  0.23928500  0.99335200  0.85955300  1
  O  O27  1  0.76071500  0.99335200  0.85955300  1
  O  O28  1  0.00000000  0.23591600  0.98627000  1
  O  O29  1  0.00000000  0.22724900  0.74824500  1
  O  O30  1  0.00000000  0.22922100  0.26246700  1
  O  O31  1  0.00000000  0.23433800  0.50213800  1
loop_
_geom_bond_atom_site_label_1
_geom_bond_atom_site_label_2
_geom_bond_distance
_geom_bond_site_symmetry_2
Fe0 O28 2.037892 1_655
Fe0 O1 2.076943 1_555
Fe0 O0 2.178227 1_556
Fe0 O29 2.190102 1_655
Fe0 O5 2.193617 1_555
Fe0 O27 2.216698 1_545
Fe1 O2 2.037892 1_555
Fe1 O30 2.076943 1_655
Fe1 O31 2.178227 1_655
Fe1 O3 2.190102 1_555
Fe1 O25 2.193617 1_545
Fe1 O6 2.216698 1_555
Fe2 O28 2.037892 1_555
Fe2 O1 2.076943 1_555
Fe2 O0 2.178227 1_556
Fe2 O29 2.190102 1_555
Fe2 O4 2.193617 1_555
Fe2 O26 2.216698 1_545
Fe3 O2 2.037892 1_555
Fe3 O30 2.076943 1_555
Fe3 O31 2.178227 1_555
Fe3 O3 2.190102 1_555
Fe3 O24 2.193617 1_545
Fe3 O7 2.216698 1_555
Fe4 O28 2.022119 1_554
Fe4 O30 2.058850 1_555
Fe4 O9 2.085718 1_455
Fe4 O10 2.085718 1_555
Fe5 O29 1.909527 1_555
Fe5 O31 1.918396 1_555
Fe5 O11 1.935987 1_555
Fe5 O8 1.935987 1_455
Fe6 O2 2.046349 1_555
Fe6 O14 2.046349 1_555
Fe6 O6 2.255092 1_555
Fe6 O8 2.255092 1_555
Fe6 O7 2.255092 1_555
Fe6 O11 2.255092 1_555
Fe7 O18 2.022119 1_556
Fe7 O16 2.058850 1_555
Fe7 O5 2.085718 1_455
Fe7 O4 2.085718 1_555
Fe8 O17 1.909527 1_555
Fe8 O19 1.918396 1_555
Fe8 O7 1.935987 1_555
Fe8 O6 1.935987 1_455
Fe9 O14 2.037892 1_555
Fe9 O16 2.076943 1_555
Fe9 O19 2.178227 1_555
Fe9 O15 2.190102 1_555
Fe9 O21 2.193617 1_565
Fe9 O11 2.216698 1_555
Fe10 O18 2.037892 1_655
Fe10 O13 2.076943 1_555
Fe10 O12 2.178227 1_554
Fe10 O17 2.190102 1_655
Fe10 O9 2.193617 1_555
Fe10 O22 2.216698 1_565
Fe11 O18 2.037892 1_555
Fe11 O13 2.076943 1_555
Fe11 O12 2.178227 1_554
Fe11 O17 2.190102 1_555
Fe11 O10 2.193617 1_555
Fe11 O23 2.216698 1_565
Fe12 O14 2.037892 1_555
Fe12 O16 2.076943 1_655
Fe12 O19 2.178227 1_655
Fe12 O15 2.190102 1_555
Fe12 O20 2.193617 1_565
Fe12 O8 2.216698 1_555
Fe13 O15 1.909527 1_555
Fe13 O12 1.918396 1_555
Fe13 O26 1.935987 1_555
Fe13 O27 1.935987 1_555
Fe14 O14 2.022119 1_555
Fe14 O13 2.058850 1_555
Fe14 O24 2.085718 1_555
Fe14 O25 2.085718 1_555
Fe15 O28 2.046349 1_554
Fe15 O18 2.046349 1_545
Fe15 O22 2.255092 1_455
Fe15 O27 2.255092 1_444
Fe15 O26 2.255092 1_544
Fe15 O23 2.255092 1_555
Fe16 O2 2.022119 1_555
Fe16 O1 2.058850 1_555
Fe16 O21 2.085718 1_555
Fe16 O20 2.085718 1_555
Fe17 O3 1.909527 1_555
Fe17 O0 1.918396 1_555
Fe17 O23 1.935987 1_555
Fe17 O22 1.935987 1_555
O0 Ti1 2.026018 1_555
O1 Ti2 1.984693 1_555
O3 Ti0 1.969958 1_555
O4 Ti1 1.990918 1_556
O4 Ti2 2.066134 1_555
O5 Ti1 1.990918 1_556
O5 Ti2 2.066134 1_555
O6 Ti0 1.967369 1_555
O7 Ti0 1.967369 1_555
O8 Ti2 1.967369 1_555
O9 Ti1 1.990918 1_555
O9 Ti0 2.066134 1_555
O10 Ti1 1.990918 1_555
O10 Ti0 2.066134 1_555
O11 Ti2 1.967369 1_555
O12 Ti1 2.026018 1_556
O13 Ti0 1.984693 1_555
O15 Ti2 1.969958 1_555
O16 Ti4 1.984693 1_555
O17 Ti5 1.969958 1_565
O19 Ti3 2.026018 1_565
O20 Ti3 1.990918 1_655
O20 Ti4 2.066134 1_645
O21 Ti3 1.990918 1_555
O21 Ti4 2.066134 1_545
O22 Ti5 1.967369 1_655
O23 Ti5 1.967369 1_555
O24 Ti3 1.990918 1_565
O24 Ti5 2.066134 1_565
O25 Ti3 1.990918 1_665
O25 Ti5 2.066134 1_665
O26 Ti4 1.967369 1_555
O27 Ti4 1.967369 1_655
O29 Ti4 1.969958 1_545
O30 Ti5 1.984693 1_555
O31 Ti3 2.026018 1_555
