# generated using pymatgen
data_Mn(PO3)3
_symmetry_space_group_name_H-M   'P 1'
_cell_length_a   11.77262231
_cell_length_b   11.77262231
_cell_length_c   9.43979692
_cell_angle_alpha   71.01036913
_cell_angle_beta   71.01036913
_cell_angle_gamma   111.76600310
_symmetry_Int_Tables_number   1
_chemical_formula_structural   Mn(PO3)3
_chemical_formula_sum   'Mn6 P18 O54'
_cell_volume   989.65471417
_cell_formula_units_Z   6
loop_
 _symmetry_equiv_pos_site_id
 _symmetry_equiv_pos_as_xyz
  1  'x, y, z'
loop_
 _atom_site_type_symbol
 _atom_site_label
 _atom_site_symmetry_multiplicity
 _atom_site_fract_x
 _atom_site_fract_y
 _atom_site_fract_z
 _atom_site_occupancy
  Mn  Mn0  1  0.58348400  0.07373600  0.46098500  1
  Mn  Mn1  1  0.26085700  0.43792800  0.42374700  1
  Mn  Mn2  1  0.07373600  0.58348400  0.96098500  1
  Mn  Mn3  1  0.43792800  0.26085700  0.92374700  1
  Mn  Mn4  1  0.92610800  0.76667700  0.42891800  1
  Mn  Mn5  1  0.76667700  0.92610800  0.92891800  1
  P  P0  1  0.09473700  0.13362600  0.15078100  1
  P  P1  1  0.05633200  0.32916400  0.27644800  1
  P  P2  1  0.39477900  0.99515000  0.28152700  1
  P  P3  1  0.13362600  0.09473700  0.65078100  1
  P  P4  1  0.84379000  0.11454800  0.11304700  1
  P  P5  1  0.32916400  0.05633200  0.77644800  1
  P  P6  1  0.16955700  0.78059900  0.12168200  1
  P  P7  1  0.52213400  0.46561700  0.08548500  1
  P  P8  1  0.99515000  0.39477900  0.78152700  1
  P  P9  1  0.71749000  0.42748400  0.21740100  1
  P  P10  1  0.40851000  0.77959900  0.17745100  1
  P  P11  1  0.11454800  0.84379000  0.61304700  1
  P  P12  1  0.78059900  0.16955700  0.62168200  1
  P  P13  1  0.46561700  0.52213400  0.58548500  1
  P  P14  1  0.73963100  0.67979200  0.25153700  1
  P  P15  1  0.42748400  0.71749000  0.71740100  1
  P  P16  1  0.77959900  0.40851000  0.67745100  1
  P  P17  1  0.67979200  0.73963100  0.75153700  1
  O  O0  1  0.01245400  0.38856700  0.15376500  1
  O  O1  1  0.11851900  0.24152400  0.22352100  1
  O  O2  1  0.36342000  0.07553800  0.15874800  1
  O  O3  1  0.07645400  0.65146200  0.12116000  1
  O  O4  1  0.43127200  0.35956000  0.05213900  1
  O  O5  1  0.16277000  0.43663700  0.29333500  1
  O  O6  1  0.19181500  0.23534100  0.49744700  1
  O  O7  1  0.50779100  0.08433400  0.30877400  1
  O  O8  1  0.38856700  0.01245400  0.65376500  1
  O  O9  1  0.24152400  0.11851900  0.72352100  1
  O  O10  1  0.07553800  0.36342000  0.65874800  1
  O  O11  1  0.76815400  0.10107600  0.28423600  1
  O  O12  1  0.44781900  0.50706500  0.19882200  1
  O  O13  1  0.10373300  0.77873000  0.28888700  1
  O  O14  1  0.59912800  0.39955900  0.16180700  1
  O  O15  1  0.32085700  0.80213800  0.07978600  1
  O  O16  1  0.00304000  0.15551700  0.06114100  1
  O  O17  1  0.31420500  0.64047500  0.34842300  1
  O  O18  1  0.01690800  0.98804400  0.30132200  1
  O  O19  1  0.66934600  0.28823700  0.36277100  1
  O  O20  1  0.65146200  0.07645400  0.62116000  1
  O  O21  1  0.35956000  0.43127200  0.55213900  1
  O  O22  1  0.43663700  0.16277000  0.79333500  1
  O  O23  1  0.23534100  0.19181500  0.99744700  1
  O  O24  1  0.08433400  0.50779100  0.80877400  1
  O  O25  1  0.54322100  0.81138600  0.04449800  1
  O  O26  1  0.85951400  0.51025900  0.05598100  1
  O  O27  1  0.70162000  0.52111600  0.30751000  1
  O  O28  1  0.25245700  0.87088700  0.46331800  1
  O  O29  1  0.91957100  0.20669400  0.46497900  1
  O  O30  1  0.44880800  0.90518100  0.21983700  1
  O  O31  1  0.10107600  0.76815400  0.78423600  1
  O  O32  1  0.74777500  0.74619400  0.08005500  1
  O  O33  1  0.50706500  0.44781900  0.69882200  1
  O  O34  1  0.77873000  0.10373300  0.78888700  1
  O  O35  1  0.39955900  0.59912800  0.66180700  1
  O  O36  1  0.60410800  0.65479000  0.40209900  1
  O  O37  1  0.80213800  0.32085700  0.57978600  1
  O  O38  1  0.15551700  0.00304000  0.56114100  1
  O  O39  1  0.64047500  0.31420500  0.84842300  1
  O  O40  1  0.98804400  0.01690800  0.80132200  1
  O  O41  1  0.28823700  0.66934600  0.86277100  1
  O  O42  1  0.81138600  0.54322100  0.54449800  1
  O  O43  1  0.76975400  0.98632500  0.09826400  1
  O  O44  1  0.87127900  0.76472900  0.25396100  1
  O  O45  1  0.51025900  0.85951400  0.55598100  1
  O  O46  1  0.52111600  0.70162000  0.80751100  1
  O  O47  1  0.87088700  0.25245700  0.96331800  1
  O  O48  1  0.20669400  0.91957100  0.96497900  1
  O  O49  1  0.90518100  0.44880800  0.71983700  1
  O  O50  1  0.74619400  0.74777500  0.58005500  1
  O  O51  1  0.65479000  0.60410800  0.90209900  1
  O  O52  1  0.98632500  0.76975400  0.59826400  1
  O  O53  1  0.76472900  0.87127900  0.75396100  1
loop_
_geom_bond_atom_site_label_1
_geom_bond_atom_site_label_2
_geom_bond_distance
_geom_bond_site_symmetry_2
Mn0 O7 1.916558 1_555
Mn0 O20 1.930713 1_555
Mn0 O19 2.057072 1_555
Mn0 O8 2.073142 1_555
Mn0 O45 2.078532 1_545
Mn0 O11 2.093990 1_555
Mn1 O21 1.935860 1_555
Mn1 O5 1.942544 1_555
Mn1 O6 1.986775 1_555
Mn1 O17 2.020202 1_555
Mn1 O12 2.126152 1_555
Mn1 O10 2.148257 1_555
Mn2 O24 1.916558 1_555
Mn2 O3 1.930713 1_556
Mn2 O41 2.057072 1_555
Mn2 O0 2.073142 1_556
Mn2 O26 2.078532 1_456
Mn2 O31 2.093990 1_555
Mn3 O4 1.935860 1_556
Mn3 O22 1.942544 1_555
Mn3 O23 1.986775 1_555
Mn3 O39 2.020202 1_555
Mn3 O33 2.126152 1_555
Mn3 O2 2.148257 1_556
Mn4 O52 1.953337 1_555
Mn4 O44 1.962719 1_555
Mn4 O13 1.999795 1_655
Mn4 O50 2.012068 1_555
Mn4 O18 2.106723 1_655
Mn4 O42 2.114947 1_555
Mn5 O43 1.953337 1_556
Mn5 O53 1.962719 1_555
Mn5 O34 1.999795 1_565
Mn5 O32 2.012068 1_556
Mn5 O40 2.106723 1_565
Mn5 O25 2.114947 1_556
O0 P1 1.492399 1_555
O1 P1 1.583583 1_555
O1 P0 1.610088 1_555
O2 P2 1.482892 1_545
O3 P6 1.511696 1_555
O4 P7 1.512163 1_555
O5 P1 1.510578 1_555
O6 P3 1.502932 1_555
O7 P2 1.516929 1_545
O8 P5 1.492399 1_555
O9 P5 1.583583 1_555
O9 P3 1.610088 1_555
O10 P8 1.482892 1_455
O11 P4 1.490459 1_555
O12 P7 1.481672 1_555
O13 P6 1.503671 1_555
O14 P7 1.590155 1_555
O14 P9 1.604240 1_555
O15 P6 1.592073 1_555
O15 P10 1.627330 1_555
O16 P4 1.601658 1_455
O16 P0 1.614521 1_555
O17 P10 1.511611 1_555
O18 P0 1.483011 1_565
O19 P9 1.494129 1_555
O20 P12 1.511696 1_555
O21 P13 1.512163 1_555
O22 P5 1.510578 1_555
O23 P0 1.502932 1_556
O24 P8 1.516929 1_455
O25 P10 1.479578 1_555
O26 P9 1.494754 1_555
O27 P14 1.597749 1_555
O27 P9 1.622654 1_555
O28 P11 1.601396 1_555
O28 P2 1.602959 1_555
O29 P12 1.590483 1_555
O29 P1 1.606872 1_655
O30 P2 1.589192 1_555
O30 P10 1.599765 1_555
O31 P11 1.490459 1_555
O32 P14 1.503509 1_555
O33 P13 1.481672 1_555
O34 P12 1.503671 1_555
O35 P13 1.590155 1_555
O35 P15 1.604240 1_555
O36 P14 1.598716 1_555
O36 P13 1.615343 1_555
O37 P12 1.592073 1_555
O37 P16 1.627330 1_555
O38 P11 1.601658 1_545
O38 P3 1.614521 1_555
O39 P16 1.511611 1_555
O40 P3 1.483011 1_655
O41 P15 1.494129 1_555
O42 P16 1.479578 1_555
O43 P4 1.516012 1_565
O44 P14 1.513615 1_555
O45 P15 1.494754 1_555
O46 P17 1.597747 1_555
O46 P15 1.622661 1_555
O47 P4 1.601396 1_556
O47 P8 1.602959 1_555
O48 P6 1.590483 1_556
O48 P5 1.606872 1_565
O49 P8 1.589192 1_555
O49 P16 1.599765 1_555
O50 P17 1.503509 1_555
O51 P17 1.598716 1_555
O51 P7 1.615343 1_556
O52 P11 1.516012 1_655
O53 P17 1.513615 1_555
