# generated using pymatgen
data_Li2CrCoO4
_symmetry_space_group_name_H-M   'P 1'
_cell_length_a   5.14784448
_cell_length_b   5.14784448
_cell_length_c   5.14784448
_cell_angle_alpha   134.32015813
_cell_angle_beta   134.32015813
_cell_angle_gamma   66.58837544
_symmetry_Int_Tables_number   1
_chemical_formula_structural   Li2CrCoO4
_chemical_formula_sum   'Li2 Cr1 Co1 O4'
_cell_volume   68.72076963
_cell_formula_units_Z   1
loop_
 _symmetry_equiv_pos_site_id
 _symmetry_equiv_pos_as_xyz
  1  'x, y, z'
loop_
 _atom_site_type_symbol
 _atom_site_label
 _atom_site_symmetry_multiplicity
 _atom_site_fract_x
 _atom_site_fract_y
 _atom_site_fract_z
 _atom_site_occupancy
  Li  Li0  1  0.25000000  0.75000000  0.50000000  1
  Li  Li1  1  0.50000000  0.50000000  0.00000000  1
  Cr  Cr0  1  0.75000000  0.25000000  0.50000000  1
  Co  Co0  1  0.00000000  0.00000000  0.00000000  1
  O  O0  1  0.51799000  0.01799000  0.50000000  1
  O  O1  1  0.22469200  0.22469200  0.00000000  1
  O  O2  1  0.98201000  0.48201000  0.50000000  1
  O  O3  1  0.77530800  0.77530800  0.00000000  1
loop_
_geom_bond_atom_site_label_1
_geom_bond_atom_site_label_2
_geom_bond_distance
_geom_bond_site_symmetry_2
Li0 O1 2.010010 1_566
Li0 O3 2.010010 1_455
Li0 O3 2.010010 1_556
Li0 O1 2.010010 1_555
Li0 O0 2.306265 1_565
Li0 O2 2.306265 1_455
Li1 O2 2.004165 1_555
Li1 O0 2.004165 1_565
Li1 O2 2.004165 1_454
Li1 O0 2.004165 1_554
Li1 O3 2.369242 1_555
Li1 O1 2.369242 1_555
Cr0 O0 1.996628 1_555
Cr0 O2 1.996628 1_555
Cr0 O3 2.010010 1_545
Cr0 O1 2.010010 1_656
Cr0 O3 2.010010 1_556
Cr0 O1 2.010010 1_555
Co0 O3 1.933651 1_445
Co0 O1 1.933651 1_555
Co0 O2 2.004165 1_444
Co0 O0 2.004165 1_454
Co0 O2 2.004165 1_455
Co0 O0 2.004165 1_555
