# generated using pymatgen
data_Li4Ti2Mn3Nb3O16
_symmetry_space_group_name_H-M   'P 1'
_cell_length_a   6.22389726
_cell_length_b   6.22389726
_cell_length_c   9.89601935
_cell_angle_alpha   88.18860219
_cell_angle_beta   88.18860219
_cell_angle_gamma   58.38619807
_symmetry_Int_Tables_number   1
_chemical_formula_structural   Li4Ti2Mn3Nb3O16
_chemical_formula_sum   'Li4 Ti2 Mn3 Nb3 O16'
_cell_volume   326.23945654
_cell_formula_units_Z   1
loop_
 _symmetry_equiv_pos_site_id
 _symmetry_equiv_pos_as_xyz
  1  'x, y, z'
loop_
 _atom_site_type_symbol
 _atom_site_label
 _atom_site_symmetry_multiplicity
 _atom_site_fract_x
 _atom_site_fract_y
 _atom_site_fract_z
 _atom_site_occupancy
  Li  Li0  1  0.66947100  0.66947100  0.90404200  1
  Li  Li1  1  0.00217200  0.00217200  0.99789700  1
  Li  Li2  1  0.00718300  0.00718300  0.48562200  1
  Li  Li3  1  0.33644100  0.33644100  0.39783400  1
  Ti  Ti0  1  0.64146300  0.64146300  0.48005500  1
  Ti  Ti1  1  0.32919900  0.32919900  0.00481600  1
  Mn  Mn0  1  0.82720100  0.33597600  0.20350800  1
  Mn  Mn1  1  0.33597600  0.82720100  0.20350800  1
  Mn  Mn2  1  0.16918400  0.16918400  0.70645500  1
  Nb  Nb0  1  0.82264700  0.82264700  0.22800100  1
  Nb  Nb1  1  0.65909100  0.16356400  0.71877100  1
  Nb  Nb2  1  0.16356400  0.65909100  0.71877100  1
  O  O0  1  0.81478800  0.33772200  0.59176800  1
  O  O1  1  0.52364300  0.52364300  0.35605600  1
  O  O2  1  0.68447400  0.68447400  0.10252100  1
  O  O3  1  0.98906400  0.98906400  0.30178900  1
  O  O4  1  0.00050200  0.00050200  0.81493900  1
  O  O5  1  0.33772200  0.81478800  0.59176800  1
  O  O6  1  0.96319300  0.53119300  0.35153900  1
  O  O7  1  0.53119300  0.96319300  0.35153900  1
  O  O8  1  0.17306600  0.17306600  0.08096300  1
  O  O9  1  0.84153500  0.84153500  0.60063300  1
  O  O10  1  0.49806700  0.04482300  0.84369600  1
  O  O11  1  0.04482300  0.49806700  0.84369600  1
  O  O12  1  0.34259700  0.34259700  0.59837200  1
  O  O13  1  0.64843900  0.15873400  0.09368700  1
  O  O14  1  0.48483200  0.48483200  0.84187900  1
  O  O15  1  0.15873400  0.64844000  0.09368700  1
loop_
_geom_bond_atom_site_label_1
_geom_bond_atom_site_label_2
_geom_bond_distance
_geom_bond_site_symmetry_2
Li0 O2 1.976781 1_556
Li0 O11 2.071616 1_655
Li0 O10 2.071616 1_565
Li0 O14 2.119790 1_555
Li1 O4 1.811304 1_555
Li1 O8 2.057890 1_556
Li1 O15 2.091047 1_546
Li1 O13 2.091052 1_456
Li2 O3 1.836913 1_445
Li2 O0 2.060092 1_455
Li2 O5 2.060092 1_545
Li2 O9 2.094561 1_445
Li3 O12 1.988074 1_555
Li3 O6 2.038587 1_455
Li3 O7 2.038587 1_545
Li3 O1 2.061130 1_555
Mn0 O3 2.066764 1_545
Mn0 O2 2.095606 1_555
Mn0 O8 2.181057 1_655
Mn0 O1 2.197808 1_555
Mn0 O13 2.252744 1_555
Mn0 O6 2.368054 1_555
Mn1 O3 2.066764 1_455
Mn1 O2 2.095606 1_555
Mn1 O8 2.181057 1_565
Mn1 O1 2.197808 1_555
Mn1 O15 2.252739 1_555
Mn1 O7 2.368054 1_555
Mn2 O4 2.090446 1_555
Mn2 O12 2.132867 1_555
Mn2 O5 2.216072 1_545
Mn2 O0 2.216072 1_455
Mn2 O10 2.254299 1_555
Mn2 O11 2.254299 1_555
Nb0 O7 1.952987 1_555
Nb0 O6 1.952987 1_555
Nb0 O3 1.974626 1_555
Nb0 O2 1.982781 1_555
Nb0 O15 2.203500 1_655
Nb0 O13 2.203500 1_565
Nb1 O10 1.928551 1_555
Nb1 O4 2.063208 1_655
Nb1 O12 2.074788 1_555
Nb1 O9 2.086028 1_545
Nb1 O14 2.110819 1_555
Nb1 O0 2.152130 1_555
Nb2 O11 1.928551 1_555
Nb2 O4 2.063208 1_565
Nb2 O12 2.074788 1_555
Nb2 O9 2.086028 1_455
Nb2 O14 2.110819 1_555
Nb2 O5 2.152130 1_555
O0 Ti0 1.940349 1_555
O1 Ti0 1.805198 1_555
O5 Ti0 1.940349 1_555
O6 Ti0 2.133440 1_555
O7 Ti0 2.133440 1_555
O8 Ti1 1.831357 1_555
O9 Ti0 2.517636 1_555
O10 Ti1 2.213996 1_556
O11 Ti1 2.213996 1_556
O13 Ti1 1.920519 1_555
O14 Ti1 2.294047 1_556
O15 Ti1 1.920524 1_555
