# generated using pymatgen
data_NaH18C9I(NO)3
_symmetry_space_group_name_H-M   'P 1'
_cell_length_a   9.07958700
_cell_length_b   11.64146489
_cell_length_c   11.83679671
_cell_angle_alpha   61.06494190
_cell_angle_beta   87.67374257
_cell_angle_gamma   88.05893905
_symmetry_Int_Tables_number   1
_chemical_formula_structural   NaH18C9I(NO)3
_chemical_formula_sum   'Na2 H36 C18 I2 N6 O6'
_cell_volume   1093.91626654
_cell_formula_units_Z   2
loop_
 _symmetry_equiv_pos_site_id
 _symmetry_equiv_pos_as_xyz
  1  'x, y, z'
loop_
 _atom_site_type_symbol
 _atom_site_label
 _atom_site_symmetry_multiplicity
 _atom_site_fract_x
 _atom_site_fract_y
 _atom_site_fract_z
 _atom_site_occupancy
  Na  Na0  1  0.05932000  0.00957000  0.01548500  1
  Na  Na1  1  0.45190000  0.01004500  0.01761700  1
  H  H0  1  0.75337700  0.74468700  0.87764400  1
  H  H1  1  0.75101800  0.38215200  0.75714600  1
  H  H2  1  0.17802100  0.53927200  0.61630500  1
  H  H3  1  0.78496300  0.90263500  0.37484400  1
  H  H4  1  0.24453300  0.23169200  0.62810300  1
  H  H5  1  0.15151300  0.74595600  0.40464000  1
  H  H6  1  0.34774200  0.74274900  0.40234900  1
  H  H7  1  0.38236800  0.51770700  0.60349400  1
  H  H8  1  0.00686200  0.49903100  0.54107300  1
  H  H9  1  0.25225100  0.81033300  0.25369100  1
  H  H10  1  0.84910300  0.12614600  0.39675600  1
  H  H11  1  0.65125000  0.18235800  0.38225200  1
  H  H12  1  0.64893800  0.14264100  0.60235300  1
  H  H13  1  0.85323900  0.14290200  0.59707400  1
  H  H14  1  0.74762500  0.74938500  0.18851900  1
  H  H15  1  0.53782500  0.63947300  0.22984600  1
  H  H16  1  0.96137100  0.63371100  0.22811200  1
  H  H17  1  0.63174000  0.59593300  0.26572000  1
  H  H18  1  0.87171900  0.59651600  0.26120500  1
  H  H19  1  0.24842300  0.03437800  0.44471000  1
  H  H20  1  0.34716300  0.88030800  0.51902000  1
  H  H21  1  0.15031600  0.88240400  0.52311900  1
  H  H22  1  0.89625200  0.37865700  0.28521200  1
  H  H23  1  0.60205600  0.38858200  0.28607400  1
  H  H24  1  0.25179500  0.62848300  0.12688700  1
  H  H25  1  0.87498400  0.37923400  0.34703100  1
  H  H26  1  0.62327200  0.38532900  0.34803000  1
  H  H27  1  0.35082100  0.58292400  0.87972600  1
  H  H28  1  0.15293800  0.58602000  0.88180700  1
  H  H29  1  0.24971600  0.12919500  0.23752500  1
  H  H30  1  0.91712400  0.28849500  0.11133500  1
  H  H31  1  0.67985600  0.29724300  0.13596100  1
  H  H32  1  0.24900800  0.51728800  0.03086000  1
  H  H33  1  0.54319200  0.19322500  0.13213100  1
  H  H34  1  0.98866300  0.25450800  0.13834000  1
  H  H35  1  0.72024300  0.19986300  0.05920000  1
  C  C0  1  0.75023000  0.76417600  0.96054400  1
  C  C1  1  0.25073500  0.59363400  0.92868600  1
  C  C2  1  0.24770500  0.83503300  0.80789300  1
  C  C3  1  0.28040600  0.38918800  0.80551500  1
  C  C4  1  0.24874500  0.93149000  0.46493100  1
  C  C5  1  0.75147400  0.27888400  0.77554200  1
  C  C6  1  0.24352800  0.22270400  0.72603800  1
  C  C7  1  0.27760500  0.48056200  0.65675600  1
  C  C8  1  0.75292000  0.97740600  0.27645300  1
  C  C9  1  0.25044300  0.79911100  0.35107400  1
  C  C10  1  0.74664200  0.34604400  0.53457700  1
  C  C11  1  0.74986800  0.19190000  0.59889800  1
  C  C12  1  0.74658500  0.64721500  0.20545800  1
  C  C13  1  0.73854900  0.12727600  0.36375500  1
  C  C14  1  0.24874100  0.72805500  0.04060900  1
  C  C15  1  0.75173600  0.53068500  0.08008900  1
  C  C16  1  0.25027300  0.03797100  0.23042200  1
  C  C17  1  0.66158500  0.20270700  0.14119200  1
  I  I0  1  0.75861400  0.65504900  0.66904800  1
  I  I1  1  0.25148800  0.35017700  0.34023600  1
  N  N0  1  0.24897800  0.72625900  0.91991400  1
  N  N1  1  0.25951100  0.34091700  0.72658900  1
  N  N2  1  0.24984100  0.92814900  0.34340200  1
  N  N3  1  0.74727600  0.27252900  0.66051100  1
  N  N4  1  0.75177100  0.64234700  0.08350800  1
  N  N5  1  0.71802100  0.09734200  0.26425000  1
  O  O0  1  0.74305700  0.87133700  0.95509400  1
  O  O1  1  0.75558700  0.17885000  0.88045200  1
  O  O2  1  0.23125700  0.11921900  0.82849000  1
  O  O3  1  0.74520200  0.95163000  0.18570900  1
  O  O4  1  0.24519200  0.82999900  0.04730100  1
  O  O5  1  0.25133500  0.04082400  0.12176400  1
loop_
_geom_bond_atom_site_label_1
_geom_bond_atom_site_label_2
_geom_bond_distance
_geom_bond_site_symmetry_2
Na0 O5 2.327740 1_555
Na0 O2 2.467034 1_554
Na0 O4 2.531962 1_545
Na1 O5 2.272728 1_555
Na1 O4 2.745809 1_545
Na1 O2 2.842315 1_554
H15 H17 0.977850 1_555
H16 H18 0.915097 1_555
H22 H25 0.752312 1_555
H23 H26 0.748639 1_555
H30 H34 0.746791 1_555
C0 H0 1.108104 1_555
C0 O0 1.217231 1_555
C0 N4 1.460475 1_556
C1 H27 1.093936 1_555
C1 H28 1.094147 1_555
C1 H32 1.100975 1_556
C1 N0 1.496047 1_555
C2 N0 1.318086 1_555
C3 N1 1.324451 1_555
C3 C7 1.556298 1_555
C4 H21 1.096996 1_555
C4 H20 1.097580 1_555
C4 H19 1.101977 1_565
C4 N2 1.457356 1_555
C5 H1 1.113160 1_555
C5 O1 1.225198 1_555
C5 N3 1.400983 1_555
C6 H4 1.112069 1_555
C6 O2 1.232416 1_555
C6 N1 1.391849 1_555
C7 H2 1.091126 1_555
C7 H7 1.097557 1_555
C7 N1 1.435216 1_555
C8 H3 1.108197 1_555
C8 O3 1.252237 1_555
C8 N5 1.359899 1_565
C9 H6 1.094649 1_555
C9 H9 1.094967 1_555
C9 H5 1.097061 1_555
C9 N2 1.460253 1_555
C10 N3 1.311653 1_555
C11 H12 1.086357 1_555
C11 H13 1.086620 1_555
C11 N3 1.439786 1_555
C12 H14 1.106720 1_555
C12 H17 1.233800 1_555
C12 H18 1.308901 1_555
C12 N4 1.470568 1_555
C13 H11 1.083849 1_555
C13 H10 1.089178 1_555
C13 N5 1.401005 1_555
C14 H24 1.114461 1_555
C14 O4 1.226344 1_555
C14 N0 1.438788 1_554
C15 N4 1.319976 1_555
C16 H29 1.104943 1_555
C16 O5 1.270075 1_555
C16 N2 1.329840 1_545
C17 H31 1.090015 1_555
C17 H33 1.099127 1_555
C17 H35 1.102089 1_555
C17 N5 1.475804 1_555
