# generated using pymatgen
data_LiNiPO4
_symmetry_space_group_name_H-M   'P 1'
_cell_length_a   7.71743700
_cell_length_b   8.58613300
_cell_length_c   17.22887228
_cell_angle_alpha   62.20656333
_cell_angle_beta   90.00000000
_cell_angle_gamma   90.00000000
_symmetry_Int_Tables_number   1
_chemical_formula_structural   LiNiPO4
_chemical_formula_sum   'Li12 Ni12 P12 O48'
_cell_volume   1009.93024070
_cell_formula_units_Z   12
loop_
 _symmetry_equiv_pos_site_id
 _symmetry_equiv_pos_as_xyz
  1  'x, y, z'
loop_
 _atom_site_type_symbol
 _atom_site_label
 _atom_site_symmetry_multiplicity
 _atom_site_fract_x
 _atom_site_fract_y
 _atom_site_fract_z
 _atom_site_occupancy
  Li  Li0  1  0.46750900  0.20929300  0.05984000  1
  Li  Li1  1  0.53904200  0.85237700  0.40695300  1
  Li  Li2  1  0.33967400  0.50125000  0.75448500  1
  Li  Li3  1  0.83967400  0.49875000  0.74551500  1
  Li  Li4  1  0.03904200  0.14762300  0.09304700  1
  Li  Li5  1  0.96750900  0.79070700  0.44016000  1
  Li  Li6  1  0.03249100  0.20929300  0.55984000  1
  Li  Li7  1  0.96095800  0.85237700  0.90695300  1
  Li  Li8  1  0.16032600  0.50125000  0.25448500  1
  Li  Li9  1  0.66032600  0.49875000  0.24551500  1
  Li  Li10  1  0.46095800  0.14762300  0.59304700  1
  Li  Li11  1  0.53249100  0.79070700  0.94016000  1
  Ni  Ni0  1  0.76107400  0.87390300  0.58894500  1
  Ni  Ni1  1  0.73006800  0.17505700  0.22862800  1
  Ni  Ni2  1  0.77407500  0.45730700  0.92235300  1
  Ni  Ni3  1  0.27407500  0.54269300  0.57764700  1
  Ni  Ni4  1  0.23006800  0.82494300  0.27137200  1
  Ni  Ni5  1  0.26107400  0.12609700  0.91105500  1
  Ni  Ni6  1  0.73892600  0.87390300  0.08894500  1
  Ni  Ni7  1  0.76993200  0.17505700  0.72862800  1
  Ni  Ni8  1  0.72592500  0.45730700  0.42235300  1
  Ni  Ni9  1  0.22592500  0.54269300  0.07764700  1
  Ni  Ni10  1  0.26993200  0.82494300  0.77137200  1
  Ni  Ni11  1  0.23892600  0.12609700  0.41105500  1
  P  P0  1  0.17173800  0.86453100  0.59171400  1
  P  P1  1  0.32356400  0.18389600  0.22403900  1
  P  P2  1  0.17615400  0.45665500  0.92957900  1
  P  P3  1  0.67615400  0.54334500  0.57042100  1
  P  P4  1  0.82356400  0.81610400  0.27596100  1
  P  P5  1  0.67173800  0.13546900  0.90828600  1
  P  P6  1  0.32826200  0.86453100  0.09171400  1
  P  P7  1  0.17643600  0.18389600  0.72403900  1
  P  P8  1  0.32384600  0.45665500  0.42957900  1
  P  P9  1  0.82384600  0.54334500  0.07042100  1
  P  P10  1  0.67643600  0.81610400  0.77596100  1
  P  P11  1  0.82826200  0.13546900  0.40828600  1
  O  O0  1  0.00244600  0.07498700  0.38721600  1
  O  O1  1  0.85856700  0.34454400  0.12762300  1
  O  O2  1  0.71857200  0.96620000  0.46252200  1
  O  O3  1  0.76889000  0.63974500  0.79781800  1
  O  O4  1  0.29190700  0.41873600  0.01057400  1
  O  O5  1  0.49877400  0.22445000  0.17434600  1
  O  O6  1  0.35499300  0.07354700  0.32445900  1
  O  O7  1  0.26789400  0.74177700  0.67881100  1
  O  O8  1  0.00265500  0.35566600  0.96459100  1
  O  O9  1  0.14414800  0.76541700  0.53642400  1
  O  O10  1  0.26918600  0.38248000  0.87350000  1
  O  O11  1  0.20736600  0.07858500  0.19169000  1
  O  O12  1  0.76918600  0.61752000  0.62650000  1
  O  O13  1  0.70736600  0.92141500  0.30831000  1
  O  O14  1  0.64414800  0.23458300  0.96357600  1
  O  O15  1  0.50265500  0.64433400  0.53540900  1
  O  O16  1  0.76789400  0.25822300  0.82118900  1
  O  O17  1  0.85499300  0.92645300  0.17554100  1
  O  O18  1  0.99877400  0.77555000  0.32565400  1
  O  O19  1  0.26889000  0.36025500  0.70218200  1
  O  O20  1  0.79190700  0.58126400  0.48942600  1
  O  O21  1  0.21857200  0.03380000  0.03747800  1
  O  O22  1  0.35856700  0.65545600  0.37237700  1
  O  O23  1  0.50244600  0.92501300  0.11278400  1
  O  O24  1  0.49755400  0.07498700  0.88721600  1
  O  O25  1  0.64143300  0.34454400  0.62762300  1
  O  O26  1  0.78142800  0.96620000  0.96252200  1
  O  O27  1  0.20809300  0.41873600  0.51057400  1
  O  O28  1  0.73111000  0.63974500  0.29781800  1
  O  O29  1  0.00122600  0.22445000  0.67434600  1
  O  O30  1  0.14500700  0.07354700  0.82445900  1
  O  O31  1  0.23210600  0.74177700  0.17881100  1
  O  O32  1  0.49734500  0.35566600  0.46459100  1
  O  O33  1  0.35585200  0.76541700  0.03642400  1
  O  O34  1  0.29263400  0.07858500  0.69169000  1
  O  O35  1  0.23081400  0.38248000  0.37350000  1
  O  O36  1  0.79263400  0.92141500  0.80831000  1
  O  O37  1  0.73081400  0.61752000  0.12650000  1
  O  O38  1  0.85585200  0.23458300  0.46357600  1
  O  O39  1  0.99734500  0.64433400  0.03540900  1
  O  O40  1  0.73210600  0.25822300  0.32118900  1
  O  O41  1  0.64500700  0.92645300  0.67554100  1
  O  O42  1  0.50122600  0.77555000  0.82565400  1
  O  O43  1  0.70809300  0.58126400  0.98942600  1
  O  O44  1  0.23111000  0.36025500  0.20218200  1
  O  O45  1  0.28142800  0.03380000  0.53747800  1
  O  O46  1  0.14143300  0.65545600  0.87237700  1
  O  O47  1  0.99755400  0.92501300  0.61278400  1
loop_
_geom_bond_atom_site_label_1
_geom_bond_atom_site_label_2
_geom_bond_distance
_geom_bond_site_symmetry_2
Li0 O5 2.050990 1_555
Li0 O14 2.078534 1_554
Li0 O4 2.089844 1_555
Li0 O23 2.187744 1_545
Li0 O21 2.578977 1_555
Li1 O13 1.996921 1_555
Li1 O15 2.116828 1_555
Li1 O2 2.159611 1_555
Li1 O6 2.264223 1_565
Li1 O22 2.468367 1_555
Li2 O10 1.894820 1_555
Li2 O19 1.895608 1_555
Li2 O7 1.939264 1_555
Li3 O12 1.894820 1_555
Li3 O3 1.895608 1_555
Li3 O16 1.939264 1_555
Li4 O11 1.996921 1_555
Li4 O8 2.116828 1_554
Li4 O21 2.159611 1_555
Li4 O17 2.264223 1_445
Li4 O1 2.468367 1_455
Li5 O18 2.050990 1_555
Li5 O9 2.078534 1_655
Li5 O20 2.089844 1_555
Li5 O0 2.187744 1_665
Li5 O2 2.578977 1_555
Li6 O29 2.050990 1_555
Li6 O38 2.078534 1_455
Li6 O27 2.089844 1_555
Li6 O47 2.187744 1_445
Li6 O45 2.578977 1_555
Li7 O36 1.996921 1_555
Li7 O39 2.116828 1_556
Li7 O26 2.159611 1_555
Li7 O30 2.264223 1_665
Li7 O46 2.468367 1_655
Li8 O35 1.894820 1_555
Li8 O44 1.895608 1_555
Li8 O31 1.939264 1_555
Li9 O37 1.894820 1_555
Li9 O28 1.895608 1_555
Li9 O40 1.939264 1_555
Li10 O34 1.996921 1_555
Li10 O32 2.116828 1_555
Li10 O45 2.159611 1_555
Li10 O41 2.264223 1_545
Li10 O25 2.468367 1_555
Li11 O42 2.050990 1_555
Li11 O33 2.078534 1_556
Li11 O43 2.089844 1_555
Li11 O24 2.187744 1_565
Li11 O26 2.578977 1_555
Ni0 O41 1.964594 1_555
Ni0 O47 1.964701 1_555
Ni0 O2 1.967261 1_555
Ni0 O12 1.984986 1_555
Ni1 O1 1.941084 1_555
Ni1 O13 1.967239 1_545
Ni1 O5 1.967441 1_555
Ni1 O40 2.028608 1_555
Ni2 O8 1.952127 1_655
Ni2 O43 1.968356 1_555
Ni2 O14 1.974908 1_555
Ni2 O3 1.981060 1_555
Ni3 O15 1.952127 1_555
Ni3 O27 1.968356 1_555
Ni3 O9 1.974908 1_555
Ni3 O19 1.981060 1_555
Ni4 O22 1.941084 1_555
Ni4 O11 1.967239 1_565
Ni4 O18 1.967441 1_455
Ni4 O31 2.028608 1_555
Ni5 O30 1.964594 1_555
Ni5 O24 1.964701 1_555
Ni5 O21 1.967261 1_556
Ni5 O10 1.984986 1_555
Ni6 O17 1.964594 1_555
Ni6 O23 1.964701 1_555
Ni6 O26 1.967261 1_554
Ni6 O37 1.984986 1_555
Ni7 O25 1.941084 1_555
Ni7 O36 1.967239 1_545
Ni7 O29 1.967441 1_655
Ni7 O16 2.028608 1_555
Ni8 O32 1.952127 1_555
Ni8 O20 1.968356 1_555
Ni8 O38 1.974908 1_555
Ni8 O28 1.981060 1_555
Ni9 O39 1.952127 1_455
Ni9 O4 1.968356 1_555
Ni9 O33 1.974908 1_555
Ni9 O44 1.981060 1_555
Ni10 O46 1.941084 1_555
Ni10 O34 1.967239 1_565
Ni10 O42 1.967441 1_555
Ni10 O7 2.028608 1_555
Ni11 O6 1.964594 1_555
Ni11 O0 1.964701 1_555
Ni11 O45 1.967261 1_555
Ni11 O35 1.984986 1_555
O0 P11 1.544111 1_455
O1 P9 1.545278 1_555
O2 P11 1.560622 1_565
O3 P10 1.553080 1_555
O4 P2 1.558079 1_554
O5 P1 1.550678 1_555
O6 P1 1.556005 1_555
O7 P0 1.561527 1_555
O8 P2 1.555890 1_555
O9 P0 1.559794 1_555
O10 P2 1.558344 1_555
O11 P1 1.549955 1_555
O12 P3 1.558344 1_555
O13 P4 1.549955 1_555
O14 P5 1.559794 1_555
O15 P3 1.555890 1_555
O16 P5 1.561527 1_555
O17 P4 1.556005 1_555
O18 P4 1.550678 1_555
O19 P7 1.553080 1_555
O20 P3 1.558079 1_555
O21 P6 1.560622 1_545
O22 P8 1.545278 1_555
O23 P6 1.544111 1_555
O24 P5 1.544111 1_555
O25 P3 1.545278 1_555
O26 P5 1.560622 1_565
O27 P8 1.558079 1_555
O28 P4 1.553080 1_555
O29 P7 1.550678 1_555
O30 P7 1.556005 1_555
O31 P6 1.561527 1_555
O32 P8 1.555890 1_555
O33 P6 1.559794 1_555
O34 P7 1.549955 1_555
O35 P8 1.558344 1_555
O36 P10 1.549955 1_555
O37 P9 1.558344 1_555
O38 P11 1.559794 1_555
O39 P9 1.555890 1_555
O40 P11 1.561527 1_555
O41 P10 1.556005 1_555
O42 P10 1.550678 1_555
O43 P9 1.558079 1_556
O44 P1 1.553080 1_555
O45 P0 1.560622 1_545
O46 P2 1.545278 1_555
O47 P0 1.544111 1_655
