# generated using pymatgen
data_LiCoPO4
_symmetry_space_group_name_H-M   'P 1'
_cell_length_a   5.17452494
_cell_length_b   7.89942716
_cell_length_c   8.75783359
_cell_angle_alpha   92.36271766
_cell_angle_beta   92.77699778
_cell_angle_gamma   77.88463756
_symmetry_Int_Tables_number   1
_chemical_formula_structural   LiCoPO4
_chemical_formula_sum   'Li4 Co4 P4 O16'
_cell_volume   349.42208309
_cell_formula_units_Z   4
loop_
 _symmetry_equiv_pos_site_id
 _symmetry_equiv_pos_as_xyz
  1  'x, y, z'
loop_
 _atom_site_type_symbol
 _atom_site_label
 _atom_site_symmetry_multiplicity
 _atom_site_fract_x
 _atom_site_fract_y
 _atom_site_fract_z
 _atom_site_occupancy
  Li  Li0  1  0.13435400  0.96913500  0.34536000  1
  Li  Li1  1  0.86566400  0.03088000  0.65463600  1
  Li  Li2  1  0.17992200  0.43634500  0.23258500  1
  Li  Li3  1  0.82004400  0.56362000  0.76745100  1
  Co  Co0  1  0.30991200  0.67969700  0.55721900  1
  Co  Co1  1  0.69007500  0.32031100  0.44277600  1
  Co  Co2  1  0.23600700  0.19151700  0.90905000  1
  Co  Co3  1  0.76402600  0.80846800  0.09093800  1
  P  P0  1  0.24240800  0.28516400  0.57550500  1
  P  P1  1  0.75757200  0.71483600  0.42449700  1
  P  P2  1  0.24027000  0.79255300  0.89041400  1
  P  P3  1  0.75974900  0.20744900  0.10958800  1
  O  O0  1  0.06064200  0.17725400  0.48561900  1
  O  O1  1  0.93935200  0.82275500  0.51437800  1
  O  O2  1  0.01141500  0.28289300  0.08664800  1
  O  O3  1  0.98860800  0.71708000  0.91334500  1
  O  O4  1  0.12041200  0.34760800  0.73105600  1
  O  O5  1  0.87954100  0.65238700  0.26894400  1
  O  O6  1  0.26456500  0.44123800  0.47411200  1
  O  O7  1  0.73540700  0.55877800  0.52588300  1
  O  O8  1  0.14802900  0.97457700  0.81763100  1
  O  O9  1  0.85198400  0.02539600  0.18235300  1
  O  O10  1  0.42163200  0.67109700  0.77617900  1
  O  O11  1  0.57840000  0.32889800  0.22382800  1
  O  O12  1  0.39115300  0.80794900  0.04428700  1
  O  O13  1  0.60887500  0.19209100  0.95570100  1
  O  O14  1  0.53066700  0.18077900  0.59210800  1
  O  O15  1  0.46931500  0.81924600  0.40790900  1
loop_
_geom_bond_atom_site_label_1
_geom_bond_atom_site_label_2
_geom_bond_distance
_geom_bond_site_symmetry_2
Li0 O15 1.950961 1_555
Li0 O9 1.986968 1_465
Li0 O0 1.993199 1_565
Li0 O1 2.306934 1_455
Li1 O14 1.951086 1_555
Li1 O8 1.986911 1_645
Li1 O1 1.993224 1_545
Li1 O0 2.306827 1_655
Li2 O2 2.017706 1_555
Li2 O11 2.062327 1_555
Li2 O5 2.078347 1_455
Li2 O6 2.139677 1_555
Li3 O3 2.017682 1_555
Li3 O10 2.062045 1_555
Li3 O4 2.078201 1_655
Li3 O7 2.140015 1_555
Co0 O10 1.975576 1_555
Co0 O1 2.037207 1_455
Co0 O6 2.046714 1_555
Co0 O15 2.051946 1_555
Co0 O7 2.233715 1_555
Co1 O11 1.975418 1_555
Co1 O0 2.037237 1_655
Co1 O7 2.046751 1_555
Co1 O14 2.052004 1_555
Co1 O6 2.233799 1_555
Co2 O13 1.953643 1_555
Co2 O8 1.990997 1_545
Co2 O2 2.005312 1_556
Co2 O4 2.016599 1_555
Co3 O12 1.953581 1_555
Co3 O9 1.990859 1_565
Co3 O3 2.005269 1_554
Co3 O5 2.016582 1_555
O0 P0 1.562190 1_555
O1 P1 1.562267 1_555
O2 P3 1.566012 1_455
O3 P2 1.566107 1_655
O4 P0 1.547537 1_555
O5 P1 1.547506 1_555
O6 P0 1.575169 1_555
O7 P1 1.575039 1_555
O8 P2 1.568325 1_555
O9 P3 1.568453 1_555
O10 P2 1.560772 1_555
O11 P3 1.560741 1_555
O12 P2 1.537779 1_554
O13 P3 1.537816 1_556
O14 P0 1.548723 1_555
O15 P1 1.548771 1_555
