# generated using pymatgen
data_Na2NiPCO7
_symmetry_space_group_name_H-M   'P 1'
_cell_length_a   6.51687200
_cell_length_b   9.01195400
_cell_length_c   10.36609694
_cell_angle_alpha   88.54703455
_cell_angle_beta   90.00000000
_cell_angle_gamma   90.00000000
_symmetry_Int_Tables_number   1
_chemical_formula_structural   Na2NiPCO7
_chemical_formula_sum   'Na8 Ni4 P4 C4 O28'
_cell_volume   608.60254616
_cell_formula_units_Z   4
loop_
 _symmetry_equiv_pos_site_id
 _symmetry_equiv_pos_as_xyz
  1  'x, y, z'
loop_
 _atom_site_type_symbol
 _atom_site_label
 _atom_site_symmetry_multiplicity
 _atom_site_fract_x
 _atom_site_fract_y
 _atom_site_fract_z
 _atom_site_occupancy
  Na  Na0  1  0.23394700  0.73819700  0.87616600  1
  Na  Na1  1  0.76867700  0.73866100  0.87415900  1
  Na  Na2  1  0.23132300  0.73866100  0.37415900  1
  Na  Na3  1  0.76605300  0.73819700  0.37616600  1
  Na  Na4  1  0.73024200  0.26723500  0.62784400  1
  Na  Na5  1  0.26975800  0.26723500  0.12784400  1
  Na  Na6  1  0.50431600  0.09003300  0.89472100  1
  Na  Na7  1  0.49568400  0.09003300  0.39472100  1
  Ni  Ni0  1  0.49735600  0.65161500  0.61092200  1
  Ni  Ni1  1  0.50264400  0.65161500  0.11092200  1
  Ni  Ni2  1  0.00177900  0.34237400  0.88967400  1
  Ni  Ni3  1  0.99822100  0.34237400  0.38967400  1
  P  P0  1  0.00069000  0.57353700  0.64096300  1
  P  P1  1  0.99931000  0.57353700  0.14096300  1
  P  P2  1  0.50164400  0.42289700  0.85615600  1
  P  P3  1  0.49835600  0.42289700  0.35615600  1
  C  C0  1  0.50626800  0.92658200  0.64404000  1
  C  C1  1  0.49373200  0.92658200  0.14404000  1
  C  C2  1  0.00378000  0.07122700  0.85789700  1
  C  C3  1  0.99622000  0.07122700  0.35789700  1
  O  O0  1  0.00179400  0.93279400  0.83995200  1
  O  O1  1  0.99820600  0.93279400  0.33995200  1
  O  O2  1  0.50100500  0.86574100  0.53043500  1
  O  O3  1  0.49899500  0.86574100  0.03043500  1
  O  O4  1  0.49973100  0.83298900  0.74243500  1
  O  O5  1  0.50026900  0.83298900  0.24243500  1
  O  O6  1  0.18789800  0.67179800  0.60350300  1
  O  O7  1  0.81114000  0.67158300  0.60556400  1
  O  O8  1  0.18886000  0.67158300  0.10556400  1
  O  O9  1  0.81210200  0.67179800  0.10350300  1
  O  O10  1  0.50562400  0.57016600  0.92874800  1
  O  O11  1  0.49437600  0.57016600  0.42874800  1
  O  O12  1  0.00287800  0.54084700  0.79025400  1
  O  O13  1  0.99712200  0.54084700  0.29025400  1
  O  O14  1  0.49863300  0.46147700  0.70809400  1
  O  O15  1  0.50136700  0.46147700  0.20809400  1
  O  O16  1  0.99619500  0.42731700  0.56742500  1
  O  O17  1  0.00380500  0.42731700  0.06742500  1
  O  O18  1  0.69111400  0.32166200  0.88094400  1
  O  O19  1  0.31484200  0.32517000  0.89695800  1
  O  O20  1  0.68515800  0.32517000  0.39695800  1
  O  O21  1  0.30888600  0.32166200  0.38094400  1
  O  O22  1  0.99587900  0.17051200  0.76384500  1
  O  O23  1  0.00412100  0.17051200  0.26384500  1
  O  O24  1  0.01240600  0.13034400  0.97077300  1
  O  O25  1  0.98759400  0.13034400  0.47077300  1
  O  O26  1  0.51709300  0.06556600  0.65649400  1
  O  O27  1  0.48290700  0.06556600  0.15649400  1
loop_
_geom_bond_atom_site_label_1
_geom_bond_atom_site_label_2
_geom_bond_distance
_geom_bond_site_symmetry_2
Na0 O0 2.339209 1_555
Na0 O4 2.364646 1_555
Na0 O10 2.383889 1_555
Na0 O8 2.455408 1_556
Na0 O12 2.510799 1_555
Na0 O3 2.637277 1_556
Na0 O6 2.919369 1_555
Na1 O0 2.337314 1_655
Na1 O10 2.349713 1_555
Na1 O4 2.366468 1_555
Na1 O9 2.454092 1_556
Na1 O12 2.518447 1_655
Na1 O3 2.668092 1_556
Na1 O7 2.877426 1_555
Na2 O1 2.337314 1_455
Na2 O11 2.349713 1_555
Na2 O5 2.366468 1_555
Na2 O6 2.454092 1_555
Na2 O13 2.518447 1_455
Na2 O2 2.668092 1_555
Na2 O8 2.877426 1_555
Na3 O1 2.339209 1_555
Na3 O5 2.364646 1_555
Na3 O11 2.383889 1_555
Na3 O7 2.455408 1_555
Na3 O13 2.510799 1_555
Na3 O2 2.637277 1_555
Na3 O9 2.919369 1_555
Na4 O26 2.300737 1_555
Na4 O16 2.330580 1_555
Na4 O22 2.383652 1_555
Na4 O20 2.454353 1_555
Na4 O14 2.471499 1_555
Na4 O25 2.662257 1_555
Na4 O18 2.693409 1_555
Na5 O27 2.300737 1_555
Na5 O17 2.330580 1_555
Na5 O23 2.383652 1_555
Na5 O19 2.454353 1_554
Na5 O15 2.471499 1_555
Na5 O24 2.662257 1_554
Na5 O21 2.693409 1_555
Na6 O18 2.417551 1_555
Na6 O3 2.433483 1_546
Na6 O19 2.453172 1_555
Na6 O26 2.486266 1_555
Na6 O27 2.720510 1_556
Na6 O4 2.836262 1_545
Na7 O21 2.417551 1_555
Na7 O2 2.433483 1_545
Na7 O20 2.453172 1_555
Na7 O27 2.486266 1_555
Na7 O26 2.720510 1_555
Na7 O5 2.836262 1_545
Ni0 O14 1.965531 1_555
Ni0 O6 2.026169 1_555
Ni0 O11 2.043436 1_555
Ni0 O7 2.053421 1_555
Ni0 O2 2.082967 1_555
Ni0 O4 2.154871 1_555
Ni1 O15 1.965531 1_555
Ni1 O9 2.026169 1_555
Ni1 O10 2.043436 1_554
Ni1 O8 2.053421 1_555
Ni1 O3 2.082967 1_555
Ni1 O5 2.154871 1_555
Ni2 O17 2.013160 1_556
Ni2 O18 2.035374 1_455
Ni2 O12 2.041543 1_555
Ni2 O19 2.047322 1_555
Ni2 O22 2.050388 1_455
Ni2 O24 2.069118 1_555
Ni3 O16 2.013160 1_555
Ni3 O21 2.035374 1_655
Ni3 O13 2.041543 1_555
Ni3 O20 2.047322 1_555
Ni3 O23 2.050388 1_655
Ni3 O25 2.069118 1_555
C0 O26 1.264375 1_565
C0 O4 1.307650 1_555
C0 O2 1.312016 1_555
C1 O27 1.264375 1_565
C1 O5 1.307650 1_555
C1 O3 1.312016 1_555
C2 O0 1.266067 1_545
C2 O24 1.299116 1_555
C2 O22 1.307488 1_455
C3 O1 1.266067 1_545
C3 O25 1.299116 1_555
C3 O23 1.307488 1_655
O6 P0 1.551105 1_555
O7 P0 1.557188 1_655
O8 P1 1.557188 1_455
O9 P1 1.551105 1_555
O10 P2 1.542394 1_555
O11 P3 1.542394 1_555
O12 P0 1.568066 1_555
O13 P1 1.568066 1_555
O14 P2 1.565214 1_555
O15 P3 1.565214 1_555
O16 P0 1.539256 1_655
O17 P1 1.539256 1_455
O18 P2 1.552767 1_555
O19 P2 1.554873 1_555
O20 P3 1.554873 1_555
O21 P3 1.552767 1_555
