# generated using pymatgen
data_Hf2N2O
_symmetry_space_group_name_H-M   'P 1'
_cell_length_a   8.65289637
_cell_length_b   8.66827898
_cell_length_c   8.67710667
_cell_angle_alpha   109.32614285
_cell_angle_beta   109.45911997
_cell_angle_gamma   109.39117679
_symmetry_Int_Tables_number   1
_chemical_formula_structural   Hf2N2O
_chemical_formula_sum   'Hf16 N16 O8'
_cell_volume   502.47211379
_cell_formula_units_Z   8
loop_
 _symmetry_equiv_pos_site_id
 _symmetry_equiv_pos_as_xyz
  1  'x, y, z'
loop_
 _atom_site_type_symbol
 _atom_site_label
 _atom_site_symmetry_multiplicity
 _atom_site_fract_x
 _atom_site_fract_y
 _atom_site_fract_z
 _atom_site_occupancy
  Hf  Hf0  1  0.49580236  0.00246956  0.00756473  1
  Hf  Hf1  1  0.28176174  0.24245745  0.02606868  1
  Hf  Hf2  1  0.24375876  0.02701337  0.28341313  1
  Hf  Hf3  1  0.75107034  0.45700911  0.21333698  1
  Hf  Hf4  1  0.52302567  0.27870723  0.74650068  1
  Hf  Hf5  1  0.03361768  0.78819625  0.75676597  1
  Hf  Hf6  1  0.50577339  0.51298010  0.51604142  1
  Hf  Hf7  1  0.01411123  0.50565433  0.00339142  1
  Hf  Hf8  1  0.79159346  0.25164000  0.53229338  1
  Hf  Hf9  1  0.00123445  0.00821707  0.50054877  1
  Hf  Hf10  1  0.21698363  0.74706261  0.45736863  1
  Hf  Hf11  1  0.46521211  0.71826506  0.24923943  1
  Hf  Hf12  1  0.96525445  0.21755134  0.25472793  1
  Hf  Hf13  1  0.25065175  0.53382444  0.79005247  1
  Hf  Hf14  1  0.75015666  0.96232176  0.70774784  1
  Hf  Hf15  1  0.71453627  0.75114950  0.96597903  1
  N  N0  1  0.27359702  0.03115940  0.54513803  1
  N  N1  1  0.49278111  0.23335406  0.95869823  1
  N  N2  1  0.00802847  0.46359143  0.23519007  1
  N  N3  1  0.03468993  0.04543605  0.77098857  1
  N  N4  1  0.22988198  0.45469410  0.99207354  1
  N  N5  1  0.96544685  0.95311759  0.22214048  1
  N  N6  1  0.46207667  0.73349959  0.51094068  1
  N  N7  1  0.72450252  0.23553378  0.27126971  1
  N  N8  1  0.98739485  0.53288548  0.76122482  1
  N  N9  1  0.77105437  0.72921261  0.73814955  1
  N  N10  1  0.23749895  0.77128771  0.22431158  1
  N  N11  1  0.04791466  0.27333466  0.53147438  1
  N  N12  1  0.45383577  0.48314005  0.72493948  1
  N  N13  1  0.26136000  0.98734809  0.03439720  1
  N  N14  1  0.72754511  0.96873531  0.45738488  1
  N  N15  1  0.51261342  0.77536385  0.04274644  1
  O  O0  1  0.73695054  0.01397263  0.96195908  1
  O  O1  1  0.55153000  0.51226760  0.27953883  1
  O  O2  1  0.75510447  0.22686799  0.77351261  1
  O  O3  1  0.95018840  0.72226315  0.46473157  1
  O  O4  1  0.23297104  0.27571633  0.26357558  1
  O  O5  1  0.77339105  0.54638845  0.01167974  1
  O  O6  1  0.53479861  0.26173564  0.48725966  1
  O  O7  1  0.27030424  0.76457425  0.72564182  1
loop_
_geom_bond_atom_site_label_1
_geom_bond_atom_site_label_2
_geom_bond_distance
_geom_bond_site_symmetry_2
Hf0 N13 2.084455 1_545
Hf0 N7 2.121779 1_555
Hf0 N15 2.132638 1_545
Hf0 N1 2.185181 1_554
Hf0 O7 2.202928 1_544
Hf0 O0 2.226810 1_554
Hf1 N3 2.075338 1_554
Hf1 N1 2.111468 1_554
Hf1 N4 2.119552 1_554
Hf1 O4 2.185362 1_555
Hf1 N13 2.186675 1_545
Hf1 O1 2.303384 1_555
Hf2 N10 2.080631 1_545
Hf2 N5 2.095143 1_445
Hf2 N13 2.138340 1_545
Hf2 N0 2.185089 1_555
Hf2 O6 2.204107 1_555
Hf2 O4 2.248215 1_555
Hf3 N7 2.100931 1_555
Hf3 O3 2.135231 1_555
Hf3 O1 2.137394 1_555
Hf3 N2 2.147220 1_655
Hf3 N1 2.152431 1_554
Hf3 O5 2.173128 1_555
Hf4 N0 2.060611 1_555
Hf4 N1 2.084498 1_555
Hf4 N12 2.093564 1_555
Hf4 O2 2.155194 1_555
Hf4 O6 2.244034 1_555
Hf4 O5 2.275677 1_556
Hf5 N9 2.092524 1_455
Hf5 N13 2.119523 1_556
Hf5 N8 2.130378 1_455
Hf5 N3 2.188789 1_565
Hf5 O3 2.194912 1_455
Hf5 O7 2.218028 1_555
Hf6 N9 2.073916 1_555
Hf6 N6 2.079333 1_555
Hf6 N12 2.080962 1_555
Hf6 O1 2.214211 1_555
Hf6 O6 2.216643 1_555
Hf6 O4 2.224807 1_555
Hf7 N4 2.081280 1_554
Hf7 N10 2.089764 1_555
Hf7 N8 2.136710 1_454
Hf7 N2 2.173569 1_555
Hf7 O5 2.244952 1_455
Hf7 O2 2.253018 1_454
Hf8 N7 2.085005 1_555
Hf8 N14 2.132108 1_545
Hf8 N8 2.137619 1_555
Hf8 O6 2.161243 1_555
Hf8 N11 2.165413 1_655
Hf8 O2 2.284640 1_555
Hf9 N11 2.102308 1_555
Hf9 N14 2.156803 1_445
Hf9 N3 2.163066 1_555
Hf9 N0 2.184886 1_555
Hf9 N5 2.190812 1_445
Hf9 O3 2.259958 1_445
Hf10 N6 2.066992 1_555
Hf10 N0 2.143250 1_565
Hf10 N2 2.148391 1_555
Hf10 O7 2.158416 1_555
Hf10 N10 2.158854 1_555
Hf10 O3 2.271019 1_455
Hf11 N10 2.126881 1_555
Hf11 N14 2.128123 1_555
Hf11 N15 2.136689 1_555
Hf11 N4 2.203304 1_554
Hf11 O1 2.209303 1_555
Hf11 N6 2.240467 1_555
Hf12 N11 2.090295 1_655
Hf12 N2 2.114541 1_655
Hf12 O4 2.169494 1_655
Hf12 N7 2.187388 1_555
Hf12 O0 2.201006 1_554
Hf12 N5 2.215382 1_545
Hf13 N4 2.121214 1_555
Hf13 N11 2.145721 1_555
Hf13 N12 2.147954 1_555
Hf13 N15 2.197265 1_556
Hf13 N8 2.204160 1_455
Hf13 O7 2.217993 1_555
Hf14 N3 2.131226 1_665
Hf14 N14 2.136533 1_555
Hf14 O0 2.151135 1_565
Hf14 O2 2.153705 1_565
Hf14 N6 2.168606 1_555
Hf14 N9 2.179220 1_555
Hf15 N5 2.098654 1_556
Hf15 N15 2.113519 1_556
Hf15 O5 2.120968 1_556
Hf15 N9 2.154191 1_555
Hf15 O0 2.234466 1_565
Hf15 N12 2.240702 1_555
