# generated using pymatgen
data_U2S2O19
_symmetry_space_group_name_H-M   'P 1'
_cell_length_a   8.93379583
_cell_length_b   8.93379583
_cell_length_c   11.81502033
_cell_angle_alpha   74.05731041
_cell_angle_beta   74.05731041
_cell_angle_gamma   71.76421899
_symmetry_Int_Tables_number   1
_chemical_formula_structural   U2S2O19
_chemical_formula_sum   'U4 S4 O38'
_cell_volume   842.59163395
_cell_formula_units_Z   2
loop_
 _symmetry_equiv_pos_site_id
 _symmetry_equiv_pos_as_xyz
  1  'x, y, z'
loop_
 _atom_site_type_symbol
 _atom_site_label
 _atom_site_symmetry_multiplicity
 _atom_site_fract_x
 _atom_site_fract_y
 _atom_site_fract_z
 _atom_site_occupancy
  U  U0  1  0.18861800  0.13665400  0.28294700  1
  U  U1  1  0.86334600  0.81138200  0.21705300  1
  U  U2  1  0.81138200  0.86334600  0.71705300  1
  U  U3  1  0.13665400  0.18861800  0.78294700  1
  S  S0  1  0.24737600  0.91380000  0.05898000  1
  S  S1  1  0.08620000  0.75262400  0.44102000  1
  S  S2  1  0.75262400  0.08620000  0.94102000  1
  S  S3  1  0.91380000  0.24737600  0.55898000  1
  O  O0  1  0.34366700  0.75840700  0.03695600  1
  O  O1  1  0.24159300  0.65633300  0.46304400  1
  O  O2  1  0.65633300  0.24159300  0.96304400  1
  O  O3  1  0.75840700  0.34366700  0.53695600  1
  O  O4  1  0.30546500  0.96668500  0.14702600  1
  O  O5  1  0.03331500  0.69453500  0.35297400  1
  O  O6  1  0.69453500  0.03331500  0.85297400  1
  O  O7  1  0.96668500  0.30546500  0.64702600  1
  O  O8  1  0.08413800  0.92794600  0.38893400  1
  O  O9  1  0.07205400  0.91586200  0.11106600  1
  O  O10  1  0.91586200  0.07205400  0.61106600  1
  O  O11  1  0.92794600  0.08413800  0.88893400  1
  O  O12  1  0.04512300  0.24925100  0.44737400  1
  O  O13  1  0.75074900  0.95487700  0.05262600  1
  O  O14  1  0.95487700  0.75074900  0.55262600  1
  O  O15  1  0.24925100  0.04512300  0.94737400  1
  O  O16  1  0.31144300  0.40128100  0.09387400  1
  O  O17  1  0.59871900  0.68855700  0.40612600  1
  O  O18  1  0.68855700  0.59871900  0.90612600  1
  O  O19  1  0.40128100  0.31144300  0.59387400  1
  O  O20  1  0.58257200  0.32576900  0.34595500  1
  O  O21  1  0.67423100  0.41742800  0.15404500  1
  O  O22  1  0.41742800  0.67423100  0.65404500  1
  O  O23  1  0.32576900  0.58257200  0.84595500  1
  O  O24  1  0.29413200  0.42438700  0.19544000  1
  O  O25  1  0.57561300  0.70586800  0.30456000  1
  O  O26  1  0.70586800  0.57561300  0.80456000  1
  O  O27  1  0.42438700  0.29413200  0.69544000  1
  O  O28  1  0.56558200  0.43441800  0.25000000  1
  O  O29  1  0.43441800  0.56558200  0.75000000  1
  O  O30  1  0.02726700  0.23185200  0.20497000  1
  O  O31  1  0.76814800  0.97273300  0.29503000  1
  O  O32  1  0.97273300  0.76814800  0.79503000  1
  O  O33  1  0.23185200  0.02726700  0.70497000  1
  O  O34  1  0.37056300  0.06689000  0.33990100  1
  O  O35  1  0.93311000  0.62943700  0.16009900  1
  O  O36  1  0.62943700  0.93311000  0.66009900  1
  O  O37  1  0.06689000  0.37056300  0.83990100  1
loop_
_geom_bond_atom_site_label_1
_geom_bond_atom_site_label_2
_geom_bond_distance
_geom_bond_site_symmetry_2
O0 S0 1.436324 1_555
O1 S1 1.436324 1_555
O2 S2 1.436324 1_555
O3 S3 1.436324 1_555
O4 S0 1.514829 1_555
O4 U0 2.324010 1_565
O5 S1 1.514829 1_555
O5 U1 2.324010 1_455
O6 S2 1.514829 1_555
O6 U2 2.324010 1_545
O7 S3 1.514829 1_555
O7 U3 2.324010 1_655
O8 S1 1.513597 1_555
O8 U0 2.253967 1_565
O9 S0 1.513597 1_555
O9 U1 2.253967 1_455
O10 S3 1.513597 1_555
O10 U2 2.253967 1_545
O11 S2 1.513597 1_555
O11 U3 2.253967 1_655
O12 S3 1.505254 1_455
O12 U0 2.308189 1_555
O13 S2 1.505254 1_564
O13 U1 2.308189 1_555
O14 S1 1.505254 1_655
O14 U2 2.308189 1_555
O15 S0 1.505254 1_546
O15 U3 2.308189 1_555
O16 O24 1.233162 1_555
O17 O25 1.233162 1_555
O18 O26 1.233162 1_555
O19 O27 1.233162 1_555
O20 O28 1.283860 1_555
O21 O28 1.283860 1_555
O22 O29 1.283860 1_555
O23 O29 1.283860 1_555
O24 U0 2.843651 1_555
O25 U1 2.843651 1_555
O26 U2 2.843651 1_555
O27 U3 2.843651 1_555
O30 U0 1.783763 1_555
O31 U1 1.783763 1_555
O32 U2 1.783763 1_555
O33 U3 1.783763 1_555
O34 U0 1.794385 1_555
O35 U1 1.794385 1_555
O36 U2 1.794385 1_555
O37 U3 1.794385 1_555
