# generated using pymatgen
data_RbVBP2HO9
_symmetry_space_group_name_H-M   'P 1'
_cell_length_a   8.47207600
_cell_length_b   9.53867500
_cell_length_c   9.82492120
_cell_angle_alpha   77.58533888
_cell_angle_beta   90.00000000
_cell_angle_gamma   90.00000000
_symmetry_Int_Tables_number   1
_chemical_formula_structural   RbVBP2HO9
_chemical_formula_sum   'Rb4 V4 B4 P8 H4 O36'
_cell_volume   775.40997441
_cell_formula_units_Z   4
loop_
 _symmetry_equiv_pos_site_id
 _symmetry_equiv_pos_as_xyz
  1  'x, y, z'
loop_
 _atom_site_type_symbol
 _atom_site_label
 _atom_site_symmetry_multiplicity
 _atom_site_fract_x
 _atom_site_fract_y
 _atom_site_fract_z
 _atom_site_occupancy
  Rb  Rb0  1  0.39881600  0.81127900  0.56175200  1
  Rb  Rb1  1  0.10118400  0.81127900  0.06175200  1
  Rb  Rb2  1  0.89881600  0.18872100  0.93824800  1
  Rb  Rb3  1  0.60118400  0.18872100  0.43824800  1
  V  V0  1  0.65223600  0.79164300  0.93540500  1
  V  V1  1  0.84776400  0.79164300  0.43540500  1
  V  V2  1  0.15223600  0.20835700  0.56459500  1
  V  V3  1  0.34776400  0.20835700  0.06459500  1
  B  B0  1  0.05749900  0.66587000  0.69557800  1
  B  B1  1  0.44250100  0.66587000  0.19557800  1
  B  B2  1  0.55749900  0.33413000  0.80442200  1
  B  B3  1  0.94250100  0.33413000  0.30442200  1
  P  P0  1  0.93544400  0.92537800  0.70942300  1
  P  P1  1  0.56455600  0.92537800  0.20942300  1
  P  P2  1  0.73996500  0.57844100  0.71842200  1
  P  P3  1  0.76003500  0.57844100  0.21842200  1
  P  P4  1  0.23996500  0.42155900  0.78157800  1
  P  P5  1  0.26003500  0.42155900  0.28157800  1
  P  P6  1  0.43544400  0.07462200  0.79057700  1
  P  P7  1  0.06455600  0.07462200  0.29057700  1
  H  H0  1  0.08439800  0.60844800  0.50222200  1
  H  H1  1  0.41560200  0.60844800  0.00222200  1
  H  H2  1  0.58439800  0.39155200  0.99777800  1
  H  H3  1  0.91560200  0.39155200  0.49777800  1
  O  O0  1  0.51312300  0.92741900  0.80478700  1
  O  O1  1  0.84415400  0.89701300  0.84848900  1
  O  O2  1  0.83346000  0.91268200  0.58316700  1
  O  O3  1  0.98687700  0.92741900  0.30478700  1
  O  O4  1  0.65584600  0.89701300  0.34848900  1
  O  O5  1  0.07381300  0.80857600  0.72762600  1
  O  O6  1  0.66654000  0.91268200  0.08316700  1
  O  O7  1  0.42618700  0.80857600  0.22762600  1
  O  O8  1  0.63028300  0.65268300  0.80383300  1
  O  O9  1  0.05046800  0.69019300  0.53909900  1
  O  O10  1  0.71999200  0.63411900  0.56110800  1
  O  O11  1  0.91747500  0.58671400  0.76241500  1
  O  O12  1  0.20380500  0.58771200  0.74543400  1
  O  O13  1  0.86971700  0.65268300  0.30383300  1
  O  O14  1  0.44953200  0.69019300  0.03909900  1
  O  O15  1  0.78000800  0.63411900  0.06110800  1
  O  O16  1  0.58252500  0.58671400  0.26241500  1
  O  O17  1  0.29619500  0.58771200  0.24543400  1
  O  O18  1  0.70380500  0.41228800  0.75456600  1
  O  O19  1  0.41747500  0.41328600  0.73758500  1
  O  O20  1  0.21999200  0.36588100  0.93889200  1
  O  O21  1  0.55046800  0.30980700  0.96090100  1
  O  O22  1  0.13028300  0.34731700  0.69616700  1
  O  O23  1  0.79619500  0.41228800  0.25456600  1
  O  O24  1  0.08252500  0.41328600  0.23758500  1
  O  O25  1  0.28000800  0.36588100  0.43889200  1
  O  O26  1  0.94953200  0.30980700  0.46090100  1
  O  O27  1  0.36971700  0.34731700  0.19616700  1
  O  O28  1  0.57381300  0.19142400  0.77237400  1
  O  O29  1  0.33346000  0.08731800  0.91683300  1
  O  O30  1  0.92618700  0.19142400  0.27237400  1
  O  O31  1  0.34415400  0.10298700  0.65151100  1
  O  O32  1  0.01312300  0.07258100  0.69521300  1
  O  O33  1  0.16654000  0.08731800  0.41683300  1
  O  O34  1  0.15584600  0.10298700  0.15151100  1
  O  O35  1  0.48687700  0.07258100  0.19521300  1
loop_
_geom_bond_atom_site_label_1
_geom_bond_atom_site_label_2
_geom_bond_distance
_geom_bond_site_symmetry_2
B0 O5 1.468152 1_555
B0 O12 1.474830 1_555
B0 O11 1.481692 1_455
B0 O9 1.505852 1_555
B1 O7 1.468152 1_555
B1 O17 1.474830 1_555
B1 O16 1.481692 1_555
B1 O14 1.505852 1_555
B2 O28 1.468152 1_555
B2 O18 1.474830 1_555
B2 O19 1.481692 1_555
B2 O21 1.505852 1_555
B3 O30 1.468152 1_555
B3 O23 1.474830 1_555
B3 O24 1.481692 1_655
B3 O26 1.505852 1_555
H0 O9 0.971271 1_555
H1 O14 0.971271 1_555
H2 O21 0.971271 1_555
H3 O26 0.971271 1_555
O0 P6 1.529660 1_565
O0 V0 1.999661 1_555
O0 Rb0 3.000678 1_555
O1 P0 1.542478 1_555
O1 V0 2.003517 1_555
O1 Rb1 3.010667 1_656
O1 Rb2 3.128832 1_565
O2 P0 1.537697 1_555
O2 V1 2.043511 1_555
O2 Rb3 3.349733 1_565
O3 P7 1.529660 1_665
O3 V1 1.999661 1_555
O3 Rb1 3.000678 1_655
O4 P1 1.542478 1_555
O4 V1 2.003517 1_555
O4 Rb0 3.010667 1_555
O4 Rb3 3.128832 1_565
O5 P0 1.600573 1_455
O5 Rb0 3.196874 1_555
O5 Rb1 3.296567 1_556
O6 P1 1.537697 1_555
O6 V0 2.043511 1_554
O6 Rb2 3.349733 1_564
O7 P1 1.600573 1_555
O7 Rb1 3.196874 1_555
O7 Rb0 3.296567 1_555
O8 P2 1.524691 1_555
O8 V0 2.049217 1_555
O8 Rb0 3.200616 1_555
O9 V1 2.121242 1_455
O9 Rb0 3.194347 1_555
O10 P2 1.531869 1_555
O10 V1 2.038845 1_555
O10 Rb0 3.203794 1_555
O11 P2 1.571421 1_555
O12 P4 1.577912 1_555
O12 Rb0 2.979824 1_555
O13 P3 1.524691 1_555
O13 V1 2.049217 1_555
O13 Rb1 3.200616 1_655
O14 V0 2.121242 1_554
O14 Rb1 3.194347 1_555
O15 P3 1.531869 1_555
O15 V0 2.038845 1_554
O15 Rb1 3.203794 1_655
O16 P3 1.571421 1_555
O17 P5 1.577912 1_555
O17 Rb1 2.979824 1_555
O18 P2 1.577912 1_555
O18 Rb2 2.979824 1_555
O19 P4 1.571421 1_555
O20 P4 1.531869 1_555
O20 V3 2.038845 1_556
O20 Rb2 3.203794 1_455
O21 V3 2.121242 1_556
O21 Rb2 3.194347 1_555
O22 P4 1.524691 1_555
O22 V2 2.049217 1_555
O22 Rb2 3.200616 1_455
O23 P3 1.577912 1_555
O23 Rb3 2.979824 1_555
O24 P5 1.571421 1_555
O25 P5 1.531869 1_555
O25 V2 2.038845 1_555
O25 Rb3 3.203794 1_555
O26 V2 2.121242 1_655
O26 Rb3 3.194347 1_555
O27 P5 1.524691 1_555
O27 V3 2.049217 1_555
O27 Rb3 3.200616 1_555
O28 P6 1.600573 1_555
O28 Rb2 3.196874 1_555
O28 Rb3 3.296567 1_555
O29 P6 1.537697 1_555
O29 V3 2.043511 1_556
O29 Rb1 3.349733 1_546
O30 P7 1.600573 1_655
O30 Rb3 3.196874 1_555
O30 Rb2 3.296567 1_554
O31 P6 1.542478 1_555
O31 V2 2.003517 1_555
O31 Rb3 3.010667 1_555
O31 Rb0 3.128832 1_545
O32 P0 1.529660 1_445
O32 V2 1.999661 1_555
O32 Rb2 3.000678 1_455
O33 P7 1.537697 1_555
O33 V2 2.043511 1_555
O33 Rb0 3.349733 1_545
O34 P7 1.542478 1_555
O34 V3 2.003517 1_555
O34 Rb2 3.010667 1_454
O34 Rb1 3.128832 1_545
O35 P1 1.529660 1_545
O35 V3 1.999661 1_555
O35 Rb3 3.000678 1_555
