# generated using pymatgen
data_Fe13O14
_symmetry_space_group_name_H-M   'P 1'
_cell_length_a   6.89529726
_cell_length_b   6.89529726
_cell_length_c   6.89529762
_cell_angle_alpha   72.06338499
_cell_angle_beta   72.06338499
_cell_angle_gamma   72.06338395
_symmetry_Int_Tables_number   1
_chemical_formula_structural   Fe13O14
_chemical_formula_sum   'Fe13 O14'
_cell_volume   288.40212059
_cell_formula_units_Z   1
loop_
 _symmetry_equiv_pos_site_id
 _symmetry_equiv_pos_as_xyz
  1  'x, y, z'
loop_
 _atom_site_type_symbol
 _atom_site_label
 _atom_site_symmetry_multiplicity
 _atom_site_fract_x
 _atom_site_fract_y
 _atom_site_fract_z
 _atom_site_occupancy
  Fe  Fe0  1  0.50000000  0.50000000  0.50000000  1
  Fe  Fe1  1  0.41332600  0.71991400  0.86163600  1
  Fe  Fe2  1  0.86163600  0.41332600  0.71991400  1
  Fe  Fe3  1  0.93391900  0.20557400  0.34294200  1
  Fe  Fe4  1  0.06608100  0.79442600  0.65705800  1
  Fe  Fe5  1  0.28008600  0.13836400  0.58667400  1
  Fe  Fe6  1  0.34294200  0.93391900  0.20557400  1
  Fe  Fe7  1  0.71991400  0.86163600  0.41332600  1
  Fe  Fe8  1  0.79442600  0.65705800  0.06608100  1
  Fe  Fe9  1  0.13836400  0.58667400  0.28008600  1
  Fe  Fe10  1  0.20557400  0.34294200  0.93391900  1
  Fe  Fe11  1  0.58667400  0.28008600  0.13836400  1
  Fe  Fe12  1  0.65705800  0.06608100  0.79442600  1
  O  O0  1  0.25633700  0.25633700  0.25633700  1
  O  O1  1  0.66195000  0.96386000  0.11243500  1
  O  O2  1  0.74366300  0.74366300  0.74366300  1
  O  O3  1  0.11243500  0.66195000  0.96386000  1
  O  O4  1  0.19012300  0.47324300  0.60332700  1
  O  O5  1  0.52675700  0.39667300  0.80987700  1
  O  O6  1  0.60332700  0.19012300  0.47324300  1
  O  O7  1  0.96386000  0.11243500  0.66195000  1
  O  O8  1  0.03614000  0.88756500  0.33805000  1
  O  O9  1  0.39667300  0.80987700  0.52675700  1
  O  O10  1  0.47324300  0.60332700  0.19012300  1
  O  O11  1  0.80987700  0.52675700  0.39667300  1
  O  O12  1  0.88756500  0.33805000  0.03614000  1
  O  O13  1  0.33805000  0.03614000  0.88756500  1
loop_
_geom_bond_atom_site_label_1
_geom_bond_atom_site_label_2
_geom_bond_distance
_geom_bond_site_symmetry_2
Fe0 O9 2.081180 1_555
Fe0 O6 2.081180 1_555
Fe0 O11 2.081180 1_555
Fe0 O4 2.081180 1_555
Fe0 O5 2.081180 1_555
Fe0 O10 2.081180 1_555
Fe1 O3 2.097041 1_555
Fe1 O13 2.131127 1_565
Fe1 O2 2.209803 1_555
Fe1 O5 2.225116 1_555
Fe1 O9 2.228694 1_555
Fe1 O10 2.279810 1_556
Fe2 O7 2.097041 1_555
Fe2 O12 2.131127 1_556
Fe2 O2 2.209803 1_555
Fe2 O11 2.225116 1_555
Fe2 O5 2.228694 1_555
Fe2 O4 2.279810 1_655
Fe3 O8 2.094069 1_645
Fe3 O12 2.111464 1_555
Fe3 O7 2.149766 1_555
Fe3 O6 2.200909 1_555
Fe3 O11 2.217430 1_555
Fe3 O0 2.225858 1_655
Fe4 O7 2.094069 1_465
Fe4 O3 2.111464 1_555
Fe4 O8 2.149766 1_555
Fe4 O9 2.200909 1_555
Fe4 O4 2.217430 1_555
Fe4 O2 2.225858 1_455
Fe5 O13 2.097041 1_555
Fe5 O7 2.131127 1_455
Fe5 O0 2.209803 1_555
Fe5 O6 2.225116 1_555
Fe5 O4 2.228694 1_555
Fe5 O9 2.279810 1_545
Fe6 O13 2.094070 1_564
Fe6 O8 2.111464 1_555
Fe6 O1 2.149766 1_555
Fe6 O10 2.200909 1_555
Fe6 O9 2.217431 1_555
Fe6 O0 2.225858 1_565
Fe7 O1 2.097041 1_555
Fe7 O8 2.131127 1_655
Fe7 O2 2.209803 1_555
Fe7 O9 2.225116 1_555
Fe7 O11 2.228694 1_555
Fe7 O6 2.279810 1_565
Fe8 O3 2.094070 1_654
Fe8 O1 2.111464 1_555
Fe8 O12 2.149766 1_555
Fe8 O11 2.200910 1_555
Fe8 O10 2.217431 1_555
Fe8 O2 2.225858 1_554
Fe9 O8 2.097041 1_555
Fe9 O3 2.131127 1_554
Fe9 O0 2.209803 1_555
Fe9 O4 2.225116 1_555
Fe9 O10 2.228694 1_555
Fe9 O11 2.279810 1_455
Fe10 O12 2.094070 1_456
Fe10 O13 2.111464 1_555
Fe10 O3 2.149766 1_555
Fe10 O4 2.200910 1_555
Fe10 O5 2.217431 1_555
Fe10 O0 2.225858 1_556
Fe11 O12 2.097041 1_555
Fe11 O1 2.131127 1_545
Fe11 O0 2.209803 1_555
Fe11 O10 2.225116 1_555
Fe11 O6 2.228694 1_555
Fe11 O5 2.279810 1_554
Fe12 O1 2.094070 1_546
Fe12 O7 2.111464 1_555
Fe12 O13 2.149766 1_555
Fe12 O5 2.200909 1_555
Fe12 O6 2.217431 1_555
Fe12 O2 2.225858 1_545
