# generated using pymatgen
data_B5H12NO12
_symmetry_space_group_name_H-M   'P 1'
_cell_length_a   7.25637778
_cell_length_b   7.25637778
_cell_length_c   11.46068600
_cell_angle_alpha   90.00000000
_cell_angle_beta   90.00000000
_cell_angle_gamma   99.95822243
_symmetry_Int_Tables_number   1
_chemical_formula_structural   B5H12NO12
_chemical_formula_sum   'B10 H24 N2 O24'
_cell_volume   594.37092997
_cell_formula_units_Z   2
loop_
 _symmetry_equiv_pos_site_id
 _symmetry_equiv_pos_as_xyz
  1  'x, y, z'
loop_
 _atom_site_type_symbol
 _atom_site_label
 _atom_site_symmetry_multiplicity
 _atom_site_fract_x
 _atom_site_fract_y
 _atom_site_fract_z
 _atom_site_occupancy
  B  B0  1  0.10428600  0.10428600  0.50000000  1
  B  B1  1  0.60428600  0.60428600  0.00000000  1
  B  B2  1  0.10183800  0.29678400  0.31903300  1
  B  B3  1  0.29678400  0.10183800  0.68096700  1
  B  B4  1  0.60183800  0.79678400  0.18096700  1
  B  B5  1  0.79678400  0.60183800  0.81903300  1
  B  B6  1  0.07152100  0.96352400  0.30022000  1
  B  B7  1  0.96352400  0.07152100  0.69978000  1
  B  B8  1  0.57152100  0.46352400  0.19978000  1
  B  B9  1  0.46352400  0.57152100  0.80022000  1
  H  H0  1  0.10460200  0.45500300  0.17835100  1
  H  H1  1  0.45500300  0.10460200  0.82164900  1
  H  H2  1  0.60460200  0.95500300  0.32164900  1
  H  H3  1  0.95500300  0.60460200  0.67835100  1
  H  H4  1  0.05365100  0.69268200  0.25870700  1
  H  H5  1  0.69268200  0.05365100  0.74129300  1
  H  H6  1  0.55365100  0.19268200  0.24129300  1
  H  H7  1  0.19268200  0.55365100  0.75870700  1
  H  H8  1  0.48063000  0.99634300  0.50053100  1
  H  H9  1  0.99634300  0.48063000  0.49946900  1
  H  H10  1  0.98063000  0.49634300  0.99946900  1
  H  H11  1  0.49634300  0.98063000  0.00053100  1
  H  H12  1  0.69986100  0.99498100  0.50928200  1
  H  H13  1  0.99498100  0.69986100  0.49071800  1
  H  H14  1  0.19986100  0.49498100  0.99071800  1
  H  H15  1  0.49498100  0.19986100  0.00928200  1
  H  H16  1  0.02502300  0.14623700  0.04104600  1
  H  H17  1  0.14623700  0.02502300  0.95895400  1
  H  H18  1  0.52502300  0.64623700  0.45895400  1
  H  H19  1  0.64623700  0.52502300  0.54104600  1
  H  H20  1  0.91323200  0.00071600  0.93829200  1
  H  H21  1  0.00071600  0.91323200  0.06170800  1
  H  H22  1  0.41323200  0.50071600  0.56170800  1
  H  H23  1  0.50071600  0.41323200  0.43829200  1
  N  N0  1  0.01862500  0.01862500  0.00000000  1
  N  N1  1  0.51862500  0.51862500  0.50000000  1
  O  O0  1  0.11045400  0.28514700  0.43757800  1
  O  O1  1  0.28514700  0.11045400  0.56242200  1
  O  O2  1  0.61045400  0.78514700  0.06242200  1
  O  O3  1  0.78514700  0.61045400  0.93757800  1
  O  O4  1  0.08042800  0.94287400  0.41839600  1
  O  O5  1  0.94287400  0.08042800  0.58160400  1
  O  O6  1  0.58042800  0.44287400  0.08160400  1
  O  O7  1  0.44287400  0.58042800  0.91839600  1
  O  O8  1  0.08332300  0.13874700  0.24864700  1
  O  O9  1  0.13874700  0.08332300  0.75135300  1
  O  O10  1  0.58332300  0.63874700  0.25135300  1
  O  O11  1  0.63874700  0.58332300  0.74864700  1
  O  O12  1  0.10962400  0.46749800  0.26567200  1
  O  O13  1  0.46749800  0.10962400  0.73432800  1
  O  O14  1  0.60962400  0.96749800  0.23432800  1
  O  O15  1  0.96749800  0.60962400  0.76567200  1
  O  O16  1  0.04866900  0.81653000  0.22350100  1
  O  O17  1  0.81653000  0.04866900  0.77649900  1
  O  O18  1  0.54866900  0.31653000  0.27649900  1
  O  O19  1  0.31653000  0.54866900  0.72350100  1
  O  O20  1  0.58307500  0.93619400  0.46976900  1
  O  O21  1  0.93619400  0.58307500  0.53023100  1
  O  O22  1  0.08307500  0.43619400  0.03023100  1
  O  O23  1  0.43619400  0.08307500  0.96976900  1
loop_
_geom_bond_atom_site_label_1
_geom_bond_atom_site_label_2
_geom_bond_distance
_geom_bond_site_symmetry_2
B0 O4 1.485387 1_545
B0 O5 1.485387 1_455
B0 O1 1.488578 1_555
B0 O0 1.488578 1_555
B1 O6 1.485387 1_555
B1 O7 1.485387 1_554
B1 O3 1.488578 1_554
B1 O2 1.488578 1_555
B2 O0 1.363334 1_555
B2 O12 1.373872 1_555
B2 O8 1.389453 1_555
B3 O1 1.363334 1_555
B3 O13 1.373872 1_555
B3 O9 1.389453 1_555
B4 O2 1.363334 1_555
B4 O14 1.373872 1_555
B4 O10 1.389453 1_555
B5 O3 1.363334 1_555
B5 O15 1.373872 1_555
B5 O11 1.389453 1_555
B6 O4 1.365401 1_555
B6 O16 1.370087 1_555
B6 O8 1.391294 1_565
B7 O5 1.365401 1_555
B7 O17 1.370087 1_555
B7 O9 1.391294 1_655
B8 O6 1.365401 1_555
B8 O18 1.370087 1_555
B8 O10 1.391294 1_555
B9 O7 1.365401 1_555
B9 O19 1.370087 1_555
B9 O11 1.391294 1_555
H0 O12 1.004950 1_555
H1 O13 1.004950 1_555
H2 O14 1.004950 1_555
H3 O15 1.004950 1_555
H4 O16 0.991455 1_555
H5 O17 0.991455 1_555
H6 O18 0.991455 1_555
H7 O19 0.991455 1_555
H8 O20 0.989760 1_555
H9 O21 0.989760 1_555
H10 O22 0.989760 1_656
H11 O23 0.989760 1_564
H12 O20 0.990036 1_555
H13 O21 0.990036 1_555
H14 O22 0.990036 1_556
H15 O23 0.990036 1_554
H16 N0 1.032499 1_555
H17 N0 1.032499 1_556
H18 N1 1.032499 1_555
H19 N1 1.032499 1_555
H20 N0 1.033220 1_656
H21 N0 1.033220 1_565
H22 N1 1.033220 1_555
H23 N1 1.033220 1_555
