# generated using pymatgen
data_NaAl11O17
_symmetry_space_group_name_H-M   'P 1'
_cell_length_a   11.72793891
_cell_length_b   11.72793891
_cell_length_c   11.72793995
_cell_angle_alpha   27.58589009
_cell_angle_beta   27.58589009
_cell_angle_gamma   27.58588873
_symmetry_Int_Tables_number   1
_chemical_formula_structural   NaAl11O17
_chemical_formula_sum   'Na1 Al11 O17'
_cell_volume   305.35465348
_cell_formula_units_Z   1
loop_
 _symmetry_equiv_pos_site_id
 _symmetry_equiv_pos_as_xyz
  1  'x, y, z'
loop_
 _atom_site_type_symbol
 _atom_site_label
 _atom_site_symmetry_multiplicity
 _atom_site_fract_x
 _atom_site_fract_y
 _atom_site_fract_z
 _atom_site_occupancy
  Na  Na0  1  0.82483027  0.82483027  0.82483027  1
  Al  Al0  1  0.59262400  0.09676671  0.09676671  1
  Al  Al1  1  0.99994346  0.99994346  0.99994346  1
  Al  Al2  1  0.09676671  0.09676671  0.59262400  1
  Al  Al3  1  0.09676671  0.59262400  0.09676671  1
  Al  Al4  1  0.45049799  0.45049799  0.45049799  1
  Al  Al5  1  0.55015391  0.55015391  0.55015391  1
  Al  Al6  1  0.34988810  0.34988810  0.34988810  1
  Al  Al7  1  0.64933424  0.64933424  0.64933424  1
  Al  Al8  1  0.90363879  0.40533677  0.90363879  1
  Al  Al9  1  0.90363879  0.90363879  0.40533677  1
  Al  Al10  1  0.40533677  0.90363879  0.90363879  1
  O  O0  1  0.29681633  0.29681633  0.29681633  1
  O  O1  1  0.09436709  0.09436709  0.09436709  1
  O  O2  1  0.81104784  0.27861938  0.81104784  1
  O  O3  1  0.71928277  0.19061400  0.19061400  1
  O  O4  1  0.60124422  0.08997562  0.60124422  1
  O  O5  1  0.90596242  0.40307959  0.40307959  1
  O  O6  1  0.60124422  0.60124422  0.08997562  1
  O  O7  1  0.50024470  0.50024470  0.50024470  1
  O  O8  1  0.19061400  0.19061400  0.71928277  1
  O  O9  1  0.81104784  0.81104784  0.27861938  1
  O  O10  1  0.40307959  0.40307959  0.90596242  1
  O  O11  1  0.08997562  0.60124422  0.60124422  1
  O  O12  1  0.40307959  0.90596242  0.40307959  1
  O  O13  1  0.27861938  0.81104784  0.81104784  1
  O  O14  1  0.19061400  0.71928277  0.19061400  1
  O  O15  1  0.70332076  0.70332076  0.70332076  1
  O  O16  1  0.90433790  0.90433790  0.90433790  1
loop_
_geom_bond_atom_site_label_1
_geom_bond_atom_site_label_2
_geom_bond_distance
_geom_bond_site_symmetry_2
Na0 O6 2.588801 1_556
Na0 O4 2.588801 1_565
Na0 O11 2.588801 1_655
Na0 O16 2.689289 1_555
Al0 O12 1.807311 1_545
Al0 O10 1.807311 1_554
Al0 O16 1.824698 1_544
Al0 O0 1.986382 1_555
Al0 O2 2.034560 1_554
Al0 O9 2.034560 1_545
Al1 O9 1.878242 1_556
Al1 O2 1.878242 1_565
Al1 O13 1.878242 1_655
Al1 O8 1.898510 1_665
Al1 O3 1.898511 1_566
Al1 O14 1.898511 1_656
Al2 O5 1.807311 1_455
Al2 O12 1.807311 1_545
Al2 O16 1.824698 1_445
Al2 O0 1.986382 1_555
Al2 O13 2.034560 1_545
Al2 O2 2.034560 1_455
Al3 O5 1.807311 1_455
Al3 O10 1.807311 1_554
Al3 O16 1.824698 1_454
Al3 O0 1.986382 1_555
Al3 O13 2.034560 1_554
Al3 O9 2.034560 1_455
Al4 O7 1.682647 1_555
Al4 O4 1.779834 1_555
Al4 O11 1.779834 1_555
Al4 O6 1.779834 1_555
Al5 O7 1.688144 1_555
Al5 O12 1.766212 1_555
Al5 O5 1.766212 1_555
Al5 O10 1.766213 1_555
Al6 O0 1.795115 1_555
Al6 O14 1.800593 1_555
Al6 O3 1.800593 1_555
Al6 O8 1.800593 1_555
Al7 O13 1.799813 1_555
Al7 O2 1.799813 1_555
Al7 O9 1.799813 1_555
Al7 O15 1.826056 1_555
Al8 O1 1.804267 1_656
Al8 O11 1.830342 1_655
Al8 O6 1.830342 1_556
Al8 O15 1.981898 1_555
Al8 O3 2.017955 1_556
Al8 O8 2.017955 1_655
Al9 O1 1.804267 1_665
Al9 O4 1.830342 1_565
Al9 O11 1.830342 1_655
Al9 O15 1.981898 1_555
Al9 O14 2.017955 1_655
Al9 O3 2.017955 1_565
Al10 O1 1.804267 1_566
Al10 O4 1.830342 1_565
Al10 O6 1.830342 1_556
Al10 O15 1.981898 1_555
Al10 O14 2.017955 1_556
Al10 O8 2.017955 1_565
