# generated using pymatgen
data_NaLi5Fe2P2(CO7)2
_symmetry_space_group_name_H-M   'P 1'
_cell_length_a   6.53097300
_cell_length_b   8.58042985
_cell_length_c   10.11517124
_cell_angle_alpha   94.00732728
_cell_angle_beta   90.03967305
_cell_angle_gamma   90.51665816
_symmetry_Int_Tables_number   1
_chemical_formula_structural   NaLi5Fe2P2(CO7)2
_chemical_formula_sum   'Na2 Li10 Fe4 P4 C4 O28'
_cell_volume   565.43024612
_cell_formula_units_Z   2
loop_
 _symmetry_equiv_pos_site_id
 _symmetry_equiv_pos_as_xyz
  1  'x, y, z'
loop_
 _atom_site_type_symbol
 _atom_site_label
 _atom_site_symmetry_multiplicity
 _atom_site_fract_x
 _atom_site_fract_y
 _atom_site_fract_z
 _atom_site_occupancy
  Na  Na0  1  0.49873700  0.74236200  0.87761800  1
  Na  Na1  1  0.50126300  0.25763800  0.12238200  1
  Li  Li0  1  0.24204300  0.91359500  0.62271700  1
  Li  Li1  1  0.22316000  0.90908100  0.12853600  1
  Li  Li2  1  0.02166600  0.72547200  0.37209800  1
  Li  Li3  1  0.47788800  0.72654900  0.37288300  1
  Li  Li4  1  0.02036600  0.72240000  0.87141100  1
  Li  Li5  1  0.52211200  0.27345100  0.62711700  1
  Li  Li6  1  0.97833400  0.27452800  0.62790200  1
  Li  Li7  1  0.97963400  0.27760000  0.12858900  1
  Li  Li8  1  0.75795700  0.08640500  0.37728300  1
  Li  Li9  1  0.77684000  0.09091900  0.87146400  1
  Fe  Fe0  1  0.75804000  0.66194800  0.64018100  1
  Fe  Fe1  1  0.75047800  0.65906700  0.14607800  1
  Fe  Fe2  1  0.24196000  0.33805200  0.35981900  1
  Fe  Fe3  1  0.24952200  0.34093300  0.85392200  1
  P  P0  1  0.25270600  0.58953000  0.60216200  1
  P  P1  1  0.23972800  0.58873900  0.10944000  1
  P  P2  1  0.74729400  0.41047000  0.39783800  1
  P  P3  1  0.76027200  0.41126100  0.89056000  1
  C  C0  1  0.75133300  0.96459300  0.60654300  1
  C  C1  1  0.76387800  0.95918500  0.10640300  1
  C  C2  1  0.24866700  0.03540700  0.39345700  1
  C  C3  1  0.23612200  0.04081500  0.89359700  1
  O  O0  1  0.25474200  0.88927900  0.41921200  1
  O  O1  1  0.21948600  0.89766100  0.92641900  1
  O  O2  1  0.74956600  0.92266400  0.72788100  1
  O  O3  1  0.75192300  0.92455900  0.22882600  1
  O  O4  1  0.76033800  0.85748800  0.50866700  1
  O  O5  1  0.75898700  0.84657000  0.01254000  1
  O  O6  1  0.07159500  0.69341600  0.65596900  1
  O  O7  1  0.44587600  0.68793700  0.64461200  1
  O  O8  1  0.06374800  0.69778300  0.16364900  1
  O  O9  1  0.43724900  0.68191900  0.15422000  1
  O  O10  1  0.24246300  0.57088200  0.44753200  1
  O  O11  1  0.74836400  0.57426200  0.34260000  1
  O  O12  1  0.22816900  0.56873400  0.95517300  1
  O  O13  1  0.77193600  0.57317000  0.83392200  1
  O  O14  1  0.25163600  0.42573800  0.65740000  1
  O  O15  1  0.75753700  0.42911800  0.55246800  1
  O  O16  1  0.22806400  0.42683000  0.16607800  1
  O  O17  1  0.77183100  0.43126600  0.04482700  1
  O  O18  1  0.55412400  0.31206300  0.35538800  1
  O  O19  1  0.92840500  0.30658400  0.34403100  1
  O  O20  1  0.56275100  0.31808100  0.84578000  1
  O  O21  1  0.93625200  0.30221700  0.83635100  1
  O  O22  1  0.23966200  0.14251200  0.49133300  1
  O  O23  1  0.24101300  0.15343000  0.98746000  1
  O  O24  1  0.25043400  0.07733600  0.27211900  1
  O  O25  1  0.24807700  0.07544100  0.77117400  1
  O  O26  1  0.74525800  0.11072100  0.58078800  1
  O  O27  1  0.78051400  0.10233900  0.07358100  1
loop_
_geom_bond_atom_site_label_1
_geom_bond_atom_site_label_2
_geom_bond_distance
_geom_bond_site_symmetry_2
Na0 O1 2.301875 1_555
Na0 O5 2.312968 1_556
Na0 O13 2.333366 1_555
Na0 O7 2.394651 1_555
Na0 O12 2.464805 1_555
Na0 O2 2.766998 1_555
Na0 O9 2.908429 1_556
Na1 O27 2.301875 1_555
Na1 O23 2.312968 1_554
Na1 O16 2.333366 1_555
Na1 O18 2.394651 1_555
Na1 O17 2.464805 1_555
Na1 O24 2.766998 1_555
Na1 O20 2.908429 1_554
Li0 O25 1.972950 1_565
Li0 O0 2.056284 1_555
Li0 O6 2.230005 1_555
Li0 O7 2.382491 1_555
Li0 O22 2.447424 1_565
Li1 O24 1.981744 1_565
Li1 O1 2.040058 1_554
Li1 O8 2.133919 1_555
Li1 O9 2.437434 1_555
Li2 O0 2.094413 1_555
Li2 O8 2.123607 1_555
Li2 O10 2.143719 1_555
Li2 O11 2.204939 1_455
Li2 O4 2.433883 1_455
Li3 O0 2.058964 1_555
Li3 O10 2.196323 1_555
Li3 O11 2.215427 1_555
Li3 O9 2.233423 1_555
Li3 O4 2.508980 1_555
Li4 O1 2.027067 1_555
Li4 O13 2.075971 1_455
Li4 O12 2.117793 1_555
Li4 O6 2.202182 1_555
Li4 O5 2.431188 1_456
Li5 O26 2.058964 1_555
Li5 O15 2.196323 1_555
Li5 O14 2.215427 1_555
Li5 O20 2.233423 1_555
Li5 O22 2.508980 1_555
Li6 O26 2.094413 1_555
Li6 O21 2.123607 1_555
Li6 O15 2.143719 1_555
Li6 O14 2.204939 1_655
Li6 O22 2.433883 1_655
Li7 O27 2.027067 1_555
Li7 O16 2.075971 1_655
Li7 O17 2.117793 1_555
Li7 O19 2.202182 1_555
Li7 O23 2.431188 1_654
Li8 O3 1.972950 1_545
Li8 O26 2.056284 1_555
Li8 O19 2.230005 1_555
Li8 O18 2.382491 1_555
Li8 O4 2.447424 1_545
Li9 O2 1.981744 1_545
Li9 O27 2.040058 1_556
Li9 O21 2.133919 1_555
Li9 O20 2.437434 1_555
Fe0 O7 2.053072 1_555
Fe0 O6 2.067733 1_655
Fe0 O15 2.128488 1_555
Fe0 O13 2.153757 1_555
Fe0 O4 2.212802 1_555
Fe0 O2 2.349332 1_555
Fe1 O9 2.057982 1_555
Fe1 O8 2.075302 1_655
Fe1 O17 2.148085 1_555
Fe1 O11 2.164088 1_555
Fe1 O5 2.172163 1_555
Fe1 O3 2.371333 1_555
Fe2 O18 2.053072 1_555
Fe2 O19 2.067733 1_455
Fe2 O10 2.128488 1_555
Fe2 O16 2.153757 1_555
Fe2 O22 2.212802 1_555
Fe2 O24 2.349332 1_555
Fe3 O20 2.057982 1_555
Fe3 O21 2.075302 1_455
Fe3 O12 2.148085 1_555
Fe3 O14 2.164088 1_555
Fe3 O23 2.172163 1_555
Fe3 O25 2.371333 1_555
C0 O26 1.299268 1_565
C0 O2 1.302930 1_555
C0 O4 1.304640 1_555
C1 O3 1.295749 1_555
C1 O27 1.298248 1_565
C1 O5 1.306651 1_555
C2 O0 1.299268 1_545
C2 O24 1.302930 1_555
C2 O22 1.304640 1_555
C3 O25 1.295749 1_555
C3 O1 1.298248 1_545
C3 O23 1.306651 1_555
O6 P0 1.562685 1_555
O7 P0 1.555092 1_555
O8 P1 1.563840 1_555
O9 P1 1.561568 1_555
O10 P0 1.562433 1_555
O11 P2 1.548221 1_555
O12 P1 1.559581 1_556
O13 P3 1.540593 1_555
O14 P0 1.548221 1_555
O15 P2 1.562433 1_555
O16 P1 1.540593 1_555
O17 P3 1.559581 1_554
O18 P2 1.555092 1_555
O19 P2 1.562685 1_555
O20 P3 1.561568 1_555
O21 P3 1.563840 1_555
