# generated using pymatgen
data_Cr(PO3)5
_symmetry_space_group_name_H-M   'P 1'
_cell_length_a   13.70808100
_cell_length_b   5.09087600
_cell_length_c   8.94591333
_cell_angle_alpha   78.56560796
_cell_angle_beta   90.00000000
_cell_angle_gamma   90.00000000
_symmetry_Int_Tables_number   1
_chemical_formula_structural   Cr(PO3)5
_chemical_formula_sum   'Cr2 P10 O30'
_cell_volume   611.90986395
_cell_formula_units_Z   2
loop_
 _symmetry_equiv_pos_site_id
 _symmetry_equiv_pos_as_xyz
  1  'x, y, z'
loop_
 _atom_site_type_symbol
 _atom_site_label
 _atom_site_symmetry_multiplicity
 _atom_site_fract_x
 _atom_site_fract_y
 _atom_site_fract_z
 _atom_site_occupancy
  Cr  Cr0  1  0.00000000  0.50000000  0.50000000  1
  Cr  Cr1  1  0.50000000  0.50000000  0.50000000  1
  P  P0  1  0.92153400  0.65451600  0.81198300  1
  P  P1  1  0.14156500  0.00346000  0.48024700  1
  P  P2  1  0.85843500  0.99654000  0.51975300  1
  P  P3  1  0.64156500  0.99654000  0.51975300  1
  P  P4  1  0.75000000  0.45456400  0.99924200  1
  P  P5  1  0.35843500  0.00346000  0.48024700  1
  P  P6  1  0.57846600  0.65451600  0.81198300  1
  P  P7  1  0.42153400  0.34548400  0.18801700  1
  P  P8  1  0.07846600  0.34548400  0.18801700  1
  P  P9  1  0.25000000  0.54543600  0.00075800  1
  O  O0  1  0.25000000  0.29796100  0.93088400  1
  O  O1  1  0.92640400  0.84107100  0.43675000  1
  O  O2  1  0.64739200  0.86708100  0.69644800  1
  O  O3  1  0.12306100  0.70498000  0.50014300  1
  O  O4  1  0.85260800  0.86708100  0.69644800  1
  O  O5  1  0.33947500  0.55988400  0.11465100  1
  O  O6  1  0.25000000  0.04172500  0.53777500  1
  O  O7  1  0.02594300  0.21284300  0.08009800  1
  O  O8  1  0.52594300  0.78715700  0.91990200  1
  O  O9  1  0.48185700  0.49719700  0.28912600  1
  O  O10  1  0.62306100  0.29502000  0.49985700  1
  O  O11  1  0.57359600  0.84107100  0.43675000  1
  O  O12  1  0.51814300  0.50280300  0.71087400  1
  O  O13  1  0.16052500  0.55988400  0.11465100  1
  O  O14  1  0.14739200  0.13291900  0.30355200  1
  O  O15  1  0.98185700  0.50280300  0.71087400  1
  O  O16  1  0.35260800  0.13291900  0.30355200  1
  O  O17  1  0.75000000  0.95827500  0.46222500  1
  O  O18  1  0.25000000  0.78192700  0.86801400  1
  O  O19  1  0.87693900  0.29502000  0.49985700  1
  O  O20  1  0.42640400  0.15892900  0.56325000  1
  O  O21  1  0.07359600  0.15892900  0.56325000  1
  O  O22  1  0.37693900  0.70498000  0.50014300  1
  O  O23  1  0.97405700  0.78715700  0.91990200  1
  O  O24  1  0.75000000  0.70203900  0.06911600  1
  O  O25  1  0.83947500  0.44011600  0.88534900  1
  O  O26  1  0.01814300  0.49719700  0.28912600  1
  O  O27  1  0.47405700  0.21284300  0.08009800  1
  O  O28  1  0.66052500  0.44011600  0.88534900  1
  O  O29  1  0.75000000  0.21807300  0.13198600  1
loop_
_geom_bond_atom_site_label_1
_geom_bond_atom_site_label_2
_geom_bond_distance
_geom_bond_site_symmetry_2
Cr0 O15 1.905640 1_455
Cr0 O26 1.905640 1_555
Cr0 O19 1.983738 1_455
Cr0 O3 1.983738 1_555
Cr0 O1 1.990811 1_455
Cr0 O21 1.990811 1_555
Cr1 O12 1.905640 1_555
Cr1 O9 1.905640 1_555
Cr1 O10 1.983738 1_555
Cr1 O22 1.983738 1_555
Cr1 O11 1.990811 1_555
Cr1 O20 1.990811 1_555
O0 P9 1.513354 1_556
O1 P2 1.509609 1_555
O2 P3 1.589431 1_555
O2 P6 1.639682 1_555
O3 P1 1.515830 1_565
O4 P2 1.589431 1_555
O4 P0 1.639682 1_555
O5 P9 1.605494 1_555
O5 P7 1.613506 1_555
O6 P1 1.597512 1_555
O6 P5 1.597512 1_555
O7 P8 1.471361 1_555
O8 P6 1.471361 1_555
O9 P7 1.541248 1_555
O10 P3 1.515830 1_545
O11 P3 1.509609 1_555
O12 P6 1.541248 1_555
O13 P9 1.605494 1_555
O13 P8 1.613506 1_555
O14 P1 1.589431 1_555
O14 P8 1.639682 1_555
O15 P0 1.541248 1_555
O16 P5 1.589431 1_555
O16 P7 1.639682 1_555
O17 P3 1.597512 1_555
O17 P2 1.597512 1_555
O18 P9 1.514205 1_556
O19 P2 1.515830 1_545
O20 P5 1.509609 1_555
O21 P1 1.509609 1_555
O22 P5 1.515830 1_565
O23 P0 1.471361 1_555
O24 P4 1.513354 1_554
O25 P4 1.605494 1_555
O25 P0 1.613506 1_555
O26 P8 1.541248 1_555
O27 P7 1.471361 1_555
O28 P4 1.605494 1_555
O28 P6 1.613506 1_555
O29 P4 1.514205 1_554
