# generated using pymatgen
data_Li4Co3Sb5O16
_symmetry_space_group_name_H-M   'P 1'
_cell_length_a   6.19136299
_cell_length_b   20.77878352
_cell_length_c   6.21711806
_cell_angle_alpha   90.40467360
_cell_angle_beta   119.86285110
_cell_angle_gamma   90.00097548
_symmetry_Int_Tables_number   1
_chemical_formula_structural   Li4Co3Sb5O16
_chemical_formula_sum   'Li8 Co6 Sb10 O32'
_cell_volume   693.60183329
_cell_formula_units_Z   2
loop_
 _symmetry_equiv_pos_site_id
 _symmetry_equiv_pos_as_xyz
  1  'x, y, z'
loop_
 _atom_site_type_symbol
 _atom_site_label
 _atom_site_symmetry_multiplicity
 _atom_site_fract_x
 _atom_site_fract_y
 _atom_site_fract_z
 _atom_site_occupancy
  Li  Li0  1  0.66268700  0.44986900  0.32534400  1
  Li  Li1  1  0.66259300  0.94990000  0.32516900  1
  Li  Li2  1  0.99024500  0.49209100  0.98048100  1
  Li  Li3  1  0.98992900  0.99196200  0.97983300  1
  Li  Li4  1  0.00062200  0.25206700  0.00121700  1
  Li  Li5  1  0.00073000  0.75212200  0.00146400  1
  Li  Li6  1  0.32097000  0.18930500  0.64189900  1
  Li  Li7  1  0.32104800  0.68931400  0.64207700  1
  Co  Co0  1  0.82596900  0.60487900  0.65191000  1
  Co  Co1  1  0.66751800  0.86009900  0.84222300  1
  Co  Co2  1  0.17470300  0.86009900  0.84222200  1
  Co  Co3  1  0.82578300  0.10481400  0.65151900  1
  Co  Co4  1  0.66749400  0.36004300  0.84208700  1
  Co  Co5  1  0.17461900  0.36004100  0.84208700  1
  Sb  Sb0  1  0.68062200  0.25983800  0.36122900  1
  Sb  Sb1  1  0.68072600  0.75988600  0.36146600  1
  Sb  Sb2  1  0.17398900  0.36266000  0.34794500  1
  Sb  Sb3  1  0.17398700  0.86274000  0.34797700  1
  Sb  Sb4  1  0.34664700  0.48912300  0.69327300  1
  Sb  Sb5  1  0.34658100  0.98920500  0.69314500  1
  Sb  Sb6  1  0.82816900  0.10479300  0.16138800  1
  Sb  Sb7  1  0.82830100  0.60491500  0.16146500  1
  Sb  Sb8  1  0.33326400  0.10479100  0.16138700  1
  Sb  Sb9  1  0.33320000  0.60491200  0.16146900  1
  O  O0  1  0.49982000  0.15373900  0.99958900  1
  O  O1  1  0.49987500  0.65386000  0.99971500  1
  O  O2  1  0.65264100  0.05034300  0.30523700  1
  O  O3  1  0.65274200  0.55045000  0.30545700  1
  O  O4  1  0.00253600  0.15630900  0.00501400  1
  O  O5  1  0.00263800  0.65651300  0.00523500  1
  O  O6  1  0.01090200  0.40582000  0.02175800  1
  O  O7  1  0.01092100  0.90584800  0.02182000  1
  O  O8  1  0.14564900  0.04820500  0.29126400  1
  O  O9  1  0.14550300  0.54842100  0.29098600  1
  O  O10  1  0.84710700  0.30264500  0.69420400  1
  O  O11  1  0.84716600  0.80271400  0.69435800  1
  O  O12  1  0.32850500  0.31103400  0.65699800  1
  O  O13  1  0.32853400  0.81116700  0.65709400  1
  O  O14  1  0.48448500  0.42603900  0.96893900  1
  O  O15  1  0.48440600  0.92618800  0.96881700  1
  O  O16  1  0.86012900  0.30685400  0.18807800  1
  O  O17  1  0.86018100  0.80698000  0.18829300  1
  O  O18  1  0.32797300  0.30685300  0.18808400  1
  O  O19  1  0.32809900  0.80697700  0.18830400  1
  O  O20  1  0.97562600  0.15475300  0.47062200  1
  O  O21  1  0.97558600  0.65490100  0.47073500  1
  O  O22  1  0.49504100  0.15475100  0.47063200  1
  O  O23  1  0.49517400  0.65489800  0.47074500  1
  O  O24  1  0.47563500  0.42513000  0.51230000  1
  O  O25  1  0.47552300  0.92537600  0.51245200  1
  O  O26  1  0.03668600  0.42512900  0.51229300  1
  O  O27  1  0.03693500  0.92538000  0.51244600  1
  O  O28  1  0.69177600  0.04768200  0.85166400  1
  O  O29  1  0.69274700  0.54786700  0.85246100  1
  O  O30  1  0.15992100  0.04768300  0.85166200  1
  O  O31  1  0.15974000  0.54786500  0.85246000  1
loop_
_geom_bond_atom_site_label_1
_geom_bond_atom_site_label_2
_geom_bond_distance
_geom_bond_site_symmetry_2
Li0 O14 1.980453 1_554
Li0 O26 2.074924 1_655
Li0 O24 2.074944 1_555
Li0 O3 2.093572 1_555
Li1 O15 1.979584 1_554
Li1 O27 2.075569 1_655
Li1 O25 2.075626 1_555
Li1 O2 2.090723 1_565
Li2 O6 1.808168 1_656
Li2 O29 1.980530 1_555
Li2 O31 1.980554 1_655
Li2 O9 2.034877 1_656
Li3 O7 1.805438 1_656
Li3 O28 1.982756 1_565
Li3 O30 1.982780 1_665
Li3 O8 2.037938 1_666
Li4 O10 1.967959 1_454
Li4 O4 1.990007 1_555
Li4 O18 2.095170 1_555
Li4 O16 2.095213 1_455
Li5 O11 1.968540 1_454
Li5 O5 1.986909 1_555
Li5 O19 2.096009 1_555
Li5 O17 2.096099 1_455
Li6 O22 1.985655 1_555
Li6 O20 1.985655 1_455
Li6 O0 2.070892 1_555
Li6 O12 2.530027 1_555
Li7 O21 1.985215 1_455
Li7 O23 1.985231 1_555
Li7 O1 2.069783 1_555
Li7 O13 2.532591 1_555
Co0 O21 2.064647 1_555
Co0 O23 2.064656 1_555
Co0 O29 2.164103 1_555
Co0 O31 2.164149 1_655
Co0 O3 2.175737 1_555
Co0 O5 2.178704 1_656
Co1 O7 2.071627 1_656
Co1 O13 2.083542 1_555
Co1 O11 2.122935 1_555
Co1 O15 2.159615 1_555
Co1 O17 2.179015 1_556
Co1 O25 2.251341 1_555
Co2 O7 2.071538 1_556
Co2 O13 2.083449 1_555
Co2 O11 2.123019 1_455
Co2 O15 2.159572 1_555
Co2 O19 2.179105 1_556
Co2 O27 2.251414 1_555
Co3 O20 2.063446 1_555
Co3 O22 2.063461 1_555
Co3 O30 2.166747 1_655
Co3 O28 2.166785 1_555
Co3 O2 2.175397 1_555
Co3 O4 2.178102 1_656
Co4 O6 2.071926 1_656
Co4 O12 2.084328 1_555
Co4 O10 2.123002 1_555
Co4 O14 2.158939 1_555
Co4 O16 2.179399 1_556
Co4 O24 2.248942 1_555
Co5 O6 2.071871 1_556
Co5 O12 2.084265 1_555
Co5 O10 2.123027 1_455
Co5 O14 2.158957 1_555
Co5 O18 2.179415 1_556
Co5 O26 2.248979 1_555
O0 Sb6 2.038892 1_556
O0 Sb8 2.038905 1_556
O1 Sb7 2.039240 1_556
O1 Sb9 2.039254 1_556
O2 Sb6 2.059872 1_555
O2 Sb8 2.059882 1_555
O3 Sb9 2.060768 1_555
O3 Sb7 2.060810 1_555
O4 Sb8 2.077572 1_555
O4 Sb6 2.077579 1_455
O5 Sb7 2.077670 1_455
O5 Sb9 2.077711 1_555
O6 Sb2 1.980637 1_555
O7 Sb3 1.979996 1_555
O8 Sb8 2.081149 1_555
O8 Sb6 2.081151 1_455
O8 Sb5 2.498244 1_545
O9 Sb9 2.078911 1_555
O9 Sb7 2.078923 1_455
O9 Sb4 2.503238 1_555
O10 Sb0 1.997029 1_555
O11 Sb1 1.996820 1_555
O12 Sb2 1.989075 1_555
O13 Sb3 1.988765 1_555
O14 Sb4 1.989731 1_555
O15 Sb5 1.988830 1_555
O16 Sb2 2.041779 1_655
O16 Sb0 2.134179 1_555
O17 Sb3 2.040993 1_655
O17 Sb1 2.134783 1_555
O18 Sb2 2.041748 1_555
O18 Sb0 2.134157 1_555
O19 Sb3 2.040959 1_555
O19 Sb1 2.134781 1_555
O20 Sb6 1.957343 1_555
O21 Sb7 1.957818 1_555
O22 Sb8 1.957392 1_555
O23 Sb9 1.957842 1_555
O24 Sb2 2.073096 1_555
O24 Sb4 2.132020 1_555
O25 Sb3 2.074830 1_555
O25 Sb5 2.128491 1_555
O26 Sb2 2.073127 1_555
O26 Sb4 2.132012 1_555
O27 Sb3 2.074844 1_555
O27 Sb5 2.128461 1_555
O28 Sb6 2.043921 1_556
O28 Sb5 2.213790 1_545
O29 Sb7 2.040185 1_556
O29 Sb4 2.220822 1_555
O30 Sb8 2.043892 1_556
O30 Sb5 2.213745 1_545
O31 Sb9 2.040196 1_556
O31 Sb4 2.220798 1_555
