# generated using pymatgen
data_K2Li2NiO4
_symmetry_space_group_name_H-M   'P 1'
_cell_length_a   9.04552400
_cell_length_b   5.46513900
_cell_length_c   11.07352470
_cell_angle_alpha   67.90413057
_cell_angle_beta   90.00000000
_cell_angle_gamma   90.00000000
_symmetry_Int_Tables_number   1
_chemical_formula_structural   K2Li2NiO4
_chemical_formula_sum   'K8 Li8 Ni4 O16'
_cell_volume   507.21533738
_cell_formula_units_Z   4
loop_
 _symmetry_equiv_pos_site_id
 _symmetry_equiv_pos_as_xyz
  1  'x, y, z'
loop_
 _atom_site_type_symbol
 _atom_site_label
 _atom_site_symmetry_multiplicity
 _atom_site_fract_x
 _atom_site_fract_y
 _atom_site_fract_z
 _atom_site_occupancy
  K  K0  1  0.50033300  0.69823900  0.64369300  1
  K  K1  1  0.24805800  0.22007900  0.13744200  1
  K  K2  1  0.00033300  0.30176100  0.85630700  1
  K  K3  1  0.74805800  0.77992100  0.36255800  1
  K  K4  1  0.25194200  0.22007900  0.63744200  1
  K  K5  1  0.99966700  0.69823900  0.14369300  1
  K  K6  1  0.75194200  0.77992100  0.86255800  1
  K  K7  1  0.49966700  0.30176100  0.35630700  1
  Li  Li0  1  0.24661900  0.61467800  0.81106700  1
  Li  Li1  1  0.98698300  0.65438400  0.56731400  1
  Li  Li2  1  0.48698300  0.34561600  0.93268600  1
  Li  Li3  1  0.74661900  0.38532200  0.68893300  1
  Li  Li4  1  0.25338100  0.61467800  0.31106700  1
  Li  Li5  1  0.51301700  0.65438400  0.06731400  1
  Li  Li6  1  0.01301700  0.34561600  0.43268600  1
  Li  Li7  1  0.75338100  0.38532200  0.18893300  1
  Ni  Ni0  1  0.21470000  0.88007300  0.44979000  1
  Ni  Ni1  1  0.71470000  0.11992700  0.05021000  1
  Ni  Ni2  1  0.28530000  0.88007300  0.94979000  1
  Ni  Ni3  1  0.78530000  0.11992700  0.55021000  1
  O  O0  1  0.18843900  0.72620400  0.62656000  1
  O  O1  1  0.79636200  0.76516200  0.61327400  1
  O  O2  1  0.57211000  0.27361900  0.11581300  1
  O  O3  1  0.88576400  0.23252100  0.09264800  1
  O  O4  1  0.29636200  0.23483800  0.88672600  1
  O  O5  1  0.68843900  0.27379600  0.87344000  1
  O  O6  1  0.38576400  0.76747900  0.40735200  1
  O  O7  1  0.07211000  0.72638100  0.38418700  1
  O  O8  1  0.92789000  0.27361900  0.61581300  1
  O  O9  1  0.61423600  0.23252100  0.59264800  1
  O  O10  1  0.31156100  0.72620400  0.12656000  1
  O  O11  1  0.70363800  0.76516200  0.11327400  1
  O  O12  1  0.11423600  0.76747900  0.90735200  1
  O  O13  1  0.42789000  0.72638100  0.88418700  1
  O  O14  1  0.20363800  0.23483800  0.38672600  1
  O  O15  1  0.81156100  0.27379600  0.37344000  1
loop_
_geom_bond_atom_site_label_1
_geom_bond_atom_site_label_2
_geom_bond_distance
_geom_bond_site_symmetry_2
K0 O6 2.705827 1_555
K0 O1 2.706442 1_555
K0 O13 2.802388 1_555
K0 O0 2.827890 1_555
K0 O9 2.943693 1_565
K0 O9 2.990234 1_555
K1 O4 2.781518 1_554
K1 O10 2.782933 1_555
K1 O10 2.806115 1_545
K1 O14 2.820560 1_555
K1 O2 2.946576 1_555
K1 O3 3.311334 1_455
K2 O3 2.705827 1_456
K2 O4 2.706442 1_555
K2 O8 2.802388 1_455
K2 O5 2.827890 1_455
K2 O12 2.943693 1_545
K2 O12 2.990234 1_555
K3 O1 2.781518 1_555
K3 O15 2.782933 1_555
K3 O15 2.806115 1_565
K3 O11 2.820560 1_555
K3 O7 2.946576 1_655
K3 O6 3.311334 1_555
K4 O14 2.781518 1_555
K4 O0 2.782933 1_555
K4 O0 2.806115 1_545
K4 O4 2.820560 1_555
K4 O8 2.946576 1_455
K4 O9 3.311334 1_555
K5 O12 2.705827 1_654
K5 O11 2.706442 1_555
K5 O7 2.802388 1_655
K5 O10 2.827890 1_655
K5 O3 2.943693 1_565
K5 O3 2.990234 1_555
K6 O11 2.781518 1_556
K6 O5 2.782933 1_555
K6 O5 2.806115 1_565
K6 O1 2.820560 1_555
K6 O13 2.946576 1_555
K6 O12 3.311334 1_655
K7 O9 2.705827 1_555
K7 O14 2.706442 1_555
K7 O2 2.802388 1_555
K7 O15 2.827890 1_555
K7 O6 2.943693 1_545
K7 O6 2.990234 1_555
Li0 O0 1.971300 1_555
Li0 O4 1.976166 1_555
Li0 O12 1.984428 1_555
Li0 O13 2.022063 1_555
Li1 O1 1.957153 1_555
Li1 O8 2.015853 1_555
Li1 O0 2.024572 1_655
Li1 O7 2.063902 1_655
Li2 O4 1.957153 1_555
Li2 O13 2.015853 1_555
Li2 O5 2.024572 1_555
Li2 O2 2.063902 1_556
Li3 O5 1.971300 1_555
Li3 O1 1.976166 1_555
Li3 O9 1.984428 1_555
Li3 O8 2.022063 1_555
Li4 O10 1.971300 1_555
Li4 O14 1.976166 1_555
Li4 O6 1.984428 1_555
Li4 O7 2.022063 1_555
Li5 O11 1.957153 1_555
Li5 O2 2.015853 1_555
Li5 O10 2.024572 1_555
Li5 O13 2.063902 1_554
Li6 O14 1.957153 1_555
Li6 O7 2.015853 1_555
Li6 O15 2.024572 1_455
Li6 O8 2.063902 1_455
Li7 O15 1.971300 1_555
Li7 O11 1.976166 1_555
Li7 O3 1.984428 1_555
Li7 O2 2.022063 1_555
Ni0 O6 1.792030 1_555
Ni0 O14 1.799494 1_565
Ni0 O7 1.831909 1_555
Ni0 O0 1.832180 1_555
Ni1 O3 1.792030 1_555
Ni1 O11 1.799494 1_545
Ni1 O2 1.831909 1_555
Ni1 O5 1.832180 1_554
Ni2 O12 1.792030 1_555
Ni2 O4 1.799494 1_565
Ni2 O13 1.831909 1_555
Ni2 O10 1.832180 1_556
Ni3 O9 1.792030 1_555
Ni3 O1 1.799494 1_545
Ni3 O8 1.831909 1_555
Ni3 O15 1.832180 1_555
