# generated using pymatgen
data_Li5BiS4
_symmetry_space_group_name_H-M   'P 1'
_cell_length_a   11.40879900
_cell_length_b   11.79332400
_cell_length_c   11.99537200
_cell_angle_alpha   90.00000000
_cell_angle_beta   90.00000000
_cell_angle_gamma   90.00000000
_symmetry_Int_Tables_number   1
_chemical_formula_structural   Li5BiS4
_chemical_formula_sum   'Li40 Bi8 S32'
_cell_volume   1613.94927011
_cell_formula_units_Z   8
loop_
 _symmetry_equiv_pos_site_id
 _symmetry_equiv_pos_as_xyz
  1  'x, y, z'
loop_
 _atom_site_type_symbol
 _atom_site_label
 _atom_site_symmetry_multiplicity
 _atom_site_fract_x
 _atom_site_fract_y
 _atom_site_fract_z
 _atom_site_occupancy
  Li  Li0  1  0.12522800  0.59797500  0.14759100  1
  Li  Li1  1  0.12522800  0.90202500  0.64759100  1
  Li  Li2  1  0.11651700  0.12968700  0.85344500  1
  Li  Li3  1  0.11651700  0.37031300  0.35344500  1
  Li  Li4  1  0.13125000  0.85260000  0.40705400  1
  Li  Li5  1  0.13125000  0.64740000  0.90705400  1
  Li  Li6  1  0.14187500  0.86422800  0.13702800  1
  Li  Li7  1  0.14187500  0.63577200  0.63702800  1
  Li  Li8  1  0.14811600  0.10654600  0.40021400  1
  Li  Li9  1  0.14811600  0.39345400  0.90021400  1
  Li  Li10  1  0.35188400  0.89345400  0.90021400  1
  Li  Li11  1  0.35188400  0.60654600  0.40021400  1
  Li  Li12  1  0.35812500  0.13577200  0.63702800  1
  Li  Li13  1  0.35812500  0.36422800  0.13702800  1
  Li  Li14  1  0.36875000  0.35260000  0.40705400  1
  Li  Li15  1  0.36875000  0.14740000  0.90705400  1
  Li  Li16  1  0.38348300  0.62968700  0.85344500  1
  Li  Li17  1  0.38348300  0.87031300  0.35344500  1
  Li  Li18  1  0.37477200  0.40202500  0.64759100  1
  Li  Li19  1  0.37477200  0.09797500  0.14759100  1
  Li  Li20  1  0.62522800  0.59797500  0.35240900  1
  Li  Li21  1  0.62522800  0.90202500  0.85240900  1
  Li  Li22  1  0.61651700  0.12968700  0.64655500  1
  Li  Li23  1  0.61651700  0.37031300  0.14655500  1
  Li  Li24  1  0.63125000  0.64740000  0.59294600  1
  Li  Li25  1  0.63125000  0.85260000  0.09294600  1
  Li  Li26  1  0.64187500  0.63577200  0.86297200  1
  Li  Li27  1  0.64187500  0.86422800  0.36297200  1
  Li  Li28  1  0.64811600  0.10654600  0.09978600  1
  Li  Li29  1  0.64811600  0.39345400  0.59978600  1
  Li  Li30  1  0.85188400  0.60654600  0.09978600  1
  Li  Li31  1  0.85188400  0.89345400  0.59978600  1
  Li  Li32  1  0.85812500  0.36422800  0.36297200  1
  Li  Li33  1  0.85812500  0.13577200  0.86297200  1
  Li  Li34  1  0.86875000  0.14740000  0.59294600  1
  Li  Li35  1  0.86875000  0.35260000  0.09294600  1
  Li  Li36  1  0.88348300  0.62968700  0.64655500  1
  Li  Li37  1  0.88348300  0.87031300  0.14655500  1
  Li  Li38  1  0.87477200  0.09797500  0.35240900  1
  Li  Li39  1  0.87477200  0.40202500  0.85240900  1
  Bi  Bi0  1  0.08412000  0.15059900  0.14218700  1
  Bi  Bi1  1  0.08412000  0.34940100  0.64218700  1
  Bi  Bi2  1  0.41588000  0.65059900  0.14218700  1
  Bi  Bi3  1  0.41588000  0.84940100  0.64218700  1
  Bi  Bi4  1  0.58412000  0.15059900  0.35781300  1
  Bi  Bi5  1  0.58412000  0.34940100  0.85781300  1
  Bi  Bi6  1  0.91588000  0.65059900  0.35781300  1
  Bi  Bi7  1  0.91588000  0.84940100  0.85781300  1
  S  S0  1  0.99385900  0.23502600  0.45640500  1
  S  S1  1  0.99385900  0.26497400  0.95640500  1
  S  S2  1  0.02128300  0.97138900  0.27379400  1
  S  S3  1  0.02128300  0.52861100  0.77379400  1
  S  S4  1  0.22152200  0.02695200  0.01344200  1
  S  S5  1  0.22152200  0.47304800  0.51344100  1
  S  S6  1  0.26050900  0.23051200  0.26831700  1
  S  S7  1  0.26050900  0.26948800  0.76831700  1
  S  S8  1  0.23949100  0.73051200  0.26831700  1
  S  S9  1  0.23949100  0.76948800  0.76831700  1
  S  S10  1  0.27847800  0.52695200  0.01344200  1
  S  S11  1  0.27847800  0.97304800  0.51344100  1
  S  S12  1  0.47871700  0.47138900  0.27379400  1
  S  S13  1  0.47871700  0.02861100  0.77379400  1
  S  S14  1  0.50614100  0.73502600  0.45640500  1
  S  S15  1  0.50614100  0.76497400  0.95640500  1
  S  S16  1  0.49385900  0.23502600  0.04359500  1
  S  S17  1  0.49385900  0.26497400  0.54359500  1
  S  S18  1  0.52128300  0.97138900  0.22620600  1
  S  S19  1  0.52128300  0.52861100  0.72620600  1
  S  S20  1  0.72152200  0.47304800  0.98655900  1
  S  S21  1  0.72152200  0.02695200  0.48655900  1
  S  S22  1  0.76050900  0.23051200  0.23168300  1
  S  S23  1  0.76050900  0.26948800  0.73168300  1
  S  S24  1  0.73949100  0.73051200  0.23168300  1
  S  S25  1  0.73949100  0.76948800  0.73168300  1
  S  S26  1  0.77847800  0.97304800  0.98655900  1
  S  S27  1  0.77847800  0.52695200  0.48655900  1
  S  S28  1  0.97871700  0.02861100  0.72620600  1
  S  S29  1  0.97871700  0.47138900  0.22620600  1
  S  S30  1  0.00614100  0.73502600  0.04359500  1
  S  S31  1  0.00614100  0.76497400  0.54359500  1
loop_
_geom_bond_atom_site_label_1
_geom_bond_atom_site_label_2
_geom_bond_distance
_geom_bond_site_symmetry_2
Li0 S29 2.431440 1_455
Li0 S30 2.452441 1_555
Li0 S8 2.497931 1_555
Li0 S10 2.519501 1_555
Li1 S28 2.431440 1_465
Li1 S31 2.452441 1_555
Li1 S9 2.497931 1_555
Li1 S11 2.519509 1_555
Li2 S1 2.455436 1_455
Li2 S28 2.494403 1_455
Li2 S7 2.541597 1_555
Li2 S4 2.566422 1_556
Li3 S0 2.455436 1_455
Li3 S29 2.494403 1_455
Li3 S6 2.541597 1_555
Li3 S5 2.566413 1_555
Li4 S31 2.405788 1_555
Li4 S2 2.468153 1_555
Li4 S8 2.523418 1_555
Li4 S11 2.543169 1_555
Li5 S30 2.405788 1_556
Li5 S3 2.468153 1_555
Li5 S9 2.523418 1_555
Li5 S10 2.543175 1_556
Li6 S30 2.444561 1_555
Li6 S2 2.486250 1_555
Li6 S8 2.491438 1_555
Li6 S4 2.589625 1_565
Li7 S31 2.444561 1_555
Li7 S3 2.486250 1_555
Li7 S9 2.491438 1_555
Li7 S5 2.589632 1_555
Li8 S0 2.418134 1_455
Li8 S6 2.506947 1_555
Li8 S11 2.556439 1_545
Li8 S2 2.633279 1_545
Li9 S1 2.418134 1_455
Li9 S7 2.506947 1_555
Li9 S10 2.556445 1_556
Li9 S3 2.633279 1_555
Li10 S15 2.418134 1_555
Li10 S9 2.506947 1_555
Li10 S4 2.556445 1_566
Li10 S13 2.633279 1_565
Li11 S14 2.418134 1_555
Li11 S8 2.506947 1_555
Li11 S5 2.556439 1_555
Li11 S12 2.633279 1_555
Li12 S17 2.444561 1_555
Li12 S13 2.486250 1_555
Li12 S7 2.491438 1_555
Li12 S11 2.589632 1_545
Li13 S16 2.444561 1_555
Li13 S12 2.486250 1_555
Li13 S6 2.491438 1_555
Li13 S10 2.589625 1_555
Li14 S17 2.405788 1_555
Li14 S12 2.468153 1_555
Li14 S6 2.523418 1_555
Li14 S5 2.543169 1_555
Li15 S16 2.405788 1_556
Li15 S13 2.468153 1_555
Li15 S7 2.523418 1_555
Li15 S4 2.543175 1_556
Li16 S15 2.455436 1_555
Li16 S19 2.494403 1_555
Li16 S9 2.541597 1_555
Li16 S10 2.566422 1_556
Li17 S14 2.455436 1_555
Li17 S18 2.494403 1_555
Li17 S8 2.541597 1_555
Li17 S11 2.566413 1_555
Li18 S19 2.431440 1_555
Li18 S17 2.452441 1_555
Li18 S7 2.497931 1_555
Li18 S5 2.519509 1_555
Li19 S18 2.431440 1_545
Li19 S16 2.452441 1_555
Li19 S6 2.497931 1_555
Li19 S4 2.519501 1_555
Li20 S12 2.431440 1_555
Li20 S14 2.452441 1_555
Li20 S24 2.497931 1_555
Li20 S27 2.519509 1_555
Li21 S13 2.431440 1_565
Li21 S15 2.452441 1_555
Li21 S25 2.497931 1_555
Li21 S26 2.519509 1_555
Li22 S17 2.455436 1_555
Li22 S13 2.494403 1_555
Li22 S23 2.541597 1_555
Li22 S21 2.566413 1_555
Li23 S16 2.455436 1_555
Li23 S12 2.494403 1_555
Li23 S22 2.541597 1_555
Li23 S20 2.566413 1_554
Li24 S14 2.405788 1_555
Li24 S19 2.468153 1_555
Li24 S25 2.523418 1_555
Li24 S27 2.543169 1_555
Li25 S15 2.405788 1_554
Li25 S18 2.468153 1_555
Li25 S24 2.523418 1_555
Li25 S26 2.543169 1_554
Li26 S15 2.444561 1_555
Li26 S19 2.486250 1_555
Li26 S25 2.491438 1_555
Li26 S20 2.589632 1_555
Li27 S14 2.444561 1_555
Li27 S18 2.486250 1_555
Li27 S24 2.491438 1_555
Li27 S21 2.589632 1_565
Li28 S16 2.418134 1_555
Li28 S22 2.506947 1_555
Li28 S26 2.556439 1_544
Li28 S18 2.633279 1_545
Li29 S17 2.418134 1_555
Li29 S23 2.506947 1_555
Li29 S27 2.556439 1_555
Li29 S19 2.633279 1_555
Li30 S30 2.418134 1_655
Li30 S24 2.506947 1_555
Li30 S20 2.556439 1_554
Li30 S29 2.633279 1_555
Li31 S31 2.418134 1_655
Li31 S25 2.506947 1_555
Li31 S21 2.556439 1_565
Li31 S28 2.633279 1_565
Li32 S0 2.444561 1_555
Li32 S29 2.486250 1_555
Li32 S22 2.491438 1_555
Li32 S27 2.589632 1_555
Li33 S1 2.444561 1_555
Li33 S28 2.486250 1_555
Li33 S23 2.491438 1_555
Li33 S26 2.589632 1_545
Li34 S0 2.405788 1_555
Li34 S28 2.468153 1_555
Li34 S23 2.523418 1_555
Li34 S21 2.543169 1_555
Li35 S1 2.405788 1_554
Li35 S29 2.468153 1_555
Li35 S22 2.523418 1_555
Li35 S20 2.543169 1_554
Li36 S31 2.455436 1_655
Li36 S3 2.494403 1_655
Li36 S25 2.541597 1_555
Li36 S27 2.566413 1_555
Li37 S30 2.455436 1_655
Li37 S2 2.494403 1_655
Li37 S24 2.541597 1_555
Li37 S26 2.566413 1_554
Li38 S2 2.431440 1_645
Li38 S0 2.452441 1_555
Li38 S22 2.497931 1_555
Li38 S21 2.519509 1_555
Li39 S3 2.431440 1_655
Li39 S1 2.452441 1_555
Li39 S23 2.497931 1_555
Li39 S20 2.519509 1_555
Bi0 S4 2.639833 1_555
Bi0 S6 2.688306 1_555
Bi0 S2 2.733671 1_545
Bi0 S1 2.801102 1_454
Bi1 S5 2.639840 1_555
Bi1 S7 2.688306 1_555
Bi1 S3 2.733671 1_555
Bi1 S0 2.801102 1_455
Bi2 S10 2.639833 1_555
Bi2 S8 2.688306 1_555
Bi2 S12 2.733671 1_555
Bi2 S15 2.801102 1_554
Bi3 S11 2.639840 1_555
Bi3 S9 2.688306 1_555
Bi3 S13 2.733671 1_565
Bi3 S14 2.801102 1_555
Bi4 S21 2.639840 1_555
Bi4 S22 2.688306 1_555
Bi4 S18 2.733671 1_545
Bi4 S17 2.801102 1_555
Bi5 S20 2.639840 1_555
Bi5 S23 2.688306 1_555
Bi5 S19 2.733671 1_555
Bi5 S16 2.801102 1_556
Bi6 S27 2.639840 1_555
Bi6 S24 2.688306 1_555
Bi6 S29 2.733671 1_555
Bi6 S31 2.801102 1_655
Bi7 S26 2.639840 1_555
Bi7 S25 2.688306 1_555
Bi7 S28 2.733671 1_565
Bi7 S30 2.801102 1_656
