# generated using pymatgen
data_NaMnPCO7
_symmetry_space_group_name_H-M   'P 1'
_cell_length_a   8.14249400
_cell_length_b   8.15845438
_cell_length_c   10.35530270
_cell_angle_alpha   108.48726127
_cell_angle_beta   106.36440386
_cell_angle_gamma   100.09039546
_symmetry_Int_Tables_number   1
_chemical_formula_structural   NaMnPCO7
_chemical_formula_sum   'Na4 Mn4 P4 C4 O28'
_cell_volume   598.93945681
_cell_formula_units_Z   4
loop_
 _symmetry_equiv_pos_site_id
 _symmetry_equiv_pos_as_xyz
  1  'x, y, z'
loop_
 _atom_site_type_symbol
 _atom_site_label
 _atom_site_symmetry_multiplicity
 _atom_site_fract_x
 _atom_site_fract_y
 _atom_site_fract_z
 _atom_site_occupancy
  Na  Na0  1  0.77627800  0.73401000  0.75727700  1
  Na  Na1  1  0.48072200  0.02935600  0.75693300  1
  Na  Na2  1  0.72490800  0.75346300  0.23644400  1
  Na  Na3  1  0.22313600  0.25565800  0.23731800  1
  Mn  Mn0  1  0.81658300  0.06677200  0.65587300  1
  Mn  Mn1  1  0.30772400  0.55800900  0.65939600  1
  Mn  Mn2  1  0.69510800  0.43162500  0.34313800  1
  Mn  Mn3  1  0.19454900  0.93222400  0.34288000  1
  P  P0  1  0.04830600  0.79507700  0.56532600  1
  P  P1  1  0.54591000  0.29731800  0.56558300  1
  P  P2  1  0.45574900  0.69982700  0.43604300  1
  P  P3  1  0.95706800  0.20125800  0.43325400  1
  C  C0  1  0.96643900  0.22449000  0.91691100  1
  C  C1  1  0.46809800  0.72557300  0.91984700  1
  C  C2  1  0.52783900  0.28157400  0.08335200  1
  C  C3  1  0.03424400  0.77524800  0.08253700  1
  O  O0  1  0.94743900  0.69736800  0.95092500  1
  O  O1  1  0.43886200  0.20567000  0.95185800  1
  O  O2  1  0.32590300  0.58542900  0.85992100  1
  O  O3  1  0.82204500  0.08096400  0.85350500  1
  O  O4  1  0.00953800  0.26815600  0.81614300  1
  O  O5  1  0.50974000  0.76736400  0.81502300  1
  O  O6  1  0.16523800  0.72293100  0.66684900  1
  O  O7  1  0.96513500  0.90799000  0.66740200  1
  O  O8  1  0.65275800  0.21083300  0.66109400  1
  O  O9  1  0.47663800  0.41993800  0.67318800  1
  O  O10  1  0.60003900  0.84683800  0.57801200  1
  O  O11  1  0.67073400  0.42035700  0.52239100  1
  O  O12  1  0.17169700  0.91944200  0.52219200  1
  O  O13  1  0.10165100  0.34868100  0.57042600  1
  O  O14  1  0.90181000  0.64935400  0.42629500  1
  O  O15  1  0.33539500  0.57161300  0.47792400  1
  O  O16  1  0.83707000  0.07355700  0.47673200  1
  O  O17  1  0.39554600  0.15569600  0.42692800  1
  O  O18  1  0.34640800  0.78013600  0.33754700  1
  O  O19  1  0.53981200  0.58876400  0.33418500  1
  O  O20  1  0.84051700  0.27426500  0.33196200  1
  O  O21  1  0.03430800  0.08303900  0.32870800  1
  O  O22  1  0.48813300  0.23666600  0.18592200  1
  O  O23  1  0.99334900  0.73135400  0.18526800  1
  O  O24  1  0.67489100  0.41848200  0.14372300  1
  O  O25  1  0.17888500  0.91512600  0.14366700  1
  O  O26  1  0.04766700  0.30283000  0.04927600  1
  O  O27  1  0.55404000  0.80777600  0.05082600  1
loop_
_geom_bond_atom_site_label_1
_geom_bond_atom_site_label_2
_geom_bond_distance
_geom_bond_site_symmetry_2
Na0 O0 2.237013 1_555
Na0 O5 2.444747 1_555
Na0 O7 2.474876 1_555
Na0 O10 2.529445 1_555
Na0 O3 2.603171 1_565
Na0 O11 2.703165 1_555
Na0 O9 2.910979 1_555
Na1 O1 2.231095 1_555
Na1 O5 2.428715 1_545
Na1 O8 2.475436 1_555
Na1 O10 2.523007 1_545
Na1 O3 2.580355 1_555
Na1 O12 2.724847 1_545
Na1 O6 2.939268 1_545
Na2 O27 2.252972 1_555
Na2 O23 2.412726 1_555
Na2 O19 2.472621 1_555
Na2 O24 2.506426 1_555
Na2 O14 2.559930 1_555
Na2 O16 2.758277 1_565
Na3 O26 2.254195 1_555
Na3 O22 2.382237 1_555
Na3 O21 2.479790 1_555
Na3 O17 2.520827 1_555
Na3 O25 2.555866 1_545
Na3 O15 2.739690 1_555
Mn0 O16 1.925720 1_555
Mn0 O8 1.927018 1_555
Mn0 O7 1.929043 1_545
Mn0 O4 1.954268 1_655
Mn0 O3 2.000085 1_555
Mn0 O10 2.037502 1_545
Mn1 O6 1.921975 1_555
Mn1 O13 1.925571 1_555
Mn1 O9 1.927477 1_555
Mn1 O2 1.975955 1_555
Mn1 O15 1.989110 1_555
Mn1 O5 1.999081 1_555
Mn2 O20 1.891829 1_555
Mn2 O11 1.950077 1_555
Mn2 O19 1.956644 1_555
Mn2 O22 1.973074 1_555
Mn2 O14 1.973640 1_555
Mn2 O24 1.991149 1_555
Mn3 O18 1.898482 1_555
Mn3 O12 1.950386 1_555
Mn3 O21 1.951159 1_565
Mn3 O23 1.972223 1_455
Mn3 O17 1.976232 1_565
Mn3 O25 1.988551 1_555
C0 O26 1.228885 1_656
C0 O4 1.318034 1_655
C0 O3 1.334009 1_555
C1 O27 1.225946 1_556
C1 O2 1.309279 1_555
C1 O5 1.345767 1_555
C2 O1 1.230704 1_554
C2 O24 1.318652 1_555
C2 O22 1.328795 1_555
C3 O0 1.229385 1_454
C3 O25 1.319435 1_555
C3 O23 1.330503 1_455
O6 P0 1.543692 1_555
O7 P0 1.558518 1_655
O8 P1 1.551056 1_555
O9 P1 1.550965 1_555
O10 P2 1.547539 1_555
O11 P1 1.556950 1_555
O12 P0 1.556119 1_555
O13 P3 1.525883 1_455
O14 P0 1.535881 1_655
O15 P2 1.552617 1_555
O16 P3 1.559325 1_555
O17 P1 1.535317 1_555
O18 P2 1.542323 1_555
O19 P2 1.555672 1_555
O20 P3 1.545631 1_555
O21 P3 1.559436 1_455
