# generated using pymatgen
data_CuHgO2
_symmetry_space_group_name_H-M   'P 1'
_cell_length_a   3.74961799
_cell_length_b   3.74961799
_cell_length_c   6.01554081
_cell_angle_alpha   70.92135047
_cell_angle_beta   70.92135047
_cell_angle_gamma   46.92490718
_symmetry_Int_Tables_number   1
_chemical_formula_structural   CuHgO2
_chemical_formula_sum   'Cu1 Hg1 O2'
_cell_volume   57.72443156
_cell_formula_units_Z   1
loop_
 _symmetry_equiv_pos_site_id
 _symmetry_equiv_pos_as_xyz
  1  'x, y, z'
loop_
 _atom_site_type_symbol
 _atom_site_label
 _atom_site_symmetry_multiplicity
 _atom_site_fract_x
 _atom_site_fract_y
 _atom_site_fract_z
 _atom_site_occupancy
  Cu  Cu0  1  0.00000000  0.00000000  0.00000000  1
  Hg  Hg0  1  0.50000000  0.50000000  0.50000000  1
  O  O0  1  0.38656600  0.38656600  0.21972000  1
  O  O1  1  0.61343400  0.61343400  0.78028000  1
loop_
_geom_bond_atom_site_label_1
_geom_bond_atom_site_label_2
_geom_bond_distance
_geom_bond_site_symmetry_2
Cu0 O1 1.962049 1_544
Cu0 O0 1.962049 1_455
Cu0 O0 1.962049 1_545
Cu0 O1 1.962049 1_454
Hg0 O0 2.095056 1_555
Hg0 O1 2.095056 1_555
