# generated using pymatgen
data_Li5Fe11O16
_symmetry_space_group_name_H-M   'P 1'
_cell_length_a   12.09918100
_cell_length_b   6.09275400
_cell_length_c   10.48786233
_cell_angle_alpha   54.46476023
_cell_angle_beta   90.00000000
_cell_angle_gamma   90.00000000
_symmetry_Int_Tables_number   1
_chemical_formula_structural   Li5Fe11O16
_chemical_formula_sum   'Li10 Fe22 O32'
_cell_volume   629.14677445
_cell_formula_units_Z   2
loop_
 _symmetry_equiv_pos_site_id
 _symmetry_equiv_pos_as_xyz
  1  'x, y, z'
loop_
 _atom_site_type_symbol
 _atom_site_label
 _atom_site_symmetry_multiplicity
 _atom_site_fract_x
 _atom_site_fract_y
 _atom_site_fract_z
 _atom_site_occupancy
  Li  Li0  1  0.12666400  0.01152500  0.74136500  1
  Li  Li1  1  0.62666400  0.98847500  0.75863500  1
  Li  Li2  1  0.74602300  0.50852900  0.99934300  1
  Li  Li3  1  0.50000000  0.50000000  0.00000000  1
  Li  Li4  1  0.25397700  0.49147100  0.00065700  1
  Li  Li5  1  0.87333600  0.98847500  0.25863500  1
  Li  Li6  1  0.37333600  0.01152500  0.24136500  1
  Li  Li7  1  0.00000000  0.50000000  0.50000000  1
  Li  Li8  1  0.24602300  0.49147100  0.50065700  1
  Li  Li9  1  0.75397700  0.50852900  0.49934300  1
  Fe  Fe0  1  0.12788300  0.50692100  0.74033200  1
  Fe  Fe1  1  0.37380100  0.49525400  0.75445200  1
  Fe  Fe2  1  0.87380100  0.50474600  0.74554800  1
  Fe  Fe3  1  0.62788300  0.49307900  0.75966800  1
  Fe  Fe4  1  0.37164000  0.98994600  0.75832800  1
  Fe  Fe5  1  0.87164000  0.01005400  0.74167200  1
  Fe  Fe6  1  0.74920500  0.00530500  0.00000000  1
  Fe  Fe7  1  0.25079500  0.99469500  0.00000000  1
  Fe  Fe8  1  0.00000000  0.50000000  0.00000000  1
  Fe  Fe9  1  0.00000000  0.00000000  0.00000000  1
  Fe  Fe10  1  0.50000000  0.00000000  0.00000000  1
  Fe  Fe11  1  0.62619900  0.50474600  0.24554800  1
  Fe  Fe12  1  0.12619900  0.49525400  0.25445200  1
  Fe  Fe13  1  0.62836000  0.01005400  0.24167200  1
  Fe  Fe14  1  0.87211700  0.49307900  0.25966800  1
  Fe  Fe15  1  0.37211700  0.50692100  0.24033200  1
  Fe  Fe16  1  0.12836000  0.98994600  0.25832800  1
  Fe  Fe17  1  0.00000000  0.00000000  0.50000000  1
  Fe  Fe18  1  0.50000000  0.00000000  0.50000000  1
  Fe  Fe19  1  0.75079500  0.00530500  0.50000000  1
  Fe  Fe20  1  0.24920500  0.99469500  0.50000000  1
  Fe  Fe21  1  0.50000000  0.50000000  0.50000000  1
  O  O0  1  0.50186200  0.26986800  0.74649800  1
  O  O1  1  0.24985600  0.27013400  0.74491500  1
  O  O2  1  0.74928600  0.27534000  0.74556700  1
  O  O3  1  0.00079800  0.25764500  0.75790900  1
  O  O4  1  0.50079800  0.74235500  0.74209100  1
  O  O5  1  0.00186200  0.73013200  0.75350200  1
  O  O6  1  0.24928600  0.72466000  0.75443300  1
  O  O7  1  0.74985600  0.72986600  0.75508500  1
  O  O8  1  0.62529200  0.75508200  0.01100700  1
  O  O9  1  0.12092700  0.75482100  0.00985700  1
  O  O10  1  0.11973300  0.23888000  0.99950600  1
  O  O11  1  0.62417000  0.26456600  0.99632500  1
  O  O12  1  0.87907300  0.24517900  0.99014300  1
  O  O13  1  0.88026700  0.76112000  0.00049400  1
  O  O14  1  0.37470800  0.24491800  0.98899300  1
  O  O15  1  0.37583000  0.73543400  0.00367500  1
  O  O16  1  0.25014400  0.27013400  0.24491500  1
  O  O17  1  0.99813800  0.26986800  0.24649800  1
  O  O18  1  0.75071400  0.27534000  0.24556700  1
  O  O19  1  0.49920200  0.25764500  0.25790900  1
  O  O20  1  0.25071400  0.72466000  0.25443300  1
  O  O21  1  0.99920200  0.74235500  0.24209100  1
  O  O22  1  0.75014400  0.72986600  0.25508500  1
  O  O23  1  0.49813800  0.73013200  0.25350200  1
  O  O24  1  0.37907300  0.75482100  0.50985700  1
  O  O25  1  0.87583000  0.26456600  0.49632500  1
  O  O26  1  0.38026700  0.23888000  0.49950600  1
  O  O27  1  0.87470800  0.75508200  0.51100700  1
  O  O28  1  0.61973300  0.76112000  0.50049400  1
  O  O29  1  0.12529200  0.24491800  0.48899300  1
  O  O30  1  0.62092700  0.24517900  0.49014300  1
  O  O31  1  0.12417000  0.73543400  0.50367500  1
loop_
_geom_bond_atom_site_label_1
_geom_bond_atom_site_label_2
_geom_bond_distance
_geom_bond_site_symmetry_2
Li0 O29 2.157094 1_555
Li0 O1 2.184921 1_555
Li0 O3 2.213673 1_555
Li0 O5 2.232039 1_545
Li0 O6 2.235236 1_545
Li0 O9 2.293667 1_546
Li1 O8 2.157094 1_556
Li1 O7 2.184921 1_555
Li1 O4 2.213673 1_555
Li1 O0 2.232039 1_565
Li1 O2 2.235236 1_565
Li1 O30 2.293667 1_565
Li2 O7 2.089874 1_555
Li2 O18 2.103712 1_556
Li2 O11 2.106827 1_555
Li2 O8 2.149167 1_556
Li2 O13 2.242398 1_556
Li2 O12 2.314135 1_555
Li3 O11 2.092951 1_554
Li3 O15 2.092951 1_555
Li3 O19 2.203238 1_555
Li3 O4 2.203238 1_554
Li3 O8 2.221555 1_555
Li3 O14 2.221555 1_554
Li4 O16 2.089874 1_555
Li4 O6 2.103712 1_554
Li4 O15 2.106827 1_555
Li4 O14 2.149167 1_554
Li4 O10 2.242398 1_554
Li4 O9 2.314135 1_555
Li5 O27 2.157094 1_555
Li5 O22 2.184921 1_555
Li5 O21 2.213673 1_555
Li5 O17 2.232039 1_565
Li5 O18 2.235236 1_565
Li5 O12 2.293667 1_564
Li6 O14 2.157094 1_554
Li6 O16 2.184921 1_555
Li6 O19 2.213673 1_555
Li6 O23 2.232039 1_545
Li6 O20 2.235236 1_545
Li6 O24 2.293667 1_545
Li7 O25 2.092951 1_455
Li7 O31 2.092951 1_555
Li7 O21 2.203238 1_455
Li7 O3 2.203238 1_555
Li7 O27 2.221555 1_455
Li7 O29 2.221555 1_555
Li8 O1 2.089874 1_555
Li8 O20 2.103712 1_555
Li8 O31 2.106827 1_555
Li8 O29 2.149167 1_555
Li8 O26 2.242398 1_555
Li8 O24 2.314135 1_555
Li9 O22 2.089874 1_555
Li9 O2 2.103712 1_555
Li9 O25 2.106827 1_555
Li9 O27 2.149167 1_555
Li9 O28 2.242398 1_555
Li9 O30 2.314135 1_555
Fe0 O31 2.020894 1_555
Fe0 O6 2.041440 1_555
Fe0 O1 2.044738 1_555
Fe0 O3 2.092727 1_555
Fe0 O5 2.100432 1_555
Fe0 O10 2.214780 1_555
Fe1 O14 2.004020 1_555
Fe1 O6 2.054973 1_555
Fe1 O1 2.073563 1_555
Fe1 O24 2.090452 1_555
Fe1 O4 2.101798 1_555
Fe1 O0 2.103948 1_555
Fe2 O27 2.004020 1_555
Fe2 O2 2.054973 1_555
Fe2 O7 2.073563 1_555
Fe2 O12 2.090452 1_555
Fe2 O3 2.101798 1_655
Fe2 O5 2.103948 1_655
Fe3 O11 2.020894 1_555
Fe3 O2 2.041440 1_555
Fe3 O7 2.044738 1_555
Fe3 O4 2.092727 1_555
Fe3 O0 2.100432 1_555
Fe3 O28 2.214780 1_555
Fe4 O15 2.095274 1_556
Fe4 O1 2.196828 1_565
Fe4 O6 2.209627 1_555
Fe4 O26 2.212243 1_565
Fe4 O4 2.246166 1_555
Fe4 O0 2.271694 1_565
Fe5 O25 2.095274 1_555
Fe5 O7 2.196828 1_545
Fe5 O2 2.209627 1_555
Fe5 O13 2.212243 1_546
Fe5 O3 2.246166 1_655
Fe5 O5 2.271694 1_645
Fe6 O8 2.093020 1_545
Fe6 O12 2.107130 1_554
Fe6 O11 2.171295 1_554
Fe6 O13 2.172343 1_545
Fe6 O2 2.173528 1_554
Fe6 O22 2.180562 1_545
Fe7 O14 2.093020 1_564
Fe7 O9 2.107130 1_555
Fe7 O15 2.171295 1_555
Fe7 O10 2.172343 1_564
Fe7 O20 2.173528 1_555
Fe7 O1 2.180562 1_564
Fe8 O5 2.106273 1_554
Fe8 O17 2.106273 1_455
Fe8 O13 2.153914 1_455
Fe8 O10 2.153914 1_554
Fe8 O12 2.179086 1_454
Fe8 O9 2.179086 1_555
Fe9 O12 2.050214 1_454
Fe9 O9 2.050214 1_545
Fe9 O13 2.051391 1_445
Fe9 O10 2.051391 1_554
Fe9 O3 2.068309 1_554
Fe9 O21 2.068309 1_445
Fe10 O8 2.082755 1_545
Fe10 O14 2.082755 1_554
Fe10 O23 2.165915 1_545
Fe10 O0 2.165915 1_554
Fe10 O15 2.187390 1_545
Fe10 O11 2.187390 1_554
Fe11 O8 2.004020 1_555
Fe11 O18 2.054973 1_555
Fe11 O22 2.073563 1_555
Fe11 O30 2.090452 1_555
Fe11 O19 2.101798 1_555
Fe11 O23 2.103948 1_555
Fe12 O29 2.004020 1_555
Fe12 O20 2.054973 1_555
Fe12 O16 2.073563 1_555
Fe12 O9 2.090452 1_555
Fe12 O21 2.101798 1_455
Fe12 O17 2.103948 1_455
Fe13 O11 2.095274 1_554
Fe13 O22 2.196828 1_545
Fe13 O18 2.209627 1_555
Fe13 O28 2.212243 1_545
Fe13 O19 2.246166 1_555
Fe13 O23 2.271694 1_545
Fe14 O25 2.020894 1_555
Fe14 O18 2.041440 1_555
Fe14 O22 2.044738 1_555
Fe14 O21 2.092727 1_555
Fe14 O17 2.100432 1_555
Fe14 O13 2.214780 1_555
Fe15 O15 2.020894 1_555
Fe15 O20 2.041440 1_555
Fe15 O16 2.044738 1_555
Fe15 O19 2.092727 1_555
Fe15 O23 2.100432 1_555
Fe15 O26 2.214780 1_555
Fe16 O31 2.095274 1_555
Fe16 O16 2.196828 1_565
Fe16 O20 2.209627 1_555
Fe16 O10 2.212243 1_564
Fe16 O21 2.246166 1_455
Fe16 O17 2.271694 1_465
Fe17 O29 2.082755 1_555
Fe17 O27 2.082755 1_445
Fe17 O5 2.165915 1_545
Fe17 O17 2.165915 1_455
Fe17 O31 2.187390 1_545
Fe17 O25 2.187390 1_455
Fe18 O30 2.050214 1_555
Fe18 O24 2.050214 1_545
Fe18 O28 2.051391 1_545
Fe18 O26 2.051391 1_555
Fe18 O4 2.068309 1_545
Fe18 O19 2.068309 1_555
Fe19 O27 2.093020 1_545
Fe19 O30 2.107130 1_555
Fe19 O25 2.171295 1_555
Fe19 O28 2.172343 1_545
Fe19 O18 2.173528 1_555
Fe19 O7 2.180562 1_545
Fe20 O29 2.093020 1_565
Fe20 O24 2.107130 1_555
Fe20 O31 2.171295 1_555
Fe20 O26 2.172343 1_565
Fe20 O6 2.173528 1_555
Fe20 O16 2.180562 1_565
Fe21 O0 2.106273 1_555
Fe21 O23 2.106273 1_555
Fe21 O28 2.153914 1_555
Fe21 O26 2.153914 1_555
Fe21 O30 2.179086 1_555
Fe21 O24 2.179086 1_555
