# generated using pymatgen
data_CsLi7(NiO3)2
_symmetry_space_group_name_H-M   'P 1'
_cell_length_a   5.42694059
_cell_length_b   5.42694059
_cell_length_c   10.25005741
_cell_angle_alpha   86.77752600
_cell_angle_beta   86.77752600
_cell_angle_gamma   40.05935013
_symmetry_Int_Tables_number   1
_chemical_formula_structural   CsLi7(NiO3)2
_chemical_formula_sum   'Cs1 Li7 Ni2 O6'
_cell_volume   193.93702974
_cell_formula_units_Z   1
loop_
 _symmetry_equiv_pos_site_id
 _symmetry_equiv_pos_as_xyz
  1  'x, y, z'
loop_
 _atom_site_type_symbol
 _atom_site_label
 _atom_site_symmetry_multiplicity
 _atom_site_fract_x
 _atom_site_fract_y
 _atom_site_fract_z
 _atom_site_occupancy
  Cs  Cs0  1  0.00000000  0.00000000  0.00000000  1
  Li  Li0  1  0.16641400  0.16641400  0.72721700  1
  Li  Li1  1  0.73091200  0.73091200  0.89416200  1
  Li  Li2  1  0.24869100  0.24869100  0.41654400  1
  Li  Li3  1  0.75130900  0.75130900  0.58345600  1
  Li  Li4  1  0.26908800  0.26908800  0.10583800  1
  Li  Li5  1  0.83358600  0.83358600  0.27278300  1
  Li  Li6  1  0.50000000  0.50000000  0.50000000  1
  Ni  Ni0  1  0.58269400  0.58269400  0.25773800  1
  Ni  Ni1  1  0.41730600  0.41730600  0.74226200  1
  O  O0  1  0.60045500  0.60045500  0.73537500  1
  O  O1  1  0.67177800  0.67177800  0.41222900  1
  O  O2  1  0.70422200  0.70422200  0.11499500  1
  O  O3  1  0.29577800  0.29577800  0.88500500  1
  O  O4  1  0.32822200  0.32822200  0.58777100  1
  O  O5  1  0.39954500  0.39954500  0.26462500  1
loop_
_geom_bond_atom_site_label_1
_geom_bond_atom_site_label_2
_geom_bond_distance
_geom_bond_site_symmetry_2
Cs0 Li1 3.010418 1_444
Cs0 Li4 3.010418 1_555
Cs0 O2 3.078153 1_545
Cs0 O2 3.078153 1_455
Cs0 O3 3.078153 1_544
Cs0 O3 3.078153 1_454
Cs0 Li1 3.141786 1_544
Cs0 Li4 3.141786 1_455
Cs0 Li1 3.141786 1_454
Cs0 Li4 3.141786 1_545
Cs0 O2 3.171933 1_445
Cs0 O3 3.171933 1_554
Cs0 Li0 3.182739 1_554
Cs0 Li5 3.182739 1_445
Cs0 Ni0 3.378156 1_455
Cs0 Ni0 3.378156 1_545
Cs0 Ni1 3.378156 1_454
Cs0 Ni1 3.378156 1_544
Cs0 O5 3.395452 1_455
Cs0 O0 3.395452 1_544
Cs0 O0 3.395452 1_454
Cs0 O5 3.395452 1_545
Li0 O0 1.976783 1_545
Li0 O0 1.976783 1_455
Li0 O4 2.117387 1_555
Li0 O3 2.147396 1_555
Li1 O3 1.973301 1_565
Li1 O3 1.973301 1_655
Li1 O0 2.162834 1_555
Li1 O2 2.263629 1_556
Li2 O4 1.976965 1_555
Li2 O1 2.018974 1_455
Li2 O1 2.018974 1_545
Li2 O5 2.122399 1_555
Li3 O1 1.976965 1_555
Li3 O4 2.018974 1_655
Li3 O4 2.018974 1_565
Li3 O0 2.122399 1_555
Li4 O2 1.973301 1_545
Li4 O2 1.973301 1_455
Li4 O5 2.162834 1_555
Li4 O3 2.263629 1_554
Li5 O5 1.976783 1_655
Li5 O5 1.976783 1_565
Li5 O1 2.117387 1_555
Li5 O2 2.147396 1_555
Li6 O1 1.920732 1_555
Li6 O4 1.920732 1_555
Ni0 O2 1.859984 1_555
Ni0 O5 1.864750 1_555
Ni0 O1 1.872159 1_555
Ni1 O3 1.859984 1_555
Ni1 O0 1.864750 1_555
Ni1 O4 1.872159 1_555
