# generated using pymatgen
data_Li3V2(O2F)2
_symmetry_space_group_name_H-M   'P 1'
_cell_length_a   5.03625939
_cell_length_b   5.03625939
_cell_length_c   14.89056736
_cell_angle_alpha   89.90751940
_cell_angle_beta   89.90751940
_cell_angle_gamma   119.90288856
_symmetry_Int_Tables_number   1
_chemical_formula_structural   Li3V2(O2F)2
_chemical_formula_sum   'Li9 V6 O12 F6'
_cell_volume   327.40096354
_cell_formula_units_Z   3
loop_
 _symmetry_equiv_pos_site_id
 _symmetry_equiv_pos_as_xyz
  1  'x, y, z'
loop_
 _atom_site_type_symbol
 _atom_site_label
 _atom_site_symmetry_multiplicity
 _atom_site_fract_x
 _atom_site_fract_y
 _atom_site_fract_z
 _atom_site_occupancy
  Li  Li0  1  0.67383700  0.32616300  0.00000000  1
  Li  Li1  1  0.66548300  0.33451700  0.50000000  1
  Li  Li2  1  0.33075300  0.66924700  0.50000000  1
  Li  Li3  1  0.33286200  0.66713800  0.00000000  1
  Li  Li4  1  0.00455500  0.66754700  0.14162400  1
  Li  Li5  1  0.66812700  0.67110700  0.85690900  1
  Li  Li6  1  0.98956400  0.01043600  0.00000000  1
  Li  Li7  1  0.33245300  0.99544500  0.85837600  1
  Li  Li8  1  0.32889300  0.33187300  0.14309100  1
  V  V0  1  0.68061300  0.00480900  0.66731800  1
  V  V1  1  0.99519100  0.31938700  0.33268200  1
  V  V2  1  0.00191700  0.66836900  0.66820100  1
  V  V3  1  0.67150600  0.67847200  0.33289900  1
  V  V4  1  0.33163100  0.99808300  0.33179900  1
  V  V5  1  0.32152800  0.32849400  0.66710100  1
  O  O0  1  0.65675800  0.00133400  0.40823300  1
  O  O1  1  0.66098700  0.33199100  0.73485800  1
  O  O2  1  0.66800900  0.33901300  0.26514200  1
  O  O3  1  0.99866600  0.34324200  0.59176700  1
  O  O4  1  0.34379800  0.67469500  0.73551100  1
  O  O5  1  0.32530500  0.65620200  0.26448900  1
  O  O6  1  0.99907200  0.65728400  0.40586100  1
  O  O7  1  0.65850000  0.65829600  0.59394100  1
  O  O8  1  0.00625500  0.00151000  0.26190900  1
  O  O9  1  0.99849000  0.99374500  0.73809100  1
  O  O10  1  0.34271600  0.00092800  0.59413900  1
  O  O11  1  0.34170400  0.34150000  0.40605900  1
  F  F0  1  0.64908800  0.98488600  0.92194000  1
  F  F1  1  0.01511400  0.35091200  0.07806000  1
  F  F2  1  0.00033200  0.69134900  0.92059200  1
  F  F3  1  0.66914800  0.64785700  0.08047200  1
  F  F4  1  0.30865100  0.99966800  0.07940800  1
  F  F5  1  0.35214300  0.33085200  0.91952800  1
loop_
_geom_bond_atom_site_label_1
_geom_bond_atom_site_label_2
_geom_bond_distance
_geom_bond_site_symmetry_2
Li1 O0 2.149163 1_555
Li1 O3 2.149163 1_555
Li1 O11 2.163638 1_555
Li1 O7 2.163638 1_555
Li1 O6 2.166102 1_555
Li1 O10 2.166102 1_555
Li2 O0 2.146521 1_565
Li2 O3 2.146521 1_455
Li2 O6 2.160197 1_455
Li2 O10 2.160197 1_565
Li2 O11 2.186846 1_555
Li2 O7 2.186846 1_555
Li4 O8 2.456103 1_565
Li4 O5 2.461935 1_555
Li4 O2 2.485405 1_455
Li5 O9 2.413391 1_555
Li5 O4 2.444365 1_555
Li5 O1 2.483970 1_555
Li7 O9 2.456103 1_455
Li7 O4 2.461935 1_555
Li7 O1 2.485405 1_565
Li8 O8 2.413391 1_555
Li8 O5 2.444365 1_555
Li8 O2 2.483970 1_555
O0 V4 1.989006 1_545
O0 V1 2.000582 1_555
O0 V3 2.008443 1_545
O1 V2 1.972836 1_655
O1 V0 1.975803 1_555
O1 V5 1.979045 1_555
O2 V4 1.972836 1_545
O2 V1 1.975803 1_555
O2 V3 1.979045 1_555
O3 V2 1.989006 1_655
O3 V0 2.000582 1_555
O3 V5 2.008443 1_655
O4 V0 1.962055 1_565
O4 V5 1.975189 1_555
O4 V2 1.980194 1_555
O5 V1 1.962055 1_455
O5 V3 1.975189 1_555
O5 V4 1.980194 1_555
O6 V1 2.014095 1_555
O6 V4 2.022116 1_655
O6 V3 2.023417 1_555
O7 V5 2.000836 1_555
O7 V0 2.016055 1_565
O7 V2 2.033588 1_655
O8 V1 1.941860 1_455
O8 V4 1.949941 1_545
O8 V3 1.964795 1_445
O9 V0 1.941860 1_565
O9 V2 1.949941 1_655
O9 V5 1.964795 1_665
O10 V0 2.014095 1_555
O10 V2 2.022116 1_545
O10 V5 2.023417 1_555
O11 V3 2.000836 1_555
O11 V1 2.016055 1_455
O11 V4 2.033588 1_545
F0 Li7 1.879065 1_555
F0 Li5 1.897333 1_555
F0 Li3 1.973628 1_556
F0 Li6 2.023570 1_566
F0 Li0 2.028315 1_566
F1 Li4 1.879065 1_555
F1 Li8 1.897333 1_555
F1 Li3 1.973628 1_555
F1 Li6 2.023570 1_455
F1 Li0 2.028315 1_455
F2 Li7 1.854133 1_555
F2 Li5 1.882594 1_455
F2 Li6 2.019001 1_466
F2 Li3 2.104087 1_556
F2 Li0 2.110893 1_456
F3 Li4 1.878997 1_655
F3 Li8 1.899852 1_555
F3 Li0 2.026222 1_555
F3 Li6 2.103088 1_565
F3 Li3 2.117499 1_555
F4 Li4 1.854133 1_555
F4 Li8 1.882594 1_565
F4 Li6 2.019001 1_465
F4 Li3 2.104087 1_555
F4 Li0 2.110893 1_565
F5 Li7 1.878997 1_545
F5 Li5 1.899852 1_555
F5 Li0 2.026222 1_556
F5 Li6 2.103088 1_456
F5 Li3 2.117499 1_556
