# generated using pymatgen
data_Co(SO4)2
_symmetry_space_group_name_H-M   'P 1'
_cell_length_a   8.96726267
_cell_length_b   8.96726267
_cell_length_c   8.96726256
_cell_angle_alpha   56.43386221
_cell_angle_beta   56.43386221
_cell_angle_gamma   56.43386252
_symmetry_Int_Tables_number   1
_chemical_formula_structural   Co(SO4)2
_chemical_formula_sum   'Co3 S6 O24'
_cell_volume   467.83587309
_cell_formula_units_Z   3
loop_
 _symmetry_equiv_pos_site_id
 _symmetry_equiv_pos_as_xyz
  1  'x, y, z'
loop_
 _atom_site_type_symbol
 _atom_site_label
 _atom_site_symmetry_multiplicity
 _atom_site_fract_x
 _atom_site_fract_y
 _atom_site_fract_z
 _atom_site_occupancy
  Co  Co0  1  0.64439900  0.64439900  0.64439900  1
  Co  Co1  1  0.35673800  0.35673800  0.35673800  1
  Co  Co2  1  0.14977300  0.14977300  0.14977300  1
  S  S0  1  0.53403200  0.96004800  0.25663000  1
  S  S1  1  0.25663000  0.53403200  0.96004800  1
  S  S2  1  0.96004800  0.25663000  0.53403200  1
  S  S3  1  0.03878600  0.74942500  0.46117300  1
  S  S4  1  0.74942500  0.46117300  0.03878600  1
  S  S5  1  0.46117300  0.03878600  0.74942500  1
  O  O0  1  0.48823900  0.88826800  0.70190500  1
  O  O1  1  0.88826800  0.70190500  0.48823900  1
  O  O2  1  0.66527100  0.99241100  0.05696100  1
  O  O3  1  0.70190500  0.48823900  0.88826800  1
  O  O4  1  0.34899700  0.97712300  0.27476300  1
  O  O5  1  0.61017200  0.76670200  0.39140200  1
  O  O6  1  0.39140200  0.61017200  0.76670200  1
  O  O7  1  0.05696100  0.66527100  0.99241100  1
  O  O8  1  0.76670200  0.39140200  0.61017200  1
  O  O9  1  0.02096400  0.94797100  0.32126200  1
  O  O10  1  0.03402500  0.72032900  0.64208900  1
  O  O11  1  0.72032900  0.64208900  0.03402500  1
  O  O12  1  0.27476300  0.34899700  0.97712300  1
  O  O13  1  0.97712300  0.27476300  0.34899700  1
  O  O14  1  0.99241100  0.05696100  0.66527100  1
  O  O15  1  0.23416500  0.61626600  0.37688500  1
  O  O16  1  0.94797100  0.32126200  0.02096400  1
  O  O17  1  0.61626600  0.37688500  0.23416500  1
  O  O18  1  0.37688500  0.23416500  0.61626600  1
  O  O19  1  0.64208900  0.03402500  0.72032900  1
  O  O20  1  0.31557900  0.49724800  0.10764000  1
  O  O21  1  0.32126200  0.02096400  0.94797100  1
  O  O22  1  0.10764000  0.31557900  0.49724800  1
  O  O23  1  0.49724800  0.10764000  0.31557900  1
loop_
_geom_bond_atom_site_label_1
_geom_bond_atom_site_label_2
_geom_bond_distance
_geom_bond_site_symmetry_2
Co0 O3 2.017748 1_555
Co0 O1 2.017748 1_555
Co0 O0 2.017748 1_555
Co0 O5 2.022462 1_555
Co0 O6 2.022462 1_555
Co0 O8 2.022462 1_555
Co1 O20 1.999627 1_555
Co1 O22 1.999627 1_555
Co1 O23 1.999627 1_555
Co1 O18 2.018317 1_555
Co1 O17 2.018317 1_555
Co1 O15 2.018317 1_555
Co2 O13 2.020294 1_455
Co2 O12 2.020294 1_554
Co2 O4 2.020294 1_545
Co2 O21 2.060009 1_554
Co2 O9 2.060009 1_545
Co2 O16 2.060009 1_455
O0 S5 1.490524 1_565
O1 S3 1.490524 1_655
O2 S0 1.465622 1_555
O3 S4 1.490524 1_556
O4 S0 1.500422 1_555
O5 S0 1.489681 1_555
O6 S1 1.489681 1_555
O7 S1 1.465622 1_555
O8 S2 1.489681 1_555
O9 S3 1.485428 1_555
O10 S3 1.472918 1_555
O11 S4 1.472918 1_555
O12 S1 1.500422 1_555
O13 S2 1.500422 1_555
O14 S2 1.465622 1_555
O15 S3 1.512268 1_555
O16 S4 1.485428 1_555
O17 S4 1.512268 1_555
O18 S5 1.512268 1_555
O19 S5 1.472918 1_555
O20 S1 1.495979 1_554
O21 S5 1.485428 1_555
O22 S2 1.495979 1_455
O23 S0 1.495979 1_545
