# generated using pymatgen
data_Mn3(PO4)2
_symmetry_space_group_name_H-M   'P 1'
_cell_length_a   5.20130259
_cell_length_b   8.63458213
_cell_length_c   7.72001783
_cell_angle_alpha   89.99982200
_cell_angle_beta   86.74890475
_cell_angle_gamma   89.99868353
_symmetry_Int_Tables_number   1
_chemical_formula_structural   Mn3(PO4)2
_chemical_formula_sum   'Mn6 P4 O16'
_cell_volume   346.15628795
_cell_formula_units_Z   2
loop_
 _symmetry_equiv_pos_site_id
 _symmetry_equiv_pos_as_xyz
  1  'x, y, z'
loop_
 _atom_site_type_symbol
 _atom_site_label
 _atom_site_symmetry_multiplicity
 _atom_site_fract_x
 _atom_site_fract_y
 _atom_site_fract_z
 _atom_site_occupancy
  Mn  Mn0  1  0.49994175  0.50001898  0.50005085  1
  Mn  Mn1  1  0.41348023  0.14225124  0.62154501  1
  Mn  Mn2  1  0.58655159  0.85775301  0.37843911  1
  Mn  Mn3  1  -0.00002165  -0.00000650  0.00001181  1
  Mn  Mn4  1  0.08655957  0.64224867  0.87844990  1
  Mn  Mn5  1  0.91344185  0.35775314  0.12155498  1
  P  P0  1  0.03307097  0.69388623  0.29826651  1
  P  P1  1  0.46691992  0.19388401  0.20173523  1
  P  P2  1  0.53307588  0.80611893  0.79825951  1
  P  P3  1  0.96693919  0.30610989  0.70173258  1
  O  O0  1  0.04110390  0.58152462  0.14286515  1
  O  O1  1  0.45892699  0.08152841  0.35712445  1
  O  O2  1  0.54106992  0.91846700  0.64286737  1
  O  O3  1  0.95893597  0.41847737  0.85713153  1
  O  O4  1  0.04890795  0.14299970  0.76117307  1
  O  O5  1  0.45112352  0.64299581  0.73883494  1
  O  O6  1  0.54887462  0.35700372  0.26116665  1
  O  O7  1  0.95111060  0.85699818  0.23882307  1
  O  O8  1  0.20055313  0.19500830  0.12689869  1
  O  O9  1  0.29942514  0.69501414  0.37310406  1
  O  O10  1  0.70057988  0.30499353  0.62689953  1
  O  O11  1  0.79944051  0.80498578  0.87309478  1
  O  O12  1  0.17629561  0.35585583  0.56489425  1
  O  O13  1  0.32371474  0.85585552  0.93510809  1
  O  O14  1  0.67627448  0.14414109  0.06487793  1
  O  O15  1  0.82370575  0.64413640  0.43509594  1
loop_
_geom_bond_atom_site_label_1
_geom_bond_atom_site_label_2
_geom_bond_distance
_geom_bond_site_symmetry_2
Mn0 O12 2.130346 1_555
Mn0 O15 2.130756 1_555
Mn0 O5 2.221187 1_555
Mn0 O6 2.222048 1_555
Mn0 O9 2.235821 1_555
Mn0 O10 2.235976 1_555
Mn1 O10 2.052644 1_555
Mn1 O2 2.052694 1_545
Mn1 O1 2.107863 1_555
Mn1 O4 2.127417 1_555
Mn1 O12 2.275095 1_555
Mn2 O1 2.052676 1_565
Mn2 O9 2.052716 1_555
Mn2 O2 2.107912 1_555
Mn2 O7 2.127315 1_555
Mn2 O15 2.275102 1_555
Mn3 O14 2.130491 1_455
Mn3 O13 2.130629 1_544
Mn3 O7 2.221466 1_445
Mn3 O4 2.221715 1_554
Mn3 O11 2.235891 1_444
Mn3 O8 2.235923 1_555
Mn4 O11 2.052640 1_455
Mn4 O3 2.052673 1_455
Mn4 O0 2.107829 1_556
Mn4 O5 2.127334 1_555
Mn4 O13 2.275087 1_555
Mn5 O8 2.052651 1_655
Mn5 O0 2.052734 1_655
Mn5 O3 2.107902 1_554
Mn5 O6 2.127337 1_555
Mn5 O14 2.275191 1_555
O0 P0 1.541632 1_555
O1 P1 1.541526 1_555
O2 P2 1.541503 1_555
O3 P3 1.541652 1_555
O4 P3 1.548567 1_455
O5 P2 1.548625 1_555
O6 P1 1.548619 1_555
O7 P0 1.548575 1_655
O8 P1 1.531061 1_555
O9 P0 1.531004 1_555
O10 P3 1.531013 1_555
O11 P2 1.531047 1_555
O12 P3 1.534853 1_455
O13 P2 1.534886 1_555
O14 P1 1.534922 1_555
O15 P0 1.534848 1_655
