# generated using pymatgen
data_Li2NiO2F
_symmetry_space_group_name_H-M   'P 1'
_cell_length_a   2.89996804
_cell_length_b   2.89996804
_cell_length_c   14.30778500
_cell_angle_alpha   90.00000000
_cell_angle_beta   90.00000000
_cell_angle_gamma   120.00000083
_symmetry_Int_Tables_number   1
_chemical_formula_structural   Li2NiO2F
_chemical_formula_sum   'Li4 Ni2 O4 F2'
_cell_volume   104.20521542
_cell_formula_units_Z   2
loop_
 _symmetry_equiv_pos_site_id
 _symmetry_equiv_pos_as_xyz
  1  'x, y, z'
loop_
 _atom_site_type_symbol
 _atom_site_label
 _atom_site_symmetry_multiplicity
 _atom_site_fract_x
 _atom_site_fract_y
 _atom_site_fract_z
 _atom_site_occupancy
  Li  Li0  1  0.33333300  0.66666700  0.66665200  1
  Li  Li1  1  0.33333300  0.66666700  0.16666400  1
  Li  Li2  1  0.66666700  0.33333300  0.33058200  1
  Li  Li3  1  0.00000000  0.00000000  0.00278200  1
  Ni  Ni0  1  0.66666700  0.33333300  0.83370800  1
  Ni  Ni1  1  0.00000000  0.00000000  0.49963000  1
  O  O0  1  0.33333300  0.66666700  0.90902100  1
  O  O1  1  0.66666700  0.33333300  0.57621100  1
  O  O2  1  0.33333300  0.66666700  0.42428400  1
  O  O3  1  0.00000000  0.00000000  0.75713800  1
  F  F0  1  0.66666700  0.33333300  0.08438700  1
  F  F1  1  0.00000000  0.00000000  0.24894400  1
loop_
_geom_bond_atom_site_label_1
_geom_bond_atom_site_label_2
_geom_bond_distance
_geom_bond_site_symmetry_2
Li0 O1 2.116064 1_455
Li0 O1 2.116064 1_565
Li0 O1 2.116068 1_555
Li0 O3 2.116458 1_565
Li0 O3 2.116460 1_555
Li0 O3 2.116460 1_665
Li2 O2 2.144914 1_545
Li2 O2 2.144914 1_655
Li2 O2 2.144918 1_555
Li3 O0 2.145442 1_544
Li3 O0 2.145444 1_444
Li3 O0 2.145444 1_554
Ni0 O0 1.991082 1_545
Ni0 O0 1.991082 1_655
Ni0 O0 1.991086 1_555
Ni0 O3 2.000872 1_655
Ni0 O3 2.000874 1_555
Ni0 O3 2.000874 1_665
Ni1 O2 1.991337 1_545
Ni1 O2 1.991339 1_555
Ni1 O2 1.991339 1_445
Ni1 O1 2.000958 1_455
Ni1 O1 2.000960 1_555
Ni1 O1 2.000960 1_445
F0 Li3 2.041207 1_655
F0 Li3 2.041209 1_555
F0 Li3 2.041209 1_665
F0 Li1 2.046722 1_545
F0 Li1 2.046722 1_655
F0 Li1 2.046726 1_555
F1 Li2 2.041477 1_455
F1 Li2 2.041479 1_555
F1 Li2 2.041479 1_445
F1 Li1 2.046746 1_545
F1 Li1 2.046748 1_445
F1 Li1 2.046748 1_555
