# generated using pymatgen
data_Li4TiS4
_symmetry_space_group_name_H-M   'P 1'
_cell_length_a   7.22643400
_cell_length_b   7.23531800
_cell_length_c   13.04466746
_cell_angle_alpha   77.17911978
_cell_angle_beta   90.00000000
_cell_angle_gamma   90.00000000
_symmetry_Int_Tables_number   1
_chemical_formula_structural   Li4TiS4
_chemical_formula_sum   'Li16 Ti4 S16'
_cell_volume   665.04315203
_cell_formula_units_Z   4
loop_
 _symmetry_equiv_pos_site_id
 _symmetry_equiv_pos_as_xyz
  1  'x, y, z'
loop_
 _atom_site_type_symbol
 _atom_site_label
 _atom_site_symmetry_multiplicity
 _atom_site_fract_x
 _atom_site_fract_y
 _atom_site_fract_z
 _atom_site_occupancy
  Li  Li0  1  0.48157200  0.00112100  0.63614600  1
  Li  Li1  1  0.92032000  0.82349900  0.61136700  1
  Li  Li2  1  0.01842800  0.00112100  0.13614600  1
  Li  Li3  1  0.22528600  0.60158300  0.85857800  1
  Li  Li4  1  0.31642900  0.58086500  0.61189700  1
  Li  Li5  1  0.57968000  0.82349900  0.11136700  1
  Li  Li6  1  0.81642900  0.41913500  0.88810300  1
  Li  Li7  1  0.27471400  0.60158300  0.35857800  1
  Li  Li8  1  0.72528600  0.39841700  0.64142200  1
  Li  Li9  1  0.18357100  0.58086500  0.11189700  1
  Li  Li10  1  0.42032000  0.17650100  0.88863300  1
  Li  Li11  1  0.68357100  0.41913500  0.38810300  1
  Li  Li12  1  0.77471400  0.39841700  0.14142200  1
  Li  Li13  1  0.98157200  0.99887900  0.86385400  1
  Li  Li14  1  0.07968000  0.17650100  0.38863300  1
  Li  Li15  1  0.51842800  0.99887900  0.36385400  1
  Ti  Ti0  1  0.59981700  0.78879500  0.87625900  1
  Ti  Ti1  1  0.90018300  0.78879500  0.37625900  1
  Ti  Ti2  1  0.09981700  0.21120500  0.62374100  1
  Ti  Ti3  1  0.40018300  0.21120500  0.12374100  1
  S  S0  1  0.16660800  0.92199600  0.72267600  1
  S  S1  1  0.34438100  0.81537500  0.97127300  1
  S  S2  1  0.84656700  0.70104600  0.98546000  1
  S  S3  1  0.33339200  0.92199600  0.22267600  1
  S  S4  1  0.15561900  0.81537500  0.47127300  1
  S  S5  1  0.54747700  0.57601800  0.77291400  1
  S  S6  1  0.65343300  0.70104600  0.48546000  1
  S  S7  1  0.95252300  0.57601800  0.27291400  1
  S  S8  1  0.04747700  0.42398200  0.72708600  1
  S  S9  1  0.34656700  0.29895400  0.51454000  1
  S  S10  1  0.45252300  0.42398200  0.22708600  1
  S  S11  1  0.84438100  0.18462500  0.52872700  1
  S  S12  1  0.66660800  0.07800400  0.77732400  1
  S  S13  1  0.15343300  0.29895400  0.01454000  1
  S  S14  1  0.65561900  0.18462500  0.02872700  1
  S  S15  1  0.83339200  0.07800400  0.27732400  1
loop_
_geom_bond_atom_site_label_1
_geom_bond_atom_site_label_2
_geom_bond_distance
_geom_bond_site_symmetry_2
Li0 S12 2.437956 1_555
Li0 S0 2.548632 1_545
Li0 S9 2.568025 1_555
Li1 S0 2.498604 1_655
Li1 S4 2.506407 1_655
Li1 S11 2.653343 1_565
Li1 S6 2.801422 1_555
Li2 S15 2.437956 1_455
Li2 S3 2.548632 1_545
Li2 S13 2.568025 1_555
Li3 S1 2.510728 1_555
Li3 S5 2.606838 1_555
Li3 S0 2.621658 1_555
Li3 S8 2.687492 1_555
Li3 S13 2.688136 1_556
Li4 S4 2.492600 1_555
Li4 S8 2.562566 1_555
Li4 S9 2.640150 1_555
Li4 S5 2.677315 1_555
Li4 S6 2.961549 1_555
Li5 S3 2.498604 1_555
Li5 S1 2.506407 1_554
Li5 S14 2.653343 1_565
Li5 S2 2.801422 1_554
Li6 S14 2.492600 1_556
Li6 S5 2.562566 1_555
Li6 S2 2.640150 1_555
Li6 S8 2.677315 1_655
Li6 S13 2.961549 1_656
Li7 S4 2.510728 1_555
Li7 S7 2.606838 1_455
Li7 S3 2.621658 1_555
Li7 S10 2.687492 1_555
Li7 S9 2.688136 1_555
Li8 S11 2.510728 1_555
Li8 S8 2.606838 1_655
Li8 S12 2.621658 1_555
Li8 S5 2.687492 1_555
Li8 S6 2.688136 1_555
Li9 S1 2.492600 1_554
Li9 S10 2.562566 1_555
Li9 S13 2.640150 1_555
Li9 S7 2.677315 1_455
Li9 S2 2.961549 1_454
Li10 S12 2.498604 1_555
Li10 S14 2.506407 1_556
Li10 S1 2.653343 1_545
Li10 S13 2.801422 1_556
Li11 S11 2.492600 1_555
Li11 S7 2.562566 1_555
Li11 S6 2.640150 1_555
Li11 S10 2.677315 1_555
Li11 S9 2.961549 1_555
Li12 S14 2.510728 1_555
Li12 S10 2.606838 1_555
Li12 S15 2.621658 1_555
Li12 S7 2.687492 1_555
Li12 S2 2.688136 1_554
Li13 S0 2.437956 1_655
Li13 S12 2.548632 1_565
Li13 S2 2.568025 1_555
Li14 S15 2.498604 1_455
Li14 S11 2.506407 1_455
Li14 S4 2.653343 1_545
Li14 S9 2.801422 1_555
Li15 S3 2.437956 1_555
Li15 S15 2.548632 1_565
Li15 S6 2.568025 1_555
S0 Ti2 2.253587 1_565
S1 Ti0 2.255274 1_555
S2 Ti0 2.282632 1_555
S3 Ti3 2.253587 1_565
S4 Ti1 2.255274 1_455
S5 Ti0 2.291639 1_555
S6 Ti1 2.282632 1_555
S7 Ti1 2.291639 1_555
S8 Ti2 2.291639 1_555
S9 Ti2 2.282632 1_555
S10 Ti3 2.291639 1_555
S11 Ti2 2.255274 1_655
S12 Ti0 2.253587 1_545
S13 Ti3 2.282632 1_555
S14 Ti3 2.255274 1_555
S15 Ti1 2.253587 1_545
