# generated using pymatgen
data_Hg3SeO6
_symmetry_space_group_name_H-M   'P 1'
_cell_length_a   7.19228554
_cell_length_b   7.19234252
_cell_length_c   10.29938696
_cell_angle_alpha   90.00256172
_cell_angle_beta   89.99826700
_cell_angle_gamma   119.99983443
_symmetry_Int_Tables_number   1
_chemical_formula_structural   Hg3SeO6
_chemical_formula_sum   'Hg9 Se3 O18'
_cell_volume   461.40257501
_cell_formula_units_Z   3
loop_
 _symmetry_equiv_pos_site_id
 _symmetry_equiv_pos_as_xyz
  1  'x, y, z'
loop_
 _atom_site_type_symbol
 _atom_site_label
 _atom_site_symmetry_multiplicity
 _atom_site_fract_x
 _atom_site_fract_y
 _atom_site_fract_z
 _atom_site_occupancy
  Hg  Hg0  1  0.99819712  0.69830862  0.66185120  1
  Hg  Hg1  1  0.31652912  0.81195429  0.97479075  1
  Hg  Hg2  1  0.18800814  0.50458137  0.30811211  1
  Hg  Hg3  1  0.30168671  0.29987783  0.99515350  1
  Hg  Hg4  1  0.49544980  0.68346270  0.64149293  1
  Hg  Hg5  1  0.50265300  0.18546645  0.68026286  1
  Hg  Hg6  1  0.68277516  0.49732009  0.34690569  1
  Hg  Hg7  1  0.81451724  0.31716506  0.01357590  1
  Hg  Hg8  1  0.70011640  0.00180709  0.32849898  1
  Se  Se0  1  0.22514094  0.00953527  0.32601723  1
  Se  Se1  1  0.78437709  0.77485430  0.99269474  1
  Se  Se2  1  0.99050132  0.21563282  0.65938422  1
  O  O0  1  0.98896636  0.88980398  0.39888823  1
  O  O1  1  0.24226465  0.84608463  0.21875743  1
  O  O2  1  0.32566582  0.84455872  0.70920048  1
  O  O3  1  0.15543536  0.48110061  0.04251815  1
  O  O4  1  0.15402373  0.39615760  0.55213709  1
  O  O5  1  0.11015591  0.09914462  0.73228135  1
  O  O6  1  0.27338573  0.22943237  0.24620423  1
  O  O7  1  0.51887003  0.67433268  0.37583370  1
  O  O8  1  0.60383742  0.75782024  0.88543295  1
  O  O9  1  0.41645346  0.08014164  0.43649448  1
  O  O10  1  0.90084918  0.01101907  0.06555840  1
  O  O11  1  0.48767660  0.15713398  0.94811855  1
  O  O12  1  0.66946487  0.51230579  0.61480704  1
  O  O13  1  0.66365736  0.58354444  0.10314835  1
  O  O14  1  0.95602547  0.72658566  0.91286404  1
  O  O15  1  0.84283472  0.33052772  0.28145057  1
  O  O16  1  0.91988974  0.33636292  0.76984421  1
  O  O17  1  0.77059055  0.04397546  0.57956164  1
loop_
_geom_bond_atom_site_label_1
_geom_bond_atom_site_label_2
_geom_bond_distance
_geom_bond_site_symmetry_2
Hg0 O2 2.100967 1_655
Hg0 O12 2.109876 1_555
Hg1 O11 2.167555 1_565
Hg1 O3 2.175909 1_556
Hg1 O14 2.432017 1_455
Hg1 O8 2.464352 1_555
Hg1 O1 2.605808 1_556
Hg2 O15 2.167479 1_455
Hg2 O7 2.175905 1_555
Hg2 O6 2.432075 1_555
Hg2 O1 2.464526 1_555
Hg2 O4 2.606552 1_555
Hg3 O3 2.101016 1_556
Hg3 O11 2.109834 1_555
Hg4 O12 2.167489 1_555
Hg4 O2 2.175936 1_555
Hg4 O17 2.432104 1_565
Hg4 O4 2.464302 1_555
Hg4 O8 2.605596 1_555
Hg5 O12 2.144685 1_555
Hg5 O2 2.144772 1_545
Hg6 O15 2.144693 1_555
Hg6 O7 2.144787 1_555
Hg7 O11 2.144666 1_554
Hg7 O3 2.144817 1_655
Hg8 O7 2.101004 1_545
Hg8 O15 2.109848 1_555
O0 Se0 1.651496 1_665
O1 Se0 1.661996 1_565
O4 Se2 1.661973 1_455
O5 Se2 1.651475 1_455
O6 Se0 1.657956 1_555
O8 Se1 1.662081 1_555
O9 Se0 1.657462 1_555
O10 Se1 1.651399 1_544
O13 Se1 1.657314 1_554
O14 Se1 1.658056 1_555
O16 Se2 1.657432 1_555
O17 Se2 1.658032 1_555
