# generated using pymatgen
data_Cr3SbO8
_symmetry_space_group_name_H-M   'P 1'
_cell_length_a   5.93415021
_cell_length_b   5.93415021
_cell_length_c   9.27766461
_cell_angle_alpha   89.29185272
_cell_angle_beta   89.29185272
_cell_angle_gamma   119.45422293
_symmetry_Int_Tables_number   1
_chemical_formula_structural   Cr3SbO8
_chemical_formula_sum   'Cr6 Sb2 O16'
_cell_volume   284.39246767
_cell_formula_units_Z   2
loop_
 _symmetry_equiv_pos_site_id
 _symmetry_equiv_pos_as_xyz
  1  'x, y, z'
loop_
 _atom_site_type_symbol
 _atom_site_label
 _atom_site_symmetry_multiplicity
 _atom_site_fract_x
 _atom_site_fract_y
 _atom_site_fract_z
 _atom_site_occupancy
  Cr  Cr0  1  0.83031800  0.65939500  0.78775500  1
  Cr  Cr1  1  0.33307400  0.16772300  0.79604200  1
  Cr  Cr2  1  0.82890500  0.17177600  0.78063800  1
  Cr  Cr3  1  0.17177600  0.82890500  0.28063800  1
  Cr  Cr4  1  0.65939500  0.83031800  0.28775500  1
  Cr  Cr5  1  0.16772300  0.33307400  0.29604200  1
  Sb  Sb0  1  0.66636100  0.34034300  0.50913200  1
  Sb  Sb1  1  0.34034300  0.66636100  0.00913200  1
  O  O0  1  0.83379800  0.66860500  0.40071100  1
  O  O1  1  0.51412300  0.47024400  0.66529100  1
  O  O2  1  0.66684700  0.32137300  0.89329900  1
  O  O3  1  0.99853700  0.00913700  0.70076300  1
  O  O4  1  0.00913700  0.99853700  0.20076300  1
  O  O5  1  0.33809900  0.17487800  0.39547700  1
  O  O6  1  0.95621800  0.47289100  0.65708800  1
  O  O7  1  0.51956200  0.04573600  0.66218000  1
  O  O8  1  0.17587100  0.83637100  0.89376200  1
  O  O9  1  0.83637100  0.17587100  0.39376200  1
  O  O10  1  0.47289100  0.95621800  0.15708800  1
  O  O11  1  0.04573600  0.51956200  0.16218000  1
  O  O12  1  0.32137300  0.66684700  0.39329900  1
  O  O13  1  0.66860500  0.83379800  0.90071100  1
  O  O14  1  0.47024400  0.51412300  0.16529100  1
  O  O15  1  0.17487800  0.33809900  0.89547700  1
loop_
_geom_bond_atom_site_label_1
_geom_bond_atom_site_label_2
_geom_bond_distance
_geom_bond_site_symmetry_2
Cr0 O3 1.963779 1_565
Cr0 O2 1.984370 1_555
Cr0 O13 2.017148 1_555
Cr0 O6 2.019069 1_555
Cr0 O1 2.020999 1_555
Cr0 O8 2.057305 1_655
Cr1 O15 1.920828 1_555
Cr1 O8 1.920828 1_545
Cr1 O3 1.958224 1_455
Cr1 O2 1.963923 1_555
Cr1 O1 1.966140 1_555
Cr1 O7 2.016719 1_555
Cr2 O3 1.857039 1_555
Cr2 O2 1.908683 1_555
Cr2 O6 1.917781 1_555
Cr2 O7 1.963902 1_555
Cr2 O13 2.051987 1_545
Cr2 O15 2.100377 1_655
Cr3 O4 1.857039 1_555
Cr3 O12 1.908683 1_555
Cr3 O10 1.917781 1_555
Cr3 O11 1.963902 1_555
Cr3 O0 2.051987 1_455
Cr3 O5 2.100377 1_565
Cr4 O4 1.963779 1_655
Cr4 O12 1.984370 1_555
Cr4 O0 2.017148 1_555
Cr4 O10 2.019069 1_555
Cr4 O14 2.020999 1_555
Cr4 O9 2.057305 1_565
Cr5 O5 1.920828 1_555
Cr5 O9 1.920828 1_455
Cr5 O4 1.958224 1_545
Cr5 O12 1.963923 1_555
Cr5 O14 1.966140 1_555
Cr5 O11 2.016719 1_555
O0 Sb0 1.953711 1_555
O1 Sb0 2.046819 1_555
O5 Sb0 2.016393 1_555
O6 Sb0 2.053300 1_555
O7 Sb0 2.059545 1_555
O8 Sb1 2.020782 1_556
O9 Sb0 2.020782 1_555
O10 Sb1 2.053300 1_555
O11 Sb1 2.059545 1_555
O13 Sb1 1.953711 1_556
O14 Sb1 2.046819 1_555
O15 Sb1 2.016393 1_556
